@<TRIPOS>MOLECULE
4E8N_rdock.pdb
 8412 9427 0 0 0
SMALL
GASTEIGER

@<TRIPOS>ATOM
      1  C5'       46.6480   17.5350   26.6080 C.3    -2  G-2         0.2141
      2  O5'       47.6590   17.7840   27.5970 O.3    -2  G-2        -0.2176
      3  C4'       47.2110   17.6910   25.2070 C.3    -2  G-2         0.1803
      4  O4'       47.8440   16.4450   24.7900 O.3    -2  G-2        -0.3306
      5  C3'       46.1630   18.0180   24.1400 C.3    -2  G-2         0.1877
      6  O3'       46.1690   19.3890   23.7400 O.3    -2  G-2        -0.2939
      7  C2'       46.4800   17.0520   22.9930 C.3    -2  G-2         0.2309
      8  O2'       47.3110   17.6120   21.9980 O.3    -2  G-2        -0.2156
      9  C1'       47.0990   15.8640   23.7360 C.3    -2  G-2         0.2408
     10  N1        42.6760   13.3940   23.1310 N.ar   -2  G-2        -0.1709
     11  C2        43.3610   14.1720   22.2310 C.ar   -2  G-2         0.2606
     12  N2        42.7930   14.3160   21.0250 N.pl3  -2  G-2        -0.0859
     13  N3        44.5170   14.7670   22.4960 N.ar   -2  G-2        -0.1918
     14  C4        44.9440   14.5040   23.7520 C.ar   -2  G-2         0.1723
     15  C5        44.3330   13.7390   24.7260 C.ar   -2  G-2         0.1748
     16  C6        43.0920   13.1150   24.4290 C.ar   -2  G-2         0.3023
     17  O6        42.3940   12.4020   25.1590 O.2    -2  G-2        -0.2633
     18  N7        45.0930   13.7210   25.8890 N.ar   -2  G-2        -0.2173
     19  C8        46.1330   14.4590   25.6080 C.ar   -2  G-2         0.1817
     20  N9        46.1070   14.9650   24.3290 N.ar   -2  G-2        -0.2693
     21  P         44.8080   20.2550   23.7800 P.3    -1  G-1         0.3662
     22  C5'       42.9020   18.5050   23.2650 C.3    -1  G-1         0.1828
     23  O5'       43.8160   19.5090   22.7790 O.3    -1  G-1        -0.2941
     24  C4'       41.8310   18.2100   22.2430 C.3    -1  G-1         0.1753
     25  O4'       41.8820   16.7980   21.8940 O.3    -1  G-1        -0.3483
     26  C3'       40.4020   18.4540   22.7140 C.3    -1  G-1         0.1839
     27  O3'       39.9850   19.8030   22.5120 O.3    -1  G-1        -0.3113
     28  C2'       39.6070   17.4400   21.8980 C.3    -1  G-1         0.2112
     29  O2'       39.2950   17.8490   20.5820 O.3    -1  G-1        -0.2177
     30  C1'       40.5720   16.2560   21.8730 C.3    -1  G-1         0.1776
     31  OP1       45.0590   21.6200   23.2460 O.3    -1  G-1        -0.1446
     32  P         39.9020   20.8290   23.7490 P.3     0  G0          0.2141
     33  C5'       37.5240   20.7760   24.9090 C.3     0  G0          0.1812
     34  O5'       38.3530   21.2040   23.8100 O.3     0  G0         -0.3114
     35  C4'       36.6510   19.6250   24.4740 C.3     0  G0          0.1773
     36  O4'       37.4570   18.4310   24.3260 O.3     0  G0         -0.3307
     37  C3'       35.5780   19.1700   25.4520 C.3     0  G0          0.1860
     38  O3'       34.4510   20.0460   25.5080 O.3     0  G0         -0.3112
     39  C2'       35.2450   17.7780   24.9160 C.3     0  G0          0.2309
     40  O2'       34.3260   17.7960   23.8400 O.3     0  G0         -0.2156
     41  C1'       36.6170   17.2940   24.4240 C.3     0  G0          0.2408
     42  N1        40.7800   15.7810   26.9990 N.ar    0  G0         -0.1709
     43  C2        40.5870   16.9330   26.2790 C.ar    0  G0          0.2606
     44  N2        41.6260   17.7790   26.2350 N.pl3   0  G0         -0.0859
     45  N3        39.4600   17.2320   25.6480 N.ar    0  G0         -0.1918
     46  C4        38.5250   16.2680   25.7990 C.ar    0  G0          0.1723
     47  C5        38.6190   15.0840   26.5010 C.ar    0  G0          0.1748
     48  C6        39.8340   14.7780   27.1720 C.ar    0  G0          0.3023
     49  O6        40.1130   13.7790   27.8430 O.2     0  G0         -0.2633
     50  N7        37.4360   14.3640   26.4130 N.ar    0  G0         -0.2173
     51  C8        36.6570   15.1070   25.6750 C.ar    0  G0          0.1817
     52  N9        37.2480   16.2800   25.2750 N.ar    0  G0         -0.2693
     53  OP1       40.6660   22.0370   23.3580 O.2     0  G0         -0.5172
     54  OP2       40.2640   20.1290   25.0100 O.co2   0  G0         -0.4373
     55  P         33.8970   20.6210   26.9110 P.3     1  G1          0.2141
     56  C5'       31.3240   20.9300   26.8460 C.3     1  G1          0.1811
     57  O5'       32.6040   21.4240   26.4630 O.3     1  G1         -0.3114
     58  C4'       30.2650   21.4360   25.9030 C.3     1  G1          0.1752
     59  O4'       29.9630   20.3960   24.9230 O.3     1  G1         -0.3483
     60  C3'       28.9420   21.7100   26.6030 C.3     1  G1          0.1839
     61  O3'       28.1130   22.6480   25.8950 O.3     1  G1         -0.3113
     62  C2'       28.3460   20.3100   26.6420 C.3     1  G1          0.2112
     63  O2'       26.9670   20.2940   26.9270 O.3     1  G1         -0.2177
     64  C1'       28.7260   19.7830   25.2500 C.3     1  G1          0.1776
     65  OP1       34.8330   21.6310   27.4700 O.2     1  G1         -0.5172
     66  OP2       33.4350   19.4850   27.7600 O.co2   1  G1         -0.4373
     67  P         27.7880   24.1980   26.2500 P.3     2  U2          0.2141
     68  C5'       27.7240   25.5960   28.3910 C.3     2  U2          0.1812
     69  O5'       27.6940   24.3010   27.8270 O.3     2  U2         -0.3114
     70  C4'       26.4960   25.7820   29.2200 C.3     2  U2          0.1773
     71  O4'       26.8600   25.5940   30.6100 O.3     2  U2         -0.3307
     72  C3'       25.8940   27.1730   29.1710 C.3     2  U2          0.1860
     73  O3'       24.5160   27.1110   29.5530 O.3     2  U2         -0.3112
     74  C2'       26.7830   27.9300   30.1630 C.3     2  U2          0.2309
     75  O2'       26.1680   29.0940   30.6910 O.3     2  U2         -0.2156
     76  C1'       27.0470   26.8550   31.2300 C.3     2  U2          0.2420
     77  N1        28.3800   26.8620   31.8640 N.ar    2  U2         -0.2534
     78  C2        28.4830   27.3820   33.1450 C.ar    2  U2          0.3546
     79  O2        27.5330   27.8560   33.7490 O.2     2  U2         -0.2443
     80  N3        29.7450   27.3380   33.6850 N.ar    2  U2         -0.1530
     81  C4        30.8880   26.8280   33.1030 C.ar    2  U2          0.2846
     82  O4        31.9540   26.8650   33.7220 O.2     2  U2         -0.2650
     83  C5        30.6960   26.2920   31.7880 C.ar    2  U2          0.0814
     84  C6        29.4780   26.3200   31.2310 C.ar    2  U2          0.0870
     85  OP1       26.4200   24.5540   25.7980 O.2     2  U2         -0.5172
     86  OP2       28.9450   25.0510   25.8580 O.co2   2  U2         -0.4373
     87  P         23.4780   26.0980   28.8570 P.3     3  G3          0.2141
     88  C5'       23.3290   28.3210   27.4330 C.3     3  G3          0.1812
     89  O5'       23.3160   26.8740   27.4730 O.3     3  G3         -0.3114
     90  C4'       22.5600   28.8730   26.2480 C.3     3  G3          0.1773
     91  O4'       23.2180   28.5310   24.9900 O.3     3  G3         -0.3307
     92  C3'       21.1180   28.4210   26.0850 C.3     3  G3          0.1860
     93  O3'       20.2780   29.3230   26.7690 O.3     3  G3         -0.3112
     94  C2'       20.9020   28.6080   24.5900 C.3     3  G3          0.2309
     95  O2'       20.5720   29.8910   24.1120 O.3     3  G3         -0.2156
     96  C1'       22.2500   28.1520   24.0350 C.3     3  G3          0.2408
     97  N1        19.6830   24.1510   22.3720 N.ar    3  G3         -0.1709
     98  C2        19.4460   25.4840   22.1780 C.ar    3  G3          0.2606
     99  N2        18.3840   25.7870   21.4390 N.pl3   3  G3         -0.0859
    100  N3        20.2130   26.4460   22.6480 N.ar    3  G3         -0.1918
    101  C4        21.2430   25.9600   23.3660 C.ar    3  G3          0.1723
    102  C5        21.5600   24.6490   23.6340 C.ar    3  G3          0.1748
    103  C6        20.7430   23.6290   23.1000 C.ar    3  G3          0.3023
    104  O6        20.8550   22.4120   23.2250 O.2     3  G3         -0.2633
    105  N7        22.7010   24.5700   24.4190 N.ar    3  G3         -0.2173
    106  C8        23.0480   25.8140   24.6060 C.ar    3  G3          0.1817
    107  N9        22.2250   26.7030   23.9640 N.ar    3  G3         -0.2693
    108  OP1       22.1560   26.0220   29.5500 O.3     3  G3         -0.4373
    109  OP2       24.2070   24.8330   28.6130 O.co2   3  G3         -0.5172
    110  P         19.4160   28.9780   28.0650 P.3     4  U4          0.2141
    111  C5'       17.7390   28.7560   26.1170 C.3     4  U4          0.1812
    112  O5'       18.4440   28.1160   27.1490 O.3     4  U4         -0.3114
    113  C4'       16.9630   27.7480   25.3500 C.3     4  U4          0.1773
    114  O4'       17.9200   26.8420   24.7880 O.3     4  U4         -0.3307
    115  C3'       16.0340   26.8990   26.1940 C.3     4  U4          0.1860
    116  O3'       14.7220   27.4020   26.0580 O.3     4  U4         -0.3112
    117  C2'       16.0260   25.5570   25.4740 C.3     4  U4          0.2309
    118  O2'       14.9850   25.4180   24.5330 O.3     4  U4         -0.2156
    119  C1'       17.3960   25.5320   24.7900 C.3     4  U4          0.2420
    120  N1        18.3630   24.6360   25.4460 N.ar    4  U4         -0.2534
    121  C2        18.2800   23.3080   25.1140 C.ar    4  U4          0.3546
    122  O2        17.4570   22.8870   24.3290 O.2     4  U4         -0.2443
    123  N3        19.1910   22.4950   25.7370 N.ar    4  U4         -0.1530
    124  C4        20.1790   22.8700   26.6200 C.ar    4  U4          0.2846
    125  O4        20.9480   22.0160   27.0810 O.2     4  U4         -0.2650
    126  C5        20.2140   24.2730   26.9020 C.ar    4  U4          0.0814
    127  C6        19.3180   25.0870   26.3260 C.ar    4  U4          0.0870
    128  OP1       18.8270   30.2940   28.4520 O.2     4  U4         -0.5172
    129  OP2       20.0390   28.1500   29.1460 O.co2   4  U4         -0.4373
    130  P         13.7270   27.5640   27.2910 P.3     5  G5          0.2141
    131  C5'       12.4310   25.4120   26.3790 C.3     5  G5          0.1812
    132  O5'       13.1380   26.0960   27.4560 O.3     5  G5         -0.3114
    133  C4'       12.3010   23.9390   26.7230 C.3     5  G5          0.1773
    134  O4'       13.6470   23.3850   26.8370 O.3     5  G5         -0.3307
    135  C3'       11.6430   23.6470   28.0650 C.3     5  G5          0.1860
    136  O3'       11.0440   22.3750   28.0940 O.3     5  G5         -0.3112
    137  C2'       12.8410   23.6000   28.9980 C.3     5  G5          0.2309
    138  O2'       12.5860   22.9910   30.2270 O.3     5  G5         -0.2156
    139  C1'       13.8670   22.8860   28.1320 C.3     5  G5          0.2408
    140  N1        18.5120   20.9770   28.9880 N.ar    5  G5         -0.1709
    141  C2        17.3850   20.3440   28.5360 C.ar    5  G5          0.2606
    142  N2        17.5110   19.0380   28.2960 N.pl3   5  G5         -0.0859
    143  N3        16.2150   20.9420   28.3600 N.ar    5  G5         -0.1918
    144  C4        16.2790   22.2660   28.6280 C.ar    5  G5          0.1723
    145  C5        17.3660   23.0020   29.0580 C.ar    5  G5          0.1748
    146  C6        18.6030   22.3270   29.2900 C.ar    5  G5          0.3023
    147  O6        19.6710   22.7870   29.7020 O.2     5  G5         -0.2633
    148  N7        17.0210   24.3380   29.2220 N.ar    5  G5         -0.2173
    149  C8        15.7640   24.3940   28.8670 C.ar    5  G5          0.1817
    150  N9        15.2440   23.1700   28.5190 N.ar    5  G5         -0.2693
    151  OP1       12.5970   28.3680   26.7710 O.2     5  G5         -0.5172
    152  OP2       14.4370   28.0250   28.5140 O.co2   5  G5         -0.4373
    153  P          9.5180   22.0980   27.7400 P.3     6  C6          0.2141
    154  C5'        8.5160   22.6110   30.0850 C.3     6  C6          0.1812
    155  O5'        8.8260   23.0530   28.7920 O.3     6  C6         -0.3114
    156  C4'        7.1780   23.1700   30.4470 C.3     6  C6          0.1773
    157  O4'        7.1890   24.6050   30.2540 O.3     6  C6         -0.3307
    158  C3'        6.0220   22.7280   29.5800 C.3     6  C6          0.1860
    159  O3'        5.5220   21.4970   30.0810 O.3     6  C6         -0.3112
    160  C2'        5.0010   23.7910   29.9220 C.3     6  C6          0.2309
    161  O2'        4.5260   23.5020   31.2260 O.3     6  C6         -0.2156
    162  C1'        5.8800   25.0440   29.9450 C.3     6  C6          0.2420
    163  N1         5.9020   25.7320   28.6440 N.ar    6  C6         -0.2535
    164  C2         4.7940   26.4930   28.2670 C.ar    6  C6          0.3532
    165  O2         3.8490   26.6100   29.0600 O.2     6  C6         -0.2443
    166  N3         4.7590   27.0440   27.0390 N.ar    6  C6         -0.1739
    167  C4         5.7820   26.8670   26.2050 C.ar    6  C6          0.1759
    168  N4         5.7390   27.4860   25.0240 N.pl3   6  C6         -0.1070
    169  C5         6.9250   26.1080   26.5680 C.ar    6  C6          0.0566
    170  C6         6.9410   25.5590   27.7830 C.ar    6  C6          0.0850
    171  OP1        9.2980   20.6570   28.0530 O.3     6  C6         -0.4373
    172  OP2        9.1760   22.6050   26.3880 O.co2   6  C6         -0.5172
    173  P          4.8330   20.5000   29.0430 P.3     7  C7          0.2141
    174  C5'        2.4800   21.2110   30.0560 C.3     7  C7          0.1812
    175  O5'        3.3590   21.0840   28.9330 O.3     7  C7         -0.3114
    176  C4'        1.1850   21.7930   29.5530 C.3     7  C7          0.1773
    177  O4'        1.4290   23.1750   29.1950 O.3     7  C7         -0.3307
    178  C3'        0.6120   21.1710   28.2770 C.3     7  C7          0.1860
    179  O3'       -0.2910   20.0840   28.4920 O.3     7  C7         -0.3112
    180  C2'       -0.2150   22.3040   27.6960 C.3     7  C7          0.2309
    181  O2'       -1.4660   22.3870   28.3430 O.3     7  C7         -0.2156
    182  C1'        0.6280   23.5230   28.0720 C.3     7  C7          0.2420
    183  N1         1.5140   23.9590   26.9870 N.ar    7  C7         -0.2535
    184  C2         0.9650   24.6280   25.8850 C.ar    7  C7          0.3532
    185  O2        -0.2550   24.8210   25.8480 O.2     7  C7         -0.2443
    186  N3         1.7800   25.0370   24.8880 N.ar    7  C7         -0.1739
    187  C4         3.0950   24.8150   24.9690 C.ar    7  C7          0.1759
    188  N4         3.8600   25.2430   23.9730 N.pl3   7  C7         -0.1070
    189  C5         3.6810   24.1450   26.0810 C.ar    7  C7          0.0566
    190  C6         2.8610   23.7380   27.0590 C.ar    7  C7          0.0850
    191  OP1        4.7020   19.1990   29.7310 O.3     7  C7         -0.4373
    192  OP2        5.4590   20.5930   27.6860 O.co2   7  C7         -0.5172
    193  P         -0.4550   18.8780   27.4250 P.3     8  C8          0.2141
    194  C5'       -2.9130   19.5010   26.6130 C.3     8  C8          0.1812
    195  O5'       -1.4910   19.4070   26.3310 O.3     8  C8         -0.3114
    196  C4'       -3.5640   20.4230   25.6140 C.3     8  C8          0.1773
    197  O4'       -2.8310   21.6700   25.5620 O.3     8  C8         -0.3307
    198  C3'       -3.4820   19.9720   24.1720 C.3     8  C8          0.1860
    199  O3'       -4.5330   19.1240   23.8760 O.3     8  C8         -0.3112
    200  C2'       -3.7690   21.2520   23.4300 C.3     8  C8          0.2309
    201  O2'       -5.1280   21.5960   23.4730 O.3     8  C8         -0.2156
    202  C1'       -2.9830   22.2440   24.2750 C.3     8  C8          0.2420
    203  N1        -1.6620   22.4380   23.6840 N.ar    8  C8         -0.2535
    204  C2        -1.5990   23.0180   22.4140 C.ar    8  C8          0.3532
    205  O2        -2.6560   23.3270   21.8480 O.2     8  C8         -0.2443
    206  N3        -0.3940   23.2220   21.8350 N.ar    8  C8         -0.1739
    207  C4         0.7180   22.8330   22.4630 C.ar    8  C8          0.1759
    208  N4         1.8800   23.0140   21.8380 N.pl3   8  C8         -0.1070
    209  C5         0.6850   22.2450   23.7650 C.ar    8  C8          0.0566
    210  C6        -0.5180   22.0450   24.3230 C.ar    8  C8          0.0850
    211  OP1       -1.1340   17.8380   28.2490 O.3     8  C8         -0.4373
    212  OP2        0.8200   18.5530   26.7200 O.co2   8  C8         -0.5172
    213  P         -4.0700   17.7490   23.2800 P.3     9  G9          0.2141
    214  C5'       -5.1440   18.5270   21.0670 C.3     9  G9          0.1812
    215  O5'       -3.9320   18.1980   21.7540 O.3     9  G9         -0.3114
    216  C4'       -4.8800   19.4480   19.9250 C.3     9  G9          0.1773
    217  O4'       -3.9540   20.4800   20.3170 O.3     9  G9         -0.3307
    218  C3'       -4.1460   18.8400   18.7600 C.3     9  G9          0.1860
    219  O3'       -4.9560   18.0510   17.9350 O.3     9  G9         -0.3112
    220  C2'       -3.7580   20.0800   17.9900 C.3     9  G9          0.2309
    221  O2'       -4.8390   20.5250   17.2000 O.3     9  G9         -0.2156
    222  C1'       -3.3340   20.9940   19.1410 C.3     9  G9          0.2408
    223  N1         1.1760   21.7110   16.9170 N.ar    9  G9         -0.1709
    224  C2        -0.0880   21.8960   16.4110 C.ar    9  G9          0.2606
    225  N2        -0.1560   22.3140   15.1450 N.pl3   9  G9         -0.0859
    226  N3        -1.2030   21.6530   17.0890 N.ar    9  G9         -0.1918
    227  C4        -0.9470   21.2260   18.3460 C.ar    9  G9          0.1723
    228  C5         0.2730   21.0330   18.9570 C.ar    9  G9          0.1748
    229  C6         1.4630   21.2620   18.2050 C.ar    9  G9          0.3023
    230  O6         2.6390   21.1050   18.5550 O.2     9  G9         -0.2633
    231  N7         0.1060   20.5970   20.2640 N.ar    9  G9         -0.2173
    232  C8        -1.1880   20.5430   20.4230 C.ar    9  G9          0.1817
    233  N9        -1.8850   20.9360   19.3070 N.ar    9  G9         -0.2693
    234  OP1       -5.3130   16.9710   23.6320 O.2     9  G9         -0.5172
    235  OP2       -2.7570   17.3370   23.8430 O.co2   9  G9         -0.4373
    236  P         -4.2200   16.7230   17.4390 P.3    10  G10         0.2141
    237  C5'       -4.1600   17.8590   15.0820 C.3    10  G10         0.1812
    238  O5'       -3.4380   17.2060   16.1340 O.3    10  G10        -0.3114
    239  C4'       -3.2130   18.3520   14.0310 C.3    10  G10         0.1773
    240  O4'       -2.2170   19.1990   14.6560 O.3    10  G10        -0.3307
    241  C3'       -2.3730   17.2730   13.3970 C.3    10  G10         0.1860
    242  O3'       -3.1020   16.5190   12.4530 O.3    10  G10        -0.3112
    243  C2'       -1.2030   18.0720   12.8370 C.3    10  G10         0.2309
    244  O2'       -1.5340   18.7730   11.6570 O.3    10  G10        -0.2156
    245  C1'       -0.9830   19.0910   13.9510 C.3    10  G10         0.2408
    246  N1         3.9900   19.4290   14.9670 N.ar   10  G10        -0.1709
    247  C2         3.3090   19.8030   13.8390 C.ar   10  G10         0.2606
    248  N2         4.0530   20.3230   12.8600 N.pl3  10  G10        -0.0859
    249  N3         1.9960   19.6610   13.6810 N.ar   10  G10        -0.1918
    250  C4         1.4180   19.1030   14.7680 C.ar   10  G10         0.1723
    251  C5         2.0110   18.7150   15.9530 C.ar   10  G10         0.1748
    252  C6         3.4060   18.8800   16.1040 C.ar   10  G10         0.3023
    253  O6         4.1090   18.5810   17.0680 O.2    10  G10        -0.2633
    254  N7         1.0710   18.1870   16.8270 N.ar   10  G10        -0.2173
    255  C8        -0.0570   18.2630   16.1720 C.ar   10  G10         0.1817
    256  N9         0.0860   18.7910   14.9080 N.ar   10  G10        -0.2693
    257  OP1       -5.4000   15.8220   17.1680 O.2    10  G10        -0.5172
    258  OP2       -3.2540   16.3850   18.5210 O.co2  10  G10        -0.4373
    259  P         -2.8170   14.9380   12.5030 P.3    11  C11         0.2141
    260  C5'       -1.4790   15.5090   10.3000 C.3    11  C11         0.1812
    261  O5'       -1.5890   14.7520   11.5080 O.3    11  C11        -0.3114
    262  C4'       -0.0240   15.6340    9.9190 C.3    11  C11         0.1773
    263  O4'        0.6170   16.6010   10.7840 O.3    11  C11        -0.3307
    264  C3'        0.8260   14.3920   10.1080 C.3    11  C11         0.1860
    265  O3'        0.7560   13.6180    8.9350 O.3    11  C11        -0.3112
    266  C2'        2.2120   14.9880   10.1280 C.3    11  C11         0.2309
    267  O2'        2.5530   15.3540    8.8060 O.3    11  C11        -0.2156
    268  C1'        1.9730   16.2410   10.9610 C.3    11  C11         0.2420
    269  N1         2.2440   16.0220   12.3920 N.ar   11  C11        -0.2535
    270  C2         3.4810   16.4450   12.8920 C.ar   11  C11         0.3532
    271  O2         4.2700   17.0160   12.1260 O.2    11  C11        -0.2443
    272  N3         3.7840   16.2240   14.1900 N.ar   11  C11        -0.1739
    273  C4         2.8990   15.6200   14.9860 C.ar   11  C11         0.1759
    274  N4         3.2510   15.4040   16.2590 N.pl3  11  C11        -0.1070
    275  C5         1.6260   15.1760   14.5030 C.ar   11  C11         0.0566
    276  C6         1.3530   15.3780   13.2060 C.ar   11  C11         0.0850
    277  OP1       -4.0630   14.2410   12.0160 O.2    11  C11        -0.5172
    278  OP2       -2.2220   14.5540   13.8150 O.co2  11  C11        -0.4373
    279  P          0.9960   12.0430    8.9920 P.3    12  A12         0.2141
    280  C5'        3.3930   11.0100    8.5630 C.3    12  A12         0.1812
    281  O5'        2.5810   12.0490    9.1120 O.3    12  A12        -0.3114
    282  C4'        4.7340   11.5930    8.2240 C.3    12  A12         0.1773
    283  O4'        5.4010   12.0200    9.4440 O.3    12  A12        -0.3307
    284  C3'        5.6980   10.6650    7.4970 C.3    12  A12         0.1860
    285  O3'        6.4200   11.5060    6.6230 O.3    12  A12        -0.3112
    286  C2'        6.6830   10.2520    8.5880 C.3    12  A12         0.2309
    287  O2'        7.9990    9.9660    8.1340 O.3    12  A12        -0.2156
    288  C1'        6.7050   11.4900    9.4840 C.3    12  A12         0.2408
    289  N1        10.4020   11.0850   13.0130 N.ar   12  A12        -0.2040
    290  C2        10.3930   11.5720   11.7610 C.ar   12  A12         0.2016
    291  N3         9.3790   11.6560   10.8940 N.ar   12  A12        -0.2048
    292  C4         8.2500   11.1630   11.4330 C.ar   12  A12         0.1692
    293  C5         8.1030   10.6160   12.6980 C.ar   12  A12         0.1518
    294  C6         9.2520   10.5730   13.5130 C.ar   12  A12         0.1919
    295  N6         9.2620   10.0700   14.7470 N.pl3  12  A12        -0.1054
    296  N7         6.7950   10.1950   12.9020 N.ar   12  A12        -0.2193
    297  C8         6.1920   10.4910   11.7750 C.ar   12  A12         0.1816
    298  N9         7.0080   11.1050   10.8530 N.ar   12  A12        -0.2693
    299  OP1        0.5230   11.6330    7.6240 O.2    12  A12        -0.5172
    300  OP2        0.4330   11.4160   10.2460 O.co2  12  A12        -0.4373
    301  P          6.7620   11.0510    5.1640 P.3    13  U13         0.2141
    302  C5'        9.2480   10.6030    4.5190 C.3    13  U13         0.1812
    303  O5'        8.2610   11.5270    4.9490 O.3    13  U13        -0.3114
    304  C4'       10.5400   10.8800    5.2270 C.3    13  U13         0.1773
    305  O4'       10.8780   12.2800    5.0540 O.3    13  U13        -0.3307
    306  C3'       10.4910   10.6580    6.7280 C.3    13  U13         0.1860
    307  O3'       11.8170   10.3910    7.1830 O.3    13  U13        -0.3112
    308  C2'       10.0670   12.0240    7.2470 C.3    13  U13         0.2309
    309  O2'       10.4670   12.1980    8.5940 O.3    13  U13        -0.2156
    310  C1'       10.8530   12.9400    6.3110 C.3    13  U13         0.2420
    311  N1        10.2750   14.2810    6.1240 N.ar   13  U13        -0.2534
    312  C2        11.1010   15.3800    6.2770 C.ar   13  U13         0.3546
    313  O2        12.2810   15.2870    6.5760 O.2    13  U13        -0.2443
    314  N3        10.4890   16.5910    6.0750 N.ar   13  U13        -0.1530
    315  C4         9.1720   16.8140    5.7280 C.ar   13  U13         0.2846
    316  O4         8.7690   17.9670    5.5740 O.2    13  U13        -0.2650
    317  C5         8.3880   15.6280    5.5890 C.ar   13  U13         0.0814
    318  C6         8.9500   14.4330    5.7910 C.ar   13  U13         0.0870
    319  OP1        5.7070   11.8310    4.4410 O.2    13  U13        -0.5172
    320  OP2        6.7700    9.5710    5.1190 O.co2  13  U13        -0.4373
    321  P         12.3880    8.9030    7.3040 P.3    14  G14         0.2141
    322  C5'       13.4670    8.6080    9.6890 C.3    14  G14         0.1812
    323  O5'       12.3230    8.4170    8.8260 O.3    14  G14        -0.3114
    324  C4'       13.2090    7.9570   11.0200 C.3    14  G14         0.1773
    325  O4'       12.1720    8.7050   11.6870 O.3    14  G14        -0.3307
    326  C3'       12.6500    6.5400   10.9700 C.3    14  G14         0.1860
    327  O3'       13.6730    5.5640   10.9370 O.3    14  G14        -0.3112
    328  C2'       11.9030    6.4320   12.2930 C.3    14  G14         0.2309
    329  O2'       12.6410    6.1780   13.4730 O.3    14  G14        -0.2156
    330  C1'       11.3050    7.8230   12.3880 C.3    14  G14         0.2408
    331  N1         6.4540    6.3660   12.6480 N.ar   14  G14        -0.1709
    332  C2         7.4810    6.1200   13.5260 C.ar   14  G14         0.2606
    333  N2         7.1710    5.3660   14.5970 N.pl3  14  G14        -0.0859
    334  N3         8.7220    6.5700   13.3600 N.ar   14  G14        -0.1918
    335  C4         8.8470    7.2840   12.2200 C.ar   14  G14         0.1723
    336  C5         7.8850    7.5760   11.2770 C.ar   14  G14         0.1748
    337  C6         6.5680    7.1050   11.4740 C.ar   14  G14         0.3023
    338  O6         5.5790    7.2910   10.7690 O.2    14  G14        -0.2633
    339  N7         8.4140    8.3550   10.2560 N.ar   14  G14        -0.2173
    340  C8         9.6760    8.4810   10.5670 C.ar   14  G14         0.1817
    341  N9        10.0010    7.8680   11.7540 N.ar   14  G14        -0.2693
    342  OP1       13.8040    9.1550    6.9210 O.3    14  G14        -0.4373
    343  OP2       11.4910    8.0500    6.4680 O.co2  14  G14        -0.5172
    344  P         13.4260    4.3120    9.9980 P.3    15  G15         0.2141
    345  C5'       12.9410    2.9930   12.2100 C.3    15  G15         0.1812
    346  O5'       12.4580    3.4280   10.9210 O.3    15  G15        -0.3114
    347  C4'       11.8500    2.3440   13.0220 C.3    15  G15         0.1773
    348  O4'       10.7520    3.2580   13.2210 O.3    15  G15        -0.3307
    349  C3'       11.1500    1.1480   12.4170 C.3    15  G15         0.1860
    350  O3'       11.9460   -0.0150   12.4890 O.3    15  G15        -0.3112
    351  C2'        9.9140    1.0520   13.3010 C.3    15  G15         0.2309
    352  O2'       10.1550    0.4410   14.5570 O.3    15  G15        -0.2156
    353  C1'        9.5520    2.5280   13.4300 C.3    15  G15         0.2408
    354  N1         4.7370    2.4110   11.8510 N.ar   15  G15        -0.1709
    355  C2         5.3090    1.8220   12.9560 C.ar   15  G15         0.2606
    356  N2         4.4810    1.1130   13.7460 N.pl3  15  G15        -0.0859
    357  N3         6.5910    1.9380   13.2750 N.ar   15  G15        -0.1918
    358  C4         7.2670    2.6880   12.3800 C.ar   15  G15         0.1723
    359  C5         6.7950    3.3040   11.2370 C.ar   15  G15         0.1748
    360  C6         5.4150    3.1920   10.9180 C.ar   15  G15         0.3023
    361  O6         4.8040    3.6710    9.9520 O.2    15  G15        -0.2633
    362  N7         7.8200    3.9610   10.5710 N.ar   15  G15        -0.2173
    363  C8         8.8810    3.7110   11.2920 C.ar   15  G15         0.1817
    364  N9         8.6100    2.9560   12.4100 N.ar   15  G15        -0.2693
    365  OP1       14.8890    3.9740   10.0030 O.3    15  G15        -0.4373
    366  OP2       12.7400    4.6440    8.7110 O.co2  15  G15        -0.5172
    367  P         11.7360   -0.9910   11.2510 P.3    16  G16         0.2141
    368  C5'        9.3730   -1.9740   11.2190 C.3    16  G16         0.1812
    369  O5'       10.6290   -1.9660   11.8410 O.3    16  G16        -0.3114
    370  C4'        8.3920   -2.5600   12.1560 C.3    16  G16         0.1773
    371  O4'        7.6150   -1.4570   12.6770 O.3    16  G16        -0.3307
    372  C3'        7.3970   -3.4820   11.4730 C.3    16  G16         0.1860
    373  O3'        7.8360   -4.8090   11.6710 O.3    16  G16        -0.3112
    374  C2'        6.0920   -3.1620   12.1880 C.3    16  G16         0.2309
    375  O2'        5.9960   -3.7850   13.4440 O.3    16  G16        -0.2156
    376  C1'        6.2390   -1.6610   12.3930 C.3    16  G16         0.2408
    377  N1         2.4350   -0.4110    9.3150 N.ar   16  G16        -0.1709
    378  C2         2.4310   -1.1700   10.4590 C.ar   16  G16         0.2606
    379  N2         1.2430   -1.6590   10.8330 N.pl3  16  G16        -0.0859
    380  N3         3.5110   -1.4290   11.1780 N.ar   16  G16        -0.1918
    381  C4         4.6100   -0.8370   10.6670 C.ar   16  G16         0.1723
    382  C5         4.7240   -0.0600    9.5310 C.ar   16  G16         0.1748
    383  C6         3.5550    0.1950    8.7580 C.ar   16  G16         0.3023
    384  O6         3.4420    0.8570    7.7170 O.2    16  G16        -0.2633
    385  N7         6.0440    0.3320    9.3300 N.ar   16  G16        -0.2173
    386  C8         6.6900   -0.1850   10.3410 C.ar   16  G16         0.1817
    387  N9         5.8760   -0.9070   11.1900 N.ar   16  G16        -0.2693
    388  OP1       13.1230   -1.5560   11.1640 O.3    16  G16        -0.4373
    389  OP2       11.0320   -0.4130   10.0550 O.co2  16  G16        -0.5172
    390  P          8.2390   -5.7770   10.4480 P.3    17  U17         0.2141
    391  C5'        5.7980   -6.6650   10.8810 C.3    17  U17         0.1812
    392  O5'        6.7620   -6.1340    9.9600 O.3    17  U17        -0.3114
    393  C4'        4.4020   -6.4500   10.3480 C.3    17  U17         0.1773
    394  O4'        4.1250   -5.0240   10.3140 O.3    17  U17        -0.3307
    395  C3'        4.1610   -6.8840    8.9110 C.3    17  U17         0.1860
    396  O3'        3.9770   -8.2980    8.7740 O.3    17  U17        -0.3112
    397  C2'        2.9310   -6.0600    8.5530 C.3    17  U17         0.2309
    398  O2'        1.7640   -6.5480    9.1790 O.3    17  U17        -0.2156
    399  C1'        3.2520   -4.7270    9.2310 C.3    17  U17         0.2420
    400  N1         3.8990   -3.7410    8.3470 N.ar   17  U17        -0.2534
    401  C2         3.1050   -3.0360    7.4530 C.ar   17  U17         0.3546
    402  O2         1.9000   -3.1940    7.3700 O.2    17  U17        -0.2443
    403  N3         3.7820   -2.1500    6.6530 N.ar   17  U17        -0.1530
    404  C4         5.1400   -1.8900    6.6540 C.ar   17  U17         0.2846
    405  O4         5.6020   -1.0560    5.8720 O.2    17  U17        -0.2650
    406  C5         5.8910   -2.6520    7.6110 C.ar   17  U17         0.0814
    407  C6         5.2610   -3.5320    8.4010 C.ar   17  U17         0.0870
    408  OP1        8.7220   -6.9120   11.2700 O.3    17  U17        -0.4373
    409  OP2        9.1400   -5.2290    9.3550 O.co2  17  U17        -0.5172
    410  P          4.2730   -9.1850    7.4320 P.3    18  G18         0.2141
    411  C5'        1.7790   -9.2790    6.5590 C.3    18  G18         0.1812
    412  O5'        3.1000   -8.7080    6.4640 O.3    18  G18        -0.3114
    413  C4'        0.8690   -8.5710    5.5960 C.3    18  G18         0.1773
    414  O4'        1.0220   -7.1460    5.7880 O.3    18  G18        -0.3307
    415  C3'        1.1910   -8.7420    4.1210 C.3    18  G18         0.1860
    416  O3'        0.7750   -9.9990    3.5970 O.3    18  G18        -0.3112
    417  C2'        0.4830   -7.5330    3.5120 C.3    18  G18         0.2309
    418  O2'       -0.9260   -7.6280    3.3750 O.3    18  G18        -0.2156
    419  C1'        0.7650   -6.4670    4.5680 C.3    18  G18         0.2408
    420  N1         2.3960   -2.4740    1.8940 N.ar   18  G18        -0.1709
    421  C2         1.1540   -3.0610    1.9210 C.ar   18  G18         0.2606
    422  N2         0.2170   -2.5010    1.1430 N.pl3  18  G18        -0.0859
    423  N3         0.8460   -4.1040    2.6730 N.ar   18  G18        -0.1918
    424  C4         1.9000   -4.5340    3.3970 C.ar   18  G18         0.1723
    425  C5         3.1820   -4.0270    3.4370 C.ar   18  G18         0.1748
    426  C6         3.4980   -2.8990    2.6310 C.ar   18  G18         0.3023
    427  O6         4.5800   -2.3060    2.5210 O.2    18  G18        -0.2633
    428  N7         3.9750   -4.7580    4.3140 N.ar   18  G18        -0.2173
    429  C8         3.1760   -5.6810    4.7790 C.ar   18  G18         0.1817
    430  N9         1.9060   -5.6080    4.2560 N.ar   18  G18        -0.2693
    431  OP1        3.9740  -10.5720    7.8410 O.3    18  G18        -0.4373
    432  OP2        5.5710   -8.9120    6.7520 O.co2  18  G18        -0.5172
    433  P          1.5870  -10.6180    2.3630 P.3    19  C19         0.2141
    434  C5'       -0.2110   -9.6620    0.7040 C.3    19  C19         0.1812
    435  O5'        1.1470   -9.6540    1.1750 O.3    19  C19        -0.3114
    436  C4'       -0.3610   -8.6660   -0.4100 C.3    19  C19         0.1773
    437  O4'       -0.1850   -7.3170    0.1100 O.3    19  C19        -0.3307
    438  C3'        0.6840   -8.7510   -1.5100 C.3    19  C19         0.1860
    439  O3'        0.4520   -9.8300   -2.4080 O.3    19  C19        -0.3112
    440  C2'        0.5520   -7.3680   -2.1310 C.3    19  C19         0.2309
    441  O2'       -0.6340   -7.1660   -2.8740 O.3    19  C19        -0.2156
    442  C1'        0.4460   -6.5070   -0.8750 C.3    19  C19         0.2420
    443  N1         1.7770   -6.0940   -0.3930 N.ar   19  C19        -0.2535
    444  C2         2.4020   -5.0100   -1.0180 C.ar   19  C19         0.3532
    445  O2         1.8060   -4.4210   -1.9290 O.2    19  C19        -0.2443
    446  N3         3.6350   -4.6300   -0.6100 N.ar   19  C19        -0.1739
    447  C4         4.2470   -5.2980    0.3720 C.ar   19  C19         0.1759
    448  N4         5.4640   -4.8950    0.7390 N.pl3  19  C19        -0.1070
    449  C5         3.6390   -6.4140    1.0180 C.ar   19  C19         0.0566
    450  C6         2.4200   -6.7810    0.6000 C.ar   19  C19         0.0850
    451  OP1        1.0130  -11.9630    2.0940 O.2    19  C19        -0.5172
    452  OP2        3.0510  -10.4850    2.5680 O.co2  19  C19        -0.4373
    453  P          1.6130  -10.5030   -3.2990 P.3    20  A20         0.2141
    454  C5'        1.1400   -9.0460   -5.4520 C.3    20  A20         0.1812
    455  O5'        1.9830   -9.3370   -4.3200 O.3    20  A20        -0.3114
    456  C4'        1.5600   -7.7410   -6.0680 C.3    20  A20         0.1773
    457  O4'        1.8240   -6.7960   -4.9980 O.3    20  A20        -0.3307
    458  C3'        2.8800   -7.7710   -6.8310 C.3    20  A20         0.1860
    459  O3'        2.8310   -8.3350   -8.1380 O.3    20  A20        -0.3112
    460  C2'        3.2760   -6.3020   -6.8090 C.3    20  A20         0.2309
    461  O2'        2.5840   -5.4860   -7.7330 O.3    20  A20        -0.2156
    462  C1'        2.8640   -5.9120   -5.3900 C.3    20  A20         0.2408
    463  N1         7.1410   -3.6400   -3.7080 N.ar   20  A20        -0.2040
    464  C2         6.2640   -3.3250   -4.6720 C.ar   20  A20         0.2016
    465  N3         5.1610   -3.9680   -5.0500 N.ar   20  A20        -0.2048
    466  C4         4.9870   -5.0840   -4.3190 C.ar   20  A20         0.1692
    467  C5         5.8070   -5.5480   -3.3040 C.ar   20  A20         0.1518
    468  C6         6.9370   -4.7690   -2.9910 C.ar   20  A20         0.1919
    469  N6         7.8130   -5.0850   -2.0350 N.pl3  20  A20        -0.1054
    470  N7         5.3200   -6.7390   -2.7840 N.ar   20  A20        -0.2193
    471  C8         4.2290   -6.9620   -3.4770 C.ar   20  A20         0.1816
    472  N9         3.9660   -5.9980   -4.4230 N.ar   20  A20        -0.2693
    473  OP1        0.9640  -11.5920   -4.0710 O.2    20  A20        -0.5172
    474  OP2        2.7930  -10.8330   -2.4660 O.co2  20  A20        -0.4373
    475  P          4.1570   -9.0700   -8.6780 P.3    21  G21         0.2141
    476  C5'        4.9080   -7.0180  -10.1170 C.3    21  G21         0.1812
    477  O5'        5.1740   -7.8850   -8.9980 O.3    21  G21        -0.3114
    478  C4'        5.9220   -5.9070  -10.1900 C.3    21  G21         0.1773
    479  O4'        5.9150   -5.1610   -8.9440 O.3    21  G21        -0.3307
    480  C3'        7.3690   -6.3430  -10.3400 C.3    21  G21         0.1860
    481  O3'        7.7330   -6.7310  -11.6540 O.3    21  G21        -0.3112
    482  C2'        8.1130   -5.1170   -9.8220 C.3    21  G21         0.2309
    483  O2'        8.2470   -4.0080  -10.6870 O.3    21  G21        -0.2156
    484  C1'        7.2360   -4.7410   -8.6320 C.3    21  G21         0.2408
    485  N1        10.5540   -4.6240   -4.8080 N.ar   21  G21        -0.1709
    486  C2        10.4290   -3.7860   -5.8910 C.ar   21  G21         0.2606
    487  N2        11.2990   -2.7770   -5.9620 N.pl3  21  G21        -0.0859
    488  N3         9.5130   -3.9270   -6.8340 N.ar   21  G21        -0.1918
    489  C4         8.7200   -4.9970   -6.6100 C.ar   21  G21         0.1723
    490  C5         8.7720   -5.9080   -5.5740 C.ar   21  G21         0.1748
    491  C6         9.7550   -5.7380   -4.5620 C.ar   21  G21         0.3023
    492  O6         9.9550   -6.4330   -3.5580 O.2    21  G21        -0.2633
    493  N7         7.7810   -6.8710   -5.7140 N.ar   21  G21        -0.2173
    494  C8         7.1560   -6.5340   -6.8110 C.ar   21  G21         0.1817
    495  N9         7.6670   -5.3980   -7.3970 N.ar   21  G21        -0.2693
    496  OP1        3.7990   -9.7140   -9.9680 O.2    21  G21        -0.5172
    497  OP2        4.7240   -9.8990   -7.5900 O.co2  21  G21        -0.4373
    498  P          8.7970   -7.9140  -11.8080 P.3    22  U22         0.2141
    499  C5'       10.6470   -6.1080  -12.4210 C.3    22  U22         0.1812
    500  O5'       10.1840   -7.1680  -11.5460 O.3    22  U22        -0.3114
    501  C4'       11.7640   -5.3270  -11.7590 C.3    22  U22         0.1773
    502  O4'       11.3070   -4.8590  -10.4540 O.3    22  U22        -0.3307
    503  C3'       13.0350   -6.1010  -11.4190 C.3    22  U22         0.1860
    504  O3'       14.0280   -6.4000  -12.3940 O.3    22  U22        -0.3112
    505  C2'       13.6420   -5.2210  -10.3450 C.3    22  U22         0.2309
    506  O2'       14.2140   -4.0490  -10.8780 O.3    22  U22        -0.2156
    507  C1'       12.3980   -4.8670   -9.5360 C.3    22  U22         0.2420
    508  N1        12.1370   -5.8310   -8.4480 N.ar   22  U22        -0.2534
    509  C2        12.8900   -5.6940   -7.2890 C.ar   22  U22         0.3546
    510  O2        13.7410   -4.8310   -7.1470 O.2    22  U22        -0.2443
    511  N3        12.6090   -6.6090   -6.3060 N.ar   22  U22        -0.1530
    512  C4        11.6860   -7.6310   -6.3560 C.ar   22  U22         0.2846
    513  O4        11.5570   -8.3750   -5.3830 O.2    22  U22        -0.2650
    514  C5        10.9500   -7.7100   -7.5860 C.ar   22  U22         0.0814
    515  C6        11.2060   -6.8400   -8.5710 C.ar   22  U22         0.0870
    516  OP1        8.7850   -8.1860  -13.2650 O.2    22  U22        -0.5172
    517  OP2        8.5510   -9.0410  -10.8330 O.co2  22  U22        -0.4373
    518  P         14.5380   -7.9560  -12.2360 P.3    23  C23         0.2141
    519  C5'       16.7050   -6.6920  -11.4230 C.3    23  C23         0.1812
    520  O5'       15.9480   -7.8940  -11.5090 O.3    23  C23        -0.3114
    521  C4'       17.2750   -6.5760  -10.0320 C.3    23  C23         0.1773
    522  O4'       16.2140   -6.5680   -9.0470 O.3    23  C23        -0.3307
    523  C3'       18.1330   -7.7180   -9.5290 C.3    23  C23         0.1860
    524  O3'       19.3750   -7.6740  -10.2170 O.3    23  C23        -0.3112
    525  C2'       18.1920   -7.3940   -8.0360 C.3    23  C23         0.2309
    526  O2'       19.0400   -6.3270   -7.6350 O.3    23  C23        -0.2156
    527  C1'       16.7860   -6.8370   -7.7850 C.3    23  C23         0.2420
    528  N1        15.9450   -7.7970   -7.0860 N.ar   23  C23        -0.2535
    529  C2        16.2660   -8.1030   -5.7630 C.ar   23  C23         0.3532
    530  O2        17.2220   -7.5270   -5.2370 O.2    23  C23        -0.2443
    531  N3        15.5390   -9.0280   -5.0990 N.ar   23  C23        -0.1739
    532  C4        14.5290   -9.6460   -5.7130 C.ar   23  C23         0.1759
    533  N4        13.8300  -10.5330   -5.0120 N.pl3  23  C23        -0.1070
    534  C5        14.1810   -9.3610   -7.0700 C.ar   23  C23         0.0566
    535  C6        14.9050   -8.4310   -7.7100 C.ar   23  C23         0.0850
    536  OP1       14.9470   -8.4850  -13.5590 O.2    23  C23        -0.5172
    537  OP2       13.7240   -8.8410  -11.3270 O.co2  23  C23        -0.4373
    538  P         20.3310   -8.9570  -10.2380 P.3    24  U24         0.2141
    539  C5'       21.8000   -8.0660   -8.3040 C.3    24  U24         0.1812
    540  O5'       20.7220   -8.8860   -8.7000 O.3    24  U24        -0.3114
    541  C4'       22.3510   -8.5680   -7.0060 C.3    24  U24         0.1773
    542  O4'       21.3530   -8.4940   -5.9720 O.3    24  U24        -0.3307
    543  C3'       22.7490  -10.0170   -6.9930 C.3    24  U24         0.1860
    544  O3'       23.9650   -9.9960   -7.7270 O.3    24  U24        -0.3112
    545  C2'       22.7740  -10.3040   -5.4960 C.3    24  U24         0.2309
    546  O2'       23.8370   -9.7070   -4.8050 O.3    24  U24        -0.2156
    547  C1'       21.5950   -9.4880   -5.0140 C.3    24  U24         0.2420
    548  N1        20.3720  -10.2590   -4.9350 N.ar   24  U24        -0.2534
    549  C2        20.1180  -10.9260   -3.7620 C.ar   24  U24         0.3546
    550  O2        20.9050  -10.9420   -2.8310 O.2    24  U24        -0.2443
    551  N3        18.9220  -11.5980   -3.7330 N.ar   24  U24        -0.1530
    552  C4        17.9670  -11.6390   -4.7240 C.ar   24  U24         0.2846
    553  O4        16.9260  -12.2560   -4.5320 O.2    24  U24        -0.2650
    554  C5        18.2980  -10.9030   -5.9020 C.ar   24  U24         0.0814
    555  C6        19.4600  -10.2480   -5.9630 C.ar   24  U24         0.0870
    556  OP1       21.5960   -8.8780  -11.0130 O.2    24  U24        -0.5172
    557  OP2       19.4390  -10.1430  -10.4220 O.co2  24  U24        -0.4373
    558  P         25.0020  -11.1900   -7.7430 P.3    25  A25         0.2141
    559  C5'       26.9770   -9.7320   -7.2010 C.3    25  A25         0.1812
    560  O5'       25.9660  -10.5840   -6.6490 O.3    25  A25        -0.3114
    561  C4'       28.1810   -9.7390   -6.3200 C.3    25  A25         0.1773
    562  O4'       27.7330   -9.8100   -4.9370 O.3    25  A25        -0.3307
    563  C3'       29.1220  -10.9030   -6.5240 C.3    25  A25         0.1860
    564  O3'       30.3700  -10.3490   -6.1800 O.3    25  A25        -0.3112
    565  C2'       28.6360  -11.8860   -5.4740 C.3    25  A25         0.2309
    566  O2'       29.6510  -12.7750   -5.0910 O.3    25  A25        -0.2156
    567  C1'       28.2200  -10.9610   -4.3380 C.3    25  A25         0.2408
    568  N1        26.3450  -11.9430    0.3270 N.ar   25  A25        -0.2040
    569  C2        27.4670  -11.3400   -0.0780 C.ar   25  A25         0.2016
    570  N3        27.8920  -11.0940   -1.3190 N.ar   25  A25        -0.2048
    571  C4        27.0090  -11.5570   -2.2200 C.ar   25  A25         0.1692
    572  C5        25.8220  -12.2200   -1.9550 C.ar   25  A25         0.1518
    573  C6        25.4870  -12.4110   -0.6120 C.ar   25  A25         0.1919
    574  N6        24.3620  -13.0120   -0.2180 N.pl3  25  A25        -0.1054
    575  N7        25.1770  -12.5660   -3.1330 N.ar   25  A25        -0.2193
    576  C8        25.9850  -12.1280   -4.0720 C.ar   25  A25         0.1816
    577  N9        27.1150  -11.5130   -3.5870 N.ar   25  A25        -0.2693
    578  OP1       25.7780  -11.1330   -9.0570 O.2    25  A25        -0.5172
    579  OP2       24.3780  -12.4610   -7.2510 O.co2  25  A25        -0.4373
    580  P         31.8080  -11.0210   -6.4540 P.3    26  U26         0.2141
    581  C5'       31.9180   -8.3490   -6.8560 C.3    26  U26         0.1812
    582  O5'       32.4920   -9.6910   -7.0320 O.3    26  U26        -0.3114
    583  C4'       32.1360   -7.5180   -8.1000 C.3    26  U26         0.1773
    584  O4'       33.5610   -7.3400   -8.3000 O.3    26  U26        -0.3307
    585  C3'       31.6650   -8.1980   -9.3730 C.3    26  U26         0.1860
    586  O3'       30.2600   -7.9910   -9.5560 O.3    26  U26        -0.3112
    587  C2'       32.5890   -7.6000  -10.4330 C.3    26  U26         0.2309
    588  O2'       32.2810   -6.2560  -10.7610 O.3    26  U26        -0.2156
    589  C1'       33.9030   -7.5260   -9.6720 C.3    26  U26         0.2420
    590  N1        34.7270   -8.7350   -9.8060 N.ar   26  U26        -0.2534
    591  C2        35.3720   -8.9790  -11.0200 C.ar   26  U26         0.3546
    592  O2        35.2970   -8.2270  -11.9790 O.2    26  U26        -0.2443
    593  N3        36.1130  -10.1390  -11.0590 N.ar   26  U26        -0.1530
    594  C4        36.2330  -11.0830  -10.0570 C.ar   26  U26         0.2846
    595  O4        36.9130  -12.0890  -10.2520 O.2    26  U26        -0.2650
    596  C5        35.5330  -10.7620   -8.8410 C.ar   26  U26         0.0814
    597  C6        34.8370   -9.6200   -8.7550 C.ar   26  U26         0.0870
    598  OP1       31.9590  -11.9970   -7.5900 O.2    26  U26        -0.5172
    599  OP2       32.1260  -11.4250   -5.0200 O.co2  26  U26        -0.4373
    600  P         29.5120   -8.5150  -10.8900 P.3    27  A27         0.2141
    601  C5'       30.3970   -7.3290  -13.1110 C.3    27  A27         0.1812
    602  O5'       30.4370   -8.4380  -12.1970 O.3    27  A27        -0.3114
    603  C4'       31.1830   -7.6560  -14.3530 C.3    27  A27         0.1773
    604  O4'       32.4810   -8.1730  -13.9800 O.3    27  A27        -0.3307
    605  C3'       30.6340   -8.8230  -15.1450 C.3    27  A27         0.1860
    606  O3'       29.4790   -8.4340  -15.8560 O.3    27  A27        -0.3112
    607  C2'       31.8350   -9.2740  -15.9760 C.3    27  A27         0.2309
    608  O2'       32.0590   -8.5120  -17.1380 O.3    27  A27        -0.2156
    609  C1'       32.9850   -9.0100  -15.0190 C.3    27  A27         0.2408
    610  N1        36.1020  -13.1270  -15.3520 N.ar   27  A27        -0.2040
    611  C2        35.7730  -12.1820  -16.2480 C.ar   27  A27         0.2016
    612  N3        34.9510  -11.1370  -16.1150 N.ar   27  A27        -0.2048
    613  C4        34.4220  -11.1090  -14.8830 C.ar   27  A27         0.1692
    614  C5        34.6310  -12.0270  -13.8700 C.ar   27  A27         0.1518
    615  C6        35.5380  -13.0690  -14.1240 C.ar   27  A27         0.1919
    616  N6        35.8480  -14.0140  -13.2270 N.pl3  27  A27        -0.1054
    617  N7        33.8830  -11.7000  -12.7510 N.ar   27  A27        -0.2193
    618  C8        33.2690  -10.5950  -13.0960 C.ar   27  A27         0.1816
    619  N9        33.5200  -10.2030  -14.3870 N.ar   27  A27        -0.2693
    620  OP1       28.3170   -7.6420  -10.7470 O.2    27  A27        -0.5172
    621  OP2       29.3890   -9.9890  -10.7330 O.co2  27  A27        -0.4373
    622  P         28.4240   -9.6400  -15.9230 P.3    28  G28         0.2141
    623  C5'       29.3720  -11.4780  -17.4720 C.3    28  G28         0.1812
    624  O5'       29.2730  -10.9760  -16.1270 O.3    28  G28        -0.3114
    625  C4'       30.5790  -12.3600  -17.6350 C.3    28  G28         0.1773
    626  O4'       31.5230  -12.0650  -16.5760 O.3    28  G28        -0.3307
    627  C3'       30.3090  -13.8330  -17.4650 C.3    28  G28         0.1860
    628  O3'       29.7800  -14.4020  -18.6410 O.3    28  G28        -0.3112
    629  C2'       31.6800  -14.3580  -17.0830 C.3    28  G28         0.2309
    630  O2'       32.5550  -14.7080  -18.1410 O.3    28  G28        -0.2156
    631  C1'       32.1390  -13.2570  -16.1330 C.3    28  G28         0.2408
    632  N1        32.4650  -16.3680  -12.1510 N.ar   28  G28        -0.1709
    633  C2        33.1470  -16.3970  -13.3490 C.ar   28  G28         0.2606
    634  N2        34.0460  -17.3720  -13.5000 N.pl3  28  G28        -0.0859
    635  N3        32.9580  -15.5270  -14.3280 N.ar   28  G28        -0.1918
    636  C4        32.0670  -14.5730  -13.9850 C.ar   28  G28         0.1723
    637  C5        31.3330  -14.4530  -12.8210 C.ar   28  G28         0.1748
    638  C6        31.5170  -15.4070  -11.7930 C.ar   28  G28         0.3023
    639  O6        30.9670  -15.4590  -10.6830 O.2    28  G28        -0.2633
    640  N7        30.4860  -13.3550  -12.8820 N.ar   28  G28        -0.2173
    641  C8        30.7150  -12.8360  -14.0600 C.ar   28  G28         0.1817
    642  N9        31.6710  -13.5230  -14.7760 N.ar   28  G28        -0.2693
    643  OP1       27.8750   -9.5780  -17.3120 O.2    28  G28        -0.5172
    644  OP2       27.5700   -9.3560  -14.6790 O.co2  28  G28        -0.4373
    645  P         28.4230  -15.2500  -18.4520 P.3    29  G29         0.2141
    646  C5'       29.4970  -17.5950  -18.7410 C.3    29  G29         0.1812
    647  O5'       28.9630  -16.6240  -17.8330 O.3    29  G29        -0.3114
    648  C4'       30.6480  -18.3540  -18.1360 C.3    29  G29         0.1773
    649  O4'       31.2000  -17.6210  -17.0110 O.3    29  G29        -0.3307
    650  C3'       30.2650  -19.6980  -17.5400 C.3    29  G29         0.1860
    651  O3'       29.9490  -20.7190  -18.4770 O.3    29  G29        -0.3112
    652  C2'       31.3840  -19.9530  -16.5320 C.3    29  G29         0.2309
    653  O2'       32.4740  -20.7170  -16.9940 O.3    29  G29        -0.2156
    654  C1'       31.6310  -18.5360  -15.9980 C.3    29  G29         0.2408
    655  N1        30.4940  -20.0660  -11.2800 N.ar   29  G29        -0.1709
    656  C2        31.4220  -20.5690  -12.1600 C.ar   29  G29         0.2606
    657  N2        32.1430  -21.6240  -11.7240 N.pl3  29  G29        -0.0859
    658  N3        31.6430  -20.0680  -13.3730 N.ar   29  G29        -0.1918
    659  C4        30.8370  -19.0220  -13.6430 C.ar   29  G29         0.1723
    660  C5        29.8650  -18.4580  -12.8450 C.ar   29  G29         0.1748
    661  C6        29.6490  -18.9920  -11.5400 C.ar   29  G29         0.3023
    662  O6        28.8440  -18.6160  -10.6750 O.2    29  G29        -0.2633
    663  N7        29.2500  -17.3920  -13.4950 N.ar   29  G29        -0.2173
    664  C8        29.8420  -17.3370  -14.6580 C.ar   29  G29         0.1817
    665  N9        30.8300  -18.2860  -14.8030 N.ar   29  G29        -0.2693
    666  OP1       28.1350  -15.5830  -19.8710 O.2    29  G29        -0.5172
    667  OP2       27.4010  -14.4730  -17.6460 O.co2  29  G29        -0.4373
    668  P         28.4430  -21.2860  -18.3390 P.3    30  G30         0.2141
    669  C5'       29.3190  -23.5660  -17.3630 C.3    30  G30         0.1812
    670  O5'       28.5810  -22.3510  -17.1580 O.3    30  G30        -0.3114
    671  C4'       29.8120  -24.1000  -16.0440 C.3    30  G30         0.1773
    672  O4'       30.0530  -23.0080  -15.1190 O.3    30  G30        -0.3307
    673  C3'       28.8390  -24.9460  -15.2620 C.3    30  G30         0.1860
    674  O3'       28.7900  -26.2370  -15.8150 O.3    30  G30        -0.3112
    675  C2'       29.4780  -24.9340  -13.8810 C.3    30  G30         0.2309
    676  O2'       30.6320  -25.7200  -13.7840 O.3    30  G30        -0.2156
    677  C1'       29.9350  -23.4810  -13.7810 C.3    30  G30         0.2408
    678  N1        27.4080  -22.6600   -9.4610 N.ar   30  G30        -0.1709
    679  C2        28.3960  -23.5750   -9.7290 C.ar   30  G30         0.2606
    680  N2        28.7670  -24.3590   -8.7060 N.pl3  30  G30        -0.0859
    681  N3        28.9910  -23.6980  -10.9080 N.ar   30  G30        -0.1918
    682  C4        28.5220  -22.8020  -11.7990 C.ar   30  G30         0.1723
    683  C5        27.5560  -21.8330  -11.6210 C.ar   30  G30         0.1748
    684  C6        26.9350  -21.7080  -10.3590 C.ar   30  G30         0.3023
    685  O6        26.0640  -20.8970  -10.0040 O.2    30  G30        -0.2633
    686  N7        27.3800  -21.0950  -12.7800 N.ar   30  G30        -0.2173
    687  C8        28.2180  -21.6240  -13.6310 C.ar   30  G30         0.1817
    688  N9        28.9470  -22.6580  -13.0960 N.ar   30  G30        -0.2693
    689  OP1       28.3920  -21.9410  -19.6660 O.2    30  G30        -0.5172
    690  OP2       27.3480  -20.3370  -17.9260 O.co2  30  G30        -0.4373
    691  P         27.3860  -26.9660  -16.1130 P.3    31  U31         0.2141
    692  C5'       28.2880  -28.6340  -14.2930 C.3    31  U31         0.1812
    693  O5'       27.2410  -27.7800  -14.7560 O.3    31  U31        -0.3114
    694  C4'       28.0580  -28.8570  -12.8270 C.3    31  U31         0.1773
    695  O4'       28.1780  -27.5750  -12.1550 O.3    31  U31        -0.3307
    696  C3'       26.6380  -29.2680  -12.4450 C.3    31  U31         0.1860
    697  O3'       26.2850  -30.6210  -12.7490 O.3    31  U31        -0.3112
    698  C2'       26.6080  -28.8950  -10.9670 C.3    31  U31         0.2309
    699  O2'       27.4240  -29.6980  -10.1450 O.3    31  U31        -0.2156
    700  C1'       27.3520  -27.5600  -10.9920 C.3    31  U31         0.2420
    701  N1        26.4410  -26.4150  -11.0860 N.ar   31  U31        -0.2534
    702  C2        25.7800  -26.0130   -9.9390 C.ar   31  U31         0.3546
    703  O2        25.9300  -26.5610   -8.8620 O.2    31  U31        -0.2443
    704  N3        24.9570  -24.9270  -10.1000 N.ar   31  U31        -0.1530
    705  C4        24.7150  -24.2350  -11.2660 C.ar   31  U31         0.2846
    706  O4        23.9070  -23.3190  -11.2630 O.2    31  U31        -0.2650
    707  C5        25.4350  -24.7100  -12.4050 C.ar   31  U31         0.0814
    708  C6        26.2490  -25.7620  -12.2810 C.ar   31  U31         0.0870
    709  OP1       27.7250  -28.0470  -17.0670 O.2    31  U31        -0.5172
    710  OP2       26.2720  -25.9950  -16.4270 O.co2  31  U31        -0.4373
    711  P         25.1400  -31.0330  -13.8240 P.3    32  G32         0.2141
    712  C5'       23.8290  -31.3420  -11.5690 C.3    32  G32         0.1812
    713  O5'       23.8420  -30.8370  -12.9240 O.3    32  G32        -0.3114
    714  C4'       22.8820  -30.5290  -10.7250 C.3    32  G32         0.1773
    715  O4'       23.4120  -29.1950  -10.4710 O.3    32  G32        -0.3307
    716  C3'       21.5570  -30.2190  -11.3760 C.3    32  G32         0.1860
    717  O3'       20.8960  -31.4720  -11.4770 O.3    32  G32        -0.3112
    718  C2'       21.0520  -29.1150  -10.4540 C.3    32  G32         0.2309
    719  O2'       20.6180  -29.5740   -9.2040 O.3    32  G32        -0.2156
    720  C1'       22.3350  -28.3010  -10.2420 C.3    32  G32         0.2408
    721  N1        20.8100  -23.6470  -11.5970 N.ar   32  G32        -0.1709
    722  C2        20.6620  -24.2850  -10.3890 C.ar   32  G32         0.2606
    723  N2        19.9990  -23.6020   -9.4370 N.pl3  32  G32        -0.0859
    724  N3        21.1300  -25.4980  -10.1350 N.ar   32  G32        -0.1918
    725  C4        21.7650  -26.0270  -11.2040 C.ar   32  G32         0.1723
    726  C5        21.9640  -25.4700  -12.4490 C.ar   32  G32         0.1748
    727  C6        21.4570  -24.1790  -12.7090 C.ar   32  G32         0.3023
    728  O6        21.5370  -23.5190  -13.7510 O.2    32  G32        -0.2633
    729  N7        22.6840  -26.3290  -13.2640 N.ar   32  G32        -0.2173
    730  C8        22.9030  -27.3760  -12.5180 C.ar   32  G32         0.1817
    731  N9        22.3860  -27.2540  -11.2520 N.ar   32  G32        -0.2693
    732  OP1       25.4460  -32.4860  -13.9090 O.3    32  G32        -0.4373
    733  OP2       24.9510  -30.2170  -15.0760 O.co2  32  G32        -0.5172
    734  P         19.6090  -31.8260  -12.3920 P.3    33  A33         0.2141
    735  C5'       17.7840  -30.3670  -13.5690 C.3    33  A33         0.1812
    736  O5'       18.6100  -30.5940  -12.4240 O.3    33  A33        -0.3114
    737  C4'       16.5030  -29.7870  -13.0590 C.3    33  A33         0.1773
    738  O4'       16.1780  -30.5130  -11.8610 O.3    33  A33        -0.3307
    739  C3'       16.6400  -28.3690  -12.5360 C.3    33  A33         0.1860
    740  O3'       16.5990  -27.3930  -13.5540 O.3    33  A33        -0.3112
    741  C2'       15.5480  -28.2570  -11.4780 C.3    33  A33         0.2309
    742  O2'       14.3780  -27.6450  -11.9720 O.3    33  A33        -0.2156
    743  C1'       15.3600  -29.7130  -11.0400 C.3    33  A33         0.2408
    744  N1        14.5930  -28.7290   -6.0240 N.ar   33  A33        -0.2040
    745  C2        13.9870  -28.2590   -7.1260 C.ar   33  A33         0.2016
    746  N3        14.2310  -28.5400   -8.4100 N.ar   33  A33        -0.2048
    747  C4        15.2250  -29.4390   -8.5150 C.ar   33  A33         0.1692
    748  C5        15.9310  -30.0190   -7.4770 C.ar   33  A33         0.1518
    749  C6        15.6010  -29.6190   -6.1740 C.ar   33  A33         0.1919
    750  N6        16.2040  -30.0990   -5.0840 N.pl3  33  A33        -0.1054
    751  N7        16.8600  -30.9210   -7.9610 N.ar   33  A33        -0.2193
    752  C8        16.7230  -30.8430   -9.2610 C.ar   33  A33         0.1816
    753  N9        15.7430  -29.9790   -9.6640 N.ar   33  A33        -0.2693
    754  OP1       19.0030  -32.8820  -11.5240 O.3    33  A33        -0.4373
    755  OP2       19.8830  -32.0470  -13.8380 O.co2  33  A33        -0.5172
    756  P         17.9250  -26.4510  -13.4300 P.3    34  G34         0.2141
    757  C5'       16.3850  -24.7700  -12.1660 C.3    34  G34         0.1812
    758  O5'       17.5090  -25.6280  -12.1260 O.3    34  G34        -0.3114
    759  C4'       16.0310  -24.3520  -10.7650 C.3    34  G34         0.1773
    760  O4'       15.9590  -25.5370   -9.9540 O.3    34  G34        -0.3307
    761  C3'       17.0450  -23.5010  -10.0240 C.3    34  G34         0.1860
    762  O3'       16.8880  -22.1070  -10.2780 O.3    34  G34        -0.3112
    763  C2'       16.6760  -23.7540   -8.5750 C.3    34  G34         0.2309
    764  O2'       15.4380  -23.1490   -8.3010 O.3    34  G34        -0.2156
    765  C1'       16.2810  -25.2220   -8.6170 C.3    34  G34         0.2408
    766  N1        18.3550  -27.8700   -4.8100 N.ar   34  G34        -0.1709
    767  C2        17.3300  -26.9620   -4.7680 C.ar   34  G34         0.2606
    768  N2        16.7570  -26.7870   -3.5760 N.pl3  34  G34        -0.0859
    769  N3        16.8800  -26.3070   -5.8220 N.ar   34  G34        -0.1918
    770  C4        17.5260  -26.6650   -6.9490 C.ar   34  G34         0.1723
    771  C5        18.5510  -27.5720   -7.1000 C.ar   34  G34         0.1748
    772  C6        19.0320  -28.2590   -5.9600 C.ar   34  G34         0.3023
    773  O6        19.9380  -29.1040   -5.8900 O.2    34  G34        -0.2633
    774  N7        18.9590  -27.6360   -8.4230 N.ar   34  G34        -0.2173
    775  C8        18.1860  -26.7870   -9.0410 C.ar   34  G34         0.1817
    776  N9        17.3090  -26.1510   -8.2030 N.ar   34  G34        -0.2693
    777  OP1       17.7060  -25.4130  -14.4660 O.2    34  G34        -0.5172
    778  OP2       19.2670  -27.1970  -13.3320 O.co2  34  G34        -0.4373
    779  P         18.1590  -21.2850  -10.8420 P.3    35  A35         0.2141
    780  C5'       18.3910  -20.5640   -8.3380 C.3    35  A35         0.1812
    781  O5'       19.0400  -21.0430   -9.5400 O.3    35  A35        -0.3114
    782  C4'       19.4280  -20.0520   -7.3760 C.3    35  A35         0.1773
    783  O4'       20.2200  -21.1720   -6.8940 O.3    35  A35        -0.3307
    784  C3'       20.4260  -19.0660   -7.9960 C.3    35  A35         0.1860
    785  O3'       20.6060  -17.8740   -7.2400 O.3    35  A35        -0.3112
    786  C2'       21.7470  -19.8180   -7.9960 C.3    35  A35         0.2309
    787  O2'       22.7540  -18.9130   -7.6660 O.3    35  A35        -0.2156
    788  C1'       21.5690  -20.7680   -6.8180 C.3    35  A35         0.2408
    789  N1        23.9930  -24.6080   -4.3550 N.ar   35  A35        -0.2040
    790  C2        23.1640  -23.6540   -3.9170 C.ar   35  A35         0.2016
    791  N3        22.5470  -22.6960   -4.6030 N.ar   35  A35        -0.2048
    792  C4        22.8620  -22.7680   -5.9070 C.ar   35  A35         0.1692
    793  C5        23.7000  -23.6910   -6.5040 C.ar   35  A35         0.1518
    794  C6        24.2830  -24.6530   -5.6740 C.ar   35  A35         0.1919
    795  N6        25.0950  -25.6070   -6.1210 N.pl3  35  A35        -0.1054
    796  N7        23.7780  -23.4740   -7.8720 N.ar   35  A35        -0.2193
    797  C8        23.0180  -22.4240   -8.0640 C.ar   35  A35         0.1816
    798  N9        22.4320  -21.9460   -6.9190 N.ar   35  A35        -0.2693
    799  OP1       17.2610  -20.1730  -11.2640 O.3    35  A35        -0.4373
    800  OP2       19.0510  -21.9780  -11.8030 O.co2  35  A35        -0.5172
    801  P         20.1840  -16.5040   -7.9480 P.3    36  G36         0.2141
    802  C5'       21.6450  -14.5350   -6.9640 C.3    36  G36         0.1812
    803  O5'       20.4580  -15.3500   -6.8990 O.3    36  G36        -0.3114
    804  C4'       22.0550  -14.2830   -5.5500 C.3    36  G36         0.1773
    805  O4'       20.8750  -13.8860   -4.7780 O.3    36  G36        -0.3307
    806  C3'       22.5160  -15.5700   -4.9120 C.3    36  G36         0.1860
    807  O3'       23.8960  -15.5290   -5.1000 O.3    36  G36        -0.3112
    808  C2'       22.1820  -15.3620   -3.4480 C.3    36  G36         0.2309
    809  O2'       23.2240  -14.6020   -2.8740 O.3    36  G36        -0.2156
    810  C1'       20.8780  -14.5670   -3.5420 C.3    36  G36         0.2408
    811  N1        17.9900  -17.4300   -0.5470 N.ar   36  G36        -0.1709
    812  C2        19.2410  -16.9210   -0.3210 C.ar   36  G36         0.2606
    813  N2        19.7600  -17.1580    0.8850 N.pl3  36  G36        -0.0859
    814  N3        19.9120  -16.1960   -1.1960 N.ar   36  G36        -0.1918
    815  C4        19.2300  -16.0480   -2.3480 C.ar   36  G36         0.1723
    816  C5        17.9870  -16.5430   -2.6840 C.ar   36  G36         0.1748
    817  C6        17.2660  -17.2800   -1.7220 C.ar   36  G36         0.3023
    818  O6        16.1530  -17.8050   -1.8270 O.2    36  G36        -0.2633
    819  N7        17.6430  -16.1770   -3.9740 N.ar   36  G36        -0.2173
    820  C8        18.6630  -15.4730   -4.3900 C.ar   36  G36         0.1817
    821  N9        19.6460  -15.3330   -3.4400 N.ar   36  G36        -0.2693
    822  OP1       18.6830  -16.4930   -8.1330 O.3    36  G36        -0.4373
    823  OP2       21.1870  -16.4310   -9.0680 O.co2  36  G36        -0.5172
    824  P         24.5950  -16.9550   -5.0510 P.3    37  U37         0.2141
    825  C5'       25.3760  -17.3760   -2.6000 C.3    37  U37         0.1812
    826  O5'       24.3420  -17.4810   -3.5710 O.3    37  U37        -0.3114
    827  C4'       24.9170  -17.9970   -1.3080 C.3    37  U37         0.1773
    828  O4'       23.4600  -18.0170   -1.2210 O.3    37  U37        -0.3307
    829  C3'       25.3470  -19.4300   -1.1380 C.3    37  U37         0.1860
    830  O3'       25.9390  -19.5670    0.1420 O.3    37  U37        -0.3112
    831  C2'       24.0750  -20.1940   -1.4580 C.3    37  U37         0.2309
    832  O2'       24.0900  -21.3920   -0.7690 O.3    37  U37        -0.2156
    833  C1'       23.0310  -19.2970   -0.8290 C.3    37  U37         0.2420
    834  N1        21.7030  -19.5030   -1.4060 N.ar   37  U37        -0.2534
    835  C2        20.7120  -20.0560   -0.6200 C.ar   37  U37         0.3546
    836  O2        20.8990  -20.4130    0.5270 O.2    37  U37        -0.2443
    837  N3        19.4890  -20.1620   -1.2280 N.ar   37  U37        -0.1530
    838  C4        19.1640  -19.7920   -2.5160 C.ar   37  U37         0.2846
    839  O4        18.0330  -20.0150   -2.9440 O.2    37  U37        -0.2650
    840  C5        20.2380  -19.2180   -3.2580 C.ar   37  U37         0.0814
    841  C6        21.4390  -19.0890   -2.6900 C.ar   37  U37         0.0870
    842  OP1       26.0660  -16.7550   -5.2370 O.3    37  U37        -0.4373
    843  OP2       23.7920  -17.8630   -5.9210 O.co2  37  U37        -0.5172
    844  P         27.4820  -19.9970   -0.0970 P.3    38  C38         0.2141
    845  C5'       27.7110  -22.6660   -0.2050 C.3    38  C38         0.1812
    846  O5'       27.1530  -21.4400   -0.7120 O.3    38  C38        -0.3114
    847  C4'       28.0310  -23.5820   -1.3520 C.3    38  C38         0.1773
    848  O4'       26.9380  -23.5690   -2.2950 O.3    38  C38        -0.3307
    849  C3'       29.2120  -23.1230   -2.1750 C.3    38  C38         0.1860
    850  O3'       30.4190  -23.5420   -1.5440 O.3    38  C38        -0.3112
    851  C2'       28.9530  -23.7560   -3.5440 C.3    38  C38         0.2309
    852  O2'       29.5630  -24.9960   -3.8090 O.3    38  C38        -0.2156
    853  C1'       27.4280  -23.8640   -3.5810 C.3    38  C38         0.2420
    854  N1        26.8430  -22.9090   -4.5240 N.ar   38  C38        -0.2535
    855  C2        27.1860  -22.9960   -5.8730 C.ar   38  C38         0.3532
    856  O2        27.9800  -23.8740   -6.2360 O.2    38  C38        -0.2443
    857  N3        26.6660  -22.1130   -6.7440 N.ar   38  C38        -0.1739
    858  C4        25.8060  -21.1880   -6.3210 C.ar   38  C38         0.1759
    859  N4        25.2890  -20.3570   -7.2280 N.pl3  38  C38        -0.1070
    860  C5        25.4140  -21.0930   -4.9550 C.ar   38  C38         0.0566
    861  C6        25.9750  -21.9480   -4.0930 C.ar   38  C38         0.0850
    862  OP1       28.2130  -20.1250    1.2120 O.3    38  C38        -0.4373
    863  OP2       28.1080  -19.2620   -1.2300 O.co2  38  C38        -0.5172
    864  P         31.6580  -22.6020   -1.8450 P.3    39  C39         0.2141
    865  C5'       32.7200  -24.2870   -3.4480 C.3    39  C39         0.1812
    866  O5'       32.1710  -22.9810   -3.2950 O.3    39  C39        -0.3114
    867  C4'       32.9770  -24.5680   -4.8940 C.3    39  C39         0.1773
    868  O4'       31.7490  -24.4060   -5.6230 O.3    39  C39        -0.3307
    869  C3'       33.8720  -23.5740   -5.5790 C.3    39  C39         0.1860
    870  O3'       35.2110  -23.9070   -5.2360 O.3    39  C39        -0.3112
    871  C2'       33.5330  -23.8360   -7.0340 C.3    39  C39         0.2309
    872  O2'       34.0040  -25.1140   -7.3840 O.3    39  C39        -0.2156
    873  C1'       32.0430  -24.1070   -6.9560 C.3    39  C39         0.2420
    874  N1        31.2580  -22.9570   -7.2910 N.ar   39  C39        -0.2535
    875  C2        31.2720  -22.4900   -8.6030 C.ar   39  C39         0.3532
    876  O2        31.9510  -23.1010   -9.4440 O.2    39  C39        -0.2443
    877  N3        30.5480  -21.3820   -8.9210 N.ar   39  C39        -0.1739
    878  C4        29.8210  -20.7730   -7.9810 C.ar   39  C39         0.1759
    879  N4        29.0630  -19.7490   -8.3480 N.pl3  39  C39        -0.1070
    880  C5        29.8110  -21.2170   -6.6290 C.ar   39  C39         0.0566
    881  C6        30.5570  -22.2890   -6.3250 C.ar   39  C39         0.0850
    882  OP1       32.6960  -23.0030   -0.8830 O.3    39  C39        -0.4373
    883  OP2       31.0540  -21.2400   -1.8570 O.co2  39  C39        -0.5172
    884  P         36.3200  -22.7410   -5.3440 P.3    40  C40         0.2141
    885  C5'       35.8190  -22.4820   -7.8480 C.3    40  C40         0.1812
    886  O5'       36.7780  -22.7830   -6.8680 O.3    40  C40        -0.3114
    887  C4'       36.4650  -22.4810   -9.1790 C.3    40  C40         0.1773
    888  O4'       35.3630  -22.3460  -10.0930 O.3    40  C40        -0.3307
    889  C3'       37.3590  -21.2640   -9.4010 C.3    40  C40         0.1860
    890  O3'       38.7400  -21.5690   -9.5170 O.3    40  C40        -0.3112
    891  C2'       36.9020  -20.6990  -10.7410 C.3    40  C40         0.2309
    892  O2'       37.5140  -21.3540  -11.8250 O.3    40  C40        -0.2156
    893  C1'       35.4470  -21.1100  -10.7720 C.3    40  C40         0.2420
    894  N1        34.5300  -20.1550  -10.1580 N.ar   40  C40        -0.2535
    895  C2        34.0380  -19.1270  -10.9680 C.ar   40  C40         0.3532
    896  O2        34.4430  -19.0510  -12.1380 O.2    40  C40        -0.2443
    897  N3        33.1290  -18.2520  -10.4630 N.ar   40  C40        -0.1739
    898  C4        32.7280  -18.3750   -9.1970 C.ar   40  C40         0.1759
    899  N4        31.8340  -17.5000   -8.7380 N.pl3  40  C40        -0.1070
    900  C5        33.2040  -19.4270   -8.3510 C.ar   40  C40         0.0566
    901  C6        34.1000  -20.2840   -8.8670 C.ar   40  C40         0.0850
    902  OP1       37.4950  -23.1240   -4.5020 O.3    40  C40        -0.4373
    903  OP2       35.5750  -21.4570   -5.1090 O.co2  40  C40        -0.5172
    904  P         39.8650  -20.4240   -9.2270 P.3    41  G41         0.2141
    905  C5'       39.8030  -18.9190  -11.3750 C.3    41  G41         0.1812
    906  O5'       39.3540  -19.1400  -10.0240 O.3    41  G41        -0.3114
    907  C4'       38.9850  -17.7910  -11.9720 C.3    41  G41         0.1773
    908  O4'       37.5910  -17.9270  -11.5940 O.3    41  G41        -0.3307
    909  C3'       39.2870  -16.3940  -11.4710 C.3    41  G41         0.1860
    910  O3'       40.4990  -15.8840  -11.9920 O.3    41  G41        -0.3112
    911  C2'       38.0410  -15.6290  -11.9030 C.3    41  G41         0.2309
    912  O2'       37.9880  -15.3990  -13.2930 O.3    41  G41        -0.2156
    913  C1'       36.9590  -16.6490  -11.5910 C.3    41  G41         0.2408
    914  N1        33.5290  -14.2390   -8.7020 N.ar   41  G41        -0.1709
    915  C2        33.8610  -14.0140  -10.0160 C.ar   41  G41         0.2606
    916  N2        33.1730  -13.0350  -10.6350 N.pl3  41  G41        -0.0859
    917  N3        34.7930  -14.7030  -10.6780 N.ar   41  G41        -0.1918
    918  C4        35.3740  -15.6300   -9.8980 C.ar   41  G41         0.1723
    919  C5        35.1120  -15.9310   -8.5770 C.ar   41  G41         0.1748
    920  C6        34.1420  -15.1770   -7.8780 C.ar   41  G41         0.3023
    921  O6        33.7960  -15.2770   -6.6940 O.2    41  G41        -0.2633
    922  N7        35.9320  -16.9540   -8.1330 N.ar   41  G41        -0.2173
    923  C8        36.6620  -17.2560   -9.1730 C.ar   41  G41         0.1817
    924  N9        36.3780  -16.4830  -10.2730 N.ar   41  G41        -0.2693
    925  OP1       41.1840  -20.7500   -9.8620 O.2    41  G41        -0.5172
    926  OP2       39.7360  -20.3640   -7.7400 O.co2  41  G41        -0.4373
    927  P         41.5300  -15.2670  -10.9300 P.3    42  A42         0.2141
    928  C5'       42.2300  -13.3590  -12.5080 C.3    42  A42         0.1812
    929  O5'       41.2530  -13.8500  -11.5970 O.3    42  A42        -0.3114
    930  C4'       41.7090  -13.3710  -13.9180 C.3    42  A42         0.1773
    931  O4'       40.2690  -13.2750  -13.8980 O.3    42  A42        -0.3307
    932  C3'       42.0820  -12.1350  -14.7340 C.3    42  A42         0.1860
    933  O3'       43.4430  -12.1240  -15.1600 O.3    42  A42        -0.3112
    934  C2'       41.0670  -12.1990  -15.8570 C.3    42  A42         0.2309
    935  O2'       41.4450  -13.3160  -16.6340 O.3    42  A42        -0.2156
    936  C1'       39.8280  -12.6130  -15.0770 C.3    42  A42         0.2408
    937  N1        37.3740   -8.3700  -16.6170 N.ar   42  A42        -0.2040
    938  C2        38.1800   -9.2310  -17.2650 C.ar   42  A42         0.2016
    939  N3        38.8130  -10.3100  -16.7990 N.ar   42  A42        -0.2048
    940  C4        38.5390  -10.4880  -15.4960 C.ar   42  A42         0.1692
    941  C5        37.7190   -9.6990  -14.7000 C.ar   42  A42         0.1518
    942  C6        37.1350   -8.5750  -15.3020 C.ar   42  A42         0.1919
    943  N6        36.3430   -7.7220  -14.6510 N.pl3  42  A42        -0.1054
    944  N7        37.6400  -10.2120  -13.4130 N.ar   42  A42        -0.2193
    945  C8        38.4060  -11.2780  -13.4550 C.ar   42  A42         0.1816
    946  N9        38.9920  -11.4950  -14.6820 N.ar   42  A42        -0.2693
    947  OP1       42.8720  -15.8110  -11.2820 O.2    42  A42        -0.5172
    948  OP2       41.0990  -15.3560   -9.5070 O.co2  42  A42        -0.4373
    949  P         44.3660  -11.0720  -14.3910 P.3    43  A43         0.2141
    950  C5'       43.6900   -8.8180  -15.4670 C.3    43  A43         0.1812
    951  O5'       43.4690   -9.7460  -14.3880 O.3    43  A43        -0.3114
    952  C4'       42.5890   -7.8150  -15.5220 C.3    43  A43         0.1773
    953  O4'       41.3980   -8.4500  -15.0270 O.3    43  A43        -0.3307
    954  C3'       42.7730   -6.6240  -14.5920 C.3    43  A43         0.1860
    955  O3'       43.4600   -5.5550  -15.1990 O.3    43  A43        -0.3112
    956  C2'       41.3470   -6.1540  -14.3670 C.3    43  A43         0.2309
    957  O2'       40.9500   -5.1120  -15.2530 O.3    43  A43        -0.2156
    958  C1'       40.5980   -7.4910  -14.3570 C.3    43  A43         0.2408
    959  N1        37.7990   -7.0400  -10.0530 N.ar   43  A43        -0.2040
    960  C2        37.8000   -6.3490  -11.2040 C.ar   43  A43         0.2016
    961  N3        38.5530   -6.5200  -12.2930 N.ar   43  A43        -0.2048
    962  C4        39.4100   -7.5400  -12.1170 C.ar   43  A43         0.1692
    963  C5        39.5380   -8.3330  -10.9890 C.ar   43  A43         0.1518
    964  C6        38.6790   -8.0570   -9.9120 C.ar   43  A43         0.1919
    965  N6        38.6740   -8.7510   -8.7750 N.pl3  43  A43        -0.1054
    966  N7        40.5380   -9.2770  -11.1640 N.ar   43  A43        -0.2193
    967  C8        41.0030   -9.0270  -12.3680 C.ar   43  A43         0.1816
    968  N9        40.3550   -7.9970  -13.0060 N.ar   43  A43        -0.2693
    969  OP1       45.4240  -10.9480  -15.4140 O.2    43  A43        -0.5172
    970  OP2       44.7160  -11.5960  -13.0360 O.co2  43  A43        -0.4373
    971  P         44.6040   -4.9990  -14.2870 P.3    44  C44         0.2141
    972  C5'       43.3730   -2.7570  -14.0470 C.3    44  C44         0.1812
    973  O5'       43.7950   -3.9560  -13.4000 O.3    44  C44        -0.3114
    974  C4'       42.3040   -2.1150  -13.2420 C.3    44  C44         0.1773
    975  O4'       41.3120   -3.1260  -12.9450 O.3    44  C44        -0.3307
    976  C3'       42.7690   -1.6470  -11.8750 C.3    44  C44         0.1860
    977  O3'       43.3120   -0.3430  -11.8640 O.3    44  C44        -0.3112
    978  C2'       41.4780   -1.6490  -11.0820 C.3    44  C44         0.2309
    979  O2'       40.7560   -0.4390  -11.1930 O.3    44  C44        -0.2156
    980  C1'       40.7710   -2.8790  -11.6600 C.3    44  C44         0.2420
    981  N1        40.9990   -4.0590  -10.8270 N.ar   44  C44        -0.2535
    982  C2        40.2960   -4.1550   -9.6220 C.ar   44  C44         0.3532
    983  O2        39.4840   -3.2650   -9.3340 O.2    44  C44        -0.2443
    984  N3        40.5080   -5.2230   -8.8130 N.ar   44  C44        -0.1739
    985  C4        41.3890   -6.1630   -9.1690 C.ar   44  C44         0.1759
    986  N4        41.5400   -7.2130   -8.3650 N.pl3  44  C44        -0.1070
    987  C5        42.1590   -6.0620  -10.3700 C.ar   44  C44         0.0566
    988  C6        41.9370   -5.0000  -11.1590 C.ar   44  C44         0.0850
    989  OP1       45.4980   -4.2430  -15.2260 O.2    44  C44        -0.5172
    990  OP2       45.1200   -6.1610  -13.5210 O.co2  44  C44        -0.4373
    991  P         44.7190   -0.1910  -11.1530 P.3    45  U45         0.2141
    992  C5'       43.3390    1.2410   -9.5150 C.3    45  U45         0.1812
    993  O5'       44.2300    0.1700   -9.6800 O.3    45  U45        -0.3114
    994  C4'       42.7420    1.1620   -8.1480 C.3    45  U45         0.1773
    995  O4'       41.8510    0.0420   -8.1050 O.3    45  U45        -0.3307
    996  C3'       43.7160    0.8880   -7.0290 C.3    45  U45         0.1860
    997  O3'       44.1720    2.1130   -6.4900 O.3    45  U45        -0.3112
    998  C2'       42.8450    0.2460   -5.9600 C.3    45  U45         0.2309
    999  O2'       42.2880    1.0370   -4.9410 O.3    45  U45        -0.2156
   1000  C1'       41.7790   -0.4610   -6.7860 C.3    45  U45         0.2420
   1001  N1        42.1580   -1.8760   -6.7930 N.ar   45  U45        -0.2534
   1002  C2        41.7570   -2.6370   -5.7170 C.ar   45  U45         0.3546
   1003  O2        41.0230   -2.2120   -4.8390 O.2    45  U45        -0.2443
   1004  N3        42.2440   -3.9170   -5.7100 N.ar   45  U45        -0.1530
   1005  C4        43.0690   -4.5000   -6.6430 C.ar   45  U45         0.2846
   1006  O4        43.4430   -5.6570   -6.4790 O.2    45  U45        -0.2650
   1007  C5        43.4540   -3.6400   -7.7160 C.ar   45  U45         0.0814
   1008  C6        43.0310   -2.3750   -7.7290 C.ar   45  U45         0.0870
   1009  OP1       45.2460    0.9760  -11.8610 O.2    45  U45        -0.5172
   1010  OP2       45.5440   -1.4390  -11.1750 O.co2  45  U45        -0.4373
   1011  P         45.6930    2.0480   -6.1030 P.3    46  G46         0.2141
   1012  C5'       45.2570    2.2020   -3.5500 C.3    46  G46         0.1812
   1013  O5'       45.5760    1.3860   -4.6440 O.3    46  G46        -0.3114
   1014  C4'       44.7120    1.4110   -2.4080 C.3    46  G46         0.1773
   1015  O4'       43.7260    0.4490   -2.8740 O.3    46  G46        -0.3307
   1016  C3'       45.7030    0.6110   -1.5870 C.3    46  G46         0.1860
   1017  O3'       46.3060    1.3110   -0.5170 O.3    46  G46        -0.3112
   1018  C2'       44.7790   -0.4010   -0.9250 C.3    46  G46         0.2309
   1019  O2'       44.2220    0.0450    0.2830 O.3    46  G46        -0.2156
   1020  C1'       43.8010   -0.7350   -2.0680 C.3    46  G46         0.2408
   1021  N1        45.3900   -5.5570   -1.9350 N.ar   46  G46        -0.1709
   1022  C2        44.7030   -4.8360   -0.9900 C.ar   46  G46         0.2606
   1023  N2        44.4640   -5.4460    0.1740 N.pl3  46  G46        -0.0859
   1024  N3        44.3050   -3.5910   -1.1600 N.ar   46  G46        -0.1918
   1025  C4        44.6350   -3.1160   -2.3790 C.ar   46  G46         0.1723
   1026  C5        45.2650   -3.7690   -3.4130 C.ar   46  G46         0.1748
   1027  C6        45.6760   -5.1170   -3.2240 C.ar   46  G46         0.3023
   1028  O6        46.2360   -5.8790   -4.0360 O.2    46  G46        -0.2633
   1029  N7        45.3880   -2.9370   -4.5180 N.ar   46  G46        -0.2173
   1030  C8        44.8590   -1.8090   -4.1350 C.ar   46  G46         0.1817
   1031  N9        44.3600   -1.8540   -2.8550 N.ar   46  G46        -0.2693
   1032  OP1       46.0940    3.4780   -6.0580 O.3    46  G46        -0.4373
   1033  OP2       46.3550    1.1580   -7.1280 O.co2  46  G46        -0.5172
   1034  P         47.9170    1.5030   -0.5400 P.3    47  U47         0.2141
   1035  C5'       47.1370    0.4820    1.7110 C.3    47  U47         0.1812
   1036  O5'       48.1430    0.5310    0.7000 O.3    47  U47        -0.3114
   1037  C4'       47.1850   -0.8570    2.3820 C.3    47  U47         0.1773
   1038  O4'       46.4460   -1.8160    1.5670 O.3    47  U47        -0.3307
   1039  C3'       48.5590   -1.5060    2.5580 C.3    47  U47         0.1860
   1040  O3'       49.2580   -1.1150    3.7420 O.3    47  U47        -0.3112
   1041  C2'       48.1530   -2.9600    2.7600 C.3    47  U47         0.2309
   1042  O2'       47.6880   -3.1280    4.0880 O.3    47  U47        -0.2156
   1043  C1'       47.0020   -3.1120    1.7420 C.3    47  U47         0.2420
   1044  N1        47.4790   -3.6280    0.4380 N.ar   47  U47        -0.2534
   1045  C2        48.0310   -4.8990    0.4380 C.ar   47  U47         0.3546
   1046  O2        48.1050   -5.5850    1.4380 O.2    47  U47        -0.2443
   1047  N3        48.5410   -5.3120   -0.7630 N.ar   47  U47        -0.1530
   1048  C4        48.5700   -4.6140   -1.9440 C.ar   47  U47         0.2846
   1049  O4        49.1110   -5.1220   -2.9430 O.2    47  U47        -0.2650
   1050  C5        47.9700   -3.3090   -1.8700 C.ar   47  U47         0.0814
   1051  C6        47.4550   -2.8740   -0.7100 C.ar   47  U47         0.0870
   1052  OP1       48.5350    2.6380    0.2190 O.3    47  U47        -0.4373
   1053  OP2       48.5020    1.2250   -1.8880 O.co2  47  U47        -0.5172
   1054  P         50.8560   -0.8510    3.7010 P.3    48  G48         0.2141
   1055  C5'       51.3980   -3.3920    4.1850 C.3    48  G48         0.1812
   1056  O5'       51.7220   -2.1660    3.4620 O.3    48  G48        -0.3114
   1057  C4'       52.0040   -4.5490    3.4750 C.3    48  G48         0.1773
   1058  O4'       51.1440   -4.8950    2.3440 O.3    48  G48        -0.3307
   1059  C3'       53.3300   -4.2340    2.8270 C.3    48  G48         0.1860
   1060  O3'       54.2980   -4.1990    3.8310 O.3    48  G48        -0.3112
   1061  C2'       53.4160   -5.3400    1.7890 C.3    48  G48         0.2309
   1062  O2'       53.6880   -6.5580    2.4060 O.3    48  G48        -0.2156
   1063  C1'       51.9540   -5.4630    1.3180 C.3    48  G48         0.2408
   1064  N1        52.0260   -5.4700   -3.7630 N.ar   48  G48        -0.1709
   1065  C2        52.1820   -6.5180   -2.9060 C.ar   48  G48         0.2606
   1066  N2        52.4340   -7.6890   -3.4700 N.pl3  48  G48        -0.0859
   1067  N3        52.1380   -6.4100   -1.5960 N.ar   48  G48        -0.1918
   1068  C4        51.8840   -5.1450   -1.2090 C.ar   48  G48         0.1723
   1069  C5        51.7230   -4.0270   -1.9920 C.ar   48  G48         0.1748
   1070  C6        51.7920   -4.1570   -3.3850 C.ar   48  G48         0.3023
   1071  O6        51.6760   -3.2860   -4.2420 O.2    48  G48        -0.2633
   1072  N7        51.4910   -2.9120   -1.2140 N.ar   48  G48        -0.2173
   1073  C8        51.5370   -3.3540    0.0100 C.ar   48  G48         0.1817
   1074  N9        51.7520   -4.7030    0.0870 N.ar   48  G48        -0.2693
   1075  OP1       51.4760   -0.4880    5.0310 O.3    48  G48        -0.4373
   1076  OP2       51.0950   -0.0880    2.4580 O.co2  48  G48        -0.5172
   1077  P         55.8330   -3.9550    3.3850 P.3    49  A49         0.2141
   1078  C5'       57.6660   -5.8710    3.7340 C.3    49  A49         0.1812
   1079  O5'       56.5740   -5.3020    2.9890 O.3    49  A49        -0.3114
   1080  C4'       57.2870   -7.2580    4.2490 C.3    49  A49         0.1773
   1081  O4'       56.0230   -7.7820    3.7110 O.3    49  A49        -0.3307
   1082  C3'       58.2810   -8.3800    4.0090 C.3    49  A49         0.1860
   1083  O3'       59.0940   -8.3650    5.1280 O.3    49  A49        -0.3112
   1084  C2'       57.4170   -9.5700    4.3240 C.3    49  A49         0.2309
   1085  O2'       57.0440   -9.4160    5.6740 O.3    49  A49        -0.2156
   1086  C1'       56.1150   -9.1830    3.6340 C.3    49  A49         0.2408
   1087  N1        56.1860  -13.1610    0.4020 N.ar   49  A49        -0.2040
   1088  C2        56.3500  -13.0720    1.7250 C.ar   49  A49         0.2016
   1089  N3        56.3290  -12.0000    2.5040 N.ar   49  A49        -0.2048
   1090  C4        56.1350  -10.8860    1.7760 C.ar   49  A49         0.1692
   1091  C5        55.9460  -10.8150    0.4090 C.ar   49  A49         0.1518
   1092  C6        55.9770  -12.0330   -0.3040 C.ar   49  A49         0.1919
   1093  N6        55.7520  -12.1410   -1.6150 N.pl3  49  A49        -0.1054
   1094  N7        55.7270   -9.5020    0.0160 N.ar   49  A49        -0.2193
   1095  C8        55.7970   -8.8220    1.1330 C.ar   49  A49         0.1816
   1096  N9        56.0510   -9.5930    2.2350 N.ar   49  A49        -0.2693
   1097  OP1       56.7840   -3.3490    4.3460 O.3    49  A49        -0.4373
   1098  OP2       55.9340   -3.5330    1.9750 O.co2  49  A49        -0.5172
   1099  P         60.5850   -8.5430    4.8740 P.3    50  A50         0.2141
   1100  C5'       61.9990  -10.2640    6.2390 C.3    50  A50         0.1812
   1101  O5'       60.7700   -9.5350    6.0980 O.3    50  A50        -0.3114
   1102  C4'       62.1440  -10.8390    7.6220 C.3    50  A50         0.1773
   1103  O4'       60.9050  -11.4670    8.0280 O.3    50  A50        -0.3307
   1104  C3'       63.2030  -11.9220    7.6900 C.3    50  A50         0.1860
   1105  O3'       64.1080  -11.4710    8.6760 O.3    50  A50        -0.3112
   1106  C2'       62.4210  -13.1930    8.0510 C.3    50  A50         0.2309
   1107  O2'       63.1360  -14.0620    8.9160 O.3    50  A50        -0.2156
   1108  C1'       61.1910  -12.6300    8.7490 C.3    50  A50         0.2408
   1109  N1        57.7200  -15.2720   11.4700 N.ar   50  A50        -0.2040
   1110  C2        58.7800  -14.5430   11.8390 C.ar   50  A50         0.2016
   1111  N3        59.6510  -13.8840   11.0800 N.ar   50  A50        -0.2048
   1112  C4        59.3260  -13.9990    9.7780 C.ar   50  A50         0.1692
   1113  C5        58.2460  -14.6920    9.2500 C.ar   50  A50         0.1518
   1114  C6        57.4180  -15.3570   10.1520 C.ar   50  A50         0.1919
   1115  N6        56.3460  -16.0540    9.7790 N.pl3  50  A50        -0.1054
   1116  N7        58.2290  -14.6060    7.8680 N.ar   50  A50        -0.2193
   1117  C8        59.2840  -13.8710    7.5900 C.ar   50  A50         0.1816
   1118  N9        60.0050  -13.4870    8.6990 N.ar   50  A50        -0.2693
   1119  OP1       61.3720   -7.3290    5.1940 O.3    50  A50        -0.4373
   1120  OP2       60.8870   -9.2790    3.6410 O.co2  50  A50        -0.5172
   1121  P         65.2510  -10.3530    8.5970 P.3    51  G51         0.2141
   1122  C5'       64.3040  -10.2100   11.0180 C.3    51  G51         0.1812
   1123  O5'       64.8220   -9.5250    9.8790 O.3    51  G51        -0.3114
   1124  C4'       64.8630   -9.5630   12.2390 C.3    51  G51         0.1773
   1125  O4'       66.2750   -9.8550   12.3040 O.3    51  G51        -0.3307
   1126  C3'       64.8000   -8.0510   12.2200 C.3    51  G51         0.1860
   1127  O3'       63.5970   -7.6810   12.8220 O.3    51  G51        -0.3112
   1128  C2'       65.9450   -7.6660   13.1280 C.3    51  G51         0.2309
   1129  O2'       65.5430   -7.8350   14.4630 O.3    51  G51        -0.2156
   1130  C1'       66.9880   -8.7030   12.7290 C.3    51  G51         0.2408
   1131  N1        70.2290   -5.2160   10.9560 N.ar   51  G51        -0.1709
   1132  C2        69.6030   -5.2790   12.1760 C.ar   51  G51         0.2606
   1133  N2        69.8680   -4.2840   13.0280 N.pl3  51  G51        -0.0859
   1134  N3        68.7710   -6.2410   12.5310 N.ar   51  G51        -0.1918
   1135  C4        68.6120   -7.1540   11.5520 C.ar   51  G51         0.1723
   1136  C5        69.1930   -7.1860   10.3030 C.ar   51  G51         0.1748
   1137  C6        70.0820   -6.1490    9.9350 C.ar   51  G51         0.3023
   1138  O6        70.7100   -6.0110    8.8780 O.2    51  G51        -0.2633
   1139  N7        68.7780   -8.3040    9.5960 N.ar   51  G51        -0.2173
   1140  C8        67.9530   -8.9090   10.4050 C.ar   51  G51         0.1817
   1141  N9        67.8190   -8.2710   11.6140 N.ar   51  G51        -0.2693
   1142  OP1       65.0330   -9.5570    7.3840 O.2    51  G51        -0.5172
   1143  OP2       66.5840  -10.9250    8.8880 O.co2  51  G51        -0.4373
   1144  P         62.9140   -6.5140   12.0330 P.3    52  G52         0.2141
   1145  C5'       63.4520   -4.9120   14.0220 C.3    52  G52         0.1812
   1146  O5'       63.8620   -5.4740   12.7760 O.3    52  G52        -0.3114
   1147  C4'       64.2910   -3.7030   14.3030 C.3    52  G52         0.1773
   1148  O4'       65.6840   -4.0170   14.0520 O.3    52  G52        -0.3307
   1149  C3'       64.0240   -2.5210   13.4020 C.3    52  G52         0.1860
   1150  O3'       62.9920   -1.7930   14.0020 O.3    52  G52        -0.3112
   1151  C2'       65.3220   -1.7510   13.5260 C.3    52  G52         0.2309
   1152  O2'       65.4960   -1.1320   14.7800 O.3    52  G52        -0.2156
   1153  C1'       66.3290   -2.8890   13.4950 C.3    52  G52         0.2408
   1154  N1        69.1370   -1.4150    9.5570 N.ar   52  G52        -0.1709
   1155  C2        68.8660   -0.7610   10.7340 C.ar   52  G52         0.2606
   1156  N2        69.4610    0.4300   10.9020 N.pl3  52  G52        -0.0859
   1157  N3        68.0950   -1.2500   11.6920 N.ar   52  G52        -0.1918
   1158  C4        67.6030   -2.4650   11.3710 C.ar   52  G52         0.1723
   1159  C5        67.7880   -3.1930   10.2140 C.ar   52  G52         0.1748
   1160  C6        68.6310   -2.6600    9.1970 C.ar   52  G52         0.3023
   1161  O6        68.9230   -3.1490    8.0980 O.2    52  G52        -0.2633
   1162  N7        67.0890   -4.3910   10.2690 N.ar   52  G52        -0.2173
   1163  C8        66.4970   -4.3640   11.4320 C.ar   52  G52         0.1817
   1164  N9        66.7760   -3.2280   12.1530 N.ar   52  G52        -0.2693
   1165  OP1       61.4830   -6.3760   12.4070 O.3    52  G52        -0.4373
   1166  OP2       63.3010   -6.5270   10.5930 O.co2  52  G52        -0.5172
   1167  P         61.8210   -1.3630   13.0490 P.3    53  C53         0.2141
   1168  C5'       62.6250    1.1110   13.2910 C.3    53  C53         0.1812
   1169  O5'       62.6170   -0.0990   12.5040 O.3    53  C53        -0.3114
   1170  C4'       63.6070    2.0940   12.7300 C.3    53  C53         0.1773
   1171  O4'       64.8020    1.3720   12.3750 O.3    53  C53        -0.3307
   1172  C3'       63.1920    2.7390   11.4260 C.3    53  C53         0.1860
   1173  O3'       62.3970    3.8810   11.6660 O.3    53  C53        -0.3112
   1174  C2'       64.5260    3.1590   10.8500 C.3    53  C53         0.2309
   1175  O2'       64.9060    4.3390   11.5100 O.3    53  C53        -0.2156
   1176  C1'       65.4310    2.0100   11.2900 C.3    53  C53         0.2420
   1177  N1        65.6630    1.0210   10.2330 N.ar   53  C53        -0.2535
   1178  C2        66.5880    1.3450    9.2450 C.ar   53  C53         0.3532
   1179  O2        67.1560    2.4440    9.3060 O.2    53  C53        -0.2443
   1180  N3        66.8290    0.4650    8.2420 N.ar   53  C53        -0.1739
   1181  C4        66.1750   -0.6990    8.2080 C.ar   53  C53         0.1759
   1182  N4        66.4340   -1.5320    7.1970 N.pl3  53  C53        -0.1070
   1183  C5        65.2150   -1.0540    9.2030 C.ar   53  C53         0.0566
   1184  C6        64.9850   -0.1670   10.1830 C.ar   53  C53         0.0850
   1185  OP1       60.6440   -0.9540   13.8570 O.3    53  C53        -0.4373
   1186  OP2       61.6420   -2.3550   11.9760 O.co2  53  C53        -0.5172
   1187  P         61.1330    3.9570   10.6790 P.3    54  A54         0.2141
   1188  C5'       62.0300    5.9970    9.2480 C.3    54  A54         0.1812
   1189  O5'       61.9290    4.5750    9.4430 O.3    54  A54        -0.3114
   1190  C4'       63.0510    6.2620    8.1870 C.3    54  A54         0.1773
   1191  O4'       64.0650    5.2310    8.2830 O.3    54  A54        -0.3307
   1192  C3'       62.5620    6.1070    6.7580 C.3    54  A54         0.1860
   1193  O3'       61.7760    7.1960    6.3380 O.3    54  A54        -0.3112
   1194  C2'       63.8710    5.8770    6.0130 C.3    54  A54         0.2309
   1195  O2'       64.6990    6.9810    5.7160 O.3    54  A54        -0.2156
   1196  C1'       64.6260    4.9890    7.0040 C.3    54  A54         0.2408
   1197  N1        66.2220    1.3370    3.8260 N.ar   54  A54        -0.2040
   1198  C2        66.5430    2.6310    3.9700 C.ar   54  A54         0.2016
   1199  N3        66.0900    3.5200    4.8510 N.ar   54  A54        -0.2048
   1200  C4        65.1720    2.9610    5.6560 C.ar   54  A54         0.1692
   1201  C5        64.7220    1.6520    5.6220 C.ar   54  A54         0.1518
   1202  C6        65.2950    0.8060    4.6500 C.ar   54  A54         0.1919
   1203  N6        64.9770   -0.4800    4.5030 N.pl3  54  A54        -0.1054
   1204  N7        63.7590    1.4390    6.6020 N.ar   54  A54        -0.2193
   1205  C8        63.6400    2.6080    7.1850 C.ar   54  A54         0.1816
   1206  N9        64.4850    3.5680    6.6770 N.ar   54  A54        -0.2693
   1207  OP1       60.0830    4.9190   11.1580 O.3    54  A54        -0.4373
   1208  OP2       60.7030    2.5850   10.2950 O.co2  54  A54        -0.5172
   1209  P         60.2920    6.7810    5.8610 P.3    55  G55         0.2141
   1210  C5'       60.8770    7.1000    3.3210 C.3    55  G55         0.1812
   1211  O5'       60.7840    6.2330    4.4530 O.3    55  G55        -0.3114
   1212  C4'       62.0470    6.6910    2.4660 C.3    55  G55         0.1773
   1213  O4'       62.7530    5.5870    3.0880 O.3    55  G55        -0.3307
   1214  C3'       61.6990    6.0910    1.1190 C.3    55  G55         0.1860
   1215  O3'       61.0150    6.9410    0.2080 O.3    55  G55        -0.3112
   1216  C2'       63.0300    5.4420    0.7380 C.3    55  G55         0.2309
   1217  O2'       64.0630    6.2210    0.1940 O.3    55  G55        -0.2156
   1218  C1'       63.5040    4.9010    2.0930 C.3    55  G55         0.2408
   1219  N1        64.5300    0.4420   -0.0030 N.ar   55  G55        -0.1709
   1220  C2        65.0810    1.6740   -0.2430 C.ar   55  G55         0.2606
   1221  N2        66.0430    1.7190   -1.1690 N.pl3  55  G55        -0.0859
   1222  N3        64.7470    2.7700    0.4090 N.ar   55  G55        -0.1918
   1223  C4        63.7830    2.5340    1.3230 C.ar   55  G55         0.1723
   1224  C5        63.1450    1.3490    1.6170 C.ar   55  G55         0.1748
   1225  C6        63.5290    0.1810    0.9250 C.ar   55  G55         0.3023
   1226  O6        63.0920   -0.9640    1.0490 O.2    55  G55        -0.2633
   1227  N7        62.1790    1.5390    2.5970 N.ar   55  G55        -0.2173
   1228  C8        62.2390    2.8150    2.8670 C.ar   55  G55         0.1817
   1229  N9        63.2170    3.4700    2.1530 N.ar   55  G55        -0.2693
   1230  OP1       59.3220    7.9010    5.6460 O.2    55  G55        -0.5172
   1231  OP2       59.8220    5.5910    6.6100 O.co2  55  G55        -0.4373
   1232  P         59.4260    6.6010    0.0090 P.3    56  A56         0.2141
   1233  C5'       60.6700    5.9190   -2.1420 C.3    56  A56         0.1812
   1234  O5'       59.8780    5.4940   -1.0450 O.3    56  A56        -0.3114
   1235  C4'       61.1510    4.7680   -2.9710 C.3    56  A56         0.1773
   1236  O4'       61.9380    3.8660   -2.1710 O.3    56  A56        -0.3307
   1237  C3'       60.0990    3.8400   -3.5370 C.3    56  A56         0.1860
   1238  O3'       59.4700    4.4480   -4.6360 O.3    56  A56        -0.3112
   1239  C2'       60.9790    2.6780   -3.9720 C.3    56  A56         0.2309
   1240  O2'       61.4210    2.7550   -5.3130 O.3    56  A56        -0.2156
   1241  C1'       62.0050    2.6160   -2.8200 C.3    56  A56         0.2408
   1242  N1        61.6690   -2.4170   -2.0130 N.ar   56  A56        -0.2040
   1243  C2        62.3300   -1.6940   -2.9260 C.ar   56  A56         0.2016
   1244  N3        62.4010   -0.3760   -3.0590 N.ar   56  A56        -0.2048
   1245  C4        61.6690    0.2330   -2.1060 C.ar   56  A56         0.1692
   1246  C5        60.9380   -0.3770   -1.1020 C.ar   56  A56         0.1518
   1247  C6        60.9430   -1.7700   -1.0740 C.ar   56  A56         0.1919
   1248  N6        60.3130   -2.4860   -0.1490 N.pl3  56  A56        -0.1054
   1249  N7        60.3600    0.5690   -0.2700 N.ar   56  A56        -0.2193
   1250  C8        60.7000    1.7130   -0.8120 C.ar   56  A56         0.1816
   1251  N9        61.5410    1.5850   -1.8900 N.ar   56  A56        -0.2693
   1252  OP1       58.7640    7.5510   -0.9140 O.2    56  A56        -0.5172
   1253  OP2       58.6060    6.1640    1.2010 O.co2  56  A56        -0.4373
   1254  P         58.0600    4.0960   -5.2420 P.3    57  A57         0.2141
   1255  C5'       57.6810    1.5360   -5.9510 C.3    57  A57         0.1812
   1256  O5'       58.4880    2.7740   -6.0130 O.3    57  A57        -0.3114
   1257  C4'       58.5070    0.3600   -6.4620 C.3    57  A57         0.1773
   1258  O4'       59.4240   -0.1690   -5.4540 O.3    57  A57        -0.3307
   1259  C3'       57.7320   -0.8200   -7.0140 C.3    57  A57         0.1860
   1260  O3'       57.7910   -0.7000   -8.4270 O.3    57  A57        -0.3112
   1261  C2'       58.6490   -1.9960   -6.7370 C.3    57  A57         0.2309
   1262  O2'       59.5480   -2.0940   -7.8190 O.3    57  A57        -0.2156
   1263  C1'       59.3700   -1.5710   -5.4570 C.3    57  A57         0.2408
   1264  N1        58.5600   -5.4510   -2.1500 N.ar   57  A57        -0.2040
   1265  C2        59.1960   -5.3980   -3.3250 C.ar   57  A57         0.2016
   1266  N3        59.3720   -4.3660   -4.1430 N.ar   57  A57        -0.2048
   1267  C4        58.7860   -3.2650   -3.6460 C.ar   57  A57         0.1692
   1268  C5        58.0910   -3.1650   -2.4570 C.ar   57  A57         0.1518
   1269  C6        57.9890   -4.3260   -1.6780 C.ar   57  A57         0.1919
   1270  N6        57.3650   -4.3690   -0.5010 N.pl3  57  A57        -0.1054
   1271  N7        57.6230   -1.8750   -2.2690 N.ar   57  A57        -0.2193
   1272  C8        58.0540   -1.2280   -3.3220 C.ar   57  A57         0.1816
   1273  N9        58.7570   -2.0080   -4.2020 N.ar   57  A57        -0.2693
   1274  OP1       57.9220    4.9750   -6.3780 O.2    57  A57        -0.5172
   1275  OP2       56.8980    3.8550   -4.3670 O.co2  57  A57        -0.4373
   1276  P         56.3690   -0.4840   -9.1310 P.3    58  G58         0.2141
   1277  C5'       56.0530   -3.1200   -8.8960 C.3    58  G58         0.1812
   1278  O5'       55.4660   -1.7670   -8.8250 O.3    58  G58        -0.3114
   1279  C4'       55.4280   -4.0590   -7.8910 C.3    58  G58         0.1773
   1280  O4'       55.5930   -3.4800   -6.5710 O.3    58  G58        -0.3307
   1281  C3'       53.9360   -4.2940   -8.0220 C.3    58  G58         0.1860
   1282  O3'       53.7030   -5.5350   -7.3650 O.3    58  G58        -0.3112
   1283  C2'       53.3850   -3.2030   -7.1220 C.3    58  G58         0.2309
   1284  O2'       52.0610   -3.3810   -6.6660 O.3    58  G58        -0.2156
   1285  C1'       54.3330   -3.3280   -5.9470 C.3    58  G58         0.2408
   1286  N1        54.8010   -1.5400   -1.2020 N.ar   58  G58        -0.1709
   1287  C2        54.7060   -2.8360   -1.6260 C.ar   58  G58         0.2606
   1288  N2        54.7400   -3.7660   -0.6680 N.pl3  58  G58        -0.0859
   1289  N3        54.5650   -3.1910   -2.8900 N.ar   58  G58        -0.1918
   1290  C4        54.5580   -2.1260   -3.7160 C.ar   58  G58         0.1723
   1291  C5        54.6430   -0.7920   -3.3920 C.ar   58  G58         0.1748
   1292  C6        54.7860   -0.4260   -2.0300 C.ar   58  G58         0.3023
   1293  O6        54.9040    0.7050   -1.5400 O.2    58  G58        -0.2633
   1294  N7        54.5940   -0.0050   -4.5320 N.ar   58  G58        -0.2173
   1295  C8        54.4900   -0.8590   -5.5120 C.ar   58  G58         0.1817
   1296  N9        54.4140   -2.1590   -5.0850 N.ar   58  G58        -0.2693
   1297  OP1       56.9090   -0.3340  -10.5280 O.2    58  G58        -0.5172
   1298  OP2       55.4200    0.4610   -8.4910 O.co2  58  G58        -0.4373
   1299  P         52.2830   -6.3270   -7.3080 P.3    59  U59         0.2141
   1300  C5'       53.6020   -8.2680   -8.4090 C.3    59  U59         0.1812
   1301  O5'       53.3200   -7.5250   -7.2370 O.3    59  U59        -0.3114
   1302  C4'       54.3820   -9.4510   -7.9880 C.3    59  U59         0.1773
   1303  O4'       55.5800   -8.9590   -7.3450 O.3    59  U59        -0.3307
   1304  C3'       53.7070  -10.2930   -6.9220 C.3    59  U59         0.1860
   1305  O3'       53.1950  -11.4390   -7.5410 O.3    59  U59        -0.3112
   1306  C2'       54.8970  -10.9160   -6.2400 C.3    59  U59         0.2309
   1307  O2'       55.3500  -11.8330   -7.2220 O.3    59  U59        -0.2156
   1308  C1'       55.8490   -9.7230   -6.1820 C.3    59  U59         0.2420
   1309  N1        55.6520   -8.8700   -5.0030 N.ar   59  U59        -0.2534
   1310  C2        56.1130   -9.3400   -3.7850 C.ar   59  U59         0.3546
   1311  O2        56.6860  -10.3990   -3.6610 O.2    59  U59        -0.2443
   1312  N3        55.9360   -8.4860   -2.7270 N.ar   59  U59        -0.1530
   1313  C4        55.3070   -7.2690   -2.7400 C.ar   59  U59         0.2846
   1314  O4        55.1260   -6.6750   -1.6800 O.2    59  U59        -0.2650
   1315  C5        54.8290   -6.8600   -4.0330 C.ar   59  U59         0.0814
   1316  C6        55.0330   -7.6470   -5.0970 C.ar   59  U59         0.0870
   1317  OP1       51.6040   -6.3080   -8.6340 O.2    59  U59        -0.5172
   1318  OP2       51.4080   -6.4050   -6.1070 O.co2  59  U59        -0.4373
   1319  P         51.7070  -11.9020   -7.3330 P.3    60  A60         0.2141
   1320  C5'       52.3990  -14.1230   -6.0670 C.3    60  A60         0.1812
   1321  O5'       52.2760  -12.7120   -6.0830 O.3    60  A60        -0.3114
   1322  C4'       52.5010  -14.6900   -4.6630 C.3    60  A60         0.1773
   1323  O4'       53.4710  -13.9970   -3.8150 O.3    60  A60        -0.3307
   1324  C3'       51.2200  -14.6440   -3.8910 C.3    60  A60         0.1860
   1325  O3'       50.6070  -15.7300   -4.3860 O.3    60  A60        -0.3112
   1326  C2'       51.7020  -14.8150   -2.4660 C.3    60  A60         0.2309
   1327  O2'       51.9070  -16.0940   -1.9710 O.3    60  A60        -0.2156
   1328  C1'       53.0200  -14.0230   -2.4650 C.3    60  A60         0.2408
   1329  N1        53.1590  -10.7700    1.5420 N.ar   60  A60        -0.2040
   1330  C2        53.5690  -12.0370    1.4020 C.ar   60  A60         0.2016
   1331  N3        53.5310  -12.8210    0.3260 N.ar   60  A60        -0.2048
   1332  C4        52.9350  -12.1890   -0.6990 C.ar   60  A60         0.1692
   1333  C5        52.4260  -10.9020   -0.6920 C.ar   60  A60         0.1518
   1334  C6        52.5780  -10.1610    0.4880 C.ar   60  A60         0.1919
   1335  N6        52.1370   -8.9150    0.6360 N.pl3  60  A60        -0.1054
   1336  N7        51.8600  -10.5940   -1.9160 N.ar   60  A60        -0.2193
   1337  C8        52.0620  -11.6690   -2.6350 C.ar   60  A60         0.1816
   1338  N9        52.7710  -12.6480   -1.9840 N.ar   60  A60        -0.2693
   1339  OP1       51.6790  -12.5530   -8.6370 O.2    60  A60        -0.5172
   1340  OP2       50.5420  -11.0220   -6.9430 O.co2  60  A60        -0.4373
   1341  P         49.0350  -15.8100   -4.4790 P.3    61  A61         0.2141
   1342  C5'       49.0690  -16.0520   -1.9790 C.3    61  A61         0.1812
   1343  O5'       48.3380  -15.5460   -3.0600 O.3    61  A61        -0.3114
   1344  C4'       48.5550  -15.5710   -0.6720 C.3    61  A61         0.1773
   1345  O4'       49.5500  -14.6640   -0.1270 O.3    61  A61        -0.3307
   1346  C3'       47.2410  -14.8220   -0.7000 C.3    61  A61         0.1860
   1347  O3'       46.2020  -15.7240   -0.4270 O.3    61  A61        -0.3112
   1348  C2'       47.4440  -13.8330    0.4390 C.3    61  A61         0.2309
   1349  O2'       47.3560  -14.2740    1.7630 O.3    61  A61        -0.2156
   1350  C1'       48.9170  -13.4700    0.2630 C.3    61  A61         0.2408
   1351  N1        48.6390   -8.4860   -0.7520 N.ar   61  A61        -0.2040
   1352  C2        48.6430   -9.1750    0.3860 C.ar   61  A61         0.2016
   1353  N3        48.7650  -10.4780    0.5760 N.ar   61  A61        -0.2048
   1354  C4        48.8680  -11.1220   -0.6010 C.ar   61  A61         0.1692
   1355  C5        48.8770  -10.5510   -1.8550 C.ar   61  A61         0.1518
   1356  C6        48.7630   -9.1520   -1.9150 C.ar   61  A61         0.1919
   1357  N6        48.7860   -8.4510   -3.0500 N.pl3  61  A61        -0.1054
   1358  N7        49.0130  -11.5240   -2.8340 N.ar   61  A61        -0.2193
   1359  C8        49.0580  -12.6410   -2.1600 C.ar   61  A61         0.1816
   1360  N9        49.0240  -12.4710   -0.8040 N.ar   61  A61        -0.2693
   1361  OP1       49.0240  -17.2970   -4.7170 O.3    61  A61        -0.4373
   1362  OP2       48.2080  -14.9680   -5.4450 O.co2  61  A61        -0.5172
   1363  P         44.6760  -15.3650   -0.7160 P.3    62  C62         0.2141
   1364  C5'       44.2760  -14.2720    1.6630 C.3    62  C62         0.1812
   1365  O5'       44.1190  -14.2120    0.2230 O.3    62  C62        -0.3114
   1366  C4'       43.7870  -12.9810    2.2770 C.3    62  C62         0.1773
   1367  O4'       44.9050  -12.0470    2.3140 O.3    62  C62        -0.3307
   1368  C3'       42.6830  -12.2490    1.5090 C.3    62  C62         0.1860
   1369  O3'       41.4570  -12.6260    2.0680 O.3    62  C62        -0.3112
   1370  C2'       42.9190  -10.8220    1.9410 C.3    62  C62         0.2309
   1371  O2'       42.4450  -10.7270    3.2590 O.3    62  C62        -0.2156
   1372  C1'       44.4490  -10.7620    1.9450 C.3    62  C62         0.2420
   1373  N1        44.9040  -10.4420    0.5870 N.ar   62  C62        -0.2535
   1374  C2        44.7470   -9.1250    0.1750 C.ar   62  C62         0.3532
   1375  O2        44.3380   -8.2940    0.9950 O.2    62  C62        -0.2443
   1376  N3        45.0310   -8.7850   -1.1000 N.ar   62  C62        -0.1739
   1377  C4        45.4800   -9.7040   -1.9430 C.ar   62  C62         0.1759
   1378  N4        45.7900   -9.3080   -3.1700 N.pl3  62  C62        -0.1070
   1379  C5        45.6540  -11.0650   -1.5550 C.ar   62  C62         0.0566
   1380  C6        45.3360  -11.3920   -0.2950 C.ar   62  C62         0.0850
   1381  OP1       43.7540  -16.4010   -0.1820 O.3    62  C62        -0.4373
   1382  OP2       44.5030  -14.8990   -2.1020 O.co2  62  C62        -0.5172
   1383  P         39.9970  -12.2610    1.5150 P.3    63  A63         0.2141
   1384  C5'       39.7990  -10.0660    3.0610 C.3    63  A63         0.1812
   1385  O5'       39.4130  -10.8260    1.8930 O.3    63  A63        -0.3114
   1386  C4'       39.6080   -8.6070    2.7340 C.3    63  A63         0.1773
   1387  O4'       40.8220   -8.0980    2.1010 O.3    63  A63        -0.3307
   1388  C3'       38.5160   -8.3630    1.6940 C.3    63  A63         0.1860
   1389  O3'       37.2400   -8.2400    2.2620 O.3    63  A63        -0.3112
   1390  C2'       38.9380   -7.0440    1.0510 C.3    63  A63         0.2309
   1391  O2'       38.4120   -5.8890    1.6850 O.3    63  A63        -0.2156
   1392  C1'       40.4670   -7.1290    1.1310 C.3    63  A63         0.2408
   1393  N1        41.9680   -5.3650   -3.4390 N.ar   63  A63        -0.2040
   1394  C2        41.3640   -4.7790   -2.4000 C.ar   63  A63         0.2016
   1395  N3        40.9720   -5.3110   -1.2430 N.ar   63  A63        -0.2048
   1396  C4        41.2970   -6.6140   -1.1850 C.ar   63  A63         0.1692
   1397  C5        41.9140   -7.3560   -2.1720 C.ar   63  A63         0.1518
   1398  C6        42.2530   -6.6810   -3.3590 C.ar   63  A63         0.1919
   1399  N6        42.8570   -7.2580   -4.3910 N.pl3  63  A63        -0.1054
   1400  N7        42.0930   -8.6670   -1.7570 N.ar   63  A63        -0.2193
   1401  C8        41.5660   -8.6930   -0.5560 C.ar   63  A63         0.1816
   1402  N9        41.0840   -7.4810   -0.1400 N.ar   63  A63        -0.2693
   1403  OP1       39.2060  -13.1230    2.4180 O.3    63  A63        -0.4373
   1404  OP2       39.7240  -12.2570    0.0520 O.co2  63  A63        -0.5172
   1405  P         35.9410   -8.0960    1.2670 P.3    64  G64         0.2141
   1406  C5'       35.7560   -5.4090    1.1680 C.3    64  G64         0.1812
   1407  O5'       35.5050   -6.7150    0.5810 O.3    64  G64        -0.3114
   1408  C4'       35.7170   -4.3820    0.0690 C.3    64  G64         0.1773
   1409  O4'       37.0500   -4.3010   -0.5200 O.3    64  G64        -0.3307
   1410  C3'       34.8100   -4.7760   -1.0880 C.3    64  G64         0.1860
   1411  O3'       33.4080   -4.5890   -0.8460 O.3    64  G64        -0.3112
   1412  C2'       35.4500   -4.0500   -2.2810 C.3    64  G64         0.2309
   1413  O2'       34.9210   -2.7790   -2.5890 O.3    64  G64        -0.2156
   1414  C1'       36.9460   -4.0240   -1.9070 C.3    64  G64         0.2408
   1415  N1        39.3490   -5.3340   -6.2300 N.ar   64  G64        -0.1709
   1416  C2        38.7240   -4.1560   -5.9160 C.ar   64  G64         0.2606
   1417  N2        38.7380   -3.2150   -6.8720 N.pl3  64  G64        -0.0859
   1418  N3        38.1240   -3.9190   -4.7570 N.ar   64  G64        -0.1918
   1419  C4        38.2280   -4.9670   -3.9100 C.ar   64  G64         0.1723
   1420  C5        38.8560   -6.1730   -4.1160 C.ar   64  G64         0.1748
   1421  C6        39.4950   -6.4130   -5.3670 C.ar   64  G64         0.3023
   1422  O6        40.1310   -7.4120   -5.7340 O.2    64  G64        -0.2633
   1423  N7        38.7740   -6.9690   -2.9830 N.ar   64  G64        -0.2173
   1424  C8        38.1040   -6.2500   -2.1250 C.ar   64  G64         0.1817
   1425  N9        37.7390   -5.0260   -2.6200 N.ar   64  G64        -0.2693
   1426  OP1       34.9950   -8.4320    2.3770 O.3    64  G64        -0.4373
   1427  OP2       35.9970   -8.8910    0.0190 O.co2  64  G64        -0.5172
   1428  P         32.3490   -4.5730   -2.1070 P.3    65  U65         0.2141
   1429  C5'       32.0800   -3.4010   -4.3460 C.3    65  U65         0.1812
   1430  O5'       33.0100   -3.9410   -3.4160 O.3    65  U65        -0.3114
   1431  C4'       32.8160   -2.9360   -5.5550 C.3    65  U65         0.1773
   1432  O4'       34.1480   -3.4140   -5.3770 O.3    65  U65        -0.3307
   1433  C3'       32.3300   -3.6090   -6.8170 C.3    65  U65         0.1860
   1434  O3'       31.1430   -3.0210   -7.3630 O.3    65  U65        -0.3112
   1435  C2'       33.5890   -3.7430   -7.6700 C.3    65  U65         0.2309
   1436  O2'       33.8120   -2.7320   -8.6100 O.3    65  U65        -0.2156
   1437  C1'       34.7100   -3.7370   -6.6300 C.3    65  U65         0.2420
   1438  N1        35.3640   -5.0460   -6.4950 N.ar   65  U65        -0.2534
   1439  C2        36.0830   -5.5320   -7.5750 C.ar   65  U65         0.3546
   1440  O2        36.2060   -4.9080   -8.6240 O.2    65  U65        -0.2443
   1441  N3        36.6340   -6.7800   -7.3840 N.ar   65  U65        -0.1530
   1442  C4        36.5680   -7.5550   -6.2400 C.ar   65  U65         0.2846
   1443  O4        37.1480   -8.6400   -6.2040 O.2    65  U65        -0.2650
   1444  C5        35.8290   -6.9670   -5.1650 C.ar   65  U65         0.0814
   1445  C6        35.2590   -5.7700   -5.3270 C.ar   65  U65         0.0870
   1446  OP1       31.1520   -3.6860   -2.0060 O.3    65  U65        -0.4373
   1447  OP2       32.0530   -5.9980   -2.3820 O.co2  65  U65        -0.5172
   1448  P         29.6950   -3.7420   -7.0430 P.3    66  U66         0.2141
   1449  C5'       29.4000   -5.1510   -4.7610 C.3    66  U66         0.1812
   1450  O5'       29.6670   -3.9090   -5.4370 O.3    66  U66        -0.3114
   1451  C4'       28.0940   -5.7700   -5.2450 C.3    66  U66         0.1773
   1452  O4'       27.9770   -7.0760   -4.6360 O.3    66  U66        -0.3307
   1453  C3'       26.8010   -5.0500   -4.9070 C.3    66  U66         0.1860
   1454  O3'       26.4270   -4.3330   -6.0640 O.3    66  U66        -0.3112
   1455  C2'       25.7870   -6.1720   -4.6200 C.3    66  U66         0.2309
   1456  O2'       25.1130   -6.7360   -5.7300 O.3    66  U66        -0.2156
   1457  C1'       26.6780   -7.3000   -4.1180 C.3    66  U66         0.2420
   1458  N1        26.7810   -7.4520   -2.6580 N.ar   66  U66        -0.2534
   1459  C2        25.6660   -7.8770   -1.9570 C.ar   66  U66         0.3546
   1460  O2        24.5950   -8.1130   -2.4920 O.2    66  U66        -0.2443
   1461  N3        25.8420   -7.9780   -0.6000 N.ar   66  U66        -0.1530
   1462  C4        26.9930   -7.7240    0.1110 C.ar   66  U66         0.2846
   1463  O4        26.9880   -7.8520    1.3340 O.2    66  U66        -0.2650
   1464  C5        28.1090   -7.3180   -0.6850 C.ar   66  U66         0.0814
   1465  C6        27.9680   -7.1960   -2.0080 C.ar   66  U66         0.0870
   1466  OP1       29.9020   -5.0540   -7.7160 O.2    66  U66        -0.5172
   1467  OP2       28.5810   -2.8570   -7.5450 O.co2  66  U66        -0.4373
   1468  P         25.6350   -2.9720   -5.8450 P.3    67  A67         0.2141
   1469  C5'       23.3810   -3.9660   -6.6080 C.3    67  A67         0.1812
   1470  O5'       24.1400   -3.4260   -5.5370 O.3    67  A67        -0.3114
   1471  C4'       22.0670   -4.5660   -6.1700 C.3    67  A67         0.1773
   1472  O4'       22.2940   -5.7350   -5.3490 O.3    67  A67        -0.3307
   1473  C3'       21.1890   -3.6590   -5.3250 C.3    67  A67         0.1860
   1474  O3'       20.3800   -2.9890   -6.2530 O.3    67  A67        -0.3112
   1475  C2'       20.3360   -4.6390   -4.5330 C.3    67  A67         0.2309
   1476  O2'       19.3090   -5.2070   -5.3040 O.3    67  A67        -0.2156
   1477  C1'       21.3120   -5.7880   -4.3220 C.3    67  A67         0.2408
   1478  N1        21.3390   -7.1710    0.6180 N.ar   67  A67        -0.2040
   1479  C2        20.4930   -7.4430   -0.3850 C.ar   67  A67         0.2016
   1480  N3        20.5420   -7.0530   -1.6510 N.ar   67  A67        -0.2048
   1481  C4        21.6200   -6.2810   -1.8640 C.ar   67  A67         0.1692
   1482  C5        22.5810   -5.9210   -0.9380 C.ar   67  A67         0.1518
   1483  C6        22.4270   -6.4110    0.3600 C.ar   67  A67         0.1919
   1484  N6        23.3010   -6.1740    1.3450 N.pl3  67  A67        -0.1054
   1485  N7        23.5570   -5.1260   -1.5210 N.ar   67  A67        -0.2193
   1486  C8        23.1710   -5.0240   -2.7690 C.ar   67  A67         0.1816
   1487  N9        21.9970   -5.6860   -3.0420 N.ar   67  A67        -0.2693
   1488  OP1       25.6050   -2.3680   -7.2180 O.2    67  A67        -0.5172
   1489  OP2       26.3450   -2.2340   -4.7150 O.co2  67  A67        -0.4373
   1490  P         20.2110   -1.4500   -6.0570 P.3    68  G68         0.2141
   1491  C5'       20.3050   -0.1490   -3.7390 C.3    68  G68         0.1812
   1492  O5'       19.6640   -1.1130   -4.6030 O.3    68  G68        -0.3114
   1493  C4'       20.4270   -0.7820   -2.3750 C.3    68  G68         0.1773
   1494  O4'       21.6060   -1.6170   -2.3700 O.3    68  G68        -0.3307
   1495  C3'       20.6910    0.1130   -1.1920 C.3    68  G68         0.1860
   1496  O3'       19.5440    0.8610   -0.8340 O.3    68  G68        -0.3112
   1497  C2'       21.2290   -0.8770   -0.1600 C.3    68  G68         0.2309
   1498  O2'       20.2600   -1.7250    0.4350 O.3    68  G68        -0.2156
   1499  C1'       22.0620   -1.7900   -1.0450 C.3    68  G68         0.2408
   1500  N1        26.2350   -1.3640    1.8070 N.ar   68  G68        -0.1709
   1501  C2        24.9200   -1.5110    2.1910 C.ar   68  G68         0.2606
   1502  N2        24.6900   -1.5530    3.5060 N.pl3  68  G68        -0.0859
   1503  N3        23.8990   -1.6120    1.3440 N.ar   68  G68        -0.1918
   1504  C4        24.3060   -1.5370    0.0630 C.ar   68  G68         0.1723
   1505  C5        25.5890   -1.3860   -0.4260 C.ar   68  G68         0.1748
   1506  C6        26.6610   -1.2590    0.4890 C.ar   68  G68         0.3023
   1507  O6        27.8420   -1.0690    0.2420 O.2    68  G68        -0.2633
   1508  N7        25.5910   -1.3730   -1.8170 N.ar   68  G68        -0.2173
   1509  C8        24.3300   -1.4930   -2.1400 C.ar   68  G68         0.1817
   1510  N9        23.4950   -1.5520   -1.0420 N.ar   68  G68        -0.2693
   1511  OP1       19.0500   -1.0780   -6.9150 O.2    68  G68        -0.5172
   1512  OP2       21.6100   -0.9700   -6.3170 O.co2  68  G68        -0.4373
   1513  P         19.9390    2.4330   -0.5480 P.3    69  C69         0.2141
   1514  C5'       19.3690    1.8820    1.9680 C.3    69  C69         0.1812
   1515  O5'       20.2530    2.5160    1.0130 O.3    69  C69        -0.3114
   1516  C4'       20.1640    1.6210    3.2150 C.3    69  C69         0.1773
   1517  O4'       21.4720    1.2320    2.7480 O.3    69  C69        -0.3307
   1518  C3'       20.5890    2.8710    3.9670 C.3    69  C69         0.1860
   1519  O3'       19.6910    3.7340    4.6730 O.3    69  C69        -0.3112
   1520  C2'       21.8270    2.4080    4.7410 C.3    69  C69         0.2309
   1521  O2'       21.4730    1.7270    5.9070 O.3    69  C69        -0.2156
   1522  C1'       22.3800    1.3380    3.8170 C.3    69  C69         0.2420
   1523  N1        23.7120    1.5520    3.2760 N.ar   69  C69        -0.2535
   1524  C2        24.7850    1.5530    4.1660 C.ar   69  C69         0.3532
   1525  O2        24.5450    1.4720    5.3690 O.2    69  C69        -0.2443
   1526  N3        26.0510    1.6480    3.6930 N.ar   69  C69        -0.1739
   1527  C4        26.2550    1.7680    2.3730 C.ar   69  C69         0.1759
   1528  N4        27.5110    1.9070    1.9430 N.pl3  69  C69        -0.1070
   1529  C5        25.1750    1.7710    1.4370 C.ar   69  C69         0.0566
   1530  C6        23.9290    1.6620    1.9300 C.ar   69  C69         0.0850
   1531  OP1       18.6590    3.1450   -0.8540 O.3    69  C69        -0.4373
   1532  OP2       21.2070    2.7680   -1.2930 O.co2  69  C69        -0.5172
   1533  P         20.2010    5.2970    4.5500 P.3    70  C70         0.2141
   1534  C5'       22.1580    6.2230    5.9190 C.3    70  C70         0.1812
   1535  O5'       20.9470    5.5230    5.9420 O.3    70  C70        -0.3114
   1536  C4'       22.9890    5.7960    7.0790 C.3    70  C70         0.1773
   1537  O4'       23.7270    4.6320    6.6500 O.3    70  C70        -0.3307
   1538  C3'       24.0600    6.8190    7.4380 C.3    70  C70         0.1860
   1539  O3'       23.6090    7.6740    8.4610 O.3    70  C70        -0.3112
   1540  C2'       25.2130    5.9650    7.9190 C.3    70  C70         0.2309
   1541  O2'       24.9190    5.4880    9.2080 O.3    70  C70        -0.2156
   1542  C1'       25.0970    4.7910    6.9670 C.3    70  C70         0.2420
   1543  N1        25.8530    4.9430    5.7330 N.ar   70  C70        -0.2535
   1544  C2        27.2440    4.9930    5.8370 C.ar   70  C70         0.3532
   1545  O2        27.7490    4.9970    6.9650 O.2    70  C70        -0.2443
   1546  N3        28.0010    5.0230    4.7080 N.ar   70  C70        -0.1739
   1547  C4        27.3980    5.0200    3.5100 C.ar   70  C70         0.1759
   1548  N4        28.1640    5.0480    2.4280 N.pl3  70  C70        -0.1070
   1549  C5        25.9730    4.9470    3.3770 C.ar   70  C70         0.0566
   1550  C6        25.2490    4.9020    4.5060 C.ar   70  C70         0.0850
   1551  OP1       18.9310    6.0690    4.4590 O.3    70  C70        -0.4373
   1552  OP2       21.2950    5.5040    3.5380 O.co2  70  C70        -0.5172
   1553  P         23.5730    9.2190    8.0440 P.3    71  U71         0.2141
   1554  C5'       25.7890    9.5840    9.3880 C.3    71  U71         0.1812
   1555  O5'       25.0640    9.7740    8.1670 O.3    71  U71        -0.3114
   1556  C4'       27.1910    9.2300    9.0320 C.3    71  U71         0.1773
   1557  O4'       27.2030    8.6680    7.7180 O.3    71  U71        -0.3307
   1558  C3'       28.0750   10.4260    8.7890 C.3    71  U71         0.1860
   1559  O3'       28.5090   10.9090   10.0450 O.3    71  U71        -0.3112
   1560  C2'       29.1710    9.8910    7.8480 C.3    71  U71         0.2309
   1561  O2'       30.4320    9.5870    8.4160 O.3    71  U71        -0.2156
   1562  C1'       28.5360    8.6220    7.2930 C.3    71  U71         0.2420
   1563  N1        28.5250    8.5560    5.8390 N.ar   71  U71        -0.2534
   1564  C2        29.7290    8.5660    5.1490 C.ar   71  U71         0.3546
   1565  O2        30.8260    8.6580    5.7030 O.2    71  U71        -0.2443
   1566  N3        29.6020    8.4790    3.7810 N.ar   71  U71        -0.1530
   1567  C4        28.4360    8.3690    3.0570 C.ar   71  U71         0.2846
   1568  O4        28.4880    8.3290    1.8300 O.2    71  U71        -0.2650
   1569  C5        27.2450    8.3240    3.8450 C.ar   71  U71         0.0814
   1570  C6        27.3300    8.4190    5.1780 C.ar   71  U71         0.0870
   1571  OP1       22.6270    9.4120    9.2310 O.3    71  U71        -0.4373
   1572  OP2       23.2150    9.5160    6.5990 O.co2  71  U71        -0.5172
   1573  P         28.6080   12.4740   10.0690 P.3    72  A72         0.2141
   1574  C5'       30.7880   12.2860   11.4980 C.3    72  A72         0.1812
   1575  O5'       30.1730   12.6230   10.2600 O.3    72  A72        -0.3114
   1576  C4'       32.2710   12.2920   11.2620 C.3    72  A72         0.1773
   1577  O4'       32.5120   11.6770    9.9820 O.3    72  A72        -0.3307
   1578  C3'       32.8530   13.6680   10.9980 C.3    72  A72         0.1860
   1579  O3'       32.8670   14.3990   12.2060 O.3    72  A72        -0.3112
   1580  C2'       34.1690   13.3410   10.2970 C.3    72  A72         0.2309
   1581  O2'       35.1780   12.9000   11.1750 O.3    72  A72        -0.2156
   1582  C1'       33.7710   12.1080    9.4970 C.3    72  A72         0.2408
   1583  N1        36.2830   13.2910    5.2040 N.ar   72  A72        -0.2040
   1584  C2        36.6730   13.1880    6.4870 C.ar   72  A72         0.2016
   1585  N3        35.9490   12.8990    7.5690 N.ar   72  A72        -0.2048
   1586  C4        34.6780   12.6470    7.2260 C.ar   72  A72         0.1692
   1587  C5        34.1310   12.6930    5.9530 C.ar   72  A72         0.1518
   1588  C6        34.9910   13.0350    4.9010 C.ar   72  A72         0.1919
   1589  N6        34.6100   13.0680    3.6190 N.pl3  72  A72        -0.1054
   1590  N7        32.7840   12.3580    5.9810 N.ar   72  A72        -0.2193
   1591  C8        32.5420   12.1530    7.2570 C.ar   72  A72         0.1816
   1592  N9        33.6470   12.3200    8.0650 N.ar   72  A72        -0.2693
   1593  OP1       27.8550   12.8110   11.3130 O.3    72  A72        -0.4373
   1594  OP2       28.2640   13.0400    8.6980 O.co2  72  A72        -0.5172
   1595  P         32.5950   15.9380   11.9150 P.3    73  A73         0.2141
   1596  C5'       35.0710   16.7650   11.6580 C.3    73  A73         0.1812
   1597  O5'       33.8180   16.4240   11.0090 O.3    73  A73        -0.3114
   1598  C4'       36.1280   16.9160   10.6160 C.3    73  A73         0.1773
   1599  O4'       35.9060   15.8930    9.6240 O.3    73  A73        -0.3307
   1600  C3'       36.0310   18.1910    9.7860 C.3    73  A73         0.1860
   1601  O3'       36.5740   19.3180   10.4570 O.3    73  A73        -0.3112
   1602  C2'       36.7740   17.7980    8.5180 C.3    73  A73         0.2309
   1603  O2'       38.1600   17.6270    8.6940 O.3    73  A73        -0.2156
   1604  C1'       36.2860   16.3740    8.3400 C.3    73  A73         0.2408
   1605  N1        34.4140   16.5230    3.5360 N.ar   73  A73        -0.2040
   1606  C2        35.6260   16.8070    4.0300 C.ar   73  A73         0.2016
   1607  N3        36.0480   16.7930    5.2990 N.ar   73  A73        -0.2048
   1608  C4        35.0660   16.3900    6.1190 C.ar   73  A73         0.1692
   1609  C5        33.7640   16.0890    5.7660 C.ar   73  A73         0.1518
   1610  C6        33.4330   16.1740    4.4040 C.ar   73  A73         0.1919
   1611  N6        32.2110   15.9030    3.9230 N.pl3  73  A73        -0.1054
   1612  N7        33.0170   15.7550    6.8840 N.ar   73  A73        -0.2193
   1613  C8        33.8720   15.8550    7.8740 C.ar   73  A73         0.1816
   1614  N9        35.1270   16.2480    7.4810 N.ar   73  A73        -0.2693
   1615  OP1       32.6820   16.5190   13.3050 O.3    73  A73        -0.4373
   1616  OP2       31.3690   16.0660   11.0780 O.co2  73  A73        -0.5172
   1617  P         35.5330   20.4600   10.8910 P.3    74  C74         0.2141
   1618  C5'       36.2360   21.6010    8.6320 C.3    74  C74         0.1812
   1619  O5'       35.2680   20.8320    9.3620 O.3    74  C74        -0.3114
   1620  C4'       35.9220   21.5040    7.1640 C.3    74  C74         0.1773
   1621  O4'       35.6440   20.1220    6.8260 O.3    74  C74        -0.3307
   1622  C3'       34.6680   22.2440    6.7280 C.3    74  C74         0.1860
   1623  O3'       34.9840   23.6020    6.4820 O.3    74  C74        -0.3112
   1624  C2'       34.2860   21.4960    5.4600 C.3    74  C74         0.2309
   1625  O2'       34.9700   21.7570    4.2630 O.3    74  C74        -0.2156
   1626  C1'       34.6020   20.0630    5.8660 C.3    74  C74         0.2420
   1627  N1        33.4060   19.5000    6.4920 N.ar   74  C74        -0.2535
   1628  C2        32.3270   19.1740    5.6520 C.ar   74  C74         0.3532
   1629  O2        32.4710   19.3010    4.4250 O.2    74  C74        -0.2443
   1630  N3        31.1670   18.7330    6.1980 N.ar   74  C74        -0.1739
   1631  C4        31.0790   18.5830    7.5260 C.ar   74  C74         0.1759
   1632  N4        29.9410   18.1140    8.0260 N.pl3  74  C74        -0.1070
   1633  C5        32.1610   18.9270    8.4060 C.ar   74  C74         0.0566
   1634  C6        33.2770   19.4180    7.8520 C.ar   74  C74         0.0850
   1635  OP1       36.3260   21.4930   11.6070 O.3    74  C74        -0.4373
   1636  OP2       34.3020   19.9460   11.5640 O.co2  74  C74        -0.5172
   1637  P         34.0150   24.8210    6.8480 P.3    75  G75         0.2141
   1638  C5'       33.5090   25.0180    4.2840 C.3    75  G75         0.1812
   1639  O5'       32.9990   24.7710    5.6180 O.3    75  G75        -0.3114
   1640  C4'       32.3810   24.9110    3.2980 C.3    75  G75         0.1773
   1641  O4'       31.9820   23.5150    3.2110 O.3    75  G75        -0.3307
   1642  C3'       31.0860   25.6080    3.7030 C.3    75  G75         0.1860
   1643  O3'       31.0270   27.0080    3.4270 O.3    75  G75        -0.3112
   1644  C2'       30.0710   24.8580    2.8550 C.3    75  G75         0.2309
   1645  O2'       30.1000   25.3040    1.5190 O.3    75  G75        -0.2156
   1646  C1'       30.5720   23.4230    3.0120 C.3    75  G75         0.2408
   1647  N1        26.3080   21.4320    4.8780 N.ar   75  G75        -0.1709
   1648  C2        26.5710   21.9250    3.6270 C.ar   75  G75         0.2606
   1649  N2        25.5550   21.8960    2.7610 N.pl3  75  G75        -0.0859
   1650  N3        27.7510   22.3880    3.2460 N.ar   75  G75        -0.1918
   1651  C4        28.6480   22.3690    4.2540 C.ar   75  G75         0.1723
   1652  C5        28.4750   21.9340    5.5520 C.ar   75  G75         0.1748
   1653  C6        27.2070   21.4170    5.9360 C.ar   75  G75         0.3023
   1654  O6        26.8610   20.9520    7.0260 O.2    75  G75        -0.2633
   1655  N7        29.6500   22.0770    6.2800 N.ar   75  G75        -0.2173
   1656  C8        30.4930   22.6080    5.4330 C.ar   75  G75         0.1817
   1657  N9        29.9530   22.7980    4.1820 N.ar   75  G75        -0.2693
   1658  OP1       35.0080   25.8910    6.5610 O.2    75  G75        -0.5172
   1659  OP2       33.3930   24.7250    8.2040 O.co2  75  G75        -0.4373
   1660  P         30.1750   28.0190    4.3450 P.3    76  C76         0.2141
   1661  C5'       28.2840   27.7430    2.5420 C.3    76  C76         0.1812
   1662  O5'       28.7190   27.5680    3.8910 O.3    76  C76        -0.3114
   1663  C4'       26.9100   27.1520    2.3800 C.3    76  C76         0.1773
   1664  O4'       26.9250   25.7520    2.7800 O.3    76  C76        -0.3307
   1665  C3'       25.8360   27.7310    3.2720 C.3    76  C76         0.1860
   1666  O3'       25.3460   28.9370    2.7350 O.3    76  C76        -0.3112
   1667  C2'       24.7860   26.6460    3.1630 C.3    76  C76         0.2309
   1668  O2'       24.1470   26.7380    1.9110 O.3    76  C76        -0.2156
   1669  C1'       25.6550   25.3920    3.2900 C.3    76  C76         0.2420
   1670  N1        25.8240   24.9930    4.6920 N.ar   76  C76        -0.2535
   1671  C2        24.7720   24.3260    5.3350 C.ar   76  C76         0.3532
   1672  O2        23.7550   24.0510    4.6830 O.2    76  C76        -0.2443
   1673  N3        24.8990   23.9860    6.6420 N.ar   76  C76        -0.1739
   1674  C4        26.0230   24.2910    7.3000 C.ar   76  C76         0.1759
   1675  N4        26.1100   23.9500    8.5880 N.pl3  76  C76        -0.1070
   1676  C5        27.1040   24.9790    6.6710 C.ar   76  C76         0.0566
   1677  C6        26.9600   25.3150    5.3800 C.ar   76  C76         0.0850
   1678  OP1       30.5260   29.3460    3.7820 O.2    76  C76        -0.5172
   1679  OP2       30.2120   27.8410    5.8300 O.co2  76  C76        -0.4373
   1680  P         25.0650   30.2830    3.6010 P.3    77  A77         0.2141
   1681  C5'       22.6550   29.2950    3.7830 C.3    77  A77         0.1812
   1682  O5'       23.7770   29.9180    4.4630 O.3    77  A77        -0.3114
   1683  C4'       21.7830   28.5570    4.7570 C.3    77  A77         0.1773
   1684  O4'       22.4980   27.3630    5.1640 O.3    77  A77        -0.3307
   1685  C3'       21.4960   29.3040    6.0560 C.3    77  A77         0.1860
   1686  O3'       20.3350   30.1010    5.8970 O.3    77  A77        -0.3112
   1687  C2'       21.2580   28.1580    7.0360 C.3    77  A77         0.2309
   1688  O2'       19.8810   27.8180    7.0430 O.3    77  A77        -0.2156
   1689  C1'       22.2700   27.1040    6.5400 C.3    77  A77         0.2408
   1690  N1        24.7020   25.8700   10.8770 N.ar   77  A77        -0.2040
   1691  C2        23.4890   25.5700   10.4010 C.ar   77  A77         0.2016
   1692  N3        22.9340   25.9000    9.2360 N.ar   77  A77        -0.2048
   1693  C4        23.7770   26.6470    8.5060 C.ar   77  A77         0.1692
   1694  C5        25.0590   27.0340    8.8550 C.ar   77  A77         0.1518
   1695  C6        25.5380   26.5980   10.1040 C.ar   77  A77         0.1919
   1696  N6        26.7590   26.8740   10.5690 N.pl3  77  A77        -0.1054
   1697  N7        25.6360   27.7870    7.8440 N.ar   77  A77        -0.2193
   1698  C8        24.7050   27.8420    6.9210 C.ar   77  A77         0.1816
   1699  N9        23.5520   27.1720    7.2560 N.ar   77  A77        -0.2693
   1700  OP1       24.6510   31.0920    2.4280 O.2    77  A77        -0.5172
   1701  OP2       26.1650   30.7800    4.4700 O.co2  77  A77        -0.4373
   1702  P         19.9760   31.3180    6.9160 P.3    78  A78         0.2141
   1703  C5'       17.5840   30.3070    6.5170 C.3    78  A78         0.1812
   1704  O5'       18.4590   31.0500    7.3870 O.3    78  A78        -0.3114
   1705  C4'       16.2860   29.9270    7.1660 C.3    78  A78         0.1773
   1706  O4'       16.2840   28.4770    7.3360 O.3    78  A78        -0.3307
   1707  C3'       15.9590   30.5100    8.5430 C.3    78  A78         0.1860
   1708  O3'       15.1350   31.6620    8.5010 O.3    78  A78        -0.3112
   1709  C2'       15.1530   29.3830    9.1910 C.3    78  A78         0.2309
   1710  O2'       13.7620   29.3450    8.9310 O.3    78  A78        -0.2156
   1711  C1'       15.8910   28.1470    8.6650 C.3    78  A78         0.2408
   1712  N1        17.7580   26.1280   13.0000 N.ar   78  A78        -0.2040
   1713  C2        16.5480   26.0670   12.4260 C.ar   78  A78         0.2016
   1714  N3        16.1320   26.6040   11.2780 N.ar   78  A78        -0.2048
   1715  C4        17.1280   27.2910   10.6900 C.ar   78  A78         0.1692
   1716  C5        18.4120   27.4690   11.1720 C.ar   78  A78         0.1518
   1717  C6        18.7360   26.8290   12.3770 C.ar   78  A78         0.1919
   1718  N6        19.9460   26.8960   12.9460 N.pl3  78  A78        -0.1054
   1719  N7        19.1640   28.2380   10.2980 N.ar   78  A78        -0.2193
   1720  C8        18.3330   28.5010    9.3210 C.ar   78  A78         0.1816
   1721  N9        17.0900   27.9400    9.4820 N.ar   78  A78        -0.2693
   1722  OP1       20.0730   32.4850    5.9810 O.2    78  A78        -0.5172
   1723  OP2       20.8080   31.3650    8.1480 O.co2  78  A78        -0.4373
   1724  P         15.5640   32.9980    9.2630 P.3    79  G79         0.2141
   1725  C5'       14.4150   32.2930   11.5210 C.3    79  G79         0.1812
   1726  O5'       15.5990   32.6800   10.8240 O.3    79  G79        -0.3114
   1727  C4'       14.7500   31.2990   12.6040 C.3    79  G79         0.1773
   1728  O4'       15.6890   30.2840   12.1120 O.3    79  G79        -0.3307
   1729  C3'       15.4690   31.8640   13.8060 C.3    79  G79         0.1860
   1730  O3'       14.6080   32.2910   14.8180 O.3    79  G79        -0.3112
   1731  C2'       16.0540   30.6040   14.4200 C.3    79  G79         0.2309
   1732  O2'       15.0930   29.9680   15.2330 O.3    79  G79        -0.2156
   1733  C1'       16.5420   29.8610   13.1740 C.3    79  G79         0.2408
   1734  N1        21.2730   30.1760   14.9490 N.ar   79  G79        -0.1709
   1735  C2        20.1510   29.6470   15.5360 C.ar   79  G79         0.2606
   1736  N2        20.3030   29.1500   16.7770 N.pl3  79  G79        -0.0859
   1737  N3        18.9580   29.6370   14.9690 N.ar   79  G79        -0.1918
   1738  C4        18.9770   30.1880   13.7410 C.ar   79  G79         0.1723
   1739  C5        20.0400   30.7430   13.0650 C.ar   79  G79         0.1748
   1740  C6        21.3130   30.7690   13.6950 C.ar   79  G79         0.3023
   1741  O6        22.3770   31.2270   13.2670 O.2    79  G79        -0.2633
   1742  N7        19.6430   31.2050   11.8190 N.ar   79  G79        -0.2173
   1743  C8        18.3710   30.9150   11.7590 C.ar   79  G79         0.1817
   1744  N9        17.9130   30.2670   12.8780 N.ar   79  G79        -0.2693
   1745  OP1       14.4610   34.0100    9.2760 O.3    79  G79        -0.4373
   1746  OP2       16.9000   33.3180    8.6290 O.co2  79  G79        -0.5172
   1747  P         14.8570   33.7830   15.2740 P.3    80  G80         0.2141
   1748  C5'       15.2390   32.6550   17.5710 C.3    80  G80         0.1812
   1749  O5'       15.6620   33.6530   16.6440 O.3    80  G80        -0.3114
   1750  C4'       16.4120   32.1670   18.3900 C.3    80  G80         0.1773
   1751  O4'       17.4250   31.5560   17.5430 O.3    80  G80        -0.3307
   1752  C3'       17.1910   33.2430   19.1160 C.3    80  G80         0.1860
   1753  O3'       16.5970   33.7070   20.3170 O.3    80  G80        -0.3112
   1754  C2'       18.4950   32.5200   19.4200 C.3    80  G80         0.2309
   1755  O2'       18.4200   31.6670   20.5400 O.3    80  G80        -0.2156
   1756  C1'       18.6980   31.7240   18.1380 C.3    80  G80         0.2408
   1757  N1        23.2690   33.7400   17.1740 N.ar   80  G80        -0.1709
   1758  C2        22.7990   33.1800   18.3310 C.ar   80  G80         0.2606
   1759  N2        23.6470   33.1630   19.3590 N.pl3  80  G80        -0.0859
   1760  N3        21.5690   32.7220   18.4850 N.ar   80  G80        -0.1918
   1761  C4        20.8470   32.8230   17.3520 C.ar   80  G80         0.1723
   1762  C5        21.2290   33.3450   16.1380 C.ar   80  G80         0.1748
   1763  C6        22.5370   33.8780   16.0020 C.ar   80  G80         0.3023
   1764  O6        23.0610   34.3840   15.0050 O.2    80  G80        -0.2633
   1765  N7        20.1990   33.2430   15.2120 N.ar   80  G80        -0.2173
   1766  C8        19.2200   32.6920   15.8770 C.ar   80  G80         0.1817
   1767  N9        19.5460   32.4080   17.1780 N.ar   80  G80        -0.2693
   1768  OP1       13.5050   34.1830   15.7540 O.3    80  G80        -0.4373
   1769  OP2       15.4980   34.5150   14.1020 O.co2  80  G80        -0.5172
   1770  P         16.7750   35.2820   20.5460 P.3    81  G81         0.2141
   1771  C5'       18.7190   34.7290   22.2650 C.3    81  G81         0.1812
   1772  O5'       18.1420   35.6280   21.2930 O.3    81  G81        -0.3114
   1773  C4'       20.1760   35.0630   22.5090 C.3    81  G81         0.1773
   1774  O4'       21.0060   34.7530   21.3520 O.3    81  G81        -0.3307
   1775  C3'       20.5030   36.5220   22.7240 C.3    81  G81         0.1860
   1776  O3'       20.1400   36.9020   24.0410 O.3    81  G81        -0.3112
   1777  C2'       22.0160   36.4950   22.5870 C.3    81  G81         0.2309
   1778  O2'       22.4640   35.7270   23.6850 O.3    81  G81        -0.2156
   1779  C1'       22.1990   35.5090   21.4430 C.3    81  G81         0.2408
   1780  N1        25.7710   37.4220   18.3640 N.ar   81  G81        -0.1709
   1781  C2        25.8570   37.1110   19.6920 C.ar   81  G81         0.2606
   1782  N2        27.0520   37.3230   20.2520 N.pl3  81  G81        -0.0859
   1783  N3        24.8470   36.6380   20.4170 N.ar   81  G81        -0.1918
   1784  C4        23.7260   36.4910   19.6770 C.ar   81  G81         0.1723
   1785  C5        23.5410   36.7650   18.3380 C.ar   81  G81         0.1748
   1786  C6        24.6350   37.2780   17.5820 C.ar   81  G81         0.3023
   1787  O6        24.6750   37.5800   16.3780 O.2    81  G81        -0.2633
   1788  N7        22.2390   36.4750   17.9520 N.ar   81  G81        -0.2173
   1789  C8        21.6700   36.0330   19.0420 C.ar   81  G81         0.1817
   1790  N9        22.5020   36.0530   20.1320 N.ar   81  G81        -0.2693
   1791  OP1       15.7010   35.5080   21.5550 O.3    81  G81        -0.4373
   1792  OP2       16.7970   36.0140   19.2230 O.co2  81  G81        -0.5172
   1793  P         20.4480   38.4140   24.5120 P.3    82  U82         0.2141
   1794  C5'       22.9480   38.8300   25.2550 C.3    82  U82         0.1812
   1795  O5'       21.9780   38.7580   24.2030 O.3    82  U82        -0.3114
   1796  C4'       24.1450   39.5710   24.7420 C.3    82  U82         0.1773
   1797  O4'       24.3420   39.1120   23.4020 O.3    82  U82        -0.3307
   1798  C3'       23.9380   41.0740   24.6220 C.3    82  U82         0.1860
   1799  O3'       24.4300   41.8360   25.7280 O.3    82  U82        -0.3112
   1800  C2'       24.6790   41.4680   23.3410 C.3    82  U82         0.2309
   1801  O2'       25.8620   42.2020   23.5860 O.3    82  U82        -0.2156
   1802  C1'       24.9240   40.1280   22.6420 C.3    82  U82         0.2420
   1803  N1        24.3130   40.0660   21.3140 N.ar   82  U82        -0.2534
   1804  C2        25.0870   40.4220   20.2250 C.ar   82  U82         0.3546
   1805  O2        26.2360   40.8120   20.3280 O.2    82  U82        -0.2443
   1806  N3        24.4540   40.3210   19.0110 N.ar   82  U82        -0.1530
   1807  C4        23.1550   39.9300   18.7800 C.ar   82  U82         0.2846
   1808  O4        22.7310   39.9090   17.6340 O.2    82  U82        -0.2650
   1809  C5        22.4170   39.5800   19.9550 C.ar   82  U82         0.0814
   1810  C6        23.0120   39.6450   21.1540 C.ar   82  U82         0.0870
   1811  OP1       20.2130   38.3330   25.9650 O.3    82  U82        -0.4373
   1812  OP2       19.6230   39.3270   23.6730 O.co2  82  U82        -0.5172
   1813  P         25.3780   41.3540   26.9500 P.3    83  G83         0.2141
   1814  C5'       24.3130   43.5690   27.9320 C.3    83  G83         0.1812
   1815  O5'       25.4630   42.7050   27.7900 O.3    83  G83        -0.3114
   1816  C4'       24.6130   44.9740   27.4380 C.3    83  G83         0.1773
   1817  O4'       24.4420   45.9070   28.5280 O.3    83  G83        -0.3307
   1818  C3'       26.0300   45.2450   26.9470 C.3    83  G83         0.1860
   1819  O3'       26.1820   46.2840   25.9740 O.3    83  G83        -0.3112
   1820  C2'       26.7890   45.5780   28.2340 C.3    83  G83         0.2309
   1821  O2'       27.8430   46.5040   28.0710 O.3    83  G83        -0.2156
   1822  C1'       25.6900   46.1350   29.1500 C.3    83  G83         0.2408
   1823  N1        28.1630   43.1460   32.4310 N.ar   83  G83        -0.1709
   1824  C2        28.5420   43.5660   31.1790 C.ar   83  G83         0.2606
   1825  N2        29.7350   43.1320   30.7430 N.pl3  83  G83        -0.0859
   1826  N3        27.8060   44.3530   30.4100 N.ar   83  G83        -0.1918
   1827  C4        26.6390   44.6930   31.0030 C.ar   83  G83         0.1723
   1828  C5        26.1680   44.3280   32.2470 C.ar   83  G83         0.1748
   1829  C6        26.9690   43.4820   33.0620 C.ar   83  G83         0.3023
   1830  O6        26.7280   43.0500   34.1960 O.2    83  G83        -0.2633
   1831  N7        24.9210   44.8910   32.4860 N.ar   83  G83        -0.2173
   1832  C8        24.6620   45.5750   31.4040 C.ar   83  G83         0.1817
   1833  N9        25.6630   45.4990   30.4650 N.ar   83  G83        -0.2693
   1834  OP1       26.7570   41.0590   26.4600 O.2    83  G83        -0.5172
   1835  OP2       24.6550   40.3630   27.8020 O.co2  83  G83        -0.4373
   1836  P         25.1670   47.4500   25.5070 P.3    84  U84         0.2141
   1837  C5'       27.5850   48.4020   25.1560 C.3    84  U84         0.1812
   1838  O5'       26.1670   48.6170   25.0870 O.3    84  U84        -0.3114
   1839  C4'       28.1810   48.2910   23.7780 C.3    84  U84         0.1773
   1840  O4'       28.1240   46.9300   23.2860 O.3    84  U84        -0.3307
   1841  C3'       27.4540   49.0180   22.6670 C.3    84  U84         0.1860
   1842  O3'       27.5560   50.4270   22.7530 O.3    84  U84        -0.3112
   1843  C2'       28.1090   48.4130   21.4330 C.3    84  U84         0.2309
   1844  O2'       29.3540   48.9830   21.1370 O.3    84  U84        -0.2156
   1845  C1'       28.3090   46.9600   21.8750 C.3    84  U84         0.2420
   1846  N1        27.3300   46.0700   21.2360 N.ar   84  U84        -0.2534
   1847  C2        27.4630   45.8610   19.8670 C.ar   84  U84         0.3546
   1848  O2        28.3590   46.3620   19.2020 O.2    84  U84        -0.2443
   1849  N3        26.5030   45.0490   19.3110 N.ar   84  U84        -0.1530
   1850  C4        25.4400   44.4480   19.9580 C.ar   84  U84         0.2846
   1851  O4        24.6580   43.7520   19.3130 O.2    84  U84        -0.2650
   1852  C5        25.3600   44.7250   21.3670 C.ar   84  U84         0.0814
   1853  C6        26.2790   45.5160   21.9400 C.ar   84  U84         0.0870
   1854  OP1       24.2490   47.8710   26.6120 O.3    84  U84        -0.4373
   1855  OP2       24.6140   46.9820   24.2080 O.co2  84  U84        -0.5172
   1856  P         26.1800   51.2460   22.6660 P.3    85  C85         0.2141
   1857  C5'       27.3530   52.1960   20.5560 C.3    85  C85         0.1812
   1858  O5'       26.2320   51.5210   21.0960 O.3    85  C85        -0.3114
   1859  C4'       27.3800   52.0260   19.0670 C.3    85  C85         0.1773
   1860  O4'       27.4970   50.6300   18.7220 O.3    85  C85        -0.3307
   1861  C3'       26.1560   52.4390   18.2840 C.3    85  C85         0.1860
   1862  O3'       26.2290   53.7950   17.9490 O.3    85  C85        -0.3112
   1863  C2'       26.4290   51.7520   16.9590 C.3    85  C85         0.2309
   1864  O2'       27.5730   52.2060   16.2920 O.3    85  C85        -0.2156
   1865  C1'       26.9140   50.4000   17.4420 C.3    85  C85         0.2420
   1866  N1        25.8290   49.4230   17.6120 N.ar   85  C85        -0.2535
   1867  C2        25.3480   48.7240   16.4960 C.ar   85  C85         0.3532
   1868  O2        25.7690   49.0270   15.3740 O.2    85  C85        -0.2443
   1869  N3        24.3800   47.7980   16.6650 N.ar   85  C85        -0.1739
   1870  C4        23.8900   47.5620   17.8860 C.ar   85  C85         0.1759
   1871  N4        22.9160   46.6570   18.0110 N.pl3  85  C85        -0.1070
   1872  C5        24.3460   48.2780   19.0360 C.ar   85  C85         0.0566
   1873  C6        25.3040   49.1920   18.8530 C.ar   85  C85         0.0850
   1874  OP1       26.2990   52.5020   23.4760 O.3    85  C85        -0.4373
   1875  OP2       25.0980   50.2740   22.9830 O.co2  85  C85        -0.5172
   1876  P         24.9540   54.7160   17.9930 P.3    86  C86         0.2141
   1877  C5'       24.5610   55.2010   15.4890 C.3    86  C86         0.1812
   1878  O5'       24.5170   54.2200   16.5290 O.3    86  C86        -0.3114
   1879  C4'       24.3230   54.6250   14.1270 C.3    86  C86         0.1773
   1880  O4'       24.5440   53.2030   14.2010 O.3    86  C86        -0.3307
   1881  C3'       22.9030   54.7320   13.6090 C.3    86  C86         0.1860
   1882  O3'       22.5180   56.0150   13.1440 O.3    86  C86        -0.3112
   1883  C2'       22.8600   53.6010   12.5840 C.3    86  C86         0.2309
   1884  O2'       23.3930   53.8310   11.2960 O.3    86  C86        -0.2156
   1885  C1'       23.6540   52.5220   13.3190 C.3    86  C86         0.2420
   1886  N1        22.8400   51.5930   14.1290 N.ar   86  C86        -0.2535
   1887  C2        21.9610   50.7280   13.4800 C.ar   86  C86         0.3532
   1888  O2        21.8480   50.8180   12.2470 O.2    86  C86        -0.2443
   1889  N3        21.2500   49.8290   14.2100 N.ar   86  C86        -0.1739
   1890  C4        21.3670   49.8190   15.5420 C.ar   86  C86         0.1759
   1891  N4        20.6050   48.9780   16.2400 N.pl3  86  C86        -0.1070
   1892  C5        22.2330   50.7180   16.2300 C.ar   86  C86         0.0566
   1893  C6        22.9450   51.5770   15.4910 C.ar   86  C86         0.0850
   1894  OP1       25.4370   56.1510   17.8280 O.2    86  C86        -0.5172
   1895  OP2       24.1830   54.3560   19.2340 O.co2  86  C86        -0.4373
   1896  P         21.3040   56.6960   14.0120 P.3    87  G87         0.2141
   1897  C5'       20.4340   56.4300   11.5210 C.3    87  G87         0.1812
   1898  O5'       20.3150   56.0680   12.9230 O.3    87  G87        -0.3114
   1899  C4'       19.5530   55.5400   10.6690 C.3    87  G87         0.1773
   1900  O4'       19.7750   54.1470   11.0370 O.3    87  G87        -0.3307
   1901  C3'       18.0440   55.6470   10.8420 C.3    87  G87         0.1860
   1902  O3'       17.4060   56.8030   10.3120 O.3    87  G87        -0.3112
   1903  C2'       17.6000   54.3590   10.1670 C.3    87  G87         0.2309
   1904  O2'       17.8820   54.3000    8.7800 O.3    87  G87        -0.2156
   1905  C1'       18.6160   53.3760   10.7420 C.3    87  G87         0.2408
   1906  N1        15.4770   49.9600   12.7890 N.ar   87  G87        -0.1709
   1907  C2        15.5740   50.3750   11.4930 C.ar   87  G87         0.2606
   1908  N2        14.7720   49.7470   10.6200 N.pl3  87  G87        -0.0859
   1909  N3        16.4720   51.2430   11.0600 N.ar   87  G87        -0.1918
   1910  C4        17.2160   51.7340   12.0710 C.ar   87  G87         0.1723
   1911  C5        17.1330   51.4450   13.4180 C.ar   87  G87         0.1748
   1912  C6        16.2030   50.4760   13.8500 C.ar   87  G87         0.3023
   1913  O6        15.9730   50.0820   15.0050 O.2    87  G87        -0.2633
   1914  N7        18.0110   52.2370   14.1480 N.ar   87  G87        -0.2173
   1915  C8        18.6070   52.9770   13.2470 C.ar   87  G87         0.1817
   1916  N9        18.1700   52.7250   11.9670 N.ar   87  G87        -0.2693
   1917  OP1       21.4160   58.1690   13.8800 O.2    87  G87        -0.5172
   1918  OP2       21.0650   56.1860   15.3830 O.co2  87  G87        -0.4373
   1919  P         16.4740   57.6520   11.3470 P.3    88  U88         0.2141
   1920  C5'       14.7870   56.1620    9.9140 C.3    88  U88         0.1812
   1921  O5'       15.2610   56.6390   11.1820 O.3    88  U88        -0.3114
   1922  C4'       13.5900   55.2920   10.1880 C.3    88  U88         0.1773
   1923  O4'       14.1050   54.0440   10.7000 O.3    88  U88        -0.3307
   1924  C3'       12.6390   55.7350   11.2990 C.3    88  U88         0.1860
   1925  O3'       11.6270   56.6440   10.9230 O.3    88  U88        -0.3112
   1926  C2'       11.9880   54.4130   11.6890 C.3    88  U88         0.2309
   1927  O2'       10.9830   53.9320   10.8180 O.3    88  U88        -0.2156
   1928  C1'       13.1580   53.4360   11.5450 C.3    88  U88         0.2420
   1929  N1        13.7780   53.2370   12.8510 N.ar   88  U88        -0.2534
   1930  C2        13.2560   52.2520   13.6670 C.ar   88  U88         0.3546
   1931  O2        12.3930   51.4760   13.2930 O.2    88  U88        -0.2443
   1932  N3        13.8110   52.1840   14.9200 N.ar   88  U88        -0.1530
   1933  C4        14.8190   52.9690   15.4240 C.ar   88  U88         0.2846
   1934  O4        15.2100   52.7860   16.5690 O.2    88  U88        -0.2650
   1935  C5        15.2780   53.9890   14.5350 C.ar   88  U88         0.0814
   1936  C6        14.7490   54.0910   13.3100 C.ar   88  U88         0.0870
   1937  OP1       16.3450   58.9580   10.6420 O.2    88  U88        -0.5172
   1938  OP2       16.6350   57.6600   12.8200 O.co2  88  U88        -0.4373
   1939  P         11.0820   57.6970   11.9950 P.3    89  G89         0.2141
   1940  C5'        9.3250   55.8550   12.3860 C.3    89  G89         0.1812
   1941  O5'        9.9840   56.9970   12.9060 O.3    89  G89        -0.3114
   1942  C4'        8.3830   55.2800   13.3920 C.3    89  G89         0.1773
   1943  O4'        8.9390   54.0090   13.7990 O.3    89  G89        -0.3307
   1944  C3'        8.1990   56.0330   14.6870 C.3    89  G89         0.1860
   1945  O3'        7.2860   57.0980   14.5630 O.3    89  G89        -0.3112
   1946  C2'        7.7140   54.9220   15.6080 C.3    89  G89         0.2309
   1947  O2'        6.3420   54.7000   15.4210 O.3    89  G89        -0.2156
   1948  C1'        8.5800   53.7430   15.1380 C.3    89  G89         0.2408
   1949  N1        11.0070   51.7920   19.1450 N.ar   89  G89        -0.1709
   1950  C2         9.7370   51.5430   18.7010 C.ar   89  G89         0.2606
   1951  N2         9.0220   50.6730   19.4240 N.pl3  89  G89        -0.0859
   1952  N3         9.2100   52.0970   17.6240 N.ar   89  G89        -0.1918
   1953  C4        10.0650   52.9440   17.0300 C.ar   89  G89         0.1723
   1954  C5        11.3470   53.2720   17.4020 C.ar   89  G89         0.1748
   1955  C6        11.9020   52.6680   18.5460 C.ar   89  G89         0.3023
   1956  O6        13.0330   52.8140   19.0200 O.2    89  G89        -0.2633
   1957  N7        11.9040   54.1730   16.5090 N.ar   89  G89        -0.2173
   1958  C8        10.9660   54.3730   15.6270 C.ar   89  G89         0.1817
   1959  N9         9.8220   53.6620   15.8890 N.ar   89  G89        -0.2693
   1960  OP1       10.4630   58.8190   11.2260 O.2    89  G89        -0.5172
   1961  OP2       12.0200   58.0260   13.0690 O.co2  89  G89        -0.4373
   1962  P          6.9760   58.0280   15.8840 P.3    90  G90         0.2141
   1963  C5'        5.6160   57.6000   18.0640 C.3    90  G90         0.1812
   1964  O5'        6.4140   57.0680   17.0170 O.3    90  G90        -0.3114
   1965  C4'        5.5980   56.6470   19.2210 C.3    90  G90         0.1773
   1966  O4'        6.5070   55.5620   18.9500 O.3    90  G90        -0.3307
   1967  C3'        6.1860   57.1930   20.4810 C.3    90  G90         0.1860
   1968  O3'        5.2310   58.0460   21.0330 O.3    90  G90        -0.3112
   1969  C2'        6.4510   55.9230   21.2620 C.3    90  G90         0.2309
   1970  O2'        5.3280   55.2750   21.8050 O.3    90  G90        -0.2156
   1971  C1'        7.0260   55.0480   20.1650 C.3    90  G90         0.2408
   1972  N1        11.4200   53.8390   22.3800 N.ar   90  G90        -0.1709
   1973  C2        10.1590   53.4050   22.6770 C.ar   90  G90         0.2606
   1974  N2        10.0560   52.5450   23.7130 N.pl3  90  G90        -0.0859
   1975  N3         9.0770   53.7900   22.0210 N.ar   90  G90        -0.1918
   1976  C4         9.3720   54.6340   21.0130 C.ar   90  G90         0.1723
   1977  C5        10.6050   55.0790   20.6020 C.ar   90  G90         0.1748
   1978  C6        11.7490   54.6840   21.3350 C.ar   90  G90         0.3023
   1979  O6        12.9300   54.9650   21.1290 O.2    90  G90        -0.2633
   1980  N7        10.4880   55.8920   19.4810 N.ar   90  G90        -0.2173
   1981  C8         9.2070   55.9320   19.2440 C.ar   90  G90         0.1817
   1982  N9         8.4730   55.1840   20.1300 N.ar   90  G90        -0.2693
   1983  OP1        5.9380   59.0490   15.5890 O.2    90  G90        -0.5172
   1984  OP2        8.2710   58.5070   16.3500 O.co2  90  G90        -0.4373
   1985  P          5.6090   59.6150   20.9570 P.3    91  C91         0.2141
   1986  C5'        7.5080   60.3420   22.6390 C.3    91  C91         0.1812
   1987  O5'        6.2850   59.6530   22.4060 O.3    91  C91        -0.3114
   1988  C4'        7.7590   60.3510   24.1010 C.3    91  C91         0.1773
   1989  O4'        6.4760   60.4990   24.7240 O.3    91  C91        -0.3307
   1990  C3'        8.2760   59.0600   24.6700 C.3    91  C91         0.1860
   1991  O3'        9.6750   59.1570   24.5480 O.3    91  C91        -0.3112
   1992  C2'        7.8080   59.1550   26.1180 C.3    91  C91         0.2309
   1993  O2'        8.3750   60.2210   26.8130 O.3    91  C91        -0.2156
   1994  C1'        6.4750   59.8780   25.9890 C.3    91  C91         0.2420
   1995  N1         5.3440   58.9710   26.0320 N.ar   91  C91        -0.2535
   1996  C2         4.7710   58.6670   27.2520 C.ar   91  C91         0.3532
   1997  O2         5.2350   59.1900   28.2740 O.2    91  C91        -0.2443
   1998  N3         3.7490   57.7790   27.3000 N.ar   91  C91        -0.1739
   1999  C4         3.3030   57.2170   26.1750 C.ar   91  C91         0.1759
   2000  N4         2.2830   56.3710   26.2570 N.pl3  91  C91        -0.1070
   2001  C5         3.8910   57.4940   24.9160 C.ar   91  C91         0.0566
   2002  C6         4.9070   58.3590   24.8900 C.ar   91  C91         0.0850
   2003  OP1        4.3700   60.2510   21.4500 O.3    91  C91        -0.4373
   2004  OP2        6.2600   60.0660   19.6910 O.co2  91  C91        -0.5172
   2005  P         10.4800   58.0780   23.6650 P.3    92  G92         0.2141
   2006  C5'       10.9050   57.0000   26.0010 C.3    92  G92         0.1812
   2007  O5'       10.1080   57.0370   24.8260 O.3    92  G92        -0.3114
   2008  C4'       10.2570   56.2020   27.0970 C.3    92  G92         0.1773
   2009  O4'        8.8110   56.3790   27.0920 O.3    92  G92        -0.3307
   2010  C3'       10.4880   54.6940   27.0220 C.3    92  G92         0.1860
   2011  O3'       11.6170   54.2130   27.7290 O.3    92  G92        -0.3112
   2012  C2'        9.2660   54.1070   27.7210 C.3    92  G92         0.2309
   2013  O2'        9.4060   54.1610   29.1220 O.3    92  G92        -0.2156
   2014  C1'        8.1750   55.1100   27.3450 C.3    92  G92         0.2408
   2015  N1         3.5190   53.5400   26.0670 N.ar   92  G92        -0.1709
   2016  C2         4.1220   53.5610   27.2930 C.ar   92  G92         0.2606
   2017  N2         3.3670   53.1690   28.3320 N.pl3  92  G92        -0.0859
   2018  N3         5.3600   53.9660   27.5000 N.ar   92  G92        -0.1918
   2019  C4         5.9560   54.3610   26.3620 C.ar   92  G92         0.1723
   2020  C5         5.4370   54.3940   25.0900 C.ar   92  G92         0.1748
   2021  C6         4.0930   54.0020   24.8940 C.ar   92  G92         0.3023
   2022  O6         3.4490   53.9770   23.8400 O.2    92  G92        -0.2633
   2023  N7         6.3910   54.8250   24.1750 N.ar   92  G92        -0.2173
   2024  C8         7.4450   55.0730   24.9020 C.ar   92  G92         0.1817
   2025  N9         7.2530   54.8040   26.2390 N.ar   92  G92        -0.2693
   2026  OP1       11.9120   58.4210   23.6870 O.3    92  G92        -0.4373
   2027  OP2       10.0390   57.8360   22.2510 O.co2  92  G92        -0.5172
   2028  P         12.4980   53.2030   26.8430 P.3    93  A93         0.2141
   2029  C5'       11.7140   51.9700   28.9300 C.3    93  A93         0.1812
   2030  O5'       12.0200   51.8650   27.5540 O.3    93  A93        -0.3114
   2031  C4'       10.9030   50.7890   29.3480 C.3    93  A93         0.1773
   2032  O4'        9.5020   51.1420   29.2610 O.3    93  A93        -0.3307
   2033  C3'       11.0680   49.5520   28.4630 C.3    93  A93         0.1860
   2034  O3'       12.0520   48.6890   28.9910 O.3    93  A93        -0.3112
   2035  C2'        9.7320   48.8500   28.6470 C.3    93  A93         0.2309
   2036  O2'        9.5730   48.2650   29.9180 O.3    93  A93        -0.2156
   2037  C1'        8.7830   50.0490   28.6920 C.3    93  A93         0.2408
   2038  N1         4.5270   50.5180   25.8670 N.ar   93  A93        -0.2040
   2039  C2         4.7320   50.1320   27.1330 C.ar   93  A93         0.2016
   2040  N3         5.8730   50.0360   27.8050 N.ar   93  A93        -0.2048
   2041  C4         6.9140   50.3880   27.0260 C.ar   93  A93         0.1692
   2042  C5         6.8580   50.8220   25.7190 C.ar   93  A93         0.1518
   2043  C6         5.5910   50.8640   25.1150 C.ar   93  A93         0.1919
   2044  N6         5.3820   51.2310   23.8470 N.pl3  93  A93        -0.1054
   2045  N7         8.1320   51.0910   25.2390 N.ar   93  A93        -0.2193
   2046  C8         8.9140   50.8400   26.2600 C.ar   93  A93         0.1816
   2047  N9         8.2440   50.4240   27.3760 N.ar   93  A93        -0.2693
   2048  OP1       13.8280   53.3900   27.3890 O.3    93  A93        -0.4373
   2049  OP2       12.3590   53.2260   25.3550 O.co2  93  A93        -0.5172
   2050  P         13.0790   47.8290   28.1240 P.3    94  C94         0.2141
   2051  C5'       12.4440   46.5600   25.8950 C.3    94  C94         0.1812
   2052  O5'       12.3290   46.6800   27.3290 O.3    94  C94        -0.3114
   2053  C4'       11.0820   46.6430   25.2570 C.3    94  C94         0.1773
   2054  O4'       10.6220   48.0250   25.3150 O.3    94  C94        -0.3307
   2055  C3'       11.0750   46.2760   23.7940 C.3    94  C94         0.1860
   2056  O3'       10.8910   44.8830   23.7120 O.3    94  C94        -0.3112
   2057  C2'        9.9710   47.1620   23.2160 C.3    94  C94         0.2309
   2058  O2'        8.6660   46.6470   23.3410 O.3    94  C94        -0.2156
   2059  C1'       10.1130   48.4330   24.0570 C.3    94  C94         0.2420
   2060  N1        11.0550   49.3830   23.4560 N.ar   94  C94        -0.2535
   2061  C2        10.8650   49.7400   22.1250 C.ar   94  C94         0.3532
   2062  O2         9.8820   49.2910   21.5260 O.2    94  C94        -0.2443
   2063  N3        11.7610   50.5560   21.5190 N.ar   94  C94        -0.1739
   2064  C4        12.8200   50.9910   22.1960 C.ar   94  C94         0.1759
   2065  N4        13.6780   51.7770   21.5660 N.pl3  94  C94        -0.1070
   2066  C5        13.0320   50.6520   23.5610 C.ar   94  C94         0.0566
   2067  C6        12.1410   49.8410   24.1430 C.ar   94  C94         0.0850
   2068  OP1       13.7240   47.2600   29.3380 O.3    94  C94        -0.4373
   2069  OP2       13.8560   48.6390   27.1360 O.co2  94  C94        -0.5172
   2070  P         11.8380   44.1690   22.5980 P.3    95  A95         0.2141
   2071  C5'        9.7590   44.2840   21.0570 C.3    95  A95         0.1812
   2072  O5'       11.2010   44.2670   21.1400 O.3    95  A95        -0.3114
   2073  C4'        9.2880   44.9320   19.7950 C.3    95  A95         0.1773
   2074  O4'        9.5120   46.3300   19.9390 O.3    95  A95        -0.3307
   2075  C3'       10.1170   44.5740   18.5840 C.3    95  A95         0.1860
   2076  O3'        9.6220   43.4480   17.9140 O.3    95  A95        -0.3112
   2077  C2'        9.8840   45.7560   17.6710 C.3    95  A95         0.2309
   2078  O2'        8.7070   45.6090   16.9230 O.3    95  A95        -0.2156
   2079  C1'        9.7520   46.8940   18.6700 C.3    95  A95         0.2408
   2080  N1        12.8590   50.3500   16.4130 N.ar   95  A95        -0.2040
   2081  C2        11.7230   49.7750   16.0050 C.ar   95  A95         0.2016
   2082  N3        10.9500   48.8950   16.6340 N.ar   95  A95        -0.2048
   2083  C4        11.4570   48.6000   17.8390 C.ar   95  A95         0.1692
   2084  C5        12.6080   49.1150   18.3980 C.ar   95  A95         0.1518
   2085  C6        13.3280   50.0410   17.6390 C.ar   95  A95         0.1919
   2086  N6        14.4720   50.5930   18.0450 N.pl3  95  A95        -0.1054
   2087  N7        12.8650   48.5230   19.6220 N.ar   95  A95        -0.2193
   2088  C8        11.8560   47.7040   19.7950 C.ar   95  A95         0.1816
   2089  N9        10.9740   47.6900   18.7480 N.ar   95  A95        -0.2693
   2090  OP1       11.7220   42.7530   23.0260 O.3    95  A95        -0.4373
   2091  OP2       13.1430   44.8500   22.5850 O.co2  95  A95        -0.5172
   2092  P         10.7580   42.5720   17.2400 P.3    96  U96         0.2141
   2093  C5'       10.0780   43.3120   14.9320 C.3    96  U96         0.1812
   2094  O5'       11.1320   43.0710   15.7990 O.3    96  U96        -0.3114
   2095  C4'       10.5900   44.3070   13.9650 C.3    96  U96         0.1773
   2096  O4'       10.8110   45.5570   14.6590 O.3    96  U96        -0.3307
   2097  C3'       11.9760   44.0170   13.4680 C.3    96  U96         0.1860
   2098  O3'       11.7990   42.9990   12.5270 O.3    96  U96        -0.3112
   2099  C2'       12.3410   45.3660   12.8910 C.3    96  U96         0.2309
   2100  O2'       11.4050   45.6300   11.8960 O.3    96  U96        -0.2156
   2101  C1'       11.8200   46.2860   13.9800 C.3    96  U96         0.2420
   2102  N1        12.8470   46.6580   14.9570 N.ar   96  U96        -0.2534
   2103  C2        13.7790   47.6140   14.5910 C.ar   96  U96         0.3546
   2104  O2        13.8090   48.1310   13.4830 O.2    96  U96        -0.2443
   2105  N3        14.7080   47.8970   15.5530 N.ar   96  U96        -0.1530
   2106  C4        14.7970   47.3460   16.8130 C.ar   96  U96         0.2846
   2107  O4        15.6810   47.7310   17.5720 O.2    96  U96        -0.2650
   2108  C5        13.7510   46.4290   17.1440 C.ar   96  U96         0.0814
   2109  C6        12.8340   46.1250   16.2270 C.ar   96  U96         0.0870
   2110  OP1       10.2490   41.1950   17.0280 O.2    96  U96        -0.5172
   2111  OP2       11.8710   42.7730   18.1720 O.co2  96  U96        -0.4373
   2112  P         13.0720   42.1530   12.0880 P.3    97  G97         0.2141
   2113  C5'       14.1860   42.9080    9.9140 C.3    97  G97         0.1812
   2114  O5'       13.9990   43.1380   11.2620 O.3    97  G97        -0.3114
   2115  C4'       14.8950   44.1170    9.4330 C.3    97  G97         0.1773
   2116  O4'       14.7040   45.1600   10.4100 O.3    97  G97        -0.3307
   2117  C3'       16.3930   44.0710    9.4350 C.3    97  G97         0.1860
   2118  O3'       16.8700   43.2870    8.3640 O.3    97  G97        -0.3112
   2119  C2'       16.7040   45.5420    9.2920 C.3    97  G97         0.2309
   2120  O2'       16.0820   45.9410    8.1130 O.3    97  G97        -0.2156
   2121  C1'       15.7330   46.1220   10.2860 C.3    97  G97         0.2408
   2122  N1        19.1010   48.5820   13.2130 N.ar   97  G97        -0.1709
   2123  C2        18.9360   48.6430   11.8530 C.ar   97  G97         0.2606
   2124  N2        19.7560   49.4760   11.2000 N.pl3  97  G97        -0.0859
   2125  N3        18.0460   47.9250   11.1770 N.ar   97  G97        -0.1918
   2126  C4        17.2940   47.1580   11.9970 C.ar   97  G97         0.1723
   2127  C5        17.3900   47.0160   13.3620 C.ar   97  G97         0.1748
   2128  C6        18.3790   47.7540   14.0620 C.ar   97  G97         0.3023
   2129  O6        18.6420   47.7260   15.2700 O.2    97  G97        -0.2633
   2130  N7        16.4730   46.0790   13.8270 N.ar   97  G97        -0.2173
   2131  C8        15.8420   45.6860   12.7540 C.ar   97  G97         0.1817
   2132  N9        16.2970   46.2920   11.6100 N.ar   97  G97        -0.2693
   2133  OP1       12.7410   40.9660   11.2190 O.2    97  G97        -0.5172
   2134  OP2       13.5830   41.9560   13.4410 O.co2  97  G97        -0.4373
   2135  P         17.9230   42.2090    8.9430 P.3    98  G98         0.2141
   2136  C5'       19.7220   43.6660    7.6280 C.3    98  G98         0.1812
   2137  O5'       19.2140   43.1430    8.8800 O.3    98  G98        -0.3114
   2138  C4'       20.5900   44.8470    7.9910 C.3    98  G98         0.1773
   2139  O4'       20.1250   45.3730    9.2550 O.3    98  G98        -0.3307
   2140  C3'       22.0060   44.5450    8.4480 C.3    98  G98         0.1860
   2141  O3'       22.9460   44.0810    7.4740 O.3    98  G98        -0.3112
   2142  C2'       22.3950   45.8660    9.1030 C.3    98  G98         0.2309
   2143  O2'       22.6390   46.7080    8.0070 O.3    98  G98        -0.2156
   2144  C1'       21.0870   46.2670    9.7590 C.3    98  G98         0.2408
   2145  N1        23.2320   47.5610   14.1620 N.ar   98  G98        -0.1709
   2146  C2        23.5620   47.9630   12.8930 C.ar   98  G98         0.2606
   2147  N2        24.5740   48.8510   12.8000 N.pl3  98  G98        -0.0859
   2148  N3        22.9390   47.5400   11.7950 N.ar   98  G98        -0.1918
   2149  C4        21.9370   46.6880   12.0890 C.ar   98  G98         0.1723
   2150  C5        21.5480   46.2110   13.3260 C.ar   98  G98         0.1748
   2151  C6        22.2500   46.6330   14.4710 C.ar   98  G98         0.3023
   2152  O6        22.0570   46.3150   15.6390 O.2    98  G98        -0.2633
   2153  N7        20.4880   45.3230   13.2030 N.ar   98  G98        -0.2173
   2154  C8        20.2600   45.2720   11.9150 C.ar   98  G98         0.1817
   2155  N9        21.1060   46.0750   11.1850 N.ar   98  G98        -0.2693
   2156  OP1       17.7970   41.2230    7.7980 O.2    98  G98        -0.5172
   2157  OP2       17.6990   41.8730   10.3850 O.co2  98  G98        -0.4373
   2158  P         23.7920   42.8290    7.9890 P.3    99  A99         0.2141
   2159  C5'       25.7360   44.6560    8.1320 C.3    99  A99         0.1812
   2160  O5'       24.9060   43.6580    8.7680 O.3    99  A99        -0.3114
   2161  C4'       26.4590   45.4260    9.2240 C.3    99  A99         0.1773
   2162  O4'       25.5640   45.6280   10.3610 O.3    99  A99        -0.3307
   2163  C3'       27.5750   44.6650    9.9250 C.3    99  A99         0.1860
   2164  O3'       28.7460   44.3320    9.1670 O.3    99  A99        -0.3112
   2165  C2'       27.7600   45.4820   11.2040 C.3    99  A99         0.2309
   2166  O2'       28.6370   46.5710   11.0380 O.3    99  A99        -0.2156
   2167  C1'       26.3340   45.9610   11.4970 C.3    99  A99         0.2408
   2168  N1        26.1900   45.5740   16.6480 N.ar   99  A99        -0.2040
   2169  C2        26.9520   46.3150   15.8230 C.ar   99  A99         0.2016
   2170  N3        26.9670   46.3500   14.4810 N.ar   99  A99        -0.2048
   2171  C4        26.0360   45.5220   13.9800 C.ar   99  A99         0.1692
   2172  C5        25.1970   44.6840   14.6970 C.ar   99  A99         0.1518
   2173  C6        25.3000   44.7130   16.0980 C.ar   99  A99         0.1919
   2174  N6        24.5490   43.9640   16.9070 N.pl3  99  A99        -0.1054
   2175  N7        24.3670   43.9780   13.8460 N.ar   99  A99        -0.2193
   2176  C8        24.7370   44.3730   12.6460 C.ar   99  A99         0.1816
   2177  N9        25.7240   45.3240   12.6570 N.ar   99  A99        -0.2693
   2178  OP1       24.1730   42.1460    6.7200 O.2    99  A99        -0.5172
   2179  OP2       23.1100   42.0540    9.0600 O.co2  99  A99        -0.4373
   2180  P         29.2840   42.7610    9.1250 P.3   100  A100        0.2141
   2181  C5'       30.7640   43.7660   11.0180 C.3   100  A100        0.1812
   2182  O5'       29.7430   42.8160   10.6580 O.3   100  A100       -0.3114
   2183  C4'       31.1220   43.6560   12.4710 C.3   100  A100        0.1773
   2184  O4'       30.0260   44.1900   13.2630 O.3   100  A100       -0.3307
   2185  C3'       31.3570   42.2610   13.0380 C.3   100  A100        0.1860
   2186  O3'       32.6340   41.6890   12.7030 O.3   100  A100       -0.3112
   2187  C2'       31.0870   42.5100   14.5220 C.3   100  A100        0.2309
   2188  O2'       32.1150   43.2190   15.1870 O.3   100  A100       -0.2156
   2189  C1'       29.8660   43.4350   14.4550 C.3   100  A100        0.2408
   2190  N1        26.0110   41.2990   17.1330 N.ar  100  A100       -0.2040
   2191  C2        27.1150   41.9630   17.5100 C.ar  100  A100        0.2016
   2192  N3        28.0750   42.5120   16.7540 N.ar  100  A100       -0.2048
   2193  C4        27.8130   42.3310   15.4510 C.ar  100  A100        0.1692
   2194  C5        26.7400   41.6440   14.9100 C.ar  100  A100        0.1518
   2195  C6        25.7880   41.1280   15.8100 C.ar  100  A100        0.1919
   2196  N6        24.7030   40.4540   15.4290 N.pl3 100  A100       -0.1054
   2197  N7        26.8330   41.5990   13.5270 N.ar  100  A100       -0.2193
   2198  C8        27.9330   42.2650   13.2640 C.ar  100  A100        0.1816
   2199  N9        28.5810   42.7290   14.3860 N.ar  100  A100       -0.2693
   2200  OP1       30.3800   42.8030    8.1140 O.2   100  A100       -0.5172
   2201  OP2       28.3080   41.6400    9.0020 O.co2 100  A100       -0.4373
   2202  P         32.8810   40.1250   12.1820 P.3   101  U101        0.2141
   2203  C5'       33.1920   39.9860   14.7950 C.3   101  U101        0.1812
   2204  O5'       32.4870   39.5630   13.6260 O.3   101  U101       -0.3114
   2205  C4'       32.5610   39.3770   16.0190 C.3   101  U101        0.1773
   2206  O4'       31.2770   40.0180   16.2270 O.3   101  U101       -0.3307
   2207  C3'       32.2010   37.8910   15.9830 C.3   101  U101        0.1860
   2208  O3'       33.2090   36.9360   16.3180 O.3   101  U101       -0.3112
   2209  C2'       31.1740   37.8350   17.0990 C.3   101  U101        0.2309
   2210  O2'       31.8050   37.9940   18.3540 O.3   101  U101       -0.2156
   2211  C1'       30.3540   39.0880   16.7930 C.3   101  U101        0.2420
   2212  N1        29.2390   38.8420   15.8500 N.ar  101  U101       -0.2534
   2213  C2        28.0430   38.3880   16.3810 C.ar  101  U101        0.3546
   2214  O2        27.8660   38.2290   17.5810 O.2   101  U101       -0.2443
   2215  N3        27.0590   38.1400   15.4550 N.ar  101  U101       -0.1530
   2216  C4        27.1230   38.3360   14.0950 C.ar  101  U101        0.2846
   2217  O4        26.1460   38.0620   13.3940 O.2   101  U101       -0.2650
   2218  C5        28.3860   38.8130   13.6250 C.ar  101  U101        0.0814
   2219  C6        29.3810   39.0280   14.4940 C.ar  101  U101        0.0870
   2220  OP1       34.3250   40.0230   11.9030 O.3   101  U101       -0.4373
   2221  OP2       32.0210   39.5330   11.1150 O.co2 101  U101       -0.5172
   2222  P         33.1590   35.3730   15.9260 P.3   102  C102        0.2141
   2223  C5'       32.3390   34.5530   18.2420 C.3   102  C102        0.1812
   2224  O5'       32.0460   34.6810   16.8430 O.3   102  C102       -0.3114
   2225  C4'       31.1550   34.0990   19.0610 C.3   102  C102        0.1773
   2226  O4'       30.0990   35.0900   19.0100 O.3   102  C102       -0.3307
   2227  C3'       30.4370   32.8030   18.6900 C.3   102  C102        0.1860
   2228  O3'       31.0790   31.5900   19.0720 O.3   102  C102       -0.3112
   2229  C2'       29.1330   32.9760   19.4670 C.3   102  C102        0.2309
   2230  O2'       29.1870   32.7870   20.8650 O.3   102  C102       -0.2156
   2231  C1'       28.8340   34.4470   19.1840 C.3   102  C102        0.2420
   2232  N1        28.0700   34.5840   17.9330 N.ar  102  C102       -0.2535
   2233  C2        26.6810   34.4100   17.9630 C.ar  102  C102        0.3532
   2234  O2        26.1270   34.2080   19.0510 O.2   102  C102       -0.2443
   2235  N3        25.9790   34.5110   16.8120 N.ar  102  C102       -0.1739
   2236  C4        26.6130   34.7700   15.6660 C.ar  102  C102        0.1759
   2237  N4        25.8810   34.8900   14.5620 N.pl3 102  C102       -0.1070
   2238  C5        28.0260   34.9400   15.6060 C.ar  102  C102        0.0566
   2239  C6        28.7100   34.8330   16.7490 C.ar  102  C102        0.0850
   2240  OP1       34.4160   35.0240   16.6080 O.3   102  C102       -0.4373
   2241  OP2       33.0160   35.0910   14.4650 O.co2 102  C102       -0.5172
   2242  P         31.0590   30.2210   18.2380 P.3   103  U103        0.2141
   2243  C5'       28.8840   29.6170   19.5470 C.3   103  U103        0.1812
   2244  O5'       29.5810   29.6470   18.2960 O.3   103  U103       -0.3114
   2245  C4'       27.4090   29.4830   19.2770 C.3   103  U103        0.1773
   2246  O4'       26.8980   30.6850   18.6410 O.3   103  U103       -0.3307
   2247  C3'       27.0300   28.4320   18.2490 C.3   103  U103        0.1860
   2248  O3'       27.1240   27.1520   18.8380 O.3   103  U103       -0.3112
   2249  C2'       25.5920   28.8280   17.9540 C.3   103  U103        0.2309
   2250  O2'       24.7080   28.3940   18.9680 O.3   103  U103       -0.2156
   2251  C1'       25.6980   30.3620   17.9480 C.3   103  U103        0.2420
   2252  N1        25.7870   30.8940   16.5800 N.ar  103  U103       -0.2534
   2253  C2        24.6670   30.8300   15.7560 C.ar  103  U103        0.3546
   2254  O2        23.5830   30.4140   16.1280 O.2   103  U103       -0.2443
   2255  N3        24.8630   31.3040   14.4870 N.ar  103  U103       -0.1530
   2256  C4        26.0280   31.8000   13.9550 C.ar  103  U103        0.2846
   2257  O4        26.0460   32.1690   12.7880 O.2   103  U103       -0.2650
   2258  C5        27.1370   31.8170   14.8560 C.ar  103  U103        0.0814
   2259  C6        26.9810   31.3770   16.1100 C.ar  103  U103        0.0870
   2260  OP1       31.7910   29.3770   19.2030 O.3   103  U103       -0.4373
   2261  OP2       31.5450   30.3610   16.8420 O.co2 103  U103       -0.5172
   2262  P         26.9800   25.7340   18.1340 P.3   104  G104        0.2141
   2263  C5'       24.4040   25.4820   17.8650 C.3   104  G104        0.1812
   2264  O5'       25.6800   25.5530   17.2370 O.3   104  G104       -0.3114
   2265  C4'       23.3380   25.5310   16.8130 C.3   104  G104        0.1773
   2266  O4'       23.2980   26.8640   16.2650 O.3   104  G104       -0.3307
   2267  C3'       23.6110   24.6440   15.6270 C.3   104  G104        0.1860
   2268  O3'       23.0030   23.3860   15.9070 O.3   104  G104       -0.3112
   2269  C2'       22.8600   25.3420   14.5050 C.3   104  G104        0.2309
   2270  O2'       21.5350   24.9450   14.6390 O.3   104  G104       -0.2156
   2271  C1'       22.9260   26.8030   14.9160 C.3   104  G104        0.2408
   2272  N1        23.8780   29.5330   10.7740 N.ar  104  G104       -0.1709
   2273  C2        22.7140   28.9170   11.1580 C.ar  104  G104        0.2606
   2274  N2        21.6760   29.0210   10.3140 N.pl3 104  G104       -0.0859
   2275  N3        22.5860   28.2160   12.2720 N.ar  104  G104       -0.1918
   2276  C4        23.7370   28.1730   12.9720 C.ar  104  G104        0.1723
   2277  C5        24.9410   28.7740   12.6840 C.ar  104  G104        0.1748
   2278  C6        25.0620   29.5260   11.5000 C.ar  104  G104        0.3023
   2279  O6        26.0520   30.1100   11.0630 O.2   104  G104       -0.2633
   2280  N7        25.8620   28.5370   13.6920 N.ar  104  G104       -0.2173
   2281  C8        25.2060   27.8240   14.5650 C.ar  104  G104        0.1817
   2282  N9        23.9230   27.5390   14.1700 N.ar  104  G104       -0.2693
   2283  OP1       26.7910   24.9570   19.3880 O.3   104  G104       -0.4373
   2284  OP2       28.1610   25.5190   17.2570 O.co2 104  G104       -0.5172
   2285  P         23.7680   21.9890   15.5720 P.3   105  A105        0.2141
   2286  C5'       25.3360   22.1510   17.7390 C.3   105  A105        0.1812
   2287  O5'       24.2490   21.5470   17.0190 O.3   105  A105       -0.3114
   2288  C4'       25.4680   21.3660   19.0330 C.3   105  A105        0.1773
   2289  O4'       24.7440   22.0230   20.1070 O.3   105  A105       -0.3307
   2290  C3'       24.8870   19.9480   18.9550 C.3   105  A105        0.1860
   2291  O3'       25.9380   19.0190   19.0560 O.3   105  A105       -0.3112
   2292  C2'       24.1350   19.7880   20.2630 C.3   105  A105        0.2309
   2293  O2'       25.0770   19.4540   21.2410 O.3   105  A105       -0.2156
   2294  C1'       23.6630   21.2080   20.5100 C.3   105  A105        0.2408
   2295  N1        20.4650   24.9370   19.0640 N.ar  105  A105       -0.2040
   2296  C2        21.5280   24.9240   19.8810 C.ar  105  A105        0.2016
   2297  N3        22.3140   23.9080   20.2200 N.ar  105  A105       -0.2048
   2298  C4        21.9190   22.7810   19.6010 C.ar  105  A105        0.1692
   2299  C5        20.8620   22.6410   18.7180 C.ar  105  A105        0.1518
   2300  C6        20.1060   23.7910   18.4470 C.ar  105  A105        0.1919
   2301  N6        19.0440   23.8040   17.6390 N.pl3 105  A105       -0.1054
   2302  N7        20.7560   21.3280   18.2790 N.ar  105  A105       -0.2193
   2303  C8        21.7520   20.7200   18.8720 C.ar  105  A105        0.1816
   2304  N9        22.4970   21.5400   19.6890 N.ar  105  A105       -0.2693
   2305  OP1       24.9890   22.2480   14.7620 O.2   105  A105       -0.5172
   2306  OP2       22.7810   20.9590   15.1120 O.co2 105  A105       -0.4373
   2307  P         25.7650   17.5650   18.5220 P.3   106  A106        0.2141
   2308  C5'       24.1390   15.5810   19.0480 C.3   106  A106        0.1812
   2309  O5'       24.8440   16.7530   19.5410 O.3   106  A106       -0.3114
   2310  C4'       23.4350   14.9230   20.1920 C.3   106  A106        0.1773
   2311  O4'       24.3230   14.8500   21.3120 O.3   106  A106       -0.3307
   2312  C3'       22.3220   15.7510   20.7850 C.3   106  A106        0.1860
   2313  O3'       21.2360   15.6800   19.8670 O.3   106  A106       -0.3112
   2314  C2'       22.1430   15.1160   22.1650 C.3   106  A106        0.2309
   2315  O2'       21.2630   14.0170   22.0720 O.3   106  A106       -0.2156
   2316  C1'       23.5720   14.6910   22.4950 C.3   106  A106        0.2408
   2317  N1        26.9230   14.6050   26.3860 N.ar  106  A106       -0.2040
   2318  C2        26.4070   13.6370   25.6250 C.ar  106  A106        0.2016
   2319  N3        25.5300   13.7240   24.6300 N.ar  106  A106       -0.2048
   2320  C4        25.1650   15.0010   24.4310 C.ar  106  A106        0.1692
   2321  C5        25.5990   16.1060   25.1420 C.ar  106  A106        0.1518
   2322  C6        26.5170   15.8770   26.1790 C.ar  106  A106        0.1919
   2323  N6        27.0040   16.8400   26.9650 N.pl3 106  A106       -0.1054
   2324  N7        24.9880   17.2590   24.6770 N.ar  106  A106       -0.2193
   2325  C8        24.2210   16.8340   23.6990 C.ar  106  A106        0.1816
   2326  N9        24.2450   15.4740   23.5260 N.ar  106  A106       -0.2693
   2327  OP1       27.1660   17.1500   18.7790 O.3   106  A106       -0.4373
   2328  OP2       25.1790   17.4520   17.1270 O.co2 106  A106       -0.5172
   2329  P         20.3110   16.9910   19.7150 P.3   107  G107        0.2141
   2330  C5'       18.2960   15.3620   19.5140 C.3   107  G107        0.1812
   2331  O5'       18.9850   16.3210   20.3170 O.3   107  G107       -0.3114
   2332  C4'       17.1320   14.8600   20.2720 C.3   107  G107        0.1773
   2333  O4'       17.6260   14.5150   21.5810 O.3   107  G107       -0.3307
   2334  C3'       16.0570   15.9030   20.5010 C.3   107  G107        0.1860
   2335  O3'       15.0710   15.8670   19.4710 O.3   107  G107       -0.3112
   2336  C2'       15.4940   15.5070   21.8680 C.3   107  G107        0.2309
   2337  O2'       14.6040   14.4210   21.8830 O.3   107  G107       -0.2156
   2338  C1'       16.7340   14.9950   22.5880 C.3   107  G107        0.2408
   2339  N1        16.9810   19.8890   23.8420 N.ar  107  G107       -0.1709
   2340  C2        16.0280   19.2330   23.1170 C.ar  107  G107        0.2606
   2341  N2        15.0190   19.9760   22.6680 N.pl3 107  G107       -0.0859
   2342  N3        16.0470   17.9410   22.8780 N.ar  107  G107       -0.1918
   2343  C4        17.1380   17.3530   23.4050 C.ar  107  G107        0.1723
   2344  C5        18.1620   17.9290   24.1230 C.ar  107  G107        0.1748
   2345  C6        18.1140   19.3060   24.3850 C.ar  107  G107        0.3023
   2346  O6        18.9190   19.9950   25.0000 O.2   107  G107       -0.2633
   2347  N7        19.1020   16.9800   24.4890 N.ar  107  G107       -0.2173
   2348  C8        18.6510   15.8690   23.9770 C.ar  107  G107        0.1817
   2349  N9        17.4440   16.0180   23.3410 N.ar  107  G107       -0.2693
   2350  OP1       20.2000   17.2410   18.2180 O.2   107  G107       -0.5172
   2351  OP2       20.9200   18.0190   20.6420 O.co2 107  G107       -0.4373
   2352  P         14.9510   17.0130   18.3270 P.3   108  G108        0.2141
   2353  C5'       14.1960   15.9440   16.0690 C.3   108  G108        0.1812
   2354  O5'       13.8100   16.5770   17.2960 O.3   108  G108       -0.3114
   2355  C4'       13.7310   16.7380   14.8790 C.3   108  G108        0.1773
   2356  O4'       12.3150   16.5160   14.6710 O.3   108  G108       -0.3307
   2357  C3'       13.8550   18.2460   15.0000 C.3   108  G108        0.1860
   2358  O3'       13.8300   18.8090   13.6850 O.3   108  G108       -0.3112
   2359  C2'       12.5750   18.5900   15.7330 C.3   108  G108        0.2309
   2360  O2'       12.3050   19.9840   15.6210 O.3   108  G108       -0.2156
   2361  C1'       11.6010   17.6920   14.9770 C.3   108  G108        0.2408
   2362  N1         6.6350   16.8390   14.5810 N.ar  108  G108       -0.1709
   2363  C2         7.5230   17.2980   13.6360 C.ar  108  G108        0.2606
   2364  N2         7.0270   17.5290   12.4130 N.pl3 108  G108       -0.0859
   2365  N3         8.8100   17.5060   13.8720 N.ar  108  G108       -0.1918
   2366  C4         9.1440   17.1900   15.1400 C.ar  108  G108        0.1723
   2367  C5         8.3390   16.7060   16.1480 C.ar  108  G108        0.1748
   2368  C6         6.9630   16.5200   15.8960 C.ar  108  G108        0.3023
   2369  O6         6.0890   16.1160   16.6700 O.2   108  G108       -0.2633
   2370  N7         9.0710   16.5030   17.3060 N.ar  108  G108       -0.2173
   2371  C8        10.2850   16.8680   16.9900 C.ar  108  G108        0.1817
   2372  N9        10.3960   17.2960   15.6910 N.ar  108  G108       -0.2693
   2373  OP1       16.2460   17.0510   17.5430 O.2   108  G108       -0.5172
   2374  OP2       14.4700   18.2450   19.0430 O.co2 108  G108       -0.4373
   2375  P         14.7290   20.1390   13.4610 P.3   109  A109        0.2141
   2376  C5'       12.9180   20.8390   11.6310 C.3   109  A109        0.1812
   2377  O5'       14.2800   20.5080   11.9770 O.3   109  A109       -0.3114
   2378  C4'       12.9490   21.7890   10.4560 C.3   109  A109        0.1773
   2379  O4'       13.8320   22.8830   10.7780 O.3   109  A109       -0.3307
   2380  C3'       13.5490   21.2050    9.1870 C.3   109  A109        0.1860
   2381  O3'       12.4930   20.6640    8.4010 O.3   109  A109       -0.3112
   2382  C2'       14.1040   22.4210    8.4680 C.3   109  A109        0.2309
   2383  O2'       12.9890   23.0210    7.8610 O.3   109  A109       -0.2156
   2384  C1'       14.4510   23.3630    9.6080 C.3   109  A109        0.2408
   2385  N1        19.0310   25.4350    8.3230 N.ar  109  A109       -0.2040
   2386  C2        17.8560   25.4270    7.6820 C.ar  109  A109        0.2016
   2387  N3        16.6980   24.8740    8.0450 N.ar  109  A109       -0.2048
   2388  C4        16.8270   24.2400    9.2220 C.ar  109  A109        0.1692
   2389  C5        17.9610   24.1860   10.0090 C.ar  109  A109        0.1518
   2390  C6        19.1160   24.8050    9.5130 C.ar  109  A109        0.1919
   2391  N6        20.2830   24.8020   10.1570 N.pl3 109  A109       -0.1054
   2392  N7        17.7120   23.4900   11.1790 N.ar  109  A109       -0.2193
   2393  C8        16.4510   23.1540   11.0840 C.ar  109  A109        0.1816
   2394  N9        15.8640   23.5410    9.9090 N.ar  109  A109       -0.2693
   2395  OP1       16.1520   20.0550   13.0690 O.2   109  A109       -0.5172
   2396  OP2       14.3540   21.0700   14.5480 O.co2 109  A109       -0.4373
   2397  P         12.9570   19.4410    7.5120 P.3   110  A110        0.2141
   2398  C5'       12.0920   17.8910    9.4450 C.3   110  A110        0.1812
   2399  O5'       13.1690   18.3350    8.6320 O.3   110  A110       -0.3114
   2400  C4'       12.7020   17.1850   10.6210 C.3   110  A110        0.1773
   2401  O4'       11.6750   16.8400   11.5830 O.3   110  A110       -0.3307
   2402  C3'       13.4630   15.8970   10.3060 C.3   110  A110        0.1860
   2403  O3'       14.6380   15.8340   11.1310 O.3   110  A110       -0.3112
   2404  C2'       12.4890   14.8130   10.7300 C.3   110  A110        0.2309
   2405  O2'       13.3300   13.8090   11.2410 O.3   110  A110       -0.2156
   2406  C1'       11.7850   15.4790   11.9090 C.3   110  A110        0.2408
   2407  N1         7.1720   14.7400    9.8930 N.ar  110  A110       -0.2040
   2408  C2         8.3360   15.1560    9.3680 C.ar  110  A110        0.2016
   2409  N3         9.5060   15.3330    9.9640 N.ar  110  A110       -0.2048
   2410  C4         9.4270   14.9960   11.2600 C.ar  110  A110        0.1692
   2411  C5         8.3040   14.5580   11.9430 C.ar  110  A110        0.1518
   2412  C6         7.1240   14.4420   11.2120 C.ar  110  A110        0.1919
   2413  N6         5.9670   14.0450   11.7420 N.pl3 110  A110       -0.1054
   2414  N7         8.5940   14.3380   13.2820 N.ar  110  A110       -0.2193
   2415  C8         9.8640   14.6530   13.3790 C.ar  110  A110        0.1816
   2416  N9        10.4380   15.0170   12.1800 N.ar  110  A110       -0.2693
   2417  OP1       14.3230   19.6510    6.9140 O.3   110  A110       -0.4373
   2418  OP2       11.7990   19.0350    6.6800 O.co2 110  A110       -0.5172
   2419  P         16.0910   15.5000   10.5330 P.3   111  G111        0.2141
   2420  C5'       16.8240   18.0090   10.0380 C.3   111  G111        0.1812
   2421  O5'       16.5140   16.6920    9.5660 O.3   111  G111       -0.3114
   2422  C4'       16.7360   18.9560    8.8730 C.3   111  G111        0.1773
   2423  O4'       17.0860   20.2970    9.2910 O.3   111  G111       -0.3307
   2424  C3'       17.6980   18.6400    7.7470 C.3   111  G111        0.1860
   2425  O3'       16.9790   17.8000    6.8690 O.3   111  G111       -0.3112
   2426  C2'       17.8760   19.9930    7.0870 C.3   111  G111        0.2309
   2427  O2'       16.7380   20.3270    6.3250 O.3   111  G111       -0.2156
   2428  C1'       17.8790   20.9170    8.2960 C.3   111  G111        0.2408
   2429  N1        22.5370   22.7600    7.5120 N.ar  111  G111       -0.1709
   2430  C2        21.4350   22.7900    6.6860 C.ar  111  G111        0.2606
   2431  N2        21.5970   23.3890    5.4970 N.pl3 111  G111       -0.0859
   2432  N3        20.2600   22.2650    7.0010 N.ar  111  G111       -0.1918
   2433  C4        20.2710   21.7060    8.2270 C.ar  111  G111        0.1723
   2434  C5        21.3140   21.6130    9.1230 C.ar  111  G111        0.1748
   2435  C6        22.5690   22.1770    8.7770 C.ar  111  G111        0.3023
   2436  O6        23.6090   22.2050    9.4430 O.2   111  G111       -0.2633
   2437  N7        20.9250   20.9230   10.2600 N.ar  111  G111       -0.2173
   2438  C8        19.6700   20.6360   10.0490 C.ar  111  G111        0.1817
   2439  N9        19.2120   21.0860    8.8370 N.ar  111  G111       -0.2693
   2440  OP1       15.8580   14.2440    9.6770 O.2   111  G111       -0.5172
   2441  OP2       17.1840   15.5540   11.5380 O.co2 111  G111       -0.4373
   2442  P         17.7930   16.8270    5.9050 P.3   112  C112        0.2141
   2443  C5'       17.8730   18.2430    3.7080 C.3   112  C112        0.1812
   2444  O5'       18.5730   17.6930    4.8220 O.3   112  C112       -0.3114
   2445  C4'       18.8000   19.1280    2.9320 C.3   112  C112        0.1773
   2446  O4'       19.4430   20.0580    3.8320 O.3   112  C112       -0.3307
   2447  C3'       19.9550   18.3920    2.2860 C.3   112  C112        0.1860
   2448  O3'       19.5170   17.7550    1.0850 O.3   112  C112       -0.3112
   2449  C2'       21.0020   19.4880    2.1240 C.3   112  C112        0.2309
   2450  O2'       20.8190   20.4300    1.1010 O.3   112  C112       -0.2156
   2451  C1'       20.7280   20.3650    3.3350 C.3   112  C112        0.2420
   2452  N1        21.7130   20.1480    4.3880 N.ar  112  C112       -0.2535
   2453  C2        22.9720   20.7120    4.2130 C.ar  112  C112        0.3532
   2454  O2        23.1930   21.3680    3.1870 O.2   112  C112       -0.2443
   2455  N3        23.9100   20.5490    5.1710 N.ar  112  C112       -0.1739
   2456  C4        23.6310   19.8290    6.2580 C.ar  112  C112        0.1759
   2457  N4        24.5880   19.6940    7.1750 N.pl3 112  C112       -0.1070
   2458  C5        22.3620   19.2080    6.4460 C.ar  112  C112        0.0566
   2459  C6        21.4360   19.4020    5.5000 C.ar  112  C112        0.0850
   2460  OP1       16.7700   15.9620    5.2350 O.2   112  C112       -0.5172
   2461  OP2       18.8860   16.2420    6.7330 O.co2 112  C112       -0.4373
   2462  P         20.2580   16.3610    0.7880 P.3   113  G113        0.2141
   2463  C5'       22.7670   16.7670    0.3710 C.3   113  G113        0.1812
   2464  O5'       21.4440   16.8330   -0.1620 O.3   113  G113       -0.3114
   2465  C4'       23.6650   17.8000   -0.2350 C.3   113  G113        0.1773
   2466  O4'       23.9020   18.8020    0.7810 O.3   113  G113       -0.3307
   2467  C3'       25.0190   17.1960   -0.5440 C.3   113  G113        0.1860
   2468  O3'       25.0770   16.6700   -1.8510 O.3   113  G113       -0.3112
   2469  C2'       26.0270   18.2690   -0.1370 C.3   113  G113        0.2309
   2470  O2'       26.3760   19.2030   -1.1100 O.3   113  G113       -0.2156
   2471  C1'       25.2980   18.9750    0.9910 C.3   113  G113        0.2408
   2472  N1        28.8690   18.6580    4.6100 N.ar  113  G113       -0.1709
   2473  C2        28.9660   19.1680    3.3360 C.ar  113  G113        0.2606
   2474  N2        30.1550   19.6780    2.9910 N.pl3 113  G113       -0.0859
   2475  N3        27.9630   19.1890    2.4670 N.ar  113  G113       -0.1918
   2476  C4        26.8380   18.6500    2.9850 C.ar  113  G113        0.1723
   2477  C5        26.6390   18.1190    4.2420 C.ar  113  G113        0.1748
   2478  C6        27.7130   18.1040    5.1590 C.ar  113  G113        0.3023
   2479  O6        27.7310   17.6430    6.3020 O.2   113  G113       -0.2633
   2480  N7        25.3540   17.6150    4.3670 N.ar  113  G113       -0.2173
   2481  C8        24.7890   17.8810    3.2200 C.ar  113  G113        0.1817
   2482  N9        25.6360   18.5020    2.3330 N.ar  113  G113       -0.2693
   2483  OP1       19.2710   15.4920    0.0970 O.2   113  G113       -0.5172
   2484  OP2       20.9710   15.8490    2.0140 O.co2 113  G113       -0.4373
   2485  P         25.8400   15.2490   -1.9010 P.3   114  G114        0.2141
   2486  C5'       28.3450   15.9140   -1.6670 C.3   114  G114        0.1812
   2487  O5'       27.1490   15.4470   -1.0020 O.3   114  G114       -0.3114
   2488  C4'       29.4550   16.1450   -0.6820 C.3   114  G114        0.1773
   2489  O4'       28.9010   16.6890    0.5380 O.3   114  G114       -0.3307
   2490  C3'       30.1840   14.8930   -0.2380 C.3   114  G114        0.1860
   2491  O3'       31.1400   14.5490   -1.2410 O.3   114  G114       -0.3112
   2492  C2'       30.7240   15.2790    1.1400 C.3   114  G114        0.2309
   2493  O2'       31.9530   15.9720    1.0390 O.3   114  G114       -0.2156
   2494  C1'       29.6170   16.1920    1.6600 C.3   114  G114        0.2408
   2495  N1        28.4830   14.5030    6.3260 N.ar  114  G114       -0.1709
   2496  C2        29.6600   15.0390    5.8690 C.ar  114  G114        0.2606
   2497  N2        30.6520   15.1370    6.7710 N.pl3 114  G114       -0.0859
   2498  N3        29.8530   15.4440    4.6180 N.ar  114  G114       -0.1918
   2499  C4        28.7460   15.2860    3.8660 C.ar  114  G114        0.1723
   2500  C5        27.5140   14.8030    4.2450 C.ar  114  G114        0.1748
   2501  C6        27.3240   14.3790    5.5740 C.ar  114  G114        0.3023
   2502  O6        26.3040   13.9220    6.0930 O.2   114  G114       -0.2633
   2503  N7        26.6270   14.8240    3.1780 N.ar  114  G114       -0.2173
   2504  C8        27.3300   15.2890    2.1810 C.ar  114  G114        0.1817
   2505  N9        28.6300   15.5710    2.5260 N.ar  114  G114       -0.2693
   2506  OP1       26.4180   15.1230   -3.2880 O.2   114  G114       -0.5172
   2507  OP2       24.8580   14.2140   -1.4120 O.co2 114  G114       -0.4373
   2508  P         31.0940   13.0570   -1.9230 P.3   115  A115        0.2141
   2509  C5'       32.9750   12.9640    0.0150 C.3   115  A115        0.1812
   2510  O5'       32.0350   12.2880   -0.8640 O.3   115  A115       -0.3114
   2511  C4'       33.2990   12.1080    1.2220 C.3   115  A115        0.1773
   2512  O4'       32.3930   12.3430    2.3500 O.3   115  A115       -0.3307
   2513  C3'       33.2940   10.6010    0.9390 C.3   115  A115        0.1860
   2514  O3'       34.3840    9.9800    1.5890 O.3   115  A115       -0.3112
   2515  C2'       32.0210   10.0610    1.5920 C.3   115  A115        0.2309
   2516  O2'       32.1710    8.7860    2.2030 O.3   115  A115       -0.2156
   2517  C1'       31.5600   11.2060    2.5180 C.3   115  A115        0.2408
   2518  N1        26.7670   11.9400    4.1550 N.ar  115  A115       -0.2040
   2519  C2        27.9350   11.7790    4.8060 C.ar  115  A115        0.2016
   2520  N3        29.1620   11.6220    4.3100 N.ar  115  A115       -0.2048
   2521  C4        29.1230   11.6050    2.9670 C.ar  115  A115        0.1692
   2522  C5        27.9980   11.7250    2.1590 C.ar  115  A115        0.1518
   2523  C6        26.7690   11.9030    2.8040 C.ar  115  A115        0.1919
   2524  N6        25.6150   12.0620    2.1560 N.pl3 115  A115       -0.1054
   2525  N7        28.3470   11.6820    0.8170 N.ar  115  A115       -0.2193
   2526  C8        29.6480   11.5140    0.8390 C.ar  115  A115        0.1816
   2527  N9        30.1890   11.5210    2.1100 N.ar  115  A115       -0.2693
   2528  OP1       31.7550   13.3160   -3.2230 O.2   115  A115       -0.5172
   2529  OP2       29.7430   12.3770   -1.9890 O.co2 115  A115       -0.4373
   2530  P         35.1410    8.8480    0.8130 P.3   116  C116        0.2141
   2531  C5'       37.6620    9.1680    1.4660 C.3   116  C116        0.1812
   2532  O5'       36.3180    8.9850    1.8810 O.3   116  C116       -0.3114
   2533  C4'       38.5310    9.3300    2.6880 C.3   116  C116        0.1773
   2534  O4'       37.9500   10.3580    3.5310 O.3   116  C116       -0.3307
   2535  C3'       38.6230    8.1130    3.6010 C.3   116  C116        0.1860
   2536  O3'       39.5400    7.1110    3.1890 O.3   116  C116       -0.3112
   2537  C2'       38.9310    8.7320    4.9620 C.3   116  C116        0.2309
   2538  O2'       40.2940    8.8850    5.2740 O.3   116  C116       -0.2156
   2539  C1'       38.0890   10.0070    4.9030 C.3   116  C116        0.2420
   2540  N1        36.7460    9.7600    5.4410 N.ar  116  C116       -0.2535
   2541  C2        36.6140    9.6440    6.8200 C.ar  116  C116        0.3532
   2542  O2        37.6300    9.7790    7.5220 O.2   116  C116       -0.2443
   2543  N3        35.3900    9.3890    7.3540 N.ar  116  C116       -0.1739
   2544  C4        34.3380    9.2200    6.5460 C.ar  116  C116        0.1759
   2545  N4        33.1550    8.9590    7.1010 N.pl3 116  C116       -0.1070
   2546  C5        34.4530    9.3040    5.1270 C.ar  116  C116        0.0566
   2547  C6        35.6650    9.5660    4.6220 C.ar  116  C116        0.0850
   2548  OP1       35.5430    9.2620   -0.5580 O.2   116  C116       -0.5172
   2549  OP2       34.1790    7.7280    0.9880 O.co2 116  C116       -0.4373
   2550  P         38.8720    5.7590    2.6150 P.3   117  G117        0.2141
   2551  C5'       38.5970    5.0430    5.1370 C.3   117  G117        0.1812
   2552  O5'       37.9940    5.1880    3.8220 O.3   117  G117       -0.3114
   2553  C4'       37.5460    5.2180    6.1980 C.3   117  G117        0.1773
   2554  O4'       36.6170    6.2220    5.7100 O.3   117  G117       -0.3307
   2555  C3'       36.6410    4.0180    6.4190 C.3   117  G117        0.1860
   2556  O3'       37.1860    2.8560    7.0480 O.3   117  G117       -0.3112
   2557  C2'       35.3690    4.6600    6.9960 C.3   117  G117        0.2309
   2558  O2'       35.2100    5.0140    8.3660 O.3   117  G117       -0.2156
   2559  C1'       35.3140    5.9570    6.1980 C.3   117  G117        0.2408
   2560  N1        30.5310    5.3040    4.5960 N.ar  117  G117       -0.1709
   2561  C2        31.0180    5.3560    5.8740 C.ar  117  G117        0.2606
   2562  N2        30.1200    5.2210    6.8410 N.pl3 117  G117       -0.0859
   2563  N3        32.3000    5.5270    6.1810 N.ar  117  G117       -0.1918
   2564  C4        33.0620    5.6900    5.0810 C.ar  117  G117        0.1723
   2565  C5        32.6710    5.6880    3.7620 C.ar  117  G117        0.1748
   2566  C6        31.2980    5.4940    3.4540 C.ar  117  G117        0.3023
   2567  O6        30.7560    5.5220    2.3510 O.2   117  G117       -0.2633
   2568  N7        33.7620    5.8910    2.9220 N.ar  117  G117       -0.2173
   2569  C8        34.7830    5.9740    3.7330 C.ar  117  G117        0.1817
   2570  N9        34.4270    5.8700    5.0560 N.ar  117  G117       -0.2693
   2571  OP1       40.2160    5.1360    2.5970 O.3   117  G117       -0.4373
   2572  OP2       38.0620    5.7980    1.3480 O.co2 117  G117       -0.5172
   2573  P         36.6880    1.4300    6.3860 P.3   118  G118        0.2141
   2574  C5'       35.2700    0.8930    8.5070 C.3   118  G118        0.1812
   2575  O5'       35.2700    1.1800    7.0910 O.3   118  G118       -0.3114
   2576  C4'       33.9320    1.1720    9.1250 C.3   118  G118        0.1773
   2577  O4'       33.3640    2.2790    8.4020 O.3   118  G118       -0.3307
   2578  C3'       32.9030    0.0760    8.9290 C.3   118  G118        0.1860
   2579  O3'       33.1400   -1.0350    9.7720 O.3   118  G118       -0.3112
   2580  C2'       31.5870    0.8390    9.0320 C.3   118  G118        0.2309
   2581  O2'       31.1730    1.1780   10.3350 O.3   118  G118       -0.2156
   2582  C1'       31.9580    2.1270    8.3060 C.3   118  G118        0.2408
   2583  N1        28.4140    1.8070    4.6550 N.ar  118  G118       -0.1709
   2584  C2        28.2560    1.7230    6.0130 C.ar  118  G118        0.2606
   2585  N2        26.9960    1.5390    6.4310 N.pl3 118  G118       -0.0859
   2586  N3        29.2560    1.8470    6.8950 N.ar  118  G118       -0.1918
   2587  C4        30.4490    1.9990    6.2750 C.ar  118  G118        0.1723
   2588  C5        30.7130    2.0600    4.9210 C.ar  118  G118        0.1748
   2589  C6        29.6280    2.0000    4.0050 C.ar  118  G118        0.3023
   2590  O6        29.6590    2.0830    2.7630 O.2   118  G118       -0.2633
   2591  N7        32.0690    2.2780    4.6930 N.ar  118  G118       -0.2173
   2592  C8        32.6010    2.2910    5.8880 C.ar  118  G118        0.1817
   2593  N9        31.6730    2.1230    6.8900 N.ar  118  G118       -0.2693
   2594  OP1       37.8290    0.6780    6.9690 O.3   118  G118       -0.4373
   2595  OP2       36.4450    1.3330    4.9070 O.co2 118  G118       -0.5172
   2596  P         33.3040   -2.3900    8.9200 P.3   119  C119        0.2141
   2597  C5'       30.9350   -3.0020    9.5930 C.3   119  C119        0.1812
   2598  O5'       31.7950   -2.6280    8.5290 O.3   119  C119       -0.3114
   2599  C4'       29.5250   -2.7340    9.1790 C.3   119  C119        0.1773
   2600  O4'       29.5160   -1.5920    8.3020 O.3   119  C119       -0.3307
   2601  C3'       28.9270   -3.7900    8.2790 C.3   119  C119        0.1860
   2602  O3'       28.4720   -4.9450    8.9610 O.3   119  C119       -0.3112
   2603  C2'       27.7440   -3.0440    7.7170 C.3   119  C119        0.2309
   2604  O2'       26.7080   -3.1750    8.6860 O.3   119  C119       -0.2156
   2605  C1'       28.3540   -1.6540    7.5000 C.3   119  C119        0.2420
   2606  N1        28.7210   -1.4840    6.0930 N.ar  119  C119       -0.2535
   2607  C2        27.6700   -1.4510    5.1680 C.ar  119  C119        0.3532
   2608  O2        26.5160   -1.6100    5.5870 O.2   119  C119       -0.2443
   2609  N3        27.9470   -1.3200    3.8420 N.ar  119  C119       -0.1739
   2610  C4        29.2190   -1.2120    3.4490 C.ar  119  C119        0.1759
   2611  N4        29.4570   -1.1390    2.1510 N.pl3 119  C119       -0.1070
   2612  C5        30.2980   -1.1220    4.3830 C.ar  119  C119        0.0566
   2613  C6        30.0120   -1.3180    5.6770 C.ar  119  C119        0.0850
   2614  OP1       33.6530   -3.3940    9.9520 O.3   119  C119       -0.4373
   2615  OP2       34.0030   -2.3100    7.6100 O.co2 119  C119       -0.5172
   2616  P         28.9040   -6.3260    8.2020 P.3   120  A120        0.2141
   2617  C5'       26.3540   -6.4530    7.7350 C.3   120  A120        0.1812
   2618  O5'       27.6780   -6.4450    7.1990 O.3   120  A120       -0.3114
   2619  C4'       25.4470   -6.2320    6.5630 C.3   120  A120        0.1773
   2620  O4'       26.0040   -5.1360    5.7950 O.3   120  A120       -0.3307
   2621  C3'       25.4020   -7.3420    5.5100 C.3   120  A120        0.1860
   2622  O3'       24.6680   -8.4690    6.0240 O.3   120  A120       -0.3112
   2623  C2'       24.9280   -6.5990    4.2560 C.3   120  A120        0.2309
   2624  O2'       23.6260   -6.1080    4.4480 O.3   120  A120       -0.2156
   2625  C1'       25.4870   -5.1890    4.4800 C.3   120  A120        0.2408
   2626  N1        27.3920   -4.1280   -0.2320 N.ar  120  A120       -0.2040
   2627  C2        26.1210   -4.3210    0.1750 C.ar  120  A120        0.2016
   2628  N3        25.6620   -4.6090    1.4000 N.ar  120  A120       -0.2048
   2629  C4        26.6790   -4.6600    2.2840 C.ar  120  A120        0.1692
   2630  C5        28.0250   -4.4700    2.0140 C.ar  120  A120        0.1518
   2631  C6        28.3840   -4.2060    0.6910 C.ar  120  A120        0.1919
   2632  N6        29.6470   -3.9960    0.3080 N.pl3 120  A120       -0.1054
   2633  N7        28.7790   -4.5890    3.1710 N.ar  120  A120       -0.2193
   2634  C8        27.8900   -4.8420    4.1040 C.ar  120  A120        0.1816
   2635  N9        26.6040   -4.9000    3.6360 N.ar  120  A120       -0.2693
   2636  OP1       28.6630   -7.3470    9.2800 O.3   120  A120       -0.4373
   2637  OP2       30.2680   -6.2310    7.5070 O.co2 120  A120       -0.5172
   2638  P         25.6150   -9.8060    6.3200 P.3   121  A121        0.2141
   2639  C5'       23.2370  -10.7840    6.9860 C.3   121  A121        0.1812
   2640  O5'       24.3600  -10.7690    6.0950 O.3   121  A121       -0.3114
   2641  C4'       22.2810  -11.8740    6.5410 C.3   121  A121        0.1773
   2642  O4'       21.6570  -11.4790    5.2730 O.3   121  A121       -0.3307
   2643  C3'       22.9150  -13.2470    6.2760 C.3   121  A121        0.1860
   2644  O3'       22.1440  -14.3680    6.7250 O.3   121  A121       -0.3112
   2645  C2'       23.0180  -13.2550    4.7590 C.3   121  A121        0.2309
   2646  O2'       23.1460  -14.5190    4.1800 O.3   121  A121       -0.2156
   2647  C1'       21.7170  -12.5620    4.3750 C.3   121  A121        0.2408
   2648  N1        24.2740   -9.6620    0.9860 N.ar  121  A121       -0.2040
   2649  C2        24.4680   -9.9060    2.2860 C.ar  121  A121        0.2016
   2650  N3        23.7310  -10.6250    3.1280 N.ar  121  A121       -0.2048
   2651  C4        22.7010  -11.1910    2.4840 C.ar  121  A121        0.1692
   2652  C5        22.3840  -11.0530    1.1480 C.ar  121  A121        0.1518
   2653  C6        23.2130  -10.2300    0.3770 C.ar  121  A121        0.1919
   2654  N6        23.0090   -9.9760   -0.9200 N.pl3 121  A121       -0.1054
   2655  N7        21.2670  -11.8080    0.8290 N.ar  121  A121       -0.2193
   2656  C8        20.9440  -12.3860    1.9620 C.ar  121  A121        0.1816
   2657  N9        21.7620  -12.0460    3.0080 N.ar  121  A121       -0.2693
   2658  OP1       26.2080   -9.8370    7.7280 O.3   121  A121       -0.4373
   2659  OP2       26.6140   -9.9920    5.1970 O.co2 121  A121       -0.5172
   2660  P         22.1300  -14.6920    8.3140 P.3   122  A122        0.2141
   2661  C5'       19.5050  -14.7670    8.1560 C.3   122  A122        0.1812
   2662  O5'       20.7110  -15.2930    8.7060 O.3   122  A122       -0.3114
   2663  C4'       18.3360  -15.6830    8.4610 C.3   122  A122        0.1773
   2664  O4'       18.1910  -16.6540    7.3930 O.3   122  A122       -0.3307
   2665  C3'       18.4120  -16.5220    9.7390 C.3   122  A122        0.1860
   2666  O3'       17.7140  -15.8950   10.8010 O.3   122  A122       -0.3112
   2667  C2'       17.5500  -17.7190    9.3890 C.3   122  A122        0.2309
   2668  O2'       16.1910  -17.3610    9.2520 O.3   122  A122       -0.2156
   2669  C1'       17.9330  -17.9250    7.9430 C.3   122  A122        0.2408
   2670  N1        19.4770  -22.7460    7.9210 N.ar  122  A122       -0.2040
   2671  C2        18.3070  -22.1550    8.2270 C.ar  122  A122        0.2016
   2672  N3        17.9840  -20.8680    8.2060 N.ar  122  A122       -0.2048
   2673  C4        19.0490  -20.1270    7.8590 C.ar  122  A122        0.1692
   2674  C5        20.3050  -20.5840    7.4920 C.ar  122  A122        0.1518
   2675  C6        20.5100  -21.9760    7.5250 C.ar  122  A122        0.1919
   2676  N6        21.6680  -22.5720    7.2180 N.pl3 122  A122       -0.1054
   2677  N7        21.1260  -19.5250    7.1340 N.ar  122  A122       -0.2193
   2678  C8        20.3640  -18.4710    7.3000 C.ar  122  A122        0.1816
   2679  N9        19.1050  -18.7630    7.7610 N.ar  122  A122       -0.2693
   2680  OP1       22.2540  -13.3840    8.9960 O.3   122  A122       -0.4373
   2681  OP2       23.1610  -15.7140    8.5980 O.co2 122  A122       -0.5172
   2682  P         18.2910  -16.0110   12.2650 P.3   123  C123        0.2141
   2683  C5'       17.4660  -18.3920   13.0030 C.3   123  C123        0.1812
   2684  O5'       18.5130  -17.5640   12.4960 O.3   123  C123       -0.3114
   2685  C4'       17.9080  -19.7970   12.7750 C.3   123  C123        0.1773
   2686  O4'       18.5430  -19.8220   11.4800 O.3   123  C123       -0.3307
   2687  C3'       19.0300  -20.2230   13.6950 C.3   123  C123        0.1860
   2688  O3'       18.5330  -20.7020   14.9280 O.3   123  C123       -0.3112
   2689  C2'       19.7310  -21.3110   12.8960 C.3   123  C123        0.2309
   2690  O2'       19.2690  -22.6220   13.1140 O.3   123  C123       -0.2156
   2691  C1'       19.4860  -20.8610   11.4550 C.3   123  C123        0.2420
   2692  N1        20.7270  -20.3540   10.8950 N.ar  123  C123       -0.2535
   2693  C2        21.7260  -21.2820   10.6190 C.ar  123  C123        0.3532
   2694  O2        21.4840  -22.4830   10.7990 O.2   123  C123       -0.2443
   2695  N3        22.9220  -20.8550   10.1520 N.ar  123  C123       -0.1739
   2696  C4        23.1420  -19.5510    9.9910 C.ar  123  C123        0.1759
   2697  N4        24.3290  -19.1780    9.5250 N.pl3 123  C123       -0.1070
   2698  C5        22.1410  -18.5760   10.2740 C.ar  123  C123        0.0566
   2699  C6        20.9610  -19.0180   10.7330 C.ar  123  C123        0.0850
   2700  OP1       17.1880  -15.5270   13.1310 O.3   123  C123       -0.4373
   2701  OP2       19.6580  -15.3900   12.2880 O.co2 123  C123       -0.5172
   2702  P         19.5840  -20.5050   16.0920 P.3   124  C124        0.2141
   2703  C5'       20.0170  -23.0710   16.2750 C.3   124  C124        0.1812
   2704  O5'       20.5510  -21.7690   16.0100 O.3   124  C124       -0.3114
   2705  C4'       21.0190  -24.1370   15.9100 C.3   124  C124        0.1773
   2706  O4'       21.4390  -23.9670   14.5360 O.3   124  C124       -0.3307
   2707  C3'       22.3310  -24.1220   16.6750 C.3   124  C124        0.1860
   2708  O3'       22.2130  -24.7860   17.9180 O.3   124  C124       -0.3112
   2709  C2'       23.2450  -24.9250   15.7600 C.3   124  C124        0.2309
   2710  O2'       23.1320  -26.3110   16.0190 O.3   124  C124       -0.2156
   2711  C1'       22.7370  -24.5090   14.3770 C.3   124  C124        0.2420
   2712  N1        23.5810  -23.4830   13.7760 N.ar  124  C124       -0.2535
   2713  C2        24.8320  -23.8670   13.3090 C.ar  124  C124        0.3532
   2714  O2        25.1670  -25.0500   13.4230 O.2   124  C124       -0.2443
   2715  N3        25.6470  -22.9420   12.7470 N.ar  124  C124       -0.1739
   2716  C4        25.2530  -21.6690   12.6680 C.ar  124  C124        0.1759
   2717  N4        26.0820  -20.7960   12.1010 N.pl3 124  C124       -0.1070
   2718  C5        23.9750  -21.2440   13.1430 C.ar  124  C124        0.0566
   2719  C6        23.1830  -22.1750   13.6970 C.ar  124  C124        0.0850
   2720  OP1       18.7550  -20.4590   17.3120 O.3   124  C124       -0.4373
   2721  OP2       20.4280  -19.3490   15.7490 O.co2 124  C124       -0.5172
   2722  P         22.8470  -24.0490   19.1810 P.3   125  U125        0.2141
   2723  C5'       24.7160  -25.8110   19.5250 C.3   125  U125        0.1812
   2724  O5'       24.3360  -24.5680   18.9690 O.3   125  U125       -0.3114
   2725  C4'       25.9410  -26.3050   18.8370 C.3   125  U125        0.1773
   2726  O4'       25.9330  -25.8600   17.4660 O.3   125  U125       -0.3307
   2727  C3'       27.2460  -25.7360   19.3390 C.3   125  U125        0.1860
   2728  O3'       27.6560  -26.3190   20.5470 O.3   125  U125       -0.3112
   2729  C2'       28.1780  -26.0820   18.1940 C.3   125  U125        0.2309
   2730  O2'       28.6530  -27.4030   18.1390 O.3   125  U125       -0.2156
   2731  C1'       27.2710  -25.8070   16.9950 C.3   125  U125        0.2420
   2732  N1        27.5090  -24.4680   16.4440 N.ar  125  U125       -0.2534
   2733  C2        28.7490  -24.2240   15.8750 C.ar  125  U125        0.3546
   2734  O2        29.6270  -25.0720   15.8100 O.2   125  U125       -0.2443
   2735  N3        28.9120  -22.9580   15.3720 N.ar  125  U125       -0.1530
   2736  C4        27.9870  -21.9320   15.3800 C.ar  125  U125        0.2846
   2737  O4        28.2810  -20.8530   14.8700 O.2   125  U125       -0.2650
   2738  C5        26.7380  -22.2520   16.0140 C.ar  125  U125        0.0814
   2739  C6        26.5480  -23.4770   16.5140 C.ar  125  U125        0.0870
   2740  OP1       22.2070  -24.6440   20.3790 O.3   125  U125       -0.4373
   2741  OP2       22.8200  -22.5730   19.0240 O.co2 125  U125       -0.5172
   2742  P         27.8700  -25.2390   21.6990 P.3   126  U126        0.2141
   2743  C5'       30.3660  -26.0130   21.3430 C.3   126  U126        0.1812
   2744  O5'       29.3770  -24.9710   21.2450 O.3   126  U126       -0.3114
   2745  C4'       31.5970  -25.6640   20.5370 C.3   126  U126        0.1773
   2746  O4'       31.2090  -25.1750   19.2220 O.3   126  U126       -0.3307
   2747  C3'       32.4630  -24.5350   21.0660 C.3   126  U126        0.1860
   2748  O3'       33.2820  -24.8430   22.1790 O.3   126  U126       -0.3112
   2749  C2'       33.2600  -24.1680   19.8240 C.3   126  U126        0.2309
   2750  O2'       34.2510  -25.1230   19.4950 O.3   126  U126       -0.2156
   2751  C1'       32.1650  -24.2240   18.7590 C.3   126  U126        0.2420
   2752  N1        31.4660  -22.9480   18.5150 N.ar  126  U126       -0.2534
   2753  C2        32.1190  -21.9490   17.8020 C.ar  126  U126        0.3546
   2754  O2        33.2670  -22.0570   17.4010 O.2   126  U126       -0.2443
   2755  N3        31.3750  -20.8170   17.5880 N.ar  126  U126       -0.1530
   2756  C4        30.0790  -20.5800   17.9990 C.ar  126  U126        0.2846
   2757  O4        29.5500  -19.4950   17.7490 O.2   126  U126       -0.2650
   2758  C5        29.4700  -21.6650   18.7100 C.ar  126  U126        0.0814
   2759  C6        30.1670  -22.7820   18.9390 C.ar  126  U126        0.0870
   2760  OP1       27.8050  -25.8950   23.0410 O.3   126  U126       -0.4373
   2761  OP2       27.0080  -24.0550   21.4480 O.co2 126  U126       -0.5172
   2762  P         33.2420  -23.6360   23.2440 P.3   127  C127        0.2141
   2763  C5'       35.7030  -23.0740   22.5420 C.3   127  C127        0.1812
   2764  O5'       34.3130  -22.6950   22.5310 O.3   127  C127       -0.3114
   2765  C4'       36.5120  -22.0790   21.7540 C.3   127  C127        0.1773
   2766  O4'       35.7970  -21.7420   20.5450 O.3   127  C127       -0.3307
   2767  C3'       36.7460  -20.7210   22.3740 C.3   127  C127        0.1860
   2768  O3'       37.8490  -20.7050   23.2470 O.3   127  C127       -0.3112
   2769  C2'       37.1620  -19.9190   21.1530 C.3   127  C127        0.2309
   2770  O2'       38.5020  -20.0020   20.6890 O.3   127  C127       -0.2156
   2771  C1'       36.2010  -20.4680   20.1040 C.3   127  C127        0.2420
   2772  N1        35.0060  -19.6460   19.9920 N.ar  127  C127       -0.2535
   2773  C2        35.0650  -18.4660   19.2460 C.ar  127  C127        0.3532
   2774  O2        36.1320  -18.1620   18.6880 O.2   127  C127       -0.2443
   2775  N3        33.9540  -17.7110   19.1170 N.ar  127  C127       -0.1739
   2776  C4        32.8300  -18.0780   19.7280 C.ar  127  C127        0.1759
   2777  N4        31.7550  -17.3120   19.5660 N.pl3 127  C127       -0.1070
   2778  C5        32.7460  -19.2690   20.5040 C.ar  127  C127        0.0566
   2779  C6        33.8450  -20.0220   20.5980 C.ar  127  C127        0.0850
   2780  OP1       33.9120  -24.1580   24.4690 O.3   127  C127       -0.4373
   2781  OP2       31.9580  -22.8720   23.3720 O.co2 127  C127       -0.5172
   2782  P         37.7400  -19.7350   24.4980 P.3   128  G128        0.2141
   2783  C5'       37.5240  -17.0770   24.3470 C.3   128  G128        0.1812
   2784  O5'       37.4880  -18.3700   23.7220 O.3   128  G128       -0.3114
   2785  C4'       38.2600  -16.1140   23.4460 C.3   128  G128        0.1773
   2786  O4'       37.6960  -16.1660   22.1040 O.3   128  G128       -0.3307
   2787  C3'       38.1750  -14.6610   23.8510 C.3   128  G128        0.1860
   2788  O3'       39.2090  -14.4970   24.8100 O.3   128  G128       -0.3112
   2789  C2'       38.3800  -13.9540   22.5140 C.3   128  G128        0.2309
   2790  O2'       39.6930  -13.8430   21.9800 O.3   128  G128       -0.2156
   2791  C1'       37.5930  -14.8600   21.5710 C.3   128  G128        0.2408
   2792  N1        34.2100  -11.3370   20.2280 N.ar  128  G128       -0.1709
   2793  C2        35.5810  -11.3050   20.1490 C.ar  128  G128        0.2606
   2794  N2        36.1210  -10.1920   19.6340 N.pl3 128  G128       -0.0859
   2795  N3        36.3650  -12.3060   20.5140 N.ar  128  G128       -0.1918
   2796  C4        35.6600  -13.3470   20.9970 C.ar  128  G128        0.1723
   2797  C5        34.2950  -13.4640   21.1520 C.ar  128  G128        0.1748
   2798  C6        33.4630  -12.3890   20.7470 C.ar  128  G128        0.3023
   2799  O6        32.2230  -12.3170   20.7730 O.2   128  G128       -0.2633
   2800  N7        33.9680  -14.6940   21.6950 N.ar  128  G128       -0.2173
   2801  C8        35.1190  -15.2840   21.8720 C.ar  128  G128        0.1817
   2802  N9        36.1840  -14.5130   21.4870 N.ar  128  G128       -0.2693
   2803  OP1       39.1000  -19.7240   25.1540 O.2   128  G128       -0.5172
   2804  OP2       36.4810  -19.9640   25.2940 O.co2 128  G128       -0.4373
   2805  P         38.7110  -13.8760   26.2000 P.3   129  G129        0.2141
   2806  C5'       39.3420  -11.4450   25.3680 C.3   129  G129        0.1812
   2807  O5'       38.3380  -12.3750   25.8120 O.3   129  G129       -0.3114
   2808  C4'       38.6830  -10.3000   24.6500 C.3   129  G129        0.1773
   2809  O4'       37.8520  -10.8030   23.5800 O.3   129  G129       -0.3307
   2810  C3'       37.7020   -9.4630   25.4450 C.3   129  G129        0.1860
   2811  O3'       38.4190   -8.4860   26.1690 O.3   129  G129       -0.3112
   2812  C2'       36.9820   -8.7480   24.3180 C.3   129  G129        0.2309
   2813  O2'       37.7610   -7.7080   23.7300 O.3   129  G129       -0.2156
   2814  C1'       36.7890   -9.9010   23.3330 C.3   129  G129        0.2408
   2815  N1        31.7350   -9.6560   23.0820 N.ar  129  G129       -0.1709
   2816  C2        32.6720   -8.7430   22.6690 C.ar  129  G129        0.2606
   2817  N2        32.1920   -7.6180   22.1200 N.pl3 129  G129       -0.0859
   2818  N3        33.9800   -8.9270   22.7670 N.ar  129  G129       -0.1918
   2819  C4        34.2770  -10.1130   23.3440 C.ar  129  G129        0.1723
   2820  C5        33.4170  -11.0820   23.8100 C.ar  129  G129        0.1748
   2821  C6        32.0190  -10.8720   23.6930 C.ar  129  G129        0.3023
   2822  O6        31.0950  -11.6180   24.0370 O.2   129  G129       -0.2633
   2823  N7        34.1210  -12.1530   24.3320 N.ar  129  G129       -0.2173
   2824  C8        35.3730  -11.8130   24.1990 C.ar  129  G129        0.1817
   2825  N9        35.5370  -10.5950   23.5940 N.ar  129  G129       -0.2693
   2826  OP1       39.8020  -13.8320   27.1870 O.3   129  G129       -0.4373
   2827  OP2       37.3900  -14.4420   26.5630 O.co2 129  G129       -0.5172
   2828  P         38.1260   -8.2230   27.6900 P.3   130  U130        0.2141
   2829  C5'       37.0100   -5.9900   26.8360 C.3   130  U130        0.1812
   2830  O5'       36.9030   -7.1970   27.6190 O.3   130  U130       -0.3114
   2831  C4'       35.6360   -5.4310   26.5660 C.3   130  U130        0.1773
   2832  O4'       34.9910   -6.2180   25.5340 O.3   130  U130       -0.3307
   2833  C3'       34.6380   -5.4820   27.7110 C.3   130  U130        0.1860
   2834  O3'       34.8240   -4.3650   28.5380 O.3   130  U130       -0.3112
   2835  C2'       33.3160   -5.3680   26.9660 C.3   130  U130        0.2309
   2836  O2'       32.9960   -4.0670   26.5420 O.3   130  U130       -0.2156
   2837  C1'       33.5900   -6.2370   25.7450 C.3   130  U130        0.2420
   2838  N1        33.1860   -7.6020   26.0760 N.ar  130  U130       -0.2534
   2839  C2        31.8320   -7.8260   26.1170 C.ar  130  U130        0.3546
   2840  O2        31.0200   -6.9860   25.8080 O.2   130  U130       -0.2443
   2841  N3        31.4660   -9.0830   26.5150 N.ar  130  U130       -0.1530
   2842  C4        32.2920  -10.0970   26.9250 C.ar  130  U130        0.2846
   2843  O4        31.7980  -11.1630   27.2730 O.2   130  U130       -0.2650
   2844  C5        33.6890   -9.7790   26.8990 C.ar  130  U130        0.0814
   2845  C6        34.0790   -8.5650   26.5040 C.ar  130  U130        0.0870
   2846  OP1       39.4720   -7.6730   28.0140 O.2   130  U130       -0.5172
   2847  OP2       37.6310   -9.3970   28.4360 O.co2 130  U130       -0.4373
   2848  P         34.3060   -4.3040   30.0150 P.3   131  C131        0.2141
   2849  C5'       32.1650   -2.9470   29.3810 C.3   131  C131        0.1812
   2850  O5'       32.7260   -4.1570   29.8850 O.3   131  C131       -0.3114
   2851  C4'       30.6780   -3.1010   29.2790 C.3   131  C131        0.1773
   2852  O4'       30.4040   -4.1910   28.3720 O.3   131  C131       -0.3307
   2853  C3'       29.9680   -3.4760   30.5750 C.3   131  C131        0.1860
   2854  O3'       29.5930   -2.3120   31.2970 O.3   131  C131       -0.3112
   2855  C2'       28.7430   -4.2350   30.0770 C.3   131  C131        0.2309
   2856  O2'       27.6360   -3.5000   29.6140 O.3   131  C131       -0.2156
   2857  C1'       29.3130   -4.9510   28.8600 C.3   131  C131        0.2420
   2858  N1        29.7900   -6.2840   29.2130 N.ar  131  C131       -0.2535
   2859  C2        28.8340   -7.2790   29.3880 C.ar  131  C131        0.3532
   2860  O2        27.6420   -6.9880   29.2270 O.2   131  C131       -0.2443
   2861  N3        29.2310   -8.5340   29.7130 N.ar  131  C131       -0.1739
   2862  C4        30.5300   -8.7970   29.8770 C.ar  131  C131        0.1759
   2863  N4        30.8770  -10.0370   30.2110 N.pl3 131  C131       -0.1070
   2864  C5        31.5300   -7.7930   29.7050 C.ar  131  C131        0.0566
   2865  C6        31.1180   -6.5580   29.3920 C.ar  131  C131        0.0850
   2866  OP1       35.0540   -3.0840   30.4230 O.2   131  C131       -0.5172
   2867  OP2       34.4620   -5.5230   30.8500 O.co2 131  C131       -0.4373
   2868  P         29.5110   -2.3910   32.8650 P.3   132  U132        0.2141
   2869  C5'       26.9140   -2.6360   32.7890 C.3   132  U132        0.1812
   2870  O5'       28.1710   -3.2270   33.0880 O.3   132  U132       -0.3114
   2871  C4'       25.8330   -3.6670   32.8090 C.3   132  U132        0.1773
   2872  O4'       26.2500   -4.7940   32.0180 O.3   132  U132       -0.3307
   2873  C3'       25.5690   -4.2870   34.1660 C.3   132  U132        0.1860
   2874  O3'       24.7770   -3.4560   34.9980 O.3   132  U132       -0.3112
   2875  C2'       24.8800   -5.5960   33.7920 C.3   132  U132        0.2309
   2876  O2'       23.4830   -5.5600   33.5990 O.3   132  U132       -0.2156
   2877  C1'       25.6040   -5.9710   32.4990 C.3   132  U132        0.2420
   2878  N1        26.6250   -6.9940   32.7550 N.ar  132  U132       -0.2534
   2879  C2        26.1980   -8.2590   33.1270 C.ar  132  U132        0.3546
   2880  O2        25.0220   -8.5610   33.2130 O.2   132  U132       -0.2443
   2881  N3        27.2040   -9.1590   33.3800 N.ar  132  U132       -0.1530
   2882  C4        28.5640   -8.9320   33.3120 C.ar  132  U132        0.2846
   2883  O4        29.3440   -9.8510   33.5620 O.2   132  U132       -0.2650
   2884  C5        28.9270   -7.5960   32.9300 C.ar  132  U132        0.0814
   2885  C6        27.9680   -6.6940   32.6760 C.ar  132  U132        0.0870
   2886  OP1       29.2790   -1.0330   33.3730 O.3   132  U132       -0.4373
   2887  OP2       30.6930   -3.1530   33.3720 O.co2 132  U132       -0.5172
   2888  P         25.1430   -3.3480   36.5520 P.3   133  G133        0.2141
   2889  C5'       23.0670   -4.8290   36.9270 C.3   133  G133        0.1812
   2890  O5'       24.4440   -4.5980   37.2310 O.3   133  G133       -0.3114
   2891  C4'       22.6150   -6.1080   37.5740 C.3   133  G133        0.1773
   2892  O4'       22.9590   -7.2250   36.7130 O.3   133  G133       -0.3307
   2893  C3'       23.2570   -6.4650   38.9040 C.3   133  G133        0.1860
   2894  O3'       22.5830   -5.8710   40.0090 O.3   133  G133       -0.3112
   2895  C2'       23.0050   -7.9570   38.9500 C.3   133  G133        0.2309
   2896  O2'       21.6180   -8.1520   39.0490 O.3   133  G133       -0.2156
   2897  C1'       23.2900   -8.3480   37.5070 C.3   133  G133        0.2408
   2898  N1        26.7300  -12.0710   37.3980 N.ar  133  G133       -0.1709
   2899  C2        25.3950  -12.1200   37.7270 C.ar  133  G133        0.2606
   2900  N2        24.9120  -13.3240   38.0550 N.pl3 133  G133       -0.0859
   2901  N3        24.5920  -11.0700   37.7240 N.ar  133  G133       -0.1918
   2902  C4        25.2380   -9.9440   37.3560 C.ar  133  G133        0.1723
   2903  C5        26.5610   -9.7860   36.9970 C.ar  133  G133        0.1748
   2904  C6        27.4150  -10.9260   37.0070 C.ar  133  G133        0.3023
   2905  O6        28.6240  -10.9900   36.7380 O.2   133  G133       -0.2633
   2906  N7        26.8300   -8.4610   36.6790 N.ar  133  G133       -0.2173
   2907  C8        25.6910   -7.8500   36.8570 C.ar  133  G133        0.1817
   2908  N9        24.6830   -8.6930   37.2570 N.ar  133  G133       -0.2693
   2909  OP1       24.3730   -2.1680   37.0320 O.3   133  G133       -0.4373
   2910  OP2       26.6040   -3.4010   36.7730 O.co2 133  G133       -0.5172
   2911  P         23.4760   -5.0840   41.0700 P.3   134  A134        0.2141
   2912  C5'       24.4800   -2.6580   41.0510 C.3   134  A134        0.1812
   2913  O5'       23.8850   -3.7410   40.3260 O.3   134  A134       -0.3114
   2914  C4'       23.9830   -1.3460   40.5000 C.3   134  A134        0.1773
   2915  O4'       22.5470   -1.2490   40.7080 O.3   134  A134       -0.3307
   2916  C3'       24.5930   -0.1180   41.1600 C.3   134  A134        0.1860
   2917  O3'       25.7420    0.2660   40.4010 O.3   134  A134       -0.3112
   2918  C2'       23.4760    0.9050   41.0450 C.3   134  A134        0.2309
   2919  O2'       23.4990    1.4470   39.7450 O.3   134  A134       -0.2156
   2920  C1'       22.2180    0.0390   41.1620 C.3   134  A134        0.2408
   2921  N1        19.8040    2.5590   44.9410 N.ar  134  A134       -0.2040
   2922  C2        20.2870    2.9560   43.7580 C.ar  134  A134        0.2016
   2923  N3        20.9180    2.2500   42.8260 N.ar  134  A134       -0.2048
   2924  C4        21.0170    0.9620   43.1950 C.ar  134  A134        0.1692
   2925  C5        20.5680    0.4040   44.3780 C.ar  134  A134        0.1518
   2926  C6        19.9400    1.2670   45.2920 C.ar  134  A134        0.1919
   2927  N6        19.4440    0.8770   46.4630 N.pl3 134  A134       -0.1054
   2928  N7        20.8570   -0.9520   44.4210 N.ar  134  A134       -0.2193
   2929  C8        21.4650   -1.1800   43.2800 C.ar  134  A134        0.1816
   2930  N9        21.6140   -0.0630   42.4970 N.ar  134  A134       -0.2693
   2931  OP1       24.8020   -5.7640   41.1520 O.2   134  A134       -0.5172
   2932  OP2       22.6590   -4.8000   42.3010 O.co2 134  A134       -0.4373
   2933  P         27.0110    0.9280   41.1490 P.3   135  G135        0.2141
   2934  C5'       25.7050    3.2390   41.3090 C.3   135  G135        0.1812
   2935  O5'       26.3960    2.1560   41.9480 O.3   135  G135       -0.3114
   2936  C4'       25.1420    4.0780   42.4080 C.3   135  G135        0.1773
   2937  O4'       23.9340    3.4470   42.9080 O.3   135  G135       -0.3307
   2938  C3'       26.0720    4.1480   43.6050 C.3   135  G135        0.1860
   2939  O3'       26.8750    5.3000   43.4790 O.3   135  G135       -0.3112
   2940  C2'       25.1240    4.3450   44.7750 C.3   135  G135        0.2309
   2941  O2'       24.8350    5.7010   44.9750 O.3   135  G135       -0.2156
   2942  C1'       23.8660    3.6050   44.3200 C.3   135  G135        0.2408
   2943  N1        21.9740    0.9790   48.2550 N.ar  135  G135       -0.1709
   2944  C2        21.8770    2.3210   47.9780 C.ar  135  G135        0.2606
   2945  N2        21.1970    3.0640   48.8680 N.pl3 135  G135       -0.0859
   2946  N3        22.4120    2.8950   46.9120 N.ar  135  G135       -0.1918
   2947  C4        23.0650    2.0070   46.1340 C.ar  135  G135        0.1723
   2948  C5        23.2170    0.6520   46.3190 C.ar  135  G135        0.1748
   2949  C6        22.6350    0.0460   47.4660 C.ar  135  G135        0.3023
   2950  O6        22.6430   -1.1460   47.8000 O.2   135  G135       -0.2633
   2951  N7        23.9550    0.0950   45.2860 N.ar  135  G135       -0.2173
   2952  C8        24.2360    1.1020   44.5050 C.ar  135  G135        0.1817
   2953  N9        23.7220    2.2920   44.9560 N.ar  135  G135       -0.2693
   2954  OP1       27.9780    1.4710   40.1780 O.2   135  G135       -0.5172
   2955  OP2       27.4970    0.0780   42.2510 O.co2 135  G135       -0.4373
   2956  P         28.3970    5.3770   43.9150 P.3   136  G136        0.2141
   2957  C5'       27.7760    6.1330   46.3380 C.3   136  G136        0.1812
   2958  O5'       28.2150    5.1050   45.4700 O.3   136  G136       -0.3114
   2959  C4'       27.6220    5.5540   47.7050 C.3   136  G136        0.1773
   2960  O4'       26.5370    4.5950   47.6940 O.3   136  G136       -0.3307
   2961  C3'       28.8090    4.7560   48.2090 C.3   136  G136        0.1860
   2962  O3'       29.7670    5.6470   48.7680 O.3   136  G136       -0.3112
   2963  C2'       28.1600    3.8740   49.2670 C.3   136  G136        0.2309
   2964  O2'       27.9460    4.5950   50.4590 O.3   136  G136       -0.2156
   2965  C1'       26.8010    3.5700   48.6320 C.3   136  G136        0.2408
   2966  N1        25.8850   -1.4070   48.9870 N.ar  136  G136       -0.1709
   2967  C2        25.7140   -0.4170   49.9270 C.ar  136  G136        0.2606
   2968  N2        25.2590   -0.8070   51.1290 N.pl3 136  G136       -0.0859
   2969  N3        25.9690    0.8630   49.7080 N.ar  136  G136       -0.1918
   2970  C4        26.4260    1.0800   48.4550 C.ar  136  G136        0.1723
   2971  C5        26.6340    0.1660   47.4430 C.ar  136  G136        0.1748
   2972  C6        26.3460   -1.2070   47.6890 C.ar  136  G136        0.3023
   2973  O6        26.4470   -2.1690   46.9150 O.2   136  G136       -0.2633
   2974  N7        27.1210    0.7940   46.3050 N.ar  136  G136       -0.2173
   2975  C8        27.2090    2.0520   46.6430 C.ar  136  G136        0.1817
   2976  N9        26.7970    2.2940   47.9310 N.ar  136  G136       -0.2693
   2977  OP1       28.9930    6.7350   43.8580 O.3   136  G136       -0.4373
   2978  OP2       29.1080    4.2530   43.2140 O.co2 136  G136       -0.5172
   2979  P         31.3150    5.5900   48.3650 P.3   137  A137        0.2141
   2980  C5'       32.8720    3.5390   48.9900 C.3   137  A137        0.1812
   2981  O5'       31.6210    4.2300   49.1420 O.3   137  A137       -0.3114
   2982  C4'       33.4160    3.1370   50.3350 C.3   137  A137        0.1773
   2983  O4'       34.8530    3.3230   50.3350 O.3   137  A137       -0.3307
   2984  C3'       32.9870    4.0070   51.5130 C.3   137  A137        0.1860
   2985  O3'       31.6370    3.9290   52.0070 O.3   137  A137       -0.3112
   2986  C2'       34.0610    3.6890   52.5510 C.3   137  A137        0.2309
   2987  O2'       33.7760    2.5420   53.3300 O.3   137  A137       -0.2156
   2988  C1'       35.2950    3.4380   51.6730 C.3   137  A137        0.2408
   2989  N1        37.2180    7.9600   49.9620 N.ar  137  A137       -0.2040
   2990  C2        36.1950    7.2130   49.5250 C.ar  137  A137        0.2016
   2991  N3        35.7390    6.0510   49.9930 N.ar  137  A137       -0.2048
   2992  C4        36.4670    5.6470   51.0510 C.ar  137  A137        0.1692
   2993  C5        37.5490    6.3060   51.6140 C.ar  137  A137        0.1518
   2994  C6        37.9330    7.5210   51.0260 C.ar  137  A137        0.1919
   2995  N6        38.9620    8.2550   51.4590 N.pl3 137  A137       -0.1054
   2996  N7        38.0580    5.5900   52.6870 N.ar  137  A137       -0.2193
   2997  C8        37.2890    4.5320   52.7520 C.ar  137  A137        0.1816
   2998  N9        36.3120    4.4930   51.7850 N.ar  137  A137       -0.2693
   2999  OP1       32.0920    6.7080   48.9970 O.3   137  A137       -0.4373
   3000  OP2       31.3650    5.4260   46.8690 O.co2 137  A137       -0.5172
   3001  P         30.7020    2.6570   52.3780 P.3   138  A138        0.2141
   3002  C5'       30.5560    0.3170   51.1980 C.3   138  A138        0.1812
   3003  O5'       31.1370    1.6290   51.2420 O.3   138  A138       -0.3114
   3004  C4'       30.3000   -0.1080   49.7750 C.3   138  A138        0.1773
   3005  O4'       31.1150    0.6890   48.8830 O.3   138  A138       -0.3307
   3006  C3'       30.6280   -1.5600   49.4410 C.3   138  A138        0.1860
   3007  O3'       29.4350   -2.3120   49.6640 O.3   138  A138       -0.3112
   3008  C2'       30.9340   -1.4990   47.9480 C.3   138  A138        0.2309
   3009  O2'       29.7270   -1.5630   47.2150 O.3   138  A138       -0.2156
   3010  C1'       31.5650   -0.1090   47.8020 C.3   138  A138        0.2408
   3011  N1        35.7270    2.2440   45.9050 N.ar  138  A138       -0.2040
   3012  C2        34.4210    2.3860   45.6470 C.ar  138  A138        0.2016
   3013  N3        33.3840    1.7370   46.1740 N.ar  138  A138       -0.2048
   3014  C4        33.7990    0.8360   47.0800 C.ar  138  A138        0.1692
   3015  C5        35.1030    0.5840   47.4580 C.ar  138  A138        0.1518
   3016  C6        36.1070    1.3380   46.8340 C.ar  138  A138        0.1919
   3017  N6        37.4070    1.2010   47.1010 N.pl3 138  A138       -0.1054
   3018  N7        35.1510   -0.4110   48.4200 N.ar  138  A138       -0.2193
   3019  C8        33.8930   -0.7290   48.6060 C.ar  138  A138        0.1816
   3020  N9        33.0250   -0.0430   47.7990 N.ar  138  A138       -0.2693
   3021  OP1       29.3310    3.0320   51.9970 O.2   138  A138       -0.5172
   3022  OP2       30.9330    2.1800   53.7710 O.co2 138  A138       -0.4373
   3023  P         29.3370   -3.5780   50.6640 P.3   139  C139        0.2141
   3024  C5'       29.2610   -2.3650   52.9630 C.3   139  C139        0.1812
   3025  O5'       28.5440   -3.1250   51.9740 O.3   139  C139       -0.3114
   3026  C4'       28.4960   -2.1530   54.2490 C.3   139  C139        0.1773
   3027  O4'       28.9390   -0.8850   54.8080 O.3   139  C139       -0.3307
   3028  C3'       26.9750   -2.0280   54.1920 C.3   139  C139        0.1860
   3029  O3'       26.2750   -3.2760   54.2020 O.3   139  C139       -0.3112
   3030  C2'       26.6750   -1.2340   55.4690 C.3   139  C139        0.2309
   3031  O2'       26.5420   -1.9150   56.7060 O.3   139  C139       -0.2156
   3032  C1'       27.8830   -0.3000   55.5550 C.3   139  C139        0.2420
   3033  N1        27.5870    1.0450   55.0290 N.ar  139  C139       -0.2535
   3034  C2        27.1830    2.0360   55.9330 C.ar  139  C139        0.3532
   3035  O2        27.1250    1.7590   57.1400 O.2   139  C139       -0.2443
   3036  N3        26.8830    3.2700   55.4720 N.ar  139  C139       -0.1739
   3037  C4        26.9470    3.5270   54.1630 C.ar  139  C139        0.1759
   3038  N4        26.6340    4.7610   53.7540 N.pl3 139  C139       -0.1070
   3039  C5        27.3300    2.5280   53.2150 C.ar  139  C139        0.0566
   3040  C6        27.6430    1.3140   53.6880 C.ar  139  C139        0.0850
   3041  OP1       30.7150   -3.8260   51.1630 O.3   139  C139       -0.4373
   3042  OP2       28.6140   -4.6400   49.8950 O.co2 139  C139       -0.5172
   3043  P         24.7130   -3.4840   54.6060 P.3   140  A140        0.2141
   3044  C5'       23.2710   -2.5890   56.6660 C.3   140  A140        0.1812
   3045  O5'       24.3970   -2.4490   55.7790 O.3   140  A140       -0.3114
   3046  C4'       22.9320   -1.2490   57.2860 C.3   140  A140        0.1773
   3047  O4'       23.9530   -0.2690   56.9350 O.3   140  A140       -0.3307
   3048  C3'       21.6120   -0.6410   56.8190 C.3   140  A140        0.1860
   3049  O3'       20.5230   -1.1610   57.5830 O.3   140  A140       -0.3112
   3050  C2'       21.8710    0.8640   56.9150 C.3   140  A140        0.2309
   3051  O2'       21.7360    1.4550   58.1910 O.3   140  A140       -0.2156
   3052  C1'       23.3480    0.9500   56.5320 C.3   140  A140        0.2408
   3053  N1        22.4780    3.7880   52.2960 N.ar  140  A140       -0.2040
   3054  C2        22.0230    3.8950   53.5490 C.ar  140  A140        0.2016
   3055  N3        22.2770    3.1270   54.6090 N.ar  140  A140       -0.2048
   3056  C4        23.1280    2.1390   54.2850 C.ar  140  A140        0.1692
   3057  C5        23.6820    1.9000   53.0390 C.ar  140  A140        0.1518
   3058  C6        23.3320    2.7830   52.0040 C.ar  140  A140        0.1919
   3059  N6        23.8010    2.6830   50.7590 N.pl3 140  A140       -0.1054
   3060  N7        24.5070    0.7850   53.0740 N.ar  140  A140       -0.2193
   3061  C8        24.4390    0.3830   54.3200 C.ar  140  A140        0.1816
   3062  N9        23.6140    1.1490   55.1070 N.ar  140  A140       -0.2693
   3063  OP1       24.4400   -4.7720   55.2870 O.3   140  A140       -0.4373
   3064  OP2       24.0420   -3.1760   53.3100 O.co2 140  A140       -0.5172
   3065  P         19.4690   -2.1610   56.8720 P.3   141  C141        0.2141
   3066  C5'       17.9500   -0.0360   56.6040 C.3   141  C141        0.1812
   3067  O5'       18.5010   -1.2240   56.0220 O.3   141  C141       -0.3114
   3068  C4'       17.9140    1.0680   55.5790 C.3   141  C141        0.1773
   3069  O4'       19.2540    1.3910   55.1240 O.3   141  C141       -0.3307
   3070  C3'       17.1860    0.7360   54.2910 C.3   141  C141        0.1860
   3071  O3'       15.7880    0.8290   54.5000 O.3   141  C141       -0.3112
   3072  C2'       17.7380    1.7830   53.3350 C.3   141  C141        0.2309
   3073  O2'       17.1130    3.0520   53.3770 O.3   141  C141       -0.2156
   3074  C1'       19.1990    1.8510   53.7840 C.3   141  C141        0.2420
   3075  N1        20.0600    0.9800   52.9830 N.ar  141  C141       -0.2535
   3076  C2        20.1340    1.1660   51.5970 C.ar  141  C141        0.3532
   3077  O2        19.4760    2.0750   51.0710 O.2   141  C141       -0.2443
   3078  N3        20.9140    0.3470   50.8650 N.ar  141  C141       -0.1739
   3079  C4        21.6170   -0.6110   51.4620 C.ar  141  C141        0.1759
   3080  N4        22.3730   -1.3950   50.6950 N.pl3 141  C141       -0.1070
   3081  C5        21.5580   -0.8260   52.8690 C.ar  141  C141        0.0566
   3082  C6        20.7670   -0.0210   53.5830 C.ar  141  C141        0.0850
   3083  OP1       18.6040   -2.7150   57.9550 O.3   141  C141       -0.4373
   3084  OP2       20.1730   -3.0700   55.8950 O.co2 141  C141       -0.5172
   3085  P         14.9730   -0.4450   54.0590 P.3   142  G142        0.2141
   3086  C5'       14.6740    0.6390   51.6790 C.3   142  G142        0.1812
   3087  O5'       15.1480   -0.4580   52.4790 O.3   142  G142       -0.3114
   3088  C4'       15.2310    0.5010   50.2980 C.3   142  G142        0.1773
   3089  O4'       16.6640    0.4020   50.4290 O.3   142  G142       -0.3307
   3090  C3'       14.8120   -0.7820   49.6000 C.3   142  G142        0.1860
   3091  O3'       13.6200   -0.6080   48.8370 O.3   142  G142       -0.3112
   3092  C2'       15.9900   -1.0780   48.6780 C.3   142  G142        0.2309
   3093  O2'       15.8400   -0.6110   47.3530 O.3   142  G142       -0.2156
   3094  C1'       17.1710   -0.4620   49.4340 C.3   142  G142        0.2408
   3095  N1        20.3290   -4.3310   48.6770 N.ar  142  G142       -0.1709
   3096  C2        19.8090   -3.4350   47.7760 C.ar  142  G142        0.2606
   3097  N2        20.1720   -3.5950   46.4950 N.pl3 142  G142       -0.0859
   3098  N3        18.9910   -2.4510   48.1040 N.ar  142  G142       -0.1918
   3099  C4        18.7370   -2.4260   49.4270 C.ar  142  G142        0.1723
   3100  C5        19.2110   -3.2630   50.4120 C.ar  142  G142        0.1748
   3101  C6        20.0910   -4.3170   50.0470 C.ar  142  G142        0.3023
   3102  O6        20.6220   -5.1670   50.7740 O.2   142  G142       -0.2633
   3103  N7        18.7080   -2.8980   51.6530 N.ar  142  G142       -0.2173
   3104  C8        17.9550   -1.8620   51.4030 C.ar  142  G142        0.1817
   3105  N9        17.9460   -1.5110   50.0760 N.ar  142  G142       -0.2693
   3106  OP1       13.5410   -0.1480   54.3100 O.2   142  G142       -0.5172
   3107  OP2       15.6510   -1.6090   54.6970 O.co2 142  G142       -0.4373
   3108  P         12.4240   -1.6940   48.8200 P.3   143  A143        0.2141
   3109  C5'       11.9120   -3.9350   47.5540 C.3   143  A143        0.1812
   3110  O5'       12.8760   -2.9350   47.9300 O.3   143  A143       -0.3114
   3111  C4'       12.3210   -4.5930   46.2740 C.3   143  A143        0.1773
   3112  O4'       11.7500   -3.8390   45.1760 O.3   143  A143       -0.3307
   3113  C3'       13.8190   -4.5720   46.0150 C.3   143  A143        0.1860
   3114  O3'       14.4610   -5.6790   46.6040 O.3   143  A143       -0.3112
   3115  C2'       13.8860   -4.6280   44.4990 C.3   143  A143        0.2309
   3116  O2'       13.7650   -5.9120   43.9530 O.3   143  A143       -0.2156
   3117  C1'       12.6760   -3.7780   44.1020 C.3   143  A143        0.2408
   3118  N1        15.0700   -0.4730   40.9660 N.ar  143  A143       -0.2040
   3119  C2        14.8650   -1.7930   40.8960 C.ar  143  A143        0.2016
   3120  N3        14.2340   -2.5960   41.7520 N.ar  143  A143       -0.2048
   3121  C4        13.7610   -1.8970   42.7980 C.ar  143  A143        0.1692
   3122  C5        13.8890   -0.5360   43.0100 C.ar  143  A143        0.1518
   3123  C6        14.5790    0.2020   42.0290 C.ar  143  A143        0.1919
   3124  N6        14.7820    1.5190   42.0970 N.pl3 143  A143       -0.1054
   3125  N7        13.2760   -0.1660   44.1990 N.ar  143  A143       -0.2193
   3126  C8        12.7990   -1.2920   44.6720 C.ar  143  A143        0.1816
   3127  N9        13.0380   -2.3770   43.8640 N.ar  143  A143       -0.2693
   3128  OP1       11.2480   -1.1420   48.1020 O.2   143  A143       -0.5172
   3129  OP2       12.2810   -2.1080   50.2300 O.co2 143  A143       -0.4373
   3130  P         15.7840   -5.4980   47.5090 P.3   144  A144        0.2141
   3131  C5'       17.1030   -6.5520   45.5440 C.3   144  A144        0.1812
   3132  O5'       16.8660   -5.3930   46.3500 O.3   144  A144       -0.3114
   3133  C4'       17.7890   -6.1830   44.2600 C.3   144  A144        0.1773
   3134  O4'       17.0170   -5.1790   43.5660 O.3   144  A144       -0.3307
   3135  C3'       19.1920   -5.6140   44.4130 C.3   144  A144        0.1860
   3136  O3'       20.0850   -6.7240   44.4240 O.3   144  A144       -0.3112
   3137  C2'       19.3260   -4.7080   43.1910 C.3   144  A144        0.2309
   3138  O2'       19.8700   -5.2940   42.0140 O.3   144  A144       -0.2156
   3139  C1'       17.8850   -4.2110   43.0080 C.3   144  A144        0.2408
   3140  N1        17.7620    0.9440   42.5530 N.ar  144  A144       -0.2040
   3141  C2        18.1350   -0.0160   41.6980 C.ar  144  A144        0.2016
   3142  N3        18.1500   -1.3380   41.8680 N.ar  144  A144       -0.2048
   3143  C4        17.6900   -1.6660   43.0900 C.ar  144  A144        0.1692
   3144  C5        17.2540   -0.7930   44.0690 C.ar  144  A144        0.1518
   3145  C6        17.3030    0.5790   43.7710 C.ar  144  A144        0.1919
   3146  N6        16.9150    1.5290   44.6220 N.pl3 144  A144       -0.1054
   3147  N7        16.8510   -1.4870   45.1990 N.ar  144  A144       -0.2193
   3148  C8        17.0690   -2.7410   44.8930 C.ar  144  A144        0.1816
   3149  N9        17.5830   -2.9230   43.6360 N.ar  144  A144       -0.2693
   3150  OP1       16.0830   -6.8280   48.1190 O.2   144  A144       -0.5172
   3151  OP2       15.7160   -4.2770   48.3890 O.co2 144  A144       -0.4373
   3152  P         21.1580   -6.9280   45.5970 P.3   145  C145        0.2141
   3153  C5'       21.9150   -8.3350   43.4970 C.3   145  C145        0.1812
   3154  O5'       22.2210   -7.7880   44.7840 O.3   145  C145       -0.3114
   3155  C4'       22.2250   -9.8100   43.5100 C.3   145  C145        0.1773
   3156  O4'       22.6940  -10.2320   42.2040 O.3   145  C145       -0.3307
   3157  C3'       23.3390  -10.2600   44.4430 C.3   145  C145        0.1860
   3158  O3'       22.8440  -10.4240   45.7710 O.3   145  C145       -0.3112
   3159  C2'       23.7040  -11.6080   43.8480 C.3   145  C145        0.2309
   3160  O2'       22.6930  -12.5340   44.1630 O.3   145  C145       -0.2156
   3161  C1'       23.5470  -11.3460   42.3510 C.3   145  C145        0.2420
   3162  N1        24.8070  -11.0450   41.6710 N.ar  145  C145       -0.2535
   3163  C2        25.7170  -12.0830   41.4260 C.ar  145  C145        0.3532
   3164  O2        25.4390  -13.2350   41.8100 O.2   145  C145       -0.2443
   3165  N3        26.8780  -11.8050   40.7850 N.ar  145  C145       -0.1739
   3166  C4        27.1420  -10.5550   40.3940 C.ar  145  C145        0.1759
   3167  N4        28.3020  -10.3270   39.7800 N.pl3 145  C145       -0.1070
   3168  C5        26.2330   -9.4830   40.6290 C.ar  145  C145        0.0566
   3169  C6        25.0890   -9.7710   41.2640 C.ar  145  C145        0.0850
   3170  OP1       20.5960   -7.6490   46.7790 O.3   145  C145       -0.4373
   3171  OP2       21.8390   -5.6250   45.8000 O.co2 145  C145       -0.5172
   3172  P         23.7980  -10.7540   47.0330 P.3   146  U146        0.2141
   3173  C5'       24.3300  -13.2320   47.8850 C.3   146  U146        0.1812
   3174  O5'       24.0570  -12.3120   46.8040 O.3   146  U146       -0.3114
   3175  C4'       25.5780  -14.0390   47.5960 C.3   146  U146        0.1773
   3176  O4'       25.9280  -14.0020   46.1870 O.3   146  U146       -0.3307
   3177  C3'       26.8220  -13.5310   48.2970 C.3   146  U146        0.1860
   3178  O3'       26.8020  -14.1060   49.5890 O.3   146  U146       -0.3112
   3179  C2'       27.9600  -14.0860   47.4420 C.3   146  U146        0.2309
   3180  O2'       28.4670  -15.3310   47.8740 O.3   146  U146       -0.2156
   3181  C1'       27.3230  -14.1790   46.0530 C.3   146  U146        0.2420
   3182  N1        27.8420  -13.1800   45.1100 N.ar  146  U146       -0.2534
   3183  C2        28.9730  -13.5200   44.3910 C.ar  146  U146        0.3546
   3184  O2        29.5400  -14.5850   44.5180 O.2   146  U146       -0.2443
   3185  N3        29.4200  -12.5570   43.5230 N.ar  146  U146       -0.1530
   3186  C4        28.8730  -11.3140   43.3040 C.ar  146  U146        0.2846
   3187  O4        29.3950  -10.5630   42.4810 O.2   146  U146       -0.2650
   3188  C5        27.7060  -11.0280   44.0900 C.ar  146  U146        0.0814
   3189  C6        27.2450  -11.9480   44.9500 C.ar  146  U146        0.0870
   3190  OP1       23.0430  -10.5180   48.3050 O.3   146  U146       -0.4373
   3191  OP2       25.1380  -10.1370   46.8270 O.co2 146  U146       -0.5172
   3192  P         27.6260  -13.3310   50.6810 P.3   147  U147        0.2141
   3193  C5'       29.6380  -14.9830   50.6240 C.3   147  U147        0.1812
   3194  O5'       29.1160  -13.7050   50.2700 O.3   147  U147       -0.3114
   3195  C4'       31.0750  -15.0650   50.2060 C.3   147  U147        0.1773
   3196  O4'       31.1670  -14.9800   48.7670 O.3   147  U147       -0.3307
   3197  C3'       31.9560  -13.9360   50.6980 C.3   147  U147        0.1860
   3198  O3'       32.4830  -14.3490   51.9360 O.3   147  U147       -0.3112
   3199  C2'       33.1070  -13.9780   49.7120 C.3   147  U147        0.2309
   3200  O2'       34.0860  -14.9230   50.1000 O.3   147  U147       -0.2156
   3201  C1'       32.3940  -14.3700   48.4160 C.3   147  U147        0.2420
   3202  N1        32.1050  -13.2220   47.5460 N.ar  147  U147       -0.2534
   3203  C2        33.1120  -12.7850   46.7060 C.ar  147  U147        0.3546
   3204  O2        34.2170  -13.2980   46.6730 O.2   147  U147       -0.2443
   3205  N3        32.7770  -11.7170   45.9150 N.ar  147  U147       -0.1530
   3206  C4        31.5680  -11.0570   45.8700 C.ar  147  U147        0.2846
   3207  O4        31.4220  -10.1180   45.0900 O.2   147  U147       -0.2650
   3208  C5        30.5760  -11.5690   46.7670 C.ar  147  U147        0.0814
   3209  C6        30.8720  -12.6060   47.5570 C.ar  147  U147        0.0870
   3210  OP1       27.3260  -13.9020   52.0390 O.3   147  U147       -0.4373
   3211  OP2       27.3940  -11.8920   50.3790 O.co2 147  U147       -0.5172
   3212  P         32.5740  -13.2650   53.0610 P.3   148  C148        0.2141
   3213  C5'       34.5660  -11.9250   52.0840 C.3   148  C148        0.1812
   3214  O5'       34.1210  -12.9400   52.9620 O.3   148  C148       -0.3114
   3215  C4'       35.9330  -12.2780   51.6130 C.3   148  C148        0.1773
   3216  O4'       35.8440  -12.7600   50.2550 O.3   148  C148       -0.3307
   3217  C3'       36.8780  -11.1000   51.5720 C.3   148  C148        0.1860
   3218  O3'       37.6630  -11.2290   52.7230 O.3   148  C148       -0.3112
   3219  C2'       37.6960  -11.3660   50.3250 C.3   148  C148        0.2309
   3220  O2'       38.6900  -12.3130   50.6410 O.3   148  C148       -0.2156
   3221  C1'       36.6200  -11.9330   49.4020 C.3   148  C148        0.2420
   3222  N1        35.7250  -10.9130   48.7840 N.ar  148  C148       -0.2535
   3223  C2        36.2250  -10.0600   47.7880 C.ar  148  C148        0.3532
   3224  O2        37.4080  -10.1710   47.4360 O.2   148  C148       -0.2443
   3225  N3        35.4050   -9.1320   47.2420 N.ar  148  C148       -0.1739
   3226  C4        34.1360   -9.0410   47.6490 C.ar  148  C148        0.1759
   3227  N4        33.3650   -8.1130   47.0900 N.pl3 148  C148       -0.1070
   3228  C5        33.6010   -9.9000   48.6500 C.ar  148  C148        0.0566
   3229  C6        34.4200  -10.8140   49.1830 C.ar  148  C148        0.0850
   3230  OP1       32.2630  -13.9030   54.3680 O.3   148  C148       -0.4373
   3231  OP2       31.8380  -12.0590   52.6340 O.co2 148  C148       -0.5172
   3232  P         37.7970   -9.8530   53.4690 P.3   149  A149        0.2141
   3233  C5'       40.1520   -9.6810   52.3020 C.3   149  A149        0.1812
   3234  O5'       38.8140   -9.1620   52.4550 O.3   149  A149       -0.3114
   3235  C4'       40.9220   -8.8530   51.3070 C.3   149  A149        0.1773
   3236  O4'       40.2870   -8.9600   50.0030 O.3   149  A149       -0.3307
   3237  C3'       40.9620   -7.3510   51.5740 C.3   149  A149        0.1860
   3238  O3'       41.9810   -6.9330   52.4640 O.3   149  A149       -0.3112
   3239  C2'       41.2690   -6.8100   50.1920 C.3   149  A149        0.2309
   3240  O2'       42.6400   -6.9290   49.8850 O.3   149  A149       -0.2156
   3241  C1'       40.3950   -7.7170   49.3250 C.3   149  A149        0.2408
   3242  N1        37.6700   -4.0120   47.0640 N.ar  149  A149       -0.2040
   3243  C2        38.9720   -4.3340   47.0270 C.ar  149  A149        0.2016
   3244  N3        39.6140   -5.3230   47.6450 N.ar  149  A149       -0.2048
   3245  C4        38.7620   -6.0460   48.3930 C.ar  149  A149        0.1692
   3246  C5        37.4020   -5.8380   48.5400 C.ar  149  A149        0.1518
   3247  C6        36.8420   -4.7580   47.8280 C.ar  149  A149        0.1919
   3248  N6        35.5480   -4.4320   47.8710 N.pl3 149  A149       -0.1054
   3249  N7        36.8500   -6.7850   49.3910 N.ar  149  A149       -0.2193
   3250  C8        37.8710   -7.5320   49.7350 C.ar  149  A149        0.1816
   3251  N9        39.0560   -7.1520   49.1540 N.ar  149  A149       -0.2693
   3252  OP1       38.4640  -10.1440   54.7710 O.3   149  A149       -0.4373
   3253  OP2       36.5030   -9.1120   53.4300 O.co2 149  A149       -0.5172
   3254  P         41.6170   -5.8100   53.5470 P.3   150  U150        0.2141
   3255  C5'       43.1260   -4.3290   51.9670 C.3   150  U150        0.1812
   3256  O5'       41.9130   -4.4920   52.7170 O.3   150  U150       -0.3114
   3257  C4'       43.0070   -3.0750   51.1330 C.3   150  U150        0.1773
   3258  O4'       42.1230   -3.3250   50.0040 O.3   150  U150       -0.3307
   3259  C3'       42.3740   -1.8740   51.8270 C.3   150  U150        0.1860
   3260  O3'       43.2700   -1.1530   52.6590 O.3   150  U150       -0.3112
   3261  C2'       41.8740   -1.0480   50.6470 C.3   150  U150        0.2309
   3262  O2'       42.8220   -0.2010   50.0270 O.3   150  U150       -0.2156
   3263  C1'       41.3970   -2.1440   49.6950 C.3   150  U150        0.2420
   3264  N1        39.9720   -2.4190   49.8880 N.ar  150  U150       -0.2534
   3265  C2        39.0640   -1.5950   49.2500 C.ar  150  U150        0.3546
   3266  O2        39.4000   -0.6790   48.5110 O.2   150  U150       -0.2443
   3267  N3        37.7470   -1.8880   49.5030 N.ar  150  U150       -0.1530
   3268  C4        37.2540   -2.8890   50.3160 C.ar  150  U150        0.2846
   3269  O4        36.0370   -3.0300   50.4350 O.2   150  U150       -0.2650
   3270  C5        38.2570   -3.6920   50.9430 C.ar  150  U150        0.0814
   3271  C6        39.5490   -3.4310   50.7210 C.ar  150  U150        0.0870
   3272  OP1       42.6410   -5.8910   54.6150 O.3   150  U150       -0.4373
   3273  OP2       40.1720   -5.7460   53.9190 O.co2 150  U150       -0.5172
   3274  P         42.6180   -0.4740   53.9260 P.3   151  A151        0.2141
   3275  C5'       43.9790    1.5620   52.9230 C.3   151  A151        0.1812
   3276  O5'       42.8760    1.0860   53.7160 O.3   151  A151       -0.3114
   3277  C4'       44.2550    3.0270   53.1860 C.3   151  A151        0.1773
   3278  O4'       43.8500    3.8180   52.0410 O.3   151  A151       -0.3307
   3279  C3'       43.5870    3.6670   54.4090 C.3   151  A151        0.1860
   3280  O3'       44.5800    4.4100   55.1150 O.3   151  A151       -0.3112
   3281  C2'       42.5230    4.5780   53.7990 C.3   151  A151        0.2309
   3282  O2'       42.2560    5.7780   54.4900 O.3   151  A151       -0.2156
   3283  C1'       43.1820    4.9750   52.4870 C.3   151  A151        0.2408
   3284  N1        39.2060    3.3570   49.6930 N.ar  151  A151       -0.2040
   3285  C2        39.9370    2.7700   50.6520 C.ar  151  A151        0.2016
   3286  N3        40.9610    3.2580   51.3490 N.ar  151  A151       -0.2048
   3287  C4        41.2350    4.5180   50.9680 C.ar  151  A151        0.1692
   3288  C5        40.5810    5.2540   49.9950 C.ar  151  A151        0.1518
   3289  C6        39.5070    4.6250   49.3340 C.ar  151  A151        0.1919
   3290  N6        38.7700    5.2130   48.3880 N.pl3 151  A151       -0.1054
   3291  N7        41.1400    6.5190   49.8790 N.ar  151  A151       -0.2193
   3292  C8        42.1020    6.5210   50.7690 C.ar  151  A151        0.1816
   3293  N9        42.2130    5.3440   51.4670 N.ar  151  A151       -0.2693
   3294  OP1       43.4480   -1.0020   55.0440 O.3   151  A151       -0.4373
   3295  OP2       41.1450   -0.7090   53.9220 O.co2 151  A151       -0.5172
   3296  P         44.4290    4.9360   56.6150 P.3   152  U152        0.2141
   3297  C5'       46.9820    4.2680   56.9580 C.3   152  U152        0.1812
   3298  O5'       45.6120    4.2250   57.4140 O.3   152  U152       -0.3114
   3299  C4'       47.4640    2.8720   56.6290 C.3   152  U152        0.1773
   3300  O4'       47.6190    2.1030   57.8440 O.3   152  U152       -0.3307
   3301  C3'       46.5340    2.0690   55.7240 C.3   152  U152        0.1860
   3302  O3'       47.0550    1.8830   54.4190 O.3   152  U152       -0.3112
   3303  C2'       46.2520    0.7620   56.4730 C.3   152  U152        0.2309
   3304  O2'       46.4080   -0.4050   55.6910 O.3   152  U152       -0.2156
   3305  C1'       47.3010    0.7550   57.5830 C.3   152  U152        0.2420
   3306  N1        46.7880    0.1560   58.8260 N.ar  152  U152       -0.2534
   3307  C2        46.2310   -1.1120   58.7630 C.ar  152  U152        0.3546
   3308  O2        46.1590   -1.7580   57.7290 O.2   152  U152       -0.2443
   3309  N3        45.7630   -1.5940   59.9610 N.ar  152  U152       -0.1530
   3310  C4        45.7850   -0.9580   61.1870 C.ar  152  U152        0.2846
   3311  O4        45.3210   -1.5280   62.1760 O.2   152  U152       -0.2650
   3312  C5        46.3670    0.3500   61.1670 C.ar  152  U152        0.0814
   3313  C6        46.8370    0.8500   60.0170 C.ar  152  U152        0.0870
   3314  OP1       43.1300    4.4580   57.1590 O.3   152  U152       -0.4373
   3315  OP2       44.7040    6.3910   56.5440 O.co2 152  U152       -0.5172
   3316  P         48.5820    1.5840   54.0950 P.3   153  G153        0.2141
   3317  C5'       47.1580    0.8640   51.9970 C.3   153  G153        0.1812
   3318  O5'       48.3740    1.4420   52.5210 O.3   153  G153       -0.3114
   3319  C4'       46.9440    1.2390   50.5460 C.3   153  G153        0.1773
   3320  O4'       46.2650    2.5210   50.4640 O.3   153  G153       -0.3307
   3321  C3'       48.1940    1.3700   49.6860 C.3   153  G153        0.1860
   3322  O3'       47.9200    0.9010   48.3750 O.3   153  G153       -0.3112
   3323  C2'       48.4850    2.8660   49.7440 C.3   153  G153        0.2309
   3324  O2'       49.2080    3.4400   48.6780 O.3   153  G153       -0.2156
   3325  C1'       47.0770    3.4540   49.7770 C.3   153  G153        0.2408
   3326  N1        45.6310    8.3350   49.8950 N.ar  153  G153       -0.1709
   3327  C2        45.4480    7.4030   48.9060 C.ar  153  G153        0.2606
   3328  N2        44.7940    7.8260   47.8180 N.pl3 153  G153       -0.0859
   3329  N3        45.8710    6.1500   48.9810 N.ar  153  G153       -0.1918
   3330  C4        46.5030    5.8990   50.1490 C.ar  153  G153        0.1723
   3331  C5        46.7350    6.7590   51.2030 C.ar  153  G153        0.1748
   3332  C6        46.2740    8.1010   51.1070 C.ar  153  G153        0.3023
   3333  O6        46.3810    9.0160   51.9360 O.2   153  G153       -0.2633
   3334  N7        47.4200    6.1130   52.2250 N.ar  153  G153       -0.2173
   3335  C8        47.5850    4.8960   51.7840 C.ar  153  G153        0.1817
   3336  N9        47.0520    4.6970   50.5320 N.ar  153  G153       -0.2693
   3337  OP1       48.9620    0.2730   54.6880 O.3   153  G153       -0.4373
   3338  OP2       49.3790    2.8030   54.4050 O.co2 153  G153       -0.5172
   3339  P         48.8550   -0.2200   47.7490 P.3   154  A154        0.2141
   3340  C5'       47.6060   -2.2680   48.9200 C.3   154  A154        0.1812
   3341  O5'       47.8980   -1.4930   47.7300 O.3   154  A154       -0.3114
   3342  C4'       46.3600   -3.1010   48.6900 C.3   154  A154        0.1773
   3343  O4'       45.2020   -2.2300   48.7850 O.3   154  A154       -0.3307
   3344  C3'       46.2570   -3.7510   47.3070 C.3   154  A154        0.1860
   3345  O3'       46.9820   -4.9540   47.1470 O.3   154  A154       -0.3112
   3346  C2'       44.7550   -3.7760   47.0210 C.3   154  A154        0.2309
   3347  O2'       43.9650   -4.8870   47.3850 O.3   154  A154       -0.2156
   3348  C1'       44.2940   -2.5090   47.7290 C.3   154  A154        0.2408
   3349  N1        41.9320   -0.3980   43.7260 N.ar  154  A154       -0.2040
   3350  C2        41.6920   -1.5060   44.4360 C.ar  154  A154        0.2016
   3351  N3        42.3590   -1.9990   45.4780 N.ar  154  A154       -0.2048
   3352  C4        43.4050   -1.2130   45.7850 C.ar  154  A154        0.1692
   3353  C5        43.7810   -0.0460   45.1480 C.ar  154  A154        0.1518
   3354  C6        42.9980    0.3650   44.0600 C.ar  154  A154        0.1919
   3355  N6        43.2460    1.4660   43.3470 N.pl3 154  A154       -0.1054
   3356  N7        44.9090    0.4980   45.7450 N.ar  154  A154       -0.2193
   3357  C8        45.1860   -0.3400   46.7120 C.ar  154  A154        0.1816
   3358  N9        44.3030   -1.3860   46.8070 N.ar  154  A154       -0.2693
   3359  OP1       49.9490   -0.5170   48.7150 O.3   154  A154       -0.4373
   3360  OP2       49.1740    0.1660   46.3430 O.co2 154  A154       -0.5172
   3361  P         47.9760   -4.7610   45.9180 P.3   155  G155        0.2141
   3362  C5'       46.4210   -5.2640   43.8390 C.3   155  G155        0.1812
   3363  O5'       47.1140   -4.3220   44.6580 O.3   155  G155       -0.3114
   3364  C4'       45.5980   -4.4890   42.8590 C.3   155  G155        0.1773
   3365  O4'       45.0740   -3.3150   43.5410 O.3   155  G155       -0.3307
   3366  C3'       46.3650   -3.8860   41.6970 C.3   155  G155        0.1860
   3367  O3'       46.6360   -4.7670   40.6230 O.3   155  G155       -0.3112
   3368  C2'       45.4290   -2.7640   41.2730 C.3   155  G155        0.2309
   3369  O2'       44.3140   -3.1950   40.5180 O.3   155  G155       -0.2156
   3370  C1'       45.0130   -2.2190   42.6370 C.3   155  G155        0.2408
   3371  N1        46.4620    2.6180   42.1680 N.ar  155  G155       -0.1709
   3372  C2        45.4350    1.9500   41.5450 C.ar  155  G155        0.2606
   3373  N2        44.7010    2.6610   40.6770 N.pl3 155  G155       -0.0859
   3374  N3        45.1460    0.6780   41.7570 N.ar  155  G155       -0.1918
   3375  C4        45.9870    0.1110   42.6500 C.ar  155  G155        0.1723
   3376  C5        47.0500    0.6840   43.3160 C.ar  155  G155        0.1748
   3377  C6        47.3480    2.0510   43.0810 C.ar  155  G155        0.3023
   3378  O6        48.2510    2.7380   43.5760 O.2   155  G155       -0.2633
   3379  N7        47.6730   -0.2440   44.1430 N.ar  155  G155       -0.2173
   3380  C8        46.9890   -1.3420   43.9670 C.ar  155  G155        0.1817
   3381  N9        45.9410   -1.1910   43.0890 N.ar  155  G155       -0.2693
   3382  OP1       48.6320   -6.0810   45.7380 O.2   155  G155       -0.5172
   3383  OP2       48.7730   -3.5140   46.0410 O.co2 155  G155       -0.4373
   3384  P         47.9010   -4.3840   39.7280 P.3   156  G156        0.2141
   3385  C5'       46.4570   -3.3710   37.7680 C.3   156  G156        0.1812
   3386  O5'       47.3320   -3.1660   38.8770 O.3   156  G156       -0.3114
   3387  C4'       46.1340   -2.0310   37.1600 C.3   156  G156        0.1773
   3388  O4'       45.8690   -1.0960   38.2390 O.3   156  G156       -0.3307
   3389  C3'       47.2610   -1.3670   36.3820 C.3   156  G156        0.1860
   3390  O3'       47.3880   -1.8040   35.0310 O.3   156  G156       -0.3112
   3391  C2'       46.8730    0.1020   36.4510 C.3   156  G156        0.2309
   3392  O2'       45.9410    0.5090   35.4730 O.3   156  G156       -0.2156
   3393  C1'       46.3040    0.2000   37.8680 C.3   156  G156        0.2408
   3394  N1        49.1090    4.1100   39.4710 N.ar  156  G156       -0.1709
   3395  C2        48.1770    4.0580   38.4620 C.ar  156  G156        0.2606
   3396  N2        47.9780    5.1940   37.7780 N.pl3 156  G156       -0.0859
   3397  N3        47.4920    2.9720   38.1450 N.ar  156  G156       -0.1918
   3398  C4        47.8320    1.9170   38.9170 C.ar  156  G156        0.1723
   3399  C5        48.7540    1.8610   39.9420 C.ar  156  G156        0.1748
   3400  C6        49.4720    3.0390   40.2810 C.ar  156  G156        0.3023
   3401  O6        50.3250    3.1940   41.1610 O.2   156  G156       -0.2633
   3402  N7        48.8080    0.5840   40.4860 N.ar  156  G156       -0.2173
   3403  C8        47.9370   -0.1000   39.7950 C.ar  156  G156        0.1817
   3404  N9        47.3030    0.6500   38.8320 N.ar  156  G156       -0.2693
   3405  OP1       48.1730   -5.5340   38.8300 O.2   156  G156       -0.5172
   3406  OP2       48.9690   -3.9070   40.6490 O.co2 156  G156       -0.4373
   3407  P         48.8630   -2.0590   34.4130 P.3   157  C157        0.2141
   3408  C5'       50.1410    0.0670   33.5560 C.3   157  C157        0.1812
   3409  O5'       48.9940   -0.7760   33.4840 O.3   157  C157       -0.3114
   3410  C4'       49.6930    1.4860   33.7480 C.3   157  C157        0.1773
   3411  O4'       49.1150    1.6280   35.0730 O.3   157  C157       -0.3307
   3412  C3'       50.8140    2.5050   33.6810 C.3   157  C157        0.1860
   3413  O3'       50.9750    2.8470   32.3110 O.3   157  C157       -0.3112
   3414  C2'       50.3270    3.5960   34.6270 C.3   157  C157        0.2309
   3415  O2'       49.3210    4.4440   34.1230 O.3   157  C157       -0.2156
   3416  C1'       49.6610    2.7630   35.7170 C.3   157  C157        0.2420
   3417  N1        50.5770    2.3020   36.7720 N.ar  157  C157       -0.2535
   3418  C2        51.4010    3.2340   37.4090 C.ar  157  C157        0.3532
   3419  O2        51.3460    4.4220   37.0580 O.2   157  C157       -0.2443
   3420  N3        52.2370    2.8170   38.3870 N.ar  157  C157       -0.1739
   3421  C4        52.2700    1.5270   38.7330 C.ar  157  C157        0.1759
   3422  N4        53.1140    1.1590   39.6980 N.pl3 157  C157       -0.1070
   3423  C5        51.4350    0.5570   38.1060 C.ar  157  C157        0.0566
   3424  C6        50.6110    0.9850   37.1400 C.ar  157  C157        0.0850
   3425  OP1       48.8330   -3.1890   33.4520 O.2   157  C157       -0.5172
   3426  OP2       49.8940   -2.0320   35.4840 O.co2 157  C157       -0.4373
   3427  P         52.3070    2.3210   31.5940 P.3   158  U158        0.2141
   3428  C5'       52.9120    4.8240   32.2530 C.3   158  U158        0.1812
   3429  O5'       53.3540    3.4910   31.8930 O.3   158  U158       -0.3114
   3430  C4'       54.0540    5.6730   32.7620 C.3   158  U158        0.1773
   3431  O4'       53.9570    5.8190   34.2060 O.3   158  U158       -0.3307
   3432  C3'       55.4460    5.1120   32.5360 C.3   158  U158        0.1860
   3433  O3'       55.9060    5.3520   31.2150 O.3   158  U158       -0.3112
   3434  C2'       56.2500    5.8250   33.6160 C.3   158  U158        0.2309
   3435  O2'       56.6720    7.1300   33.2700 O.3   158  U158       -0.2156
   3436  C1'       55.2570    5.8130   34.7790 C.3   158  U158        0.2420
   3437  N1        55.3950    4.6030   35.6030 N.ar  158  U158       -0.2534
   3438  C2        56.3620    4.5900   36.5970 C.ar  158  U158        0.3546
   3439  O2        57.0830    5.5450   36.8390 O.2   158  U158       -0.2443
   3440  N3        56.4380    3.4160   37.3070 N.ar  158  U158       -0.1530
   3441  C4        55.6800    2.2760   37.1240 C.ar  158  U158        0.2846
   3442  O4        55.8730    1.2960   37.8440 O.2   158  U158       -0.2650
   3443  C5        54.7130    2.3690   36.0750 C.ar  158  U158        0.0814
   3444  C6        54.6050    3.5000   35.3690 C.ar  158  U158        0.0870
   3445  OP1       51.8640    2.2380   30.1770 O.2   158  U158       -0.5172
   3446  OP2       52.8620    1.1140   32.2620 O.co2 158  U158       -0.4373
   3447  P         57.0800    4.4290   30.6500 P.3   159  A159        0.2141
   3448  C5'       58.9600    6.2070   31.1890 C.3   159  A159        0.1812
   3449  O5'       58.3650    4.9290   31.4570 O.3   159  A159       -0.3114
   3450  C4'       60.2100    6.3790   32.0020 C.3   159  A159        0.1773
   3451  O4'       59.8890    6.4010   33.4130 O.3   159  A159       -0.3307
   3452  C3'       61.2190    5.2400   31.9730 C.3   159  A159        0.1860
   3453  O3'       61.9660    4.9970   30.7920 O.3   159  A159       -0.3112
   3454  C2'       62.1140    5.6090   33.1540 C.3   159  A159        0.2309
   3455  O2'       63.2030    6.4810   32.9120 O.3   159  A159       -0.2156
   3456  C1'       61.0850    6.1540   34.1500 C.3   159  A159        0.2408
   3457  N1        58.3970    1.9790   35.5910 N.ar  159  A159       -0.2040
   3458  C2        58.3090    2.7680   34.5090 C.ar  159  A159        0.2016
   3459  N3        59.0270    3.8430   34.1890 N.ar  159  A159       -0.2048
   3460  C4        59.9450    4.1000   35.1400 C.ar  159  A159        0.1692
   3461  C5        60.1560    3.3810   36.3060 C.ar  159  A159        0.1518
   3462  C6        59.3300    2.2660   36.5280 C.ar  159  A159        0.1919
   3463  N6        59.4240    1.4780   37.6030 N.pl3 159  A159       -0.1054
   3464  N7        61.1860    3.9410   37.0490 N.ar  159  A159       -0.2193
   3465  C8        61.5700    4.9670   36.3290 C.ar  159  A159        0.1816
   3466  N9        60.8380    5.1450   35.1800 N.ar  159  A159       -0.2693
   3467  OP1       57.1020    4.8040   29.2090 O.2   159  A159       -0.5172
   3468  OP2       56.8640    3.0070   31.0410 O.co2 159  A159       -0.4373
   3469  P         62.6680    3.5490   30.7310 P.3   160  G160        0.2141
   3470  C5'       63.5470    2.5560   33.0340 C.3   160  G160        0.1812
   3471  O5'       63.7060    3.4860   31.9430 O.3   160  G160       -0.3114
   3472  C4'       64.5940    2.8290   34.0810 C.3   160  G160        0.1773
   3473  O4'       63.9780    2.9630   35.3920 O.3   160  G160       -0.3307
   3474  C3'       65.6010    1.7220   34.3330 C.3   160  G160        0.1860
   3475  O3'       66.5570    1.4230   33.3250 O.3   160  G160       -0.3112
   3476  C2'       66.1990    2.1710   35.6610 C.3   160  G160        0.2309
   3477  O2'       67.1990    3.1700   35.6080 O.3   160  G160       -0.2156
   3478  C1'       64.9380    2.6280   36.3970 C.3   160  G160        0.2408
   3479  N1        61.4580   -1.0620   36.8720 N.ar  160  G160       -0.1709
   3480  C2        61.5710   -0.1000   35.8990 C.ar  160  G160        0.2606
   3481  N2        60.6470   -0.1290   34.9300 N.pl3 160  G160       -0.0859
   3482  N3        62.5170    0.8250   35.8820 N.ar  160  G160       -0.1918
   3483  C4        63.3640    0.7000   36.9260 C.ar  160  G160        0.1723
   3484  C5        63.3440   -0.2300   37.9440 C.ar  160  G160        0.1748
   3485  C6        62.3210   -1.2130   37.9530 C.ar  160  G160        0.3023
   3486  O6        62.1350   -2.1230   38.7690 O.2   160  G160       -0.2633
   3487  N7        64.3940   -0.0180   38.8270 N.ar  160  G160       -0.2173
   3488  C8        65.0200    1.0190   38.3420 C.ar  160  G160        0.1817
   3489  N9        64.4320    1.5210   37.2050 N.ar  160  G160       -0.2693
   3490  OP1       63.4210    3.5380   29.4500 O.2   160  G160       -0.5172
   3491  OP2       61.6220    2.5180   30.9630 O.co2 160  G160       -0.4373
   3492  P         67.1960   -0.0500   33.4340 P.3   161  G161        0.2141
   3493  C5'       69.5140   -0.3590   34.6840 C.3   161  G161        0.1812
   3494  O5'       68.1250    0.0250   34.7280 O.3   161  G161       -0.3114
   3495  C4'       69.9630   -0.9010   36.0230 C.3   161  G161        0.1773
   3496  O4'       68.9740   -0.5870   37.0440 O.3   161  G161       -0.3307
   3497  C3'       70.1300   -2.4110   36.0950 C.3   161  G161        0.1860
   3498  O3'       71.4140   -2.8260   35.6510 O.3   161  G161       -0.3112
   3499  C2'       69.9170   -2.6900   37.5760 C.3   161  G161        0.2309
   3500  O2'       71.0500   -2.4250   38.3750 O.3   161  G161       -0.2156
   3501  C1'       68.7980   -1.7020   37.9030 C.3   161  G161        0.2408
   3502  N1        65.2720   -4.9710   39.5310 N.ar  161  G161       -0.1709
   3503  C2        66.5240   -4.7150   40.0370 C.ar  161  G161        0.2606
   3504  N2        66.8830   -5.4220   41.1190 N.pl3 161  G161       -0.0859
   3505  N3        67.3630   -3.8320   39.5200 N.ar  161  G161       -0.1918
   3506  C4        66.8410   -3.2150   38.4390 C.ar  161  G161        0.1723
   3507  C5        65.6060   -3.3990   37.8540 C.ar  161  G161        0.1748
   3508  C6        64.7160   -4.3490   38.4180 C.ar  161  G161        0.3023
   3509  O6        63.5800   -4.6590   38.0430 O.2   161  G161       -0.2633
   3510  N7        65.4520   -2.5680   36.7530 N.ar  161  G161       -0.2173
   3511  C8        66.5750   -1.9060   36.6900 C.ar  161  G161        0.1817
   3512  N9        67.4610   -2.2480   37.6840 N.ar  161  G161       -0.2693
   3513  OP1       68.0440   -0.2520   32.2380 O.2   161  G161       -0.5172
   3514  OP2       66.1060   -1.0150   33.7230 O.co2 161  G161       -0.4373
   3515  P         71.4800   -4.0810   34.6650 P.3   162  U162        0.2141
   3516  C5'       70.6150   -6.4480   35.4730 C.3   162  U162        0.1812
   3517  O5'       70.3510   -5.0530   35.2350 O.3   162  U162       -0.3114
   3518  C4'       70.9380   -6.6830   36.9310 C.3   162  U162        0.1773
   3519  O4'       69.9730   -5.9690   37.7580 O.3   162  U162       -0.3307
   3520  C3'       70.8580   -8.1380   37.3810 C.3   162  U162        0.1860
   3521  O3'       72.0570   -8.8830   37.1810 O.3   162  U162       -0.3112
   3522  C2'       70.4140   -8.0130   38.8330 C.3   162  U162        0.2309
   3523  O2'       71.4620   -7.7560   39.7470 O.3   162  U162       -0.2156
   3524  C1'       69.4310   -6.8460   38.7300 C.3   162  U162        0.2420
   3525  N1        68.0820   -7.2430   38.2930 N.ar  162  U162       -0.2534
   3526  C2        67.3260   -8.0170   39.1560 C.ar  162  U162        0.3546
   3527  O2        67.7280   -8.3760   40.2500 O.2   162  U162       -0.2443
   3528  N3        66.0800   -8.3520   38.6870 N.ar  162  U162       -0.1530
   3529  C4        65.5160   -7.9970   37.4800 C.ar  162  U162        0.2846
   3530  O4        64.3750   -8.3740   37.2090 O.2   162  U162       -0.2650
   3531  C5        66.3610   -7.2010   36.6420 C.ar  162  U162        0.0814
   3532  C6        67.5820   -6.8560   37.0680 C.ar  162  U162        0.0870
   3533  OP1       72.8230   -4.7000   34.8350 O.3   162  U162       -0.4373
   3534  OP2       71.0420   -3.6250   33.3180 O.co2 162  U162       -0.5172
   3535  P         71.9800  -10.1190   36.1540 P.3   163  A163        0.2141
   3536  C5'       69.6780  -11.1780   36.9640 C.3   163  A163        0.1812
   3537  O5'       71.1260  -11.2160   36.9410 O.3   163  A163       -0.3114
   3538  C4'       69.1060  -12.4030   37.6420 C.3   163  A163        0.1773
   3539  O4'       67.9330  -12.0150   38.4190 O.3   163  A163       -0.3307
   3540  C3'       68.6040  -13.4930   36.6960 C.3   163  A163        0.1860
   3541  O3'       69.6020  -14.4180   36.2820 O.3   163  A163       -0.3112
   3542  C2'       67.4850  -14.1310   37.5060 C.3   163  A163        0.2309
   3543  O2'       67.9530  -15.0040   38.5120 O.3   163  A163       -0.2156
   3544  C1'       66.8540  -12.8960   38.1400 C.3   163  A163        0.2408
   3545  N1        62.0850  -12.8780   36.1610 N.ar  163  A163       -0.2040
   3546  C2        62.7050  -13.7150   37.0040 C.ar  163  A163        0.2016
   3547  N3        63.9490  -13.6630   37.4840 N.ar  163  A163       -0.2048
   3548  C4        64.6020  -12.5930   36.9950 C.ar  163  A163        0.1692
   3549  C5        64.1000  -11.6450   36.1190 C.ar  163  A163        0.1518
   3550  C6        62.7660  -11.8080   35.6950 C.ar  163  A163        0.1919
   3551  N6        62.1470  -10.9720   34.8590 N.pl3 163  A163       -0.1054
   3552  N7        65.0620  -10.6880   35.8280 N.ar  163  A163       -0.2193
   3553  C8        66.1050  -11.0650   36.5290 C.ar  163  A163        0.1816
   3554  N9        65.8970  -12.2100   37.2610 N.ar  163  A163       -0.2693
   3555  OP1       73.3700  -10.6070   35.9650 O.3   163  A163       -0.4373
   3556  OP2       71.2000   -9.6990   34.9580 O.co2 163  A163       -0.5172
   3557  P         69.7470  -14.6990   34.7050 P.3   164  U164        0.2141
   3558  C5'       68.7170  -16.9960   35.5340 C.3   164  U164        0.1812
   3559  O5'       69.4640  -16.2580   34.5460 O.3   164  U164       -0.3114
   3560  C4'       67.4690  -17.5780   34.9180 C.3   164  U164        0.1773
   3561  O4'       66.3170  -16.8030   35.3360 O.3   164  U164       -0.3307
   3562  C3'       67.3740  -17.5070   33.4010 C.3   164  U164        0.1860
   3563  O3'       68.2250  -18.3980   32.6870 O.3   164  U164       -0.3112
   3564  C2'       65.8720  -17.6760   33.1640 C.3   164  U164        0.2309
   3565  O2'       65.3570  -18.9810   32.9790 O.3   164  U164       -0.2156
   3566  C1'       65.2770  -16.9730   34.3880 C.3   164  U164        0.2420
   3567  N1        64.7660  -15.6560   33.9950 N.ar  164  U164       -0.2534
   3568  C2        63.4030  -15.5390   33.8210 C.ar  164  U164        0.3546
   3569  O2        62.6250  -16.4460   34.0660 O.2   164  U164       -0.2443
   3570  N3        62.9830  -14.3080   33.3760 N.ar  164  U164       -0.1530
   3571  C4        63.7700  -13.2170   33.0680 C.ar  164  U164        0.2846
   3572  O4        63.2410  -12.1750   32.6840 O.2   164  U164       -0.2650
   3573  C5        65.1740  -13.4280   33.2490 C.ar  164  U164        0.0814
   3574  C6        65.6150  -14.6170   33.6780 C.ar  164  U164        0.0870
   3575  OP1       71.1750  -14.4970   34.3600 O.3   164  U164       -0.4373
   3576  OP2       68.6970  -13.9650   33.9450 O.co2 164  U164       -0.5172
   3577  P         68.4140  -18.1640   31.1110 P.3   165  C165        0.2141
   3578  C5'       66.1770  -18.5020   29.6990 C.3   165  C165        0.1812
   3579  O5'       67.2040  -19.0440   30.5520 O.3   165  C165       -0.3114
   3580  C4'       64.8890  -19.2700   29.8870 C.3   165  C165        0.1773
   3581  O4'       64.1250  -18.6600   30.9620 O.3   165  C165       -0.3307
   3582  C3'       63.9750  -19.2790   28.6690 C.3   165  C165        0.1860
   3583  O3'       64.0610  -20.4910   27.9520 O.3   165  C165       -0.3112
   3584  C2'       62.5720  -19.1340   29.2540 C.3   165  C165        0.2309
   3585  O2'       61.8580  -20.3350   29.4830 O.3   165  C165       -0.2156
   3586  C1'       62.8390  -18.2820   30.4920 C.3   165  C165        0.2420
   3587  N1        62.8430  -16.8320   30.2000 N.ar  165  C165       -0.2535
   3588  C2        61.6700  -16.2190   29.7280 C.ar  165  C165        0.3532
   3589  O2        60.6450  -16.9050   29.5810 O.2   165  C165       -0.2443
   3590  N3        61.6860  -14.8940   29.4490 N.ar  165  C165       -0.1739
   3591  C4        62.8070  -14.1880   29.6230 C.ar  165  C165        0.1759
   3592  N4        62.7750  -12.8850   29.3400 N.pl3 165  C165       -0.1070
   3593  C5        64.0130  -14.7880   30.0890 C.ar  165  C165        0.0566
   3594  C6        63.9860  -16.0980   30.3630 C.ar  165  C165        0.0850
   3595  OP1       69.7170  -18.7990   30.7590 O.2   165  C165       -0.5172
   3596  OP2       68.1780  -16.7290   30.7820 O.co2 165  C165       -0.4373
   3597  P         64.1410  -20.2860   26.3870 P.3   166  A166        0.2141
   3598  C5'       61.5020  -20.1470   26.0690 C.3   166  A166        0.1812
   3599  O5'       62.8020  -19.5200   25.9670 O.3   166  A166       -0.3114
   3600  C4'       60.4020  -19.2620   25.4950 C.3   166  A166        0.1773
   3601  O4'       60.1760  -18.0860   26.3340 O.3   166  A166       -0.3307
   3602  C3'       60.6240  -18.6450   24.1160 C.3   166  A166        0.1860
   3603  O3'       60.5790  -19.4870   22.9750 O.3   166  A166       -0.3112
   3604  C2'       59.5840  -17.5330   24.1280 C.3   166  A166        0.2309
   3605  O2'       58.2480  -17.9870   24.1510 O.3   166  A166       -0.2156
   3606  C1'       59.8300  -16.9650   25.5160 C.3   166  A166        0.2408
   3607  N1        61.1400  -12.0310   24.9190 N.ar  166  A166       -0.2040
   3608  C2        59.9720  -12.6770   24.7980 C.ar  166  A166        0.2016
   3609  N3        59.7030  -13.9710   24.9690 N.ar  166  A166       -0.2048
   3610  C4        60.8180  -14.6490   25.2950 C.ar  166  A166        0.1692
   3611  C5        62.0900  -14.1260   25.4570 C.ar  166  A166        0.1518
   3612  C6        62.2400  -12.7390   25.2540 C.ar  166  A166        0.1919
   3613  N6        63.4010  -12.0940   25.3670 N.pl3 166  A166       -0.1054
   3614  N7        62.9940  -15.1260   25.7890 N.ar  166  A166       -0.2193
   3615  C8        62.2610  -16.2130   25.8270 C.ar  166  A166        0.1816
   3616  N9        60.9310  -15.9950   25.5490 N.ar  166  A166       -0.2693
   3617  OP1       64.1200  -21.6410   25.7850 O.2   166  A166       -0.5172
   3618  OP2       65.3410  -19.4180   26.2130 O.co2 166  A166       -0.4373
   3619  P         61.5790  -18.9880   21.8310 P.3   167  A167        0.2141
   3620  C5'       60.7810  -16.7670   20.7090 C.3   167  A167        0.1812
   3621  O5'       60.5280  -18.1460   20.9890 O.3   167  A167       -0.3114
   3622  C4'       59.4860  -16.0200   20.5720 C.3   167  A167        0.1773
   3623  O4'       59.3220  -15.1800   21.7410 O.3   167  A167       -0.3307
   3624  C3'       59.4510  -15.0860   19.3670 C.3   167  A167        0.1860
   3625  O3'       58.6780  -15.6630   18.3080 O.3   167  A167       -0.3112
   3626  C2'       58.8640  -13.7980   19.9350 C.3   167  A167        0.2309
   3627  O2'       57.4620  -13.8600   19.9970 O.3   167  A167       -0.2156
   3628  C1'       59.3800  -13.8250   21.3660 C.3   167  A167        0.2408
   3629  N1        62.4230   -9.6980   21.8050 N.ar  167  A167       -0.2040
   3630  C2        61.1050   -9.8290   21.6160 C.ar  167  A167        0.2016
   3631  N3        60.3720  -10.9370   21.5120 N.ar  167  A167       -0.2048
   3632  C4        61.1500  -12.0290   21.6050 C.ar  167  A167        0.1692
   3633  C5        62.5200  -12.0550   21.7980 C.ar  167  A167        0.1518
   3634  C6        63.1760  -10.8140   21.8950 C.ar  167  A167        0.1919
   3635  N6        64.4900  -10.6830   22.0710 N.pl3 167  A167       -0.1054
   3636  N7        62.9800  -13.3610   21.8640 N.ar  167  A167       -0.2193
   3637  C8        61.8990  -14.0850   21.7000 C.ar  167  A167        0.1816
   3638  N9        60.7550  -13.3440   21.5370 N.ar  167  A167       -0.2693
   3639  OP1       61.9780  -20.1280   20.9750 O.2   167  A167       -0.5172
   3640  OP2       62.6390  -18.1110   22.4200 O.co2 167  A167       -0.4373
   3641  P         59.2790  -15.6290   16.7950 P.3   168  U168        0.2141
   3642  C5'       58.0860  -13.2590   17.0670 C.3   168  U168        0.1812
   3643  O5'       59.1920  -14.0570   16.5370 O.3   168  U168       -0.3114
   3644  C4'       58.2510  -11.8190   16.6540 C.3   168  U168        0.1773
   3645  O4'       59.2560  -11.1550   17.4620 O.3   168  U168       -0.3307
   3646  C3'       58.7080  -11.6880   15.2210 C.3   168  U168        0.1860
   3647  O3'       57.7410  -10.9090   14.5350 O.3   168  U168       -0.3112
   3648  C2'       60.2270  -11.5080   15.3080 C.3   168  U168        0.2309
   3649  O2'       60.6420  -10.5830   14.3350 O.3   168  U168       -0.2156
   3650  C1'       60.4240  -10.9230   16.7020 C.3   168  U168        0.2420
   3651  N1        61.5580  -11.4980   17.4320 N.ar  168  U168       -0.2534
   3652  C2        62.5000  -10.6270   17.9630 C.ar  168  U168        0.3546
   3653  O2        62.4450   -9.4200   17.8200 O.2   168  U168       -0.2443
   3654  N3        63.5240  -11.2290   18.6470 N.ar  168  U168       -0.1530
   3655  C4        63.7000  -12.5730   18.8660 C.ar  168  U168        0.2846
   3656  O4        64.6870  -12.9560   19.4900 O.2   168  U168       -0.2650
   3657  C5        62.6660  -13.4080   18.3190 C.ar  168  U168        0.0814
   3658  C6        61.6590  -12.8540   17.6320 C.ar  168  U168        0.0870
   3659  OP1       58.3010  -16.1270   15.7760 O.2   168  U168       -0.5172
   3660  OP2       60.7160  -16.0890   16.8060 O.co2 168  U168       -0.4373
   3661  P         57.7500   -9.4270   14.1670 P.3   169  G169        0.2141
   3662  C5'       58.9660   -9.0020   11.8780 C.3   169  G169        0.1812
   3663  O5'       57.8490   -9.5600   12.5770 O.3   169  G169       -0.3114
   3664  C4'       58.7420   -8.9580   10.3910 C.3   169  G169        0.1773
   3665  O4'       58.9610  -10.2880    9.8450 O.3   169  G169       -0.3307
   3666  C3'       57.3440   -8.5930    9.9340 C.3   169  G169        0.1860
   3667  O3'       57.1660   -7.2120    9.7960 O.3   169  G169       -0.3112
   3668  C2'       57.3190   -9.2050    8.5460 C.3   169  G169        0.2309
   3669  O2'       58.1430   -8.4690    7.6640 O.3   169  G169       -0.2156
   3670  C1'       58.0240  -10.5500    8.8000 C.3   169  G169        0.2408
   3671  N1        54.2830  -13.6150    7.2460 N.ar  169  G169       -0.1709
   3672  C2        55.1580  -12.8690    6.5070 C.ar  169  G169        0.2606
   3673  N2        55.0090  -12.9490    5.1820 N.pl3 169  G169       -0.0859
   3674  N3        56.1300  -12.1350    7.0250 N.ar  169  G169       -0.1918
   3675  C4        56.1580  -12.2160    8.3720 C.ar  169  G169        0.1723
   3676  C5        55.3510  -12.9620    9.2020 C.ar  169  G169        0.1748
   3677  C6        54.3260  -13.7580    8.6250 C.ar  169  G169        0.3023
   3678  O6        53.5380  -14.5260    9.1870 O.2   169  G169       -0.2633
   3679  N7        55.7080  -12.7780   10.5340 N.ar  169  G169       -0.2173
   3680  C8        56.6970  -11.9280   10.4900 C.ar  169  G169        0.1817
   3681  N9        57.0520  -11.5800    9.2070 N.ar  169  G169       -0.2693
   3682  OP1       58.9250   -8.8790   14.9210 O.3   169  G169       -0.4373
   3683  OP2       56.3870   -9.1210   14.6270 O.co2 169  G169       -0.5172
   3684  P         56.1150   -6.4520   10.7180 P.3   170  G170        0.2141
   3685  C5'       54.9270   -5.9050    8.5610 C.3   170  G170        0.1812
   3686  O5'       54.7680   -6.4390    9.8880 O.3   170  G170       -0.3114
   3687  C4'       54.2880   -6.7220    7.4720 C.3   170  G170        0.1773
   3688  O4'       54.8470   -8.0810    7.3370 O.3   170  G170       -0.3307
   3689  C3'       52.7970   -6.9370    7.6270 C.3   170  G170        0.1860
   3690  O3'       52.1710   -5.7350    7.3370 O.3   170  G170       -0.3112
   3691  C2'       52.5650   -8.0220    6.5920 C.3   170  G170        0.2309
   3692  O2'       52.4780   -7.3150    5.3820 O.3   170  G170       -0.2156
   3693  C1'       53.8120   -8.9290    6.7900 C.3   170  G170        0.2408
   3694  N1        50.8870  -12.9840    7.6300 N.ar  170  G170       -0.1709
   3695  C2        51.1840  -12.3580    6.4530 C.ar  170  G170        0.2606
   3696  N2        50.5800  -12.8470    5.3710 N.pl3 170  G170       -0.0859
   3697  N3        52.0070  -11.3280    6.3460 N.ar  170  G170       -0.1918
   3698  C4        52.5210  -10.9710    7.5400 C.ar  170  G170        0.1723
   3699  C5        52.3180  -11.5570    8.7690 C.ar  170  G170        0.1748
   3700  C6        51.4300  -12.6600    8.8630 C.ar  170  G170        0.3023
   3701  O6        51.1070  -13.3040    9.8610 O.2   170  G170       -0.2633
   3702  N7        53.0360  -10.8950    9.7560 N.ar  170  G170       -0.2173
   3703  C8        53.6960   -9.9720    9.1100 C.ar  170  G170        0.1817
   3704  N9        53.4220   -9.9560    7.7640 N.ar  170  G170       -0.2693
   3705  OP1       56.6690   -5.0950   10.5570 O.2   170  G170       -0.5172
   3706  OP2       55.9780   -6.9670   12.0930 O.co2 170  G170       -0.4373
   3707  P         50.6890   -5.4090    7.8640 P.3   171  A171        0.2141
   3708  C5'       49.6210   -6.5460    5.7810 C.3   171  A171        0.1812
   3709  O5'       49.5090   -6.2210    7.1670 O.3   171  A171       -0.3114
   3710  C4'       48.5440   -7.5210    5.4020 C.3   171  A171        0.1773
   3711  O4'       49.0490   -8.8270    5.7250 O.3   171  A171       -0.3307
   3712  C3'       47.2970   -7.3870    6.2510 C.3   171  A171        0.1860
   3713  O3'       46.3030   -6.5880    5.6320 O.3   171  A171       -0.3112
   3714  C2'       46.7420   -8.7960    6.2790 C.3   171  A171        0.2309
   3715  O2'       46.0290   -8.9180    5.0810 O.3   171  A171       -0.2156
   3716  C1'       48.0000   -9.6460    6.1660 C.3   171  A171        0.2408
   3717  N1        47.1560  -13.1550    9.8580 N.ar  171  A171       -0.2040
   3718  C2        46.5240  -12.9220    8.7050 C.ar  171  A171        0.2016
   3719  N3        46.7860  -12.0130    7.7760 N.ar  171  A171       -0.2048
   3720  C4        47.8400  -11.2570    8.1340 C.ar  171  A171        0.1692
   3721  C5        48.6090  -11.4030    9.2710 C.ar  171  A171        0.1518
   3722  C6        48.2470  -12.4130   10.1560 C.ar  171  A171        0.1919
   3723  N6        48.9130  -12.6650   11.2820 N.pl3 171  A171       -0.1054
   3724  N7        49.6310  -10.4690    9.2970 N.ar  171  A171       -0.2193
   3725  C8        49.4760   -9.8010    8.1800 C.ar  171  A171        0.1816
   3726  N9        48.3990  -10.2080    7.4410 N.ar  171  A171       -0.2693
   3727  OP1       50.3350   -4.2150    7.0890 O.2   171  A171       -0.5172
   3728  OP2       50.4340   -5.4640    9.3260 O.co2 171  A171       -0.4373
   3729  P         45.4840   -5.8700    6.8030 P.3   172  U172        0.2141
   3730  C5'       43.5220   -7.5240    6.4590 C.3   172  U172        0.1812
   3731  O5'       44.2550   -6.6980    7.3780 O.3   172  U172       -0.3114
   3732  C4'       42.8930   -8.6680    7.1980 C.3   172  U172        0.1773
   3733  O4'       43.9210   -9.5320    7.7100 O.3   172  U172       -0.3307
   3734  C3'       42.2140   -8.2550    8.4670 C.3   172  U172        0.1860
   3735  O3'       40.9840   -7.7420    8.0400 O.3   172  U172       -0.3112
   3736  C2'       42.1300   -9.5560    9.2380 C.3   172  U172        0.2309
   3737  O2'       40.9960  -10.2820    8.8460 O.3   172  U172       -0.2156
   3738  C1'       43.3890  -10.2810    8.7770 C.3   172  U172        0.2420
   3739  N1        44.3900  -10.3480    9.8470 N.ar  172  U172       -0.2534
   3740  C2        44.2580  -11.3780   10.7590 C.ar  172  U172        0.3546
   3741  O2        43.3840  -12.2230   10.6800 O.2   172  U172       -0.2443
   3742  N3        45.2010  -11.3880   11.7560 N.ar  172  U172       -0.1530
   3743  C4        46.2340  -10.4940   11.9360 C.ar  172  U172        0.2846
   3744  O4        47.0090  -10.6520   12.8780 O.2   172  U172       -0.2650
   3745  C5        46.3240   -9.4730   10.9370 C.ar  172  U172        0.0814
   3746  C6        45.4250   -9.4390    9.9460 C.ar  172  U172        0.0870
   3747  OP1       44.8550   -4.8280    5.9720 O.2   172  U172       -0.5172
   3748  OP2       46.5220   -5.5780    7.8530 O.co2 172  U172       -0.4373
   3749  P         40.4900   -6.5170    8.9500 P.3   173  G173        0.2141
   3750  C5'       39.4540   -7.7320   10.9980 C.3   173  G173        0.1812
   3751  O5'       40.5850   -7.0740   10.4430 O.3   173  G173       -0.3114
   3752  C4'       39.7350   -8.0090   12.4380 C.3   173  G173        0.1773
   3753  O4'       41.0530   -8.5550   12.5360 O.3   173  G173       -0.3307
   3754  C3'       39.8800   -6.7910   13.2990 C.3   173  G173        0.1860
   3755  O3'       38.5270   -6.4810   13.5760 O.3   173  G173       -0.3112
   3756  C2'       40.6480   -7.3370   14.4990 C.3   173  G173        0.2309
   3757  O2'       39.7630   -8.0060   15.3730 O.3   173  G173       -0.2156
   3758  C1'       41.5370   -8.3870   13.8470 C.3   173  G173        0.2408
   3759  N1        46.3240   -8.3640   15.5930 N.ar  173  G173       -0.1709
   3760  C2        45.2120   -8.8940   16.1960 C.ar  173  G173        0.2606
   3761  N2        45.4000   -9.4540   17.4070 N.pl3 173  G173       -0.0859
   3762  N3        44.0000   -8.8350   15.6720 N.ar  173  G173       -0.1918
   3763  C4        44.0100   -8.2360   14.4610 C.ar  173  G173        0.1723
   3764  C5        45.0810   -7.7180   13.7690 C.ar  173  G173        0.1748
   3765  C6        46.3410   -7.7470   14.3430 C.ar  173  G173        0.3023
   3766  O6        47.4100   -7.3830   13.8400 O.2   173  G173       -0.2633
   3767  N7        44.6820   -7.2210   12.5410 N.ar  173  G173       -0.2173
   3768  C8        43.3900   -7.4070   12.5200 C.ar  173  G173        0.1817
   3769  N9        42.9110   -7.9760   13.6720 N.ar  173  G173       -0.2693
   3770  OP1       39.0820   -6.2370    8.5030 O.2   173  G173       -0.5172
   3771  OP2       41.4980   -5.4250    8.9910 O.co2 173  G173       -0.4373
   3772  P         38.1190   -4.9140   13.4910 P.3   174  A174        0.2141
   3773  C5'       36.9170   -4.6340   15.7960 C.3   174  A174        0.1812
   3774  O5'       38.1340   -4.6180   15.0600 O.3   174  A174       -0.3114
   3775  C4'       36.9200   -5.6650   16.9240 C.3   174  A174        0.1773
   3776  O4'       37.8750   -6.7610   16.8250 O.3   174  A174       -0.3307
   3777  C3'       37.1660   -5.1840   18.3440 C.3   174  A174        0.1860
   3778  O3'       36.0740   -4.3310   18.6740 O.3   174  A174       -0.3112
   3779  C2'       37.1560   -6.5170   19.0760 C.3   174  A174        0.2309
   3780  O2'       35.8200   -6.9690   19.1710 O.3   174  A174       -0.2156
   3781  C1'       37.9390   -7.3980   18.0990 C.3   174  A174        0.2408
   3782  N1        41.3000   -9.3360   21.4550 N.ar  174  A174       -0.2040
   3783  C2        39.9900   -9.5540   21.2650 C.ar  174  A174        0.2016
   3784  N3        39.1790   -9.0570   20.3340 N.ar  174  A174       -0.2048
   3785  C4        39.8360   -8.1760   19.5630 C.ar  174  A174        0.1692
   3786  C5        41.1730   -7.8300   19.6540 C.ar  174  A174        0.1518
   3787  C6        41.9330   -8.4700   20.6350 C.ar  174  A174        0.1919
   3788  N6        43.2380   -8.2590   20.8060 N.pl3 174  A174       -0.1054
   3789  N7        41.5110   -6.9110   18.6740 N.ar  174  A174       -0.2193
   3790  C8        40.3780   -6.6980   18.0420 C.ar  174  A174        0.1816
   3791  N9        39.3230   -7.4210   18.5370 N.ar  174  A174       -0.2693
   3792  OP1       36.7750   -4.8490   12.7760 O.2   174  A174       -0.5172
   3793  OP2       39.2880   -4.0740   13.0510 O.co2 174  A174       -0.4373
   3794  P         36.4010   -3.0100   19.4730 P.3   175  G175        0.2141
   3795  C5'       36.7400   -4.1850   21.8010 C.3   175  G175        0.1812
   3796  O5'       37.2880   -3.3620   20.7550 O.3   175  G175       -0.3114
   3797  C4'       37.8660   -4.9030   22.4920 C.3   175  G175        0.1773
   3798  O4'       38.8520   -5.3350   21.5150 O.3   175  G175       -0.3307
   3799  C3'       38.6790   -4.0320   23.4240 C.3   175  G175        0.1860
   3800  O3'       37.9970   -3.9030   24.6660 O.3   175  G175       -0.3112
   3801  C2'       40.0080   -4.7850   23.5210 C.3   175  G175        0.2309
   3802  O2'       39.8760   -5.8520   24.4120 O.3   175  G175       -0.2156
   3803  C1'       40.1430   -5.3460   22.1140 C.3   175  G175        0.2408
   3804  N1        44.9110   -3.8430   21.2120 N.ar  175  G175       -0.1709
   3805  C2        44.4160   -4.5920   22.2540 C.ar  175  G175        0.2606
   3806  N2        45.3060   -4.9840   23.1670 N.pl3 175  G175       -0.0859
   3807  N3        43.1370   -4.9230   22.3910 N.ar  175  G175       -0.1918
   3808  C4        42.3840   -4.4380   21.3850 C.ar  175  G175        0.1723
   3809  C5        42.7760   -3.6620   20.3130 C.ar  175  G175        0.1748
   3810  C6        44.1430   -3.3230   20.1740 C.ar  175  G175        0.3023
   3811  O6        44.6790   -2.6550   19.2860 O.2   175  G175       -0.2633
   3812  N7        41.6910   -3.3380   19.5160 N.ar  175  G175       -0.2173
   3813  C8        40.6720   -3.8910   20.1200 C.ar  175  G175        0.1817
   3814  N9        41.0290   -4.5850   21.2520 N.ar  175  G175       -0.2693
   3815  OP1       35.0720   -2.5470   19.9470 O.3   175  G175       -0.4373
   3816  OP2       37.2620   -2.1270   18.6100 O.co2 175  G175       -0.5172
   3817  P         38.4770   -2.6620   25.5860 P.3   176  U176        0.2141
   3818  C5'       40.1230   -3.8620   27.1580 C.3   176  U176        0.1812
   3819  O5'       39.9450   -3.1130   25.9770 O.3   176  U176       -0.3114
   3820  C4'       41.5850   -3.8980   27.3840 C.3   176  U176        0.1773
   3821  O4'       42.1960   -4.0710   26.0880 O.3   176  U176       -0.3307
   3822  C3'       42.1960   -2.5780   27.7860 C.3   176  U176        0.1860
   3823  O3'       41.9260   -2.2970   29.1380 O.3   176  U176       -0.3112
   3824  C2'       43.6510   -2.8360   27.4690 C.3   176  U176        0.2309
   3825  O2'       44.1190   -3.7590   28.4230 O.3   176  U176       -0.2156
   3826  C1'       43.5120   -3.5470   26.1270 C.3   176  U176        0.2420
   3827  N1        43.6790   -2.6690   24.9630 N.ar  176  U176       -0.2534
   3828  C2        44.9560   -2.2010   24.7190 C.ar  176  U176        0.3546
   3829  O2        45.9060   -2.4720   25.4330 O.2   176  U176       -0.2443
   3830  N3        45.0790   -1.4030   23.6090 N.ar  176  U176       -0.1530
   3831  C4        44.0840   -1.0400   22.7320 C.ar  176  U176        0.2846
   3832  O4        44.3680   -0.3350   21.7640 O.2   176  U176       -0.2650
   3833  C5        42.7780   -1.5550   23.0560 C.ar  176  U176        0.0814
   3834  C6        42.6250   -2.3330   24.1340 C.ar  176  U176        0.0870
   3835  OP1       37.7370   -2.7100   26.8830 O.3   176  U176       -0.4373
   3836  OP2       38.5490   -1.4340   24.7430 O.co2 176  U176       -0.5172
   3837  P         41.6860   -0.7880   29.6150 P.3   177  U177        0.2141
   3838  C5'       44.1220   -0.5550   30.5530 C.3   177  U177        0.1812
   3839  O5'       43.1800   -0.2520   29.5180 O.3   177  U177       -0.3114
   3840  C4'       45.4580   -0.2290   29.9850 C.3   177  U177        0.1773
   3841  O4'       45.3850   -0.4910   28.5720 O.3   177  U177       -0.3307
   3842  C3'       45.8170    1.2400   29.9630 C.3   177  U177        0.1860
   3843  O3'       46.2160    1.7780   31.2190 O.3   177  U177       -0.3112
   3844  C2'       46.9270    1.2540   28.9230 C.3   177  U177        0.2309
   3845  O2'       48.1940    0.7930   29.3810 O.3   177  U177       -0.2156
   3846  C1'       46.3740    0.2630   27.9120 C.3   177  U177        0.2420
   3847  N1        45.7790    0.8740   26.7230 N.ar  177  U177       -0.2534
   3848  C2        46.6520    1.3950   25.7910 C.ar  177  U177        0.3546
   3849  O2        47.8560    1.4270   25.9640 O.2   177  U177       -0.2443
   3850  N3        46.0610    1.8880   24.6550 N.ar  177  U177       -0.1530
   3851  C4        44.7170    1.9140   24.3570 C.ar  177  U177        0.2846
   3852  O4        44.3420    2.4210   23.2970 O.2   177  U177       -0.2650
   3853  C5        43.8740    1.3360   25.3610 C.ar  177  U177        0.0814
   3854  C6        44.4240    0.8330   26.4780 C.ar  177  U177        0.0870
   3855  OP1       41.2990   -0.9490   31.0520 O.3   177  U177       -0.4373
   3856  OP2       40.8360   -0.0190   28.6460 O.co2 177  U177       -0.5172
   3857  P         45.7710    3.2790   31.5750 P.3   178  U178        0.2141
   3858  C5'       48.2940    3.9600   31.0370 C.3   178  U178        0.1812
   3859  O5'       46.8710    4.1440   30.7990 O.3   178  U178       -0.3114
   3860  C4'       49.1230    4.7650   30.0480 C.3   178  U178        0.1773
   3861  O4'       49.0370    4.1680   28.7240 O.3   178  U178       -0.3307
   3862  C3'       48.7230    6.2170   29.7910 C.3   178  U178        0.1860
   3863  O3'       49.1500    7.1560   30.7770 O.3   178  U178       -0.3112
   3864  C2'       49.4270    6.4820   28.4680 C.3   178  U178        0.2309
   3865  O2'       50.8400    6.4980   28.5570 O.3   178  U178       -0.2156
   3866  C1'       49.1310    5.1830   27.7320 C.3   178  U178        0.2420
   3867  N1        47.8790    5.2220   26.9630 N.ar  178  U178       -0.2534
   3868  C2        47.9720    5.5700   25.6270 C.ar  178  U178        0.3546
   3869  O2        49.0290    5.8440   25.0870 O.2   178  U178       -0.2443
   3870  N3        46.7800    5.5760   24.9470 N.ar  178  U178       -0.1530
   3871  C4        45.5330    5.2620   25.4460 C.ar  178  U178        0.2846
   3872  O4        44.5500    5.3040   24.6980 O.2   178  U178       -0.2650
   3873  C5        45.5200    4.9080   26.8360 C.ar  178  U178        0.0814
   3874  C6        46.6640    4.9060   27.5310 C.ar  178  U178        0.0870
   3875  OP1       46.0060    3.2440   33.0550 O.3   178  U178       -0.4373
   3876  OP2       44.4140    3.5990   30.9910 O.co2 178  U178       -0.5172
   3877  P         48.3120    8.4780   31.1340 P.3   179  G179        0.2141
   3878  C5'       48.3290    7.8350   33.6780 C.3   179  G179        0.1812
   3879  O5'       48.8510    8.6550   32.6220 O.3   179  G179       -0.3114
   3880  C4'       49.3790    7.5760   34.7290 C.3   179  G179        0.1773
   3881  O4'       50.6600    7.2740   34.1150 O.3   179  G179       -0.3307
   3882  C3'       49.7290    8.7400   35.6280 C.3   179  G179        0.1860
   3883  O3'       48.7290    9.0240   36.5900 O.3   179  G179       -0.3112
   3884  C2'       51.0240    8.2370   36.2300 C.3   179  G179        0.2309
   3885  O2'       50.7120    7.1360   37.0560 O.3   179  G179       -0.2156
   3886  C1'       51.7100    7.6830   34.9840 C.3   179  G179        0.2408
   3887  N1        56.0060   10.4060   35.1040 N.ar  179  G179       -0.1709
   3888  C2        55.4940    9.5460   36.0460 C.ar  179  G179        0.2606
   3889  N2        56.2200    9.3870   37.1610 N.pl3 179  G179       -0.0859
   3890  N3        54.3530    8.8900   35.9040 N.ar  179  G179       -0.1918
   3891  C4        53.7570    9.1620   34.7220 C.ar  179  G179        0.1723
   3892  C5        54.1830   10.0060   33.7160 C.ar  179  G179        0.1748
   3893  C6        55.4070   10.7060   33.8820 C.ar  179  G179        0.3023
   3894  O6        55.9530   11.4990   33.1040 O.2   179  G179       -0.2633
   3895  N7        53.2790   10.0160   32.6630 N.ar  179  G179       -0.2173
   3896  C8        52.3360    9.1950   33.0390 C.ar  179  G179        0.1817
   3897  N9        52.5600    8.6440   34.2790 N.ar  179  G179       -0.2693
   3898  OP1       46.8340    8.2590   31.1230 O.3   179  G179       -0.4373
   3899  OP2       48.8920    9.5400   30.2830 O.co2 179  G179       -0.5172
   3900  P         48.0250   10.4370   36.4090 P.3   180  C180        0.2141
   3901  C5'       45.5360   10.3820   35.5940 C.3   180  C180        0.1812
   3902  O5'       46.8990   10.0620   35.3540 O.3   180  C180       -0.3114
   3903  C4'       44.7730    9.1600   36.0460 C.3   180  C180        0.1773
   3904  O4'       45.6430    8.2110   36.6900 O.3   180  C180       -0.3307
   3905  C3'       43.7430    9.4600   37.1140 C.3   180  C180        0.1860
   3906  O3'       42.5630    9.8660   36.4540 O.3   180  C180       -0.3112
   3907  C2'       43.5680    8.1360   37.8540 C.3   180  C180        0.2309
   3908  O2'       42.4400    7.4130   37.4240 O.3   180  C180       -0.2156
   3909  C1'       44.8610    7.3900   37.5330 C.3   180  C180        0.2420
   3910  N1        45.6330    7.0670   38.7380 N.ar  180  C180       -0.2535
   3911  C2        45.2850    5.9240   39.4630 C.ar  180  C180        0.3532
   3912  O2        44.3360    5.2310   39.0690 O.2   180  C180       -0.2443
   3913  N3        45.9940    5.6020   40.5700 N.ar  180  C180       -0.1739
   3914  C4        47.0130    6.3730   40.9580 C.ar  180  C180        0.1759
   3915  N4        47.6850    6.0150   42.0520 N.pl3 180  C180       -0.1070
   3916  C5        47.3860    7.5470   40.2390 C.ar  180  C180        0.0566
   3917  C6        46.6700    7.8580   39.1500 C.ar  180  C180        0.0850
   3918  OP1       48.9080   11.3590   35.6560 O.2   180  C180       -0.5172
   3919  OP2       47.4670   10.8440   37.7250 O.co2 180  C180       -0.4373
   3920  P         42.2590   11.4240   36.5630 P.3   181  A181        0.2141
   3921  C5'       41.3560   10.3720   38.8370 C.3   181  A181        0.1812
   3922  O5'       41.6540   11.5400   38.0360 O.3   181  A181       -0.3114
   3923  C4'       39.8840   10.0310   38.7670 C.3   181  A181        0.1773
   3924  O4'       39.0990   11.2300   39.0390 O.3   181  A181       -0.3307
   3925  C3'       39.3420    9.5360   37.4250 C.3   181  A181        0.1860
   3926  O3'       39.6550    8.1920   37.0390 O.3   181  A181       -0.3112
   3927  C2'       37.8590    9.8710   37.5670 C.3   181  A181        0.2309
   3928  O2'       37.0970    9.0410   38.4240 O.3   181  A181       -0.2156
   3929  C1'       37.9450   11.2510   38.2070 C.3   181  A181        0.2408
   3930  N1        35.5300   14.2640   34.8260 N.ar  181  A181       -0.2040
   3931  C2        35.0880   13.3280   35.6800 C.ar  181  A181        0.2016
   3932  N3        35.7770   12.5770   36.5380 N.ar  181  A181       -0.2048
   3933  C4        37.0890   12.8670   36.4700 C.ar  181  A181        0.1692
   3934  C5        37.6930   13.8030   35.6480 C.ar  181  A181        0.1518
   3935  C6        36.8550   14.5320   34.7870 C.ar  181  A181        0.1919
   3936  N6        37.2960   15.4680   33.9430 N.pl3 181  A181       -0.1054
   3937  N7        39.0650   13.8230   35.8520 N.ar  181  A181       -0.2193
   3938  C8        39.2570   12.9250   36.7850 C.ar  181  A181        0.1816
   3939  N9        38.1040   12.3080   37.2080 N.ar  181  A181       -0.2693
   3940  OP1       41.2050   11.7280   35.5550 O.2   181  A181       -0.5172
   3941  OP2       43.5480   12.1750   36.5240 O.co2 181  A181       -0.4373
   3942  P         39.9130    7.7850   35.4870 P.3   182  U182        0.2141
   3943  C5'       37.3860    6.9890   35.7250 C.3   182  U182        0.1812
   3944  O5'       38.4660    7.4760   34.8960 O.3   182  U182       -0.3114
   3945  C4'       36.0560    7.4100   35.1460 C.3   182  U182        0.1773
   3946  O4'       35.8370    8.8280   35.4140 O.3   182  U182       -0.3307
   3947  C3'       35.9470    7.2820   33.6340 C.3   182  U182        0.1860
   3948  O3'       35.6310    5.9610   33.2000 O.3   182  U182       -0.3112
   3949  C2'       34.9130    8.3510   33.3030 C.3   182  U182        0.2309
   3950  O2'       33.6020    7.9340   33.6280 O.3   182  U182       -0.2156
   3951  C1'       35.3470    9.4750   34.2450 C.3   182  U182        0.2420
   3952  N1        36.4000   10.3680   33.7160 N.ar  182  U182       -0.2534
   3953  C2        36.0730   11.2510   32.6960 C.ar  182  U182        0.3546
   3954  O2        34.9590   11.3190   32.2030 O.2   182  U182       -0.2443
   3955  N3        37.1060   12.0480   32.2710 N.ar  182  U182       -0.1530
   3956  C4        38.4030   12.0630   32.7460 C.ar  182  U182        0.2846
   3957  O4        39.2210   12.8430   32.2560 O.2   182  U182       -0.2650
   3958  C5        38.6600   11.1300   33.8010 C.ar  182  U182        0.0814
   3959  C6        37.6750   10.3380   34.2420 C.ar  182  U182        0.0870
   3960  OP1       40.6520    6.5000   35.4610 O.3   182  U182       -0.4373
   3961  OP2       40.4560    8.9380   34.7240 O.co2 182  U182       -0.5172
   3962  P         36.6890    5.1550   32.2820 P.3   183  A183        0.2141
   3963  C5'       35.2460    4.8780   30.0670 C.3   183  A183        0.1812
   3964  O5'       36.2770    5.5730   30.7980 O.3   183  A183       -0.3114
   3965  C4'       34.5970    5.8140   29.0800 C.3   183  A183        0.1773
   3966  O4'       34.3820    7.1040   29.7240 O.3   183  A183       -0.3307
   3967  C3'       35.4250    6.1620   27.8440 C.3   183  A183        0.1860
   3968  O3'       35.5240    5.1710   26.8160 O.3   183  A183       -0.3112
   3969  C2'       34.7880    7.4850   27.4280 C.3   183  A183        0.2309
   3970  O2'       33.5250    7.3980   26.7970 O.3   183  A183       -0.2156
   3971  C1'       34.6150    8.1520   28.7910 C.3   183  A183        0.2408
   3972  N1        37.0810   12.6570   28.6060 N.ar  183  A183       -0.2040
   3973  C2        35.8890   12.2610   28.1390 C.ar  183  A183        0.2016
   3974  N3        35.3050   11.0680   28.2230 N.ar  183  A183       -0.2048
   3975  C4        36.0900   10.2020   28.8900 C.ar  183  A183        0.1692
   3976  C5        37.3390   10.4590   29.4260 C.ar  183  A183        0.1518
   3977  C6        37.8480   11.7600   29.2650 C.ar  183  A183        0.1919
   3978  N6        39.0350   12.1550   29.7300 N.pl3 183  A183       -0.1054
   3979  N7        37.8530    9.3250   30.0400 N.ar  183  A183       -0.2193
   3980  C8        36.9190    8.4220   29.8630 C.ar  183  A183        0.1816
   3981  N9        35.8160    8.8890   29.1900 N.ar  183  A183       -0.2693
   3982  OP1       36.4440    3.6980   32.4530 O.2   183  A183       -0.5172
   3983  OP2       38.0590    5.6920   32.5170 O.co2 183  A183       -0.4373
   3984  P         36.7530    5.2360   25.7550 P.3   184  A184        0.2141
   3985  C5'       34.8350    6.0190   24.0830 C.3   184  A184        0.1812
   3986  O5'       36.2160    6.0720   24.5070 O.3   184  A184       -0.3114
   3987  C4'       34.5120    7.2360   23.2600 C.3   184  A184        0.1773
   3988  O4'       34.5110    8.4070   24.1210 O.3   184  A184       -0.3307
   3989  C3'       35.5490    7.5770   22.1980 C.3   184  A184        0.1860
   3990  O3'       35.4810    6.7260   21.0600 O.3   184  A184       -0.3112
   3991  C2'       35.3040    9.0670   21.9930 C.3   184  A184        0.2309
   3992  O2'       34.1610    9.3940   21.2300 O.3   184  A184       -0.2156
   3993  C1'       35.0860    9.5130   23.4370 C.3   184  A184        0.2408
   3994  N1        38.9880   12.8720   23.7050 N.ar  184  A184       -0.2040
   3995  C2        37.9160   12.7990   22.9000 C.ar  184  A184        0.2016
   3996  N3        36.9360   11.8950   22.8800 N.ar  184  A184       -0.2048
   3997  C4        37.1260   10.9670   23.8360 C.ar  184  A184        0.1692
   3998  C5        38.1760   10.9080   24.7390 C.ar  184  A184        0.1518
   3999  C6        39.1500   11.9230   24.6550 C.ar  184  A184        0.1919
   4000  N6        40.2160   11.9970   25.4570 N.pl3 184  A184       -0.1054
   4001  N7        38.0400    9.8090   25.5770 N.ar  184  A184       -0.2193
   4002  C8        36.9340    9.2360   25.1680 C.ar  184  A184        0.1816
   4003  N9        36.3270    9.8840   24.1190 N.ar  184  A184       -0.2693
   4004  OP1       37.0980    3.8870   25.2280 O.2   184  A184       -0.5172
   4005  OP2       37.8150    6.0640   26.3800 O.co2 184  A184       -0.4373
   4006  P         36.8510    6.0260   20.5630 P.3   185  C185        0.2141
   4007  C5'       36.4410    7.7840   18.5680 C.3   185  C185        0.1812
   4008  O5'       37.3470    6.9970   19.3920 O.3   185  C185       -0.3114
   4009  C4'       37.1220    9.0530   18.1080 C.3   185  C185        0.1773
   4010  O4'       37.1650   10.0120   19.2110 O.3   185  C185       -0.3307
   4011  C3'       38.5840    8.8940   17.7090 C.3   185  C185        0.1860
   4012  O3'       38.8350    8.3290   16.4220 O.3   185  C185       -0.3112
   4013  C2'       39.1150   10.3100   17.9010 C.3   185  C185        0.2309
   4014  O2'       38.8170   11.1750   16.8260 O.3   185  C185       -0.2156
   4015  C1'       38.4010   10.7200   19.1910 C.3   185  C185        0.2420
   4016  N1        39.1820   10.3670   20.3980 N.ar  185  C185       -0.2535
   4017  C2        40.2260   11.2130   20.8040 C.ar  185  C185        0.3532
   4018  O2        40.4400   12.2560   20.1630 O.2   185  C185       -0.2443
   4019  N3        40.9600   10.8810   21.8950 N.ar  185  C185       -0.1739
   4020  C4        40.6970    9.7500   22.5590 C.ar  185  C185        0.1759
   4021  N4        41.4340    9.4700   23.6370 N.pl3 185  C185       -0.1070
   4022  C5        39.6530    8.8660   22.1570 C.ar  185  C185        0.0566
   4023  C6        38.9290    9.2090   21.0810 C.ar  185  C185        0.0850
   4024  OP1       36.4820    4.7290   19.9350 O.2   185  C185       -0.5172
   4025  OP2       37.8480    6.0210   21.6810 O.co2 185  C185       -0.4373
   4026  P         40.2460    7.5830   16.1360 P.3   186  A186        0.2141
   4027  C5'       41.3950    9.6140   14.9150 C.3   186  A186        0.1812
   4028  O5'       41.3010    8.7700   16.0690 O.3   186  A186       -0.3114
   4029  C4'       42.5530   10.5450   15.1110 C.3   186  A186        0.1773
   4030  O4'       42.3000   11.3470   16.3000 O.3   186  A186       -0.3307
   4031  C3'       43.8770    9.8510   15.4210 C.3   186  A186        0.1860
   4032  O3'       44.5470    9.2790   14.3040 O.3   186  A186       -0.3112
   4033  C2'       44.6340   10.9380   16.1730 C.3   186  A186        0.2309
   4034  O2'       45.3080   11.8900   15.3710 O.3   186  A186       -0.2156
   4035  C1'       43.5090   11.5250   17.0290 C.3   186  A186        0.2408
   4036  N1        45.4280   11.0170   21.7580 N.ar  186  A186       -0.2040
   4037  C2        45.7330   11.8340   20.7410 C.ar  186  A186        0.2016
   4038  N3        45.1820   11.9170   19.5320 N.ar  186  A186       -0.2048
   4039  C4        44.1930   11.0170   19.4010 C.ar  186  A186        0.1692
   4040  C5        43.7630   10.1100   20.3540 C.ar  186  A186        0.1518
   4041  C6        44.4250   10.1270   21.5940 C.ar  186  A186        0.1919
   4042  N6        44.1180    9.3160   22.6080 N.pl3 186  A186       -0.1054
   4043  N7        42.7170    9.3410   19.8630 N.ar  186  A186       -0.2193
   4044  C8        42.5400    9.7920   18.6450 C.ar  186  A186        0.1816
   4045  N9        43.3910   10.8160   18.3040 N.ar  186  A186       -0.2693
   4046  OP1       40.1610    6.9960   14.7730 O.2   186  A186       -0.5172
   4047  OP2       40.6710    6.7230   17.2770 O.co2 186  A186       -0.4373
   4048  P         45.1000    7.7830   14.5020 P.3   187  A187        0.2141
   4049  C5'       47.3720    9.1740   14.6330 C.3   187  A187        0.1812
   4050  O5'       46.5500    8.0830   15.0980 O.3   187  A187       -0.3114
   4051  C4'       48.3810    9.5170   15.7000 C.3   187  A187        0.1773
   4052  O4'       47.6540    9.9320   16.8800 O.3   187  A187       -0.3307
   4053  C3'       49.2560    8.3570   16.1750 C.3   187  A187        0.1860
   4054  O3'       50.4240    8.1640   15.3840 O.3   187  A187       -0.3112
   4055  C2'       49.5640    8.7170   17.6300 C.3   187  A187        0.2309
   4056  O2'       50.6830    9.5360   17.9150 O.3   187  A187       -0.2156
   4057  C1'       48.2770    9.4220   18.0500 C.3   187  A187        0.2408
   4058  N1        47.0960    6.9950   22.4460 N.ar  187  A187       -0.2040
   4059  C2        48.1380    7.7600   22.0950 C.ar  187  A187        0.2016
   4060  N3        48.3920    8.3590   20.9300 N.ar  187  A187       -0.2048
   4061  C4        47.4070    8.1150   20.0460 C.ar  187  A187        0.1692
   4062  C5        46.2700    7.3560   20.2620 C.ar  187  A187        0.1518
   4063  C6        46.1230    6.7710   21.5340 C.ar  187  A187        0.1919
   4064  N6        45.0730    6.0290   21.8900 N.pl3 187  A187       -0.1054
   4065  N7        45.4710    7.3350   19.1270 N.ar  187  A187       -0.2193
   4066  C8        46.1360    8.0610   18.2600 C.ar  187  A187        0.1816
   4067  N9        47.3180    8.5630   18.7480 N.ar  187  A187       -0.2693
   4068  OP1       45.2480    7.1500   13.1730 O.2   187  A187       -0.5172
   4069  OP2       44.2780    7.0780   15.5260 O.co2 187  A187       -0.4373
   4070  P         50.7330    6.6390   15.0130 P.3   188  A188        0.2141
   4071  C5'       52.5430    6.4660   16.9010 C.3   188  A188        0.1812
   4072  O5'       51.2570    6.0700   16.4010 O.3   188  A188       -0.3114
   4073  C4'       52.7170    5.9570   18.3100 C.3   188  A188        0.1773
   4074  O4'       51.6100    6.4110   19.1300 O.3   188  A188       -0.3307
   4075  C3'       52.6620    4.4450   18.5080 C.3   188  A188        0.1860
   4076  O3'       53.8330    3.7470   18.1100 O.3   188  A188       -0.3112
   4077  C2'       52.4050    4.3580   20.0030 C.3   188  A188        0.2309
   4078  O2'       53.4440    4.8360   20.8370 O.3   188  A188       -0.2156
   4079  C1'       51.3830    5.4700   20.1680 C.3   188  A188        0.2408
   4080  N1        47.6240    3.0340   22.6390 N.ar  188  A188       -0.2040
   4081  C2        48.9020    3.2770   22.9530 C.ar  188  A188        0.2016
   4082  N3        49.8360    3.9120   22.2490 N.ar  188  A188       -0.2048
   4083  C4        49.3410    4.3270   21.0710 C.ar  188  A188        0.1692
   4084  C5        48.0470    4.1610   20.6100 C.ar  188  A188        0.1518
   4085  C6        47.1530    3.4800   21.4530 C.ar  188  A188        0.1919
   4086  N6        45.8760    3.2450   21.1420 N.pl3 188  A188       -0.1054
   4087  N7        47.8940    4.7370   19.3560 N.ar  188  A188       -0.2193
   4088  C8        49.0820    5.2260   19.0890 C.ar  188  A188        0.1816
   4089  N9        50.0050    5.0130   20.0850 N.ar  188  A188       -0.2693
   4090  OP1       51.8710    6.5820   14.0570 O.2   188  A188       -0.5172
   4091  OP2       49.4400    5.9680   14.6950 O.co2 188  A188       -0.4373
   4092  P         53.6040    2.2660   17.5700 P.3   189  A189        0.2141
   4093  C5'       54.8270    1.3740   19.7150 C.3   189  A189        0.1812
   4094  O5'       53.6440    1.3950   18.9000 O.3   189  A189       -0.3114
   4095  C4'       54.4760    0.7870   21.0480 C.3   189  A189        0.1773
   4096  O4'       53.2950    1.4580   21.5710 O.3   189  A189       -0.3307
   4097  C3'       54.0440   -0.6680   20.9890 C.3   189  A189        0.1860
   4098  O3'       55.1520   -1.5340   20.8520 O.3   189  A189       -0.3112
   4099  C2'       53.2330   -0.7970   22.2730 C.3   189  A189        0.2309
   4100  O2'       53.9710   -0.9310   23.4830 O.3   189  A189       -0.2156
   4101  C1'       52.4760    0.5270   22.2590 C.3   189  A189        0.2408
   4102  N1        47.4430   -0.4850   22.6820 N.ar  189  A189       -0.2040
   4103  C2        48.4600   -0.6150   23.5450 C.ar  189  A189        0.2016
   4104  N3        49.7570   -0.3470   23.3710 N.ar  189  A189       -0.2048
   4105  C4        49.9840    0.1140   22.1260 C.ar  189  A189        0.1692
   4106  C5        49.0380    0.3250   21.1360 C.ar  189  A189        0.1518
   4107  C6        47.7070   -0.0200   21.4390 C.ar  189  A189        0.1919
   4108  N6        46.7040    0.0770   20.5680 N.pl3 189  A189       -0.1054
   4109  N7        49.6360    0.8200   19.9850 N.ar  189  A189       -0.2193
   4110  C8        50.9090    0.8930   20.2970 C.ar  189  A189        0.1816
   4111  N9        51.1900    0.4780   21.5740 N.ar  189  A189       -0.2693
   4112  OP1       54.7820    1.8780   16.7370 O.2   189  A189       -0.5172
   4113  OP2       52.2340    2.2060   16.9910 O.co2 189  A189       -0.4373
   4114  P         54.8260   -2.8290   19.9720 P.3   190  C190        0.2141
   4115  C5'       52.9700   -4.3620   20.9230 C.3   190  C190        0.1812
   4116  O5'       54.2940   -3.8650   21.0490 O.3   190  C190       -0.3114
   4117  C4'       52.4260   -4.6940   22.2780 C.3   190  C190        0.1773
   4118  O4'       51.6730   -3.5550   22.7610 O.3   190  C190       -0.3307
   4119  C3'       51.4450   -5.8470   22.2450 C.3   190  C190        0.1860
   4120  O3'       52.2250   -6.9850   22.5620 O.3   190  C190       -0.3112
   4121  C2'       50.4110   -5.4340   23.2740 C.3   190  C190        0.2309
   4122  O2'       51.0330   -5.6060   24.5130 O.3   190  C190       -0.2156
   4123  C1'       50.3500   -3.9370   23.0280 C.3   190  C190        0.2420
   4124  N1        49.5440   -3.5750   21.8700 N.ar  190  C190       -0.2535
   4125  C2        48.1490   -3.6840   21.9710 C.ar  190  C190        0.3532
   4126  O2        47.6610   -4.0850   23.0410 O.2   190  C190       -0.2443
   4127  N3        47.3740   -3.3370   20.9070 N.ar  190  C190       -0.1739
   4128  C4        47.9520   -2.8900   19.7850 C.ar  190  C190        0.1759
   4129  N4        47.1670   -2.5860   18.7520 N.pl3 190  C190       -0.1070
   4130  C5        49.3740   -2.7730   19.6600 C.ar  190  C190        0.0566
   4131  C6        50.1220   -3.1150   20.7190 C.ar  190  C190        0.0850
   4132  OP1       56.0730   -3.4860   19.4800 O.3   190  C190       -0.4373
   4133  OP2       53.6940   -2.5170   19.0530 O.co2 190  C190       -0.5172
   4134  P         52.0840   -8.1870   21.5210 P.3   191  A191        0.2141
   4135  C5'       49.8520   -8.9350   22.6730 C.3   191  A191        0.1812
   4136  O5'       50.5010   -8.4190   21.4940 O.3   191  A191       -0.3114
   4137  C4'       48.3620   -8.9640   22.4770 C.3   191  A191        0.1773
   4138  O4'       47.8810   -7.6230   22.2380 O.3   191  A191       -0.3307
   4139  C3'       47.9010   -9.7570   21.2680 C.3   191  A191        0.1860
   4140  O3'       47.6650  -11.0610   21.7580 O.3   191  A191       -0.3112
   4141  C2'       46.5470   -9.1280   20.9630 C.3   191  A191        0.2309
   4142  O2'       45.4150   -9.7880   21.4950 O.3   191  A191       -0.2156
   4143  C1'       46.7630   -7.6690   21.3800 C.3   191  A191        0.2408
   4144  N1        44.9940   -5.5140   17.0770 N.ar  191  A191       -0.2040
   4145  C2        44.3640   -6.0730   18.1250 C.ar  191  A191        0.2016
   4146  N3        44.8800   -6.6030   19.2280 N.ar  191  A191       -0.2048
   4147  C4        46.2220   -6.5150   19.2080 C.ar  191  A191        0.1692
   4148  C5        47.0050   -5.9890   18.1990 C.ar  191  A191        0.1518
   4149  C6        46.3440   -5.4390   17.1040 C.ar  191  A191        0.1919
   4150  N6        46.9770   -4.8620   16.0840 N.pl3 191  A191       -0.1054
   4151  N7        48.3500   -6.1010   18.5110 N.ar  191  A191       -0.2193
   4152  C8        48.3530   -6.6650   19.6940 C.ar  191  A191        0.1816
   4153  N9        47.0980   -6.9210   20.1850 N.ar  191  A191       -0.2693
   4154  OP1       52.8910   -9.2680   22.1970 O.3   191  A191       -0.4373
   4155  OP2       52.4160   -7.7630   20.1380 O.co2 191  A191       -0.5172
   4156  P         47.3490  -12.3050   20.8100 P.3   192  A192        0.2141
   4157  C5'       45.9390  -13.2490   22.7740 C.3   192  A192        0.1812
   4158  O5'       45.9710  -12.7950   21.4270 O.3   192  A192       -0.3114
   4159  C4'       44.5150  -13.5440   23.0530 C.3   192  A192        0.1773
   4160  O4'       43.7880  -12.3620   22.6510 O.3   192  A192       -0.3307
   4161  C3'       43.9530  -14.6360   22.1530 C.3   192  A192        0.1860
   4162  O3'       44.1550  -15.8530   22.8560 O.3   192  A192       -0.3112
   4163  C2'       42.4850  -14.2540   22.0460 C.3   192  A192        0.2309
   4164  O2'       41.8080  -14.6410   23.2330 O.3   192  A192       -0.2156
   4165  C1'       42.5700  -12.7250   22.0250 C.3   192  A192        0.2408
   4166  N1        39.6540  -11.4870   17.9750 N.ar  192  A192       -0.2040
   4167  C2        39.4040  -12.2050   19.0810 C.ar  192  A192        0.2016
   4168  N3        40.2130  -12.4930   20.1070 N.ar  192  A192       -0.2048
   4169  C4        41.4350  -11.9740   19.9020 C.ar  192  A192        0.1692
   4170  C5        41.8640  -11.2770   18.7820 C.ar  192  A192        0.1518
   4171  C6        40.9080  -11.0170   17.7860 C.ar  192  A192        0.1919
   4172  N6        41.1780  -10.3440   16.6650 N.pl3 192  A192       -0.1054
   4173  N7        43.2040  -10.9320   18.9010 N.ar  192  A192       -0.2193
   4174  C8        43.5440  -11.3970   20.0820 C.ar  192  A192        0.1816
   4175  N9        42.5300  -12.0710   20.7250 N.ar  192  A192       -0.2693
   4176  OP1       48.3980  -13.3670   21.0750 O.3   192  A192       -0.4373
   4177  OP2       47.0630  -11.8310   19.4340 O.co2 192  A192       -0.5172
   4178  P         44.8530  -17.0920   22.1250 P.3   193  A193        0.2141
   4179  C5'       42.4420  -18.0330   21.8830 C.3   193  A193        0.1812
   4180  O5'       43.5970  -17.5050   21.2190 O.3   193  A193       -0.3114
   4181  C4'       41.2660  -18.1150   20.9670 C.3   193  A193        0.1773
   4182  O4'       40.8240  -16.7710   20.7030 O.3   193  A193       -0.3307
   4183  C3'       41.5700  -18.7110   19.6000 C.3   193  A193        0.1860
   4184  O3'       41.3550  -20.1010   19.5800 O.3   193  A193       -0.3112
   4185  C2'       40.5490  -18.0430   18.6940 C.3   193  A193        0.2309
   4186  O2'       39.3140  -18.7230   18.5290 O.3   193  A193       -0.2156
   4187  C1'       40.4430  -16.6550   19.3300 C.3   193  A193        0.2408
   4188  N1        40.9300  -13.5280   15.2880 N.ar  193  A193       -0.2040
   4189  C2        39.9100  -14.2590   15.7420 C.ar  193  A193        0.2016
   4190  N3        39.8430  -15.0250   16.8290 N.ar  193  A193       -0.2048
   4191  C4        41.0100  -15.0120   17.4930 C.ar  193  A193        0.1692
   4192  C5        42.1350  -14.2830   17.1680 C.ar  193  A193        0.1518
   4193  C6        42.0680  -13.4930   16.0130 C.ar  193  A193        0.1919
   4194  N6        43.0560  -12.6990   15.6080 N.pl3 193  A193       -0.1054
   4195  N7        43.1450  -14.4980   18.0940 N.ar  193  A193       -0.2193
   4196  C8        42.6130  -15.3390   18.9510 C.ar  193  A193        0.1816
   4197  N9        41.3240  -15.6980   18.6430 N.ar  193  A193       -0.2693
   4198  OP1       45.1180  -17.8950   23.3430 O.3   193  A193       -0.4373
   4199  OP2       46.0060  -16.7000   21.2650 O.co2 193  A193       -0.5172
   4200  P         42.5640  -21.0230   19.0810 P.3   194  G194        0.2141
   4201  C5'       41.2220  -21.1940   16.9000 C.3   194  G194        0.1812
   4202  O5'       42.4470  -20.8280   17.5140 O.3   194  G194       -0.3114
   4203  C4'       41.1330  -20.5430   15.5590 C.3   194  G194        0.1773
   4204  O4'       41.1710  -19.1070   15.7280 O.3   194  G194       -0.3307
   4205  C3'       42.2860  -20.7190   14.5910 C.3   194  G194        0.1860
   4206  O3'       42.2780  -21.9570   13.8910 O.3   194  G194       -0.3112
   4207  C2'       41.8970  -19.6790   13.5650 C.3   194  G194        0.2309
   4208  O2'       40.7700  -20.2140   12.9000 O.3   194  G194       -0.2156
   4209  C1'       41.4250  -18.5380   14.4690 C.3   194  G194        0.2408
   4210  N1        43.2310  -14.5520   12.0810 N.ar  194  G194       -0.1709
   4211  C2        42.1860  -15.3890   11.7710 C.ar  194  G194        0.2606
   4212  N2        41.5390  -15.1530   10.6270 N.pl3 194  G194       -0.0859
   4213  N3        41.7960  -16.3880   12.5290 N.ar  194  G194       -0.1918
   4214  C4        42.5690  -16.5240   13.6230 C.ar  194  G194        0.1723
   4215  C5        43.6330  -15.7500   14.0330 C.ar  194  G194        0.1748
   4216  C6        44.0240  -14.6500   13.2190 C.ar  194  G194        0.3023
   4217  O6        44.9560  -13.8540   13.3900 O.2   194  G194       -0.2633
   4218  N7        44.1570  -16.2260   15.2290 N.ar  194  G194       -0.2173
   4219  C8        43.4140  -17.2660   15.5110 C.ar  194  G194        0.1817
   4220  N9        42.4270  -17.4900   14.5790 N.ar  194  G194       -0.2693
   4221  OP1       42.0570  -22.3760   19.3950 O.2   194  G194       -0.5172
   4222  OP2       43.9580  -20.6620   19.4770 O.co2 194  G194       -0.4373
   4223  P         43.6070  -22.5960   13.1920 P.3   195  U195        0.2141
   4224  C5'       44.3690  -21.2820   11.0570 C.3   195  U195        0.1812
   4225  O5'       43.3190  -21.9150   11.7870 O.3   195  U195       -0.3114
   4226  C4'       43.7190  -20.5960    9.9000 C.3   195  U195        0.1773
   4227  O4'       42.9940  -19.4260   10.3970 O.3   195  U195       -0.3307
   4228  C3'       44.6480  -20.0980    8.8040 C.3   195  U195        0.1860
   4229  O3'       44.7290  -21.0100    7.7270 O.3   195  U195       -0.3112
   4230  C2'       43.9090  -18.8620    8.3240 C.3   195  U195        0.2309
   4231  O2'       42.8300  -19.1960    7.4840 O.3   195  U195       -0.2156
   4232  C1'       43.3860  -18.2850    9.6480 C.3   195  U195        0.2420
   4233  N1        44.4360  -17.5580   10.3940 N.ar  195  U195       -0.2534
   4234  C2        44.8850  -16.3530    9.8780 C.ar  195  U195        0.3546
   4235  O2        44.4280  -15.8510    8.8610 O.2   195  U195       -0.2443
   4236  N3        45.8920  -15.7620   10.5920 N.ar  195  U195       -0.1530
   4237  C4        46.4450  -16.2050   11.7650 C.ar  195  U195        0.2846
   4238  O4        47.3100  -15.5310   12.3160 O.2   195  U195       -0.2650
   4239  C5        45.8950  -17.4290   12.2600 C.ar  195  U195        0.0814
   4240  C6        44.9560  -18.0610   11.5600 C.ar  195  U195        0.0870
   4241  OP1       43.4890  -24.0780   13.0930 O.2   195  U195       -0.5172
   4242  OP2       44.8950  -21.9980   13.6380 O.co2 195  U195       -0.4373
   4243  P         46.2440  -21.5260    7.3850 P.3   196  C196        0.2141
   4244  C5'       45.3590  -19.8610    5.5470 C.3   196  C196        0.1812
   4245  O5'       46.4810  -20.3520    6.3390 O.3   196  C196       -0.3114
   4246  C4'       45.8510  -18.7880    4.6080 C.3   196  C196        0.1773
   4247  O4'       45.6600  -17.4800    5.2270 O.3   196  C196       -0.3307
   4248  C3'       47.3470  -18.8210    4.3000 C.3   196  C196        0.1860
   4249  O3'       47.6530  -19.7910    3.2900 O.3   196  C196       -0.3112
   4250  C2'       47.5610  -17.3830    3.8580 C.3   196  C196        0.2309
   4251  O2'       46.9220  -17.1990    2.6020 O.3   196  C196       -0.2156
   4252  C1'       46.7480  -16.6380    4.9180 C.3   196  C196        0.2420
   4253  N1        47.5040  -16.3960    6.1480 N.ar  196  C196       -0.2535
   4254  C2        48.4860  -15.3930    6.1400 C.ar  196  C196        0.3532
   4255  O2        48.6610  -14.7340    5.1050 O.2   196  C196       -0.2443
   4256  N3        49.2180  -15.1700    7.2550 N.ar  196  C196       -0.1739
   4257  C4        48.9940  -15.8940    8.3500 C.ar  196  C196        0.1759
   4258  N4        49.7510  -15.6490    9.4210 N.pl3 196  C196       -0.1070
   4259  C5        47.9730  -16.8940    8.4000 C.ar  196  C196        0.0566
   4260  C6        47.2820  -17.1320    7.2760 C.ar  196  C196        0.0850
   4261  OP1       46.2130  -22.5830    6.3540 O.2   196  C196       -0.5172
   4262  OP2       47.2490  -21.6420    8.5050 O.co2 196  C196       -0.4373
   4263  P         49.1170  -20.3480    3.0540 P.3   197  C197        0.2141
   4264  C5'       49.5630  -18.5540    1.1650 C.3   197  C197        0.1812
   4265  O5'       50.0960  -19.5040    2.1310 O.3   197  C197       -0.3114
   4266  C4'       50.5650  -17.4490    0.9900 C.3   197  C197        0.1773
   4267  O4'       50.3730  -16.4820    2.0530 O.3   197  C197       -0.3307
   4268  C3'       51.9950  -17.9050    1.1890 C.3   197  C197        0.1860
   4269  O3'       52.4150  -18.5000   -0.0280 O.3   197  C197       -0.3112
   4270  C2'       52.6930  -16.5990    1.5630 C.3   197  C197        0.2309
   4271  O2'       53.0290  -15.8920    0.3750 O.3   197  C197       -0.2156
   4272  C1'       51.6140  -15.9090    2.4070 C.3   197  C197        0.2420
   4273  N1        51.7940  -16.0590    3.8550 N.ar  197  C197       -0.2535
   4274  C2        52.8210  -15.3250    4.4970 C.ar  197  C197        0.3532
   4275  O2        53.5340  -14.5650    3.8230 O.2   197  C197       -0.2443
   4276  N3        53.0420  -15.5110    5.8260 N.ar  197  C197       -0.1739
   4277  C4        52.2370  -16.3140    6.5280 C.ar  197  C197        0.1759
   4278  N4        52.4320  -16.3810    7.8460 N.pl3 197  C197       -0.1070
   4279  C5        51.1240  -16.9950    5.9180 C.ar  197  C197        0.0566
   4280  C6        50.9650  -16.8670    4.5850 C.ar  197  C197        0.0850
   4281  OP1       48.8170  -21.2810    1.9480 O.2   197  C197       -0.5172
   4282  OP2       49.8390  -20.7320    4.3040 O.co2 197  C197       -0.4373
   4283  P         53.9410  -19.0130   -0.1370 P.3   198  U198        0.2141
   4284  C5'       56.0730  -17.5640   -0.5000 C.3   198  U198        0.1812
   4285  O5'       55.2710  -18.3080    0.3810 O.3   198  U198       -0.3114
   4286  C4'       57.0430  -16.8590    0.3510 C.3   198  U198        0.1773
   4287  O4'       56.3880  -16.5980    1.6190 O.3   198  U198       -0.3307
   4288  C3'       58.2040  -17.7680    0.6990 C.3   198  U198        0.1860
   4289  O3'       59.4290  -17.2010    0.3280 O.3   198  U198       -0.3112
   4290  C2'       58.1550  -17.8890    2.2220 C.3   198  U198        0.2309
   4291  O2'       59.4570  -17.9530    2.7610 O.3   198  U198       -0.2156
   4292  C1'       57.3780  -16.6400    2.6120 C.3   198  U198        0.2420
   4293  N1        56.7770  -16.7510    3.9470 N.ar  198  U198       -0.2534
   4294  C2        57.5190  -16.2350    4.9860 C.ar  198  U198        0.3546
   4295  O2        58.5770  -15.6660    4.8110 O.2   198  U198       -0.2443
   4296  N3        56.9830  -16.4190    6.2370 N.ar  198  U198       -0.1530
   4297  C4        55.7730  -17.0060    6.5430 C.ar  198  U198        0.2846
   4298  O4        55.3970  -17.0500    7.7170 O.2   198  U198       -0.2650
   4299  C5        55.0330  -17.4720    5.4020 C.ar  198  U198        0.0814
   4300  C6        55.5630  -17.3500    4.1730 C.ar  198  U198        0.0870
   4301  OP1       53.9810  -19.3410   -1.5960 O.2   198  U198       -0.5172
   4302  OP2       53.9940  -19.9660    1.0040 O.co2 198  U198       -0.4373
   4303  P         59.6770  -16.9290   -1.1880 P.3   199  U199        0.2141
   4304  C5'       60.6070  -14.4750   -1.3830 C.3   199  U199        0.1812
   4305  O5'       59.4660  -15.3690   -1.3690 O.3   199  U199       -0.3114
   4306  C4'       60.4530  -13.4990   -2.5230 C.3   199  U199        0.1773
   4307  O4'       59.1290  -12.8710   -2.5800 O.3   199  U199       -0.3307
   4308  C3'       61.3960  -12.3360   -2.5020 C.3   199  U199        0.1860
   4309  O3'       62.5140  -13.0020   -2.9950 O.3   199  U199       -0.3112
   4310  C2'       60.7340  -11.4660   -3.5360 C.3   199  U199        0.2309
   4311  O2'       60.6880  -12.1010   -4.7720 O.3   199  U199       -0.2156
   4312  C1'       59.2710  -11.5630   -3.1110 C.3   199  U199        0.2420
   4313  N1        59.0170  -10.5570   -2.0640 N.ar  199  U199       -0.2534
   4314  C2        58.9160   -9.2360   -2.4650 C.ar  199  U199        0.3546
   4315  O2        58.9050   -8.8940   -3.6340 O.2   199  U199       -0.2443
   4316  N3        58.7710   -8.3360   -1.4430 N.ar  199  U199       -0.1530
   4317  C4        58.7550   -8.5980   -0.0970 C.ar  199  U199        0.2846
   4318  O4        58.6360   -7.6720    0.6920 O.2   199  U199       -0.2650
   4319  C5        58.8860   -9.9780    0.2420 C.ar  199  U199        0.0814
   4320  C6        59.0360  -10.8860   -0.7280 C.ar  199  U199        0.0870
   4321  OP1       58.5360  -17.4830   -1.9770 O.2   199  U199       -0.5172
   4322  OP2       61.1320  -17.2210   -1.4430 O.co2 199  U199       -0.4373
   4323  P         63.9100  -12.2860   -2.9000 P.3   200  U200        0.2141
   4324  C5'       63.6140  -10.7470   -5.0180 C.3   200  U200        0.1812
   4325  O5'       63.4140  -10.9530   -3.6060 O.3   200  U200       -0.3114
   4326  C4'       63.8900   -9.2940   -5.3050 C.3   200  U200        0.1773
   4327  O4'       62.6860   -8.4970   -5.1350 O.3   200  U200       -0.3307
   4328  C3'       64.8710   -8.5790   -4.4010 C.3   200  U200        0.1860
   4329  O3'       66.1990   -8.8110   -4.7920 O.3   200  U200       -0.3112
   4330  C2'       64.5790   -7.1500   -4.7960 C.3   200  U200        0.2309
   4331  O2'       65.0740   -7.0170   -6.1040 O.3   200  U200       -0.2156
   4332  C1'       63.0560   -7.1680   -4.8370 C.3   200  U200        0.2420
   4333  N1        62.5410   -6.8090   -3.5100 N.ar  200  U200       -0.2534
   4334  C2        62.1440   -5.4950   -3.3290 C.ar  200  U200        0.3546
   4335  O2        62.1250   -4.6800   -4.2370 O.2   200  U200       -0.2443
   4336  N3        61.7310   -5.1860   -2.0530 N.ar  200  U200       -0.1530
   4337  C4        61.7060   -6.0210   -0.9560 C.ar  200  U200        0.2846
   4338  O4        61.3170   -5.5870    0.1310 O.2   200  U200       -0.2650
   4339  C5        62.1520   -7.3590   -1.2200 C.ar  200  U200        0.0814
   4340  C6        62.5680   -7.6920   -2.4520 C.ar  200  U200        0.0870
   4341  OP1       64.9670  -12.9820   -3.7000 O.2   200  U200       -0.5172
   4342  OP2       64.2270  -11.8800   -1.5170 O.co2 200  U200       -0.4373
   4343  P         67.3720   -8.0170   -4.0260 P.3   201  C201        0.2141
   4344  C5'       68.6320   -5.8270   -4.7910 C.3   201  C201        0.1812
   4345  O5'       67.5090   -6.7080   -4.9160 O.3   201  C201       -0.3114
   4346  C4'       68.1810   -4.4220   -5.0730 C.3   201  C201        0.1773
   4347  O4'       66.7630   -4.3030   -4.8110 O.3   201  C201       -0.3307
   4348  C3'       68.8190   -3.3940   -4.1720 C.3   201  C201        0.1860
   4349  O3'       70.0870   -3.0940   -4.7130 O.3   201  C201       -0.3112
   4350  C2'       67.7930   -2.2670   -4.1300 C.3   201  C201        0.2309
   4351  O2'       68.0210   -1.1620   -4.9860 O.3   201  C201       -0.2156
   4352  C1'       66.4780   -3.0240   -4.3090 C.3   201  C201        0.2420
   4353  N1        65.7990   -3.2020   -3.0380 N.ar  201  C201       -0.2535
   4354  C2        65.5210   -2.0730   -2.2740 C.ar  201  C201        0.3532
   4355  O2        65.8840   -0.9720   -2.6960 O.2   201  C201       -0.2443
   4356  N3        64.8770   -2.2090   -1.0900 N.ar  201  C201       -0.1739
   4357  C4        64.4940   -3.4170   -0.6800 C.ar  201  C201        0.1759
   4358  N4        63.8620   -3.5090    0.4890 N.pl3 201  C201       -0.1070
   4359  C5        64.7470   -4.5890   -1.4520 C.ar  201  C201        0.0566
   4360  C6        65.4020   -4.4370   -2.6140 C.ar  201  C201        0.0850
   4361  OP1       68.6480   -8.8250   -4.1960 O.2   201  C201       -0.5172
   4362  OP2       66.9450   -7.5070   -2.6860 O.co2 201  C201       -0.4373
   4363  P         71.1480   -3.4170   -3.5850 P.3   202  U202        0.2141
   4364  C5'       71.8430   -0.9180   -3.1610 C.3   202  U202        0.1812
   4365  O5'       71.0330   -2.0430   -2.7900 O.3   202  U202       -0.3114
   4366  C4'       71.1460    0.3380   -2.7260 C.3   202  U202        0.1773
   4367  O4'       69.7220    0.0850   -2.5850 O.3   202  U202       -0.3307
   4368  C3'       71.5170    0.7980   -1.3340 C.3   202  U202        0.1860
   4369  O3'       72.7940    1.3810   -1.2700 O.3   202  U202       -0.3112
   4370  C2'       70.3710    1.7290   -1.0030 C.3   202  U202        0.2309
   4371  O2'       70.5370    3.0020   -1.5740 O.3   202  U202       -0.2156
   4372  C1'       69.1980    0.9590   -1.6010 C.3   202  U202        0.2420
   4373  N1        68.5060    0.1620   -0.5840 N.ar  202  U202       -0.2534
   4374  C2        68.0120    0.8380    0.5090 C.ar  202  U202        0.3546
   4375  O2        68.1400    2.0400    0.6520 O.2   202  U202       -0.2443
   4376  N3        67.3430    0.0570    1.4200 N.ar  202  U202       -0.1530
   4377  C4        67.1260   -1.3020    1.3560 C.ar  202  U202        0.2846
   4378  O4        66.4970   -1.8600    2.2570 O.2   202  U202       -0.2650
   4379  C5        67.6880   -1.9360    0.2020 C.ar  202  U202        0.0814
   4380  C6        68.3530   -1.2000   -0.7030 C.ar  202  U202        0.0870
   4381  OP1       72.4870   -3.6950   -4.2030 O.2   202  U202       -0.5172
   4382  OP2       70.5480   -4.3930   -2.6440 O.co2 202  U202       -0.4373
   4383  P         73.8190    0.5120   -0.4300 P.3   203  G203        0.2141
   4384  C5'       74.0030    3.0330    0.2640 C.3   203  G203        0.1812
   4385  O5'       74.2610    1.6610    0.5770 O.3   203  G203       -0.3114
   4386  C4'       73.2670    3.6940    1.3920 C.3   203  G203        0.1773
   4387  O4'       71.8680    3.3180    1.3330 O.3   203  G203       -0.3307
   4388  C3'       73.6440    3.2970    2.8110 C.3   203  G203        0.1860
   4389  O3'       74.8750    3.8110    3.2920 O.3   203  G203       -0.3112
   4390  C2'       72.4400    3.8370    3.5690 C.3   203  G203        0.2309
   4391  O2'       72.4110    5.2460    3.6260 O.3   203  G203       -0.2156
   4392  C1'       71.3040    3.4030    2.6410 C.3   203  G203        0.2408
   4393  N1        68.4950    0.9290    6.0500 N.ar  203  G203       -0.1709
   4394  C2        68.9000    2.2420    6.0260 C.ar  203  G203        0.2606
   4395  N2        68.4640    3.0100    7.0260 N.pl3 203  G203       -0.0859
   4396  N3        69.6570    2.7670    5.0800 N.ar  203  G203       -0.1918
   4397  C4        69.9610    1.8670    4.1240 C.ar  203  G203        0.1723
   4398  C5        69.6220    0.5300    4.0560 C.ar  203  G203        0.1748
   4399  C6        68.8170   -0.0250    5.0900 C.ar  203  G203        0.3023
   4400  O6        68.3910   -1.1830    5.2040 O.2   203  G203       -0.2633
   4401  N7        70.1550   -0.0560    2.9150 N.ar  203  G203       -0.2173
   4402  C8        70.7990    0.9150    2.3260 C.ar  203  G203        0.1817
   4403  N9        70.7100    2.1120    3.0010 N.ar  203  G203       -0.2693
   4404  OP1       74.8690   -0.0710   -1.3190 O.2   203  G203       -0.5172
   4405  OP2       73.0440   -0.3660    0.4570 O.co2 203  G203       -0.4373
   4406  P         75.9940    2.8910    4.0260 P.3   204  C204        0.2141
   4407  C5'       75.5980    4.3370    6.1950 C.3   204  C204        0.1812
   4408  O5'       75.4590    3.0690    5.5160 O.3   204  C204       -0.3114
   4409  C4'       74.6380    4.4460    7.3560 C.3   204  C204        0.1773
   4410  O4'       73.3010    4.0940    6.9110 O.3   204  C204       -0.3307
   4411  C3'       74.8620    3.4950    8.5220 C.3   204  C204        0.1860
   4412  O3'       75.8420    3.8240    9.4810 O.3   204  C204       -0.3112
   4413  C2'       73.5080    3.5430    9.1910 C.3   204  C204        0.2309
   4414  O2'       73.4120    4.7530    9.9200 O.3   204  C204       -0.2156
   4415  C1'       72.6060    3.4370    7.9630 C.3   204  C204        0.2420
   4416  N1        72.3250    2.0390    7.5560 N.ar  204  C204       -0.2535
   4417  C2        71.1970    1.4210    8.1020 C.ar  204  C204        0.3532
   4418  O2        70.5020    2.0570    8.9070 O.2   204  C204       -0.2443
   4419  N3        70.8950    0.1490    7.7430 N.ar  204  C204       -0.1739
   4420  C4        71.6820   -0.5070    6.8870 C.ar  204  C204        0.1759
   4421  N4        71.3440   -1.7570    6.5680 N.pl3 204  C204       -0.1070
   4422  C5        72.8520    0.0940    6.3230 C.ar  204  C204        0.0566
   4423  C6        73.1320    1.3570    6.6830 C.ar  204  C204        0.0850
   4424  OP1       77.2930    3.5830    3.8660 O.3   204  C204       -0.4373
   4425  OP2       75.9250    1.4590    3.7020 O.co2 204  C204       -0.5172
   4426  P         76.7160    2.5890   10.0120 P.3   205  C205        0.2141
   4427  C5'       75.0650    2.6640   12.1270 C.3   205  C205        0.1812
   4428  O5'       75.7240    1.9250   11.0780 O.3   205  C205       -0.3114
   4429  C4'       74.0320    1.7950   12.8080 C.3   205  C205        0.1773
   4430  O4'       73.1700    1.1580   11.8160 O.3   205  C205       -0.3307
   4431  C3'       74.5250    0.5910   13.5940 C.3   205  C205        0.1860
   4432  O3'       75.2810    0.8480   14.7730 O.3   205  C205       -0.3112
   4433  C2'       73.2190   -0.1900   13.7600 C.3   205  C205        0.2309
   4434  O2'       72.2240    0.3710   14.6050 O.3   205  C205       -0.2156
   4435  C1'       72.6290   -0.0480   12.3560 C.3   205  C205        0.2420
   4436  N1        72.9250   -1.1760   11.4410 N.ar  205  C205       -0.2535
   4437  C2        71.9510   -2.1610   11.2750 C.ar  205  C205        0.3532
   4438  O2        70.8920   -2.0560   11.8990 O.2   205  C205       -0.2443
   4439  N3        72.1900   -3.2010   10.4420 N.ar  205  C205       -0.1739
   4440  C4        73.3590   -3.2880    9.8030 C.ar  205  C205        0.1759
   4441  N4        73.5550   -4.3330    8.9930 N.pl3 205  C205       -0.1070
   4442  C5        74.3820   -2.3050    9.9670 C.ar  205  C205        0.0566
   4443  C6        74.1240   -1.2750   10.7880 C.ar  205  C205        0.0850
   4444  OP1       77.9390    3.2030   10.6190 O.3   205  C205       -0.4373
   4445  OP2       76.8920    1.5740    8.9280 O.co2 205  C205       -0.5172
   4446  P         76.5780   -0.0490   15.1880 P.3   206  A206        0.2141
   4447  C5'       76.1620   -2.6370   14.7920 C.3   206  A206        0.1812
   4448  O5'       75.8770   -1.4400   15.5480 O.3   206  A206       -0.3114
   4449  C4'       75.3250   -3.7970   15.2800 C.3   206  A206        0.1773
   4450  O4'       74.2060   -4.0090   14.3770 O.3   206  A206       -0.3307
   4451  C3'       76.0080   -5.1640   15.2690 C.3   206  A206        0.1860
   4452  O3'       77.0730   -5.3600   16.2110 O.3   206  A206       -0.3112
   4453  C2'       74.8090   -6.1120   15.3280 C.3   206  A206        0.2309
   4454  O2'       74.2360   -6.3790   16.5900 O.3   206  A206       -0.2156
   4455  C1'       73.7730   -5.3550   14.4920 C.3   206  A206        0.2408
   4456  N1        71.3890   -8.9660   11.7510 N.ar  206  A206       -0.2040
   4457  C2        71.2970   -8.5920   13.0360 C.ar  206  A206        0.2016
   4458  N3        71.9550   -7.6320   13.6830 N.ar  206  A206       -0.2048
   4459  C4        72.8090   -6.9990   12.8560 C.ar  206  A206        0.1692
   4460  C5        73.0210   -7.2700   11.5160 C.ar  206  A206        0.1518
   4461  C6        72.2620   -8.3160   10.9480 C.ar  206  A206        0.1919
   4462  N6        72.3480   -8.6880    9.6660 N.pl3 206  A206       -0.1054
   4463  N7        73.9830   -6.4170   10.9890 N.ar  206  A206       -0.2193
   4464  C8        74.3240   -5.6620   12.0060 C.ar  206  A206        0.1816
   4465  N9        73.6340   -5.9420   13.1600 N.ar  206  A206       -0.2693
   4466  OP1       77.0770    0.5810   16.4400 O.3   206  A206       -0.4373
   4467  OP2       77.5480   -0.2610   14.0730 O.co2 206  A206       -0.5172
   4468  P         77.0320   -5.9800   17.7030 P.3   207  A207        0.2141
   4469  C5'       75.8570   -8.3990   17.6680 C.3   207  A207        0.1812
   4470  O5'       77.0460   -7.5720   17.5450 O.3   207  A207       -0.3114
   4471  C4'       75.6850   -8.9300   19.0780 C.3   207  A207        0.1773
   4472  O4'       76.8440   -9.7230   19.4700 O.3   207  A207       -0.3307
   4473  C3'       75.5120   -7.8730   20.1750 C.3   207  A207        0.1860
   4474  O3'       74.3300   -8.1070   20.9290 O.3   207  A207       -0.3112
   4475  C2'       76.8050   -7.9830   20.9870 C.3   207  A207        0.2309
   4476  O2'       76.7160   -7.6070   22.3470 O.3   207  A207       -0.2156
   4477  C1'       77.1250   -9.4660   20.8310 C.3   207  A207        0.2408
   4478  N1        81.3670  -12.0690   19.3830 N.ar  207  A207       -0.2040
   4479  C2        80.1730  -11.9110   18.7950 C.ar  207  A207        0.2016
   4480  N3        79.1100  -11.2240   19.2140 N.ar  207  A207       -0.2048
   4481  C4        79.3600  -10.6390   20.4010 C.ar  207  A207        0.1692
   4482  C5        80.5370  -10.7090   21.1270 C.ar  207  A207        0.1518
   4483  C6        81.5860  -11.4690   20.5740 C.ar  207  A207        0.1919
   4484  N6        82.7750  -11.6260   21.1610 N.pl3 207  A207       -0.1054
   4485  N7        80.4320   -9.9790   22.3040 N.ar  207  A207       -0.2193
   4486  C8        79.2150   -9.4940   22.2660 C.ar  207  A207        0.1816
   4487  N9        78.5140   -9.8400   21.1350 N.ar  207  A207       -0.2693
   4488  OP1       75.7590   -5.5330   18.3170 O.2   207  A207       -0.5172
   4489  OP2       78.3120   -5.5930   18.3600 O.co2 207  A207       -0.4373
   4490  P         73.6720   -6.8780   21.7300 P.3   208  A208        0.2141
   4491  C5'       73.7670   -4.4800   20.6010 C.3   208  A208        0.1812
   4492  O5'       73.1860   -5.7980   20.6610 O.3   208  A208       -0.3114
   4493  C4'       73.0880   -3.6470   19.5420 C.3   208  A208        0.1773
   4494  O4'       73.2090   -4.2960   18.2510 O.3   208  A208       -0.3307
   4495  C3'       71.5990   -3.4400   19.7730 C.3   208  A208        0.1860
   4496  O3'       71.4450   -2.2040   20.4270 O.3   208  A208       -0.3112
   4497  C2'       71.0170   -3.4140   18.3680 C.3   208  A208        0.2309
   4498  O2'       70.9060   -2.1430   17.7620 O.3   208  A208       -0.2156
   4499  C1'       71.9360   -4.3950   17.6450 C.3   208  A208        0.2408
   4500  N1        68.0540   -7.6070   16.6830 N.ar  208  A208       -0.2040
   4501  C2        68.2330   -6.3050   16.4300 C.ar  208  A208        0.2016
   4502  N3        69.2750   -5.5260   16.7160 N.ar  208  A208       -0.2048
   4503  C4        70.2370   -6.2290   17.3390 C.ar  208  A208        0.1692
   4504  C5        70.2050   -7.5740   17.6590 C.ar  208  A208        0.1518
   4505  C6        69.0450   -8.2850   17.3080 C.ar  208  A208        0.1919
   4506  N6        68.8720   -9.5830   17.5600 N.pl3 208  A208       -0.1054
   4507  N7        71.3850   -7.9600   18.2790 N.ar  208  A208       -0.2193
   4508  C8        72.0910   -6.8570   18.3260 C.ar  208  A208        0.1816
   4509  N9        71.4580   -5.7710   17.7700 N.ar  208  A208       -0.2693
   4510  OP1       74.7200   -6.2560   22.5810 O.3   208  A208       -0.4373
   4511  OP2       72.4360   -7.3980   22.3580 O.co2 208  A208       -0.5172
   4512  P         70.8670   -2.3820   21.8780 P.3   209  G209        0.2141
   4513  C5'       69.0450   -0.8890   20.7870 C.3   209  G209        0.1812
   4514  O5'       69.3420   -2.0450   21.5700 O.3   209  G209       -0.3114
   4515  C4'       67.9640   -1.2190   19.7930 C.3   209  G209        0.1773
   4516  O4'       68.2150   -2.5180   19.2100 O.3   209  G209       -0.3307
   4517  C3'       66.5720   -1.3990   20.3820 C.3   209  G209        0.1860
   4518  O3'       65.8760   -0.1960   20.7240 O.3   209  G209       -0.3112
   4519  C2'       65.8530   -2.2100   19.3080 C.3   209  G209        0.2309
   4520  O2'       65.0960   -1.4140   18.4280 O.3   209  G209       -0.2156
   4521  C1'       66.9990   -3.0100   18.6700 C.3   209  G209        0.2408
   4522  N1        64.0090   -7.0770   18.3090 N.ar  209  G209       -0.1709
   4523  C2        63.7840   -5.7800   17.9200 C.ar  209  G209        0.2606
   4524  N2        62.5980   -5.5250   17.3530 N.pl3 209  G209       -0.0859
   4525  N3        64.6600   -4.8040   18.0600 N.ar  209  G209       -0.1918
   4526  C4        65.8070   -5.2310   18.6280 C.ar  209  G209        0.1723
   4527  C5        66.1360   -6.5000   19.0580 C.ar  209  G209        0.1748
   4528  C6        65.1800   -7.5470   18.8890 C.ar  209  G209        0.3023
   4529  O6        65.2760   -8.7430   19.1940 O.2   209  G209       -0.2633
   4530  N7        67.4070   -6.5140   19.6230 N.ar  209  G209       -0.2173
   4531  C8        67.8180   -5.2770   19.5270 C.ar  209  G209        0.1817
   4532  N9        66.8960   -4.4470   18.9310 N.ar  209  G209       -0.2693
   4533  OP1       71.4340   -1.3110   22.7280 O.3   209  G209       -0.4373
   4534  OP2       71.1200   -3.8020   22.2390 O.co2 209  G209       -0.5172
   4535  P         65.3800   -0.0610   22.2570 P.3   210  U210        0.2141
   4536  C5'       63.0150   -0.2750   21.1810 C.3   210  U210        0.1812
   4537  O5'       63.9830   -0.8020   22.0870 O.3   210  U210       -0.3114
   4538  C4'       62.0860   -1.3770   20.7900 C.3   210  U210        0.1773
   4539  O4'       62.8400   -2.4940   20.2700 O.3   210  U210       -0.3307
   4540  C3'       61.3750   -2.0420   21.9430 C.3   210  U210        0.1860
   4541  O3'       60.3320   -1.2540   22.4830 O.3   210  U210       -0.3112
   4542  C2'       60.8580   -3.2930   21.2660 C.3   210  U210        0.2309
   4543  O2'       59.7220   -3.0140   20.4750 O.3   210  U210       -0.2156
   4544  C1'       62.0590   -3.6670   20.4040 C.3   210  U210        0.2420
   4545  N1        62.8760   -4.7290   21.0070 N.ar  210  U210       -0.2534
   4546  C2        62.2860   -5.9690   21.1460 C.ar  210  U210        0.3546
   4547  O2        61.1390   -6.1940   20.8110 O.2   210  U210       -0.2443
   4548  N3        63.0850   -6.9320   21.7020 N.ar  210  U210       -0.1530
   4549  C4        64.3860   -6.7950   22.1150 C.ar  210  U210        0.2846
   4550  O4        64.9790   -7.7670   22.5920 O.2   210  U210       -0.2650
   4551  C5        64.9290   -5.4800   21.9360 C.ar  210  U210        0.0814
   4552  C6        64.1700   -4.5160   21.4050 C.ar  210  U210        0.0870
   4553  OP1       65.0110    1.3330   22.6830 O.2   210  U210       -0.5172
   4554  OP2       66.3730   -0.8610   23.0580 O.co2 210  U210       -0.4373
   4555  P         59.9180   -1.5340   24.0050 P.3   211  U211        0.2141
   4556  C5'       57.8330   -2.9560   23.3660 C.3   211  U211        0.1812
   4557  O5'       59.1080   -2.9030   24.0030 O.3   211  U211       -0.3114
   4558  C4'       57.4530   -4.3880   23.1080 C.3   211  U211        0.1773
   4559  O4'       58.5610   -5.1430   22.5550 O.3   211  U211       -0.3307
   4560  C3'       57.1050   -5.2140   24.3220 C.3   211  U211        0.1860
   4561  O3'       55.8120   -4.8750   24.7630 O.3   211  U211       -0.3112
   4562  C2'       57.1300   -6.6000   23.7150 C.3   211  U211        0.2309
   4563  O2'       56.0670   -6.7390   22.7970 O.3   211  U211       -0.2156
   4564  C1'       58.4070   -6.5110   22.8950 C.3   211  U211        0.2420
   4565  N1        59.5830   -6.9470   23.6570 N.ar  211  U211       -0.2534
   4566  C2        59.6780   -8.2940   23.9410 C.ar  211  U211        0.3546
   4567  O2        58.8380   -9.1040   23.5970 O.2   211  U211       -0.2443
   4568  N3        60.8050   -8.6590   24.6310 N.ar  211  U211       -0.1530
   4569  C4        61.8140   -7.8350   25.0790 C.ar  211  U211        0.2846
   4570  O4        62.7500   -8.3180   25.7210 O.2   211  U211       -0.2650
   4571  C5        61.6480   -6.4530   24.7420 C.ar  211  U211        0.0814
   4572  C6        60.5620   -6.0650   24.0610 C.ar  211  U211        0.0870
   4573  OP1       58.8530   -0.5160   24.2820 O.2   211  U211       -0.5172
   4574  OP2       61.1300   -1.7000   24.8920 O.co2 211  U211       -0.4373
   4575  P         55.5800   -4.9910   26.3260 P.3   212  G212        0.2141
   4576  C5'       54.3020   -7.2490   25.6380 C.3   212  G212        0.1812
   4577  O5'       55.2790   -6.5540   26.4690 O.3   212  G212       -0.3114
   4578  C4'       54.3930   -8.7530   25.8360 C.3   212  G212        0.1773
   4579  O4'       55.6560   -9.2640   25.2950 O.3   212  G212       -0.3307
   4580  C3'       54.4250   -9.2460   27.2770 C.3   212  G212        0.1860
   4581  O3'       53.2350   -9.2750   28.0510 O.3   212  G212       -0.3112
   4582  C2'       55.0250  -10.6220   27.0850 C.3   212  G212        0.2309
   4583  O2'       54.0990  -11.3690   26.3140 O.3   212  G212       -0.2156
   4584  C1'       56.1850  -10.2670   26.1660 C.3   212  G212        0.2408
   4585  N1        60.6380  -11.3660   28.4080 N.ar  212  G212       -0.1709
   4586  C2        59.6770  -12.2220   27.9270 C.ar  212  G212        0.2606
   4587  N2        59.9440  -13.5340   28.0490 N.pl3 212  G212       -0.0859
   4588  N3        58.5410  -11.8210   27.3630 N.ar  212  G212       -0.1918
   4589  C4        58.4410  -10.4710   27.3350 C.ar  212  G212        0.1723
   4590  C5        59.3420   -9.5320   27.7990 C.ar  212  G212        0.1748
   4591  C6        60.5560   -9.9770   28.3900 C.ar  212  G212        0.3023
   4592  O6        61.4790   -9.2980   28.8580 O.2   212  G212       -0.2633
   4593  N7        58.8630   -8.2460   27.5930 N.ar  212  G212       -0.2173
   4594  C8        57.7050   -8.4190   27.0160 C.ar  212  G212        0.1817
   4595  N9        57.3830   -9.7430   26.8320 N.ar  212  G212       -0.2693
   4596  OP1       54.3330   -4.1800   26.4310 O.2   212  G212       -0.5172
   4597  OP2       56.7780   -4.6590   27.1700 O.co2 212  G212       -0.4373
   4598  P         53.5210   -9.0360   29.6260 P.3   213  G213        0.2141
   4599  C5'       52.9190  -11.6210   29.7830 C.3   213  G213        0.1812
   4600  O5'       53.4670  -10.4360   30.3900 O.3   213  G213       -0.3114
   4601  C4'       53.5830  -12.8520   30.3520 C.3   213  G213        0.1773
   4602  O4'       54.8930  -13.0190   29.7500 O.3   213  G213       -0.3307
   4603  C3'       53.8750  -12.8140   31.8450 C.3   213  G213        0.1860
   4604  O3'       52.7280  -13.0080   32.6790 O.3   213  G213       -0.3112
   4605  C2'       54.9900  -13.8520   31.9770 C.3   213  G213        0.2309
   4606  O2'       54.6500  -15.2220   32.0710 O.3   213  G213       -0.2156
   4607  C1'       55.7740  -13.6180   30.6880 C.3   213  G213        0.2408
   4608  N1        60.5910  -13.1950   32.2150 N.ar  213  G213       -0.1709
   4609  C2        59.7970  -14.3130   32.1390 C.ar  213  G213        0.2606
   4610  N2        60.3640  -15.4660   32.5240 N.pl3 213  G213       -0.0859
   4611  N3        58.5420  -14.3000   31.7230 N.ar  213  G213       -0.1918
   4612  C4        58.1360  -13.0580   31.3860 C.ar  213  G213        0.1723
   4613  C5        58.8500  -11.8800   31.4240 C.ar  213  G213        0.1748
   4614  C6        60.1940  -11.9080   31.8660 C.ar  213  G213        0.3023
   4615  O6        60.9900  -10.9680   31.9690 O.2   213  G213       -0.2633
   4616  N7        58.0700  -10.8170   30.9890 N.ar  213  G213       -0.2173
   4617  C8        56.9200  -11.3590   30.6970 C.ar  213  G213        0.1817
   4618  N9        56.8970  -12.7170   30.9020 N.ar  213  G213       -0.2693
   4619  OP1       52.3330   -8.1930   29.9420 O.2   213  G213       -0.5172
   4620  OP2       54.9150   -8.5610   29.9650 O.co2 213  G213       -0.4373
   4621  P         52.5230  -12.1540   34.0400 P.3   214  U214        0.2141
   4622  C5'       52.8260  -14.5240   35.1690 C.3   214  U214        0.1812
   4623  O5'       53.1260  -13.1170   35.1600 O.3   214  U214       -0.3114
   4624  C4'       54.0160  -15.3180   35.6510 C.3   214  U214        0.1773
   4625  O4'       55.1140  -15.2080   34.7000 O.3   214  U214       -0.3307
   4626  C3'       54.6420  -14.8550   36.9550 C.3   214  U214        0.1860
   4627  O3'       53.8760  -15.1120   38.1260 O.3   214  U214       -0.3112
   4628  C2'       56.0200  -15.4990   36.8700 C.3   214  U214        0.2309
   4629  O2'       56.0630  -16.8760   37.2010 O.3   214  U214       -0.2156
   4630  C1'       56.3560  -15.2500   35.3960 C.3   214  U214        0.2420
   4631  N1        57.0550  -13.9710   35.1830 N.ar  214  U214       -0.2534
   4632  C2        58.4190  -13.9300   35.4280 C.ar  214  U214        0.3546
   4633  O2        59.0610  -14.9040   35.7860 O.2   214  U214       -0.2443
   4634  N3        59.0000  -12.7010   35.2340 N.ar  214  U214       -0.1530
   4635  C4        58.3800  -11.5350   34.8350 C.ar  214  U214        0.2846
   4636  O4        59.0470  -10.5070   34.7080 O.2   214  U214       -0.2650
   4637  C5        56.9710  -11.6570   34.6090 C.ar  214  U214        0.0814
   4638  C6        56.3710  -12.8380   34.7940 C.ar  214  U214        0.0870
   4639  OP1       51.0570  -11.9570   34.2370 O.3   214  U214       -0.4373
   4640  OP2       53.4140  -10.9650   33.9960 O.co2 214  U214       -0.5172
   4641  P         53.7540  -13.8460   39.0990 P.3   215  A215        0.2141
   4642  C5'       55.5260  -15.1040   40.6400 C.3   215  A215        0.1812
   4643  O5'       55.1280  -13.9140   39.9180 O.3   215  A215       -0.3114
   4644  C4'       57.0140  -15.1300   40.9450 C.3   215  A215        0.1773
   4645  O4'       57.8030  -15.0160   39.7220 O.3   215  A215       -0.3307
   4646  C3'       57.5930  -14.0330   41.8380 C.3   215  A215        0.1860
   4647  O3'       57.3110  -14.0730   43.2390 O.3   215  A215       -0.3112
   4648  C2'       59.0740  -14.1530   41.5020 C.3   215  A215        0.2309
   4649  O2'       59.7290  -15.3080   41.9890 O.3   215  A215       -0.2156
   4650  C1'       58.9860  -14.2660   39.9850 C.3   215  A215        0.2408
   4651  N1        61.4240   -9.9970   38.4710 N.ar  215  A215       -0.2040
   4652  C2        61.8600  -11.1320   39.0360 C.ar  215  A215        0.2016
   4653  N3        61.1690  -12.2060   39.4120 N.ar  215  A215       -0.2048
   4654  C4        59.8610  -12.0460   39.1450 C.ar  215  A215        0.1692
   4655  C5        59.2620  -10.9400   38.5660 C.ar  215  A215        0.1518
   4656  C6        60.1030   -9.8680   38.2160 C.ar  215  A215        0.1919
   4657  N6        59.6690   -8.7400   37.6500 N.pl3 215  A215       -0.1054
   4658  N7        57.8930  -11.1300   38.4420 N.ar  215  A215       -0.2193
   4659  C8        57.6960  -12.3260   38.9420 C.ar  215  A215        0.1816
   4660  N9        58.8460  -12.9450   39.3700 N.ar  215  A215       -0.2693
   4661  OP1       52.5790  -14.1060   39.9680 O.3   215  A215       -0.4373
   4662  OP2       53.7670  -12.6220   38.2510 O.co2 215  A215       -0.5172
   4663  P         57.0810  -12.7000   44.0730 P.3   216  C216        0.2141
   4664  C5'       58.9490  -10.8410   44.3540 C.3   216  C216        0.1812
   4665  O5'       58.1250  -11.6460   43.4850 O.3   216  C216       -0.3114
   4666  C4'       60.2460  -11.5520   44.6670 C.3   216  C216        0.1773
   4667  O4'       60.8640  -12.0030   43.4290 O.3   216  C216       -0.3307
   4668  C3'       61.3060  -10.6990   45.3500 C.3   216  C216        0.1860
   4669  O3'       61.1150  -10.6440   46.7600 O.3   216  C216       -0.3112
   4670  C2'       62.6000  -11.3680   44.8970 C.3   216  C216        0.2309
   4671  O2'       62.9490  -12.5560   45.5770 O.3   216  C216       -0.2156
   4672  C1'       62.2540  -11.7210   43.4510 C.3   216  C216        0.2420
   4673  N1        62.5290  -10.6290   42.4970 N.ar  216  C216       -0.2535
   4674  C2        63.7830  -10.5760   41.8760 C.ar  216  C216        0.3532
   4675  O2        64.6210  -11.4540   42.1380 O.2   216  C216       -0.2443
   4676  N3        64.0450   -9.5760   41.0010 N.ar  216  C216       -0.1739
   4677  C4        63.1150   -8.6500   40.7470 C.ar  216  C216        0.1759
   4678  N4        63.4150   -7.6830   39.8760 N.pl3 216  C216       -0.1070
   4679  C5        61.8320   -8.6790   41.3680 C.ar  216  C216        0.0566
   4680  C6        61.5840   -9.6770   42.2270 C.ar  216  C216        0.0850
   4681  OP1       57.4860  -12.9690   45.4780 O.3   216  C216       -0.4373
   4682  OP2       55.7040  -12.2120   43.7890 O.co2 216  C216       -0.5172
   4683  P         60.6590   -9.2700   47.4620 P.3   217  A217        0.2141
   4684  C5'       62.1160   -7.3790   48.6080 C.3   217  A217        0.1812
   4685  O5'       62.0500   -8.5580   47.7800 O.3   217  A217       -0.3114
   4686  C4'       63.2400   -6.4720   48.1580 C.3   217  A217        0.1773
   4687  O4'       63.7810   -6.9490   46.8910 O.3   217  A217       -0.3307
   4688  C3'       62.8490   -5.0190   47.8890 C.3   217  A217        0.1860
   4689  O3'       62.8220   -4.1990   49.0560 O.3   217  A217       -0.3112
   4690  C2'       63.9120   -4.5900   46.8860 C.3   217  A217        0.2309
   4691  O2'       65.1560   -4.2680   47.4770 O.3   217  A217       -0.2156
   4692  C1'       64.0250   -5.8480   46.0250 C.3   217  A217        0.2408
   4693  N1        62.7620   -4.0550   41.3580 N.ar  217  A217       -0.2040
   4694  C2        63.7960   -3.7990   42.1690 C.ar  217  A217        0.2016
   4695  N3        64.0680   -4.3000   43.3740 N.ar  217  A217       -0.2048
   4696  C4        63.1180   -5.1740   43.7490 C.ar  217  A217        0.1692
   4697  C5        61.9950   -5.5380   43.0260 C.ar  217  A217        0.1518
   4698  C6        61.8230   -4.9360   41.7670 C.ar  217  A217        0.1919
   4699  N6        60.7900   -5.1900   40.9600 N.pl3 217  A217       -0.1054
   4700  N7        61.2370   -6.4640   43.7300 N.ar  217  A217       -0.2193
   4701  C8        61.9080   -6.6390   44.8430 C.ar  217  A217        0.1816
   4702  N9        63.0570   -5.8900   44.9220 N.ar  217  A217       -0.2693
   4703  OP1       60.0180   -9.6120   48.7550 O.3   217  A217       -0.4373
   4704  OP2       59.9090   -8.4490   46.4800 O.co2 217  A217       -0.5172
   4705  P         61.4190   -3.8010   49.7430 P.3   218  G218        0.2141
   4706  C5'       60.7920   -1.5370   48.4840 C.3   218  G218        0.1812
   4707  O5'       61.2770   -2.2130   49.6640 O.3   218  G218       -0.3114
   4708  C4'       61.9150   -0.7430   47.8590 C.3   218  G218        0.1773
   4709  O4'       62.5980   -1.5720   46.8780 O.3   218  G218       -0.3307
   4710  C3'       61.5180    0.5200   47.1070 C.3   218  G218        0.1860
   4711  O3'       61.4850    1.6460   47.9710 O.3   218  G218       -0.3112
   4712  C2'       62.6450    0.6560   46.0880 C.3   218  G218        0.2309
   4713  O2'       63.8250    1.2730   46.5660 O.3   218  G218       -0.2156
   4714  C1'       62.8990   -0.8070   45.7240 C.3   218  G218        0.2408
   4715  N1        61.8040   -0.3830   40.7870 N.ar  218  G218       -0.1709
   4716  C2        62.7680    0.2590   41.5240 C.ar  218  G218        0.2606
   4717  N2        63.5360    1.1360   40.8610 N.pl3 218  G218       -0.0859
   4718  N3        62.9620    0.0610   42.8180 N.ar  218  G218       -0.1918
   4719  C4        62.1010   -0.8490   43.3240 C.ar  218  G218        0.1723
   4720  C5        61.1040   -1.5460   42.6750 C.ar  218  G218        0.1748
   4721  C6        60.9060   -1.3220   41.2870 C.ar  218  G218        0.3023
   4722  O6        60.0730   -1.8400   40.5340 O.2   218  G218       -0.2633
   4723  N7        60.4380   -2.3890   43.5540 N.ar  218  G218       -0.2173
   4724  C8        61.0290   -2.1910   44.7010 C.ar  218  G218        0.1817
   4725  N9        62.0500   -1.2730   44.6310 N.ar  218  G218       -0.2693
   4726  OP1       61.5810   -4.1500   51.1780 O.3   218  G218       -0.4373
   4727  OP2       60.2970   -4.3920   48.9680 O.co2 218  G218       -0.5172
   4728  P         60.2610    2.6820   47.9960 P.3   219  A219        0.2141
   4729  C5'       61.5300    4.7110   46.8680 C.3   219  A219        0.1812
   4730  O5'       60.5170    3.6850   46.7830 O.3   219  A219       -0.3114
   4731  C4'       61.6260    5.4660   45.5630 C.3   219  A219        0.1773
   4732  O4'       62.0450    4.5500   44.5180 O.3   219  A219       -0.3307
   4733  C3'       60.3220    6.0910   45.0740 C.3   219  A219        0.1860
   4734  O3'       60.2310    7.4330   45.5350 O.3   219  A219       -0.3112
   4735  C2'       60.4600    6.0550   43.5520 C.3   219  A219        0.2309
   4736  O2'       61.0510    7.2030   42.9730 O.3   219  A219       -0.2156
   4737  C1'       61.3150    4.8040   43.3300 C.3   219  A219        0.2408
   4738  N1        58.4510    2.3950   39.7790 N.ar  219  A219       -0.2040
   4739  C2        59.0270    3.6060   39.7970 C.ar  219  A219        0.2016
   4740  N3        59.7580    4.1780   40.7530 N.ar  219  A219       -0.2048
   4741  C4        59.8840    3.3550   41.8100 C.ar  219  A219        0.1692
   4742  C5        59.3470    2.0860   41.9410 C.ar  219  A219        0.1518
   4743  C6        58.5960    1.5940   40.8580 C.ar  219  A219        0.1919
   4744  N6        58.0240    0.3880   40.8420 N.pl3 219  A219       -0.1054
   4745  N7        59.6820    1.5360   43.1700 N.ar  219  A219       -0.2193
   4746  C8        60.4030    2.4670   43.7450 C.ar  219  A219        0.1816
   4747  N9        60.5590    3.5980   42.9830 N.ar  219  A219       -0.2693
   4748  OP1       60.4510    3.4710   49.2410 O.3   219  A219       -0.4373
   4749  OP2       58.9790    1.9610   47.7800 O.co2 219  A219       -0.5172
   4750  P         58.8400    8.0760   46.0160 P.3   220  G220        0.2141
   4751  C5'       58.9640    9.5520   43.8290 C.3   220  G220        0.1812
   4752  O5'       58.1780    8.7370   44.7230 O.3   220  G220       -0.3114
   4753  C4'       58.2520    9.7420   42.5100 C.3   220  G220        0.1773
   4754  O4'       58.5150    8.6110   41.6320 O.3   220  G220       -0.3307
   4755  C3'       56.7360    9.8160   42.5910 C.3   220  G220        0.1860
   4756  O3'       56.2580   11.1040   42.9340 O.3   220  G220       -0.3112
   4757  C2'       56.3220    9.3970   41.1870 C.3   220  G220        0.2309
   4758  O2'       56.3160   10.4260   40.2170 O.3   220  G220       -0.2156
   4759  C1'       57.3350    8.2870   40.9110 C.3   220  G220        0.2408
   4760  N1        53.8600    4.6590   40.2400 N.ar  220  G220       -0.1709
   4761  C2        54.0460    5.8320   39.5490 C.ar  220  G220        0.2606
   4762  N2        53.1880    6.0740   38.5490 N.pl3 220  G220       -0.0859
   4763  N3        55.0010    6.7050   39.8210 N.ar  220  G220       -0.1918
   4764  C4        55.7660    6.3110   40.8610 C.ar  220  G220        0.1723
   4765  C5        55.6670    5.1610   41.6160 C.ar  220  G220        0.1748
   4766  C6        54.6410    4.2270   41.3070 C.ar  220  G220        0.3023
   4767  O6        54.3890    3.1470   41.8560 O.2   220  G220       -0.2633
   4768  N7        56.6520    5.1270   42.5940 N.ar  220  G220       -0.2173
   4769  C8        57.3200    6.2350   42.4180 C.ar  220  G220        0.1817
   4770  N9        56.8410    6.9950   41.3780 N.ar  220  G220       -0.2693
   4771  OP1       59.1680    9.1880   46.9440 O.3   220  G220       -0.4373
   4772  OP2       57.9910    6.9540   46.4920 O.co2 220  G220       -0.5172
   4773  P         55.2790   11.1950   44.1910 P.3   221  U221        0.2141
   4774  C5'       52.7700   11.5700   43.4810 C.3   221  U221        0.1812
   4775  O5'       54.0970   12.0960   43.6140 O.3   221  U221       -0.3114
   4776  C4'       52.4170   11.3580   42.0250 C.3   221  U221        0.1773
   4777  O4'       53.0950   10.1790   41.5040 O.3   221  U221       -0.3307
   4778  C3'       50.9300   11.1470   41.7970 C.3   221  U221        0.1860
   4779  O3'       50.4290   12.4030   41.3700 O.3   221  U221       -0.3112
   4780  C2'       50.8630   10.1050   40.6820 C.3   221  U221        0.2309
   4781  O2'       50.7670   10.6790   39.3950 O.3   221  U221       -0.2156
   4782  C1'       52.1620    9.3170   40.8760 C.3   221  U221        0.2420
   4783  N1        52.0360    8.0760   41.6670 N.ar  221  U221       -0.2534
   4784  C2        51.2400    7.0610   41.1610 C.ar  221  U221        0.3546
   4785  O2        50.6310    7.1590   40.1110 O.2   221  U221       -0.2443
   4786  N3        51.1800    5.9300   41.9410 N.ar  221  U221       -0.1530
   4787  C4        51.8180    5.7050   43.1460 C.ar  221  U221        0.2846
   4788  O4        51.6540    4.6300   43.7330 O.2   221  U221       -0.2650
   4789  C5        52.6300    6.7960   43.5970 C.ar  221  U221        0.0814
   4790  C6        52.7150    7.9130   42.8570 C.ar  221  U221        0.0870
   4791  OP1       56.0000   12.0010   45.2060 O.3   221  U221       -0.4373
   4792  OP2       54.8170    9.8320   44.5640 O.co2 221  U221       -0.5172
   4793  P         48.9360   12.8380   41.7030 P.3   222  A222        0.2141
   4794  C5'       48.4990   11.1670   43.7780 C.3   222  A222        0.1812
   4795  O5'       48.8730   12.4730   43.2610 O.3   222  A222       -0.3114
   4796  C4'       47.1560   10.7120   43.2310 C.3   222  A222        0.1773
   4797  O4'       47.0730    9.2650   43.3180 O.3   222  A222       -0.3307
   4798  C3'       45.8880   11.2530   43.9070 C.3   222  A222        0.1860
   4799  O3'       44.9280   11.6380   42.9220 O.3   222  A222       -0.3112
   4800  C2'       45.4080   10.0670   44.7450 C.3   222  A222        0.2309
   4801  O2'       44.0200    9.9810   44.9910 O.3   222  A222       -0.2156
   4802  C1'       45.8240    8.8940   43.8650 C.3   222  A222        0.2408
   4803  N1        44.2300    4.0330   44.4370 N.ar  222  A222       -0.2040
   4804  C2        43.8220    5.0250   43.6350 C.ar  222  A222        0.2016
   4805  N3        44.2780    6.2730   43.5370 N.ar  222  A222       -0.2048
   4806  C4        45.2900    6.4770   44.3980 C.ar  222  A222        0.1692
   4807  C5        45.8250    5.5550   45.2810 C.ar  222  A222        0.1518
   4808  C6        45.2540    4.2680   45.2850 C.ar  222  A222        0.1919
   4809  N6        45.6590    3.2800   46.0840 N.pl3 222  A222       -0.1054
   4810  N7        46.8580    6.1220   46.0160 N.ar  222  A222       -0.2193
   4811  C8        46.9280    7.3510   45.5650 C.ar  222  A222        0.1816
   4812  N9        46.0010    7.6370   44.5920 N.ar  222  A222       -0.2693
   4813  OP1       48.0260   12.0090   40.8740 O.2   222  A222       -0.5172
   4814  OP2       48.8940   14.3130   41.5270 O.co2 222  A222       -0.4373
   4815  P         43.6550   12.5690   43.2400 P.3   223  A223        0.2141
   4816  C5'       41.7080   11.8180   44.8470 C.3   223  A223        0.1812
   4817  O5'       42.5580   11.5230   43.7260 O.3   223  A223       -0.3114
   4818  C4'       40.2630   11.7970   44.4170 C.3   223  A223        0.1773
   4819  O4'       39.9820   12.9720   43.6210 O.3   223  A223       -0.3307
   4820  C3'       39.8270   10.6070   43.5540 C.3   223  A223        0.1860
   4821  O3'       38.5110   10.1700   43.8370 O.3   223  A223       -0.3112
   4822  C2'       39.5450   11.2310   42.2040 C.3   223  A223        0.2309
   4823  O2'       38.4900   10.5250   41.5890 O.3   223  A223       -0.2156
   4824  C1'       39.0700   12.6120   42.6260 C.3   223  A223        0.2408
   4825  N1        36.3800   15.2810   39.1920 N.ar  223  A223       -0.2040
   4826  C2        36.0160   14.4590   40.1880 C.ar  223  A223        0.2016
   4827  N3        36.7790   13.7990   41.0580 N.ar  223  A223       -0.2048
   4828  C4        38.0820   14.0530   40.8330 C.ar  223  A223        0.1692
   4829  C5        38.6120   14.8740   39.8520 C.ar  223  A223        0.1518
   4830  C6        37.6980   15.5160   38.9950 C.ar  223  A223        0.1919
   4831  N6        38.0610   16.3390   38.0070 N.pl3 223  A223       -0.1054
   4832  N7        39.9990   14.8890   39.9230 N.ar  223  A223       -0.2193
   4833  C8        40.2720   14.0910   40.9270 C.ar  223  A223        0.1816
   4834  N9        39.1580   13.5680   41.5360 N.ar  223  A223       -0.2693
   4835  OP1       43.1680   13.1650   41.9620 O.2   223  A223       -0.5172
   4836  OP2       43.9510   13.4460   44.4010 O.co2 223  A223       -0.4373
   4837  P         38.4570    8.6460   44.1890 P.3   224  A224        0.2141
   4838  C5'       38.7240    6.8590   42.2740 C.3   224  A224        0.1812
   4839  O5'       37.9140    7.8840   42.9020 O.3   224  A224       -0.3114
   4840  C4'       38.3320    5.4730   42.7460 C.3   224  A224        0.1773
   4841  O4'       39.4580    4.8170   43.4160 O.3   224  A224       -0.3307
   4842  C3'       37.1670    5.3990   43.7430 C.3   224  A224        0.1860
   4843  O3'       36.2160    4.3810   43.4440 O.3   224  A224       -0.3112
   4844  C2'       37.8660    4.9660   45.0330 C.3   224  A224        0.2309
   4845  O2'       37.0580    4.3210   45.9920 O.3   224  A224       -0.2156
   4846  C1'       38.9250    4.0340   44.4590 C.3   224  A224        0.2408
   4847  N1        43.0730    4.9670   47.4660 N.ar  224  A224       -0.2040
   4848  C2        42.3490    5.7770   46.6810 C.ar  224  A224        0.2016
   4849  N3        41.2960    5.4900   45.9140 N.ar  224  A224       -0.2048
   4850  C4        40.9860    4.1860   46.0050 C.ar  224  A224        0.1692
   4851  C5        41.6410    3.2290   46.7650 C.ar  224  A224        0.1518
   4852  C6        42.7390    3.6580   47.5260 C.ar  224  A224        0.1919
   4853  N6        43.4610    2.8470   48.3010 N.pl3 224  A224       -0.1054
   4854  N7        41.0420    1.9870   46.6170 N.ar  224  A224       -0.2193
   4855  C8        40.0570    2.2130   45.7810 C.ar  224  A224        0.1816
   4856  N9        39.9700    3.5210   45.3620 N.ar  224  A224       -0.2693
   4857  OP1       37.4830    8.4980   45.3130 O.3   224  A224       -0.4373
   4858  OP2       39.8990    8.3030   44.3910 O.co2 224  A224       -0.5172
   4859  P         35.3420    4.1690   42.1110 P.3   225  U225        0.2141
   4860  C5'       36.3430    2.2220   40.6770 C.3   225  U225        0.1812
   4861  O5'       36.4030    3.5880   41.0860 O.3   225  U225       -0.3114
   4862  C4'       37.5920    1.5590   41.1610 C.3   225  U225        0.1773
   4863  O4'       37.6430    1.6760   42.6100 O.3   225  U225       -0.3307
   4864  C3'       37.7310    0.0690   40.8960 C.3   225  U225        0.1860
   4865  O3'       38.2140   -0.1580   39.5820 O.3   225  U225       -0.3112
   4866  C2'       38.7170   -0.3090   41.9920 C.3   225  U225        0.2309
   4867  O2'       40.0350    0.1560   41.7630 O.3   225  U225       -0.2156
   4868  C1'       38.1170    0.4600   43.1690 C.3   225  U225        0.2420
   4869  N1        36.9750   -0.2390   43.7810 N.ar  225  U225       -0.2534
   4870  C2        37.2500   -1.2400   44.6950 C.ar  225  U225        0.3546
   4871  O2        38.3860   -1.5450   45.0220 O.2   225  U225       -0.2443
   4872  N3        36.1440   -1.8750   45.2030 N.ar  225  U225       -0.1530
   4873  C4        34.8220   -1.6300   44.8910 C.ar  225  U225        0.2846
   4874  O4        33.9370   -2.2880   45.4380 O.2   225  U225       -0.2650
   4875  C5        34.6240   -0.6010   43.9180 C.ar  225  U225        0.0814
   4876  C6        35.6800    0.0420   43.4080 C.ar  225  U225        0.0870
   4877  OP1       34.9430    5.4560   41.5160 O.2   225  U225       -0.5172
   4878  OP2       34.3260    3.0780   42.2770 O.co2 225  U225       -0.4373
   4879  P         37.8580   -1.4360   38.6840 P.3   226  G226        0.2141
   4880  C5'       40.0860   -2.5900   39.4520 C.3   226  G226        0.1812
   4881  O5'       38.6490   -2.5380   39.5220 O.3   226  G226       -0.3114
   4882  C4'       40.6230   -3.6310   40.3940 C.3   226  G226        0.1773
   4883  O4'       40.0840   -3.4430   41.7240 O.3   226  G226       -0.3307
   4884  C3'       40.2120   -5.0600   40.1060 C.3   226  G226        0.1860
   4885  O3'       40.9200   -5.6830   39.0580 O.3   226  G226       -0.3112
   4886  C2'       40.5940   -5.7340   41.4050 C.3   226  G226        0.2309
   4887  O2'       41.9900   -5.9330   41.3690 O.3   226  G226       -0.2156
   4888  C1'       40.1320   -4.6820   42.4150 C.3   226  G226        0.2408
   4889  N1        37.4190   -7.5970   45.5710 N.ar  226  G226       -0.1709
   4890  C2        38.7680   -7.6100   45.3170 C.ar  226  G226        0.2606
   4891  N2        39.4870   -8.5110   45.9950 N.pl3 226  G226       -0.0859
   4892  N3        39.3680   -6.7990   44.4580 N.ar  226  G226       -0.1918
   4893  C4        38.4940   -5.9520   43.8690 C.ar  226  G226        0.1723
   4894  C5        37.1290   -5.8630   44.0490 C.ar  226  G226        0.1748
   4895  C6        36.5000   -6.7450   44.9660 C.ar  226  G226        0.3023
   4896  O6        35.3040   -6.8240   45.2600 O.2   226  G226       -0.2633
   4897  N7        36.5900   -4.8680   43.2440 N.ar  226  G226       -0.2173
   4898  C8        37.6160   -4.3800   42.6000 C.ar  226  G226        0.1817
   4899  N9        38.8040   -4.9800   42.9440 N.ar  226  G226       -0.2693
   4900  OP1       38.6360   -1.2670   37.4390 O.2   226  G226       -0.5172
   4901  OP2       36.3880   -1.6660   38.5950 O.co2 226  G226       -0.4373
   4902  P         40.1360   -6.8750   38.3700 P.3   227  A227        0.2141
   4903  C5'       41.5400   -8.7110   39.6980 C.3   227  A227        0.1812
   4904  O5'       40.3310   -7.9290   39.5560 O.3   227  A227       -0.3114
   4905  C4'       41.2720   -9.9130   40.5670 C.3   227  A227        0.1773
   4906  O4'       40.6750   -9.4810   41.8180 O.3   227  A227       -0.3307
   4907  C3'       40.2680  -10.9150   40.0150 C.3   227  A227        0.1860
   4908  O3'       40.9050  -11.8250   39.1380 O.3   227  A227       -0.3112
   4909  C2'       39.7890  -11.6240   41.2740 C.3   227  A227        0.2309
   4910  O2'       40.5840  -12.7290   41.6500 O.3   227  A227       -0.2156
   4911  C1'       39.8130  -10.4920   42.3070 C.3   227  A227        0.2408
   4912  N1        35.2580  -10.8440   44.6720 N.ar  227  A227       -0.2040
   4913  C2        36.3910  -11.5430   44.8010 C.ar  227  A227        0.2016
   4914  N3        37.5500  -11.3970   44.1600 N.ar  227  A227       -0.2048
   4915  C4        37.4810  -10.3830   43.2810 C.ar  227  A227        0.1692
   4916  C5        36.3850   -9.5810   43.0280 C.ar  227  A227        0.1518
   4917  C6        35.2200   -9.8380   43.7710 C.ar  227  A227        0.1919
   4918  N6        34.0880   -9.1500   43.6340 N.pl3 227  A227       -0.1054
   4919  N7        36.6810   -8.6430   42.0510 N.ar  227  A227       -0.2193
   4920  C8        37.9260   -8.9000   41.7330 C.ar  227  A227        0.1816
   4921  N9        38.4810   -9.9220   42.4590 N.ar  227  A227       -0.2693
   4922  OP1       40.9380   -7.1440   37.1510 O.2   227  A227       -0.5172
   4923  OP2       38.6850   -6.6500   38.1990 O.co2 227  A227       -0.4373
   4924  P         39.9910  -12.5040   38.0130 P.3   228  A228        0.2141
   4925  C5'       39.6700  -14.7700   39.3280 C.3   228  A228        0.1812
   4926  O5'       39.1700  -13.4530   39.0020 O.3   228  A228       -0.3114
   4927  C4'       38.7140  -15.5130   40.2290 C.3   228  A228        0.1773
   4928  O4'       38.2820  -14.6470   41.3120 O.3   228  A228       -0.3307
   4929  C3'       37.3990  -15.9530   39.5970 C.3   228  A228        0.1860
   4930  O3'       37.4820  -17.1170   38.7880 O.3   228  A228       -0.3112
   4931  C2'       36.5380  -16.1830   40.8280 C.3   228  A228        0.2309
   4932  O2'       36.7760  -17.4040   41.4700 O.3   228  A228       -0.2156
   4933  C1'       36.9810  -15.0320   41.7290 C.3   228  A228        0.2408
   4934  N1        32.4840  -13.0670   43.1860 N.ar  228  A228       -0.2040
   4935  C2        33.1410  -14.1770   43.5330 C.ar  228  A228        0.2016
   4936  N3        34.3220  -14.6240   43.1130 N.ar  228  A228       -0.2048
   4937  C4        34.8560  -13.7780   42.2140 C.ar  228  A228        0.1692
   4938  C5        34.3040  -12.5980   41.7580 C.ar  228  A228        0.1518
   4939  C6        33.0490  -12.2360   42.2860 C.ar  228  A228        0.1919
   4940  N6        32.3960  -11.1230   41.9540 N.pl3 228  A228       -0.1054
   4941  N7        35.1490  -11.9830   40.8460 N.ar  228  A228       -0.2193
   4942  C8        36.1680  -12.8040   40.7550 C.ar  228  A228        0.1816
   4943  N9        36.0690  -13.8960   41.5770 N.ar  228  A228       -0.2693
   4944  OP1       40.9520  -13.1670   37.0850 O.2   228  A228       -0.5172
   4945  OP2       38.9720  -11.6050   37.4270 O.co2 228  A228       -0.4373
   4946  P         36.2460  -17.5110   37.8290 P.3   229  G229        0.2141
   4947  C5'       34.8290  -19.0530   39.4070 C.3   229  G229        0.1812
   4948  O5'       35.0660  -17.7450   38.8760 O.3   229  G229       -0.3114
   4949  C4'       33.5710  -19.0640   40.2250 C.3   229  G229        0.1773
   4950  O4'       33.5500  -17.9170   41.1130 O.3   229  G229       -0.3307
   4951  C3'       32.2860  -18.9310   39.4400 C.3   229  G229        0.1860
   4952  O3'       31.9070  -20.1610   38.8570 O.3   229  G229       -0.3112
   4953  C2'       31.3260  -18.4530   40.5160 C.3   229  G229        0.2309
   4954  O2'       30.8460  -19.4540   41.3780 O.3   229  G229       -0.2156
   4955  C1'       32.2100  -17.4730   41.2870 C.3   229  G229        0.2408
   4956  N1        29.1740  -13.4730   40.5390 N.ar  229  G229       -0.1709
   4957  C2        28.9070  -14.6560   41.1790 C.ar  229  G229        0.2606
   4958  N2        27.6740  -14.7870   41.6950 N.pl3 229  G229       -0.0859
   4959  N3        29.7870  -15.6310   41.3180 N.ar  229  G229       -0.1918
   4960  C4        30.9750  -15.3240   40.7530 C.ar  229  G229        0.1723
   4961  C5        31.3380  -14.1740   40.0870 C.ar  229  G229        0.1748
   4962  C6        30.3880  -13.1360   39.9500 C.ar  229  G229        0.3023
   4963  O6        30.5180  -12.0430   39.3890 O.2   229  G229       -0.2633
   4964  N7        32.6550  -14.2490   39.6560 N.ar  229  G229       -0.2173
   4965  C8        33.0560  -15.4280   40.0450 C.ar  229  G229        0.1817
   4966  N9        32.0930  -16.1240   40.7350 N.ar  229  G229       -0.2693
   4967  OP1       36.5810  -18.8300   37.2330 O.3   229  G229       -0.4373
   4968  OP2       35.8920  -16.3930   36.9010 O.co2 229  G229       -0.5172
   4969  P         31.7310  -20.2550   37.2460 P.3   230  C230        0.2141
   4970  C5'       29.4450  -20.9440   38.3660 C.3   230  C230        0.1812
   4971  O5'       30.1360  -20.2920   37.2930 O.3   230  C230       -0.3114
   4972  C4'       28.1040  -20.3070   38.5640 C.3   230  C230        0.1773
   4973  O4'       28.2750  -19.1020   39.3610 O.3   230  C230       -0.3307
   4974  C3'       27.4220  -19.8150   37.2980 C.3   230  C230        0.1860
   4975  O3'       26.7540  -20.7960   36.5170 O.3   230  C230       -0.3112
   4976  C2'       26.4930  -18.7400   37.8490 C.3   230  C230        0.2309
   4977  O2'       25.2950  -19.2010   38.4430 O.3   230  C230       -0.2156
   4978  C1'       27.4040  -18.0790   38.8850 C.3   230  C230        0.2420
   4979  N1        28.2150  -16.9850   38.3000 N.ar  230  C230       -0.2535
   4980  C2        27.6590  -15.7010   38.1970 C.ar  230  C230        0.3532
   4981  O2        26.5090  -15.5090   38.6160 O.2   230  C230       -0.2443
   4982  N3        28.3920  -14.7070   37.6450 N.ar  230  C230       -0.1739
   4983  C4        29.6250  -14.9580   37.1940 C.ar  230  C230        0.1759
   4984  N4        30.3120  -13.9500   36.6510 N.pl3 230  C230       -0.1070
   4985  C5        30.2110  -16.2540   37.2810 C.ar  230  C230        0.0566
   4986  C6        29.4770  -17.2290   37.8310 C.ar  230  C230        0.0850
   4987  OP1       32.2480  -21.5690   36.7530 O.3   230  C230       -0.4373
   4988  OP2       32.2030  -19.0270   36.5440 O.co2 230  C230       -0.5172
   4989  P         26.6490  -20.5460   34.9160 P.3   231  A231        0.2141
   4990  C5'       24.1760  -19.6630   35.3110 C.3   231  A231        0.1812
   4991  O5'       25.4620  -19.5000   34.6840 O.3   231  A231       -0.3114
   4992  C4'       23.4140  -18.3670   35.2590 C.3   231  A231        0.1773
   4993  O4'       24.0670  -17.3790   36.1000 O.3   231  A231       -0.3307
   4994  C3'       23.3470  -17.6920   33.8930 C.3   231  A231        0.1860
   4995  O3'       22.2700  -18.2240   33.1400 O.3   231  A231       -0.3112
   4996  C2'       23.0630  -16.2420   34.2660 C.3   231  A231        0.2309
   4997  O2'       21.6910  -16.0260   34.5160 O.3   231  A231       -0.2156
   4998  C1'       23.8910  -16.0820   35.5440 C.3   231  A231        0.2408
   4999  N1        26.5160  -11.9140   34.0960 N.ar  231  A231       -0.2040
   5000  C2        25.2140  -12.1250   34.3200 C.ar  231  A231        0.2016
   5001  N3        24.5920  -13.2360   34.7060 N.ar  231  A231       -0.2048
   5002  C4        25.4720  -14.2370   34.8610 C.ar  231  A231        0.1692
   5003  C5        26.8400  -14.1750   34.6720 C.ar  231  A231        0.1518
   5004  C6        27.3720  -12.9410   34.2660 C.ar  231  A231        0.1919
   5005  N6        28.6670  -12.7340   34.0420 N.pl3 231  A231       -0.1054
   5006  N7        27.4290  -15.4030   34.9380 N.ar  231  A231       -0.2193
   5007  C8        26.4190  -16.1680   35.2740 C.ar  231  A231        0.1816
   5008  N9        25.2080  -15.5240   35.2610 N.ar  231  A231       -0.2693
   5009  OP1       26.2580  -21.8490   34.3100 O.2   231  A231       -0.5172
   5010  OP2       27.8680  -19.8550   34.4030 O.co2 231  A231       -0.4373
   5011  P         22.2160  -17.9740   31.5680 P.3   232  G232        0.2141
   5012  C5'       21.2060  -15.9330   30.2530 C.3   232  G232        0.1812
   5013  O5'       21.2920  -16.6820   31.4820 O.3   232  G232       -0.3114
   5014  C4'       21.1050  -14.4530   30.5380 C.3   232  G232        0.1773
   5015  O4'       22.0130  -14.1020   31.6200 O.3   232  G232       -0.3307
   5016  C3'       21.5290  -13.5490   29.3920 C.3   232  G232        0.1860
   5017  O3'       20.5070  -13.2760   28.4510 O.3   232  G232       -0.3112
   5018  C2'       21.8930  -12.2770   30.1230 C.3   232  G232        0.2309
   5019  O2'       20.6830  -11.6790   30.5050 O.3   232  G232       -0.2156
   5020  C1'       22.6030  -12.8400   31.3530 C.3   232  G232        0.2408
   5021  N1        26.9850  -10.5410   30.2250 N.ar  232  G232       -0.1709
   5022  C2        25.7180  -10.0240   30.2790 C.ar  232  G232        0.2606
   5023  N2        25.5980   -8.7200   30.0060 N.pl3 232  G232       -0.0859
   5024  N3        24.6430  -10.7330   30.5770 N.ar  232  G232       -0.1918
   5025  C4        24.9430  -12.0230   30.8310 C.ar  232  G232        0.1723
   5026  C5        26.1740  -12.6370   30.8150 C.ar  232  G232        0.1748
   5027  C6        27.3180  -11.8650   30.4900 C.ar  232  G232        0.3023
   5028  O6        28.4930  -12.2320   30.4070 O.2   232  G232       -0.2633
   5029  N7        26.0590  -13.9810   31.1410 N.ar  232  G232       -0.2173
   5030  C8        24.7830  -14.1550   31.3510 C.ar  232  G232        0.1817
   5031  N9        24.0470  -13.0090   31.1750 N.ar  232  G232       -0.2693
   5032  OP1       21.4960  -19.1420   31.0030 O.2   232  G232       -0.5172
   5033  OP2       23.5630  -17.6270   31.0380 O.co2 232  G232       -0.4373
   5034  P         20.9780  -13.5310   26.9460 P.3   233  A233        0.2141
   5035  C5'       20.6380  -10.9640   26.6720 C.3   233  A233        0.1812
   5036  O5'       21.4490  -12.1180   26.3990 O.3   233  A233       -0.3114
   5037  C4'       21.4830   -9.7220   26.6220 C.3   233  A233        0.1773
   5038  O4'       22.5150   -9.8030   27.6310 O.3   233  A233       -0.3307
   5039  C3'       22.2750   -9.5410   25.3410 C.3   233  A233        0.1860
   5040  O3'       21.4310   -9.0600   24.3250 O.3   233  A233       -0.3112
   5041  C2'       23.3790   -8.5980   25.7840 C.3   233  A233        0.2309
   5042  O2'       23.0530   -7.2380   25.9530 O.3   233  A233       -0.2156
   5043  C1'       23.6800   -9.1520   27.1680 C.3   233  A233        0.2408
   5044  N1        28.7080   -9.7620   26.4540 N.ar  233  A233       -0.2040
   5045  C2        27.9050   -8.6980   26.3500 C.ar  233  A233        0.2016
   5046  N3        26.5910   -8.6150   26.5430 N.ar  233  A233       -0.2048
   5047  C4        26.0870   -9.8120   26.8910 C.ar  233  A233        0.1692
   5048  C5        26.7850  -10.9950   27.0320 C.ar  233  A233        0.1518
   5049  C6        28.1670  -10.9470   26.8100 C.ar  233  A233        0.1919
   5050  N6        28.9650  -12.0050   26.9130 N.pl3 233  A233       -0.1054
   5051  N7        25.9300  -12.0320   27.3770 N.ar  233  A233       -0.2193
   5052  C8        24.7530  -11.4590   27.4470 C.ar  233  A233        0.1816
   5053  N9        24.7760  -10.1150   27.1680 N.ar  233  A233       -0.2693
   5054  OP1       19.8070  -13.9100   26.1240 O.2   233  A233       -0.5172
   5055  OP2       22.1260  -14.4660   27.0590 O.co2 233  A233       -0.4373
   5056  P         21.4850   -9.8940   22.9630 P.3   234  U234        0.2141
   5057  C5'       22.8670   -7.8280   22.0730 C.3   234  U234        0.1812
   5058  O5'       22.8010   -9.2580   22.3260 O.3   234  U234       -0.3114
   5059  C4'       24.2930   -7.4100   21.8370 C.3   234  U234        0.1773
   5060  O4'       25.0870   -7.7240   23.0130 O.3   234  U234       -0.3307
   5061  C3'       24.9800   -8.1960   20.7430 C.3   234  U234        0.1860
   5062  O3'       24.6570   -7.6710   19.4880 O.3   234  U234       -0.3112
   5063  C2'       26.4410   -8.0310   21.1070 C.3   234  U234        0.2309
   5064  O2'       26.9800   -6.7840   20.7840 O.3   234  U234       -0.2156
   5065  C1'       26.3770   -8.1720   22.6200 C.3   234  U234        0.2420
   5066  N1        26.5400   -9.5750   23.0320 N.ar  234  U234       -0.2534
   5067  C2        27.8290  -10.0650   23.1340 C.ar  234  U234        0.3546
   5068  O2        28.8170   -9.3840   22.9130 O.2   234  U234       -0.2443
   5069  N3        27.9160  -11.3790   23.5170 N.ar  234  U234       -0.1530
   5070  C4        26.8740  -12.2410   23.7850 C.ar  234  U234        0.2846
   5071  O4        27.1170  -13.4060   24.1020 O.2   234  U234       -0.2650
   5072  C5        25.5710  -11.6610   23.6470 C.ar  234  U234        0.0814
   5073  C6        25.4520  -10.3830   23.2730 C.ar  234  U234        0.0870
   5074  OP1       20.3410   -9.3050   22.1760 O.2   234  U234       -0.5172
   5075  OP2       21.5940  -11.3940   23.2320 O.co2 234  U234       -0.4373
   5076  P         24.2570   -8.7570   18.4330 P.3   235  U235        0.2141
   5077  C5'       25.1920   -7.1120   16.6460 C.3   235  U235        0.1812
   5078  O5'       24.0330   -7.6950   17.2640 O.3   235  U235       -0.3114
   5079  C4'       24.8320   -5.8710   15.8790 C.3   235  U235        0.1773
   5080  O4'       24.2020   -6.2220   14.6140 O.3   235  U235       -0.3307
   5081  C3'       23.8740   -4.9230   16.5880 C.3   235  U235        0.1860
   5082  O3'       24.1940   -3.6270   16.1310 O.3   235  U235       -0.3112
   5083  C2'       22.5400   -5.2380   15.9360 C.3   235  U235        0.2309
   5084  O2'       21.6450   -4.1440   15.9520 O.3   235  U235       -0.2156
   5085  C1'       22.9780   -5.5340   14.5030 C.3   235  U235        0.2420
   5086  N1        22.0070   -6.3940   13.8240 N.ar  235  U235       -0.2534
   5087  C2        21.3090   -5.8580   12.7550 C.ar  235  U235        0.3546
   5088  O2        21.5340   -4.7470   12.3060 O.2   235  U235       -0.2443
   5089  N3        20.3720   -6.6950   12.2060 N.ar  235  U235       -0.1530
   5090  C4        20.0470   -7.9700   12.6220 C.ar  235  U235        0.2846
   5091  O4        19.1730   -8.5950   12.0250 O.2   235  U235       -0.2650
   5092  C5        20.7880   -8.4370   13.7550 C.ar  235  U235        0.0814
   5093  C6        21.7090   -7.6470   14.3130 C.ar  235  U235        0.0870
   5094  OP1       23.0190   -9.4470   18.9080 O.3   235  U235       -0.4373
   5095  OP2       25.4710   -9.5660   18.1100 O.co2 235  U235       -0.5172
   5096  P         24.5970   -2.5170   17.1530 P.3   236  G236        0.2141
   5097  C5'       25.4730   -0.3690   15.9170 C.3   236  G236        0.1812
   5098  O5'       25.7280   -1.7190   16.3610 O.3   236  G236       -0.3114
   5099  C4'       26.7840    0.3120   15.6960 C.3   236  G236        0.1773
   5100  O4'       27.4730    0.3550   16.9620 O.3   236  G236       -0.3307
   5101  C3'       27.7130   -0.4470   14.7800 C.3   236  G236        0.1860
   5102  O3'       27.4470    0.0550   13.4850 O.3   236  G236       -0.3112
   5103  C2'       29.0830   -0.0130   15.2760 C.3   236  G236        0.2309
   5104  O2'       29.3840    1.3140   14.9710 O.3   236  G236       -0.2156
   5105  C1'       28.8530    0.1250   16.7710 C.3   236  G236        0.2408
   5106  N1        32.6200   -2.3410   19.1460 N.ar  236  G236       -0.1709
   5107  C2        32.6670   -1.1710   18.4310 C.ar  236  G236        0.2606
   5108  N2        33.8740   -0.5850   18.3360 N.pl3 236  G236       -0.0859
   5109  N3        31.6140   -0.6280   17.8340 N.ar  236  G236       -0.1918
   5110  C4        30.4910   -1.3470   18.0380 C.ar  236  G236        0.1723
   5111  C5        30.3380   -2.5180   18.7470 C.ar  236  G236        0.1748
   5112  C6        31.4750   -3.0970   19.3690 C.ar  236  G236        0.3023
   5113  O6        31.5400   -4.1310   20.0490 O.2   236  G236       -0.2633
   5114  N7        29.0140   -2.9410   18.7210 N.ar  236  G236       -0.2173
   5115  C8        28.3980   -2.0330   18.0140 C.ar  236  G236        0.1817
   5116  N9        29.2360   -1.0420   17.5620 N.ar  236  G236       -0.2693
   5117  OP1       25.1830   -3.1560   18.3890 O.3   236  G236       -0.4373
   5118  OP2       23.3370   -1.7060   17.2020 O.co2 236  G236       -0.5172
   5119  P         28.2690   -0.3990   12.1820 P.3   237  A237        0.2141
   5120  C5'       26.4070   -2.2880   12.2600 C.3   237  A237        0.1812
   5121  O5'       27.7590   -1.9040   11.9970 O.3   237  A237       -0.3114
   5122  C4'       26.3300   -3.6190   12.9650 C.3   237  A237        0.1773
   5123  O4'       25.0480   -4.2310   12.6460 O.3   237  A237       -0.3307
   5124  C3'       27.3290   -4.6980   12.5640 C.3   237  A237        0.1860
   5125  O3'       27.1310   -5.7050   13.5560 O.3   237  A237       -0.3112
   5126  C2'       26.6750   -5.2620   11.3220 C.3   237  A237        0.2309
   5127  O2'       27.1630   -6.5170   10.8970 O.3   237  A237       -0.2156
   5128  C1'       25.2470   -5.3670   11.8360 C.3   237  A237        0.2408
   5129  N1        21.8330   -8.2760    9.4450 N.ar  237  A237       -0.2040
   5130  C2        22.6580   -8.5010   10.4790 C.ar  237  A237        0.2016
   5131  N3        23.5170   -7.6740   11.0610 N.ar  237  A237       -0.2048
   5132  C4        23.4990   -6.4720   10.4560 C.ar  237  A237        0.1692
   5133  C5        22.7090   -6.0900    9.3850 C.ar  237  A237        0.1518
   5134  C6        21.8410   -7.0560    8.8610 C.ar  237  A237        0.1919
   5135  N6        21.0140   -6.8310    7.8410 N.pl3 237  A237       -0.1054
   5136  N7        22.9590   -4.7700    9.0370 N.ar  237  A237       -0.2193
   5137  C8        23.8800   -4.3890    9.8900 C.ar  237  A237        0.1816
   5138  N9        24.2480   -5.3690   10.7800 N.ar  237  A237       -0.2693
   5139  OP1       29.7340   -0.3900   12.4270 O.3   237  A237       -0.4373
   5140  OP2       27.7150    0.4330   11.0770 O.co2 237  A237       -0.5172
   5141  P         28.3990   -6.5820   13.8620 P.3   238  U238        0.2141
   5142  C5'       29.6140   -6.1340   16.1270 C.3   238  U238        0.1812
   5143  O5'       29.3230   -5.7340   14.8240 O.3   238  U238       -0.3114
   5144  C4'       31.0830   -5.9270   16.3410 C.3   238  U238        0.1773
   5145  O4'       31.2960   -5.8930   17.7710 O.3   238  U238       -0.3307
   5146  C3'       31.9710   -7.0510   15.8130 C.3   238  U238        0.1860
   5147  O3'       32.5980   -6.7230   14.5760 O.3   238  U238       -0.3112
   5148  C2'       32.9780   -7.2540   16.9450 C.3   238  U238        0.2309
   5149  O2'       33.9870   -6.2790   17.0190 O.3   238  U238       -0.2156
   5150  C1'       32.1110   -6.9770   18.1660 C.3   238  U238        0.2420
   5151  N1        31.2530   -8.0980   18.5890 N.ar  238  U238       -0.2534
   5152  C2        31.8730   -9.1570   19.2220 C.ar  238  U238        0.3546
   5153  O2        33.0740   -9.1860   19.4330 O.2   238  U238       -0.2443
   5154  N3        31.0390  -10.1800   19.5920 N.ar  238  U238       -0.1530
   5155  C4        29.6860  -10.2520   19.4030 C.ar  238  U238        0.2846
   5156  O4        29.0760  -11.2370   19.8010 O.2   238  U238       -0.2650
   5157  C5        29.1200   -9.1320   18.7220 C.ar  238  U238        0.0814
   5158  C6        29.9010   -8.1130   18.3600 C.ar  238  U238        0.0870
   5159  OP1       29.1650   -6.6640   12.5910 O.2   238  U238       -0.5172
   5160  OP2       27.8880   -7.7820   14.5340 O.co2 238  U238       -0.4373
   5161  P         33.0300   -7.9020   13.5250 P.3   239  G239        0.2141
   5162  C5'       35.4630   -8.0320   14.3900 C.3   239  G239        0.1812
   5163  O5'       34.1480   -8.5760   14.4210 O.3   239  G239       -0.3114
   5164  C4'       36.4420   -9.0570   14.8940 C.3   239  G239        0.1773
   5165  O4'       36.1120   -9.3910   16.2630 O.3   239  G239       -0.3307
   5166  C3'       36.4210  -10.4180   14.2140 C.3   239  G239        0.1860
   5167  O3'       37.1970  -10.3510   13.0380 O.3   239  G239       -0.3112
   5168  C2'       37.1460  -11.2540   15.2380 C.3   239  G239        0.2309
   5169  O2'       38.5400  -11.0200   15.3140 O.3   239  G239       -0.2156
   5170  C1'       36.5260  -10.7140   16.5180 C.3   239  G239        0.2408
   5171  N1        34.7790  -15.1610   18.1450 N.ar  239  G239       -0.1709
   5172  C2        36.0570  -14.8000   17.8230 C.ar  239  G239        0.2606
   5173  N2        36.9940  -15.7370   17.9670 N.pl3 239  G239       -0.0859
   5174  N3        36.3990  -13.5950   17.4230 N.ar  239  G239       -0.1918
   5175  C4        35.3320  -12.7750   17.3240 C.ar  239  G239        0.1723
   5176  C5        34.0130  -13.0510   17.5870 C.ar  239  G239        0.1748
   5177  C6        33.6650  -14.3450   18.0300 C.ar  239  G239        0.3023
   5178  O6        32.5510  -14.7850   18.3130 O.2   239  G239       -0.2633
   5179  N7        33.2230  -11.9300   17.3660 N.ar  239  G239       -0.2173
   5180  C8        34.0590  -11.0250   16.9350 C.ar  239  G239        0.1817
   5181  N9        35.3510  -11.4720   16.8820 N.ar  239  G239       -0.2693
   5182  OP1       33.7720   -7.3900   12.3150 O.2   239  G239       -0.5172
   5183  OP2       31.8010   -8.7570   13.3560 O.co2 239  G239       -0.4373
   5184  P         36.5310  -11.0980   11.7830 P.3   240  A240        0.2141
   5185  C5'       36.5680  -13.7250   12.0150 C.3   240  A240        0.1812
   5186  O5'       37.0490  -12.4530   12.4270 O.3   240  A240       -0.3114
   5187  C4'       37.4360  -14.7940   12.6260 C.3   240  A240        0.1773
   5188  O4'       37.2740  -14.8040   14.0760 O.3   240  A240       -0.3307
   5189  C3'       37.0910  -16.1960   12.1480 C.3   240  A240        0.1860
   5190  O3'       38.0300  -16.4530   11.1120 O.3   240  A240       -0.3112
   5191  C2'       37.3730  -17.0460   13.3710 C.3   240  A240        0.2309
   5192  O2'       38.7650  -17.3040   13.3970 O.3   240  A240       -0.2156
   5193  C1'       36.9650  -16.1040   14.5020 C.3   240  A240        0.2408
   5194  N1        33.1160  -18.8940   16.4400 N.ar  240  A240       -0.2040
   5195  C2        34.4060  -19.1720   16.2210 C.ar  240  A240        0.2016
   5196  N3        35.3590  -18.4060   15.7050 N.ar  240  A240       -0.2048
   5197  C4        34.8670  -17.2040   15.3770 C.ar  240  A240        0.1692
   5198  C5        33.5560  -16.7800   15.5140 C.ar  240  A240        0.1518
   5199  C6        32.6460  -17.6900   16.0670 C.ar  240  A240        0.1919
   5200  N6        31.3550  -17.4200   16.2590 N.pl3 240  A240       -0.1054
   5201  N7        33.4140  -15.4770   15.0640 N.ar  240  A240       -0.2193
   5202  C8        34.6210  -15.1490   14.6640 C.ar  240  A240        0.1816
   5203  N9        35.5480  -16.1460   14.8240 N.ar  240  A240       -0.2693
   5204  OP1       37.3090  -10.9120   10.5490 O.2   240  A240       -0.5172
   5205  OP2       35.0800  -10.9960   11.7640 O.co2 240  A240       -0.4373
   5206  P         37.4280  -17.3430    9.8940 P.3   241  A241        0.2141
   5207  C5'       38.3180  -19.5790   10.8610 C.3   241  A241        0.1812
   5208  O5'       37.1850  -18.7360   10.6190 O.3   241  A241       -0.3114
   5209  C4'       37.8510  -20.8940   11.4140 C.3   241  A241        0.1773
   5210  O4'       37.2380  -20.6870   12.7090 O.3   241  A241       -0.3307
   5211  C3'       36.7570  -21.6150   10.6370 C.3   241  A241        0.1860
   5212  O3'       37.2700  -22.3080    9.5060 O.3   241  A241       -0.3112
   5213  C2'       36.2500  -22.5750   11.6950 C.3   241  A241        0.2309
   5214  O2'       37.2360  -23.5800   11.8600 O.3   241  A241       -0.2156
   5215  C1'       36.2240  -21.6560   12.9150 C.3   241  A241        0.2408
   5216  N1        31.2950  -21.6690   14.4740 N.ar  241  A241       -0.2040
   5217  C2        32.2390  -22.6190   14.5090 C.ar  241  A241        0.2016
   5218  N3        33.5060  -22.5700   14.0870 N.ar  241  A241       -0.2048
   5219  C4        33.7840  -21.3620   13.5720 C.ar  241  A241        0.1692
   5220  C5        32.9200  -20.2880   13.4710 C.ar  241  A241        0.1518
   5221  C6        31.6120  -20.4730   13.9350 C.ar  241  A241        0.1919
   5222  N6        30.6820  -19.5280   13.8890 N.pl3 241  A241       -0.1054
   5223  N7        33.5510  -19.2060   12.8830 N.ar  241  A241       -0.2193
   5224  C8        34.7620  -19.6420   12.6380 C.ar  241  A241        0.1816
   5225  N9        34.9730  -20.9350   13.0360 N.ar  241  A241       -0.2693
   5226  OP1       38.6070  -17.3690    9.0070 O.2   241  A241       -0.5172
   5227  OP2       36.0920  -16.9890    9.3560 O.co2 241  A241       -0.4373
   5228  P         36.2340  -22.7180    8.3580 P.3   242  G242        0.2141
   5229  C5'       35.6520  -25.1760    9.1990 C.3   242  G242        0.1812
   5230  O5'       35.2870  -23.7800    9.1010 O.3   242  G242       -0.3114
   5231  C4'       34.5570  -25.9800    9.8570 C.3   242  G242        0.1773
   5232  O4'       34.0490  -25.2480   10.9940 O.3   242  G242       -0.3307
   5233  C3'       33.3300  -26.2200    9.0040 C.3   242  G242        0.1860
   5234  O3'       33.4650  -27.2810    8.0460 O.3   242  G242       -0.3112
   5235  C2'       32.2510  -26.4670   10.0440 C.3   242  G242        0.2309
   5236  O2'       32.2650  -27.8280   10.3900 O.3   242  G242       -0.2156
   5237  C1'       32.6880  -25.5510   11.1870 C.3   242  G242        0.2408
   5238  N1        28.2620  -23.2840   12.1340 N.ar  242  G242       -0.1709
   5239  C2        28.6290  -24.5920   12.3350 C.ar  242  G242        0.2606
   5240  N2        27.6790  -25.4070   12.8140 N.pl3 242  G242       -0.0859
   5241  N3        29.8350  -25.0670   12.0720 N.ar  242  G242       -0.1918
   5242  C4        30.6440  -24.1200   11.5520 C.ar  242  G242        0.1723
   5243  C5        30.3700  -22.7900   11.3110 C.ar  242  G242        0.1748
   5244  C6        29.0870  -22.2930   11.6170 C.ar  242  G242        0.3023
   5245  O6        28.6590  -21.1510   11.4810 O.2   242  G242       -0.2633
   5246  N7        31.4850  -22.1400   10.8020 N.ar  242  G242       -0.2173
   5247  C8        32.3940  -23.0750   10.7180 C.ar  242  G242        0.1817
   5248  N9        31.9510  -24.2980   11.1670 N.ar  242  G242       -0.2693
   5249  OP1       37.1620  -23.1170    7.2490 O.2   242  G242       -0.5172
   5250  OP2       35.1790  -21.7100    8.0780 O.co2 242  G242       -0.4373
   5251  P         32.7690  -26.8070    6.6660 P.3   243  G243        0.2141
   5252  C5'       30.4360  -28.0340    6.8350 C.3   243  G243        0.1812
   5253  O5'       31.2280  -26.8980    7.1010 O.3   243  G243       -0.3114
   5254  C4'       29.1950  -28.0240    7.6760 C.3   243  G243        0.1773
   5255  O4'       29.3250  -27.1140    8.7910 O.3   243  G243       -0.3307
   5256  C3'       27.9460  -27.5210    6.9980 C.3   243  G243        0.1860
   5257  O3'       27.3570  -28.4490    6.1300 O.3   243  G243       -0.3112
   5258  C2'       27.0460  -27.2480    8.1900 C.3   243  G243        0.2309
   5259  O2'       26.6130  -28.4210    8.7960 O.3   243  G243       -0.2156
   5260  C1'       28.0280  -26.5960    9.1510 C.3   243  G243        0.2408
   5261  N1        25.4100  -22.2300    9.4620 N.ar  243  G243       -0.1709
   5262  C2        25.0470  -23.4850    9.8680 C.ar  243  G243        0.2606
   5263  N2        23.8380  -23.5930   10.4080 N.pl3 243  G243       -0.0859
   5264  N3        25.8190  -24.5550    9.7580 N.ar  243  G243       -0.1918
   5265  C4        26.9980  -24.2660    9.1710 C.ar  243  G243        0.1723
   5266  C5        27.4610  -23.0450    8.7360 C.ar  243  G243        0.1748
   5267  C6        26.6290  -21.9030    8.8770 C.ar  243  G243        0.3023
   5268  O6        26.8620  -20.7300    8.5430 O.2   243  G243       -0.2633
   5269  N7        28.7400  -23.1620    8.2120 N.ar  243  G243       -0.2173
   5270  C8        29.0270  -24.4270    8.3380 C.ar  243  G243        0.1817
   5271  N9        28.0240  -25.1510    8.9320 N.ar  243  G243       -0.2693
   5272  OP1       33.0940  -27.6120    5.4770 O.2   243  G243       -0.5172
   5273  OP2       33.0570  -25.3470    6.5800 O.co2 243  G243       -0.4373
   5274  P         27.6320  -28.2780    4.5380 P.3   244  G244        0.2141
   5275  C5'       25.1830  -28.0660    5.1370 C.3   244  G244        0.1812
   5276  O5'       26.2640  -27.4640    4.4580 O.3   244  G244       -0.3114
   5277  C4'       24.0570  -27.1040    5.3210 C.3   244  G244        0.1773
   5278  O4'       24.3070  -26.2580    6.4770 O.3   244  G244       -0.3307
   5279  C3'       23.7670  -26.1450    4.1850 C.3   244  G244        0.1860
   5280  O3'       22.8630  -26.7500    3.2750 O.3   244  G244       -0.3112
   5281  C2'       23.0410  -25.0470    4.9400 C.3   244  G244        0.2309
   5282  O2'       21.7870  -25.5730    5.3180 O.3   244  G244       -0.2156
   5283  C1'       23.9280  -24.9310    6.1760 C.3   244  G244        0.2408
   5284  N1        25.9130  -20.2960    5.7370 N.ar  244  G244       -0.1709
   5285  C2        24.6320  -20.6750    6.0690 C.ar  244  G244        0.2606
   5286  N2        23.7550  -19.6890    6.3270 N.pl3 244  G244       -0.0859
   5287  N3        24.2410  -21.9330    6.1740 N.ar  244  G244       -0.1918
   5288  C4        25.2320  -22.7960    5.8770 C.ar  244  G244        0.1723
   5289  C5        26.5310  -22.5220    5.5110 C.ar  244  G244        0.1748
   5290  C6        26.9450  -21.1700    5.4180 C.ar  244  G244        0.3023
   5291  O6        28.0520  -20.7300    5.1080 O.2   244  G244       -0.2633
   5292  N7        27.2370  -23.6970    5.2880 N.ar  244  G244       -0.2173
   5293  C8        26.3680  -24.6430    5.5180 C.ar  244  G244        0.1817
   5294  N9        25.1370  -24.1640    5.8920 N.ar  244  G244       -0.2693
   5295  OP1       27.3280  -29.6360    3.9490 O.2   244  G244       -0.5172
   5296  OP2       28.9650  -27.6710    4.1870 O.co2 244  G244       -0.4373
   5297  P         23.2770  -26.8600    1.7320 P.3   245  A245        0.2141
   5298  C5'       21.2810  -25.3020    1.7080 C.3   245  A245        0.1812
   5299  O5'       22.5500  -25.5810    1.1540 O.3   245  A245       -0.3114
   5300  C4'       20.5200  -24.5130    0.7110 C.3   245  A245        0.1773
   5301  O4'       21.0980  -24.6590   -0.6220 O.3   245  A245       -0.3307
   5302  C3'       19.0720  -24.9530    0.6100 C.3   245  A245        0.1860
   5303  O3'       18.4290  -23.7020    0.6340 O.3   245  A245       -0.3112
   5304  C2'       19.0110  -25.6740   -0.7350 C.3   245  A245        0.2309
   5305  O2'       17.7310  -25.4450   -1.2700 O.3   245  A245       -0.2156
   5306  C1'       20.0400  -24.8830   -1.5380 C.3   245  A245        0.2408
   5307  N1        20.1340  -24.6160   -6.6490 N.ar  245  A245       -0.2040
   5308  C2        19.4390  -23.9500   -5.7230 C.ar  245  A245        0.2016
   5309  N3        19.4380  -24.1000   -4.4010 N.ar  245  A245       -0.2048
   5310  C4        20.2930  -25.0690   -4.0350 C.ar  245  A245        0.1692
   5311  C5        21.0780  -25.8410   -4.8720 C.ar  245  A245        0.1518
   5312  C6        20.9730  -25.5960   -6.2460 C.ar  245  A245        0.1919
   5313  N6        21.6360  -26.2910   -7.1700 N.pl3 245  A245       -0.1054
   5314  N7        21.8490  -26.7320   -4.1410 N.ar  245  A245       -0.2193
   5315  C8        21.5210  -26.4790   -2.8950 C.ar  245  A245        0.1816
   5316  N9        20.5740  -25.4940   -2.7590 N.ar  245  A245       -0.2693
   5317  OP1       22.4210  -27.9570    1.2230 O.2   245  A245       -0.5172
   5318  OP2       24.7350  -26.7910    1.4120 O.co2 245  A245       -0.4373
   5319  P         17.3970  -23.7330    1.7810 P.3   246  A246        0.2141
   5320  C5'       16.9050  -22.6930    4.1380 C.3   246  A246        0.1812
   5321  O5'       17.8450  -22.9020    3.0530 O.3   246  A246       -0.3114
   5322  C4'       17.1950  -21.3680    4.8010 C.3   246  A246        0.1773
   5323  O4'       18.6320  -21.3120    5.0690 O.3   246  A246       -0.3307
   5324  C3'       16.8980  -20.1820    3.8860 C.3   246  A246        0.1860
   5325  O3'       16.4880  -19.0290    4.5830 O.3   246  A246       -0.3112
   5326  C2'       18.2380  -19.9800    3.1820 C.3   246  A246        0.2309
   5327  O2'       18.4430  -18.6960    2.6430 O.3   246  A246       -0.2156
   5328  C1'       19.2000  -20.2630    4.3240 C.3   246  A246        0.2408
   5329  N1        23.8170  -18.6680    2.9530 N.ar  246  A246       -0.2040
   5330  C2        22.7110  -18.0230    3.3560 C.ar  246  A246        0.2016
   5331  N3        21.5340  -18.5170    3.7200 N.ar  246  A246       -0.2048
   5332  C4        21.5260  -19.8540    3.5960 C.ar  246  A246        0.1692
   5333  C5        22.5810  -20.6610    3.2040 C.ar  246  A246        0.1518
   5334  C6        23.7910  -20.0170    2.8810 C.ar  246  A246        0.1919
   5335  N6        24.9020  -20.6540    2.4860 N.pl3 246  A246       -0.1054
   5336  N7        22.2050  -21.9990    3.2270 N.ar  246  A246       -0.2193
   5337  C8        20.9550  -21.9660    3.6290 C.ar  246  A246        0.1816
   5338  N9        20.4790  -20.6990    3.8470 N.ar  246  A246       -0.2693
   5339  OP1       17.6680  -25.0810    2.3130 O.3   246  A246       -0.4373
   5340  OP2       16.0380  -23.3380    1.2890 O.co2 246  A246       -0.5172
   5341  P         14.9320  -18.9060    4.5520 P.3   247  A247        0.2141
   5342  C5'       15.2280  -16.5640    5.7590 C.3   247  A247        0.1812
   5343  O5'       14.4620  -17.4250    4.8930 O.3   247  A247       -0.3114
   5344  C4'       16.4030  -15.9140    5.0530 C.3   247  A247        0.1773
   5345  O4'       16.7070  -16.4700    3.7420 O.3   247  A247       -0.3307
   5346  C3'       16.3380  -14.4340    4.7200 C.3   247  A247        0.1860
   5347  O3'       16.3310  -13.6620    5.8890 O.3   247  A247       -0.3112
   5348  C2'       17.6280  -14.3000    3.9310 C.3   247  A247        0.2309
   5349  O2'       18.8460  -14.6270    4.5990 O.3   247  A247       -0.2156
   5350  C1'       17.4970  -15.5160    3.0240 C.3   247  A247        0.2408
   5351  N1        17.9510  -13.2070   -1.5260 N.ar  247  A247       -0.2040
   5352  C2        18.7820  -13.3160   -0.4850 C.ar  247  A247        0.2016
   5353  N3        18.5920  -13.9200    0.6830 N.ar  247  A247       -0.2048
   5354  C4        17.3720  -14.4700    0.7360 C.ar  247  A247        0.1692
   5355  C5        16.4120  -14.4490   -0.2540 C.ar  247  A247        0.1518
   5356  C6        16.7350  -13.7840   -1.4400 C.ar  247  A247        0.1919
   5357  N6        15.9100  -13.6890   -2.4810 N.pl3 247  A247       -0.1054
   5358  N7        15.2740  -15.1280    0.1500 N.ar  247  A247       -0.2193
   5359  C8        15.5730  -15.5500    1.3540 C.ar  247  A247        0.1816
   5360  N9        16.8330  -15.1960    1.7660 N.ar  247  A247       -0.2693
   5361  OP1       14.3660  -19.8210    5.5490 O.3   247  A247       -0.4373
   5362  OP2       14.6310  -19.0680    3.1350 O.co2 247  A247       -0.5172
   5363  P         15.6040  -12.2420    5.8850 P.3   248  G248        0.2141
   5364  C5'       17.7470  -10.8520    5.3770 C.3   248  G248        0.1812
   5365  O5'       16.4830  -11.3440    4.9110 O.3   248  G248       -0.3114
   5366  C4'       18.5590  -10.2380    4.2480 C.3   248  G248        0.1773
   5367  O4'       18.5690  -11.0960    3.0730 O.3   248  G248       -0.3307
   5368  C3'       18.0810   -8.9050    3.6880 C.3   248  G248        0.1860
   5369  O3'       18.4150   -7.7930    4.5070 O.3   248  G248       -0.3112
   5370  C2'       18.8530   -8.8550    2.3860 C.3   248  G248        0.2309
   5371  O2'       20.2350   -8.7040    2.6470 O.3   248  G248       -0.2156
   5372  C1'       18.6850  -10.2900    1.9110 C.3   248  G248        0.2408
   5373  N1        16.5700   -9.6410   -2.6620 N.ar  248  G248       -0.1709
   5374  C2        17.8040   -9.2450   -2.2110 C.ar  248  G248        0.2606
   5375  N2        18.5870   -8.6020   -3.1000 N.pl3 248  G248       -0.0859
   5376  N3        18.2490   -9.4690   -0.9840 N.ar  248  G248       -0.1918
   5377  C4        17.3400  -10.1190   -0.2270 C.ar  248  G248        0.1723
   5378  C5        16.0780  -10.5400   -0.5740 C.ar  248  G248        0.1748
   5379  C6        15.6180  -10.3080   -1.8990 C.ar  248  G248        0.3023
   5380  O6        14.5150  -10.5940   -2.3960 O.2   248  G248       -0.2633
   5381  N7        15.4580  -11.1700    0.4950 N.ar  248  G248       -0.2173
   5382  C8        16.3390  -11.1230    1.4570 C.ar  248  G248        0.1817
   5383  N9        17.4990  -10.4920    1.0900 N.ar  248  G248       -0.2693
   5384  OP1       15.7210  -11.8090    7.3040 O.3   248  G248       -0.4373
   5385  OP2       14.2500  -12.3770    5.2930 O.co2 248  G248       -0.5172
   5386  P         17.3140   -6.6350    4.7200 P.3   249  A249        0.2141
   5387  C5'       18.6880   -5.1630    3.0770 C.3   249  A249        0.1812
   5388  O5'       17.4330   -5.7830    3.3820 O.3   249  A249       -0.3114
   5389  C4'       18.6760   -4.7650    1.6330 C.3   249  A249        0.1773
   5390  O4'       18.3700   -5.9250    0.8140 O.3   249  A249       -0.3307
   5391  C3'       17.5780   -3.7920    1.2320 C.3   249  A249        0.1860
   5392  O3'       17.9050   -2.4760    1.6870 O.3   249  A249       -0.3112
   5393  C2'       17.5600   -3.9940   -0.2760 C.3   249  A249        0.2309
   5394  O2'       18.7810   -3.5180   -0.8310 O.3   249  A249       -0.2156
   5395  C1'       17.6840   -5.5120   -0.3560 C.3   249  A249        0.2408
   5396  N1        13.9270   -7.0760   -3.4890 N.ar  249  A249       -0.2040
   5397  C2        14.9630   -6.2410   -3.6630 C.ar  249  A249        0.2016
   5398  N3        15.9000   -5.8630   -2.7920 N.ar  249  A249       -0.2048
   5399  C4        15.7090   -6.4590   -1.6040 C.ar  249  A249        0.1692
   5400  C5        14.6730   -7.3100   -1.2580 C.ar  249  A249        0.1518
   5401  C6        13.7430   -7.6320   -2.2690 C.ar  249  A249        0.1919
   5402  N6        12.7210   -8.4830   -2.0980 N.pl3 249  A249       -0.1054
   5403  N7        14.7940   -7.7170    0.0640 N.ar  249  A249       -0.2193
   5404  C8        15.8700   -7.0950    0.4860 C.ar  249  A249        0.1816
   5405  N9        16.4520   -6.2900   -0.4630 N.ar  249  A249       -0.2693
   5406  OP1       17.8920   -5.8010    5.8350 O.3   249  A249       -0.4373
   5407  OP2       15.9230   -7.1930    4.8100 O.co2 249  A249       -0.5172
   5408  P         16.6830   -1.6320    2.2470 P.3   250  C250        0.2141
   5409  C5'       17.0990   -0.3370    0.0440 C.3   250  C250        0.1812
   5410  O5'       16.1460   -1.0200    0.8770 O.3   250  C250       -0.3114
   5411  C4'       16.4830    0.0040   -1.2820 C.3   250  C250        0.1773
   5412  O4'       16.3590   -1.2230   -2.0240 O.3   250  C250       -0.3307
   5413  C3'       15.0680    0.5650   -1.2740 C.3   250  C250        0.1860
   5414  O3'       15.0550    1.9840   -1.2180 O.3   250  C250       -0.3112
   5415  C2'       14.5970    0.1980   -2.6700 C.3   250  C250        0.2309
   5416  O2'       15.2410    0.9500   -3.6710 O.3   250  C250       -0.2156
   5417  C1'       15.1970   -1.1870   -2.8200 C.3   250  C250        0.2420
   5418  N1        14.2980   -2.2270   -2.3570 N.ar  250  C250       -0.2535
   5419  C2        13.3810   -2.7350   -3.2720 C.ar  250  C250        0.3532
   5420  O2        13.3850   -2.2790   -4.4250 O.2   250  C250       -0.2443
   5421  N3        12.5090   -3.6990   -2.8770 N.ar  250  C250       -0.1739
   5422  C4        12.5400   -4.1460   -1.6200 C.ar  250  C250        0.1759
   5423  N4        11.6930   -5.1120   -1.2800 N.pl3 250  C250       -0.1070
   5424  C5        13.4610   -3.6320   -0.6600 C.ar  250  C250        0.0566
   5425  C6        14.3130   -2.6790   -1.0670 C.ar  250  C250        0.0850
   5426  OP1       17.3700   -0.5950    3.0560 O.3   250  C250       -0.4373
   5427  OP2       15.6240   -2.4960    2.8390 O.co2 250  C250       -0.5172
   5428  P         13.6740    2.7060   -0.8120 P.3   251  U251        0.2141
   5429  C5'       13.0430    3.1740   -3.3930 C.3   251  U251        0.1812
   5430  O5'       12.8390    2.4520   -2.1510 O.3   251  U251       -0.3114
   5431  C4'       11.9880    2.7360   -4.3920 C.3   251  U251        0.1773
   5432  O4'       12.0180    1.2840   -4.5550 O.3   251  U251       -0.3307
   5433  C3'       10.5530    3.0020   -3.9640 C.3   251  U251        0.1860
   5434  O3'       10.1800    4.3520   -4.1890 O.3   251  U251       -0.3112
   5435  C2'        9.7650    2.0010   -4.8020 C.3   251  U251        0.2309
   5436  O2'        9.5530    2.3970   -6.1380 O.3   251  U251       -0.2156
   5437  C1'       10.7010    0.7950   -4.8110 C.3   251  U251        0.2420
   5438  N1        10.3490   -0.2030   -3.7860 N.ar  251  U251       -0.2534
   5439  C2         9.3500   -1.1250   -4.0730 C.ar  251  U251        0.3546
   5440  O2         8.7520   -1.1500   -5.1330 O.2   251  U251       -0.2443
   5441  N3         9.0950   -2.0280   -3.0710 N.ar  251  U251       -0.1530
   5442  C4         9.6960   -2.0910   -1.8310 C.ar  251  U251        0.2846
   5443  O4         9.3270   -2.9380   -1.0200 O.2   251  U251       -0.2650
   5444  C5        10.7230   -1.1180   -1.6180 C.ar  251  U251        0.0814
   5445  C6        11.0050   -0.2270   -2.5770 C.ar  251  U251        0.0870
   5446  OP1       14.1310    4.1270   -0.6190 O.2   251  U251       -0.5172
   5447  OP2       12.8930    2.0140    0.2870 O.co2 251  U251       -0.4373
   5448  P          8.9580    4.9320   -3.3340 P.3   252  G252        0.2141
   5449  C5'        7.2580    4.6030   -5.3180 C.3   252  G252        0.1812
   5450  O5'        7.7580    4.1550   -4.0450 O.3   252  G252       -0.3114
   5451  C4'        5.9900    3.8680   -5.6420 C.3   252  G252        0.1773
   5452  O4'        6.2770    2.4410   -5.7120 O.3   252  G252       -0.3307
   5453  C3'        4.8780    4.0040   -4.6070 C.3   252  G252        0.1860
   5454  O3'        4.0300    5.1130   -4.8630 O.3   252  G252       -0.3112
   5455  C2'        4.0970    2.7040   -4.7800 C.3   252  G252        0.2309
   5456  O2'        3.0710    2.8230   -5.7420 O.3   252  G252       -0.2156
   5457  C1'        5.2140    1.7060   -5.1160 C.3   252  G252        0.2408
   5458  N1         4.7110   -2.2250   -1.9260 N.ar  252  G252       -0.1709
   5459  C2         3.9770   -1.9070   -3.0400 C.ar  252  G252        0.2606
   5460  N2         2.9960   -2.7610   -3.3600 N.pl3 252  G252       -0.0859
   5461  N3         4.2080   -0.8480   -3.8040 N.ar  252  G252       -0.1918
   5462  C4         5.2460   -0.1150   -3.3510 C.ar  252  G252        0.1723
   5463  C5         6.0380   -0.3380   -2.2440 C.ar  252  G252        0.1748
   5464  C6         5.7820   -1.4880   -1.4380 C.ar  252  G252        0.3023
   5465  O6         6.3580   -1.8550   -0.4050 O.2   252  G252       -0.2633
   5466  N7         6.9890    0.6680   -2.1080 N.ar  252  G252       -0.2173
   5467  C8         6.7690    1.4610   -3.1220 C.ar  252  G252        0.1817
   5468  N9         5.7330    1.0390   -3.9230 N.ar  252  G252       -0.2693
   5469  OP1        8.8810    6.3910   -3.6480 O.2   252  G252       -0.5172
   5470  OP2        9.0770    4.5150   -1.9050 O.co2 252  G252       -0.4373
   5471  P          3.3020    5.8060   -3.6230 P.3   253  C253        0.2141
   5472  C5'        0.9310    4.8370   -3.9830 C.3   253  C253        0.1812
   5473  O5'        2.1830    4.7300   -3.3050 O.3   253  C253       -0.3114
   5474  C4'        0.1250    3.5950   -3.7550 C.3   253  C253        0.1773
   5475  O4'        1.0220    2.4650   -3.6990 O.3   253  C253       -0.3307
   5476  C3'       -0.5870    3.5200   -2.4190 C.3   253  C253        0.1860
   5477  O3'       -1.7610    4.3230   -2.3610 O.3   253  C253       -0.3112
   5478  C2'       -0.8380    2.0270   -2.2980 C.3   253  C253        0.2309
   5479  O2'       -1.9040    1.5720   -3.1060 O.3   253  C253       -0.2156
   5480  C1'        0.4620    1.4680   -2.8670 C.3   253  C253        0.2420
   5481  N1         1.4570    1.1030   -1.8490 N.ar  253  C253       -0.2535
   5482  C2         1.3600   -0.1610   -1.2500 C.ar  253  C253        0.3532
   5483  O2         0.4180   -0.9050   -1.5680 O.2   253  C253       -0.2443
   5484  N3         2.2880   -0.5340   -0.3380 N.ar  253  C253       -0.1739
   5485  C4         3.2830    0.2980   -0.0220 C.ar  253  C253        0.1759
   5486  N4         4.1680   -0.1110    0.8890 N.pl3 253  C253       -0.1070
   5487  C5         3.4110    1.5870   -0.6250 C.ar  253  C253        0.0566
   5488  C6         2.4860    1.9440   -1.5260 C.ar  253  C253        0.0850
   5489  OP1        2.6310    7.0400   -4.1110 O.2   253  C253       -0.5172
   5490  OP2        4.1830    5.8730   -2.4310 O.co2 253  C253       -0.4373
   5491  P         -2.0920    4.8820   -0.9030 P.3   254  A254        0.2141
   5492  C5'       -3.5630    2.7730   -0.2920 C.3   254  A254        0.1812
   5493  O5'       -2.3550    3.5270   -0.1090 O.3   254  A254       -0.3114
   5494  C4'       -3.5430    1.5950    0.6390 C.3   254  A254        0.1773
   5495  O4'       -2.2920    0.8880    0.4610 O.3   254  A254       -0.3307
   5496  C3'       -3.5220    1.9200    2.1290 C.3   254  A254        0.1860
   5497  O3'       -4.7900    2.2500    2.7050 O.3   254  A254       -0.3112
   5498  C2'       -2.9960    0.6160    2.7080 C.3   254  A254        0.2309
   5499  O2'       -4.0170   -0.3600    2.7550 O.3   254  A254       -0.2156
   5500  C1'       -1.9500    0.2190    1.6660 C.3   254  A254        0.2408
   5501  N1         2.0340   -0.8750    4.7340 N.ar  254  A254       -0.2040
   5502  C2         0.8280   -1.4360    4.5870 C.ar  254  A254        0.2016
   5503  N3        -0.1660   -1.1000    3.7630 N.ar  254  A254       -0.2048
   5504  C4         0.1790   -0.0420    3.0070 C.ar  254  A254        0.1692
   5505  C5         1.3820    0.6410    3.0390 C.ar  254  A254        0.1518
   5506  C6         2.3500    0.1860    3.9580 C.ar  254  A254        0.1919
   5507  N6         3.5510    0.7480    4.1050 N.pl3 254  A254       -0.1054
   5508  N7         1.3790    1.6840    2.1230 N.ar  254  A254       -0.2193
   5509  C8         0.1970    1.6060    1.5600 C.ar  254  A254        0.1816
   5510  N9        -0.5820    0.5830    2.0470 N.ar  254  A254       -0.2693
   5511  OP1       -3.3500    5.6780   -0.9830 O.2   254  A254       -0.5172
   5512  OP2       -0.8750    5.4910   -0.3020 O.co2 254  A254       -0.4373
   5513  P         -4.9230    3.2710    3.9670 P.3   255  U255        0.2141
   5514  C5'       -5.2810    1.4760    5.8700 C.3   255  U255        0.1812
   5515  O5'       -4.4820    2.5210    5.3020 O.3   255  U255       -0.3114
   5516  C4'       -4.4170    0.5720    6.7090 C.3   255  U255        0.1773
   5517  O4'       -3.2560    0.1560    5.9410 O.3   255  U255       -0.3307
   5518  C3'       -3.8270    1.2200    7.9430 C.3   255  U255        0.1860
   5519  O3'       -4.8000    1.2270    8.9740 O.3   255  U255       -0.3112
   5520  C2'       -2.6030    0.3490    8.2170 C.3   255  U255        0.2309
   5521  O2'       -2.7870   -0.8070    9.0140 O.3   255  U255       -0.2156
   5522  C1'       -2.1350    0.0060    6.7990 C.3   255  U255        0.2420
   5523  N1        -1.0760    0.9100    6.3250 N.ar  255  U255       -0.2534
   5524  C2         0.1670    0.8380    6.9380 C.ar  255  U255        0.3546
   5525  O2         0.4180    0.0530    7.8430 O.2   255  U255       -0.2443
   5526  N3         1.0940    1.7360    6.4610 N.ar  255  U255       -0.1530
   5527  C4         0.9090    2.6890    5.4720 C.ar  255  U255        0.2846
   5528  O4         1.8400    3.4320    5.1620 O.2   255  U255       -0.2650
   5529  C5        -0.3980    2.6930    4.8850 C.ar  255  U255        0.0814
   5530  C6        -1.3260    1.8340    5.3280 C.ar  255  U255        0.0870
   5531  OP1       -6.3700    3.5960    4.1700 O.3   255  U255       -0.4373
   5532  OP2       -3.9140    4.3650    3.7510 O.co2 255  U255       -0.5172
   5533  P         -4.9440    2.5910    9.7780 P.3   256  U256        0.2141
   5534  C5'       -3.7990    1.5350   11.9060 C.3   256  U256        0.1812
   5535  O5'       -3.7190    2.4450   10.7870 O.3   256  U256       -0.3114
   5536  C4'       -2.4160    1.0890   12.3070 C.3   256  U256        0.1773
   5537  O4'       -1.6020    0.9980   11.1140 O.3   256  U256       -0.3307
   5538  C3'       -1.6540    2.0740   13.1700 C.3   256  U256        0.1860
   5539  O3'       -2.1100    2.1080   14.5170 O.3   256  U256       -0.3112
   5540  C2'       -0.1940    1.6940   12.9010 C.3   256  U256        0.2309
   5541  O2'        0.4970    0.6870   13.6340 O.3   256  U256       -0.2156
   5542  C1'       -0.2500    1.2980   11.4250 C.3   256  U256        0.2420
   5543  N1         0.2210    2.3210   10.4770 N.ar  256  U256       -0.2534
   5544  C2         1.5740    2.6360   10.4480 C.ar  256  U256        0.3546
   5545  O2         2.3920    2.1280   11.1960 O.2   256  U256       -0.2443
   5546  N3         1.9270    3.5780    9.5110 N.ar  256  U256       -0.1530
   5547  C4         1.0950    4.2140    8.6080 C.ar  256  U256        0.2846
   5548  O4         1.5680    5.0370    7.8150 O.2   256  U256       -0.2650
   5549  C5        -0.2840    3.8270    8.6960 C.ar  256  U256        0.0814
   5550  C6        -0.6640    2.9170    9.6040 C.ar  256  U256        0.0870
   5551  OP1       -6.1970    2.5480   10.5770 O.3   256  U256       -0.4373
   5552  OP2       -4.7320    3.7040    8.8140 O.co2 256  U256       -0.5172
   5553  P         -2.3190    3.5830   15.1300 P.3   257  C257        0.2141
   5554  C5'       -0.8400    2.5390   17.0880 C.3   257  C257        0.1812
   5555  O5'       -1.1290    3.6320   16.1910 O.3   257  C257       -0.3114
   5556  C4'        0.6300    2.5660   17.4460 C.3   257  C257        0.1773
   5557  O4'        1.4200    2.2670   16.2600 O.3   257  C257       -0.3307
   5558  C3'        1.1870    3.9160   17.8760 C.3   257  C257        0.1860
   5559  O3'        0.9230    4.3890   19.1940 O.3   257  C257       -0.3112
   5560  C2'        2.6740    3.7180   17.6430 C.3   257  C257        0.2309
   5561  O2'        3.1960    2.8950   18.6620 O.3   257  C257       -0.2156
   5562  C1'        2.6560    2.9680   16.3150 C.3   257  C257        0.2420
   5563  N1         2.7620    3.8250   15.1170 N.ar  257  C257       -0.2535
   5564  C2         4.0400    4.2340   14.6750 C.ar  257  C257        0.3532
   5565  O2         5.0420    3.8820   15.3230 O.2   257  C257       -0.2443
   5566  N3         4.1430    4.9940   13.5510 N.ar  257  C257       -0.1739
   5567  C4         3.0370    5.3380   12.8780 C.ar  257  C257        0.1759
   5568  N4         3.1760    6.0850   11.7830 N.pl3 257  C257       -0.1070
   5569  C5         1.7300    4.9410   13.3110 C.ar  257  C257        0.0566
   5570  C6         1.6400    4.2030   14.4300 C.ar  257  C257        0.0850
   5571  OP1       -3.6320    3.7790   15.8300 O.3   257  C257       -0.4373
   5572  OP2       -1.9330    4.5200   14.0360 O.co2 257  C257       -0.5172
   5573  P          0.7270    5.9790   19.1730 P.3   258  U258        0.2141
   5574  C5'        3.1280    5.8720   20.3450 C.3   258  U258        0.1812
   5575  O5'        2.1230    6.6090   19.6190 O.3   258  U258       -0.3114
   5576  C4'        4.4830    6.3170   19.8560 C.3   258  U258        0.1773
   5577  O4'        4.5820    5.9960   18.4500 O.3   258  U258       -0.3307
   5578  C3'        4.7570    7.8150   19.8290 C.3   258  U258        0.1860
   5579  O3'        5.1380    8.3840   21.0560 O.3   258  U258       -0.3112
   5580  C2'        5.9270    7.9060   18.8630 C.3   258  U258        0.2309
   5581  O2'        7.1840    7.5460   19.4150 O.3   258  U258       -0.2156
   5582  C1'        5.4920    6.8930   17.8130 C.3   258  U258        0.2420
   5583  N1         4.8070    7.5040   16.6700 N.ar  258  U258       -0.2534
   5584  C2         5.5820    8.1580   15.7320 C.ar  258  U258        0.3546
   5585  O2         6.7900    8.2770   15.8390 O.2   258  U258       -0.2443
   5586  N3         4.8840    8.6940   14.6790 N.ar  258  U258       -0.1530
   5587  C4         3.5200    8.6490   14.4720 C.ar  258  U258        0.2846
   5588  O4         3.0390    9.1850   13.4690 O.2   258  U258       -0.2650
   5589  C5         2.7900    7.9370   15.4800 C.ar  258  U258        0.0814
   5590  C6         3.4430    7.4050   16.5190 C.ar  258  U258        0.0870
   5591  OP1       -0.3360    6.2320   20.1700 O.3   258  U258       -0.4373
   5592  OP2        0.5340    6.4680   17.7770 O.co2 258  U258       -0.5172
   5593  P          4.5070    9.8180   21.2860 P.3   259  U259        0.2141
   5594  C5'        6.8390   10.8880   21.3910 C.3   259  U259        0.1812
   5595  O5'        5.6390   10.7350   20.6420 O.3   259  U259       -0.3114
   5596  C4'        7.8920   11.4940   20.5360 C.3   259  U259        0.1773
   5597  O4'        7.7880   11.0160   19.1800 O.3   259  U259       -0.3307
   5598  C3'        7.7920   12.9840   20.3440 C.3   259  U259        0.1860
   5599  O3'        8.3440   13.5170   21.5310 O.3   259  U259       -0.3112
   5600  C2'        8.7400   13.1850   19.1690 C.3   259  U259        0.2309
   5601  O2'       10.0600   13.1980   19.6800 O.3   259  U259       -0.2156
   5602  C1'        8.4680   11.9250   18.3270 C.3   259  U259        0.2420
   5603  N1         7.5930   12.2030   17.1810 N.ar  259  U259       -0.2534
   5604  C2         8.1380   12.8330   16.0820 C.ar  259  U259        0.3546
   5605  O2         9.3170   13.1250   16.0060 O.2   259  U259       -0.2443
   5606  N3         7.2520   13.0940   15.0710 N.ar  259  U259       -0.1530
   5607  C4         5.8980   12.8370   15.0610 C.ar  259  U259        0.2846
   5608  O4         5.2210   13.1570   14.0780 O.2   259  U259       -0.2650
   5609  C5         5.4100   12.1970   16.2420 C.ar  259  U259        0.0814
   5610  C6         6.2540   11.9060   17.2350 C.ar  259  U259        0.0870
   5611  OP1        4.4450    9.8410   22.7870 O.3   259  U259       -0.4373
   5612  OP2        3.2990   10.0810   20.4560 O.co2 259  U259       -0.5172
   5613  P          7.4490   14.3490   22.5620 P.3   260  A260        0.2141
   5614  C5'        9.0730   16.2470   21.7040 C.3   260  A260        0.1812
   5615  O5'        8.4020   15.6060   22.7930 O.3   260  A260       -0.3114
   5616  C4'        9.7820   17.4650   22.2240 C.3   260  A260        0.1773
   5617  O4'       10.5550   17.1240   23.4210 O.3   260  A260       -0.3307
   5618  C3'       10.7640   18.1680   21.2770 C.3   260  A260        0.1860
   5619  O3'       10.7230   19.5730   21.5000 O.3   260  A260       -0.3112
   5620  C2'       12.1120   17.7940   21.8750 C.3   260  A260        0.2309
   5621  O2'       13.2010   18.6100   21.5520 O.3   260  A260       -0.2156
   5622  C1'       11.7780   17.8170   23.3620 C.3   260  A260        0.2408
   5623  N1        15.6560   18.0140   26.7020 N.ar  260  A260       -0.2040
   5624  C2        14.8650   18.9650   26.1940 C.ar  260  A260        0.2016
   5625  N3        13.8720   18.8530   25.3190 N.ar  260  A260       -0.2048
   5626  C4        13.6950   17.5700   24.9700 C.ar  260  A260        0.1692
   5627  C5        14.4150   16.4820   25.4190 C.ar  260  A260        0.1518
   5628  C6        15.4430   16.7320   26.3330 C.ar  260  A260        0.1919
   5629  N6        16.1990   15.7800   26.8690 N.pl3 260  A260       -0.1054
   5630  N7        13.9470   15.3150   24.8420 N.ar  260  A260       -0.2193
   5631  C8        12.9540   15.7130   24.0870 C.ar  260  A260        0.1816
   5632  N9        12.7440   17.0640   24.1240 N.ar  260  A260       -0.2693
   5633  OP1        7.2800   13.5470   23.8010 O.3   260  A260       -0.4373
   5634  OP2        6.2470   14.8820   21.8580 O.co2 260  A260       -0.5172
   5635  P         10.0390   20.6400   20.5390 P.3   261  C261        0.2141
   5636  C5'       12.3310   20.8960   19.3940 C.3   261  C261        0.1812
   5637  O5'       10.9300   20.7710   19.2300 O.3   261  C261       -0.3114
   5638  C4'       12.7530   22.2580   18.9640 C.3   261  C261        0.1773
   5639  O4'       13.9130   22.6620   19.7480 O.3   261  C261       -0.3307
   5640  C3'       13.1760   22.3200   17.5140 C.3   261  C261        0.1860
   5641  O3'       12.9810   23.6170   16.9560 O.3   261  C261       -0.3112
   5642  C2'       14.6700   22.0600   17.6120 C.3   261  C261        0.2309
   5643  O2'       15.5070   22.6390   16.6350 O.3   261  C261       -0.2156
   5644  C1'       15.0290   22.7770   18.9060 C.3   261  C261        0.2420
   5645  N1        16.1620   22.1400   19.5620 N.ar  261  C261       -0.2535
   5646  C2        16.9610   22.9070   20.3990 C.ar  261  C261        0.3532
   5647  O2        16.6630   24.0870   20.5820 O.2   261  C261       -0.2443
   5648  N3        18.0400   22.3430   20.9890 N.ar  261  C261       -0.1739
   5649  C4        18.3250   21.0600   20.7660 C.ar  261  C261        0.1759
   5650  N4        19.3900   20.5460   21.3740 N.pl3 261  C261       -0.1070
   5651  C5        17.5290   20.2510   19.9050 C.ar  261  C261        0.0566
   5652  C6        16.4670   20.8270   19.3280 C.ar  261  C261        0.0850
   5653  OP1       10.2670   21.9050   21.3020 O.3   261  C261       -0.4373
   5654  OP2        8.6720   20.1900   20.1310 O.co2 261  C261       -0.5172
   5655  P         11.6300   24.4540   16.7300 P.3   262  C262        0.2141
   5656  C5'       11.7150   23.9630   14.1630 C.3   262  C262        0.1812
   5657  O5'       10.9970   23.8610   15.4080 O.3   262  C262       -0.3114
   5658  C4'       10.7910   23.4430   13.0920 C.3   262  C262        0.1773
   5659  O4'       10.4830   22.0580   13.4160 O.3   262  C262       -0.3307
   5660  C3'        9.4140   24.0950   13.1020 C.3   262  C262        0.1860
   5661  O3'        9.3810   25.3340   12.4010 O.3   262  C262       -0.3112
   5662  C2'        8.5620   23.0320   12.4340 C.3   262  C262        0.2309
   5663  O2'        8.8960   23.0060   11.0640 O.3   262  C262       -0.2156
   5664  C1'        9.1480   21.7690   13.0420 C.3   262  C262        0.2420
   5665  N1         8.4330   21.2020   14.1860 N.ar  262  C262       -0.2535
   5666  C2         7.1410   20.6990   13.9630 C.ar  262  C262        0.3532
   5667  O2         6.6230   20.8690   12.8540 O.2   262  C262       -0.2443
   5668  N3         6.4770   20.0810   14.9720 N.ar  262  C262       -0.1739
   5669  C4         7.0640   19.9520   16.1640 C.ar  262  C262        0.1759
   5670  N4         6.3750   19.3570   17.1310 N.pl3 262  C262       -0.1070
   5671  C5         8.4010   20.4170   16.4090 C.ar  262  C262        0.0566
   5672  C6         9.0450   21.0220   15.3950 C.ar  262  C262        0.0850
   5673  OP1       12.1490   25.7140   16.1390 O.2   262  C262       -0.5172
   5674  OP2       10.6940   24.4240   17.9210 O.co2 262  C262       -0.4373
   5675  P          8.5300   26.5840   12.9640 P.3   263  C263        0.2141
   5676  C5'        6.6280   25.9050   11.3350 C.3   263  C263        0.1812
   5677  O5'        7.0510   26.0260   12.7200 O.3   263  C263       -0.3114
   5678  C4'        5.1700   25.5480   11.1950 C.3   263  C263        0.1773
   5679  O4'        4.9690   24.1580   11.5700 O.3   263  C263       -0.3307
   5680  C3'        4.1930   26.3200   12.0680 C.3   263  C263        0.1860
   5681  O3'        3.8920   27.5830   11.4890 O.3   263  C263       -0.3112
   5682  C2'        2.9960   25.3740   12.1240 C.3   263  C263        0.2309
   5683  O2'        2.1660   25.4250   10.9720 O.3   263  C263       -0.2156
   5684  C1'        3.7000   24.0170   12.1860 C.3   263  C263        0.2420
   5685  N1         3.9160   23.5200   13.5390 N.ar  263  C263       -0.2535
   5686  C2         2.8360   22.9720   14.2400 C.ar  263  C263        0.3532
   5687  O2         1.7160   22.9720   13.7070 O.2   263  C263       -0.2443
   5688  N3         3.0340   22.4770   15.4830 N.ar  263  C263       -0.1739
   5689  C4         4.2560   22.5150   16.0240 C.ar  263  C263        0.1759
   5690  N4         4.4140   22.0230   17.2550 N.pl3 263  C263       -0.1070
   5691  C5         5.3750   23.0620   15.3250 C.ar  263  C263        0.0566
   5692  C6         5.1590   23.5510   14.0990 C.ar  263  C263        0.0850
   5693  OP1        8.9610   27.4940   11.8780 O.2   263  C263       -0.5172
   5694  OP2        8.7680   26.9720   14.3870 O.co2 263  C263       -0.4373
   5695  P          3.6270   28.8570   12.4470 P.3   264  G264        0.2141
   5696  C5'        1.0410   28.4870   12.3440 C.3   264  G264        0.1812
   5697  O5'        2.2320   28.4970   13.1520 O.3   264  G264       -0.3114
   5698  C4'       -0.1450   27.9080   13.0770 C.3   264  G264        0.1773
   5699  O4'        0.1410   26.5470   13.4900 O.3   264  G264       -0.3307
   5700  C3'       -0.5510   28.5850   14.3740 C.3   264  G264        0.1860
   5701  O3'       -1.2810   29.8090   14.2660 O.3   264  G264       -0.3112
   5702  C2'       -1.3930   27.4990   15.0230 C.3   264  G264        0.2309
   5703  O2'       -2.5890   27.5290   14.2890 O.3   264  G264       -0.2156
   5704  C1'       -0.5880   26.2460   14.6730 C.3   264  G264        0.2408
   5705  N1         0.1750   24.3570   19.3480 N.ar  264  G264       -0.1709
   5706  C2        -1.0070   24.5640   18.6800 C.ar  264  G264        0.2606
   5707  N2        -2.1250   24.2530   19.3500 N.pl3 264  G264       -0.0859
   5708  N3        -1.0880   25.0600   17.4520 N.ar  264  G264       -0.1918
   5709  C4         0.1280   25.3460   16.9420 C.ar  264  G264        0.1723
   5710  C5         1.3680   25.1660   17.5220 C.ar  264  G264        0.1748
   5711  C6         1.4400   24.6340   18.8370 C.ar  264  G264        0.3023
   5712  O6         2.4450   24.4210   19.5280 O.2   264  G264       -0.2633
   5713  N7         2.3800   25.5550   16.6550 N.ar  264  G264       -0.2173
   5714  C8         1.7500   25.9700   15.5870 C.ar  264  G264        0.1817
   5715  N9         0.3810   25.8770   15.6970 N.ar  264  G264       -0.2693
   5716  OP1        3.7290   29.8310   11.3310 O.2   264  G264       -0.5172
   5717  OP2        4.5160   29.0220   13.6010 O.co2 264  G264       -0.4373
   5718  P         -0.7540   30.9510   15.2820 P.3   265  G265        0.2141
   5719  C5'       -2.8770   30.3960   16.6410 C.3   265  G265        0.1812
   5720  O5'       -1.5180   30.7680   16.6690 O.3   265  G265       -0.3114
   5721  C4'       -3.2760   29.6780   17.8960 C.3   265  G265        0.1773
   5722  O4'       -2.5900   28.4090   18.0060 O.3   265  G265       -0.3307
   5723  C3'       -2.9500   30.3360   19.2180 C.3   265  G265        0.1860
   5724  O3'       -3.7440   31.4650   19.5510 O.3   265  G265       -0.3112
   5725  C2'       -3.1550   29.1710   20.1840 C.3   265  G265        0.2309
   5726  O2'       -4.4950   28.9110   20.5090 O.3   265  G265       -0.2156
   5727  C1'       -2.5900   28.0000   19.3750 C.3   265  G265        0.2408
   5728  N1         0.5390   26.2850   23.0070 N.ar  265  G265       -0.1709
   5729  C2        -0.8260   26.3420   23.0000 C.ar  265  G265        0.2606
   5730  N2        -1.4210   25.9170   24.1120 N.pl3 265  G265       -0.0859
   5731  N3        -1.5490   26.8050   21.9850 N.ar  265  G265       -0.1918
   5732  C4        -0.7730   27.2050   20.9560 C.ar  265  G265        0.1723
   5733  C5         0.6010   27.1900   20.8630 C.ar  265  G265        0.1748
   5734  C6         1.3580   26.6770   21.9560 C.ar  265  G265        0.3023
   5735  O6         2.5850   26.5580   22.0570 O.2   265  G265       -0.2633
   5736  N7         1.0180   27.6890   19.6360 N.ar  265  G265       -0.2173
   5737  C8        -0.0890   27.9960   19.0190 C.ar  265  G265        0.1817
   5738  N9        -1.2120   27.7300   19.7650 N.ar  265  G265       -0.2693
   5739  OP1       -1.0260   32.1920   14.5240 O.2   265  G265       -0.5172
   5740  OP2        0.6190   30.7030   15.7740 O.co2 265  G265       -0.4373
   5741  P         -3.0280   32.5780   20.4760 P.3   266  G266        0.2141
   5742  C5'       -4.3700   31.5100   22.4890 C.3   266  G266        0.1812
   5743  O5'       -3.1240   31.8720   21.9050 O.3   266  G266       -0.3114
   5744  C4'       -4.1130   30.8420   23.8060 C.3   266  G266        0.1773
   5745  O4'       -3.3730   29.6120   23.5910 O.3   266  G266       -0.3307
   5746  C3'       -3.2320   31.6180   24.7560 C.3   266  G266        0.1860
   5747  O3'       -4.0550   32.4300   25.5380 O.3   266  G266       -0.3112
   5748  C2'       -2.7090   30.5190   25.6660 C.3   266  G266        0.2309
   5749  O2'       -3.6390   30.0880   26.6360 O.3   266  G266       -0.2156
   5750  C1'       -2.4490   29.4120   24.6560 C.3   266  G266        0.2408
   5751  N1         2.4660   28.4580   25.4530 N.ar  266  G266       -0.1709
   5752  C2         1.3920   28.2150   26.2670 C.ar  266  G266        0.2606
   5753  N2         1.6620   27.6160   27.4310 N.pl3 266  G266       -0.0859
   5754  N3         0.1420   28.5120   25.9510 N.ar  266  G266       -0.1918
   5755  C4         0.0570   29.0940   24.7380 C.ar  266  G266        0.1723
   5756  C5         1.0760   29.4150   23.8640 C.ar  266  G266        0.1748
   5757  C6         2.4060   29.0860   24.2170 C.ar  266  G266        0.3023
   5758  O6         3.4410   29.2840   23.5780 O.2   266  G266       -0.2633
   5759  N7         0.5740   30.0220   22.7200 N.ar  266  G266       -0.2173
   5760  C8        -0.7160   30.0660   22.9190 C.ar  266  G266        0.1817
   5761  N9        -1.0970   29.5110   24.1200 N.ar  266  G266       -0.2693
   5762  OP1       -3.8970   33.7870   20.6270 O.3   266  G266       -0.4373
   5763  OP2       -1.5920   32.7630   20.0920 O.co2 266  G266       -0.5172
   5764  P         -3.5060   33.8160   26.0430 P.3   267  G267        0.2141
   5765  C5'       -2.8070   32.9960   28.4420 C.3   267  G267        0.1812
   5766  O5'       -2.4390   33.5670   27.1840 O.3   267  G267       -0.3114
   5767  C4'       -1.5650   33.0120   29.2870 C.3   267  G267        0.1773
   5768  O4'       -0.5850   32.1040   28.6990 O.3   267  G267       -0.3307
   5769  C3'       -0.8820   34.3800   29.3030 C.3   267  G267        0.1860
   5770  O3'       -0.5510   34.7370   30.6400 O.3   267  G267       -0.3112
   5771  C2'        0.3370   34.1670   28.4090 C.3   267  G267        0.2309
   5772  O2'        1.3880   35.0570   28.7020 O.3   267  G267       -0.2156
   5773  C1'        0.6660   32.7230   28.7470 C.3   267  G267        0.2408
   5774  N1         4.8690   29.9280   28.6050 N.ar  267  G267       -0.1709
   5775  C2         4.0830   30.2780   29.6740 C.ar  267  G267        0.2606
   5776  N2         4.4910   29.8670   30.8800 N.pl3 267  G267       -0.0859
   5777  N3         2.9750   30.9800   29.5720 N.ar  267  G267       -0.1918
   5778  C4         2.7120   31.3280   28.2980 C.ar  267  G267        0.1723
   5779  C5         3.4220   31.0220   27.1600 C.ar  267  G267        0.1748
   5780  C6         4.6060   30.2570   27.2780 C.ar  267  G267        0.3023
   5781  O6         5.3830   29.8910   26.3810 O.2   267  G267       -0.2633
   5782  N7         2.7970   31.5380   26.0360 N.ar  267  G267       -0.2173
   5783  C8         1.7550   32.1720   26.5100 C.ar  267  G267        0.1817
   5784  N9         1.6310   32.0600   27.8710 N.ar  267  G267       -0.2693
   5785  OP1       -4.6720   34.5170   26.6740 O.3   267  G267       -0.4373
   5786  OP2       -2.7920   34.3080   24.8410 O.co2 267  G267       -0.5172
   5787  P         -0.3410   36.2980   30.9850 P.3   268  A268        0.2141
   5788  C5'       -2.4480   36.0330   32.4620 C.3   268  A268        0.1812
   5789  O5'       -1.1320   36.5530   32.3340 O.3   268  A268       -0.3114
   5790  C4'       -2.5500   35.0230   33.5890 C.3   268  A268        0.1773
   5791  O4'       -1.8450   33.7980   33.2580 O.3   268  A268       -0.3307
   5792  C3'       -1.9510   35.3910   34.9340 C.3   268  A268        0.1860
   5793  O3'       -2.8890   36.1780   35.6210 O.3   268  A268       -0.3112
   5794  C2'       -1.9360   34.0360   35.6020 C.3   268  A268        0.2309
   5795  O2'       -3.2800   33.7670   35.9260 O.3   268  A268       -0.2156
   5796  C1'       -1.4380   33.1470   34.4560 C.3   268  A268        0.2408
   5797  N1         2.6780   31.8060   37.1990 N.ar  268  A268       -0.2040
   5798  C2         1.3660   31.6960   37.4290 C.ar  268  A268        0.2016
   5799  N3         0.3440   32.0530   36.6600 N.ar  268  A268       -0.2048
   5800  C4         0.7840   32.5900   35.5100 C.ar  268  A268        0.1692
   5801  C5         2.1020   32.7800   35.1330 C.ar  268  A268        0.1518
   5802  C6         3.0880   32.3700   36.0440 C.ar  268  A268        0.1919
   5803  N6         4.3950   32.5300   35.8420 N.pl3 268  A268       -0.1054
   5804  N7         2.1760   33.3870   33.8870 N.ar  268  A268       -0.2193
   5805  C8         0.9210   33.5130   33.5250 C.ar  268  A268        0.1816
   5806  N9         0.0240   33.0550   34.4630 N.ar  268  A268       -0.2693
   5807  OP1       -0.7710   36.9030   29.6970 O.2   268  A268       -0.5172
   5808  OP2        1.0480   36.5420   31.4190 O.co2 268  A268       -0.4373
   5809  P         -2.3430   37.4090   36.4540 P.3   269  G269        0.2141
   5810  C5'       -1.5810   36.9320   38.9620 C.3   269  G269        0.1812
   5811  O5'       -1.4400   36.6960   37.5550 O.3   269  G269       -0.3114
   5812  C4'       -0.5290   36.1680   39.7390 C.3   269  G269        0.1773
   5813  O4'       -0.1040   34.9890   38.9970 O.3   269  G269       -0.3307
   5814  C3'        0.7490   36.9450   39.9920 C.3   269  G269        0.1860
   5815  O3'        0.6130   37.6510   41.2000 O.3   269  G269       -0.3112
   5816  C2'        1.7940   35.8480   40.1180 C.3   269  G269        0.2309
   5817  O2'        2.0110   35.3130   41.4130 O.3   269  G269       -0.2156
   5818  C1'        1.3180   34.8740   39.0390 C.3   269  G269        0.2408
   5819  N1         5.6030   35.5130   36.4220 N.ar  269  G269       -0.1709
   5820  C2         5.4130   35.0480   37.6940 C.ar  269  G269        0.2606
   5821  N2         6.5160   34.7120   38.3690 N.pl3 269  G269       -0.0859
   5822  N3         4.2300   34.9200   38.2670 N.ar  269  G269       -0.1918
   5823  C4         3.2290   35.3130   37.4530 C.ar  269  G269        0.1723
   5824  C5         3.3070   35.7860   36.1640 C.ar  269  G269        0.1748
   5825  C6         4.5940   35.9180   35.5620 C.ar  269  G269        0.3023
   5826  O6         4.8860   36.3560   34.4450 O.2   269  G269       -0.2633
   5827  N7         2.0420   36.0760   35.6690 N.ar  269  G269       -0.2173
   5828  C8         1.2310   35.7480   36.6390 C.ar  269  G269        0.1817
   5829  N9         1.8840   35.2670   37.7470 N.ar  269  G269       -0.2693
   5830  OP1       -3.4800   38.0110   37.2040 O.3   269  G269       -0.4373
   5831  OP2       -1.5610   38.2310   35.4360 O.co2 269  G269       -0.5172
   5832  P          0.6760   39.2370   41.0610 P.3   270  G270        0.2141
   5833  C5'        3.1530   38.9020   41.8980 C.3   270  G270        0.1812
   5834  O5'        2.2520   39.4770   40.9310 O.3   270  G270       -0.3114
   5835  C4'        4.5430   38.8470   41.3400 C.3   270  G270        0.1773
   5836  O4'        4.5930   37.9090   40.2280 O.3   270  G270       -0.3307
   5837  C3'        5.0190   40.1500   40.7450 C.3   270  G270        0.1860
   5838  O3'        5.4750   40.9920   41.7790 O.3   270  G270       -0.3112
   5839  C2'        6.1150   39.6730   39.7970 C.3   270  G270        0.2309
   5840  O2'        7.3190   39.3270   40.4340 O.3   270  G270       -0.2156
   5841  C1'        5.5000   38.3880   39.2450 C.3   270  G270        0.2408
   5842  N1         5.9710   39.4320   34.3150 N.ar  270  G270       -0.1709
   5843  C2         6.9380   39.2300   35.2660 C.ar  270  G270        0.2606
   5844  N2         8.2030   39.3210   34.8420 N.pl3 270  G270       -0.0859
   5845  N3         6.6840   38.9770   36.5410 N.ar  270  G270       -0.1918
   5846  C4         5.3600   38.9100   36.7870 C.ar  270  G270        0.1723
   5847  C5         4.3110   39.0730   35.9060 C.ar  270  G270        0.1748
   5848  C6         4.6020   39.3570   34.5390 C.ar  270  G270        0.3023
   5849  O6         3.8190   39.5240   33.5990 O.2   270  G270       -0.2633
   5850  N7         3.0960   38.9160   36.5540 N.ar  270  G270       -0.2173
   5851  C8         3.4220   38.6600   37.7930 C.ar  270  G270        0.1817
   5852  N9         4.7810   38.6220   37.9960 N.ar  270  G270       -0.2693
   5853  OP1        0.1280   39.7070   42.3600 O.3   270  G270       -0.4373
   5854  OP2        0.0080   39.6140   39.7980 O.co2 270  G270       -0.5172
   5855  P          5.6030   42.5570   41.4670 P.3   271  U271        0.2141
   5856  C5'        7.7810   43.2080   40.2410 C.3   271  U271        0.1812
   5857  O5'        6.4630   42.6770   40.1380 O.3   271  U271       -0.3114
   5858  C4'        8.5450   42.9400   38.9840 C.3   271  U271        0.1773
   5859  O4'        7.7910   42.0160   38.1640 O.3   271  U271       -0.3307
   5860  C3'        8.7100   44.1340   38.0730 C.3   271  U271        0.1860
   5861  O3'        9.7370   44.9980   38.4950 O.3   271  U271       -0.3112
   5862  C2'        9.0350   43.4560   36.7710 C.3   271  U271        0.2309
   5863  O2'       10.3060   42.8620   36.9290 O.3   271  U271       -0.2156
   5864  C1'        8.0550   42.2860   36.8000 C.3   271  U271        0.2420
   5865  N1         6.7790   42.4950   36.0980 N.ar  271  U271       -0.2534
   5866  C2         6.8140   42.6760   34.7250 C.ar  271  U271        0.3546
   5867  O2         7.8540   42.7430   34.0840 O.2   271  U271       -0.2443
   5868  N3         5.5840   42.8060   34.1320 N.ar  271  U271       -0.1530
   5869  C4         4.3510   42.7570   34.7440 C.ar  271  U271        0.2846
   5870  O4         3.3320   42.9080   34.0670 O.2   271  U271       -0.2650
   5871  C5         4.4000   42.5580   36.1600 C.ar  271  U271        0.0814
   5872  C6         5.5830   42.4190   36.7700 C.ar  271  U271        0.0870
   5873  OP1        6.3450   43.2640   42.5520 O.3   271  U271       -0.4373
   5874  OP2        4.3090   43.1230   41.0480 O.co2 271  U271       -0.5172
   5875  P          9.0720   46.3780   39.0470 P.3   272  C272        0.2141
   5876  C5'       10.2420   47.3230   36.9010 C.3   272  C272        0.1812
   5877  O5'        9.0370   47.0100   37.5830 O.3   272  C272       -0.3114
   5878  C4'        9.9670   47.3540   35.4280 C.3   272  C272        0.1773
   5879  O4'        9.0590   46.2760   35.0630 O.3   272  C272       -0.3307
   5880  C3'        9.2240   48.5810   34.9550 C.3   272  C272        0.1860
   5881  O3'       10.1170   49.6660   34.8130 O.3   272  C272       -0.3112
   5882  C2'        8.6910   48.1150   33.6100 C.3   272  C272        0.2309
   5883  O2'        9.7380   48.1280   32.6980 O.3   272  C272       -0.2156
   5884  C1'        8.3130   46.6620   33.9100 C.3   272  C272        0.2420
   5885  N1         6.8630   46.4440   34.1690 N.ar  272  C272       -0.2535
   5886  C2         5.9590   46.6170   33.1160 C.ar  272  C272        0.3532
   5887  O2         6.3850   46.9850   32.0180 O.2   272  C272       -0.2443
   5888  N3         4.6470   46.3940   33.3240 N.ar  272  C272       -0.1739
   5889  C4         4.2200   46.0290   34.5310 C.ar  272  C272        0.1759
   5890  N4         2.9140   45.8270   34.6910 N.pl3 272  C272       -0.1070
   5891  C5         5.1160   45.8400   35.6260 C.ar  272  C272        0.0566
   5892  C6         6.4190   46.0500   35.3990 C.ar  272  C272        0.0850
   5893  OP1        9.9650   47.1850   39.9350 O.3   272  C272       -0.4373
   5894  OP2        7.6670   46.1930   39.5340 O.co2 272  C272       -0.5172
   5895  P          9.6760   51.0040   35.5700 P.3   273  U273        0.2141
   5896  C5'        9.3310   51.4140   33.0110 C.3   273  U273        0.1812
   5897  O5'        8.9340   51.7090   34.3480 O.3   273  U273       -0.3114
   5898  C4'        8.4140   52.0950   32.0220 C.3   273  U273        0.1773
   5899  O4'        7.5460   51.1330   31.3480 O.3   273  U273       -0.3307
   5900  C3'        7.4640   53.1640   32.5410 C.3   273  U273        0.1860
   5901  O3'        8.1810   54.3690   32.5510 O.3   273  U273       -0.3112
   5902  C2'        6.4760   53.2140   31.3930 C.3   273  U273        0.2309
   5903  O2'        7.0740   53.7150   30.1970 O.3   273  U273       -0.2156
   5904  C1'        6.2720   51.7200   31.1500 C.3   273  U273        0.2420
   5905  N1         5.3140   51.0570   32.0480 N.ar  273  U273       -0.2534
   5906  C2         3.9830   51.0710   31.6950 C.ar  273  U273        0.3546
   5907  O2         3.5640   51.6740   30.7270 O.2   273  U273       -0.2443
   5908  N3         3.1570   50.3610   32.5200 N.ar  273  U273       -0.1530
   5909  C4         3.5190   49.6370   33.6240 C.ar  273  U273        0.2846
   5910  O4         2.6540   49.0560   34.2850 O.2   273  U273       -0.2650
   5911  C5         4.9190   49.6480   33.9010 C.ar  273  U273        0.0814
   5912  C6         5.7460   50.3440   33.1200 C.ar  273  U273        0.0870
   5913  OP1       10.8160   51.9130   35.7920 O.2   273  U273       -0.5172
   5914  OP2        8.8060   50.6010   36.7250 O.co2 273  U273       -0.4373
   5915  P          7.6740   55.7210   33.1820 P.3   274  G274        0.2141
   5916  C5'        6.2610   56.9040   31.2960 C.3   274  G274        0.1812
   5917  O5'        6.2880   56.0730   32.4860 O.3   274  G274       -0.3114
   5918  C4'        4.8620   57.0130   30.7400 C.3   274  G274        0.1773
   5919  O4'        4.2800   55.6870   30.5480 O.3   274  G274       -0.3307
   5920  C3'        3.8250   57.6850   31.6250 C.3   274  G274        0.1860
   5921  O3'        3.9790   59.0870   31.5850 O.3   274  G274       -0.3112
   5922  C2'        2.5680   57.2500   30.9090 C.3   274  G274        0.2309
   5923  O2'        2.7710   57.5850   29.5360 O.3   274  G274       -0.2156
   5924  C1'        2.8700   55.7690   30.7490 C.3   274  G274        0.2408
   5925  N1        -0.8710   53.2850   33.1110 N.ar  274  G274       -0.1709
   5926  C2        -0.9360   54.1380   32.0410 C.ar  274  G274        0.2606
   5927  N2        -2.1560   54.3690   31.5470 N.pl3 274  G274       -0.0859
   5928  N3         0.1080   54.7630   31.5280 N.ar  274  G274       -0.1918
   5929  C4         1.2510   54.4200   32.1490 C.ar  274  G274        0.1723
   5930  C5         1.4260   53.5640   33.2120 C.ar  274  G274        0.1748
   5931  C6         0.2960   52.9190   33.7670 C.ar  274  G274        0.3023
   5932  O6         0.2520   52.1060   34.7010 O.2   274  G274       -0.2633
   5933  N7         2.7630   53.4910   33.5670 N.ar  274  G274       -0.2173
   5934  C8         3.3670   54.2650   32.7070 C.ar  274  G274        0.1817
   5935  N9         2.5030   54.9020   31.8600 N.ar  274  G274       -0.2693
   5936  OP1        8.7000   56.6480   32.6010 O.2   274  G274       -0.5172
   5937  OP2        7.4360   55.6330   34.6580 O.co2 274  G274       -0.4373
   5938  P          4.1680   59.8160   32.9820 P.3   275  G275        0.2141
   5939  C5'        1.6420   60.5380   32.9830 C.3   275  G275        0.1812
   5940  O5'        2.7660   60.0200   33.7010 O.3   275  G275       -0.3114
   5941  C4'        0.3920   59.9160   33.5270 C.3   275  G275        0.1773
   5942  O4'        0.4740   58.4870   33.3320 O.3   275  G275       -0.3307
   5943  C3'        0.2630   59.9640   35.0230 C.3   275  G275        0.1860
   5944  O3'        0.0650   61.3150   35.5030 O.3   275  G275       -0.3112
   5945  C2'       -0.8050   58.8960   35.2470 C.3   275  G275        0.2309
   5946  O2'       -2.0880   59.3470   34.9110 O.3   275  G275       -0.2156
   5947  C1'       -0.4180   57.8340   34.2130 C.3   275  G275        0.2408
   5948  N1        -0.7610   53.9050   37.3900 N.ar  275  G275       -0.1709
   5949  C2        -1.7640   54.6080   36.7770 C.ar  275  G275        0.2606
   5950  N2        -3.0140   54.2800   37.1350 N.pl3 275  G275       -0.0859
   5951  N3        -1.5570   55.5900   35.9170 N.ar  275  G275       -0.1918
   5952  C4        -0.2440   55.8030   35.7040 C.ar  275  G275        0.1723
   5953  C5         0.8320   55.1450   36.2530 C.ar  275  G275        0.1748
   5954  C6         0.5960   54.1150   37.1950 C.ar  275  G275        0.3023
   5955  O6         1.4180   53.3930   37.7710 O.2   275  G275       -0.2633
   5956  N7         2.0240   55.6400   35.7430 N.ar  275  G275       -0.2173
   5957  C8         1.6580   56.6200   34.9640 C.ar  275  G275        0.1817
   5958  N9         0.2970   56.7650   34.8840 N.ar  275  G275       -0.2693
   5959  OP1        4.6880   61.1000   32.4030 O.2   275  G275       -0.5172
   5960  OP2        4.9600   58.9680   33.9450 O.co2 275  G275       -0.4373
   5961  P          0.7510   61.7330   36.9500 P.3   276  A276        0.2141
   5962  C5'        1.0190   60.6800   39.3770 C.3   276  A276        0.1812
   5963  O5'        0.5630   60.5760   38.0270 O.3   276  A276       -0.3114
   5964  C4'       -0.1890   60.6050   40.2420 C.3   276  A276        0.1773
   5965  O4'       -1.1080   61.5280   39.6590 O.3   276  A276       -0.3307
   5966  C3'       -1.0130   59.3400   40.0990 C.3   276  A276        0.1860
   5967  O3'       -0.4770   58.2300   40.7560 O.3   276  A276       -0.3112
   5968  C2'       -2.4020   59.7830   40.5460 C.3   276  A276        0.2309
   5969  O2'       -2.6300   59.9960   41.8980 O.3   276  A276       -0.2156
   5970  C1'       -2.3950   61.2440   40.1400 C.3   276  A276        0.2408
   5971  N1        -7.3040   61.7830   38.6740 N.ar  276  A276       -0.2040
   5972  C2        -6.7600   61.2080   39.7540 C.ar  276  A276        0.2016
   5973  N3        -5.4780   61.0750   40.0810 N.ar  276  A276       -0.2048
   5974  C4        -4.6930   61.5950   39.1230 C.ar  276  A276        0.1692
   5975  C5        -5.1040   62.2030   37.9550 C.ar  276  A276        0.1518
   5976  C6        -6.4810   62.2970   37.7350 C.ar  276  A276        0.1919
   5977  N6        -7.0130   62.8470   36.6440 N.pl3 276  A276       -0.1054
   5978  N7        -4.0150   62.6330   37.2170 N.ar  276  A276       -0.2193
   5979  C8        -2.9870   62.2780   37.9430 C.ar  276  A276        0.1816
   5980  N9        -3.3230   61.6350   39.0990 N.ar  276  A276       -0.2693
   5981  OP1        0.0720   62.8050   37.6900 O.3   276  A276       -0.4373
   5982  OP2        2.1820   61.8500   36.5940 O.co2 276  A276       -0.5172
   5983  P         -0.3150   56.9800   39.7660 P.3   277  A277        0.2141
   5984  C5'       -2.3710   55.8460   40.9010 C.3   277  A277        0.1812
   5985  O5'       -1.8460   56.5540   39.7610 O.3   277  A277       -0.3114
   5986  C4'       -3.8500   56.0750   40.9380 C.3   277  A277        0.1773
   5987  O4'       -4.1290   57.3660   40.3250 O.3   277  A277       -0.3307
   5988  C3'       -4.6570   55.1140   40.0800 C.3   277  A277        0.1860
   5989  O3'       -4.9760   53.9460   40.8230 O.3   277  A277       -0.3112
   5990  C2'       -5.9280   55.9070   39.8470 C.3   277  A277        0.2309
   5991  O2'       -6.5150   55.8860   41.1380 O.3   277  A277       -0.2156
   5992  C1'       -5.3900   57.3260   39.6860 C.3   277  A277        0.2408
   5993  N1        -7.6550   59.9850   35.9160 N.ar  277  A277       -0.2040
   5994  C2        -8.1320   59.4270   37.0320 C.ar  277  A277        0.2016
   5995  N3        -7.4980   58.6960   37.9540 N.ar  277  A277       -0.2048
   5996  C4        -6.1980   58.5910   37.6570 C.ar  277  A277        0.1692
   5997  C5        -5.5640   59.0840   36.5310 C.ar  277  A277        0.1518
   5998  C6        -6.3510   59.8120   35.6210 C.ar  277  A277        0.1919
   5999  N6        -5.8790   60.3450   34.4960 N.pl3 277  A277       -0.1054
   6000  N7        -4.2230   58.7330   36.5310 N.ar  277  A277       -0.2193
   6001  C8        -4.0740   58.0730   37.6550 C.ar  277  A277        0.1816
   6002  N9        -5.2390   57.9130   38.3630 N.ar  277  A277       -0.2693
   6003  OP1        0.3150   55.8340   40.5440 O.3   277  A277       -0.4373
   6004  OP2        0.2430   57.4130   38.4490 O.co2 277  A277       -0.5172
   6005  P         -4.9490   52.5950   39.9410 P.3   278  A278        0.2141
   6006  C5'       -7.6180   52.6950   39.8110 C.3   278  A278        0.1812
   6007  O5'       -6.3190   52.7950   39.1560 O.3   278  A278       -0.3114
   6008  C4'       -8.6760   53.1030   38.8090 C.3   278  A278        0.1773
   6009  O4'       -8.4840   54.5030   38.4680 O.3   278  A278       -0.3307
   6010  C3'       -8.6220   52.4110   37.4530 C.3   278  A278        0.1860
   6011  O3'       -9.3710   51.2370   37.6190 O.3   278  A278       -0.3112
   6012  C2'       -9.3300   53.4100   36.5530 C.3   278  A278        0.2309
   6013  O2'      -10.7320   53.5050   36.6700 O.3   278  A278       -0.2156
   6014  C1'       -8.8190   54.7310   37.1160 C.3   278  A278        0.2408
   6015  N1        -6.7310   57.5040   33.3210 N.ar  278  A278       -0.2040
   6016  C2        -7.9760   57.4510   33.8010 C.ar  278  A278        0.2016
   6017  N3        -8.4570   56.7330   34.8140 N.ar  278  A278       -0.2048
   6018  C4        -7.4980   55.9540   35.3430 C.ar  278  A278        0.1692
   6019  C5        -6.1850   55.8670   34.9290 C.ar  278  A278        0.1518
   6020  C6        -5.7950   56.6910   33.8660 C.ar  278  A278        0.1919
   6021  N6        -4.5560   56.7120   33.3690 N.pl3 278  A278       -0.1054
   6022  N7        -5.4820   54.9660   35.7160 N.ar  278  A278       -0.2193
   6023  C8        -6.3760   54.5260   36.5680 C.ar  278  A278        0.1816
   6024  N9        -7.6110   55.0940   36.4100 N.ar  278  A278       -0.2693
   6025  OP1       -5.1960   51.5010   40.9220 O.3   278  A278       -0.4373
   6026  OP2       -3.7860   52.5270   38.9660 O.co2 278  A278       -0.5172
   6027  P         -9.2140   50.0510   36.5860 P.3   279  C279        0.2141
   6028  C5'       -9.4190   50.7510   34.0580 C.3   279  C279        0.1812
   6029  O5'       -8.6300   50.6550   35.2370 O.3   279  C279       -0.3114
   6030  C4'       -8.7410   51.6650   33.0650 C.3   279  C279        0.1773
   6031  O4'       -7.9740   52.7140   33.7400 O.3   279  C279       -0.3307
   6032  C3'       -7.7310   51.0340   32.1160 C.3   279  C279        0.1860
   6033  O3'       -8.3380   50.4350   31.0050 O.3   279  C279       -0.3112
   6034  C2'       -6.9540   52.2600   31.6680 C.3   279  C279        0.2309
   6035  O2'       -7.6350   53.1670   30.8040 O.3   279  C279       -0.2156
   6036  C1'       -6.7650   52.9510   33.0190 C.3   279  C279        0.2420
   6037  N1        -5.6350   52.3910   33.7900 N.ar  279  C279       -0.2535
   6038  C2        -4.3280   52.7460   33.4490 C.ar  279  C279        0.3532
   6039  O2        -4.1430   53.5100   32.5010 O.2   279  C279       -0.2443
   6040  N3        -3.3020   52.2640   34.1730 N.ar  279  C279       -0.1739
   6041  C4        -3.5390   51.4340   35.1890 C.ar  279  C279        0.1759
   6042  N4        -2.4930   50.9650   35.8690 N.pl3 279  C279       -0.1070
   6043  C5        -4.8590   51.0540   35.5610 C.ar  279  C279        0.0566
   6044  C6        -5.8670   51.5420   34.8340 C.ar  279  C279        0.0850
   6045  OP1      -10.6610   49.8080   36.4570 O.2   279  C279       -0.5172
   6046  OP2       -8.3100   48.9800   37.1090 O.co2 279  C279       -0.4373
   6047  P         -7.8270   49.0160   30.5290 P.3   280  A280        0.2141
   6048  C5'       -7.0640   50.3930   28.4240 C.3   280  A280        0.1812
   6049  O5'       -6.7280   49.5090   29.4970 O.3   280  A280       -0.3114
   6050  C4'       -5.8280   51.1660   28.0410 C.3   280  A280        0.1773
   6051  O4'       -5.2500   51.7160   29.2410 O.3   280  A280       -0.3307
   6052  C3'       -4.6780   50.3670   27.4390 C.3   280  A280        0.1860
   6053  O3'       -4.8170   50.2920   26.0290 O.3   280  A280       -0.3112
   6054  C2'       -3.4850   51.2600   27.7340 C.3   280  A280        0.2309
   6055  O2'       -3.5720   52.4830   27.0770 O.3   280  A280       -0.2156
   6056  C1'       -3.8480   51.8210   29.0930 C.3   280  A280        0.2408
   6057  N1         0.5400   50.4970   31.4400 N.ar  280  A280       -0.2040
   6058  C2         0.2970   51.2480   30.3540 C.ar  280  A280        0.2016
   6059  N3        -0.8660   51.5500   29.7790 N.ar  280  A280       -0.2048
   6060  C4        -1.8840   50.9990   30.4640 C.ar  280  A280        0.1692
   6061  C5        -1.7920   50.2190   31.6010 C.ar  280  A280        0.1518
   6062  C6        -0.5060   49.9590   32.0970 C.ar  280  A280        0.1919
   6063  N6        -0.2710   49.2360   33.1920 N.pl3 280  A280       -0.1054
   6064  N7        -3.0530   49.8560   32.0500 N.ar  280  A280       -0.2193
   6065  C8        -3.8650   50.4000   31.1800 C.ar  280  A280        0.1816
   6066  N9        -3.2250   51.0960   30.1870 N.ar  280  A280       -0.2693
   6067  OP1       -8.8540   48.4440   29.6450 O.2   280  A280       -0.5172
   6068  OP2       -7.2220   48.1580   31.5880 O.co2 280  A280       -0.4373
   6069  P         -4.6020   48.8660   25.4080 P.3   281  G281        0.2141
   6070  C5'       -2.1100   48.0910   25.5440 C.3   281  G281        0.1812
   6071  O5'       -3.0740   48.9920   25.0090 O.3   281  G281       -0.3114
   6072  C4'       -0.7770   48.7890   25.5640 C.3   281  G281        0.1773
   6073  O4'       -0.7020   49.5390   26.7970 O.3   281  G281       -0.3307
   6074  C3'        0.4460   47.8840   25.5700 C.3   281  G281        0.1860
   6075  O3'        0.9310   47.6950   24.2490 O.3   281  G281       -0.3112
   6076  C2'        1.4620   48.7300   26.3020 C.3   281  G281        0.2309
   6077  O2'        1.9570   49.6270   25.3390 O.3   281  G281       -0.2156
   6078  C1'        0.5840   49.4120   27.3410 C.3   281  G281        0.2408
   6079  N1         3.1260   47.4510   31.2290 N.ar  281  G281       -0.1709
   6080  C2         3.5830   48.1610   30.1500 C.ar  281  G281        0.2606
   6081  N2         4.8950   48.4030   30.1100 N.pl3 281  G281       -0.0859
   6082  N3         2.8110   48.5980   29.1710 N.ar  281  G281       -0.1918
   6083  C4         1.5130   48.2880   29.3760 C.ar  281  G281        0.1723
   6084  C5         0.9470   47.5980   30.4230 C.ar  281  G281        0.1748
   6085  C6         1.7970   47.1090   31.4580 C.ar  281  G281        0.3023
   6086  O6         1.4920   46.4660   32.4760 O.2   281  G281       -0.2633
   6087  N7        -0.4330   47.5250   30.2750 N.ar  281  G281       -0.2173
   6088  C8        -0.6680   48.1270   29.1410 C.ar  281  G281        0.1817
   6089  N9         0.4660   48.6360   28.5600 N.ar  281  G281       -0.2693
   6090  OP1       -5.2790   48.9470   24.0800 O.2   281  G281       -0.5172
   6091  OP2       -4.8820   47.7870   26.3950 O.co2 281  G281       -0.4373
   6092  P          1.4390   46.2040   23.9070 P.3   282  A282        0.2141
   6093  C5'        3.9660   47.0800   24.1490 C.3   282  A282        0.1812
   6094  O5'        2.8570   46.2610   24.6370 O.3   282  A282       -0.3114
   6095  C4'        5.1910   46.8270   25.0090 C.3   282  A282        0.1773
   6096  O4'        4.8930   47.1370   26.3980 O.3   282  A282       -0.3307
   6097  C3'        5.6420   45.3770   25.1460 C.3   282  A282        0.1860
   6098  O3'        6.3830   44.9190   24.0450 O.3   282  A282       -0.3112
   6099  C2'        6.5590   45.4670   26.3440 C.3   282  A282        0.2309
   6100  O2'        7.7450   46.0570   25.8560 O.3   282  A282       -0.2156
   6101  C1'        5.7400   46.3810   27.2350 C.3   282  A282        0.2408
   6102  N1         5.2650   43.8280   31.6490 N.ar  282  A282       -0.2040
   6103  C2         6.3380   44.2770   30.9910 C.ar  282  A282        0.2016
   6104  N3         6.4060   44.9340   29.8300 N.ar  282  A282       -0.2048
   6105  C4         5.1810   45.0920   29.3100 C.ar  282  A282        0.1692
   6106  C5         3.9860   44.6460   29.8480 C.ar  282  A282        0.1518
   6107  C6         4.0480   43.9970   31.0890 C.ar  282  A282        0.1919
   6108  N6         2.9740   43.5530   31.7480 N.pl3 282  A282       -0.1054
   6109  N7         2.9210   45.0180   29.0450 N.ar  282  A282       -0.2193
   6110  C8         3.4930   45.6220   28.0260 C.ar  282  A282        0.1816
   6111  N9         4.8580   45.6880   28.1200 N.ar  282  A282       -0.2693
   6112  OP1        1.4350   46.1540   22.4190 O.2   282  A282       -0.5172
   6113  OP2        0.5540   45.3730   24.7740 O.co2 282  A282       -0.4373
   6114  P          6.2980   43.3920   23.6440 P.3   283  A283        0.2141
   6115  C5'        8.6850   42.7350   24.5240 C.3   283  A283        0.1812
   6116  O5'        7.2630   42.8770   24.8100 O.3   283  A283       -0.3114
   6117  C4'        9.4270   42.4260   25.7960 C.3   283  A283        0.1773
   6118  O4'        8.7500   43.0960   26.8910 O.3   283  A283       -0.3307
   6119  C3'        9.4100   40.9710   26.2280 C.3   283  A283        0.1860
   6120  O3'       10.4730   40.2730   25.6210 O.3   283  A283       -0.3112
   6121  C2'        9.7020   41.1000   27.7110 C.3   283  A283        0.2309
   6122  O2'       11.0830   41.2900   27.8330 O.3   283  A283       -0.2156
   6123  C1'        8.9050   42.3540   28.0890 C.3   283  A283        0.2408
   6124  N1         6.0540   40.4510   31.9370 N.ar  283  A283       -0.2040
   6125  C2         7.3450   40.7880   31.8700 C.ar  283  A283        0.2016
   6126  N3         8.0300   41.2880   30.8500 N.ar  283  A283       -0.2048
   6127  C4         7.2300   41.4720   29.7910 C.ar  283  A283        0.1692
   6128  C5         5.8840   41.1820   29.7120 C.ar  283  A283        0.1518
   6129  C6         5.2860   40.6230   30.8400 C.ar  283  A283        0.1919
   6130  N6         3.9890   40.3060   30.9060 N.pl3 283  A283       -0.1054
   6131  N7         5.3900   41.4830   28.4570 N.ar  283  A283       -0.2193
   6132  C8         6.4430   41.8990   27.7950 C.ar  283  A283        0.1816
   6133  N9         7.5770   41.9760   28.5620 N.ar  283  A283       -0.2693
   6134  OP1        6.9150   43.2840   22.2780 O.2   283  A283       -0.5172
   6135  OP2        4.9570   42.8170   23.9860 O.co2 283  A283       -0.4373
   6136  P         10.2540   38.8400   24.8650 P.3   284  G284        0.2141
   6137  C5'       11.0250   38.0900   27.2840 C.3   284  G284        0.1812
   6138  O5'       10.0990   37.9900   26.2070 O.3   284  G284       -0.3114
   6139  C4'       10.3920   37.4900   28.5160 C.3   284  G284        0.1773
   6140  O4'        9.4130   38.4170   29.0690 O.3   284  G284       -0.3307
   6141  C3'        9.6120   36.1870   28.3570 C.3   284  G284        0.1860
   6142  O3'       10.4020   35.0110   28.4880 O.3   284  G284       -0.3112
   6143  C2'        8.7760   36.2000   29.6240 C.3   284  G284        0.2309
   6144  O2'        9.4830   35.8820   30.8030 O.3   284  G284       -0.2156
   6145  C1'        8.3870   37.6800   29.7210 C.3   284  G284        0.2408
   6146  N1         3.3440   37.3050   30.0420 N.ar  284  G284       -0.1709
   6147  C2         4.2970   37.0710   30.9980 C.ar  284  G284        0.2606
   6148  N2         3.8530   36.7080   32.1950 N.pl3 284  G284       -0.0859
   6149  N3         5.5920   37.2200   30.8000 N.ar  284  G284       -0.1918
   6150  C4         5.8660   37.6450   29.5490 C.ar  284  G284        0.1723
   6151  C5         4.9940   37.8850   28.5170 C.ar  284  G284        0.1748
   6152  C6         3.6050   37.7330   28.7470 C.ar  284  G284        0.3023
   6153  O6         2.6740   37.9110   27.9590 O.2   284  G284       -0.2633
   6154  N7         5.6800   38.2500   27.3690 N.ar  284  G284       -0.2173
   6155  C8         6.9360   38.2040   27.7130 C.ar  284  G284        0.1817
   6156  N9         7.1160   37.8990   29.0360 N.ar  284  G284       -0.2693
   6157  OP1       11.4870   38.5440   24.0570 O.2   284  G284       -0.5172
   6158  OP2        8.9490   38.6280   24.1530 O.co2 284  G284       -0.4373
   6159  P         10.2440   33.8080   27.4340 P.3   285  U285        0.2141
   6160  C5'        9.6040   31.8020   29.0040 C.3   285  U285        0.1812
   6161  O5'        9.2050   32.9800   28.3070 O.3   285  U285       -0.3114
   6162  C4'        9.6360   32.0810   30.4770 C.3   285  U285        0.1773
   6163  O4'        8.6160   33.0570   30.7890 O.3   285  U285       -0.3307
   6164  C3'        9.3770   30.8950   31.3920 C.3   285  U285        0.1860
   6165  O3'       10.0440   31.2080   32.6090 O.3   285  U285       -0.3112
   6166  C2'        7.8830   31.0100   31.6610 C.3   285  U285        0.2309
   6167  O2'        7.4330   30.3850   32.8580 O.3   285  U285       -0.2156
   6168  C1'        7.7120   32.5260   31.7270 C.3   285  U285        0.2420
   6169  N1         6.3620   32.9610   31.3530 N.ar  285  U285       -0.2534
   6170  C2         5.4610   33.1250   32.3780 C.ar  285  U285        0.3546
   6171  O2         5.7530   32.9310   33.5420 O.2   285  U285       -0.2443
   6172  N3         4.2030   33.5120   31.9900 N.ar  285  U285       -0.1530
   6173  C4         3.7650   33.7570   30.7100 C.ar  285  U285        0.2846
   6174  O4         2.5980   34.0950   30.5270 O.2   285  U285       -0.2650
   6175  C5         4.7550   33.5610   29.6940 C.ar  285  U285        0.0814
   6176  C6         5.9860   33.1600   30.0420 C.ar  285  U285        0.0870
   6177  OP1       11.5550   33.1270   27.1650 O.3   285  U285       -0.4373
   6178  OP2        9.4490   34.2740   26.2690 O.co2 285  U285       -0.5172
   6179  P         11.5350   30.7200   32.9360 P.3   286  C286        0.2141
   6180  C5'       10.1940   28.8870   34.2710 C.3   286  C286        0.1812
   6181  O5'       11.2150   29.2090   33.3200 O.3   286  C286       -0.3114
   6182  C4'        9.5470   27.6100   33.8400 C.3   286  C286        0.1773
   6183  O4'        8.7180   27.8910   32.6880 O.3   286  C286       -0.3307
   6184  C3'       10.5450   26.5470   33.3920 C.3   286  C286        0.1860
   6185  O3'       10.1690   25.2280   33.7760 O.3   286  C286       -0.3112
   6186  C2'       10.4420   26.5810   31.8820 C.3   286  C286        0.2309
   6187  O2'       10.6530   25.2400   31.5080 O.3   286  C286       -0.2156
   6188  C1'        8.9710   26.9320   31.7000 C.3   286  C286        0.2420
   6189  N1         8.6540   27.5330   30.4080 N.ar  286  C286       -0.2535
   6190  C2         7.3600   27.9780   30.1820 C.ar  286  C286        0.3532
   6191  O2         6.5220   27.8500   31.0830 O.2   286  C286       -0.2443
   6192  N3         7.0500   28.5330   28.9880 N.ar  286  C286       -0.1739
   6193  C4         7.9870   28.6480   28.0440 C.ar  286  C286        0.1759
   6194  N4         7.6460   29.2060   26.8830 N.pl3 286  C286       -0.1070
   6195  C5         9.3150   28.1930   28.2470 C.ar  286  C286        0.0566
   6196  C6         9.6030   27.6470   29.4330 C.ar  286  C286        0.0850
   6197  OP1       12.0130   31.5070   34.1080 O.3   286  C286       -0.4373
   6198  OP2       12.3580   30.6160   31.7060 O.co2 286  C286       -0.5172
   6199  P         11.2790   24.3710   34.5310 P.3   287  A287        0.2141
   6200  C5'       11.1360   21.9080   33.4420 C.3   287  A287        0.1812
   6201  O5'       10.6950   22.8840   34.4340 O.3   287  A287       -0.3114
   6202  C4'       12.1710   20.9400   34.0010 C.3   287  A287        0.1773
   6203  O4'       13.5110   21.3660   33.6170 O.3   287  A287       -0.3307
   6204  C3'       12.2870   20.8030   35.5180 C.3   287  A287        0.1860
   6205  O3'       11.2170   20.1140   36.1600 O.3   287  A287       -0.3112
   6206  C2'       13.6720   20.1700   35.6600 C.3   287  A287        0.2309
   6207  O2'       13.8270   18.7980   35.3350 O.3   287  A287       -0.2156
   6208  C1'       14.4500   20.9610   34.6110 C.3   287  A287        0.2408
   6209  N1        18.5360   22.8730   37.1100 N.ar  287  A287       -0.2040
   6210  C2        18.2000   21.6240   36.7660 C.ar  287  A287        0.2016
   6211  N3        17.1170   21.1870   36.1250 N.ar  287  A287       -0.2048
   6212  C4        16.3050   22.2130   35.8140 C.ar  287  A287        0.1692
   6213  C5        16.5030   23.5460   36.1160 C.ar  287  A287        0.1518
   6214  C6        17.6890   23.8780   36.7990 C.ar  287  A287        0.1919
   6215  N6        18.0200   25.1250   37.1520 N.pl3 287  A287       -0.1054
   6216  N7        15.4450   24.3130   35.6560 N.ar  287  A287       -0.2193
   6217  C8        14.6500   23.4450   35.0850 C.ar  287  A287        0.1816
   6218  N9        15.1050   22.1560   35.1460 N.ar  287  A287       -0.2693
   6219  OP1       11.2330   24.8720   35.9560 O.3   287  A287       -0.4373
   6220  OP2       12.5260   24.5290   33.7040 O.co2 287  A287       -0.5172
   6221  P         11.0370   20.3300   37.7430 P.3   288  G288        0.2141
   6222  C5'       12.8560   19.7740   39.6620 C.3   288  G288        0.1812
   6223  O5'       12.3550   19.6370   38.3160 O.3   288  G288       -0.3114
   6224  C4'       12.8890   18.4310   40.3680 C.3   288  G288        0.1773
   6225  O4'       13.7450   17.4880   39.6890 O.3   288  G288       -0.3307
   6226  C3'       13.4550   18.4690   41.7640 C.3   288  G288        0.1860
   6227  O3'       12.3310   18.6640   42.5940 O.3   288  G288       -0.3112
   6228  C2'       13.8540   17.0260   42.0090 C.3   288  G288        0.2309
   6229  O2'       12.7690   16.2840   42.5100 O.3   288  G288       -0.2156
   6230  C1'       14.2390   16.5550   40.6150 C.3   288  G288        0.2408
   6231  N1        18.3110   13.5820   41.0810 N.ar  288  G288       -0.1709
   6232  C2        16.9960   13.3160   41.3670 C.ar  288  G288        0.2606
   6233  N2        16.7260   12.0970   41.8360 N.pl3 288  G288       -0.0859
   6234  N3        16.0130   14.1770   41.1870 N.ar  288  G288       -0.1918
   6235  C4        16.4580   15.3660   40.7330 C.ar  288  G288        0.1723
   6236  C5        17.7440   15.7340   40.4080 C.ar  288  G288        0.1748
   6237  C6        18.7890   14.7840   40.5700 C.ar  288  G288        0.3023
   6238  O6        19.9930   14.9090   40.3150 O.2   288  G288       -0.2633
   6239  N7        17.7770   17.0380   39.9300 N.ar  288  G288       -0.2173
   6240  C8        16.5350   17.4340   39.9890 C.ar  288  G288        0.1817
   6241  N9        15.6810   16.4610   40.4460 N.ar  288  G288       -0.2693
   6242  OP1        9.8660   19.4490   38.0960 O.3   288  G288       -0.4373
   6243  OP2       11.0780   21.7940   38.0910 O.co2 288  G288       -0.5172
   6244  P         12.3730   19.8740   43.5980 P.3   289  C289        0.2141
   6245  C5'       12.7560   18.0430   45.4040 C.3   289  C289        0.1812
   6246  O5'       13.0490   19.3430   44.9320 O.3   289  C289       -0.3114
   6247  C4'       14.0080   17.4730   45.9990 C.3   289  C289        0.1773
   6248  O4'       15.0000   17.2360   44.9640 O.3   289  C289       -0.3307
   6249  C3'       14.6830   18.3270   47.0750 C.3   289  C289        0.1860
   6250  O3'       14.8680   17.5010   48.2210 O.3   289  C289       -0.3112
   6251  C2'       15.9940   18.7490   46.4160 C.3   289  C289        0.2309
   6252  O2'       17.1180   18.8390   47.2640 O.3   289  C289       -0.2156
   6253  C1'       16.2590   17.5750   45.4850 C.3   289  C289        0.2420
   6254  N1        17.1510   17.9470   44.3930 N.ar  289  C289       -0.2535
   6255  C2        18.1130   17.0340   43.9780 C.ar  289  C289        0.3532
   6256  O2        18.1430   15.9220   44.5090 O.2   289  C289       -0.2443
   6257  N3        18.9690   17.3750   42.9930 N.ar  289  C289       -0.1739
   6258  C4        18.9010   18.5840   42.4450 C.ar  289  C289        0.1759
   6259  N4        19.7810   18.8860   41.4990 N.pl3 289  C289       -0.1070
   6260  C5        17.9350   19.5430   42.8550 C.ar  289  C289        0.0566
   6261  C6        17.0910   19.1890   43.8300 C.ar  289  C289        0.0850
   6262  OP1       10.9310   20.0900   43.8770 O.3   289  C289       -0.4373
   6263  OP2       13.2670   20.9590   43.0860 O.co2 289  C289       -0.5172
   6264  P         15.4610   17.8500   49.6660 P.3   290  A290        0.2141
   6265  C5'       13.4390   16.3510   50.3830 C.3   290  A290        0.1812
   6266  O5'       14.1430   17.5790   50.5170 O.3   290  A290       -0.3114
   6267  C4'       12.1320   16.4520   51.0970 C.3   290  A290        0.1773
   6268  O4'       12.3550   17.0060   52.4160 O.3   290  A290       -0.3307
   6269  C3'       11.1570   17.4070   50.4420 C.3   290  A290        0.1860
   6270  O3'       10.6130   16.6470   49.3760 O.3   290  A290       -0.3112
   6271  C2'       10.2870   17.8370   51.6260 C.3   290  A290        0.2309
   6272  O2'        9.2770   16.9440   52.0540 O.3   290  A290       -0.2156
   6273  C1'       11.3270   17.9230   52.7440 C.3   290  A290        0.2408
   6274  N1        11.1370   22.6370   54.8410 N.ar  290  A290       -0.2040
   6275  C2        10.3460   21.5650   54.9820 C.ar  290  A290        0.2016
   6276  N3        10.4410   20.3670   54.4100 N.ar  290  A290       -0.2048
   6277  C4        11.5180   20.3090   53.6080 C.ar  290  A290        0.1692
   6278  C5        12.4310   21.3200   53.3740 C.ar  290  A290        0.1518
   6279  C6        12.2080   22.5460   54.0250 C.ar  290  A290        0.1919
   6280  N6        13.0050   23.6080   53.8940 N.pl3 290  A290       -0.1054
   6281  N7        13.4140   20.8980   52.4910 N.ar  290  A290       -0.2193
   6282  C8        13.0840   19.6600   52.2230 C.ar  290  A290        0.1816
   6283  N9        11.9420   19.2410   52.8560 N.ar  290  A290       -0.2693
   6284  OP1       15.8060   19.3030   49.8810 O.2   290  A290       -0.5172
   6285  OP2       16.4100   16.7690   50.0730 O.co2 290  A290       -0.4373
   6286  P          9.7270   17.3270   48.2510 P.3   291  G291        0.2141
   6287  C5'        7.4400   16.2700   49.0430 C.3   291  G291        0.1812
   6288  O5'        8.3700   17.3550   49.0730 O.3   291  G291       -0.3114
   6289  C4'        6.0780   16.8670   49.2690 C.3   291  G291        0.1773
   6290  O4'        6.1230   17.6910   50.4700 O.3   291  G291       -0.3307
   6291  C3'        5.6260   17.7520   48.1120 C.3   291  G291        0.1860
   6292  O3'        4.4980   17.2630   47.3810 O.3   291  G291       -0.3112
   6293  C2'        5.6540   19.1770   48.6660 C.3   291  G291        0.2309
   6294  O2'        4.5850   19.9550   48.1750 O.3   291  G291       -0.2156
   6295  C1'        5.6570   18.9850   50.1880 C.3   291  G291        0.2408
   6296  N1         6.5690   21.8580   54.3020 N.ar  291  G291       -0.1709
   6297  C2         5.5600   20.9560   54.0870 C.ar  291  G291        0.2606
   6298  N2         4.6770   20.8170   55.0830 N.pl3 291  G291       -0.0859
   6299  N3         5.4240   20.2470   52.9740 N.ar  291  G291       -0.1918
   6300  C4         6.4030   20.5170   52.0830 C.ar  291  G291        0.1723
   6301  C5         7.4620   21.3920   52.2090 C.ar  291  G291        0.1748
   6302  C6         7.5940   22.1400   53.4050 C.ar  291  G291        0.3023
   6303  O6         8.4670   22.9550   53.7100 O.2   291  G291       -0.2633
   6304  N7         8.2510   21.3780   51.0680 N.ar  291  G291       -0.2173
   6305  C8         7.6700   20.5120   50.2830 C.ar  291  G291        0.1817
   6306  N9         6.5490   19.9430   50.8390 N.ar  291  G291       -0.2693
   6307  OP1        9.5820   16.3350   47.1530 O.2   291  G291       -0.5172
   6308  OP2       10.0960   18.7610   47.9750 O.co2 291  G291       -0.4373
   6309  P          2.9300   17.5430   47.5310 P.3   292  A292        0.2141
   6310  C5'        1.4870   15.3640   47.8670 C.3   292  A292        0.1812
   6311  O5'        2.3190   16.3860   48.4410 O.3   292  A292       -0.3114
   6312  C4'        0.3700   15.0050   48.8140 C.3   292  A292        0.1773
   6313  O4'        0.8680   15.0250   50.1820 O.3   292  A292       -0.3307
   6314  C3'       -0.8180   15.9580   48.8370 C.3   292  A292        0.1860
   6315  O3'       -1.7880   15.6730   47.8390 O.3   292  A292       -0.3112
   6316  C2'       -1.3870   15.6930   50.2190 C.3   292  A292        0.2309
   6317  O2'       -2.1040   14.4780   50.1950 O.3   292  A292       -0.2156
   6318  C1'       -0.1040   15.5980   51.0440 C.3   292  A292        0.2408
   6319  N1        -1.0620   19.7460   53.9220 N.ar  292  A292       -0.2040
   6320  C2        -1.7010   18.5750   53.7880 C.ar  292  A292        0.2016
   6321  N3        -1.3890   17.5260   53.0280 N.ar  292  A292       -0.2048
   6322  C4        -0.2640   17.7660   52.3300 C.ar  292  A292        0.1692
   6323  C5         0.5070   18.9150   52.3670 C.ar  292  A292        0.1518
   6324  C6         0.0670   19.9530   53.2060 C.ar  292  A292        0.1919
   6325  N6         0.7060   21.1170   53.3420 N.pl3 292  A292       -0.1054
   6326  N7         1.6010   18.8010   51.5210 N.ar  292  A292       -0.2193
   6327  C8         1.4640   17.6080   50.9940 C.ar  292  A292        0.1816
   6328  N9         0.3690   16.9190   51.4540 N.ar  292  A292       -0.2693
   6329  OP1        2.4080   17.3040   46.1700 O.2   292  A292       -0.5172
   6330  OP2        2.6700   18.8470   48.1840 O.co2 292  A292       -0.4373
   6331  P         -2.5010   16.9200   47.1260 P.3   293  A293        0.2141
   6332  C5'       -4.5490   16.4660   48.7040 C.3   293  A293        0.1812
   6333  O5'       -3.6740   17.4130   48.0830 O.3   293  A293       -0.3114
   6334  C4'       -5.2050   17.0720   49.9200 C.3   293  A293        0.1773
   6335  O4'       -4.2180   17.4910   50.9010 O.3   293  A293       -0.3307
   6336  C3'       -6.0040   18.3550   49.7170 C.3   293  A293        0.1860
   6337  O3'       -7.2070   18.2140   48.9740 O.3   293  A293       -0.3112
   6338  C2'       -6.1740   18.8190   51.1600 C.3   293  A293        0.2309
   6339  O2'       -7.1100   18.1240   51.9630 O.3   293  A293       -0.2156
   6340  C1'       -4.7810   18.5230   51.7140 C.3   293  A293        0.2408
   6341  N1        -3.6980   23.0810   53.8130 N.ar  293  A293       -0.2040
   6342  C2        -4.6040   22.1430   54.1130 C.ar  293  A293        0.2016
   6343  N3        -4.8300   20.9720   53.5240 N.ar  293  A293       -0.2048
   6344  C4        -3.9910   20.7920   52.4890 C.ar  293  A293        0.1692
   6345  C5        -3.0010   21.6580   52.0650 C.ar  293  A293        0.1518
   6346  C6        -2.8600   22.8620   52.7770 C.ar  293  A293        0.1919
   6347  N6        -1.9530   23.7960   52.4810 N.pl3 293  A293       -0.1054
   6348  N7        -2.3240   21.1330   50.9730 N.ar  293  A293       -0.2193
   6349  C8        -2.9110   19.9810   50.7640 C.ar  293  A293        0.1816
   6350  N9        -3.9190   19.7040   51.6520 N.ar  293  A293       -0.2693
   6351  OP1       -3.0730   16.3400   45.8810 O.2   293  A293       -0.5172
   6352  OP2       -1.5570   18.0660   47.0570 O.co2 293  A293       -0.4373
   6353  P         -7.4480   19.2650   47.8010 P.3   294  G294        0.2141
   6354  C5'       -8.5340   21.1400   49.3050 C.3   294  G294        0.1812
   6355  O5'       -7.3950   20.6670   48.5590 O.3   294  G294       -0.3114
   6356  C4'       -8.2260   22.4660   49.9610 C.3   294  G294        0.1773
   6357  O4'       -6.9550   22.3810   50.6540 O.3   294  G294       -0.3307
   6358  C3'       -8.0610   23.6530   49.0240 C.3   294  G294        0.1860
   6359  O3'       -9.3110   24.2390   48.6830 O.3   294  G294       -0.3112
   6360  C2'       -7.2030   24.6030   49.8480 C.3   294  G294        0.2309
   6361  O2'       -7.9110   25.3920   50.7650 O.3   294  G294       -0.2156
   6362  C1'       -6.2860   23.6280   50.5830 C.3   294  G294        0.2408
   6363  N1        -1.9760   25.7720   48.9870 N.ar  294  G294       -0.1709
   6364  C2        -2.9620   26.2920   49.7890 C.ar  294  G294        0.2606
   6365  N2        -2.7750   27.5460   50.2110 N.pl3 294  G294       -0.0859
   6366  N3        -4.0570   25.6330   50.1380 N.ar  294  G294       -0.1918
   6367  C4        -4.0750   24.3800   49.6280 C.ar  294  G294        0.1723
   6368  C5        -3.1360   23.7610   48.8280 C.ar  294  G294        0.1748
   6369  C6        -1.9770   24.4870   48.4470 C.ar  294  G294        0.3023
   6370  O6        -1.0380   24.1150   47.7350 O.2   294  G294       -0.2633
   6371  N7        -3.5300   22.4660   48.5170 N.ar  294  G294       -0.2173
   6372  C8        -4.6760   22.3220   49.1250 C.ar  294  G294        0.1817
   6373  N9        -5.0560   23.4370   49.8330 N.ar  294  G294       -0.2693
   6374  OP1       -8.8570   19.0570   47.3820 O.3   294  G294       -0.4373
   6375  OP2       -6.3350   19.1130   46.8100 O.co2 294  G294       -0.5172
   6376  P         -9.4830   24.7500   47.1780 P.3   295  U295        0.2141
   6377  C5'       -9.1550   27.0850   48.2630 C.3   295  U295        0.1812
   6378  O5'       -8.7490   26.1540   47.2660 O.3   295  U295       -0.3114
   6379  C4'       -8.0740   28.1040   48.4790 C.3   295  U295        0.1773
   6380  O4'       -6.7970   27.4590   48.7070 O.3   295  U295       -0.3307
   6381  C3'       -7.7720   28.9970   47.2950 C.3   295  U295        0.1860
   6382  O3'       -8.8070   29.9410   47.0930 O.3   295  U295       -0.3112
   6383  C2'       -6.4360   29.5830   47.7140 C.3   295  U295        0.2309
   6384  O2'       -6.5630   30.5760   48.7050 O.3   295  U295       -0.2156
   6385  C1'       -5.7630   28.3590   48.3370 C.3   295  U295        0.2420
   6386  N1        -4.8530   27.6800   47.4030 N.ar  295  U295       -0.2534
   6387  C2        -3.7170   28.3680   47.0120 C.ar  295  U295        0.3546
   6388  O2        -3.4540   29.4900   47.4110 O.2   295  U295       -0.2443
   6389  N3        -2.9030   27.6910   46.1360 N.ar  295  U295       -0.1530
   6390  C4        -3.0930   26.4220   45.6280 C.ar  295  U295        0.2846
   6391  O4        -2.2540   25.9430   44.8620 O.2   295  U295       -0.2650
   6392  C5        -4.2950   25.7750   46.0760 C.ar  295  U295        0.0814
   6393  C6        -5.1140   26.4110   46.9260 C.ar  295  U295        0.0870
   6394  OP1      -10.9350   24.9710   46.9070 O.3   295  U295       -0.4373
   6395  OP2       -8.6590   23.8960   46.2790 O.co2 295  U295       -0.5172
   6396  P         -9.3860   30.1110   45.6130 P.3   296  C296        0.2141
   6397  C5'       -8.1180   32.4020   45.7790 C.3   296  C296        0.1812
   6398  O5'       -8.3340   31.1720   45.0590 O.3   296  C296       -0.3114
   6399  C4'       -7.2400   33.3170   44.9670 C.3   296  C296        0.1773
   6400  O4'       -5.8600   32.9300   45.1710 O.3   296  C296       -0.3307
   6401  C3'       -7.4420   33.2370   43.4640 C.3   296  C296        0.1860
   6402  O3'       -8.5480   34.0290   43.0320 O.3   296  C296       -0.3112
   6403  C2'       -6.0850   33.6790   42.9240 C.3   296  C296        0.2309
   6404  O2'       -5.8870   35.0680   42.7810 O.3   296  C296       -0.2156
   6405  C1'       -5.1310   33.1170   43.9790 C.3   296  C296        0.2420
   6406  N1        -4.5580   31.8260   43.5970 N.ar  296  C296       -0.2535
   6407  C2        -3.2600   31.7870   43.0680 C.ar  296  C296        0.3532
   6408  O2        -2.6290   32.8460   42.9520 O.2   296  C296       -0.2443
   6409  N3        -2.7300   30.5980   42.6980 N.ar  296  C296       -0.1739
   6410  C4        -3.4390   29.4770   42.8520 C.ar  296  C296        0.1759
   6411  N4        -2.8750   28.3290   42.4860 N.pl3 296  C296       -0.1070
   6412  C5        -4.7640   29.4870   43.3800 C.ar  296  C296        0.0566
   6413  C6        -5.2820   30.6740   43.7320 C.ar  296  C296        0.0850
   6414  OP1      -10.7280   30.7630   45.7340 O.3   296  C296       -0.4373
   6415  OP2       -9.2430   28.8460   44.8470 O.co2 296  C296       -0.5172
   6416  P         -9.4430   33.3990   41.8560 P.3   297  A297        0.2141
   6417  C5'       -8.0630   34.9270   40.2090 C.3   297  A297        0.1812
   6418  O5'       -8.5090   33.6110   40.5870 O.3   297  A297       -0.3114
   6419  C4'       -7.1390   34.8300   39.0250 C.3   297  A297        0.1773
   6420  O4'       -5.8080   34.4640   39.4840 O.3   297  A297       -0.3307
   6421  C3'       -7.4510   33.7150   38.0330 C.3   297  A297        0.1860
   6422  O3'       -8.7170   33.6900   37.3930 O.3   297  A297       -0.3112
   6423  C2'       -6.1250   33.5940   37.3040 C.3   297  A297        0.2309
   6424  O2'       -5.7980   34.6830   36.4710 O.3   297  A297       -0.2156
   6425  C1'       -5.1860   33.6220   38.5080 C.3   297  A297        0.2408
   6426  N1        -3.0920   28.9390   38.0700 N.ar  297  A297       -0.2040
   6427  C2        -2.9460   30.0580   37.3480 C.ar  297  A297        0.2016
   6428  N3        -3.5220   31.2470   37.5100 N.ar  297  A297       -0.2048
   6429  C4        -4.3370   31.2360   38.5790 C.ar  297  A297        0.1692
   6430  C5        -4.5780   30.1700   39.4240 C.ar  297  A297        0.1518
   6431  C6        -3.9110   28.9660   39.1410 C.ar  297  A297        0.1919
   6432  N6        -4.0500   27.8560   39.8630 N.pl3 297  A297       -0.1054
   6433  N7        -5.4850   30.5240   40.4120 N.ar  297  A297       -0.2193
   6434  C8        -5.7580   31.7800   40.1540 C.ar  297  A297        0.1816
   6435  N9        -5.0820   32.2800   39.0710 N.ar  297  A297       -0.2693
   6436  OP1      -10.6390   34.2500   41.7040 O.2   297  A297       -0.5172
   6437  OP2       -9.5640   31.9230   41.9620 O.co2 297  A297       -0.4373
   6438  P         -9.1660   34.2090   35.9970 P.3   298  U298        0.2141
   6439  C5'       -7.6170   34.8400   33.9920 C.3   298  U298        0.1812
   6440  O5'       -8.1850   33.7950   34.8050 O.3   298  U298       -0.3114
   6441  C4'       -6.7220   34.2920   32.9130 C.3   298  U298        0.1773
   6442  O4'       -5.5040   33.7310   33.4760 O.3   298  U298       -0.3307
   6443  C3'       -7.3350   33.1820   32.0830 C.3   298  U298        0.1860
   6444  O3'       -8.1730   33.7430   31.0770 O.3   298  U298       -0.3112
   6445  C2'       -6.1050   32.4350   31.5670 C.3   298  U298        0.2309
   6446  O2'       -5.5740   32.8910   30.3420 O.3   298  U298       -0.2156
   6447  C1'       -5.1360   32.5780   32.7420 C.3   298  U298        0.2420
   6448  N1        -5.2120   31.4160   33.6320 N.ar  298  U298       -0.2534
   6449  C2        -4.1770   30.5100   33.5770 C.ar  298  U298        0.3546
   6450  O2        -3.2150   30.6540   32.8540 O.2   298  U298       -0.2443
   6451  N3        -4.3160   29.4220   34.3970 N.ar  298  U298       -0.1530
   6452  C4        -5.3540   29.1550   35.2590 C.ar  298  U298        0.2846
   6453  O4        -5.3220   28.1350   35.9480 O.2   298  U298       -0.2650
   6454  C5        -6.3950   30.1400   35.2550 C.ar  298  U298        0.0814
   6455  C6        -6.2940   31.2050   34.4540 C.ar  298  U298        0.0870
   6456  OP1       -9.0550   35.6560   36.2130 O.3   298  U298       -0.4373
   6457  OP2      -10.4970   33.6080   35.7970 O.co2 298  U298       -0.5172
   6458  P         -9.1920   32.7660   30.3420 P.3   299  A299        0.2141
   6459  C5'      -11.2640   31.7140   31.4430 C.3   299  A299        0.1812
   6460  O5'       -9.9070   32.0820   31.5830 O.3   299  A299       -0.3114
   6461  C4'      -11.6320   30.7610   32.5290 C.3   299  A299        0.1773
   6462  O4'      -10.8370   29.5650   32.3680 O.3   299  A299       -0.3307
   6463  C3'      -11.3550   31.2470   33.9460 C.3   299  A299        0.1860
   6464  O3'      -12.2610   30.5310   34.7710 O.3   299  A299       -0.3112
   6465  C2'       -9.9900   30.6580   34.2230 C.3   299  A299        0.2309
   6466  O2'       -9.7190   30.6040   35.6110 O.3   299  A299       -0.2156
   6467  C1'      -10.1690   29.2890   33.5730 C.3   299  A299        0.2408
   6468  N1        -7.0210   25.5140   34.9390 N.ar  299  A299       -0.2040
   6469  C2        -8.2300   25.8850   35.3740 C.ar  299  A299        0.2016
   6470  N3        -9.0030   26.8850   34.9560 N.ar  299  A299       -0.2048
   6471  C4        -8.4140   27.5490   33.9470 C.ar  299  A299        0.1692
   6472  C5        -7.1770   27.2860   33.3900 C.ar  299  A299        0.1518
   6473  C6        -6.4500   26.2170   33.9350 C.ar  299  A299        0.1919
   6474  N6        -5.2410   25.8510   33.5040 N.pl3 299  A299       -0.1054
   6475  N7        -6.8910   28.1910   32.3770 N.ar  299  A299       -0.2193
   6476  C8        -7.9450   28.9690   32.3460 C.ar  299  A299        0.1816
   6477  N9        -8.9070   28.6330   33.2670 N.ar  299  A299       -0.2693
   6478  OP1       -8.4540   31.7080   29.5830 O.2   299  A299       -0.5172
   6479  OP2      -10.1840   33.6270   29.6600 O.co2 299  A299       -0.4373
   6480  P        -13.6710   31.1790   35.1320 P.3   300  G300        0.2141
   6481  C5'      -14.8240   28.8530   34.8330 C.3   300  G300        0.1812
   6482  O5'      -14.7140   30.2130   34.4200 O.3   300  G300       -0.3114
   6483  C4'      -14.3280   27.9630   33.7290 C.3   300  G300        0.1773
   6484  O4'      -13.6400   26.8350   34.3260 O.3   300  G300       -0.3307
   6485  C3'      -15.4200   27.3810   32.8320 C.3   300  G300        0.1860
   6486  O3'      -14.9870   27.3990   31.4740 O.3   300  G300       -0.3112
   6487  C2'      -15.6260   25.9910   33.4180 C.3   300  G300        0.2309
   6488  O2'      -16.1370   25.0970   32.4600 O.3   300  G300       -0.2156
   6489  C1'      -14.2000   25.6370   33.8300 C.3   300  G300        0.2408
   6490  N1       -11.4140   21.7910   35.5940 N.ar  300  G300       -0.1709
   6491  C2       -11.1850   22.6180   34.5220 C.ar  300  G300        0.2606
   6492  N2       -10.0640   22.3840   33.8200 N.pl3 300  G300       -0.0859
   6493  N3       -11.9970   23.5950   34.1570 N.ar  300  G300       -0.1918
   6494  C4       -13.0710   23.6890   34.9700 C.ar  300  G300        0.1723
   6495  C5       -13.3930   22.9150   36.0650 C.ar  300  G300        0.1748
   6496  C6       -12.5140   21.8660   36.4430 C.ar  300  G300        0.3023
   6497  O6       -12.6240   21.0650   37.3800 O.2   300  G300       -0.2633
   6498  N7       -14.5890   23.3380   36.6330 N.ar  300  G300       -0.2173
   6499  C8       -14.9650   24.3400   35.8850 C.ar  300  G300        0.1817
   6500  N9       -14.0900   24.6040   34.8570 N.ar  300  G300       -0.2693
   6501  OP1      -13.7520   32.4830   34.4060 O.2   300  G300       -0.5172
   6502  OP2      -13.8430   31.1460   36.6160 O.co2 300  G300       -0.4373
   6503  P        -15.4210   26.4590   30.2380 P.3   301  U301        0.2141
   6504  C5'      -14.7900   28.7010   29.0210 C.3   301  U301        0.1812
   6505  O5'      -14.7620   27.2530   29.0180 O.3   301  U301       -0.3114
   6506  C4'      -13.5300   29.3040   28.4330 C.3   301  U301        0.1773
   6507  O4'      -12.5240   29.5120   29.4610 O.3   301  U301       -0.3307
   6508  C3'      -12.8300   28.4750   27.3770 C.3   301  U301        0.1860
   6509  O3'      -13.4250   28.7360   26.1190 O.3   301  U301       -0.3112
   6510  C2'      -11.4080   29.0100   27.4370 C.3   301  U301        0.2309
   6511  O2'      -11.3120   30.2460   26.7690 O.3   301  U301       -0.2156
   6512  C1'      -11.2360   29.2430   28.9370 C.3   301  U301        0.2420
   6513  N1       -10.6620   28.1110   29.6820 N.ar  301  U301       -0.2534
   6514  C2        -9.4640   27.5660   29.2510 C.ar  301  U301        0.3546
   6515  O2        -8.8800   27.9490   28.2550 O.2   301  U301       -0.2443
   6516  N3        -8.9910   26.5360   30.0210 N.ar  301  U301       -0.1530
   6517  C4        -9.5690   26.0060   31.1540 C.ar  301  U301        0.2846
   6518  O4        -9.0220   25.0670   31.7340 O.2   301  U301       -0.2650
   6519  C5       -10.8020   26.6220   31.5340 C.ar  301  U301        0.0814
   6520  C6       -11.2970   27.6230   30.7990 C.ar  301  U301        0.0870
   6521  OP1      -16.8990   26.5210   30.2110 O.2   301  U301       -0.5172
   6522  OP2      -14.7510   25.1410   30.3490 O.co2 301  U301       -0.4373
   6523  P        -13.4940   27.4370   25.2110 P.3   302  A302        0.2141
   6524  C5'      -11.2790   28.0470   23.9690 C.3   302  A302        0.1812
   6525  O5'      -11.9510   27.2030   24.9130 O.3   302  A302       -0.3114
   6526  C4'       -9.8860   27.5340   23.7540 C.3   302  A302        0.1773
   6527  O4'       -9.1850   27.4850   25.0230 O.3   302  A302       -0.3307
   6528  C3'       -9.8160   26.1030   23.2520 C.3   302  A302        0.1860
   6529  O3'      -10.0100   26.1720   21.8520 O.3   302  A302       -0.3112
   6530  C2'       -8.4170   25.6950   23.6820 C.3   302  A302        0.2309
   6531  O2'       -7.3970   26.2590   22.8970 O.3   302  A302       -0.2156
   6532  C1'       -8.3230   26.3660   25.0440 C.3   302  A302        0.2408
   6533  N1        -6.9920   22.5700   28.2160 N.ar  302  A302       -0.2040
   6534  C2        -6.3170   23.2210   27.2570 C.ar  302  A302        0.2016
   6535  N3        -6.7230   24.2110   26.4630 N.ar  302  A302       -0.2048
   6536  C4        -8.0050   24.5220   26.7200 C.ar  302  A302        0.1692
   6537  C5        -8.8310   23.9310   27.6570 C.ar  302  A302        0.1518
   6538  C6        -8.2800   22.9020   28.4340 C.ar  302  A302        0.1919
   6539  N6        -8.9540   22.2530   29.3790 N.pl3 302  A302       -0.1054
   6540  N7       -10.0870   24.5170   27.6420 N.ar  302  A302       -0.2193
   6541  C8        -9.9960   25.4290   26.7050 C.ar  302  A302        0.1816
   6542  N9        -8.7650   25.4870   26.1080 N.ar  302  A302       -0.2693
   6543  OP1      -14.0570   27.8780   23.9130 O.2   302  A302       -0.5172
   6544  OP2      -14.1300   26.3160   25.9830 O.co2 302  A302       -0.4373
   6545  P        -10.4730   24.8530   21.1110 P.3   303  C303        0.2141
   6546  C5'       -9.0490   22.6610   21.0060 C.3   303  C303        0.1812
   6547  O5'       -9.1110   24.0600   21.2690 O.3   303  C303       -0.3114
   6548  C4'       -8.4940   21.9610   22.2090 C.3   303  C303        0.1773
   6549  O4'       -8.8330   22.6970   23.4070 O.3   303  C303       -0.3307
   6550  C3'       -9.1010   20.6050   22.4750 C.3   303  C303        0.1860
   6551  O3'       -8.5590   19.7130   21.5060 O.3   303  C303       -0.3112
   6552  C2'       -8.7230   20.3940   23.9330 C.3   303  C303        0.2309
   6553  O2'       -7.3560   20.1330   24.1160 O.3   303  C303       -0.2156
   6554  C1'       -8.9190   21.8000   24.4940 C.3   303  C303        0.2420
   6555  N1       -10.2270   21.9570   25.1160 N.ar  303  C303       -0.2535
   6556  C2       -10.5010   21.2250   26.2720 C.ar  303  C303        0.3532
   6557  O2        -9.6220   20.4820   26.7310 O.2   303  C303       -0.2443
   6558  N3       -11.7150   21.3410   26.8580 N.ar  303  C303       -0.1739
   6559  C4       -12.6350   22.1490   26.3270 C.ar  303  C303        0.1759
   6560  N4       -13.8170   22.2360   26.9400 N.pl3 303  C303       -0.1070
   6561  C5       -12.3830   22.9050   25.1430 C.ar  303  C303        0.0566
   6562  C6       -11.1760   22.7800   24.5760 C.ar  303  C303        0.0850
   6563  OP1      -10.6250   25.1050   19.6530 O.2   303  C303       -0.5172
   6564  OP2      -11.5170   24.1480   21.9080 O.co2 303  C303       -0.4373
   6565  P         -9.5330   18.9850   20.4440 P.3   304  C304        0.2141
   6566  C5'       -8.7810   17.1100   22.1240 C.3   304  C304        0.1812
   6567  O5'       -9.8640   17.7760   21.4300 O.3   304  C304       -0.3114
   6568  C4'       -9.2900   16.2960   23.2900 C.3   304  C304        0.1773
   6569  O4'       -9.7230   17.1540   24.3760 O.3   304  C304       -0.3307
   6570  C3'      -10.5200   15.4410   23.0560 C.3   304  C304        0.1860
   6571  O3'      -10.2510   14.3150   22.2320 O.3   304  C304       -0.3112
   6572  C2'      -10.8930   15.1030   24.4900 C.3   304  C304        0.2309
   6573  O2'       -9.9560   14.2500   25.1060 O.3   304  C304       -0.2156
   6574  C1'      -10.6810   16.4590   25.1620 C.3   304  C304        0.2420
   6575  N1       -11.9150   17.2590   25.2300 N.ar  304  C304       -0.2535
   6576  C2       -12.8560   16.9530   26.2190 C.ar  304  C304        0.3532
   6577  O2       -12.6150   16.0270   27.0110 O.2   304  C304       -0.2443
   6578  N3       -13.9930   17.6880   26.3010 N.ar  304  C304       -0.1739
   6579  C4       -14.2100   18.6810   25.4340 C.ar  304  C304        0.1759
   6580  N4       -15.3480   19.3640   25.5420 N.pl3 304  C304       -0.1070
   6581  C5       -13.2720   19.0080   24.4110 C.ar  304  C304        0.0566
   6582  C6       -12.1480   18.2780   24.3460 C.ar  304  C304        0.0850
   6583  OP1       -8.6980   18.5460   19.2740 O.2   304  C304       -0.5172
   6584  OP2      -10.7580   19.8040   20.2290 O.co2 304  C304       -0.4373
   6585  P        -11.2320   13.8650   21.0350 P.3   305  C305        0.2141
   6586  C5'      -11.9200   11.8920   22.6690 C.3   305  C305        0.1812
   6587  O5'      -12.3130   13.0630   21.9020 O.3   305  C305       -0.3114
   6588  C4'      -13.0780   11.2420   23.4060 C.3   305  C305        0.1773
   6589  O4'      -13.4320   12.0210   24.5840 O.3   305  C305       -0.3307
   6590  C3'      -14.4060   11.0950   22.6760 C.3   305  C305        0.1860
   6591  O3'      -14.5450   10.0230   21.7560 O.3   305  C305       -0.3112
   6592  C2'      -15.3600   10.8720   23.8400 C.3   305  C305        0.2309
   6593  O2'      -15.3180    9.5610   24.3570 O.3   305  C305       -0.2156
   6594  C1'      -14.8210   11.8800   24.8480 C.3   305  C305        0.2420
   6595  N1       -15.4710   13.1840   24.6740 N.ar  305  C305       -0.2535
   6596  C2       -16.4620   13.5630   25.5850 C.ar  305  C305        0.3532
   6597  O2       -16.7260   12.8060   26.5320 O.2   305  C305       -0.2443
   6598  N3       -17.0860   14.7530   25.4250 N.ar  305  C305       -0.1739
   6599  C4       -16.7680   15.5400   24.3940 C.ar  305  C305        0.1759
   6600  N4       -17.4060   16.7070   24.2780 N.pl3 305  C305       -0.1070
   6601  C5       -15.7790   15.1660   23.4370 C.ar  305  C305        0.0566
   6602  C6       -15.1690   13.9860   23.6080 C.ar  305  C305        0.0850
   6603  OP1      -10.3700   12.9010   20.2910 O.2   305  C305       -0.5172
   6604  OP2      -11.8420   15.0190   20.2920 O.co2 305  C305       -0.4373
   6605  P        -15.7170   10.2220   20.6820 P.3   306  U306        0.2141
   6606  C5'      -17.5440    8.7300   21.9590 C.3   306  U306        0.1812
   6607  O5'      -17.0920   10.0130   21.4680 O.3   306  U306       -0.3114
   6608  C4'      -18.8540    8.8800   22.7110 C.3   306  U306        0.1773
   6609  O4'      -18.7170    9.9100   23.7390 O.3   306  U306       -0.3307
   6610  C3'      -20.0510    9.3360   21.8850 C.3   306  U306        0.1860
   6611  O3'      -20.7180    8.3430   21.1210 O.3   306  U306       -0.3112
   6612  C2'      -20.9310    9.9890   22.9420 C.3   306  U306        0.2309
   6613  O2'      -21.6610    9.0810   23.7420 O.3   306  U306       -0.2156
   6614  C1'      -19.8760   10.7400   23.7520 C.3   306  U306        0.2420
   6615  N1       -19.5310   12.0420   23.1520 N.ar  306  U306       -0.2534
   6616  C2       -20.4000   13.1030   23.3500 C.ar  306  U306        0.3546
   6617  O2       -21.4230   13.0100   24.0090 O.2   306  U306       -0.2443
   6618  N3       -20.0220   14.2770   22.7470 N.ar  306  U306       -0.1530
   6619  C4       -18.8960   14.5000   21.9790 C.ar  306  U306        0.2846
   6620  O4       -18.6940   15.6200   21.5070 O.2   306  U306       -0.2650
   6621  C5       -18.0550   13.3550   21.8110 C.ar  306  U306        0.0814
   6622  C6       -18.3910   12.1960   22.3910 C.ar  306  U306        0.0870
   6623  OP1      -15.5060    9.1560   19.6740 O.2   306  U306       -0.5172
   6624  OP2      -15.7180   11.6490   20.2440 O.co2 306  U306       -0.4373
   6625  P        -21.2500    8.8510   19.6930 P.3   307  G307        0.2141
   6626  C5'      -23.6890    9.8560   19.4200 C.3   307  G307        0.1812
   6627  O5'      -22.8300    8.8090   19.9030 O.3   307  G307       -0.3114
   6628  C4'      -24.6420   10.2640   20.5130 C.3   307  G307        0.1773
   6629  O4'      -23.8790   10.6210   21.7060 O.3   307  G307       -0.3307
   6630  C3'      -25.4880   11.4950   20.2120 C.3   307  G307        0.1860
   6631  O3'      -26.7080   11.2310   19.5360 O.3   307  G307       -0.3112
   6632  C2'      -25.6040   12.1340   21.5870 C.3   307  G307        0.2309
   6633  O2'      -26.4710   11.4390   22.4560 O.3   307  G307       -0.2156
   6634  C1'      -24.1720   11.9570   22.0690 C.3   307  G307        0.2408
   6635  N1       -23.4420   16.5370   19.9870 N.ar  307  G307       -0.1709
   6636  C2       -24.5240   16.0630   20.6860 C.ar  307  G307        0.2606
   6637  N2       -25.5430   16.9170   20.8480 N.pl3 307  G307       -0.0859
   6638  N3       -24.6000   14.8420   21.1910 N.ar  307  G307       -0.1918
   6639  C4       -23.4870   14.1210   20.9360 C.ar  307  G307        0.1723
   6640  C5       -22.3540   14.5010   20.2480 C.ar  307  G307        0.1748
   6641  C6       -22.2860   15.8140   19.7140 C.ar  307  G307        0.3023
   6642  O6       -21.3690   16.3400   19.0740 O.2   307  G307       -0.2633
   6643  N7       -21.4320   13.4650   20.2050 N.ar  307  G307       -0.2173
   6644  C8       -22.0120   12.4890   20.8500 C.ar  307  G307        0.1817
   6645  N9       -23.2530   12.8260   21.3360 N.ar  307  G307       -0.2693
   6646  OP1      -20.8710    7.8110   18.7000 O.2   307  G307       -0.5172
   6647  OP2      -20.8290   10.2620   19.4670 O.co2 307  G307       -0.4373
   6648  P        -26.8970   12.0990   18.2040 P.3   308  U308        0.2141
   6649  C5'      -28.0660   14.4710   18.3740 C.3   308  U308        0.1812
   6650  O5'      -27.0100   13.5810   18.7840 O.3   308  U308       -0.3114
   6651  C4'      -27.6000   15.3680   17.2470 C.3   308  U308        0.1773
   6652  O4'      -26.1650   15.5310   17.2980 O.3   308  U308       -0.3307
   6653  C3'      -27.9000   14.8800   15.8280 C.3   308  U308        0.1860
   6654  O3'      -29.0700   15.5240   15.3130 O.3   308  U308       -0.3112
   6655  C2'      -26.6040   15.1400   15.0340 C.3   308  U308        0.2309
   6656  O2'      -26.7690   15.9030   13.8570 O.3   308  U308       -0.2156
   6657  C1'      -25.7290   15.9190   16.0220 C.3   308  U308        0.2420
   6658  N1       -24.2920   15.6290   15.9040 N.ar  308  U308       -0.2534
   6659  C2       -23.4160   16.7000   15.8990 C.ar  308  U308        0.3546
   6660  O2       -23.7840   17.8590   15.9970 O.2   308  U308       -0.2443
   6661  N3       -22.0910   16.3590   15.7780 N.ar  308  U308       -0.1530
   6662  C4       -21.5590   15.0900   15.6620 C.ar  308  U308        0.2846
   6663  O4       -20.3390   14.9500   15.5650 O.2   308  U308       -0.2650
   6664  C5       -22.5300   14.0370   15.6710 C.ar  308  U308        0.0814
   6665  C6       -23.8310   14.3350   15.7880 C.ar  308  U308        0.0870
   6666  OP1      -28.2030   11.7300   17.5990 O.3   308  U308       -0.4373
   6667  OP2      -25.6510   11.9900   17.3920 O.co2 308  U308       -0.5172
   6668  P        -29.8720   15.1480   13.9620 P.3   309  U309        0.2141
   6669  C5'      -30.2990   17.2050   12.3200 C.3   309  U309        0.1812
   6670  O5'      -29.3800   16.2980   12.9690 O.3   309  U309       -0.3114
   6671  C4'      -30.2960   18.5680   12.9840 C.3   309  U309        0.1773
   6672  O4'      -31.6250   18.8270   13.5150 O.3   309  U309       -0.3307
   6673  C3'      -29.3200   18.7730   14.1520 C.3   309  U309        0.1860
   6674  O3'      -28.5960   20.0060   14.1150 O.3   309  U309       -0.3112
   6675  C2'      -30.2330   18.7220   15.3770 C.3   309  U309        0.2309
   6676  O2'      -29.8930   19.4790   16.5220 O.3   309  U309       -0.2156
   6677  C1'      -31.5080   19.3370   14.8230 C.3   309  U309        0.2420
   6678  N1       -32.6750   18.9300   15.6120 N.ar  309  U309       -0.2534
   6679  C2       -33.3500   19.9180   16.3040 C.ar  309  U309        0.3546
   6680  O2       -33.0460   21.0980   16.2390 O.2   309  U309       -0.2443
   6681  N3       -34.4110   19.4740   17.0540 N.ar  309  U309       -0.1530
   6682  C4       -34.8440   18.1720   17.2020 C.ar  309  U309        0.2846
   6683  O4       -35.8180   17.9340   17.9190 O.2   309  U309       -0.2650
   6684  C5       -34.0750   17.2050   16.4770 C.ar  309  U309        0.0814
   6685  C6       -33.0360   17.6060   15.7340 C.ar  309  U309        0.0870
   6686  OP1      -31.3280   15.3120   14.2290 O.3   309  U309       -0.4373
   6687  OP2      -29.3640   13.8460   13.4530 O.co2 309  U309       -0.5172
   6688  P        -27.3890   20.3260   15.1500 P.3   310  C310        0.2141
   6689  C5'      -25.9140   22.5150   15.2590 C.3   310  C310        0.1812
   6690  O5'      -27.1920   21.9000   15.0140 O.3   310  C310       -0.3114
   6691  C4'      -25.4700   23.2660   14.0280 C.3   310  C310        0.1773
   6692  O4'      -24.3640   22.5560   13.4120 O.3   310  C310       -0.3307
   6693  C3'      -26.5520   23.4370   12.9650 C.3   310  C310        0.1860
   6694  O3'      -27.0160   24.7840   12.9980 O.3   310  C310       -0.3112
   6695  C2'      -25.8400   23.1220   11.6480 C.3   310  C310        0.2309
   6696  O2'      -25.3410   24.2870   11.0220 O.3   310  C310       -0.2156
   6697  C1'      -24.7040   22.1920   12.0920 C.3   310  C310        0.2420
   6698  N1       -24.9760   20.7360   12.0560 N.ar  310  C310       -0.2535
   6699  C2       -24.0020   19.8520   12.5480 C.ar  310  C310        0.3532
   6700  O2       -22.9510   20.3160   13.0170 O.2   310  C310       -0.2443
   6701  N3       -24.2380   18.5200   12.5110 N.ar  310  C310       -0.1739
   6702  C4       -25.3810   18.0590   11.9970 C.ar  310  C310        0.1759
   6703  N4       -25.5680   16.7370   11.9760 N.pl3 310  C310       -0.1070
   6704  C5       -26.3840   18.9330   11.4800 C.ar  310  C310        0.0566
   6705  C6       -26.1390   20.2510   11.5240 C.ar  310  C310        0.0850
   6706  OP1      -26.1700   19.6240   14.6700 O.2   310  C310       -0.5172
   6707  OP2      -27.8190   20.1370   16.5600 O.co2 310  C310       -0.4373
   6708  P        -28.0420   25.3900   14.0860 P.3   311  G311        0.2141
   6709  C5'      -27.2330   27.2410   15.8100 C.3   311  G311        0.1812
   6710  O5'      -27.3340   26.7710   14.4520 O.3   311  G311       -0.3114
   6711  C4'      -26.1810   26.4490   16.5550 C.3   311  G311        0.1773
   6712  O4'      -24.9200   26.4960   15.8520 O.3   311  G311       -0.3307
   6713  C3'      -25.9060   26.8760   17.9910 C.3   311  G311        0.1860
   6714  O3'      -25.9340   25.7320   18.8340 O.3   311  G311       -0.3112
   6715  C2'      -24.5340   27.5670   17.9650 C.3   311  G311        0.2309
   6716  O2'      -23.6540   27.0360   18.9360 O.3   311  G311       -0.2156
   6717  C1'      -24.0330   27.3570   16.5280 C.3   311  G311        0.2408
   6718  N1       -25.4010   32.2200   15.8420 N.ar  311  G311       -0.1709
   6719  C2       -25.8020   31.3350   16.8130 C.ar  311  G311        0.2606
   6720  N2       -26.6790   31.8010   17.7130 N.pl3 311  G311       -0.0859
   6721  N3       -25.3780   30.0840   16.8940 N.ar  311  G311       -0.1918
   6722  C4       -24.4990   29.7840   15.9120 C.ar  311  G311        0.1723
   6723  C5       -24.0340   30.5940   14.8970 C.ar  311  G311        0.1748
   6724  C6       -24.5000   31.9340   14.8210 C.ar  311  G311        0.3023
   6725  O6       -24.2050   32.8070   13.9970 O.2   311  G311       -0.2633
   6726  N7       -23.1410   29.9050   14.0860 N.ar  311  G311       -0.2173
   6727  C8       -23.0800   28.7120   14.6120 C.ar  311  G311        0.1817
   6728  N9       -23.8740   28.5710   15.7250 N.ar  311  G311       -0.2693
   6729  OP1      -28.1300   24.5310   15.2950 O.3   311  G311       -0.4373
   6730  OP2      -29.2880   25.7440   13.3640 O.co2 311  G311       -0.5172
   6731  P        -27.1340   25.6150   19.8800 P.3   312  C312        0.2141
   6732  C5'      -28.6240   23.5610   20.6290 C.3   312  C312        0.1812
   6733  O5'      -27.7160   24.1460   19.6720 O.3   312  C312       -0.3114
   6734  C4'      -27.9970   22.3440   21.2720 C.3   312  C312        0.1773
   6735  O4'      -27.5070   21.4560   20.2290 O.3   312  C312       -0.3307
   6736  C3'      -26.7780   22.6030   22.1530 C.3   312  C312        0.1860
   6737  O3'      -27.0800   23.0180   23.4890 O.3   312  C312       -0.3112
   6738  C2'      -26.0650   21.2550   22.1100 C.3   312  C312        0.2309
   6739  O2'      -26.6370   20.2990   22.9770 O.3   312  C312       -0.2156
   6740  C1'      -26.3120   20.8210   20.6630 C.3   312  C312        0.2420
   6741  N1       -25.2170   21.1630   19.7300 N.ar  312  C312       -0.2535
   6742  C2       -24.2150   20.2140   19.4900 C.ar  312  C312        0.3532
   6743  O2       -24.2780   19.1170   20.0650 O.2   312  C312       -0.2443
   6744  N3       -23.2090   20.5160   18.6360 N.ar  312  C312       -0.1739
   6745  C4       -23.1780   21.7090   18.0370 C.ar  312  C312        0.1759
   6746  N4       -22.1670   21.9650   17.2050 N.pl3 312  C312       -0.1070
   6747  C5       -24.1800   22.6960   18.2690 C.ar  312  C312        0.0566
   6748  C6       -25.1730   22.3830   19.1110 C.ar  312  C312        0.0850
   6749  OP1      -28.2210   26.5540   19.4960 O.2   312  C312       -0.5172
   6750  OP2      -26.4970   25.7300   21.2160 O.co2 312  C312       -0.4373
   6751  P        -26.0830   23.9790   24.3230 P.3   313  A313        0.2141
   6752  C5'      -25.5550   22.5490   26.4540 C.3   313  A313        0.1812
   6753  O5'      -26.3480   23.5720   25.8380 O.3   313  A313       -0.3114
   6754  C4'      -26.3380   21.2650   26.5310 C.3   313  A313        0.1773
   6755  O4'      -26.0130   20.4160   25.4120 O.3   313  A313       -0.3307
   6756  C3'      -25.9880   20.3890   27.7230 C.3   313  A313        0.1860
   6757  O3'      -26.7330   20.8180   28.8500 O.3   313  A313       -0.3112
   6758  C2'      -26.3990   18.9870   27.2710 C.3   313  A313        0.2309
   6759  O2'      -27.6790   18.5980   27.7110 O.3   313  A313       -0.2156
   6760  C1'      -26.3670   19.0900   25.7430 C.3   313  A313        0.2408
   6761  N1       -22.1500   18.4330   22.8040 N.ar  313  A313       -0.2040
   6762  C2       -22.8030   19.5380   23.1910 C.ar  313  A313        0.2016
   6763  N3       -23.8870   19.6540   23.9550 N.ar  313  A313       -0.2048
   6764  C4       -24.3240   18.4420   24.3430 C.ar  313  A313        0.1692
   6765  C5       -23.7610   17.2180   24.0250 C.ar  313  A313        0.1518
   6766  C6       -22.6140   17.2320   23.2150 C.ar  313  A313        0.1919
   6767  N6       -21.9630   16.1310   22.8370 N.pl3 313  A313       -0.1054
   6768  N7       -24.4800   16.1820   24.6040 N.ar  313  A313       -0.2193
   6769  C8       -25.4460   16.7910   25.2480 C.ar  313  A313        0.1816
   6770  N9       -25.4140   18.1590   25.1320 N.ar  313  A313       -0.2693
   6771  OP1      -26.5090   25.3930   24.2040 O.3   313  A313       -0.4373
   6772  OP2      -24.6870   23.6120   23.9800 O.co2 313  A313       -0.5172
   6773  P        -25.9730   20.8640   30.2470 P.3   314  G314        0.2141
   6774  C5'      -26.2070   18.2760   30.7450 C.3   314  G314        0.1812
   6775  O5'      -25.3680   19.3970   30.4100 O.3   314  G314       -0.3114
   6776  C4'      -25.4640   16.9810   30.5300 C.3   314  G314        0.1773
   6777  O4'      -25.1790   16.7980   29.1220 O.3   314  G314       -0.3307
   6778  C3'      -24.0930   16.8900   31.1750 C.3   314  G314        0.1860
   6779  O3'      -24.1730   16.6210   32.5710 O.3   314  G314       -0.3112
   6780  C2'      -23.4520   15.7550   30.3850 C.3   314  G314        0.2309
   6781  O2'      -23.7430   14.4560   30.8630 O.3   314  G314       -0.2156
   6782  C1'      -24.0120   16.0050   28.9810 C.3   314  G314        0.2408
   6783  N1       -20.0240   15.5880   25.8610 N.ar  314  G314       -0.1709
   6784  C2       -20.7070   14.6080   26.5390 C.ar  314  G314        0.2606
   6785  N2       -20.2690   13.3530   26.3650 N.pl3 314  G314       -0.0859
   6786  N3       -21.7380   14.8400   27.3330 N.ar  314  G314       -0.1918
   6787  C4       -22.0420   16.1540   27.3950 C.ar  314  G314        0.1723
   6788  C5       -21.4280   17.2110   26.7560 C.ar  314  G314        0.1748
   6789  C6       -20.3180   16.9470   25.9090 C.ar  314  G314        0.3023
   6790  O6       -19.6370   17.7480   25.2580 O.2   314  G314       -0.2633
   6791  N7       -22.0470   18.4110   27.0820 N.ar  314  G314       -0.2173
   6792  C8       -23.0080   18.0690   27.8960 C.ar  314  G314        0.1817
   6793  N9       -23.0670   16.7140   28.1230 N.ar  314  G314       -0.2693
   6794  OP1      -26.9790   21.1430   31.3110 O.3   314  G314       -0.4373
   6795  OP2      -24.8340   21.7930   30.0490 O.co2 314  G314       -0.5172
   6796  P        -22.9500   17.0520   33.5110 P.3   315  G315        0.2141
   6797  C5'      -21.9500   14.6100   33.3630 C.3   315  G315        0.1812
   6798  O5'      -21.8110   16.0160   33.0960 O.3   315  G315       -0.3114
   6799  C4'      -20.7570   13.8780   32.8130 C.3   315  G315        0.1773
   6800  O4'      -20.7450   13.9740   31.3640 O.3   315  G315       -0.3307
   6801  C3'      -19.4070   14.4320   33.2230 C.3   315  G315        0.1860
   6802  O3'      -19.0890   13.9370   34.5130 O.3   315  G315       -0.3112
   6803  C2'      -18.5010   13.8790   32.1280 C.3   315  G315        0.2309
   6804  O2'      -18.1430   12.5270   32.3150 O.3   315  G315       -0.2156
   6805  C1'      -19.4020   13.9970   30.8970 C.3   315  G315        0.2408
   6806  N1       -16.3250   16.6900   27.8540 N.ar  315  G315       -0.1709
   6807  C2       -16.1310   15.4430   28.3980 C.ar  315  G315        0.2606
   6808  N2       -14.9690   14.8430   28.0990 N.pl3 315  G315       -0.0859
   6809  N3       -17.0080   14.8330   29.1810 N.ar  315  G315       -0.1918
   6810  C4       -18.1140   15.5830   29.3810 C.ar  315  G315        0.1723
   6811  C5       -18.4000   16.8410   28.8910 C.ar  315  G315        0.1748
   6812  C6       -17.4520   17.4820   28.0500 C.ar  315  G315        0.3023
   6813  O6       -17.5180   18.6000   27.5240 O.2   315  G315       -0.2633
   6814  N7       -19.6410   17.2730   29.3390 N.ar  315  G315       -0.2173
   6815  C8       -20.0780   16.2930   30.0810 C.ar  315  G315        0.1817
   6816  N9       -19.2030   15.2350   30.1490 N.ar  315  G315       -0.2693
   6817  OP1      -23.3290   16.8430   34.9380 O.3   315  G315       -0.4373
   6818  OP2      -22.5250   18.3990   33.0560 O.co2 315  G315       -0.5172
   6819  P        -17.8140   14.4450   35.3370 P.3   316  G316        0.2141
   6820  C5'      -15.5010   15.5610   34.6240 C.3   316  G316        0.1812
   6821  O5'      -16.8830   15.2470   34.3180 O.3   316  G316       -0.3114
   6822  C4'      -14.5650   14.9650   33.5890 C.3   316  G316        0.1773
   6823  O4'      -15.1880   14.9830   32.2740 O.3   316  G316       -0.3307
   6824  C3'      -13.2220   15.6650   33.4220 C.3   316  G316        0.1860
   6825  O3'      -12.2230   15.0180   34.1950 O.3   316  G316       -0.3112
   6826  C2'      -12.8790   15.4100   31.9630 C.3   316  G316        0.2309
   6827  O2'      -12.2560   14.1580   31.7910 O.3   316  G316       -0.2156
   6828  C1'      -14.2590   15.4380   31.3100 C.3   316  G316        0.2408
   6829  N1       -13.1010   19.6270   28.6530 N.ar  316  G316       -0.1709
   6830  C2       -12.3300   18.5190   28.8970 C.ar  316  G316        0.2606
   6831  N2       -11.1040   18.5280   28.3610 N.pl3 316  G316       -0.0859
   6832  N3       -12.7360   17.4770   29.6070 N.ar  316  G316       -0.1918
   6833  C4       -13.9910   17.6480   30.0790 C.ar  316  G316        0.1723
   6834  C5       -14.8390   18.7210   29.8980 C.ar  316  G316        0.1748
   6835  C6       -14.3960   19.8190   29.1210 C.ar  316  G316        0.3023
   6836  O6       -14.9970   20.8620   28.8530 O.2   316  G316       -0.2633
   6837  N7       -16.0500   18.5080   30.5400 N.ar  316  G316       -0.2173
   6838  C8       -15.9200   17.3330   31.0920 C.ar  316  G316        0.1817
   6839  N9       -14.6970   16.7530   30.8510 N.ar  316  G316       -0.2693
   6840  OP1      -17.0410   13.2270   35.7280 O.2   316  G316       -0.5172
   6841  OP2      -18.3380   15.3760   36.3820 O.co2 316  G316       -0.4373
   6842  P        -11.6390   15.8440   35.4150 P.3   317  G317        0.2141
   6843  C5'       -9.6410   16.6600   33.8960 C.3   317  G317        0.1812
   6844  O5'      -10.8270   16.9840   34.6560 O.3   317  G317       -0.3114
   6845  C4'       -9.4600   17.5910   32.7130 C.3   317  G317        0.1773
   6846  O4'      -10.6890   17.6690   31.9360 O.3   317  G317       -0.3307
   6847  C3'       -9.1380   19.0410   33.0350 C.3   317  G317        0.1860
   6848  O3'       -7.7680   19.2190   33.3680 O.3   317  G317       -0.3112
   6849  C2'       -9.5450   19.7230   31.7420 C.3   317  G317        0.2309
   6850  O2'       -8.7740   19.2980   30.6660 O.3   317  G317       -0.2156
   6851  C1'      -10.8220   18.9680   31.3950 C.3   317  G317        0.2408
   6852  N1       -13.7240   23.1020   31.3800 N.ar  317  G317       -0.1709
   6853  C2       -12.7040   22.7430   30.5330 C.ar  317  G317        0.2606
   6854  N2       -12.4070   23.6150   29.5620 N.pl3 317  G317       -0.0859
   6855  N3       -12.0190   21.6180   30.6370 N.ar  317  G317       -0.1918
   6856  C4       -12.4490   20.8590   31.6650 C.ar  317  G317        0.1723
   6857  C5       -13.4600   21.1200   32.5640 C.ar  317  G317        0.1748
   6858  C6       -14.1850   22.3360   32.4430 C.ar  317  G317        0.3023
   6859  O6       -15.1170   22.7480   33.1370 O.2   317  G317       -0.2633
   6860  N7       -13.5860   20.0820   33.4780 N.ar  317  G317       -0.2173
   6861  C8       -12.6680   19.2250   33.1220 C.ar  317  G317        0.1817
   6862  N9       -11.9620   19.6240   32.0140 N.ar  317  G317       -0.2693
   6863  OP1      -10.7210   14.9150   36.1370 O.3   317  G317       -0.4373
   6864  OP2      -12.7500   16.5230   36.1260 O.co2 317  G317       -0.5172
   6865  P         -7.3490   19.9340   34.7570 P.3   318  A318        0.2141
   6866  C5'       -6.0780   21.6900   33.2550 C.3   318  A318        0.1812
   6867  O5'       -6.0310   20.6980   34.2970 O.3   318  A318       -0.3114
   6868  C4'       -4.8700   21.5700   32.3720 C.3   318  A318        0.1773
   6869  O4'       -5.2570   21.8180   30.9960 O.3   318  A318       -0.3307
   6870  C3'       -3.7670   22.5710   32.6770 C.3   318  A318        0.1860
   6871  O3'       -2.8440   21.9500   33.5490 O.3   318  A318       -0.3112
   6872  C2'       -3.1050   22.7690   31.3210 C.3   318  A318        0.2309
   6873  O2'       -2.1930   21.7520   30.9700 O.3   318  A318       -0.2156
   6874  C1'       -4.2840   22.6240   30.3640 C.3   318  A318        0.2408
   6875  N1        -4.1270   26.7530   27.3000 N.ar  318  A318       -0.2040
   6876  C2        -3.3000   25.7140   27.4430 C.ar  318  A318        0.2016
   6877  N3        -3.3830   24.6790   28.2760 N.ar  318  A318       -0.2048
   6878  C4        -4.4870   24.7680   29.0330 C.ar  318  A318        0.1692
   6879  C5        -5.4370   25.7680   28.9940 C.ar  318  A318        0.1518
   6880  C6        -5.2290   26.8120   28.0780 C.ar  318  A318        0.1919
   6881  N6        -6.0560   27.8490   27.9360 N.pl3 318  A318       -0.1054
   6882  N7        -6.4550   25.5110   29.8990 N.ar  318  A318       -0.2193
   6883  C8        -6.0970   24.3830   30.4620 C.ar  318  A318        0.1816
   6884  N9        -4.9150   23.8810   29.9890 N.ar  318  A318       -0.2693
   6885  OP1       -6.8960   18.9270   35.7420 O.3   318  A318       -0.4373
   6886  OP2       -8.3420   20.9610   35.1800 O.co2 318  A318       -0.5172
   6887  P         -2.3360   22.9330   34.6950 P.3   319  A319        0.2141
   6888  C5'       -0.1900   22.9810   33.2010 C.3   319  A319        0.1812
   6889  O5'       -1.1850   23.7290   33.9200 O.3   319  A319       -0.3114
   6890  C4'        0.7850   23.8590   32.4430 C.3   319  A319        0.1773
   6891  O4'        0.1850   24.4240   31.2450 O.3   319  A319       -0.3307
   6892  C3'        1.3840   25.0080   33.2270 C.3   319  A319        0.1860
   6893  O3'        2.6040   24.4620   33.6860 O.3   319  A319       -0.3112
   6894  C2'        1.6170   26.0730   32.1630 C.3   319  A319        0.2309
   6895  O2'        2.8100   25.8270   31.4580 O.3   319  A319       -0.2156
   6896  C1'        0.5020   25.7930   31.1540 C.3   319  A319        0.2408
   6897  N1        -2.7470   29.1630   28.9950 N.ar  319  A319       -0.2040
   6898  C2        -1.5820   28.6450   28.5810 C.ar  319  A319        0.2016
   6899  N3        -0.7770   27.7810   29.1960 N.ar  319  A319       -0.2048
   6900  C4        -1.2820   27.4340   30.3960 C.ar  319  A319        0.1692
   6901  C5        -2.4710   27.8730   30.9510 C.ar  319  A319        0.1518
   6902  C6        -3.2320   28.7800   30.1950 C.ar  319  A319        0.1919
   6903  N6        -4.3870   29.2930   30.6060 N.pl3 319  A319       -0.1054
   6904  N7        -2.6720   27.2980   32.1970 N.ar  319  A319       -0.2193
   6905  C8        -1.6320   26.5180   32.3560 C.ar  319  A319        0.1816
   6906  N9        -0.7380   26.5650   31.3150 N.ar  319  A319       -0.2693
   6907  OP1       -1.6540   22.1880   35.7920 O.3   319  A319       -0.4373
   6908  OP2       -3.5050   23.7980   35.0520 O.co2 319  A319       -0.5172
   6909  P          3.0830   24.9290   35.1450 P.3   320  G320        0.2141
   6910  C5'        4.9710   26.3580   34.0750 C.3   320  G320        0.1812
   6911  O5'        3.7120   26.3370   34.7400 O.3   320  G320       -0.3114
   6912  C4'        5.6250   27.6780   34.3110 C.3   320  G320        0.1773
   6913  O4'        4.8270   28.7230   33.6900 O.3   320  G320       -0.3307
   6914  C3'        5.7690   28.0360   35.7750 C.3   320  G320        0.1860
   6915  O3'        7.1570   28.0160   36.0310 O.3   320  G320       -0.3112
   6916  C2'        5.3360   29.4970   35.8380 C.3   320  G320        0.2309
   6917  O2'        6.3700   30.3560   35.4310 O.3   320  G320       -0.2156
   6918  C1'        4.3560   29.5970   34.6780 C.3   320  G320        0.2408
   6919  N1        -0.4360   29.5170   33.0720 N.ar  320  G320       -0.1709
   6920  C2         0.6900   29.9800   32.4420 C.ar  320  G320        0.2606
   6921  N2         0.5150   30.4890   31.2120 N.pl3 320  G320       -0.0859
   6922  N3         1.9020   29.9320   32.9680 N.ar  320  G320       -0.1918
   6923  C4         1.8930   29.4110   34.2110 C.ar  320  G320        0.1723
   6924  C5         0.8270   28.9300   34.9320 C.ar  320  G320        0.1748
   6925  C6        -0.4690   28.9760   34.3500 C.ar  320  G320        0.3023
   6926  O6        -1.5440   28.6030   34.8280 O.2   320  G320       -0.2633
   6927  N7         1.2450   28.4530   36.1670 N.ar  320  G320       -0.2173
   6928  C8         2.5310   28.6610   36.1740 C.ar  320  G320        0.1817
   6929  N9         2.9880   29.2270   35.0120 N.ar  320  G320       -0.2693
   6930  OP1        4.2820   24.1790   35.5930 O.2   320  G320       -0.5172
   6931  OP2        1.9490   25.1010   36.1300 O.co2 320  G320       -0.4373
   6932  P          7.5630   27.7080   37.5240 P.3   321  G321        0.2141
   6933  C5'        7.5440   30.2390   38.2140 C.3   321  G321        0.1812
   6934  O5'        7.1150   28.8990   38.4800 O.3   321  G321       -0.3114
   6935  C4'        6.8590   31.2320   39.1290 C.3   321  G321        0.1773
   6936  O4'        5.4820   31.4280   38.7290 O.3   321  G321       -0.3307
   6937  C3'        6.7460   30.8540   40.5880 C.3   321  G321        0.1860
   6938  O3'        7.9790   31.1040   41.2140 O.3   321  G321       -0.3112
   6939  C2'        5.6640   31.8090   41.0520 C.3   321  G321        0.2309
   6940  O2'        6.1240   33.1350   41.2240 O.3   321  G321       -0.2156
   6941  C1'        4.7030   31.7390   39.8710 C.3   321  G321        0.2408
   6942  N1        -0.0250   30.6880   41.4160 N.ar  321  G321       -0.1709
   6943  C2         0.6550   31.8800   41.4370 C.ar  321  G321        0.2606
   6944  N2        -0.0130   32.9230   41.9350 N.pl3 321  G321       -0.0859
   6945  N3         1.8950   32.0360   40.9970 N.ar  321  G321       -0.1918
   6946  C4         2.4130   30.8780   40.5310 C.ar  321  G321        0.1723
   6947  C5         1.8110   29.6400   40.4410 C.ar  321  G321        0.1748
   6948  C6         0.4760   29.4900   40.9180 C.ar  321  G321        0.3023
   6949  O6        -0.2340   28.4780   40.9260 O.2   321  G321       -0.2633
   6950  N7         2.6760   28.7120   39.8770 N.ar  321  G321       -0.2173
   6951  C8         3.7700   29.3870   39.6460 C.ar  321  G321        0.1817
   6952  N9         3.6820   30.7050   40.0260 N.ar  321  G321       -0.2693
   6953  OP1        9.0290   27.3790   37.5680 O.2   321  G321       -0.5172
   6954  OP2        6.5570   26.6430   37.7490 O.co2 321  G321       -0.4373
   6955  P          8.2390   30.6200   42.7110 P.3   322  A322        0.2141
   6956  C5'        7.1470   32.0430   44.6170 C.3   322  A322        0.1812
   6957  O5'        6.9770   31.1850   43.4860 O.3   322  A322       -0.3114
   6958  C4'        5.7960   32.5820   44.9710 C.3   322  A322        0.1773
   6959  O4'        4.8300   32.1620   43.9730 O.3   322  A322       -0.3307
   6960  C3'        5.1410   32.0360   46.2270 C.3   322  A322        0.1860
   6961  O3'        5.7210   32.5660   47.4010 O.3   322  A322       -0.3112
   6962  C2'        3.7220   32.5280   46.0210 C.3   322  A322        0.2309
   6963  O2'        3.6440   33.9370   46.0400 O.3   322  A322       -0.2156
   6964  C1'        3.5360   32.2350   44.5380 C.3   322  A322        0.2408
   6965  N1        -0.7410   29.5270   45.3240 N.ar  322  A322       -0.2040
   6966  C2        -0.3690   30.7540   45.7110 C.ar  322  A322        0.2016
   6967  N3         0.7650   31.4060   45.4690 N.ar  322  A322       -0.2048
   6968  C4         1.5970   30.6480   44.7340 C.ar  322  A322        0.1692
   6969  C5         1.3550   29.3740   44.2600 C.ar  322  A322        0.1518
   6970  C6         0.1160   28.8000   44.5770 C.ar  322  A322        0.1919
   6971  N6        -0.2460   27.5720   44.2050 N.pl3 322  A322       -0.1054
   6972  N7         2.4460   28.9010   43.5490 N.ar  322  A322       -0.2193
   6973  C8         3.3020   29.8930   43.5910 C.ar  322  A322        0.1816
   6974  N9         2.8570   30.9760   44.3010 N.ar  322  A322       -0.2693
   6975  OP1        9.4240   31.3500   43.2530 O.3   322  A322       -0.4373
   6976  OP2        8.1560   29.1540   42.8320 O.co2 322  A322       -0.5172
   6977  P          5.9600   31.5580   48.5910 P.3   323  C323        0.2141
   6978  C5'        4.0250   32.6710   49.9440 C.3   323  C323        0.1812
   6979  O5'        4.5290   31.5070   49.2810 O.3   323  C323       -0.3114
   6980  C4'        2.5410   32.5330   50.1530 C.3   323  C323        0.1773
   6981  O4'        1.9030   32.0660   48.9390 O.3   323  C323       -0.3307
   6982  C3'        2.1250   31.4960   51.1760 C.3   323  C323        0.1860
   6983  O3'        2.2320   32.0830   52.4450 O.3   323  C323       -0.3112
   6984  C2'        0.6760   31.2330   50.7990 C.3   323  C323        0.2309
   6985  O2'       -0.2930   32.1060   51.3190 O.3   323  C323       -0.2156
   6986  C1'        0.7300   31.3470   49.2770 C.3   323  C323        0.2420
   6987  N1         0.8360   30.0020   48.7270 N.ar  323  C323       -0.2535
   6988  C2        -0.2950   29.1870   48.7790 C.ar  323  C323        0.3532
   6989  O2        -1.3560   29.6660   49.2110 O.2   323  C323       -0.2443
   6990  N3        -0.2130   27.9100   48.3340 N.ar  323  C323       -0.1739
   6991  C4         0.9480   27.4410   47.8680 C.ar  323  C323        0.1759
   6992  N4         0.9810   26.1820   47.4300 N.pl3 323  C323       -0.1070
   6993  C5         2.1280   28.2440   47.8350 C.ar  323  C323        0.0566
   6994  C6         2.0300   29.5030   48.2830 C.ar  323  C323        0.0850
   6995  OP1        6.8770   32.2850   49.4980 O.3   323  C323       -0.4373
   6996  OP2        6.3480   30.2420   48.0280 O.co2 323  C323       -0.5172
   6997  P          3.0680   31.2250   53.4490 P.3   324  G324        0.2141
   6998  C5'        0.7700   30.3050   54.3350 C.3   324  G324        0.1812
   6999  O5'        1.9780   30.0820   53.5980 O.3   324  G324       -0.3114
   7000  C4'       -0.0620   29.0610   54.2490 C.3   324  G324        0.1773
   7001  O4'       -0.2090   28.7030   52.8490 O.3   324  G324       -0.3307
   7002  C3'        0.5770   27.8410   54.8840 C.3   324  G324        0.1860
   7003  O3'        0.2180   27.7880   56.2500 O.3   324  G324       -0.3112
   7004  C2'       -0.0600   26.7070   54.0990 C.3   324  G324        0.2309
   7005  O2'       -1.3870   26.5500   54.5520 O.3   324  G324       -0.2156
   7006  C1'       -0.0740   27.2950   52.6910 C.3   324  G324        0.2408
   7007  N1         2.2170   24.1070   49.4570 N.ar  324  G324       -0.1709
   7008  C2         1.0020   23.9830   50.0920 C.ar  324  G324        0.2606
   7009  N2         0.2920   22.8800   49.8070 N.pl3 324  G324       -0.0859
   7010  N3         0.5050   24.8890   50.9210 N.ar  324  G324       -0.1918
   7011  C4         1.3390   25.9380   51.0800 C.ar  324  G324        0.1723
   7012  C5         2.5780   26.1490   50.5080 C.ar  324  G324        0.1748
   7013  C6         3.0910   25.1810   49.6060 C.ar  324  G324        0.3023
   7014  O6         4.1750   25.1820   49.0090 O.2   324  G324       -0.2633
   7015  N7         3.1260   27.3450   50.9480 N.ar  324  G324       -0.2173
   7016  C8         2.2230   27.8350   51.7540 C.ar  324  G324        0.1817
   7017  N9         1.1190   27.0280   51.8870 N.ar  324  G324       -0.2693
   7018  OP1        3.1480   32.0050   54.7330 O.3   324  G324       -0.4373
   7019  OP2        4.2930   30.6840   52.7810 O.co2 324  G324       -0.5172
   7020  P          1.3190   27.4890   57.3570 P.3   325  G325        0.2141
   7021  C5'       -0.0380   25.2360   57.5010 C.3   325  G325        0.1812
   7022  O5'        1.2290   25.9080   57.4310 O.3   325  G325       -0.3114
   7023  C4'        0.1800   23.7930   57.1300 C.3   325  G325        0.1773
   7024  O4'        0.6150   23.7470   55.7540 O.3   325  G325       -0.3307
   7025  C3'        1.2270   23.0890   57.9810 C.3   325  G325        0.1860
   7026  O3'        0.6930   21.8780   58.4940 O.3   325  G325       -0.3112
   7027  C2'        2.3990   22.8020   57.0460 C.3   325  G325        0.2309
   7028  O2'        2.7070   21.4270   57.0720 O.3   325  G325       -0.2156
   7029  C1'        1.8390   23.0750   55.6540 C.3   325  G325        0.2408
   7030  N1         4.6170   23.5840   51.4360 N.ar  325  G325       -0.1709
   7031  C2         3.7030   22.6140   51.7610 C.ar  325  G325        0.2606
   7032  N2         3.5220   21.6410   50.8550 N.pl3 325  G325       -0.0859
   7033  N3         3.0190   22.5940   52.8910 N.ar  325  G325       -0.1918
   7034  C4         3.3290   23.6370   53.6860 C.ar  325  G325        0.1723
   7035  C5         4.2170   24.6650   53.4510 C.ar  325  G325        0.1748
   7036  C6         4.9380   24.6800   52.2300 C.ar  325  G325        0.3023
   7037  O6         5.7520   25.5210   51.8220 O.2   325  G325       -0.2633
   7038  N7         4.2340   25.5540   54.5170 N.ar  325  G325       -0.2173
   7039  C8         3.3840   25.0530   55.3710 C.ar  325  G325        0.1817
   7040  N9         2.7750   23.9090   54.9150 N.ar  325  G325       -0.2693
   7041  OP1        0.7750   27.9990   58.6480 O.3   325  G325       -0.4373
   7042  OP2        2.7130   27.8150   56.9300 O.co2 325  G325       -0.5172
   7043  P          1.5360   20.9150   59.4590 P.3   326  A326        0.2141
   7044  C5'       -0.5650   19.3460   59.0870 C.3   326  A326        0.1812
   7045  O5'        0.8680   19.4780   59.2470 O.3   326  A326       -0.3114
   7046  C4'       -0.9350   18.0100   58.4910 C.3   326  A326        0.1773
   7047  O4'       -1.0220   18.1170   57.0460 O.3   326  A326       -0.3307
   7048  C3'        0.0550   16.8800   58.7140 C.3   326  A326        0.1860
   7049  O3'       -0.2110   16.3040   59.9780 O.3   326  A326       -0.3112
   7050  C2'       -0.2940   15.9440   57.5710 C.3   326  A326        0.2309
   7051  O2'       -1.5630   15.3660   57.7780 O.3   326  A326       -0.2156
   7052  C1'       -0.5020   16.9420   56.4420 C.3   326  A326        0.2408
   7053  N1         3.1610   15.3830   53.1990 N.ar  326  A326       -0.2040
   7054  C2         2.0610   14.7800   53.6710 C.ar  326  A326        0.2016
   7055  N3         1.1400   15.2450   54.5160 N.ar  326  A326       -0.2048
   7056  C4         1.4370   16.5000   54.8910 C.ar  326  A326        0.1692
   7057  C5         2.5290   17.2520   54.4890 C.ar  326  A326        0.1518
   7058  C6         3.4320   16.6430   53.6020 C.ar  326  A326        0.1919
   7059  N6         4.5340   17.2370   53.1430 N.pl3 326  A326       -0.1054
   7060  N7         2.5160   18.4980   55.0970 N.ar  326  A326       -0.2193
   7061  C8         1.4360   18.4730   55.8420 C.ar  326  A326        0.1816
   7062  N9         0.7350   17.2950   55.7630 N.ar  326  A326       -0.2693
   7063  OP1        1.2470   21.4940   60.7990 O.3   326  A326       -0.4373
   7064  OP2        2.9460   20.7920   59.0090 O.co2 326  A326       -0.5172
   7065  P          1.0720   15.8290   60.7890 P.3   327  A327        0.2141
   7066  C5'        2.8900   14.1390   59.9450 C.3   327  A327        0.1812
   7067  O5'        1.5290   14.5660   59.9330 O.3   327  A327       -0.3114
   7068  C4'        3.2540   13.5940   58.6020 C.3   327  A327        0.1773
   7069  O4'        3.0390   14.6210   57.6070 O.3   327  A327       -0.3307
   7070  C3'        4.7290   13.2790   58.4740 C.3   327  A327        0.1860
   7071  O3'        4.9240   11.9600   58.8990 O.3   327  A327       -0.3112
   7072  C2'        4.9530   13.3680   56.9770 C.3   327  A327        0.2309
   7073  O2'        4.5230   12.2620   56.2340 O.3   327  A327       -0.2156
   7074  C1'        4.0420   14.5250   56.6010 C.3   327  A327        0.2408
   7075  N1         7.9500   17.0360   54.4190 N.ar  327  A327       -0.2040
   7076  C2         7.4410   15.8150   54.2200 C.ar  327  A327        0.2016
   7077  N3         6.4220   15.2180   54.8300 N.ar  327  A327       -0.2048
   7078  C4         5.8780   16.0330   55.7450 C.ar  327  A327        0.1692
   7079  C5         6.2860   17.3160   56.0600 C.ar  327  A327        0.1518
   7080  C6         7.3840   17.8260   55.3560 C.ar  327  A327        0.1919
   7081  N6         7.8870   19.0450   55.5570 N.pl3 327  A327       -0.1054
   7082  N7         5.4930   17.8520   57.0650 N.ar  327  A327       -0.2193
   7083  C8         4.6360   16.8970   57.3320 C.ar  327  A327        0.1816
   7084  N9         4.8050   15.7700   56.5630 N.ar  327  A327       -0.2693
   7085  OP1        0.7370   15.4240   62.1940 O.3   327  A327       -0.4373
   7086  OP2        2.0510   16.9290   60.5190 O.co2 327  A327       -0.5172
   7087  P          6.1700   11.7190   59.8590 P.3   328  C328        0.2141
   7088  C5'        7.6510   10.8490   57.8210 C.3   328  C328        0.1812
   7089  O5'        7.4090   11.8120   58.8490 O.3   328  C328       -0.3114
   7090  C4'        8.7080   11.3890   56.9000 C.3   328  C328        0.1773
   7091  O4'        8.2860   12.6880   56.4150 O.3   328  C328       -0.3307
   7092  C3'       10.0210   11.7060   57.5770 C.3   328  C328        0.1860
   7093  O3'       10.8710   10.6010   57.6140 O.3   328  C328       -0.3112
   7094  C2'       10.6480   12.7340   56.6500 C.3   328  C328        0.2309
   7095  O2'       11.3180   12.2550   55.5140 O.3   328  C328       -0.2156
   7096  C1'        9.4250   13.5100   56.1750 C.3   328  C328        0.2420
   7097  N1         9.2690   14.8180   56.8580 N.ar  328  C328       -0.2535
   7098  C2        10.2620   15.7790   56.6650 C.ar  328  C328        0.3532
   7099  O2        11.2250   15.5030   55.9400 O.2   328  C328       -0.2443
   7100  N3        10.1440   16.9860   57.2600 N.ar  328  C328       -0.1739
   7101  C4         9.0860   17.2510   58.0210 C.ar  328  C328        0.1759
   7102  N4         9.0170   18.4530   58.5870 N.pl3 328  C328       -0.1070
   7103  C5         8.0630   16.2850   58.2510 C.ar  328  C328        0.0566
   7104  C6         8.1910   15.0930   57.6520 C.ar  328  C328        0.0850
   7105  OP1        6.1600   10.2860   60.3220 O.2   328  C328       -0.5172
   7106  OP2        6.1270   12.8330   60.8670 O.co2 328  C328       -0.4373
   7107  P         11.4820   10.4720   59.0770 P.3   329  A329        0.2141
   7108  C5'       13.6180   10.8240   57.5980 C.3   329  A329        0.1812
   7109  O5'       12.8560   11.1940   58.7520 O.3   329  A329       -0.3114
   7110  C4'       14.7210   11.8270   57.4320 C.3   329  A329        0.1773
   7111  O4'       14.1620   13.0640   56.9180 O.3   329  A329       -0.3307
   7112  C3'       15.3790   12.2690   58.7310 C.3   329  A329        0.1860
   7113  O3'       16.3240   11.3000   59.1110 O.3   329  A329       -0.3112
   7114  C2'       15.9870   13.5970   58.3190 C.3   329  A329        0.2309
   7115  O2'       17.0880   13.4290   57.4430 O.3   329  A329       -0.2156
   7116  C1'       14.8610   14.1640   57.4660 C.3   329  A329        0.2408
   7117  N1        13.9240   18.8030   59.4190 N.ar  329  A329       -0.2040
   7118  C2        14.9790   18.2910   58.7720 C.ar  329  A329        0.2016
   7119  N3        15.1560   17.0650   58.2850 N.ar  329  A329       -0.2048
   7120  C4        14.0820   16.2970   58.5370 C.ar  329  A329        0.1692
   7121  C5        12.9200   16.6810   59.1810 C.ar  329  A329        0.1518
   7122  C6        12.8540   18.0120   59.6370 C.ar  329  A329        0.1919
   7123  N6        11.7970   18.5340   60.2550 N.pl3 329  A329       -0.1054
   7124  N7        12.0210   15.6230   59.2420 N.ar  329  A329       -0.2193
   7125  C8        12.6520   14.6410   58.6470 C.ar  329  A329        0.1816
   7126  N9        13.9090   14.9750   58.2080 N.ar  329  A329       -0.2693
   7127  OP1       11.8290    9.0430   59.3070 O.2   329  A329       -0.5172
   7128  OP2       10.7170   11.2240   60.1010 O.co2 329  A329       -0.4373
   7129  P         16.9230   11.3610   60.5740 P.3   330  A330        0.2141
   7130  C5'       18.9610   13.0150   60.2020 C.3   330  A330        0.1812
   7131  O5'       17.6100   12.7940   60.6620 O.3   330  A330       -0.3114
   7132  C4'       19.4250   14.3540   60.6940 C.3   330  A330        0.1773
   7133  O4'       18.4780   15.3220   60.2210 O.3   330  A330       -0.3307
   7134  C3'       19.3660   14.5180   62.2050 C.3   330  A330        0.1860
   7135  O3'       20.5360   14.0000   62.7970 O.3   330  A330       -0.3112
   7136  C2'       19.1780   16.0230   62.3840 C.3   330  A330        0.2309
   7137  O2'       20.3020   16.8540   62.5810 O.3   330  A330       -0.2156
   7138  C1'       18.4680   16.4170   61.0900 C.3   330  A330        0.2408
   7139  N1        15.3210   19.9660   62.9230 N.ar  330  A330       -0.2040
   7140  C2        16.6410   19.9560   62.6950 C.ar  330  A330        0.2016
   7141  N3        17.4000   18.9860   62.2010 N.ar  330  A330       -0.2048
   7142  C4        16.6560   17.9050   61.9180 C.ar  330  A330        0.1692
   7143  C5        15.2920   17.7660   62.0860 C.ar  330  A330        0.1518
   7144  C6        14.6040   18.8640   62.6150 C.ar  330  A330        0.1919
   7145  N6        13.2900   18.8730   62.8370 N.pl3 330  A330       -0.1054
   7146  N7        14.8740   16.5060   61.6840 N.ar  330  A330       -0.2193
   7147  C8        15.9770   15.9250   61.2810 C.ar  330  A330        0.1816
   7148  N9        17.0880   16.7210   61.3810 N.ar  330  A330       -0.2693
   7149  OP1       17.9420   10.2790   60.3800 O.2   330  A330       -0.5172
   7150  OP2       15.9590   11.3460   61.7190 O.co2 330  A330       -0.4373
   7151  P         20.3970   13.6260   64.3310 P.3   331  G331        0.2141
   7152  C5'       21.5670   15.8670   65.0630 C.3   331  G331        0.1812
   7153  O5'       20.5610   14.8770   65.2990 O.3   331  G331       -0.3114
   7154  C4'       21.1490   17.1440   65.7210 C.3   331  G331        0.1773
   7155  O4'       19.9900   17.6600   65.0370 O.3   331  G331       -0.3307
   7156  C3'       20.6120   16.9680   67.1210 C.3   331  G331        0.1860
   7157  O3'       21.6340   16.8230   68.0790 O.3   331  G331       -0.3112
   7158  C2'       19.8110   18.2400   67.3270 C.3   331  G331        0.2309
   7159  O2'       20.6090   19.2840   67.8180 O.3   331  G331       -0.2156
   7160  C1'       19.2920   18.5180   65.9180 C.3   331  G331        0.2408
   7161  N1        14.6140   20.0610   67.1000 N.ar  331  G331       -0.1709
   7162  C2        15.8190   20.6800   67.3240 C.ar  331  G331        0.2606
   7163  N2        15.7680   21.8690   67.9320 N.pl3 331  G331       -0.0859
   7164  N3        16.9860   20.1740   66.9670 N.ar  331  G331       -0.1918
   7165  C4        16.8500   18.9860   66.3390 C.ar  331  G331        0.1723
   7166  C5        15.6940   18.2900   66.0550 C.ar  331  G331        0.1748
   7167  C6        14.4500   18.8390   66.4550 C.ar  331  G331        0.3023
   7168  O6        13.3160   18.3720   66.2970 O.2   331  G331       -0.2633
   7169  N7        15.9840   17.1000   65.4030 N.ar  331  G331       -0.2173
   7170  C8        17.2850   17.0990   65.2930 C.ar  331  G331        0.1817
   7171  N9        17.8710   18.2200   65.8300 N.ar  331  G331       -0.2693
   7172  OP1       21.5770   12.7710   64.5540 O.2   331  G331       -0.5172
   7173  OP2       19.0410   13.1330   64.6370 O.co2 331  G331       -0.4373
   7174  P         21.1360   15.9570   69.3310 P.3   332  U332        0.2141
   7175  C5'       20.5280   17.7270   71.1200 C.3   332  U332        0.1812
   7176  O5'       20.0730   16.8920   70.0510 O.3   332  U332       -0.3114
   7177  C4'       19.4380   18.6650   71.5710 C.3   332  U332        0.1773
   7178  O4'       18.5490   18.9990   70.4710 O.3   332  U332       -0.3307
   7179  C3'       18.5100   18.0980   72.6140 C.3   332  U332        0.1860
   7180  O3'       19.2260   18.1400   73.8310 O.3   332  U332       -0.3112
   7181  C2'       17.3050   19.0230   72.4910 C.3   332  U332        0.2309
   7182  O2'       17.4680   20.2310   73.2020 O.3   332  U332       -0.2156
   7183  C1'       17.2450   19.2550   70.9750 C.3   332  U332        0.2420
   7184  N1        16.3090   18.3670   70.2660 N.ar  332  U332       -0.2534
   7185  C2        14.9550   18.6490   70.3150 C.ar  332  U332        0.3546
   7186  O2        14.4940   19.5870   70.9370 O.2   332  U332       -0.2443
   7187  N3        14.1600   17.7590   69.6390 N.ar  332  U332       -0.1530
   7188  C4        14.5620   16.6300   68.9530 C.ar  332  U332        0.2846
   7189  O4        13.7210   15.9250   68.4010 O.2   332  U332       -0.2650
   7190  C5        15.9750   16.4100   68.9460 C.ar  332  U332        0.0814
   7191  C6        16.7810   17.2660   69.5800 C.ar  332  U332        0.0870
   7192  OP1       22.1750   15.8120   70.3880 O.3   332  U332       -0.4373
   7193  OP2       20.5140   14.7480   68.7360 O.co2 332  U332       -0.5172
   7194  P         18.6730   17.1510   74.9510 P.3   333  A333        0.2141
   7195  C5'       16.2510   17.7410   75.9010 C.3   333  A333        0.1812
   7196  O5'       17.6160   18.1100   75.6760 O.3   333  A333       -0.3114
   7197  C4'       15.8780   18.1230   77.3050 C.3   333  A333        0.1773
   7198  O4'       14.4540   18.0040   77.5050 O.3   333  A333       -0.3307
   7199  C3'       16.4980   17.2830   78.4120 C.3   333  A333        0.1860
   7200  O3'       16.8010   18.1720   79.4820 O.3   333  A333       -0.3112
   7201  C2'       15.4660   16.1730   78.6630 C.3   333  A333        0.2309
   7202  O2'       15.3200   15.8650   80.0400 O.3   333  A333       -0.2156
   7203  C1'       14.1620   16.7640   78.1110 C.3   333  A333        0.2408
   7204  N1         9.8140   16.1240   75.4680 N.ar  333  A333       -0.2040
   7205  C2        10.1650   16.9780   76.4360 C.ar  333  A333        0.2016
   7206  N3        11.3180   17.0820   77.0920 N.ar  333  A333       -0.2048
   7207  C4        12.1930   16.1600   76.6580 C.ar  333  A333        0.1692
   7208  C5        11.9730   15.2010   75.6890 C.ar  333  A333        0.1518
   7209  C6        10.7100   15.1940   75.0730 C.ar  333  A333        0.1919
   7210  N6        10.3550   14.3300   74.1230 N.pl3 333  A333       -0.1054
   7211  N7        13.0970   14.4050   75.5230 N.ar  333  A333       -0.2193
   7212  C8        13.9620   14.9010   76.3740 C.ar  333  A333        0.1816
   7213  N9        13.4730   15.9490   77.1110 N.ar  333  A333       -0.2693
   7214  OP1       19.6220   16.7870   76.0420 O.3   333  A333       -0.4373
   7215  OP2       18.2040   16.1090   73.9900 O.co2 333  A333       -0.5172
   7216  P         15.8400   18.5800   80.6870 P.3   334  U334        0.2141
   7217  C5'       14.0430   20.4640   80.6040 C.3   334  U334        0.1812
   7218  O5'       14.4640   19.1710   80.1470 O.3   334  U334       -0.3114
   7219  C4'       12.8110   20.3890   81.4850 C.3   334  U334        0.1773
   7220  O4'       11.9450   21.4980   81.1230 O.3   334  U334       -0.3307
   7221  C3'       11.9420   19.1330   81.3780 C.3   334  U334        0.1860
   7222  O3'       11.8260   18.4590   82.6200 O.3   334  U334       -0.3112
   7223  C2'       10.5300   19.6770   81.1810 C.3   334  U334        0.2309
   7224  O2'        9.8750   19.8030   82.4370 O.3   334  U334       -0.2156
   7225  C1'       10.8040   20.9970   80.4740 C.3   334  U334        0.2420
   7226  N1        11.1100   20.8330   79.0450 N.ar  334  U334       -0.2534
   7227  C2        10.0720   21.0100   78.1530 C.ar  334  U334        0.3546
   7228  O2         8.9390   21.2840   78.5060 O.2   334  U334       -0.2443
   7229  N3        10.4130   20.8560   76.8320 N.ar  334  U334       -0.1530
   7230  C4        11.6540   20.5350   76.3210 C.ar  334  U334        0.2846
   7231  O4        11.7960   20.3950   75.1030 O.2   334  U334       -0.2650
   7232  C5        12.6770   20.3740   77.3110 C.ar  334  U334        0.0814
   7233  C6        12.3770   20.5260   78.6050 C.ar  334  U334        0.0870
   7234  OP1       16.4390   19.8200   81.2320 O.2   334  U334       -0.5172
   7235  OP2       15.6250   17.3880   81.5790 O.co2 334  U334       -0.4373
   7236  P         11.5180   16.9010   82.6750 P.3   335  G335        0.2141
   7237  C5'        9.2150   16.6240   81.3000 C.3   335  G335        0.1812
   7238  O5'       10.6660   16.5150   81.3730 O.3   335  G335       -0.3114
   7239  C4'        8.5350   15.3160   80.8920 C.3   335  G335        0.1773
   7240  O4'        8.7650   15.0190   79.4880 O.3   335  G335       -0.3307
   7241  C3'        8.9320   14.0580   81.6520 C.3   335  G335        0.1860
   7242  O3'        8.0580   13.7500   82.7190 O.3   335  G335       -0.3112
   7243  C2'        8.7240   12.9500   80.6330 C.3   335  G335        0.2309
   7244  O2'        7.4220   12.3990   80.6870 O.3   335  G335       -0.2156
   7245  C1'        9.1070   13.6530   79.3360 C.3   335  G335        0.2408
   7246  N1        13.0110   10.9780   77.4500 N.ar  335  G335       -0.1709
   7247  C2        11.6890   10.6140   77.5400 C.ar  335  G335        0.2606
   7248  N2        11.3640    9.4050   77.0210 N.pl3 335  G335       -0.0859
   7249  N3        10.7470   11.3890   78.0540 N.ar  335  G335       -0.1918
   7250  C4        11.2510   12.5740   78.4960 C.ar  335  G335        0.1723
   7251  C5        12.5560   13.0160   78.4740 C.ar  335  G335        0.1748
   7252  C6        13.5480   12.1840   77.9140 C.ar  335  G335        0.3023
   7253  O6        14.7570   12.4070   77.8010 O.2   335  G335       -0.2633
   7254  N7        12.6620   14.2860   79.0350 N.ar  335  G335       -0.2173
   7255  C8        11.4420   14.5900   79.3780 C.ar  335  G335        0.1817
   7256  N9        10.5380   13.5930   79.0850 N.ar  335  G335       -0.2693
   7257  OP1       10.7600   16.7140   83.9330 O.3   335  G335       -0.4373
   7258  OP2       12.8560   16.2390   82.5110 O.co2 335  G335       -0.5172
   7259  P          8.7880   12.7830   83.7230 P.3   336  G336        0.2141
   7260  C5'        8.8350   10.1610   83.8990 C.3   336  G336        0.1812
   7261  O5'        8.1000   11.3600   83.5610 O.3   336  G336       -0.3114
   7262  C4'        9.1040    9.3390   82.6660 C.3   336  G336        0.1773
   7263  O4'        9.9610   10.1040   81.8090 O.3   336  G336       -0.3307
   7264  C3'        9.9410    8.0910   82.8800 C.3   336  G336        0.1860
   7265  O3'        9.2090    6.9350   83.2010 O.3   336  G336       -0.3112
   7266  C2'       10.4840    7.8010   81.4930 C.3   336  G336        0.2309
   7267  O2'        9.5790    6.9410   80.8050 O.3   336  G336       -0.2156
   7268  C1'       10.6060    9.2130   80.9170 C.3   336  G336        0.2408
   7269  N1        15.2620    8.1170   79.1680 N.ar  336  G336       -0.1709
   7270  C2        14.1270    7.3280   79.1940 C.ar  336  G336        0.2606
   7271  N2        14.2400    6.1090   78.6590 N.pl3 336  G336       -0.0859
   7272  N3        12.9610    7.7170   79.6870 N.ar  336  G336       -0.1918
   7273  C4        13.0210    8.9790   80.1620 C.ar  336  G336        0.1723
   7274  C5        14.1060    9.8370   80.2060 C.ar  336  G336        0.1748
   7275  C6        15.3450    9.4120   79.6750 C.ar  336  G336        0.3023
   7276  O6        16.4220   10.0350   79.6240 O.2   336  G336       -0.2633
   7277  N7        13.7570   11.0450   80.7850 N.ar  336  G336       -0.2173
   7278  C8        12.4900   10.8950   81.0940 C.ar  336  G336        0.1817
   7279  N9        11.9840    9.6640   80.7460 N.ar  336  G336       -0.2693
   7280  OP1        8.5800   13.3510   85.0710 O.3   336  G336       -0.4373
   7281  OP2       10.1670   12.5040   83.1870 O.co2 336  G336       -0.5172
   7282  P          9.8610    6.2230   84.4860 P.3   337  C337        0.2141
   7283  C5'       10.4380    3.8000   83.8160 C.3   337  C337        0.1812
   7284  O5'       10.7550    5.1760   83.6970 O.3   337  C337       -0.3114
   7285  C4'       11.4120    3.0800   82.9620 C.3   337  C337        0.1773
   7286  O4'       11.8920    4.0430   82.0020 O.3   337  C337       -0.3307
   7287  C3'       12.6960    2.6560   83.6460 C.3   337  C337        0.1860
   7288  O3'       12.5830    1.4730   84.4050 O.3   337  C337       -0.3112
   7289  C2'       13.6320    2.5030   82.4550 C.3   337  C337        0.2309
   7290  O2'       13.4220    1.3800   81.6200 O.3   337  C337       -0.2156
   7291  C1'       13.2200    3.7130   81.6280 C.3   337  C337        0.2420
   7292  N1        14.0710    4.8930   81.8400 N.ar  337  C337       -0.2535
   7293  C2        15.3340    4.9120   81.2380 C.ar  337  C337        0.3532
   7294  O2        15.7050    3.9170   80.5950 O.2   337  C337       -0.2443
   7295  N3        16.1230    6.0060   81.3910 N.ar  337  C337       -0.1739
   7296  C4        15.6840    7.0550   82.0780 C.ar  337  C337        0.1759
   7297  N4        16.4970    8.1140   82.2200 N.pl3 337  C337       -0.1070
   7298  C5        14.4000    7.0610   82.7070 C.ar  337  C337        0.0566
   7299  C6        13.6280    5.9720   82.5550 C.ar  337  C337        0.0850
   7300  OP1        8.8060    5.4680   85.2140 O.2   337  C337       -0.5172
   7301  OP2       10.6640    7.2130   85.2630 O.co2 337  C337       -0.4373
   7302  P         13.4620    1.4820   85.7190 P.3   338  G338        0.2141
   7303  C5'       15.0690   -0.0300   84.2630 C.3   338  G338        0.1812
   7304  O5'       14.8770    1.1600   85.0560 O.3   338  G338       -0.3114
   7305  C4'       16.5380   -0.3070   84.0230 C.3   338  G338        0.1773
   7306  O4'       17.0290    0.5090   82.9160 O.3   338  G338       -0.3307
   7307  C3'       17.5030    0.0040   85.1610 C.3   338  G338        0.1860
   7308  O3'       17.5870   -0.9310   86.2260 O.3   338  G338       -0.3112
   7309  C2'       18.8080    0.1550   84.3960 C.3   338  G338        0.2309
   7310  O2'       19.4080   -1.0590   83.9970 O.3   338  G338       -0.2156
   7311  C1'       18.3250    1.0010   83.2270 C.3   338  G338        0.2408
   7312  N1        20.6810    5.4540   83.7990 N.ar  338  G338       -0.1709
   7313  C2        21.1530    4.2810   83.2650 C.ar  338  G338        0.2606
   7314  N2        22.4180    4.3020   82.8120 N.pl3 338  G338       -0.0859
   7315  N3        20.4350    3.1730   83.1660 N.ar  338  G338       -0.1918
   7316  C4        19.1880    3.3320   83.6640 C.ar  338  G338        0.1723
   7317  C5        18.6240    4.4560   84.2270 C.ar  338  G338        0.1748
   7318  C6        19.4050    5.6380   84.3250 C.ar  338  G338        0.3023
   7319  O6        19.0890    6.7330   84.8030 O.2   338  G338       -0.2633
   7320  N7        17.3160    4.2070   84.6220 N.ar  338  G338       -0.2173
   7321  C8        17.1090    2.9630   84.2850 C.ar  338  G338        0.1817
   7322  N9        18.1960    2.3820   83.6750 N.ar  338  G338       -0.2693
   7323  OP1       12.9870    0.3160   86.5060 O.3   338  G338       -0.4373
   7324  OP2       13.4280    2.8420   86.3340 O.co2 338  G338       -0.5172
   7325  P         18.6250   -0.6110   87.4100 P.3   339  U339        0.2141
   7326  C5'       21.2100   -0.5140   86.8200 C.3   339  U339        0.1812
   7327  O5'       19.8630   -0.0710   86.5620 O.3   339  U339       -0.3114
   7328  C4'       22.1280    0.6830   86.8750 C.3   339  U339        0.1773
   7329  O4'       21.4010    1.8530   86.4470 O.3   339  U339       -0.3307
   7330  C3'       22.6440    1.0750   88.2560 C.3   339  U339        0.1860
   7331  O3'       23.8220    0.3320   88.5950 O.3   339  U339       -0.3112
   7332  C2'       22.9530    2.5720   88.1060 C.3   339  U339        0.2309
   7333  O2'       24.3100    2.8630   87.8370 O.3   339  U339       -0.2156
   7334  C1'       22.0850    2.9940   86.9120 C.3   339  U339        0.2420
   7335  N1        21.1120    4.0610   87.2020 N.ar  339  U339       -0.2534
   7336  C2        21.5810    5.3620   87.1960 C.ar  339  U339        0.3546
   7337  O2        22.7470    5.6450   86.9790 O.2   339  U339       -0.2443
   7338  N3        20.6340    6.3200   87.4650 N.ar  339  U339       -0.1530
   7339  C4        19.2960    6.1220   87.7310 C.ar  339  U339        0.2846
   7340  O4        18.5690    7.0940   87.9520 O.2   339  U339       -0.2650
   7341  C5        18.8850    4.7480   87.7130 C.ar  339  U339        0.0814
   7342  C6        19.7860    3.7880   87.4560 C.ar  339  U339        0.0870
   7343  OP1       19.0040   -1.9470   87.9300 O.2   339  U339       -0.5172
   7344  OP2       18.1740    0.4460   88.3620 O.co2 339  U339       -0.4373
   7345  P         24.1660   -0.3220   90.0370 P.3   340  U340        0.2141
   7346  C5'       26.2800    0.3360   91.4940 C.3   340  U340        0.1812
   7347  O5'       25.1250    0.7460   90.7310 O.3   340  U340       -0.3114
   7348  C4'       27.5570    0.6950   90.7630 C.3   340  U340        0.1773
   7349  O4'       28.0440   -0.4680   90.0440 O.3   340  U340       -0.3307
   7350  C3'       27.4560    1.8360   89.7500 C.3   340  U340        0.1860
   7351  O3'       28.5010    2.7950   89.9150 O.3   340  U340       -0.3112
   7352  C2'       27.4760    1.1220   88.3960 C.3   340  U340        0.2309
   7353  O2'       28.0770    1.8810   87.3640 O.3   340  U340       -0.2156
   7354  C1'       28.3090   -0.1240   88.7000 C.3   340  U340        0.2420
   7355  N1        27.9910   -1.2920   87.8620 N.ar  340  U340       -0.2534
   7356  C2        28.0010   -1.1380   86.4840 C.ar  340  U340        0.3546
   7357  O2        28.2420   -0.0760   85.9340 O.2   340  U340       -0.2443
   7358  N3        27.7100   -2.2770   85.7750 N.ar  340  U340       -0.1530
   7359  C4        27.4240   -3.5290   86.2810 C.ar  340  U340        0.2846
   7360  O4        27.1800   -4.4550   85.5050 O.2   340  U340       -0.2650
   7361  C5        27.4410   -3.6100   87.7120 C.ar  340  U340        0.0814
   7362  C6        27.7210   -2.5170   88.4350 C.ar  340  U340        0.0870
   7363  OP1       24.9330   -1.5700   89.7670 O.2   340  U340       -0.5172
   7364  OP2       22.9420   -0.3830   90.8760 O.co2 340  U340       -0.4373
   7365  P         28.6120    3.7700   91.1940 P.3   341  C341        0.2141
   7366  C5'       28.9310    6.3730   91.3420 C.3   341  C341        0.1812
   7367  O5'       28.9430    5.1830   90.5410 O.3   341  C341       -0.3114
   7368  C4'       27.7290    7.2110   90.9910 C.3   341  C341        0.1773
   7369  O4'       26.6560    6.3600   90.5430 O.3   341  C341       -0.3307
   7370  C3'       27.1300    8.0100   92.1440 C.3   341  C341        0.1860
   7371  O3'       27.7080    9.3180   92.2330 O.3   341  C341       -0.3112
   7372  C2'       25.6060    7.9640   91.9150 C.3   341  C341        0.2309
   7373  O2'       25.0000    9.2170   91.6710 O.3   341  C341       -0.2156
   7374  C1'       25.4500    7.0690   90.6800 C.3   341  C341        0.2420
   7375  N1        24.3330    6.1030   90.7460 N.ar  341  C341       -0.2535
   7376  C2        23.0570    6.5170   90.3390 C.ar  341  C341        0.3532
   7377  O2        22.8990    7.6850   89.9530 O.2   341  C341       -0.2443
   7378  N3        22.0310    5.6340   90.3830 N.ar  341  C341       -0.1739
   7379  C4        22.2420    4.3850   90.8060 C.ar  341  C341        0.1759
   7380  N4        21.2030    3.5470   90.8270 N.pl3 341  C341       -0.1070
   7381  C5        23.5310    3.9370   91.2200 C.ar  341  C341        0.0566
   7382  C6        24.5390    4.8190   91.1710 C.ar  341  C341        0.0850
   7383  OP1       29.8250    3.3700   91.9440 O.3   341  C341       -0.4373
   7384  OP2       27.3180    3.8830   91.9160 O.co2 341  C341       -0.5172
   7385  P         27.8050   10.4770   91.1060 P.3   342  G342        0.2141
   7386  C5'       28.1170   10.5660   88.4730 C.3   342  G342        0.1812
   7387  O5'       28.0040    9.7820   89.6830 O.3   342  G342       -0.3114
   7388  C4'       29.2930   10.0940   87.6520 C.3   342  G342        0.1773
   7389  O4'       29.5120    8.6900   87.9120 O.3   342  G342       -0.3307
   7390  C3'       29.1160   10.1930   86.1470 C.3   342  G342        0.1860
   7391  O3'       29.6170   11.4530   85.7130 O.3   342  G342       -0.3112
   7392  C2'       30.0050    9.0750   85.6030 C.3   342  G342        0.2309
   7393  O2'       31.3000    9.5250   85.2680 O.3   342  G342       -0.2156
   7394  C1'       30.0740    8.0820   86.7700 C.3   342  G342        0.2408
   7395  N1        25.5660    5.7580   86.5520 N.ar  342  G342       -0.1709
   7396  C2        25.8550    7.0750   86.8180 C.ar  342  G342        0.2606
   7397  N2        24.8070    7.8770   87.0550 N.pl3 342  G342       -0.0859
   7398  N3        27.0820    7.5690   86.8470 N.ar  342  G342       -0.1918
   7399  C4        28.0120    6.6260   86.5850 C.ar  342  G342        0.1723
   7400  C5        27.8280    5.2880   86.3050 C.ar  342  G342        0.1748
   7401  C6        26.5080    4.7700   86.2760 C.ar  342  G342        0.3023
   7402  O6        26.1390    3.6120   86.0450 O.2   342  G342       -0.2633
   7403  N7        29.0460    4.6580   86.0870 N.ar  342  G342       -0.2173
   7404  C8        29.9310    5.6060   86.2350 C.ar  342  G342        0.1817
   7405  N9        29.3710    6.8250   86.5330 N.ar  342  G342       -0.2693
   7406  OP1       29.0470   11.2340   91.4040 O.3   342  G342       -0.4373
   7407  OP2       26.5070   11.2000   91.1010 O.co2 342  G342       -0.5172
   7408  P         28.7580   12.4800   84.8160 P.3   343  C343        0.2141
   7409  C5'       27.7330   11.5480   82.5520 C.3   343  C343        0.1812
   7410  O5'       28.8850   11.9650   83.3110 O.3   343  C343       -0.3114
   7411  C4'       27.6390   10.0430   82.5560 C.3   343  C343        0.1773
   7412  O4'       26.9530    9.6000   83.7560 O.3   343  C343       -0.3307
   7413  C3'       26.8310    9.4430   81.4240 C.3   343  C343        0.1860
   7414  O3'       27.6460    9.2670   80.2800 O.3   343  C343       -0.3112
   7415  C2'       26.4200    8.0930   81.9960 C.3   343  C343        0.2309
   7416  O2'       27.4090    7.0980   81.8430 O.3   343  C343       -0.2156
   7417  C1'       26.2020    8.4300   83.4740 C.3   343  C343        0.2420
   7418  N1        24.7870    8.6750   83.8260 N.ar  343  C343       -0.2535
   7419  C2        23.8860    7.6030   83.7820 C.ar  343  C343        0.3532
   7420  O2        24.3010    6.4810   83.4530 O.2   343  C343       -0.2443
   7421  N3        22.5860    7.8190   84.0960 N.ar  343  C343       -0.1739
   7422  C4        22.1800    9.0430   84.4480 C.ar  343  C343        0.1759
   7423  N4        20.8920    9.2090   84.7540 N.pl3 343  C343       -0.1070
   7424  C5        23.0760   10.1510   84.4960 C.ar  343  C343        0.0566
   7425  C6        24.3580    9.9240   84.1810 C.ar  343  C343        0.0850
   7426  OP1       29.4120   13.8140   84.8600 O.2   343  C343       -0.5172
   7427  OP2       27.3440   12.3530   85.2420 O.co2 343  C343       -0.4373
   7428  P         26.9080    9.4550   78.8720 P.3   344  G344        0.2141
   7429  C5'       26.8250    6.8560   78.4610 C.3   344  G344        0.1812
   7430  O5'       26.1100    8.0900   78.6630 O.3   344  G344       -0.3114
   7431  C4'       25.8870    5.6720   78.4070 C.3   344  G344        0.1773
   7432  O4'       25.2580    5.4650   79.7040 O.3   344  G344       -0.3307
   7433  C3'       24.7100    5.7660   77.4490 C.3   344  G344        0.1860
   7434  O3'       25.0230    5.5080   76.0900 O.3   344  G344       -0.3112
   7435  C2'       23.7860    4.7030   78.0200 C.3   344  G344        0.2309
   7436  O2'       24.1880    3.3810   77.7210 O.3   344  G344       -0.2156
   7437  C1'       23.9350    4.9810   79.5140 C.3   344  G344        0.2408
   7438  N1        19.1410    5.8910   80.8890 N.ar  344  G344       -0.1709
   7439  C2        19.7270    4.7160   80.4810 C.ar  344  G344        0.2606
   7440  N2        18.9310    3.6360   80.4420 N.pl3 344  G344       -0.0859
   7441  N3        21.0020    4.6050   80.1430 N.ar  344  G344       -0.1918
   7442  C4        21.6530    5.7850   80.2380 C.ar  344  G344        0.1723
   7443  C5        21.1600    7.0140   80.6270 C.ar  344  G344        0.1748
   7444  C6        19.7930    7.1180   80.9940 C.ar  344  G344        0.3023
   7445  O6        19.1680    8.1200   81.3630 O.2   344  G344       -0.2633
   7446  N7        22.1590    7.9780   80.5960 N.ar  344  G344       -0.2173
   7447  C8        23.2210    7.3300   80.2000 C.ar  344  G344        0.1817
   7448  N9        22.9870    5.9930   79.9770 N.ar  344  G344       -0.2693
   7449  OP1       27.8860    9.5190   77.7580 O.2   344  G344       -0.5172
   7450  OP2       25.9730   10.5930   79.0830 O.co2 344  G344       -0.4373
   7451  P         24.2280    6.3640   74.9940 P.3   345  C345        0.2141
   7452  C5'       22.5110    4.5440   74.1580 C.3   345  C345        0.1812
   7453  O5'       22.7790    5.7110   74.9590 O.3   345  C345       -0.3114
   7454  C4'       21.2090    3.9210   74.5950 C.3   345  C345        0.1773
   7455  O4'       21.0820    4.0600   76.0380 O.3   345  C345       -0.3307
   7456  C3'       19.9460    4.5760   74.0570 C.3   345  C345        0.1860
   7457  O3'       19.5700    4.1170   72.7670 O.3   345  C345       -0.3112
   7458  C2'       18.9160    4.1370   75.0840 C.3   345  C345        0.2309
   7459  O2'       18.4600    2.8210   74.8720 O.3   345  C345       -0.2156
   7460  C1'       19.7210    4.2440   76.3780 C.3   345  C345        0.2420
   7461  N1        19.5600    5.5780   76.9500 N.ar  345  C345       -0.2535
   7462  C2        18.4500    5.8150   77.7590 C.ar  345  C345        0.3532
   7463  O2        17.6950    4.8690   78.0290 O.2   345  C345       -0.2443
   7464  N3        18.2430    7.0590   78.2510 N.ar  345  C345       -0.1739
   7465  C4        19.0880    8.0440   77.9440 C.ar  345  C345        0.1759
   7466  N4        18.8490    9.2490   78.4510 N.pl3 345  C345       -0.1070
   7467  C5        20.2110    7.8360   77.0910 C.ar  345  C345        0.0566
   7468  C6        20.4000    6.6010   76.6100 C.ar  345  C345        0.0850
   7469  OP1       24.8510    6.0880   73.6690 O.2   345  C345       -0.5172
   7470  OP2       24.0570    7.7660   75.4670 O.co2 345  C345       -0.4373
   7471  P         18.7490    5.1360   71.8560 P.3   346  C346        0.2141
   7472  C5'       16.4960    4.0290   72.6270 C.3   346  C346        0.1812
   7473  O5'       17.3370    5.1900   72.5840 O.3   346  C346       -0.3114
   7474  C4'       15.1400    4.4030   73.1710 C.3   346  C346        0.1773
   7475  O4'       15.2720    4.8510   74.5420 O.3   346  C346       -0.3307
   7476  C3'       14.4410    5.5550   72.4730 C.3   346  C346        0.1860
   7477  O3'       13.8750    5.1210   71.2400 O.3   346  C346       -0.3112
   7478  C2'       13.4570    6.0200   73.5460 C.3   346  C346        0.2309
   7479  O2'       12.2140    5.3750   73.7420 O.3   346  C346       -0.2156
   7480  C1'       14.2600    5.7920   74.8260 C.3   346  C346        0.2420
   7481  N1        14.8960    7.0390   75.2220 N.ar  346  C346       -0.2535
   7482  C2        14.2080    7.8900   76.0870 C.ar  346  C346        0.3532
   7483  O2        13.1070    7.5260   76.5450 O.2   346  C346       -0.2443
   7484  N3        14.7660    9.0720   76.4270 N.ar  346  C346       -0.1739
   7485  C4        15.9390    9.4370   75.8860 C.ar  346  C346        0.1759
   7486  N4        16.4500   10.6200   76.2340 N.pl3 346  C346       -0.1070
   7487  C5        16.6490    8.5990   74.9760 C.ar  346  C346        0.0566
   7488  C6        16.0880    7.4260   74.6620 C.ar  346  C346        0.0850
   7489  OP1       18.5850    4.5620   70.5000 O.2   346  C346       -0.5172
   7490  OP2       19.2860    6.5100   72.0190 O.co2 346  C346       -0.4373
   7491  P         13.8840    6.1760   70.0530 P.3   347  U347        0.2141
   7492  C5'       11.4790    6.7290   70.8160 C.3   347  U347        0.1812
   7493  O5'       12.8620    7.0970   70.8490 O.3   347  U347       -0.3114
   7494  C4'       10.6490    7.7420   71.5340 C.3   347  U347        0.1773
   7495  O4'       11.3160    8.1030   72.7610 O.3   347  U347       -0.3307
   7496  C3'       10.4690    9.0530   70.8060 C.3   347  U347        0.1860
   7497  O3'        9.3650    8.9740   69.9200 O.3   347  U347       -0.3112
   7498  C2'       10.1590   10.0120   71.9400 C.3   347  U347        0.2309
   7499  O2'        8.7820    9.9020   72.1940 O.3   347  U347       -0.2156
   7500  C1'       10.9840    9.4330   73.0940 C.3   347  U347        0.2420
   7501  N1        12.2310   10.1680   73.3260 N.ar  347  U347       -0.2534
   7502  C2        12.1850   11.2980   74.1240 C.ar  347  U347        0.3546
   7503  O2        11.1620   11.7030   74.6500 O.2   347  U347       -0.2443
   7504  N3        13.3870   11.9370   74.2830 N.ar  347  U347       -0.1530
   7505  C4        14.6010   11.5780   73.7380 C.ar  347  U347        0.2846
   7506  O4        15.5940   12.2670   73.9710 O.2   347  U347       -0.2650
   7507  C5        14.5690   10.3920   72.9330 C.ar  347  U347        0.0814
   7508  C6        13.4140    9.7400   72.7650 C.ar  347  U347        0.0870
   7509  OP1       13.2050    5.8590   68.7650 O.2   347  U347       -0.5172
   7510  OP2       15.2510    6.7210   69.9930 O.co2 347  U347       -0.4373
   7511  P          9.5190    9.8660   68.6030 P.3   348  A348        0.2141
   7512  C5'        8.1100   11.8360   69.6010 C.3   348  A348        0.1812
   7513  O5'        9.3790   11.3300   69.1930 O.3   348  A348       -0.3114
   7514  C4'        8.2390   13.3140   69.8500 C.3   348  A348        0.1773
   7515  O4'        9.4130   13.5740   70.6670 O.3   348  A348       -0.3307
   7516  C3'        8.3920   14.1940   68.6130 C.3   348  A348        0.1860
   7517  O3'        7.5620   15.3240   68.8200 O.3   348  A348       -0.3112
   7518  C2'        9.8810   14.5210   68.6050 C.3   348  A348        0.2309
   7519  O2'       10.1750   15.7480   67.9900 O.3   348  A348       -0.2156
   7520  C1'       10.1760   14.6190   70.0930 C.3   348  A348        0.2408
   7521  N1        14.2170   16.2350   72.8580 N.ar  348  A348       -0.2040
   7522  C2        13.0020   16.7650   72.6550 C.ar  348  A348        0.2016
   7523  N3        11.9970   16.3080   71.9090 N.ar  348  A348       -0.2048
   7524  C4        12.3350   15.1450   71.3220 C.ar  348  A348        0.1692
   7525  C5        13.5410   14.4750   71.4420 C.ar  348  A348        0.1518
   7526  C6        14.5230   15.0660   72.2530 C.ar  348  A348        0.1919
   7527  N6        15.7340   14.5360   72.4510 N.pl3 348  A348       -0.1054
   7528  N7        13.5340   13.3120   70.6860 N.ar  348  A348       -0.2193
   7529  C8        12.3420   13.2980   70.1420 C.ar  348  A348        0.1816
   7530  N9        11.5720   14.3890   70.4640 N.ar  348  A348       -0.2693
   7531  OP1        8.3940    9.7440   67.6650 O.2   348  A348       -0.5172
   7532  OP2       10.8970    9.7860   68.0600 O.co2 348  A348       -0.4373
   7533  P          6.2800   15.3920   67.8730 P.3   349  A349        0.2141
   7534  C5'        3.9760   16.0430   68.9010 C.3   349  A349        0.1812
   7535  O5'        5.3650   15.8310   69.0990 O.3   349  A349       -0.3114
   7536  C4'        3.4610   16.9530   69.9780 C.3   349  A349        0.1773
   7537  O4'        3.9320   16.4510   71.2540 O.3   349  A349       -0.3307
   7538  C3'        3.9520   18.3950   69.9140 C.3   349  A349        0.1860
   7539  O3'        3.1190   19.2640   69.1590 O.3   349  A349       -0.3112
   7540  C2'        3.9870   18.8020   71.3770 C.3   349  A349        0.2309
   7541  O2'        2.7010   19.0200   71.8900 O.3   349  A349       -0.2156
   7542  C1'        4.4380   17.5110   72.0370 C.3   349  A349        0.2408
   7543  N1         8.6140   18.9630   74.5800 N.ar  349  A349       -0.2040
   7544  C2         7.3170   19.2500   74.7270 C.ar  349  A349        0.2016
   7545  N3         6.2770   18.8360   74.0100 N.ar  349  A349       -0.2048
   7546  C4         6.6760   18.0100   73.0300 C.ar  349  A349        0.1692
   7547  C5         7.9710   17.6140   72.7530 C.ar  349  A349        0.1518
   7548  C6         8.9840   18.1340   73.5810 C.ar  349  A349        0.1919
   7549  N6        10.2810   17.8590   73.4270 N.pl3 349  A349       -0.1054
   7550  N7         8.0030   16.7700   71.6480 N.ar  349  A349       -0.2193
   7551  C8         6.7440   16.6680   71.2970 C.ar  349  A349        0.1816
   7552  N9         5.8860   17.3860   72.0990 N.ar  349  A349       -0.2693
   7553  OP1        6.0100   13.9890   67.4680 O.3   349  A349       -0.4373
   7554  OP2        6.4270   16.4470   66.7510 O.co2 349  A349       -0.5172
   7555  P          3.9910   20.1870   68.1700 P.3   350  G350        0.2141
   7556  C5'        4.0490   22.0710   70.0210 C.3   350  G350        0.1812
   7557  O5'        4.7280   21.0470   69.2920 O.3   350  G350       -0.3114
   7558  C4'        5.0460   22.7610   70.9110 C.3   350  G350        0.1773
   7559  O4'        5.7180   21.7770   71.7490 O.3   350  G350       -0.3307
   7560  C3'        6.1910   23.4570   70.1990 C.3   350  G350        0.1860
   7561  O3'        5.8190   24.7320   69.6960 O.3   350  G350       -0.3112
   7562  C2'        7.2280   23.4990   71.3100 C.3   350  G350        0.2309
   7563  O2'        6.8530   24.4000   72.3370 O.3   350  G350       -0.2156
   7564  C1'        7.1040   22.0770   71.8470 C.3   350  G350        0.2408
   7565  N1        11.5470   19.7420   70.9800 N.ar  350  G350       -0.1709
   7566  C2        11.2510   20.7320   71.8840 C.ar  350  G350        0.2606
   7567  N2        12.2610   21.1340   72.6620 N.pl3 350  G350       -0.0859
   7568  N3        10.0480   21.2680   72.0310 N.ar  350  G350       -0.1918
   7569  C4         9.1570   20.7410   71.1660 C.ar  350  G350        0.1723
   7570  C5         9.3590   19.7630   70.2100 C.ar  350  G350        0.1748
   7571  C6        10.6470   19.1970   70.0710 C.ar  350  G350        0.3023
   7572  O6        11.0280   18.3490   69.2620 O.2   350  G350       -0.2633
   7573  N7         8.1910   19.5150   69.5040 N.ar  350  G350       -0.2173
   7574  C8         7.3100   20.3100   70.0500 C.ar  350  G350        0.1817
   7575  N9         7.8320   21.0890   71.0560 N.ar  350  G350       -0.2693
   7576  OP1        3.1340   21.2440   67.5540 O.3   350  G350       -0.4373
   7577  OP2        4.9650   19.4000   67.3170 O.co2 350  G350       -0.5172
   7578  P          6.3840   25.1630   68.2650 P.3   351  C351        0.2141
   7579  C5'        8.4340   26.2370   69.5040 C.3   351  C351        0.1812
   7580  O5'        7.9510   25.3390   68.4910 O.3   351  C351       -0.3114
   7581  C4'        9.9390   26.2180   69.5580 C.3   351  C351        0.1773
   7582  O4'       10.3760   25.0330   70.2770 O.3   351  C351       -0.3307
   7583  C3'       10.6850   26.1460   68.2350 C.3   351  C351        0.1860
   7584  O3'       10.8770   27.4270   67.6650 O.3   351  C351       -0.3112
   7585  C2'       12.0270   25.6190   68.7110 C.3   351  C351        0.2309
   7586  O2'       12.8030   26.5910   69.3720 O.3   351  C351       -0.2156
   7587  C1'       11.5840   24.5600   69.7230 C.3   351  C351        0.2420
   7588  N1        11.2990   23.3110   69.0220 N.ar  351  C351       -0.2535
   7589  C2        12.3730   22.5400   68.5750 C.ar  351  C351        0.3532
   7590  O2        13.5230   22.8820   68.8860 O.2   351  C351       -0.2443
   7591  N3        12.1300   21.4250   67.8470 N.ar  351  C351       -0.1739
   7592  C4        10.8750   21.0900   67.5440 C.ar  351  C351        0.1759
   7593  N4        10.6750   19.9670   66.8610 N.pl3 351  C351       -0.1070
   7594  C5         9.7650   21.8900   67.9390 C.ar  351  C351        0.0566
   7595  C6        10.0200   22.9830   68.6700 C.ar  351  C351        0.0850
   7596  OP1        5.6570   26.4430   68.1640 O.3   351  C351       -0.4373
   7597  OP2        6.2890   24.1780   67.1520 O.co2 351  C351       -0.5172
   7598  P         10.7740   27.9320   66.1330 P.3   352  U352        0.2141
   7599  C5'       13.3780   27.8420   66.5640 C.3   352  U352        0.1812
   7600  O5'       12.2860   27.8790   65.6310 O.3   352  U352       -0.3114
   7601  C4'       14.6040   27.3080   65.8780 C.3   352  U352        0.1773
   7602  O4'       14.9140   25.9990   66.4240 O.3   352  U352       -0.3307
   7603  C3'       14.4860   27.0820   64.3740 C.3   352  U352        0.1860
   7604  O3'       14.8670   28.2010   63.5940 O.3   352  U352       -0.3112
   7605  C2'       15.5750   26.0490   64.1390 C.3   352  U352        0.2309
   7606  O2'       16.8080   26.6830   63.8430 O.3   352  U352       -0.2156
   7607  C1'       15.4540   25.1810   65.4010 C.3   352  U352        0.2420
   7608  N1        14.5300   24.0620   65.1480 N.ar  352  U352       -0.2534
   7609  C2        15.0760   22.8190   64.8710 C.ar  352  U352        0.3546
   7610  O2        16.2730   22.5920   64.9200 O.2   352  U352       -0.2443
   7611  N3        14.1590   21.8430   64.5710 N.ar  352  U352       -0.1530
   7612  C4        12.7890   21.9780   64.4910 C.ar  352  U352        0.2846
   7613  O4        12.0980   20.9960   64.2120 O.2   352  U352       -0.2650
   7614  C5        12.3040   23.2960   64.7660 C.ar  352  U352        0.0814
   7615  C6        13.1700   24.2720   65.0640 C.ar  352  U352        0.0870
   7616  OP1       10.2700   29.3190   66.3510 O.3   352  U352       -0.4373
   7617  OP2       10.1350   27.1220   65.0630 O.co2 352  U352       -0.5172
   7618  P         14.7110   28.3580   62.0050 P.3   353  U353        0.2141
   7619  C5'       17.0650   27.3200   61.3450 C.3   353  U353        0.1812
   7620  O5'       15.6550   27.4290   61.1250 O.3   353  U353       -0.3114
   7621  C4'       17.5890   26.1650   60.5340 C.3   353  U353        0.1773
   7622  O4'       17.4410   24.9300   61.3030 O.3   353  U353       -0.3307
   7623  C3'       16.8460   25.8660   59.2330 C.3   353  U353        0.1860
   7624  O3'       17.2250   26.6300   58.0970 O.3   353  U353       -0.3112
   7625  C2'       17.2450   24.4180   58.9960 C.3   353  U353        0.2309
   7626  O2'       18.5450   24.2850   58.4500 O.3   353  U353       -0.2156
   7627  C1'       17.1390   23.8500   60.4140 C.3   353  U353        0.2420
   7628  N1        15.7800   23.3410   60.6840 N.ar  353  U353       -0.2534
   7629  C2        15.4540   22.0950   60.1850 C.ar  353  U353        0.3546
   7630  O2        16.2470   21.3960   59.5890 O.2   353  U353       -0.2443
   7631  N3        14.1650   21.6930   60.4280 N.ar  353  U353       -0.1530
   7632  C4        13.1840   22.3940   61.0940 C.ar  353  U353        0.2846
   7633  O4        12.0690   21.8920   61.2360 O.2   353  U353       -0.2650
   7634  C5        13.5930   23.6770   61.5730 C.ar  353  U353        0.0814
   7635  C6        14.8440   24.1010   61.3480 C.ar  353  U353        0.0870
   7636  OP1       15.1530   29.7610   61.8430 O.3   353  U353       -0.4373
   7637  OP2       13.3730   27.9920   61.4950 O.co2 353  U353       -0.5172
   7638  P         16.3800   26.6490   56.7030 P.3   354  G354        0.2141
   7639  C5'       17.7370   24.8120   55.3600 C.3   354  G354        0.1812
   7640  O5'       16.5760   25.1750   56.1140 O.3   354  G354       -0.3114
   7641  C4'       17.6280   23.3930   54.8810 C.3   354  G354        0.1773
   7642  O4'       17.3500   22.4970   55.9970 O.3   354  G354       -0.3307
   7643  C3'       16.5320   23.0770   53.8760 C.3   354  G354        0.1860
   7644  O3'       16.9050   23.3460   52.5250 O.3   354  G354       -0.3112
   7645  C2'       16.4430   21.5630   54.0300 C.3   354  G354        0.2309
   7646  O2'       17.5600   20.9220   53.4420 O.3   354  G354       -0.2156
   7647  C1'       16.5450   21.4110   55.5460 C.3   354  G354        0.2408
   7648  N1        12.2330   18.9340   56.6150 N.ar  354  G354       -0.1709
   7649  C2        13.3160   18.5190   55.8860 C.ar  354  G354        0.2606
   7650  N2        13.2420   17.2870   55.3760 N.pl3 354  G354       -0.0859
   7651  N3        14.3910   19.2590   55.6710 N.ar  354  G354       -0.1918
   7652  C4        14.2910   20.4730   56.2490 C.ar  354  G354        0.1723
   7653  C5        13.2510   20.9880   56.9910 C.ar  354  G354        0.1748
   7654  C6        12.1060   20.1750   57.2210 C.ar  354  G354        0.3023
   7655  O6        11.0840   20.4400   57.8630 O.2   354  G354       -0.2633
   7656  N7        13.5440   22.2730   57.4260 N.ar  354  G354       -0.2173
   7657  C8        14.7330   22.5140   56.9440 C.ar  354  G354        0.1817
   7658  N9        15.2470   21.4630   56.2240 N.ar  354  G354       -0.2693
   7659  OP1       17.0390   27.6180   55.7850 O.2   354  G354       -0.5172
   7660  OP2       14.9210   26.8260   56.8980 O.co2 354  G354       -0.4373
   7661  P         16.0210   24.1880   51.4890 P.3   355  A355        0.2141
   7662  C5'       16.4980   26.8120   51.2020 C.3   355  A355        0.1812
   7663  O5'       16.8160   25.5370   51.8070 O.3   355  A355       -0.3114
   7664  C4'       17.7080   27.3770   50.4910 C.3   355  A355        0.1773
   7665  O4'       18.9160   27.2230   51.2950 O.3   355  A355       -0.3307
   7666  C3'       18.0600   26.6750   49.1920 C.3   355  A355        0.1860
   7667  O3'       17.1280   27.0070   48.1570 O.3   355  A355       -0.3112
   7668  C2'       19.5210   27.0690   49.0040 C.3   355  A355        0.2309
   7669  O2'       19.6360   28.4020   48.6000 O.3   355  A355       -0.2156
   7670  C1'       20.0430   27.1030   50.4380 C.3   355  A355        0.2408
   7671  N1        24.6350   24.7410   50.5640 N.ar  355  A355       -0.2040
   7672  C2        24.2560   25.9410   50.1070 C.ar  355  A355        0.2016
   7673  N3        23.0460   26.4990   50.0980 N.ar  355  A355       -0.2048
   7674  C4        22.1380   25.6720   50.6410 C.ar  355  A355        0.1692
   7675  C5        22.3740   24.4100   51.1600 C.ar  355  A355        0.1518
   7676  C6        23.7010   23.9340   51.1130 C.ar  355  A355        0.1919
   7677  N6        24.0830   22.7380   51.5730 N.pl3 355  A355       -0.1054
   7678  N7        21.1990   23.8540   51.6460 N.ar  355  A355       -0.2193
   7679  C8        20.2950   24.7770   51.4180 C.ar  355  A355        0.1816
   7680  N9        20.7940   25.9050   50.8150 N.ar  355  A355       -0.2693
   7681  OP1       14.6500   24.3130   52.0140 O.3   355  A355       -0.4373
   7682  OP2       16.2120   23.7180   50.0870 O.co2 355  A355       -0.5172
   7683  P         16.8930   25.9540   46.9440 P.3   356  A356        0.2141
   7684  C5'       18.8190   25.5240   45.2370 C.3   356  A356        0.1812
   7685  O5'       18.3030   26.2950   46.3080 O.3   356  A356       -0.3114
   7686  C4'       20.3120   25.4370   45.3640 C.3   356  A356        0.1773
   7687  O4'       20.7110   25.4910   46.7620 O.3   356  A356       -0.3307
   7688  C3'       20.8990   24.1420   44.8330 C.3   356  A356        0.1860
   7689  O3'       21.0630   24.3500   43.4470 O.3   356  A356       -0.3112
   7690  C2'       22.1820   24.0190   45.6340 C.3   356  A356        0.2309
   7691  O2'       23.2770   24.6520   45.0090 O.3   356  A356       -0.2156
   7692  C1'       21.7310   24.5410   47.0050 C.3   356  A356        0.2408
   7693  N1        22.4330   19.8800   49.0850 N.ar  356  A356       -0.2040
   7694  C2        23.2440   20.6810   48.3790 C.ar  356  A356        0.2016
   7695  N3        23.0020   21.8860   47.8670 N.ar  356  A356       -0.2048
   7696  C4        21.7470   22.2790   48.1520 C.ar  356  A356        0.1692
   7697  C5        20.7940   21.5620   48.8520 C.ar  356  A356        0.1518
   7698  C6        21.1760   20.3000   49.3430 C.ar  356  A356        0.1919
   7699  N6        20.3670   19.4990   50.0380 N.pl3 356  A356       -0.1054
   7700  N7        19.6060   22.2760   48.9340 N.ar  356  A356       -0.2193
   7701  C8        19.8660   23.3930   48.2990 C.ar  356  A356        0.1816
   7702  N9        21.1490   23.4700   47.8160 N.ar  356  A356       -0.2693
   7703  OP1       15.9200   26.3080   45.8820 O.2   356  A356       -0.5172
   7704  OP2       16.9140   24.5450   47.4340 O.co2 356  A356       -0.4373
   7705  P         20.3800   23.1890   42.5910 P.3   357  C357        0.2141
   7706  C5'       22.8780   22.3650   42.5580 C.3   357  C357        0.1812
   7707  O5'       21.5010   22.0840   42.8840 O.3   357  C357       -0.3114
   7708  C4'       23.8270   21.3600   43.1500 C.3   357  C357        0.1773
   7709  O4'       23.6760   21.2970   44.5870 O.3   357  C357       -0.3307
   7710  C3'       23.6730   19.9150   42.7140 C.3   357  C357        0.1860
   7711  O3'       24.3060   19.7420   41.4660 O.3   357  C357       -0.3112
   7712  C2'       24.4690   19.2200   43.8030 C.3   357  C357        0.2309
   7713  O2'       25.8470   19.4140   43.6130 O.3   357  C357       -0.2156
   7714  C1'       23.9950   19.9890   45.0360 C.3   357  C357        0.2420
   7715  N1        22.7710   19.3600   45.5430 N.ar  357  C357       -0.2535
   7716  C2        22.8910   18.1540   46.2360 C.ar  357  C357        0.3532
   7717  O2        24.0270   17.7100   46.4650 O.2   357  C357       -0.2443
   7718  N3        21.7700   17.5280   46.6770 N.ar  357  C357       -0.1739
   7719  C4        20.5680   18.0480   46.4080 C.ar  357  C357        0.1759
   7720  N4        19.4900   17.3980   46.8520 N.pl3 357  C357       -0.1070
   7721  C5        20.4190   19.2590   45.6720 C.ar  357  C357        0.0566
   7722  C6        21.5350   19.8710   45.2540 C.ar  357  C357        0.0850
   7723  OP1       20.4230   23.6930   41.1930 O.2   357  C357       -0.5172
   7724  OP2       19.0820   22.7210   43.1320 O.co2 357  C357       -0.4373
   7725  P         24.1480   18.5090   40.4810 P.3   358  C358        0.2141
   7726  C5'       26.1470   17.1660   41.5370 C.3   358  C358        0.1812
   7727  O5'       24.7320   17.4200   41.4800 O.3   358  C358       -0.3114
   7728  C4'       26.4110   15.7500   41.9700 C.3   358  C358        0.1773
   7729  O4'       26.0520   15.5600   43.3700 O.3   358  C358       -0.3307
   7730  C3'       25.6090   14.6750   41.2700 C.3   358  C358        0.1860
   7731  O3'       26.1410   14.4000   39.9970 O.3   358  C358       -0.3112
   7732  C2'       25.8230   13.5260   42.2360 C.3   358  C358        0.2309
   7733  O2'       27.1620   13.0920   42.2130 O.3   358  C358       -0.2156
   7734  C1'       25.5660   14.2400   43.5620 C.3   358  C358        0.2420
   7735  N1        24.1180   14.2980   43.8190 N.ar  358  C358       -0.2535
   7736  C2        23.4550   13.1210   44.1810 C.ar  358  C358        0.3532
   7737  O2        24.1170   12.0930   44.3620 O.2   358  C358       -0.2443
   7738  N3        22.1170   13.1430   44.3660 N.ar  358  C358       -0.1739
   7739  C4        21.4400   14.2750   44.1790 C.ar  358  C358        0.1759
   7740  N4        20.1200   14.2440   44.3460 N.pl3 358  C358       -0.1070
   7741  C5        22.0870   15.4870   43.7990 C.ar  358  C358        0.0566
   7742  C6        23.4130   15.4500   43.6160 C.ar  358  C358        0.0850
   7743  OP1       25.1360   18.6280   39.3550 O.2   358  C358       -0.5172
   7744  OP2       22.7470   18.1570   40.1730 O.co2 358  C358       -0.4373
   7745  P         25.2970   14.6190   38.6890 P.3   359  G359        0.2141
   7746  C5'       23.5530   12.6960   38.2800 C.3   359  G359        0.1812
   7747  O5'       23.8580   13.9690   38.8610 O.3   359  G359       -0.3114
   7748  C4'       24.0570   11.5780   39.1630 C.3   359  G359        0.1773
   7749  O4'       23.8510   11.8790   40.5750 O.3   359  G359       -0.3307
   7750  C3'       23.3870   10.2340   38.9310 C.3   359  G359        0.1860
   7751  O3'       24.2140    9.5630   38.0090 O.3   359  G359       -0.3112
   7752  C2'       23.6090    9.5350   40.2550 C.3   359  G359        0.2309
   7753  O2'       24.8320    8.8520   40.2240 O.3   359  G359       -0.2156
   7754  C1'       23.5200   10.6920   41.2590 C.3   359  G359        0.2408
   7755  N1        19.7480    8.3640   43.7160 N.ar  359  G359       -0.1709
   7756  C2        21.0400    7.9530   43.5180 C.ar  359  G359        0.2606
   7757  N2        21.3580    6.7560   44.0170 N.pl3 359  G359       -0.0859
   7758  N3        21.9470    8.6560   42.8600 N.ar  359  G359       -0.1918
   7759  C4        21.4500    9.8330   42.4150 C.ar  359  G359        0.1723
   7760  C5        20.1770   10.3360   42.5600 C.ar  359  G359        0.1748
   7761  C6        19.2120    9.5640   43.2610 C.ar  359  G359        0.3023
   7762  O6        18.0320    9.8330   43.4950 O.2   359  G359       -0.2633
   7763  N7        20.0690   11.5820   41.9580 N.ar  359  G359       -0.2173
   7764  C8        21.2570   11.8070   41.4650 C.ar  359  G359        0.1817
   7765  N9        22.1480   10.7990   41.7270 N.ar  359  G359       -0.2693
   7766  OP1       26.0150   13.8370   37.6180 O.2   359  G359       -0.5172
   7767  OP2       25.0180   16.0750   38.5540 O.co2 359  G359       -0.4373
   7768  P         23.7280    8.6080   36.8280 P.3   360  C360        0.2141
   7769  C5'       24.0120    6.4350   38.3180 C.3   360  C360        0.1812
   7770  O5'       23.2000    7.5420   37.8930 O.3   360  C360       -0.3114
   7771  C4'       23.1830    5.4890   39.1220 C.3   360  C360        0.1773
   7772  O4'       22.5760    6.2220   40.2110 O.3   360  C360       -0.3307
   7773  C3'       22.0130    4.8780   38.3800 C.3   360  C360        0.1860
   7774  O3'       22.4120    3.6740   37.7480 O.3   360  C360       -0.3112
   7775  C2'       21.0450    4.5420   39.5050 C.3   360  C360        0.2309
   7776  O2'       21.3870    3.3590   40.1850 O.3   360  C360       -0.2156
   7777  C1'       21.2960    5.6810   40.4870 C.3   360  C360        0.2420
   7778  N1        20.2990    6.7550   40.4010 N.ar  360  C360       -0.2535
   7779  C2        19.1030    6.6140   41.1150 C.ar  360  C360        0.3532
   7780  O2        18.9180    5.5850   41.7810 O.2   360  C360       -0.2443
   7781  N3        18.1820    7.6020   41.0620 N.ar  360  C360       -0.1739
   7782  C4        18.4230    8.6980   40.3430 C.ar  360  C360        0.1759
   7783  N4        17.4960    9.6510   40.3390 N.pl3 360  C360       -0.1070
   7784  C5        19.6360    8.8720   39.6100 C.ar  360  C360        0.0566
   7785  C6        20.5330    7.8810   39.6600 C.ar  360  C360        0.0850
   7786  OP1       24.9540    8.2590   36.0010 O.2   360  C360       -0.5172
   7787  OP2       22.4840    9.0260   36.1410 O.co2 360  C360       -0.4373
   7788  P         21.6530    3.3830   36.3780 P.3   361  C361        0.2141
   7789  C5'       20.4140    1.4810   37.6390 C.3   361  C361        0.1812
   7790  O5'       20.3900    2.4320   36.5840 O.3   361  C361       -0.3114
   7791  C4'       19.0340    0.9440   37.8890 C.3   361  C361        0.1773
   7792  O4'       18.4510    1.6250   39.0340 O.3   361  C361       -0.3307
   7793  C3'       18.0310    1.1150   36.7650 C.3   361  C361        0.1860
   7794  O3'       17.9980   -0.0970   36.0650 O.3   361  C361       -0.3112
   7795  C2'       16.7160    1.1280   37.5230 C.3   361  C361        0.2309
   7796  O2'       16.3390   -0.1520   37.9830 O.3   361  C361       -0.2156
   7797  C1'       17.0890    1.9200   38.7710 C.3   361  C361        0.2420
   7798  N1        16.9130    3.3820   38.6220 N.ar  361  C361       -0.2535
   7799  C2        15.6470    3.9230   38.8520 C.ar  361  C361        0.3532
   7800  O2        14.7260    3.1690   39.1950 O.2   361  C361       -0.2443
   7801  N3        15.4630    5.2560   38.7190 N.ar  361  C361       -0.1739
   7802  C4        16.4860    6.0380   38.3750 C.ar  361  C361        0.1759
   7803  N4        16.2570    7.3430   38.2610 N.pl3 361  C361       -0.1070
   7804  C5        17.7860    5.5130   38.1280 C.ar  361  C361        0.0566
   7805  C6        17.9520    4.1930   38.2550 C.ar  361  C361        0.0850
   7806  OP1       22.6520    2.7470   35.4720 O.2   361  C361       -0.5172
   7807  OP2       21.1040    4.7270   36.0710 O.co2 361  C361       -0.4373
   7808  P         17.2570   -0.2280   34.6610 P.3   362  G362        0.2141
   7809  C5'       15.0390   -1.3810   35.5420 C.3   362  G362        0.1812
   7810  O5'       15.7090   -0.2300   35.0430 O.3   362  G362       -0.3114
   7811  C4'       13.5830   -1.0580   35.7370 C.3   362  G362        0.1773
   7812  O4'       13.4220    0.0060   36.7100 O.3   362  G362       -0.3307
   7813  C3'       12.9060   -0.5350   34.4900 C.3   362  G362        0.1860
   7814  O3'       12.5230   -1.6660   33.7450 O.3   362  G362       -0.3112
   7815  C2'       11.7310    0.2520   35.0630 C.3   362  G362        0.2309
   7816  O2'       10.6350   -0.5210   35.4970 O.3   362  G362       -0.2156
   7817  C1'       12.3510    0.8600   36.3170 C.3   362  G362        0.2408
   7818  N1        11.2370    5.7910   35.7640 N.ar  362  G362       -0.1709
   7819  C2        10.3970    4.7280   35.9580 C.ar  362  G362        0.2606
   7820  N2         9.0980    5.0210   36.0360 N.pl3 362  G362       -0.0859
   7821  N3        10.8030    3.4760   36.0870 N.ar  362  G362       -0.1918
   7822  C4        12.1440    3.3680   35.9950 C.ar  362  G362        0.1723
   7823  C5        13.0730    4.3660   35.8120 C.ar  362  G362        0.1748
   7824  C6        12.6220    5.7100   35.6890 C.ar  362  G362        0.3023
   7825  O6        13.2910    6.7390   35.5200 O.2   362  G362       -0.2633
   7826  N7        14.3580    3.8420   35.7800 N.ar  362  G362       -0.2173
   7827  C8        14.1890    2.5630   35.9600 C.ar  362  G362        0.1817
   7828  N9        12.8710    2.2080   36.1010 N.ar  362  G362       -0.2693
   7829  OP1       17.5930   -1.5530   34.0510 O.3   362  G362       -0.4373
   7830  OP2       17.5220    1.0230   33.8810 O.co2 362  G362       -0.5172
   7831  P         12.7040   -1.6350   32.1810 P.3   363  U363        0.2141
   7832  C5'       10.0240   -1.5690   32.0770 C.3   363  U363        0.1812
   7833  O5'       11.3090   -1.0010   31.7200 O.3   363  U363       -0.3114
   7834  C4'        8.9450   -0.5120   32.0030 C.3   363  U363        0.1773
   7835  O4'        9.2400    0.5100   32.9930 O.3   363  U363       -0.3307
   7836  C3'        8.8940    0.2570   30.6960 C.3   363  U363        0.1860
   7837  O3'        8.2950   -0.4240   29.6060 O.3   363  U363       -0.3112
   7838  C2'        8.2840    1.6050   31.1010 C.3   363  U363        0.2309
   7839  O2'        6.8860    1.8220   31.0130 O.3   363  U363       -0.2156
   7840  C1'        8.8330    1.7890   32.5190 C.3   363  U363        0.2420
   7841  N1         9.9860    2.7080   32.5570 N.ar  363  U363       -0.2534
   7842  C2         9.7160    4.0620   32.5880 C.ar  363  U363        0.3546
   7843  O2         8.5840    4.5080   32.6310 O.2   363  U363       -0.2443
   7844  N3        10.8240    4.8730   32.6000 N.ar  363  U363       -0.1530
   7845  C4        12.1460    4.4850   32.5610 C.ar  363  U363        0.2846
   7846  O4        13.0360    5.3450   32.5490 O.2   363  U363       -0.2650
   7847  C5        12.3440    3.0670   32.5380 C.ar  363  U363        0.0814
   7848  C6        11.2840    2.2480   32.5310 C.ar  363  U363        0.0870
   7849  OP1       12.7580   -3.0460   31.7120 O.2   363  U363       -0.5172
   7850  OP2       13.8240   -0.7230   31.8450 O.co2 363  U363       -0.4373
   7851  P          9.0010   -0.0200   28.1950 P.3   364  A364        0.2141
   7852  C5'        7.1310    1.7770   27.7040 C.3   364  A364        0.1812
   7853  O5'        8.5210    1.4750   27.9220 O.3   364  A364       -0.3114
   7854  C4'        6.9650    3.2630   27.6190 C.3   364  A364        0.1773
   7855  O4'        7.5740    3.8800   28.7810 O.3   364  A364       -0.3307
   7856  C3'        7.7250    3.9140   26.4780 C.3   364  A364        0.1860
   7857  O3'        7.0360    3.7440   25.2530 O.3   364  A364       -0.3112
   7858  C2'        7.7750    5.3580   26.9440 C.3   364  A364        0.2309
   7859  O2'        6.5550    6.0300   26.7200 O.3   364  A364       -0.2156
   7860  C1'        8.0070    5.1840   28.4450 C.3   364  A364        0.2408
   7861  N1        11.8170    8.5010   29.3640 N.ar  364  A364       -0.2040
   7862  C2        10.5220    8.6730   29.0640 C.ar  364  A364        0.2016
   7863  N3         9.5790    7.7600   28.8430 N.ar  364  A364       -0.2048
   7864  C4        10.0870    6.5180   28.9490 C.ar  364  A364        0.1692
   7865  C5        11.3950    6.1820   29.2480 C.ar  364  A364        0.1518
   7866  C6        12.2930    7.2410   29.4700 C.ar  364  A364        0.1919
   7867  N6        13.5750    7.0680   29.7890 N.pl3 364  A364       -0.1054
   7868  N7        11.5490    4.8040   29.2910 N.ar  364  A364       -0.2193
   7869  C8        10.3510    4.3450   29.0190 C.ar  364  A364        0.1816
   7870  N9         9.4170    5.3260   28.8020 N.ar  364  A364       -0.2693
   7871  OP1        8.3870   -0.8300   27.1140 O.2   364  A364       -0.5172
   7872  OP2       10.4960    0.0050   28.3040 O.co2 364  A364       -0.4373
   7873  P          7.8910    3.5790   23.8980 P.3   365  U365        0.2141
   7874  C5'        7.8060    6.1610   23.4240 C.3   365  U365        0.1812
   7875  O5'        8.5910    4.9980   23.7390 O.3   365  U365       -0.3114
   7876  C4'        8.6770    7.3800   23.5000 C.3   365  U365        0.1773
   7877  O4'        9.1230    7.5960   24.8640 O.3   365  U365       -0.3307
   7878  C3'        9.9800    7.2720   22.7550 C.3   365  U365        0.1860
   7879  O3'        9.6370    7.5400   21.4170 O.3   365  U365       -0.3112
   7880  C2'       10.7490    8.4180   23.3820 C.3   365  U365        0.2309
   7881  O2'       10.2700    9.6610   22.9200 O.3   365  U365       -0.2156
   7882  C1'       10.3680    8.2630   24.8520 C.3   365  U365        0.2420
   7883  N1        11.3470    7.4240   25.5380 N.ar  365  U365       -0.2534
   7884  C2        12.5330    8.0050   25.9340 C.ar  365  U365        0.3546
   7885  O2        12.7700    9.1910   25.7990 O.2   365  U365       -0.2443
   7886  N3        13.4380    7.1390   26.4940 N.ar  365  U365       -0.1530
   7887  C4        13.2850    5.7860   26.6940 C.ar  365  U365        0.2846
   7888  O4        14.1890    5.1470   27.2210 O.2   365  U365       -0.2650
   7889  C5        12.0360    5.2590   26.2450 C.ar  365  U365        0.0814
   7890  C6        11.1400    6.0730   25.6760 C.ar  365  U365        0.0870
   7891  OP1        6.9770    3.5690   22.7370 O.2   365  U365       -0.5172
   7892  OP2        8.9400    2.5190   24.0240 O.co2 365  U365       -0.4373
   7893  P         10.7130    7.1880   20.3090 P.3   366  A366        0.2141
   7894  C5'       11.6650    9.6690   20.2090 C.3   366  A366        0.1812
   7895  O5'       11.8840    8.2590   20.3910 O.3   366  A366       -0.3114
   7896  C4'       12.9430   10.4170   20.5150 C.3   366  A366        0.1773
   7897  O4'       13.3170   10.2890   21.9170 O.3   366  A366       -0.3307
   7898  C3'       14.2220    9.8860   19.8780 C.3   366  A366        0.1860
   7899  O3'       14.3690    9.9070   18.4590 O.3   366  A366       -0.3112
   7900  C2'       15.2810   10.6730   20.6450 C.3   366  A366        0.2309
   7901  O2'       15.2500   11.9960   20.1570 O.3   366  A366       -0.2156
   7902  C1'       14.6610   10.7350   22.0450 C.3   366  A366        0.2408
   7903  N1        18.5950   10.8990   25.3240 N.ar  366  A366       -0.2040
   7904  C2        18.1700   11.7370   24.3700 C.ar  366  A366        0.2016
   7905  N3        17.1180   11.6250   23.5520 N.ar  366  A366       -0.2048
   7906  C4        16.4640   10.4690   23.7710 C.ar  366  A366        0.1692
   7907  C5        16.7810    9.5040   24.7110 C.ar  366  A366        0.1518
   7908  C6        17.8990    9.7610   25.5390 C.ar  366  A366        0.1919
   7909  N6        18.2930    8.9600   26.5190 N.pl3 366  A366       -0.1054
   7910  N7        15.8660    8.4600   24.6660 N.ar  366  A366       -0.2193
   7911  C8        15.0460    8.7980   23.6980 C.ar  366  A366        0.1816
   7912  N9        15.3520   10.0000   23.1090 N.ar  366  A366       -0.2693
   7913  OP1        9.9510    7.3200   19.0290 O.2   366  A366       -0.5172
   7914  OP2       11.4400    5.9380   20.6630 O.co2 366  A366       -0.4373
   7915  P         15.6510    9.0360   17.9540 P.3   367  C367        0.2141
   7916  C5'       18.1880    9.7150   17.9880 C.3   367  C367        0.1812
   7917  O5'       16.8170   10.1060   17.9810 O.3   367  C367       -0.3114
   7918  C4'       18.9230   10.7740   18.7330 C.3   367  C367        0.1773
   7919  O4'       18.4860   10.7190   20.1050 O.3   367  C367       -0.3307
   7920  C3'       20.4110   10.5670   18.8330 C.3   367  C367        0.1860
   7921  O3'       21.0370   10.9600   17.6280 O.3   367  C367       -0.3112
   7922  C2'       20.7660   11.3900   20.0600 C.3   367  C367        0.2309
   7923  O2'       20.9860   12.7270   19.7000 O.3   367  C367       -0.2156
   7924  C1'       19.5290   11.1830   20.9390 C.3   367  C367        0.2420
   7925  N1        19.7610   10.1710   21.9630 N.ar  367  C367       -0.2535
   7926  C2        20.7940   10.3930   22.8580 C.ar  367  C367        0.3532
   7927  O2        21.4530   11.4270   22.7480 O.2   367  C367       -0.2443
   7928  N3        21.0510    9.4810   23.8200 N.ar  367  C367       -0.1739
   7929  C4        20.3100    8.3750   23.9010 C.ar  367  C367        0.1759
   7930  N4        20.5940    7.5040   24.8750 N.pl3 367  C367       -0.1070
   7931  C5        19.2420    8.1160   22.9900 C.ar  367  C367        0.0566
   7932  C6        19.0170    9.0250   22.0340 C.ar  367  C367        0.0850
   7933  OP1       15.5830    8.7130   16.5020 O.2   367  C367       -0.5172
   7934  OP2       16.0780    8.0000   18.9570 O.co2 367  C367       -0.4373
   7935  P         21.9580    9.8250   16.9590 P.3   368  C368        0.2141
   7936  C5'       23.8190   11.4680   17.6110 C.3   368  C368        0.1812
   7937  O5'       23.2560   10.1860   17.8090 O.3   368  C368       -0.3114
   7938  C4'       24.9420   11.7030   18.5740 C.3   368  C368        0.1773
   7939  O4'       24.4490   11.7360   19.9370 O.3   368  C368       -0.3307
   7940  C3'       26.0230   10.6420   18.6700 C.3   368  C368        0.1860
   7941  O3'       26.9280   10.6690   17.5960 O.3   368  C368       -0.3112
   7942  C2'       26.7200   11.0800   19.9430 C.3   368  C368        0.2309
   7943  O2'       27.3330   12.3330   19.7690 O.3   368  C368       -0.2156
   7944  C1'       25.5110   11.3670   20.8190 C.3   368  C368        0.2420
   7945  N1        25.0830   10.1970   21.5790 N.ar  368  C368       -0.2535
   7946  C2        25.6010   10.0200   22.8600 C.ar  368  C368        0.3532
   7947  O2        26.4270   10.8420   23.2850 O.2   368  C368       -0.2443
   7948  N3        25.2110    8.9440   23.5910 N.ar  368  C368       -0.1739
   7949  C4        24.2830    8.1120   23.1050 C.ar  368  C368        0.1759
   7950  N4        23.8540    7.1230   23.8880 N.pl3 368  C368       -0.1070
   7951  C5        23.7270    8.2830   21.8010 C.ar  368  C368        0.0566
   7952  C6        24.1710    9.3130   21.0710 C.ar  368  C368        0.0850
   7953  OP1       22.1680   10.1710   15.5210 O.2   368  C368       -0.5172
   7954  OP2       21.3250    8.5210   17.3200 O.co2 368  C368       -0.4373
   7955  P         27.4630    9.3470   16.9020 P.3   369  G369        0.2141
   7956  C5'       27.3800    6.7770   17.5350 C.3   369  G369        0.1812
   7957  O5'       26.6920    8.0580   17.4490 O.3   369  G369       -0.3114
   7958  C4'       27.9010    6.4510   18.9390 C.3   369  G369        0.1773
   7959  O4'       29.0140    7.2940   19.3220 O.3   369  G369       -0.3307
   7960  C3'       26.9140    6.5450   20.1050 C.3   369  G369        0.1860
   7961  O3'       26.2770    5.2990   20.4270 O.3   369  G369       -0.3112
   7962  C2'       27.7530    7.0430   21.2970 C.3   369  G369        0.2309
   7963  O2'       27.7320    6.1320   22.3760 O.3   369  G369       -0.2156
   7964  C1'       29.1620    7.2120   20.7170 C.3   369  G369        0.2408
   7965  N1        31.6340    9.5120   24.5370 N.ar  369  G369       -0.1709
   7966  C2        31.1610    8.2210   24.4570 C.ar  369  G369        0.2606
   7967  N2        31.3530    7.4520   25.5370 N.pl3 369  G369       -0.0859
   7968  N3        30.5320    7.7260   23.3990 N.ar  369  G369       -0.1918
   7969  C4        30.4150    8.6380   22.4060 C.ar  369  G369        0.1723
   7970  C5        30.8570    9.9470   22.3820 C.ar  369  G369        0.1748
   7971  C6        31.5350   10.4650   23.5240 C.ar  369  G369        0.3023
   7972  O6        32.0220   11.5920   23.6880 O.2   369  G369       -0.2633
   7973  N7        30.5380   10.5530   21.1740 N.ar  369  G369       -0.2173
   7974  C8        29.9240    9.6210   20.4950 C.ar  369  G369        0.1817
   7975  N9        29.8140    8.4340   21.1830 N.ar  369  G369       -0.2693
   7976  OP1       28.8960    9.4100   17.3600 O.3   369  G369       -0.4373
   7977  OP2       27.1340    9.5280   15.4650 O.co2 369  G369       -0.5172
   7978  P         25.1180    4.6830   19.5210 P.3   370  A370        0.2141
   7979  C5'       23.8400    2.3850   19.7730 C.3   370  A370        0.1812
   7980  O5'       24.9440    3.2390   20.1650 O.3   370  A370       -0.3114
   7981  C4'       24.1600    0.9620   20.1430 C.3   370  A370        0.1773
   7982  O4'       25.3220    0.5390   19.3900 O.3   370  A370       -0.3307
   7983  C3'       24.6050    0.7250   21.5850 C.3   370  A370        0.1860
   7984  O3'       23.5450    0.6960   22.5340 O.3   370  A370       -0.3112
   7985  C2'       25.2980   -0.6240   21.4600 C.3   370  A370        0.2309
   7986  O2'       24.3700   -1.7010   21.3070 O.3   370  A370       -0.2156
   7987  C1'       26.0580   -0.4170   20.1490 C.3   370  A370        0.2408
   7988  N1        30.8240   -1.2850   21.9950 N.ar  370  A370       -0.2040
   7989  C2        29.6770   -1.9670   22.1330 C.ar  370  A370        0.2016
   7990  N3        28.4620   -1.6890   21.6470 N.ar  370  A370       -0.2048
   7991  C4        28.4910   -0.5580   20.9150 C.ar  370  A370        0.1692
   7992  C5        29.5970    0.2340   20.6590 C.ar  370  A370        0.1518
   7993  C6        30.8190   -0.1590   21.2430 C.ar  370  A370        0.1919
   7994  N6        31.9650    0.5130   21.0830 N.pl3 370  A370       -0.1054
   7995  N7        29.2500    1.3140   19.8640 N.ar  370  A370       -0.2193
   7996  C8        27.9680    1.1470   19.6490 C.ar  370  A370        0.1816
   7997  N9        27.4410    0.0470   20.2650 N.ar  370  A370       -0.2693
   7998  OP1       25.5680    4.5810   18.1000 O.2   370  A370       -0.5172
   7999  OP2       23.7630    5.2090   19.8420 O.co2 370  A370       -0.4373
   8000  P         23.7940    1.4200   23.9320 P.3   371  A371        0.2141
   8001  C5'       24.7430   -0.8510   24.8930 C.3   371  A371        0.1812
   8002  O5'       24.9590    0.5460   24.5740 O.3   371  A371       -0.3114
   8003  C4'       25.9930   -1.3990   25.4980 C.3   371  A371        0.1773
   8004  O4'       27.0170   -1.4020   24.4780 O.3   371  A371       -0.3307
   8005  C3'       26.5590   -0.5180   26.5960 C.3   371  A371        0.1860
   8006  O3'       25.8400   -0.8120   27.7920 O.3   371  A371       -0.3112
   8007  C2'       28.0490   -0.8500   26.5400 C.3   371  A371        0.2309
   8008  O2'       28.3600   -2.0500   27.2120 O.3   371  A371       -0.2156
   8009  C1'       28.2640   -1.0390   25.0400 C.3   371  A371        0.2408
   8010  N1        32.1590    2.2050   24.1300 N.ar  371  A371       -0.2040
   8011  C2        32.0690    1.1030   24.8830 C.ar  371  A371        0.2016
   8012  N3        31.0190    0.3060   25.0910 N.ar  371  A371       -0.2048
   8013  C4        29.9620    0.7210   24.3790 C.ar  371  A371        0.1692
   8014  C5        29.8970    1.8360   23.5640 C.ar  371  A371        0.1518
   8015  C6        31.0670    2.6090   23.4450 C.ar  371  A371        0.1919
   8016  N6        31.1660    3.6900   22.6650 N.pl3 371  A371       -0.1054
   8017  N7        28.6300    1.9650   23.0110 N.ar  371  A371       -0.2193
   8018  C8        27.9750    0.9310   23.4800 C.ar  371  A371        0.1816
   8019  N9        28.7130    0.1560   24.3410 N.ar  371  A371       -0.2693
   8020  OP1       22.5490    1.1640   24.7240 O.3   371  A371       -0.4373
   8021  OP2       24.3890    2.7810   23.7580 O.co2 371  A371       -0.5172
   8022  P         25.9100    0.2690   28.9640 P.3   372  C372        0.2141
   8023  C5'       28.0960    0.5440   30.2770 C.3   372  C372        0.1812
   8024  O5'       27.4420    0.6950   29.0300 O.3   372  C372       -0.3114
   8025  C4'       29.4890    1.0790   30.2010 C.3   372  C372        0.1773
   8026  O4'       29.9440    1.0420   28.8330 O.3   372  C372       -0.3307
   8027  C3'       29.5980    2.5380   30.5620 C.3   372  C372        0.1860
   8028  O3'       29.5660    2.6970   31.9660 O.3   372  C372       -0.3112
   8029  C2'       30.9040    2.9290   29.8860 C.3   372  C372        0.2309
   8030  O2'       32.0890    2.6140   30.5760 O.3   372  C372       -0.2156
   8031  C1'       30.8070    2.1370   28.5900 C.3   372  C372        0.2420
   8032  N1        30.2160    2.9380   27.5210 N.ar  372  C372       -0.2535
   8033  C2        30.9590    3.9870   26.9690 C.ar  372  C372        0.3532
   8034  O2        32.0940    4.2190   27.4200 O.2   372  C372       -0.2443
   8035  N3        30.4190    4.7210   25.9660 N.ar  372  C372       -0.1739
   8036  C4        29.1940    4.4350   25.5150 C.ar  372  C372        0.1759
   8037  N4        28.6920    5.1910   24.5430 N.pl3 372  C372       -0.1070
   8038  C5        28.4190    3.3710   26.0590 C.ar  372  C372        0.0566
   8039  C6        28.9590    2.6610   27.0580 C.ar  372  C372        0.0850
   8040  OP1       25.7040   -0.4870   30.2040 O.3   372  C372       -0.4373
   8041  OP2       24.9980    1.4380   28.7000 O.co2 372  C372       -0.5172
   8042  P         28.4420    3.6450   32.5790 P.3   373  G373        0.2141
   8043  C5'       30.3000    5.5260   32.6320 C.3   373  G373        0.1812
   8044  O5'       28.9630    5.1260   32.2930 O.3   373  G373       -0.3114
   8045  C4'       30.7060    6.6840   31.7550 C.3   373  G373        0.1773
   8046  O4'       30.7250    6.2690   30.3630 O.3   373  G373       -0.3307
   8047  C3'       29.7650    7.8730   31.7680 C.3   373  G373        0.1860
   8048  O3'       30.1930    8.7560   32.7900 O.3   373  G373       -0.3112
   8049  C2'       30.0790    8.5330   30.4380 C.3   373  G373        0.2309
   8050  O2'       31.3000    9.2080   30.5540 O.3   373  G373       -0.2156
   8051  C1'       30.2790    7.3240   29.5340 C.3   373  G373        0.2408
   8052  N1        26.9980    8.2590   25.7780 N.ar  373  G373       -0.1709
   8053  C2        28.1170    8.9630   26.1540 C.ar  373  G373        0.2606
   8054  N2        28.4130   10.0500   25.4240 N.pl3 373  G373       -0.0859
   8055  N3        28.9010    8.6180   27.1640 N.ar  373  G373       -0.1918
   8056  C4        28.4600    7.5040   27.7860 C.ar  373  G373        0.1723
   8057  C5        27.3350    6.7590   27.5160 C.ar  373  G373        0.1748
   8058  C6        26.5000    7.1480   26.4420 C.ar  373  G373        0.3023
   8059  O6        25.4520    6.6350   26.0670 O.2   373  G373       -0.2633
   8060  N7        27.2140    5.7040   28.4140 N.ar  373  G373       -0.2173
   8061  C8        28.2420    5.8350   29.2090 C.ar  373  G373        0.1817
   8062  N9        29.0470    6.8990   28.8740 N.ar  373  G373       -0.2693
   8063  OP1       28.5110    3.4460   34.0560 O.3   373  G373       -0.4373
   8064  OP2       27.1670    3.4260   31.8280 O.co2 373  G373       -0.5172
   8065  P         29.0380    9.4880   33.5930 P.3   374  G374        0.2141
   8066  C5'       27.4620   10.9570   32.0570 C.3   374  G374        0.1812
   8067  O5'       28.8030   10.6110   32.4810 O.3   374  G374       -0.3114
   8068  C4'       27.5210   11.7610   30.7960 C.3   374  G374        0.1773
   8069  O4'       27.8090   10.8630   29.6950 O.3   374  G374       -0.3307
   8070  C3'       26.2560   12.4950   30.3730 C.3   374  G374        0.1860
   8071  O3'       26.1880   13.8290   30.8940 O.3   374  G374       -0.3112
   8072  C2'       26.4770   12.6040   28.8740 C.3   374  G374        0.2309
   8073  O2'       27.5290   13.5160   28.6490 O.3   374  G374       -0.2156
   8074  C1'       27.0510   11.2260   28.5640 C.3   374  G374        0.2408
   8075  N1        23.1820    9.7430   25.6880 N.ar  374  G374       -0.1709
   8076  C2        24.0390   10.8060   25.5220 C.ar  374  G374        0.2606
   8077  N2        23.8230   11.5800   24.4450 N.pl3 374  G374       -0.0859
   8078  N3        25.0310   11.0880   26.3510 N.ar  374  G374       -0.1918
   8079  C4        25.0910   10.2130   27.3740 C.ar  374  G374        0.1723
   8080  C5        24.2990    9.1120   27.6150 C.ar  374  G374        0.1748
   8081  C6        23.2520    8.8150   26.7170 C.ar  374  G374        0.3023
   8082  O6        22.4570    7.8720   26.7480 O.2   374  G374       -0.2633
   8083  N7        24.7250    8.4400   28.7480 N.ar  374  G374       -0.2173
   8084  C8        25.7230    9.1540   29.1890 C.ar  374  G374        0.1817
   8085  N9        26.0120   10.2270   28.3860 N.ar  374  G374       -0.2693
   8086  OP1       29.6800    9.9940   34.8390 O.3   374  G374       -0.4373
   8087  OP2       27.7350    8.7410   33.6700 O.co2 374  G374       -0.5172
   8088  P         24.7920   14.3590   31.4570 P.3   375  U375        0.2141
   8089  C5'       24.7020   15.9060   29.2650 C.3   375  U375        0.1812
   8090  O5'       24.2540   14.7390   30.0030 O.3   375  U375       -0.3114
   8091  C4'       23.8140   16.1440   28.0560 C.3   375  U375        0.1773
   8092  O4'       23.7810   14.9360   27.2560 O.3   375  U375       -0.3307
   8093  C3'       22.3520   16.4160   28.3610 C.3   375  U375        0.1860
   8094  O3'       22.1050   17.8000   28.5290 O.3   375  U375       -0.3112
   8095  C2'       21.6430   15.9690   27.0900 C.3   375  U375        0.2309
   8096  O2'       21.6590   17.0050   26.1290 O.3   375  U375       -0.2156
   8097  C1'       22.5050   14.7840   26.6480 C.3   375  U375        0.2420
   8098  N1        21.9450   13.4690   27.0160 N.ar  375  U375       -0.2534
   8099  C2        20.9720   12.9270   26.1920 C.ar  375  U375        0.3546
   8100  O2        20.5780   13.4760   25.1880 O.2   375  U375       -0.2443
   8101  N3        20.5060   11.6990   26.5750 N.ar  375  U375       -0.1530
   8102  C4        20.8900   10.9690   27.6710 C.ar  375  U375        0.2846
   8103  O4        20.3370    9.9010   27.9030 O.2   375  U375       -0.2650
   8104  C5        21.9120   11.5800   28.4660 C.ar  375  U375        0.0814
   8105  C6        22.3800   12.7900   28.1300 C.ar  375  U375        0.0870
   8106  OP1       25.1780   15.4130   32.4440 O.3   375  U375       -0.4373
   8107  OP2       23.8890   13.2510   31.9220 O.co2 375  U375       -0.5172
   8108  P         20.9380   18.2430   29.5270 P.3   376  A376        0.2141
   8109  C5'       22.4100   18.7420   31.6140 C.3   376  A376        0.1812
   8110  O5'       21.4940   17.8790   30.9610 O.3   376  A376       -0.3114
   8111  C4'       21.9530   18.9230   33.0290 C.3   376  A376        0.1773
   8112  O4'       20.9140   19.9300   32.9970 O.3   376  A376       -0.3307
   8113  C3'       21.3470   17.6880   33.7050 C.3   376  A376        0.1860
   8114  O3'       21.6920   17.6620   35.0850 O.3   376  A376       -0.3112
   8115  C2'       19.8450   17.8960   33.5420 C.3   376  A376        0.2309
   8116  O2'       19.1360   17.5050   34.6950 O.3   376  A376       -0.2156
   8117  C1'       19.7420   19.4180   33.5830 C.3   376  A376        0.2408
   8118  N1        17.1620   23.7720   32.7620 N.ar  376  A376       -0.2040
   8119  C2        18.2930   23.4990   33.4280 C.ar  376  A376        0.2016
   8120  N3        18.9150   22.3340   33.5930 N.ar  376  A376       -0.2048
   8121  C4        18.2480   21.3480   32.9650 C.ar  376  A376        0.1692
   8122  C5        17.0670   21.4660   32.2520 C.ar  376  A376        0.1518
   8123  C6        16.5020   22.7560   32.1610 C.ar  376  A376        0.1919
   8124  N6        15.3630   23.0310   31.5130 N.pl3 376  A376       -0.1054
   8125  N7        16.6680   20.2330   31.7610 N.ar  376  A376       -0.2193
   8126  C8        17.6030   19.4130   32.1710 C.ar  376  A376        0.1816
   8127  N9        18.5840   20.0170   32.9150 N.ar  376  A376       -0.2693
   8128  OP1       19.6900   17.4270   29.2680 O.2   376  A376       -0.5172
   8129  OP2       20.9390   19.7400   29.5360 O.co2 376  A376       -0.4373
   8130  P         23.0080   17.0140   35.7250 P.3   377  C377        0.2141
   8131  C5'       21.4470   14.9740   35.3250 C.3   377  C377        0.1812
   8132  O5'       22.2420   15.7250   36.2430 O.3   377  C377       -0.3114
   8133  C4'       21.2050   13.6040   35.8990 C.3   377  C377        0.1773
   8134  O4'       20.6800   13.7430   37.2470 O.3   377  C377       -0.3307
   8135  C3'       20.2040   12.7170   35.1700 C.3   377  C377        0.1860
   8136  O3'       20.9080   11.9200   34.2480 O.3   377  C377       -0.3112
   8137  C2'       19.7380   11.7900   36.2760 C.3   377  C377        0.2309
   8138  O2'       20.6740   10.7850   36.5670 O.3   377  C377       -0.2156
   8139  C1'       19.7140   12.7360   37.4710 C.3   377  C377        0.2420
   8140  N1        18.4120   13.3690   37.5730 N.ar  377  C377       -0.2535
   8141  C2        17.3720   12.6010   38.0760 C.ar  377  C377        0.3532
   8142  O2        17.6140   11.4370   38.4210 O.2   377  C377       -0.2443
   8143  N3        16.1350   13.1430   38.1800 N.ar  377  C377       -0.1739
   8144  C4        15.9230   14.3920   37.7620 C.ar  377  C377        0.1759
   8145  N4        14.6950   14.8920   37.8870 N.pl3 377  C377       -0.1070
   8146  C5        16.9660   15.1890   37.2060 C.ar  377  C377        0.0566
   8147  C6        18.1800   14.6370   37.1170 C.ar  377  C377        0.0850
   8148  OP1       23.4110   17.6500   37.0100 O.3   377  C377       -0.4373
   8149  OP2       24.0270   16.7730   34.6520 O.co2 377  C377       -0.5172
   8150  P         20.0170   11.2230   33.1370 P.3   378  G378        0.2141
   8151  C5'       20.3860   13.1570   31.3530 C.3   378  G378        0.1812
   8152  O5'       19.5700   12.5460   32.3700 O.3   378  G378       -0.3114
   8153  C4'       19.5630   14.1590   30.5810 C.3   378  G378        0.1773
   8154  O4'       19.4530   13.7030   29.2080 O.3   378  G378       -0.3307
   8155  C3'       18.1330   14.3520   31.0740 C.3   378  G378        0.1860
   8156  O3'       18.0410   15.4750   31.9360 O.3   378  G378       -0.3112
   8157  C2'       17.3680   14.6330   29.7900 C.3   378  G378        0.2309
   8158  O2'       17.5220   15.9440   29.3020 O.3   378  G378       -0.2156
   8159  C1'       18.0950   13.7280   28.8040 C.3   378  G378        0.2408
   8160  N1        14.6820   10.4560   26.9270 N.ar  378  G378       -0.1709
   8161  C2        14.8960   11.7640   26.5920 C.ar  378  G378        0.2606
   8162  N2        14.1240   12.2440   25.6190 N.pl3 378  G378       -0.0859
   8163  N3        15.8120   12.5320   27.1540 N.ar  378  G378       -0.1918
   8164  C4        16.5150   11.8680   28.0930 C.ar  378  G378        0.1723
   8165  C5        16.3900   10.5570   28.4860 C.ar  378  G378        0.1748
   8166  C6        15.3900    9.7560   27.8880 C.ar  378  G378        0.3023
   8167  O6        15.0860    8.5930   28.1390 O.2   378  G378       -0.2633
   8168  N7        17.3070   10.2520   29.4790 N.ar  378  G378       -0.2173
   8169  C8        17.9880   11.3520   29.6420 C.ar  378  G378        0.1817
   8170  N9        17.5640   12.3710   28.8310 N.ar  378  G378       -0.2693
   8171  OP1       18.7640   10.6190   33.6940 O.3   378  G378       -0.4373
   8172  OP2       20.9090   10.4340   32.2070 O.co2 378  G378       -0.5172
   8173  P         16.7710   15.6240   32.9220 P.3   379  U379        0.2141
   8174  C5'       14.9950   16.6610   31.3040 C.3   379  U379        0.1812
   8175  O5'       15.4630   15.5100   32.0250 O.3   379  U379       -0.3114
   8176  C4'       13.7580   16.3020   30.5340 C.3   379  U379        0.1773
   8177  O4'       14.1140   15.3190   29.5310 O.3   379  U379       -0.3307
   8178  C3'       12.6740   15.6240   31.3520 C.3   379  U379        0.1860
   8179  O3'       11.8140   16.5980   31.9010 O.3   379  U379       -0.3112
   8180  C2'       11.9270   14.8500   30.2890 C.3   379  U379        0.2309
   8181  O2'       11.1970   15.7480   29.5050 O.3   379  U379       -0.2156
   8182  C1'       13.0820   14.3480   29.4340 C.3   379  U379        0.2420
   8183  N1        13.5830   13.0520   29.9170 N.ar  379  U379       -0.2534
   8184  C2        12.9490   11.9370   29.4300 C.ar  379  U379        0.3546
   8185  O2        12.0650   12.0020   28.5980 O.2   379  U379       -0.2443
   8186  N3        13.4080   10.7430   29.9290 N.ar  379  U379       -0.1530
   8187  C4        14.4020   10.5580   30.8590 C.ar  379  U379        0.2846
   8188  O4        14.7240    9.4150   31.1880 O.2   379  U379       -0.2650
   8189  C5        14.9930   11.7670   31.3380 C.ar  379  U379        0.0814
   8190  C6        14.5700   12.9450   30.8650 C.ar  379  U379        0.0870
   8191  OP1       16.8160   16.9860   33.5320 O.2   379  U379       -0.5172
   8192  OP2       16.7410   14.4370   33.8230 O.co2 379  U379       -0.4373
   8193  P         11.1580   16.4280   33.3300 P.3   380  A380        0.2141
   8194  C5'        8.9190   15.6900   32.0840 C.3   380  A380        0.1812
   8195  O5'        9.9490   15.4120   33.0460 O.3   380  A380       -0.3114
   8196  C4'        7.8380   14.6420   32.1200 C.3   380  A380        0.1773
   8197  O4'        8.2430   13.5750   31.2270 O.3   380  A380       -0.3307
   8198  C3'        7.5770   13.9510   33.4570 C.3   380  A380        0.1860
   8199  O3'        6.5520   14.5230   34.2570 O.3   380  A380       -0.3112
   8200  C2'        7.0770   12.5760   33.0270 C.3   380  A380        0.2309
   8201  O2'        5.7230   12.6180   32.6640 O.3   380  A380       -0.2156
   8202  C1'        7.9120   12.3130   31.7780 C.3   380  A380        0.2408
   8203  N1        10.2040    7.7420   32.3890 N.ar  380  A380       -0.2040
   8204  C2         8.9320    8.0830   32.1470 C.ar  380  A380        0.2016
   8205  N3         8.3910    9.2930   32.0140 N.ar  380  A380       -0.2048
   8206  C4         9.3310   10.2460   32.1390 C.ar  380  A380        0.1692
   8207  C5        10.6800   10.0530   32.3910 C.ar  380  A380        0.1518
   8208  C6        11.1230    8.7200   32.5170 C.ar  380  A380        0.1919
   8209  N6        12.3900    8.3760   32.7590 N.pl3 380  A380       -0.1054
   8210  N7        11.3430   11.2720   32.4630 N.ar  380  A380       -0.2193
   8211  C8        10.4000   12.1570   32.2450 C.ar  380  A380        0.1816
   8212  N9         9.1580   11.6060   32.0450 N.ar  380  A380       -0.2693
   8213  OP1       10.7970   17.8170   33.6460 O.2   380  A380       -0.5172
   8214  OP2       12.0510   15.6950   34.2650 O.co2 380  A380       -0.4373
   8215  P          6.7260   14.3900   35.8520 P.3   381  C381        0.2141
   8216  C5'        4.9310   12.5230   35.7600 C.3   381  C381        0.1812
   8217  O5'        6.1680   12.9730   36.3120 O.3   381  C381       -0.3114
   8218  C4'        4.8140   11.0310   35.8540 C.3   381  C381        0.1773
   8219  O4'        5.5850   10.3710   34.8100 O.3   381  C381       -0.3307
   8220  C3'        5.3090   10.3760   37.1340 C.3   381  C381        0.1860
   8221  O3'        4.3730   10.5140   38.1830 O.3   381  C381       -0.3112
   8222  C2'        5.3970    8.9380   36.6710 C.3   381  C381        0.2309
   8223  O2'        4.0990    8.4100   36.4570 O.3   381  C381       -0.2156
   8224  C1'        6.0950    9.1410   35.3250 C.3   381  C381        0.2420
   8225  N1         7.5560    9.2700   35.4980 N.ar  381  C381       -0.2535
   8226  C2         8.3370    8.1100   35.5660 C.ar  381  C381        0.3532
   8227  O2         7.7850    7.0060   35.4440 O.2   381  C381       -0.2443
   8228  N3         9.6760    8.2250   35.7390 N.ar  381  C381       -0.1739
   8229  C4        10.2310    9.4340   35.8600 C.ar  381  C381        0.1759
   8230  N4        11.5510    9.5030   36.0250 N.pl3 381  C381       -0.1070
   8231  C5         9.4560   10.6270   35.8110 C.ar  381  C381        0.0566
   8232  C6         8.1340   10.5000   35.6400 C.ar  381  C381        0.0850
   8233  OP1        5.8090   15.3930   36.4330 O.3   381  C381       -0.4373
   8234  OP2        8.1850   14.4290   36.1460 O.co2 381  C381       -0.5172
   8235  P          4.8620   10.5400   39.6910 P.3   382  G382        0.2141
   8236  C5'        5.6100    8.3870   40.9280 C.3   382  G382        0.1812
   8237  O5'        4.9090    8.9640   39.8460 O.3   382  G382       -0.3114
   8238  C4'        5.9110    6.9710   40.5770 C.3   382  G382        0.1773
   8239  O4'        6.4660    6.9260   39.2310 O.3   382  G382       -0.3307
   8240  C3'        6.9870    6.3520   41.4340 C.3   382  G382        0.1860
   8241  O3'        6.4050    5.9890   42.6640 O.3   382  G382       -0.3112
   8242  C2'        7.4890    5.2590   40.5100 C.3   382  G382        0.2309
   8243  O2'        6.5380    4.2450   40.2810 O.3   382  G382       -0.2156
   8244  C1'        7.5750    6.0380   39.1990 C.3   382  G382        0.2408
   8245  N1        12.6300    5.8550   38.8500 N.ar  382  G382       -0.1709
   8246  C2        11.7240    4.8320   38.9370 C.ar  382  G382        0.2606
   8247  N2        12.2310    3.5970   38.9250 N.pl3 382  G382       -0.0859
   8248  N3        10.4180    5.0060   39.0080 N.ar  382  G382       -0.1918
   8249  C4        10.0840    6.3120   39.0180 C.ar  382  G382        0.1723
   8250  C5        10.9110    7.4100   38.9530 C.ar  382  G382        0.1748
   8251  C6        12.3110    7.2040   38.8490 C.ar  382  G382        0.3023
   8252  O6        13.2100    8.0430   38.7870 O.2   382  G382       -0.2633
   8253  N7        10.1730    8.5850   38.9810 N.ar  382  G382       -0.2173
   8254  C8         8.9330    8.1860   39.0660 C.ar  382  G382        0.1817
   8255  N9         8.8080    6.8180   39.0850 N.ar  382  G382       -0.2693
   8256  OP1        3.7930   11.0510   40.5850 O.3   382  G382       -0.4373
   8257  OP2        6.2180   11.1330   39.7520 O.co2 382  G382       -0.5172
   8258  P          7.0410    6.5860   44.0100 P.3   383  G383        0.2141
   8259  C5'        8.1430    4.2160   44.2270 C.3   383  G383        0.1812
   8260  O5'        8.3200    5.6390   44.0670 O.3   383  G383       -0.3114
   8261  C4'        9.4500    3.5070   44.0430 C.3   383  G383        0.1773
   8262  O4'        9.9980    3.8110   42.7310 O.3   383  G383       -0.3307
   8263  C3'       10.5780    3.9180   44.9670 C.3   383  G383        0.1860
   8264  O3'       10.5030    3.3420   46.2520 O.3   383  G383       -0.3112
   8265  C2'       11.7590    3.3270   44.2260 C.3   383  G383        0.2309
   8266  O2'       11.7510    1.9160   44.3870 O.3   383  G383       -0.2156
   8267  C1'       11.4190    3.7280   42.7860 C.3   383  G383        0.2408
   8268  N1        15.6460    6.4070   41.8630 N.ar  383  G383       -0.1709
   8269  C2        15.5070    5.0670   42.1350 C.ar  383  G383        0.2606
   8270  N2        16.6400    4.3500   42.1770 N.pl3 383  G383       -0.0859
   8271  N3        14.3430    4.4710   42.3380 N.ar  383  G383       -0.1918
   8272  C4        13.3120    5.3390   42.2680 C.ar  383  G383        0.1723
   8273  C5        13.3440    6.6910   41.9980 C.ar  383  G383        0.1748
   8274  C6        14.5980    7.3150   41.7610 C.ar  383  G383        0.3023
   8275  O6        14.8330    8.5010   41.5040 O.2   383  G383       -0.2633
   8276  N7        12.0610    7.2220   41.9960 N.ar  383  G383       -0.2173
   8277  C8        11.2880    6.2060   42.2730 C.ar  383  G383        0.1817
   8278  N9        11.9810    5.0310   42.4370 N.ar  383  G383       -0.2693
   8279  OP1        6.0890    6.1790   45.0740 O.3   383  G383       -0.4373
   8280  OP2        7.4840    7.9930   43.9570 O.co2 383  G383       -0.5172
   8281  P         10.8690    4.2220   47.5400 P.3   384  U384        0.2141
   8282  C5'       13.0970    2.8450   47.3630 C.3   384  U384        0.1812
   8283  O5'       12.4070    3.9970   47.8530 O.3   384  U384       -0.3114
   8284  C4'       14.5410    3.2180   47.2650 C.3   384  U384        0.1773
   8285  O4'       14.7910    3.8500   45.9870 O.3   384  U384       -0.3307
   8286  C3'       14.9490    4.3000   48.2520 C.3   384  U384        0.1860
   8287  O3'       15.1190    3.7940   49.5700 O.3   384  U384       -0.3112
   8288  C2'       16.2310    4.8110   47.6200 C.3   384  U384        0.2309
   8289  O2'       17.3250    4.0000   47.9710 O.3   384  U384       -0.2156
   8290  C1'       15.8950    4.7310   46.1250 C.3   384  U384        0.2420
   8291  N1        15.5380    6.0530   45.5830 N.ar  384  U384       -0.2534
   8292  C2        16.5760    6.8780   45.1900 C.ar  384  U384        0.3546
   8293  O2        17.7460    6.5340   45.2260 O.2   384  U384       -0.2443
   8294  N3        16.1900    8.1120   44.7310 N.ar  384  U384       -0.1530
   8295  C4        14.9070    8.6080   44.6450 C.ar  384  U384        0.2846
   8296  O4        14.7230    9.7500   44.2080 O.2   384  U384       -0.2650
   8297  C5        13.8910    7.7050   45.0960 C.ar  384  U384        0.0814
   8298  C6        14.2330    6.4920   45.5430 C.ar  384  U384        0.0870
   8299  OP1       10.2260    3.5780   48.7250 O.3   384  U384       -0.4373
   8300  OP2       10.6350    5.6660   47.2590 O.co2 384  U384       -0.5172
   8301  P         15.6170    4.6970   50.8030 P.3   385  G385        0.2141
   8302  C5'       18.0450    5.6040   51.2770 C.3   385  G385        0.1812
   8303  O5'       17.1860    4.7400   50.5170 O.3   385  G385       -0.3114
   8304  C4'       19.4360    5.5950   50.7010 C.3   385  G385        0.1773
   8305  O4'       19.3890    5.5940   49.2470 O.3   385  G385       -0.3307
   8306  C3'       20.2640    6.8150   51.0260 C.3   385  G385        0.1860
   8307  O3'       20.8180    6.6470   52.3060 O.3   385  G385       -0.3112
   8308  C2'       21.3050    6.7880   49.9240 C.3   385  G385        0.2309
   8309  O2'       22.3320    5.8570   50.2070 O.3   385  G385       -0.2156
   8310  C1'       20.4350    6.4050   48.7280 C.3   385  G385        0.2408
   8311  N1        21.2320   10.6630   46.0610 N.ar  385  G385       -0.1709
   8312  C2        22.1410    9.7370   46.5080 C.ar  385  G385        0.2606
   8313  N2        23.4250    9.9880   46.2290 N.pl3 385  G385       -0.0859
   8314  N3        21.8150    8.6540   47.1960 N.ar  385  G385       -0.1918
   8315  C4        20.4820    8.5740   47.4090 C.ar  385  G385        0.1723
   8316  C5        19.4930    9.4470   47.0040 C.ar  385  G385        0.1748
   8317  C6        19.8580   10.6010   46.2700 C.ar  385  G385        0.3023
   8318  O6        19.1270   11.4910   45.8250 O.2   385  G385       -0.2633
   8319  N7        18.2430    8.9980   47.4110 N.ar  385  G385       -0.2173
   8320  C8        18.4890    7.8880   48.0510 C.ar  385  G385        0.1817
   8321  N9        19.8270    7.5680   48.0840 N.ar  385  G385       -0.2693
   8322  OP1       15.4120    4.0010   52.1180 O.3   385  G385       -0.4373
   8323  OP2       15.0300    6.0420   50.6180 O.co2 385  G385       -0.5172
   8324  P         20.6940    7.9830   53.1640 P.3   386  G386        0.2141
   8325  C5'       23.2070    8.3620   52.6250 C.3   386  G386        0.1812
   8326  O5'       21.8670    8.8500   52.5300 O.3   386  G386       -0.3114
   8327  C4'       24.1010    9.0940   51.6700 C.3   386  G386        0.1773
   8328  O4'       23.4780    9.1670   50.3610 O.3   386  G386       -0.3307
   8329  C3'       24.3750   10.5470   52.0040 C.3   386  G386        0.1860
   8330  O3'       25.3320   10.6730   53.0500 O.3   386  G386       -0.3112
   8331  C2'       24.8880   11.0450   50.6610 C.3   386  G386        0.2309
   8332  O2'       26.2530   10.7110   50.5020 O.3   386  G386       -0.2156
   8333  C1'       23.9310   10.3330   49.6930 C.3   386  G386        0.2408
   8334  N1        22.2500   14.5810   47.4990 N.ar  386  G386       -0.1709
   8335  C2        23.5090   14.0270   47.4740 C.ar  386  G386        0.2606
   8336  N2        24.4400   14.6940   46.7810 N.pl3 386  G386       -0.0859
   8337  N3        23.8300   12.9000   48.0860 N.ar  386  G386       -0.1918
   8338  C4        22.7730   12.3570   48.7300 C.ar  386  G386        0.1723
   8339  C5        21.4830   12.8340   48.8220 C.ar  386  G386        0.1748
   8340  C6        21.1510   14.0400   48.1640 C.ar  386  G386        0.3023
   8341  O6        20.0570   14.6120   48.1190 O.2   386  G386       -0.2633
   8342  N7        20.6920   11.9760   49.5710 N.ar  386  G386       -0.2173
   8343  C8        21.5030   11.0180   49.9240 C.ar  386  G386        0.1817
   8344  N9        22.7730   11.1740   49.4240 N.ar  386  G386       -0.2693
   8345  OP1       21.1110    7.6380   54.5540 O.3   386  G386       -0.4373
   8346  OP2       19.3920    8.6930   52.9270 O.co2 386  G386       -0.5172
   8347  P         25.5250   12.0440   53.8290 P.3   387  U387        0.2141
   8348  C5'       27.4350   12.9280   52.2040 C.3   387  U387        0.1812
   8349  O5'       26.0780   12.9850   52.6760 O.3   387  U387       -0.3114
   8350  C4'       27.7170   14.1800   51.4060 C.3   387  U387        0.1773
   8351  O4'       26.7680   14.2900   50.3110 O.3   387  U387       -0.3307
   8352  C3'       27.5300   15.4680   52.1830 C.3   387  U387        0.1860
   8353  O3'       28.7540   15.8100   52.7950 O.3   387  U387       -0.3112
   8354  C2'       27.2550   16.4760   51.0870 C.3   387  U387        0.2309
   8355  O2'       28.4460   16.8360   50.4410 O.3   387  U387       -0.2156
   8356  C1'       26.4490   15.6500   50.0920 C.3   387  U387        0.2420
   8357  N1        25.0060   15.8400   50.2720 N.ar  387  U387       -0.2534
   8358  C2        24.5060   17.1130   50.0680 C.ar  387  U387        0.3546
   8359  O2        25.2060   18.0560   49.7430 O.2   387  U387       -0.2443
   8360  N3        23.1520   17.2360   50.2540 N.ar  387  U387       -0.1530
   8361  C4        22.2660   16.2470   50.6180 C.ar  387  U387        0.2846
   8362  O4        21.0740   16.5210   50.7470 O.2   387  U387       -0.2650
   8363  C5        22.8590   14.9580   50.8040 C.ar  387  U387        0.0814
   8364  C6        24.1770   14.8040   50.6340 C.ar  387  U387        0.0870
   8365  OP1       26.6290   11.9120   54.7890 O.3   387  U387       -0.4373
   8366  OP2       24.2020   12.5680   54.2820 O.co2 387  U387       -0.5172
   8367  P         28.5590   16.5050   54.1870 P.3   388  G388        0.2141
   8368  C5'       28.4750   18.6740   52.6380 C.3   388  G388        0.1812
   8369  O5'       27.8880   17.8550   53.6740 O.3   388  G388       -0.3114
   8370  C4'       27.7440   19.9910   52.5790 C.3   388  G388        0.1773
   8371  O4'       26.3770   19.7470   52.1440 O.3   388  G388       -0.3307
   8372  C3'       27.6630   20.6770   53.9430 C.3   388  G388        0.1860
   8373  O3'       27.8200   22.0810   53.9790 O.3   388  G388       -0.3112
   8374  C2'       26.2640   20.3380   54.4390 C.3   388  G388        0.2309
   8375  O2'       25.6920   21.2600   55.3540 O.3   388  G388       -0.2156
   8376  C1'       25.4780   20.2130   53.1320 C.3   388  G388        0.2408
   8377  N1        20.4800   19.3030   53.1830 N.ar  388  G388       -0.1709
   8378  C2        21.1530   20.4210   52.7590 C.ar  388  G388        0.2606
   8379  N2        20.3930   21.4220   52.2930 N.pl3 388  G388       -0.0859
   8380  N3        22.4710   20.5400   52.7730 N.ar  388  G388       -0.1918
   8381  C4        23.0730   19.4300   53.2520 C.ar  388  G388        0.1723
   8382  C5        22.4920   18.2600   53.6960 C.ar  388  G388        0.1748
   8383  C6        21.0750   18.1460   53.6680 C.ar  388  G388        0.3023
   8384  O6        20.3700   17.1890   54.0030 O.2   388  G388       -0.2633
   8385  N7        23.4610   17.3590   54.1170 N.ar  388  G388       -0.2173
   8386  C8        24.5900   17.9830   53.9210 C.ar  388  G388        0.1817
   8387  N9        24.4290   19.2230   53.3510 N.ar  388  G388       -0.2693
   8388  OP1       29.8600   16.7630   54.8560 O.2   388  G388       -0.5172
   8389  OP2       27.5330   15.7080   54.8940 O.co2 388  G388       -0.4373
   8390  P         28.2060   22.7330   55.3920 P.3   389  U389        0.2141
   8391  C5'       27.4100   24.5840   53.6760 C.3   389  U389        0.1812
   8392  O5'       28.2460   24.2070   54.7930 O.3   389  U389       -0.3114
   8393  C4'       27.4090   26.0880   53.5420 C.3   389  U389        0.1772
   8394  O4'       26.1200   26.5660   53.0850 O.3   389  U389       -0.3307
   8395  C3'       27.6870   26.8560   54.8310 C.3   389  U389        0.1844
   8396  O3'       28.5030   27.9960   54.5520 O.3   389  U389       -0.3258
   8397  C2'       26.2890   27.0820   55.4350 C.3   389  U389        0.2309
   8398  O2'       26.2790   28.1320   56.4170 O.3   389  U389       -0.2156
   8399  C1'       25.3510   26.9870   54.1980 C.3   389  U389        0.2420
   8400  N1        24.2510   26.0140   54.3560 N.ar  389  U389       -0.2534
   8401  C2        22.9770   26.3430   53.9140 C.ar  389  U389        0.3546
   8402  O2        22.7030   27.4140   53.3980 O.2   389  U389       -0.2443
   8403  N3        22.0300   25.3750   54.1290 N.ar  389  U389       -0.1530
   8404  C4        22.2090   24.1450   54.7280 C.ar  389  U389        0.2846
   8405  O4        21.2470   23.3890   54.8630 O.2   389  U389       -0.2650
   8406  C5        23.5500   23.8740   55.1400 C.ar  389  U389        0.0814
   8407  C6        24.5020   24.7900   54.9380 C.ar  389  U389        0.0870
   8408  OP1       29.5630   22.2330   55.7390 O.2   389  U389       -0.5172
   8409  OP2       27.1320   22.6830   56.4230 O.co2 389  U389       -0.4373
   8410  P         29.4020   28.0110   53.1920 P.3   390  G390        0.1280
   8411  OP1       30.4130   26.9120   53.1470 O.3   390  G390       -0.1955
   8412  OP2       29.8100   29.4040   52.8650 O.co2 390  G390       -0.7863
@<TRIPOS>BOND
     1   666   645    2
     2   689   668    2
     3   646   648    1
     4   646   647    1
     5   628   645    1
     6   628   627    1
     7   651   668    1
     8   651   650    1
     9   645   647    1
    10   645   667    1
    11   668   690    1
    12   668   670    1
    13   630   629    1
    14   648   650    1
    15   648   649    1
    16   625   623    1
    17   625   627    1
    18   625   626    1
    19   650   652    1
    20   623   624    1
    21   627   629    1
    22   669   670    1
    23   669   671    1
    24   643   622    2
    25   938   939   ar
    26   938   937   ar
    27   608   607    1
    28   629   631    1
    29   709   691    2
    30   649   654    1
    31   653   652    1
    32   939   940   ar
    33   935   934    1
    34   937   942   ar
    35   626   631    1
    36   652   654    1
    37   710   691    1
    38   611   612   ar
    39   611   610   ar
    40   631   642    1
    41   624   622    1
    42   612   613   ar
    43   691   674    1
    44   691   693    1
    45   671   673    1
    46   671   672    1
    47   654   665    1
    48   607   605    1
    49   607   609    1
    50   622   606    1
    51   622   644    1
    52   934   936    1
    53   934   932    1
    54   606   605    1
    55   674   673    1
    56   952   950    1
    57   952   953    1
    58   952   954    1
    59   940   941   ar
    60   940   946   ar
    61   950   951    1
    62   969   949    2
    63   610   615   ar
    64   942   941   ar
    65   942   943    1
    66   673   675    1
    67   957   956    1
    68   989   971    2
    69   955   954    1
    70   955   971    1
    71   933   932    1
    72   933   949    1
    73   605   603    1
    74   672   677    1
    75   936   946    1
    76   936   931    1
    77   733   711    2
    78   953   958    1
    79   609   619    1
    80   609   604    1
    81   613   619   ar
    82   613   614   ar
    83   665   664   ar
    84   665   659   ar
    85   642   641   ar
    86   642   636   ar
    87   693   692    1
    88   932   930    1
    89   941   944   ar
    90   946   945   ar
    91   664   663   ar
    92   954   956    1
    93   777   756    2
    94   949   951    1
    95   949   970    1
    96   619   618   ar
    97   956   958    1
    98   958   968    1
    99   603   604    1
   100   603   601    1
   101   635   636   ar
   102   635   633   ar
   103   692   694    1
   104   971   990    1
   105   971   973    1
   106   615   614   ar
   107   615   616    1
   108   641   640   ar
   109   972   973    1
   110   972   974    1
   111   636   637   ar
   112   930   931    1
   113   930   928    1
   114   732   711    1
   115   675   676    1
   116   675   677    1
   117   614   617   ar
   118   755   734    2
   119   711   713    1
   120   711   697    1
   121   677   688    1
   122   728   727    2
   123   659   658   ar
   124   659   660   ar
   125   687   688   ar
   126   687   686   ar
   127   735   737    1
   128   735   736    1
   129   536   518    2
   130   740   756    1
   131   740   739    1
   132   634   633    1
   133   663   660   ar
   134   945   944   ar
   135   756   778    1
   136   756   758    1
   137   658   656   ar
   138   633   632   ar
   139   912   911    1
   140   516   498    2
   141   729   730   ar
   142   729   726   ar
   143   974   975    1
   144   974   976    1
   145   601   602    1
   146   618   617   ar
   147   688   682   ar
   148   737   739    1
   149   737   738    1
   150   968   967   ar
   151   968   962   ar
   152   975   980    1
   153   713   712    1
   154   640   637   ar
   155   660   661   ar
   156   694   696    1
   157   694   695    1
   158   637   638   ar
   159   686   683   ar
   160   697   696    1
   161   727   726   ar
   162   727   721   ar
   163   739   741    1
   164   730   731   ar
   165   928   929    1
   166   726   725   ar
   167   696   698    1
   168   736   734    1
   169   499   501    1
   170   499   500    1
   171   707   708   ar
   172   707   705   ar
   173   504   518    1
   174   504   503    1
   175   734   754    1
   176   734   717    1
   177   967   966   ar
   178   961   962   ar
   179   961   960   ar
   180   708   701   ar
   181   518   520    1
   182   518   537    1
   183   602   600    1
   184   757   758    1
   185   757   759    1
   186   656   657    1
   187   656   655   ar
   188   695   700    1
   189   632   638   ar
   190   896   895    2
   191   962   963   ar
   192   910   909    1
   193   910   927    1
   194   592   591    2
   195   907   908    1
   196   907   909    1
   197   907   905    1
   198   742   741    1
   199   911   913    1
   200   911   909    1
   201   976   977    1
   202   976   978    1
   203   977   991    1
   204   738   743    1
   205  1009   991    2
   206   892   891    1
   207   498   481    1
   208   498   500    1
   209   498   517    1
   210   800   779    2
   211   682   683   ar
   212   682   681   ar
   213   638   639    2
   214   501   503    1
   215   501   502    1
   216   980   978    1
   217   980   981    1
   218   481   480    1
   219   683   684   ar
   220   929   927    1
   221   721   722   ar
   222   908   913    1
   223   913   924    1
   224   712   714    1
   225   661   655   ar
   226   661   662    2
   227   520   519    1
   228   741   743    1
   229   717   716    1
   230   519   521    1
   231   503   505    1
   232   716   714    1
   233   716   718    1
   234   905   906    1
   235   947   927    2
   236   705   706    2
   237   705   704   ar
   238   799   779    1
   239   731   725   ar
   240   731   720    1
   241   725   724   ar
   242   960   959   ar
   243   979   978    1
   244  1010   991    1
   245   966   963   ar
   246   988   981   ar
   247   988   987   ar
   248   991   993    1
   249   701   700    1
   250   701   702   ar
   251   593   591   ar
   252   593   594   ar
   253   743   753    1
   254   591   590   ar
   255   556   538    2
   256   700   698    1
   257   963   964   ar
   258   895   897   ar
   259   895   894   ar
   260   698   699    1
   261   927   948    1
   262   681   679   ar
   263   600   620    2
   264   600   621    1
   265   600   586    1
   266   506   505    1
   267   779   762    1
   268   779   781    1
   269   981   982   ar
   270   893   891    1
   271   893   894    1
   272   893   888    1
   273   759   761    1
   274   759   760    1
   275   588   587    1
   276   891   889    1
   277   714   715    1
   278   483   482    1
   279   917   915   ar
   280   917   918   ar
   281   916   915    1
   282  1297  1276    2
   283   715   720    1
   284   897   898   ar
   285   502   507    1
   286   718   720    1
   287   718   719    1
   288   587   589    1
   289   587   585    1
   290   557   538    1
   291   722   724   ar
   292   722   723    1
   293   987   985   ar
   294   684   685    2
   295   684   678   ar
   296   505   507    1
   297   480   478    1
   298   480   482    1
   299   762   761    1
   300   924   918   ar
   301   924   923   ar
   302   595   594    2
   303   538   524    1
   304   538   540    1
   305   524   523    1
   306   478   476    1
   307   478   479    1
   308   894   901   ar
   309   476   477    1
   310   704   702   ar
   311   888   887    1
   312   594   596   ar
   313   959   964   ar
   314   521   523    1
   315   521   522    1
   316   906   904    1
   317   761   763    1
   318   915   914   ar
   319   496   475    2
   320   760   765    1
   321   702   703    2
   322   964   965    1
   323   918   919   ar
   324   925   904    2
   325   482   484    1
   326   590   589    1
   327   590   597   ar
   328   679   678   ar
   329   679   680    1
   330   993   992    1
   331   589   584    1
   332   753   752   ar
   333   753   747   ar
   334   982   983    2
   335   982   984   ar
   336   586   585    1
   337   781   780    1
   338   507   508    1
   339   523   525    1
   340   890   889    1
   341   890   904    1
   342   992   994    1
   343   876   875    2
   344   889   887    1
   345   585   583    1
   346   752   751   ar
   347   904   926    1
   348   898   899    1
   349   898   900   ar
   350   887   885    1
   351   923   922   ar
   352   985   984   ar
   353   985   986    1
   354  1276  1278    1
   355  1276  1298    1
   356  1276  1260    1
   357   823   801    2
   358   578   558    2
   359   522   527    1
   360   775   774   ar
   361   775   776   ar
   362   477   475    1
   363   479   484    1
   364   877   875   ar
   365   877   878   ar
   366  1277  1278    1
   367  1277  1279    1
   368   901   900   ar
   369   596   597   ar
   370   914   920   ar
   371   540   539    1
   372   475   459    1
   373   475   497    1
   374  1339  1319    2
   375  1317  1299    2
   376   484   495    1
   377  1440  1439    2
   378   765   763    1
   379   765   776    1
   380  1436  1435    1
   381   875   874   ar
   382   919   922   ar
   383   919   920   ar
   384   763   764    1
   385   515   508   ar
   386   515   514   ar
   387   747   746   ar
   388   747   748   ar
   389   508   509   ar
   390  1260  1259    1
   391   774   771   ar
   392   746   745   ar
   393  1300  1302    1
   394  1300  1301    1
   395   879   878    1
   396   780   782    1
   397   539   541    1
   398   584   583    1
   399   776   770   ar
   400   994   995    1
   401   994   996    1
   402   459   458    1
   403   822   801    1
   404   995  1000    1
   405   583   581    1
   406   797   796   ar
   407   797   798   ar
   408   525   527    1
   409   525   526    1
   410  1281  1279    1
   411  1281  1282    1
   412  1281  1283    1
   413   784   786    1
   414   784   782    1
   415   784   785    1
   416   786   787    1
   417   786   788    1
   418  1302  1303    1
   419  1302  1304    1
   420   878   880   ar
   421   751   748   ar
   422   801   785    1
   423   801   803    1
   424  1279  1280    1
   425   920   921    2
   426   796   793   ar
   427   885   886    1
   428  1262  1261    1
   429   527   528    1
   430   558   544    1
   431   558   579    1
   432   558   560    1
   433   461   460    1
   434  1008  1007   ar
   435  1008  1001   ar
   436   544   543    1
   437  1466  1448    2
   438  1007  1005   ar
   439   535   528   ar
   440   535   534   ar
   441  1435  1433    1
   442  1435  1437    1
   443   598   580    2
   444   514   512   ar
   445  1439  1441   ar
   446  1439  1438   ar
   447  1467  1448    1
   448  1305  1319    1
   449  1305  1304    1
   450   748   749   ar
   451   495   494   ar
   452   495   489   ar
   453   872   871    1
   454  1441  1442   ar
   455   782   783    1
   456  1282  1299    1
   457  1434  1448    1
   458  1434  1433    1
   459  1303  1308    1
   460  1319  1340    1
   461  1319  1321    1
   462  1299  1301    1
   463  1299  1318    1
   464   874   873    1
   465   874   881   ar
   466   509   510    2
   467   509   511   ar
   468   859   858    1
   469  1307  1306    1
   470  1488  1468    2
   471   559   560    1
   472   559   561    1
   473  5313  5312    1
   474  1033  1011    2
   475   745   744   ar
   476  1283  1284    1
   477  1283  1285    1
   478   771   770   ar
   479   771   772   ar
   480   528   529   ar
   481   534   532   ar
   482  1448  1450    1
   483   871   873    1
   484   871   869    1
   485   582   581    1
   486   582   580    1
   487   996   997    1
   488   996   998    1
   489  1259  1261    1
   490  1259  1257    1
   491   541   543    1
   492   541   542    1
   493   543   545    1
   494   802   803    1
   495   802   804    1
   496   873   868    1
   497   770   769   ar
   498  1304  1306    1
   499   798   788    1
   500   798   792   ar
   501  1511  1490    2
   502   783   788    1
   503  1417  1416    1
   504   886   884    1
   505   488   489   ar
   506   488   486   ar
   507   458   460    1
   508   458   456    1
   509  1433  1431    1
   510   494   493   ar
   511   460   462    1
   512  1001  1000    1
   513  1001  1002   ar
   514  1000   998    1
   515   857   858   ar
   516   857   855   ar
   517  1261  1263    1
   518  5307  5312   ar
   519  5307  5308   ar
   520  1005  1006    2
   521  1005  1004   ar
   522  1437  1438    1
   523  1437  1432    1
   524   880   881   ar
   525   489   490   ar
   526  1469  1471    1
   527  1469  1470    1
   528  1280  1285    1
   529   563   561    1
   530   563   564    1
   531   563   565    1
   532   793   792   ar
   533   793   794   ar
   534  1438  1445   ar
   535   997  1011    1
   536  1257  1255    1
   537  1257  1258    1
   538   580   564    1
   539   580   599    1
   540  1274  1254    2
   541   512   511   ar
   542   512   513    2
   543   858   860   ar
   544   561   562    1
   545  1512  1490    1
   546  1474  1490    1
   547  1474  1473    1
   548  5312  5311   ar
   549  1306  1308    1
   550  1442  1443    2
   551  1442  1444   ar
   552   856   855    2
   553  1415  1416   ar
   554  1415  1421   ar
   555  1308  1309    1
   556   749   744   ar
   557   749   750    1
   558  1471  1472    1
   559  1471  1473    1
   560  5436  5435    1
   561   795   794    1
   562  4331  4330    1
   563  1011  1032    1
   564  1011  1013    1
   565  1321  1320    1
   566   456   454    1
   567   456   457    1
   568  1320  1322    1
   569  1454  1468    1
   570  1454  1453    1
   571  1490  1492    1
   572  1256  1255    1
   573  1256  1254    1
   574   542   547    1
   575   555   554   ar
   576   555   548   ar
   577   487   486    1
   578   772   773    2
   579   772   766   ar
   580   998   999    1
   581  1285  1296    1
   582   843   824    2
   583  1416  1418   ar
   584   792   791   ar
   585   554   552   ar
   586   486   485   ar
   587   855   854   ar
   588  1468  1470    1
   589  1468  1489    1
   590   769   767   ar
   591   529   530    2
   592   529   531   ar
   593  5456  5455    1
   594  1422  1421    2
   595  1456  1455    1
   596  5308  5309   ar
   597  1002  1004   ar
   598  1002  1003    2
   599   493   490   ar
   600   532   531   ar
   601   532   533    1
   602  5452  5451    1
   603  5452  5457    1
   604   794   789   ar
   605  5451  5449    1
   606  5451  5453    1
   607   868   867    1
   608   869   870    1
   609   869   867    1
   610   490   491   ar
   611  1431  1432    1
   612  1431  1429    1
   613   804   806    1
   614   804   805    1
   615  1295  1296   ar
   616  1295  1294   ar
   617   545   547    1
   618   545   546    1
   619   565   566    1
   620   565   567    1
   621  1263  1258    1
   622  1263  1273    1
   623   454   455    1
   624  1362  1341    2
   625  1450  1449    1
   626   462   457    1
   627   462   472    1
   628  1421  1420   ar
   629  1472  1477    1
   630   884   870    1
   631   884   903    2
   632   884   902    1
   633  1445  1444   ar
   634  1473  1475    1
   635  5449  5450    1
   636  1240  1239    1
   637  4326  4327    1
   638  4326  4324    1
   639  4326  4328    1
   640  1476  1475    1
   641  1451  1453    1
   642  1451  1449    1
   643  1451  1452    1
   644  1254  1238    1
   645  1254  1275    1
   646   842   824    1
   647  4327  4332    1
   648  5440  5439    2
   649  5457  5455    1
   650  5457  5468    1
   651   807   824    1
   652   807   806    1
   653  1316  1309   ar
   654  1316  1315   ar
   655  1296  1290   ar
   656  4346  4347    1
   657  4346  4344    1
   658  4346  4348    1
   659   824   826    1
   660   465   464   ar
   661   465   466   ar
   662  4324  4325    1
   663   547   548    1
   664  1309  1310   ar
   665  4351  4350    1
   666   860   861   ar
   667   562   567    1
   668   548   549   ar
   669  4345  4344    1
   670  4345  4343    1
   671   806   808    1
   672  1453  1455    1
   673   867   865    1
   674  5311  5314   ar
   675  5311  5310   ar
   676  5454  5453    1
   677  5454  5471    1
   678  4332  4330    1
   679  4332  4333    1
   680  4347  4352    1
   681  5437  5435    1
   682  5437  5432    1
   683  5437  5438    1
   684   766   767   ar
   685   485   491   ar
   686  5435  5433    1
   687  4330  4328    1
   688  4329  4328    1
   689  4329  4343    1
   690  5455  5453    1
   691   805   810    1
   692  4311  4310    1
   693   767   768    1
   694  1418  1419   ar
   695   552   553    2
   696   552   551   ar
   697  1361  1341    1
   698  4349  4348    1
   699  4349  4363    1
   700   464   463   ar
   701  1322  1324    1
   702  1322  1323    1
   703  1013  1012    1
   704  1452  1457    1
   705  1238  1237    1
   706  1455  1457    1
   707   791   790   ar
   708  1492  1491    1
   709   491   492    2
   710  5432  5431    1
   711  1475  1477    1
   712  1294  1291   ar
   713   854   861   ar
   714   854   853    1
   715  1029  1030   ar
   716  1029  1026   ar
   717  1341  1325    1
   718  1341  1343    1
   719  5420  5419    2
   720   472   466   ar
   721   472   471   ar
   722  5309  5310   ar
   723  5431  5433    1
   724  5431  5429    1
   725  1399  1398    1
   726   820   819   ar
   727   820   821   ar
   728  1325  1324    1
   729   789   790   ar
   730  1429  1430    1
   731   567   577    1
   732  1477  1487    1
   733   455   453    1
   734   466   467   ar
   735  4352  4350    1
   736  4352  4353    1
   737  1071  1070    2
   738  4335  4334    2
   739  4381  4363    2
   740  1273  1267   ar
   741  1273  1272   ar
   742  4361  4343    2
   743  5434  5433    1
   744  5434  5448    1
   745  4348  4350    1
   746  1266  1267   ar
   747  1266  1265   ar
   748  5314  5315   ar
   749  1030  1031   ar
   750  1457  1458    1
   751  1420  1419   ar
   752  1420  1423   ar
   753  5489  5471    2
   754  5439  5438   ar
   755  5439  5441   ar
   756   576   577   ar
   757   576   575   ar
   758   473   453    2
   759  5450  5448    1
   760  1028  1027    2
   761  5310  5316   ar
   762  1315  1313   ar
   763  4343  4362    1
   764  5472  5474    1
   765  5472  5473    1
   766   819   816   ar
   767  1239  1237    1
   768  1239  1241    1
   769  5468  5462   ar
   770  5468  5467   ar
   771  1419  1425   ar
   772  1324  1326    1
   773  1323  1328    1
   774   852   851    1
   775  5461  5462   ar
   776  5461  5459   ar
   777  5438  5445   ar
   778  1310  1311    2
   779  1310  1312   ar
   780  1064  1070   ar
   781  1064  1065   ar
   782   549   551   ar
   783   549   550    2
   784  5474  5475    1
   785  5474  5476    1
   786  1491  1493    1
   787  1290  1291   ar
   788  1290  1289   ar
   789   463   468   ar
   790  4341  4323    2
   791  5475  5480    1
   792  5416  5415    1
   793  5397  5396   ar
   794  5397  5398   ar
   795  5469  5448    2
   796  1267  1268   ar
   797  4315  4314    2
   798  5471  5473    1
   799  5471  5490    1
   800  4325  4323    1
   801   577   571   ar
   802  4363  4365    1
   803  4363  4382    1
   804   853   851    1
   805   853   848    1
   806   826   825    1
   807  1012  1014    1
   808   851   849    1
   809   810   808    1
   810   810   821    1
   811  1237  1235    1
   812  4310  4312    1
   813  4310  4308    1
   814  4333  4334   ar
   815  4333  4340   ar
   816  5396  5401   ar
   817   471   470   ar
   818  1066  1065    1
   819   865   866    1
   820   808   809    1
   821   821   815   ar
   822  1393  1398   ar
   823  1393  1394   ar
   824  1430  1428    1
   825  1026  1027   ar
   826  1026  1025   ar
   827  5429  5430    1
   828  1291  1292   ar
   829  1070  1069   ar
   830  5460  5459    1
   831  1398  1397   ar
   832  5462  5463   ar
   833  5448  5470    1
   834  4334  4336   ar
   835  1265  1264   ar
   836  1272  1271   ar
   837   467   468   ar
   838   467   470   ar
   839   453   474    1
   840   453   439    1
   841   866   864    1
   842  2506  2485    2
   843  5419  5421   ar
   844  5419  5418   ar
   845   840   841   ar
   846   840   838   ar
   847  1027  1021   ar
   848  2528  2508    2
   849  1378  1377    1
   850  4364  4365    1
   851  4364  4366    1
   852   575   572   ar
   853  5467  5466   ar
   854  4312  4307    1
   855  4312  4313    1
   856  5479  5478    1
   857  5375  5374    1
   858  5441  5442   ar
   859  1343  1342    1
   860  1244  1243   ar
   861  1244  1245   ar
   862  1357  1356    1
   863  1487  1486   ar
   864  1487  1481   ar
   865  5459  5458   ar
   866  4353  4360   ar
   867  4353  4354   ar
   868  4309  4323    1
   869  4309  4308    1
   870   468   469    1
   871  1423  1424   ar
   872  1235  1236    1
   873  1235  1233    1
   874   839   838    2
   875  1049  1048    2
   876  1243  1242   ar
   877  1065  1067   ar
   878  4323  4342    1
   879  5315  5316   ar
   880  1289  1287   ar
   881  5421  5422   ar
   882   441   440    1
   883  1015  1014    1
   884  1015  1020    1
   885  5480  5478    1
   886  5480  5481    1
   887  1031  1025   ar
   888  1031  1020    1
   889  1358  1359   ar
   890  1358  1355   ar
   891  1241  1236    1
   892  1241  1251    1
   893  5417  5415    1
   894  5417  5418    1
   895  5417  5412    1
   896  5398  5399   ar
   897  1486  1485   ar
   898  5316  5306    1
   899  1313  1312   ar
   900  1313  1314    2
   901  4366  4367    1
   902  4366  4368    1
   903  4355  4354    2
   904   841   834   ar
   905   816   815   ar
   906   816   817   ar
   907  5415  5413    1
   908  5373  5374   ar
   909  5373  5379   ar
   910  1458  1465   ar
   911  1458  1459   ar
   912  1337  1338   ar
   913  1337  1336   ar
   914  1425  1424   ar
   915  1425  1414    1
   916  4360  4359   ar
   917   825   827    1
   918  1413  1412    1
   919  4367  4372    1
   920  4307  4306    1
   921  5445  5444   ar
   922  4306  4308    1
   923  4306  4304    1
   924   838   837   ar
   925  1460  1459    2
   926  5357  5356    1
   927  1326  1328    1
   928  1326  1327    1
   929  4314  4313   ar
   930  4314  4316   ar
   931  1328  1338    1
   932  1268  1271   ar
   933  1268  1269   ar
   934  4340  4339   ar
   935  5476  5477    1
   936  5476  5478    1
   937   439   438    1
   938  1014  1016    1
   939  1394  1395   ar
   940  5380  5379    2
   941  1447  1428    2
   942  1025  1024   ar
   943  1493  1494    1
   944  1493  1495    1
   945  1494  1499    1
   946  5477  5491    1
   947  5418  5425   ar
   948   815   814   ar
   949   848   847    1
   950  1412  1414    1
   951  1412  1410    1
   952  4354  4356   ar
   953  5401  5402    1
   954  5401  5400   ar
   955  5463  5466   ar
   956  5463  5464   ar
   957   571   572   ar
   958   571   570   ar
   959  5374  5376   ar
   960   849   850    1
   961   849   847    1
   962  1397  1400   ar
   963  1397  1396   ar
   964  1359  1360   ar
   965  5430  5428    1
   966  1264  1269   ar
   967  1233  1234    1
   968  1509  1508   ar
   969  1509  1510   ar
   970   440   438    1
   971   440   442    1
   972  1428  1446    1
   973  1428  1411    1
   974  1245  1251   ar
   975  1245  1246   ar
   976  1382  1363    2
   977  1020  1018    1
   978  4313  4320   ar
   979  4336  4337   ar
   980  1292  1293    2
   981  1292  1286   ar
   982  5412  5411    1
   983  1242  1247   ar
   984  1465  1464   ar
   985  1069  1072   ar
   986  1069  1068   ar
   987  2529  2508    1
   988  1338  1332   ar
   989  1342  1344    1
   990  4321  4303    2
   991  1459  1461   ar
   992   572   573   ar
   993  1048  1050   ar
   994  1048  1047   ar
   995  1377  1379   ar
   996  1377  1376   ar
   997  1021  1022   ar
   998   445   444    2
   999  5458  5464   ar
  1000  2508  2491    1
  1001  2508  2510    1
  1002  1336  1333   ar
  1003  1356  1355   ar
  1004  1356  1351   ar
  1005  1414  1409    1
  1006  2485  2468    1
  1007  2485  2507    1
  1008  2485  2487    1
  1009  5379  5378   ar
  1010  1251  1250   ar
  1011  1053  1034    2
  1012  1050  1051   ar
  1013  1481  1480   ar
  1014  1481  1482   ar
  1015   883   864    2
  1016  1355  1354   ar
  1017  2468  2467    1
  1018  5481  5488   ar
  1019  5481  5482   ar
  1020   864   850    1
  1021   864   882    1
  1022  5442  5444   ar
  1023  5442  5443    2
  1024   818   817    2
  1025  1508  1505   ar
  1026  1400  1401   ar
  1027   817   811   ar
  1028  1269  1270    1
  1029  2486  2487    1
  1030  2486  2488    1
  1031  1480  1479   ar
  1032  1287  1286   ar
  1033  1287  1288    1
  1034  5422  5423    1
  1035  5422  5424   ar
  1036  1093  1092    1
  1037  5399  5400   ar
  1038  5399  5405   ar
  1039  4372  4370    1
  1040  4372  4373    1
  1041  4301  4283    2
  1042  1067  1068   ar
  1043  1016  1018    1
  1044  1016  1017    1
  1045  4371  4370    1
  1046  5483  5482    2
  1047  1379  1380   ar
  1048  5306  5304    1
  1049  5306  5301    1
  1050  5488  5487   ar
  1051  5351  5356   ar
  1052  5351  5352   ar
  1053  1485  1482   ar
  1054   438   436    1
  1055   831   829    1
  1056   831   833    1
  1057   831   832    1
  1058  4359  4357   ar
  1059  4322  4303    1
  1060  4316  4317   ar
  1061  5356  5355   ar
  1062  5464  5465    2
  1063   834   833    1
  1064   834   835   ar
  1065  4304  4305    1
  1066  4305  4303    1
  1067   847   845    1
  1068  4368  4369    1
  1069  4368  4370    1
  1070   570   569   ar
  1071  4404  4383    2
  1072   827   828    1
  1073   827   829    1
  1074  1532  1513    2
  1075  5411  5413    1
  1076  5411  5409    1
  1077  5413  5414    1
  1078  5305  5304    1
  1079  4369  4383    1
  1080  5400  5403   ar
  1081  5482  5484   ar
  1082  1395  1396   ar
  1083  2491  2490    1
  1084   863   844    2
  1085   837   835   ar
  1086   828   833    1
  1087  4339  4337   ar
  1088  5414  5428    1
  1089  1072  1073   ar
  1090  1068  1074   ar
  1091   814   812   ar
  1092  1495  1496    1
  1093  1495  1497    1
  1094  4303  4289    1
  1095  1396  1402   ar
  1096  1221  1220    1
  1097  1024  1022   ar
  1098   829   830    1
  1099  2470  2469    1
  1100  1246  1247   ar
  1101  1246  1249   ar
  1102  1376  1374   ar
  1103  4356  4357   ar
  1104  1410  1411    1
  1105  1410  1408    1
  1106  1247  1248    1
  1107  5425  5424   ar
  1108  1499  1510    1
  1109  1499  1497    1
  1110  1234  1232    1
  1111  1510  1504   ar
  1112   444   446   ar
  1113   444   443   ar
  1114  1022  1023    1
  1115  5376  5377   ar
  1116  5511  5491    2
  1117  4337  4338    2
  1118  1482  1483   ar
  1119  1018  1019    1
  1120  2654  2653    1
  1121  1252  1232    2
  1122  5491  5512    1
  1123  5491  5493    1
  1124   442   443    1
  1125   442   437    1
  1126  2510  2509    1
  1127  1531  1513    1
  1128  1496  1513    1
  1129  5394  5393    1
  1130  1250  1249   ar
  1131  5428  5446    2
  1132  5428  5447    1
  1133  1360  1354   ar
  1134  1360  1350    1
  1135  1047  1045   ar
  1136  1351  1352   ar
  1137  5304  5302    1
  1138  4320  4319   ar
  1139  1363  1347    1
  1140  1363  1381    1
  1141  1363  1365    1
  1142   846   845    1
  1143   846   844    1
  1144  1051  1044   ar
  1145  4380  4373   ar
  1146  4380  4379   ar
  1147  1346  1344    1
  1148  1346  1347    1
  1149  1346  1348    1
  1150  1332  1333   ar
  1151  1332  1331   ar
  1152  1333  1334   ar
  1153  1464  1462   ar
  1154  2488  2490    1
  1155  2488  2489    1
  1156  4357  4358    1
  1157  1344  1345    1
  1158  5487  5485   ar
  1159  5301  5300    1
  1160   835   836    2
  1161   573   574    1
  1162   573   568   ar
  1163   446   447   ar
  1164  1354  1353   ar
  1165  1461  1462   ar
  1166  4373  4374   ar
  1167  5378  5377   ar
  1168  5378  5381   ar
  1169  2548  2530    2
  1170  1401  1402   ar
  1171  1513  1515    1
  1172   811   812   ar
  1173  2467  2465    1
  1174  2467  2469    1
  1175  1034  1017    1
  1176  1034  1052    1
  1177  1034  1036    1
  1178  1409  1408    1
  1179  4284  4286    1
  1180  4284  4285    1
  1181  5352  5353   ar
  1182  5405  5395    1
  1183  5405  5404   ar
  1184  4383  4405    1
  1185  4383  4385    1
  1186  1505  1504   ar
  1187  1505  1506   ar
  1188   436   437    1
  1189   436   434    1
  1190   443   450   ar
  1191  1479  1478   ar
  1192  5395  5393    1
  1193  5395  5390    1
  1194  5484  5485   ar
  1195   812   813    1
  1196  1092  1087   ar
  1197  1092  1091   ar
  1198  1380  1373   ar
  1199  5492  5493    1
  1200  5492  5494    1
  1201  5393  5391    1
  1202  5355  5358   ar
  1203  5355  5354   ar
  1204  1220  1219   ar
  1205  1220  1222   ar
  1206  2490  2492    1
  1207  2465  2463    1
  1208  2465  2466    1
  1209  2626  2627   ar
  1210  2626  2631   ar
  1211  5377  5383   ar
  1212  2464  2463    1
  1213  2464  2462    1
  1214  1497  1498    1
  1215  1402  1392    1
  1216  4283  4269    1
  1217  4283  4285    1
  1218  4283  4302    1
  1219  2469  2471    1
  1220  1345  1350    1
  1221  4317  4319   ar
  1222  4317  4318    2
  1223   844   830    1
  1224   844   862    1
  1225   569   568   ar
  1226  4269  4268    1
  1227  5485  5486    1
  1228  1219  1225   ar
  1229  1232  1215    1
  1230  1232  1253    1
  1231  1073  1074   ar
  1232  2509  2511    1
  1233  1094  1091   ar
  1234  1094  1095   ar
  1235  1427  1405    2
  1236  5409  5410    1
  1237  1404  1383    2
  1238  1504  1503   ar
  1239  5403  5404   ar
  1240  1408  1406    1
  1241  1074  1063    1
  1242  2483  2462    2
  1243  1462  1463    2
  1244  5358  5359   ar
  1245  2627  2628   ar
  1246  1374  1373   ar
  1247  1374  1375    2
  1248  1217  1216    1
  1249  4379  4377   ar
  1250  1215  1214    1
  1251  1365  1364    1
  1252  1507  1506    2
  1253  1350  1348    1
  1254  4384  4385    1
  1255  4384  4386    1
  1256  2632  2631    1
  1257  1331  1330   ar
  1258  4289  4288    1
  1259  4286  4288    1
  1260  4286  4287    1
  1261  1483  1478   ar
  1262  1483  1484    1
  1263   447   448    1
  1264   447   449   ar
  1265  4271  4270    1
  1266  2653  2648   ar
  1267  2653  2652   ar
  1268  1352  1353   ar
  1269  1087  1088   ar
  1270  1091  1090   ar
  1271  1222  1223   ar
  1272  1045  1044   ar
  1273  1045  1046    2
  1274  1044  1043    1
  1275  1348  1349    1
  1276  5495  5494    1
  1277  5495  5500    1
  1278  1334  1335    1
  1279  1334  1329   ar
  1280  1506  1500   ar
  1281  5381  5382   ar
  1282  4374  4375    2
  1283  4374  4376   ar
  1284  2489  2494    1
  1285  1407  1406    1
  1286  1407  1405    1
  1287  1373  1372    1
  1288   450   449   ar
  1289  5302  5303    1
  1290  5302  5300    1
  1291  5303  5319    1
  1292  5494  5496    1
  1293  5353  5354   ar
  1294  2631  2630   ar
  1295  4288  4290    1
  1296  1036  1035    1
  1297   434   435    1
  1298  5300  5298    1
  1299  5354  5360   ar
  1300  1216  1214    1
  1301  1216  1218    1
  1302  2466  2471    1
  1303  2462  2448    1
  1304  2462  2484    1
  1305  2530  2549    1
  1306  2530  2514    1
  1307  2530  2532    1
  1308  5390  5389    1
  1309  2525  2526   ar
  1310  2525  2522   ar
  1311  2655  2652   ar
  1312  2655  2656   ar
  1313  2526  2527   ar
  1314  5410  5408    1
  1315  1225  1226    2
  1316  1225  1224   ar
  1317  2513  2511    1
  1318  2513  2514    1
  1319  2513  2515    1
  1320  2648  2649   ar
  1321  4266  4264    1
  1322  4266  4268    1
  1323  4266  4267    1
  1324  2471  2482    1
  1325  1515  1514    1
  1326  2493  2492    1
  1327  1390  1392    1
  1328  1390  1391    1
  1329  1390  1388    1
  1330  2448  2447    1
  1331  5383  5382   ar
  1332  5383  5372    1
  1333  2450  2449    1
  1334  1214  1212    1
  1335  1392  1387    1
  1336  1095  1096   ar
  1337  2492  2494    1
  1338   422   421    1
  1339  2652  2651   ar
  1340  5299  5298    1
  1341  5299  5297    1
  1342  4264  4265    1
  1343   435   433    1
  1344  4268  4270    1
  1345  2511  2512    1
  1346  5317  5297    2
  1347  5391  5389    1
  1348  5391  5392    1
  1349  1405  1389    1
  1350  1405  1426    1
  1351  5340  5319    2
  1352  1063  1061    1
  1353  1063  1058    1
  1354  1223  1224   ar
  1355  1223  1229   ar
  1356  4387  4386    1
  1357  4387  4392    1
  1358  1503  1501   ar
  1359  2572  2550    2
  1360  5359  5360   ar
  1361  4377  4376   ar
  1362  4377  4378    2
  1363  4386  4388    1
  1364  2628  2629   ar
  1365  1330  1329   ar
  1366  5318  5297    1
  1367  1529  1530   ar
  1368  1529  1527   ar
  1369  2531  2532    1
  1370  2531  2533    1
  1371  1368  1370    1
  1372  1368  1369    1
  1373  1368  1366    1
  1374  1383  1385    1
  1375  1383  1369    1
  1376  1383  1403    1
  1377  1645  1644    1
  1378  5509  5510   ar
  1379  5509  5508   ar
  1380  4270  4272    1
  1381  1038  1043    1
  1382  1038  1037    1
  1383  2515  2516    1
  1384  2515  2517    1
  1385  1224  1227   ar
  1386  4287  4292    1
  1387  5389  5387    1
  1388  2494  2505    1
  1389  1364  1366    1
  1390  5500  5510    1
  1391  5500  5498    1
  1392  5392  5408    1
  1393  1388  1389    1
  1394  1388  1386    1
  1395  1035  1037    1
  1396  1088  1089   ar
  1397  5297  5280    1
  1398  1043  1041    1
  1399  5360  5350    1
  1400  1090  1096   ar
  1401  1090  1089   ar
  1402  5319  5339    1
  1403  5319  5321    1
  1404  1061  1062    1
  1405  1061  1059    1
  1406  1500  1501   ar
  1407  1568  1567    2
  1408  1385  1384    1
  1409   420   421   ar
  1410   420   426   ar
  1411  1668  1667    1
  1412  5372  5370    1
  1413  5372  5367    1
  1414   421   423   ar
  1415  1530  1523   ar
  1416  1370  1372    1
  1417  1370  1371    1
  1418  1528  1527    1
  1419  1372  1367    1
  1420  4281  4263    2
  1421  2656  2657   ar
  1422  1514  1516    1
  1423  1098  1077    2
  1424  2630  2629   ar
  1425  2630  2633   ar
  1426  5510  5504   ar
  1427  4267  4272    1
  1428  1218  1229    1
  1429  1218  1213    1
  1430   451   433    2
  1431  1387  1386    1
  1432  2527  2517    1
  1433  2527  2521   ar
  1434  5508  5505   ar
  1435  2449  2447    1
  1436  2449  2451    1
  1437  5496  5497    1
  1438  5496  5498    1
  1439  4265  4263    1
  1440  2611  2610    1
  1441  1229  1228   ar
  1442  2524  2523    1
  1443  2522  2523   ar
  1444  2522  2521   ar
  1445  2504  2505   ar
  1446  2504  2503   ar
  1447  1501  1502    1
  1448  4290  4292    1
  1449  4290  4291    1
  1450  1096  1086    1
  1451  5408  5427    2
  1452  5408  5426    1
  1453  1366  1367    1
  1454  2629  2635   ar
  1455  2447  2445    1
  1456  2649  2650   ar
  1457  4402  4401   ar
  1458  4402  4403   ar
  1459  2482  2476   ar
  1460  2482  2481   ar
  1461  1058  1057    1
  1462  2512  2517    1
  1463  2567  2566    2
  1464   433   452    1
  1465   433   416    1
  1466  1527  1526   ar
  1467  1663  1661    1
  1468  1663  1664    1
  1469  1663  1665    1
  1470  1037  1039    1
  1471  5370  5371    1
  1472  5370  5368    1
  1473  4272  4273    1
  1474  1548  1547    1
  1475  1700  1680    2
  1476  1076  1054    2
  1477  1212  1213    1
  1478  1212  1210    1
  1479  2475  2476   ar
  1480  2475  2473   ar
  1481  2651  2657   ar
  1482  2651  2650   ar
  1483  5335  5334    1
  1484   427   426    2
  1485  2505  2499   ar
  1486  1661  1662    1
  1487  1039  1041    1
  1488  1039  1040    1
  1489  1227  1228   ar
  1490  2571  2550    1
  1491  4251  4250    1
  1492  4292  4293    1
  1493  2550  2536    1
  1494  2550  2552    1
  1495   426   425   ar
  1496  4392  4403    1
  1497  4392  4390    1
  1498  5327  5326    1
  1499   423   424   ar
  1500  2533  2534    1
  1501  2533  2535    1
  1502  5497  5513    1
  1503  5498  5499    1
  1504  1386  1384    1
  1505  1666  1665    1
  1506  1666  1680    1
  1507  1517  1516    1
  1508  1517  1522    1
  1509  1041  1042    1
  1510  1649  1648    1
  1511  2590  2589    2
  1512  1664  1669    1
  1513  2523  2518   ar
  1514  4388  4389    1
  1515  4388  4390    1
  1516  1059  1057    1
  1517  1059  1060    1
  1518  1644  1646    1
  1519  1644  1642    1
  1520  5334  5329   ar
  1521  5334  5333   ar
  1522  4401  4398   ar
  1523  2568  2569   ar
  1524  2568  2565   ar
  1525  2445  2443    1
  1526  2445  2446    1
  1527  5329  5330   ar
  1528  2521  2520   ar
  1529  2476  2477   ar
  1530  1079  1077    1
  1531  1079  1078    1
  1532  2474  2473    1
  1533  4403  4397   ar
  1534  5504  5505   ar
  1535  5504  5503   ar
  1536  2657  2647    1
  1537  1646  1641    1
  1538  1646  1657    1
  1539  5350  5345    1
  1540  5350  5348    1
  1541  5505  5506   ar
  1542  5321  5320    1
  1543  4263  4249    1
  1544  4263  4282    1
  1545  1567  1566   ar
  1546  1567  1569   ar
  1547  5367  5366    1
  1548  5387  5388    1
  1549  5362  5341    2
  1550  1667  1665    1
  1551  1667  1669    1
  1552  2633  2634   ar
  1553  2503  2500   ar
  1554  5326  5324    1
  1555  5326  5328    1
  1556  2454  2453    2
  1557  2536  2535    1
  1558  5333  5336   ar
  1559  5333  5332   ar
  1560  1641  1640    1
  1561  1516  1518    1
  1562  2481  2480   ar
  1563  5336  5337   ar
  1564  1650  1648   ar
  1565  1650  1651   ar
  1566  5280  5279    1
  1567  1523  1522    1
  1568  1523  1524   ar
  1569  4249  4248    1
  1570  1669  1670    1
  1571  4389  4406    1
  1572  1640  1642    1
  1573  1640  1638    1
  1574  1210  1211    1
  1575  2451  2446    1
  1576  2451  2452    1
  1577  2473  2472   ar
  1578  5330  5331   ar
  1579   418   417    1
  1580  1549  1547   ar
  1581  1549  1550   ar
  1582  5388  5386    1
  1583  1077  1060    1
  1584  1077  1097    1
  1585   424   425   ar
  1586   424   430   ar
  1587  1643  1642    1
  1588  1643  1660    1
  1589   425   428   ar
  1590  2610  2609   ar
  1591  2610  2612   ar
  1592  2566  2565   ar
  1593  2566  2560   ar
  1594  1056  1054    1
  1595  1056  1055    1
  1596  1057  1055    1
  1597  1547  1546   ar
  1598   417   415    1
  1599   417   419    1
  1600  2534  2539    1
  1601  1605  1606   ar
  1602  1605  1610   ar
  1603  1552  1533    2
  1604  4390  4391    1
  1605  5332  5331   ar
  1606  5332  5338   ar
  1607   416   415    1
  1608  1680  1682    1
  1609  1680  1701    1
  1610  2535  2537    1
  1611  1589  1588    1
  1612  1648  1647   ar
  1613  5337  5338   ar
  1614  1086  1081    1
  1615  1086  1084    1
  1616  2635  2634   ar
  1617  2635  2625    1
  1618  1120  1099    2
  1619  5368  5366    1
  1620  5368  5369    1
  1621  1526  1524   ar
  1622  1054  1040    1
  1623  1054  1075    1
  1624  4425  4406    2
  1625  2443  2444    1
  1626  1081  1080    1
  1627  2569  2570   ar
  1628  1078  1080    1
  1629  5345  5344    1
  1630  5532  5513    2
  1631  2565  2564   ar
  1632  5503  5502   ar
  1633  1566  1564   ar
  1634  1678  1660    2
  1635  1681  1682    1
  1636  1681  1683    1
  1637  1522  1520    1
  1638  2552  2551    1
  1639  4275  4274    2
  1640  1197  1198   ar
  1641  1197  1202   ar
  1642  2609  2607   ar
  1643  1569  1570   ar
  1644  5338  5328    1
  1645  4273  4274   ar
  1646  4273  4280   ar
  1647  4250  4248    1
  1648  4250  4252    1
  1649  2499  2500   ar
  1650  2499  2498   ar
  1651  4424  4406    1
  1652  5324  5325    1
  1653  5324  5322    1
  1654  1662  1660    1
  1655  1611  1610    1
  1656  5348  5349    1
  1657  5348  5346    1
  1658  4293  4300   ar
  1659  4293  4294   ar
  1660  5295  5274    2
  1661  5506  5507    1
  1662  5506  5501   ar
  1663  1518  1519    1
  1664  1518  1520    1
  1665  5513  5531    1
  1666  5513  5515    1
  1667  1198  1199   ar
  1668  2589  2583   ar
  1669  2589  2588   ar
  1670  1082  1080    1
  1671  1082  1084    1
  1672  1082  1083    1
  1673  4406  4408    1
  1674  1606  1607   ar
  1675  4398  4397   ar
  1676  4398  4399   ar
  1677   415   413    1
  1678  4397  4396   ar
  1679  5320  5322    1
  1680  2518  2519   ar
  1681  1524  1525    2
  1682  4300  4299   ar
  1683  2646  2645    1
  1684  1657  1651   ar
  1685  1657  1656   ar
  1686  5279  5281    1
  1687  5279  5277    1
  1688  5296  5274    1
  1689  2453  2452   ar
  1690  2453  2455   ar
  1691  2477  2480   ar
  1692  2477  2478   ar
  1693  2500  2501   ar
  1694  5366  5364    1
  1695  1651  1652   ar
  1696  2623  2624    1
  1697  2623  2625    1
  1698  2623  2621    1
  1699   430   419    1
  1700   430   429   ar
  1701  1625  1624    1
  1702  1638  1639    1
  1703  4248  4246    1
  1704  2520  2519   ar
  1705   428   429   ar
  1706  1084  1085    1
  1707  5328  5323    1
  1708  1660  1679    1
  1709  2647  2645    1
  1710  2647  2642    1
  1711  2612  2613   ar
  1712  2452  2459   ar
  1713  1610  1609   ar
  1714  1629  1628    2
  1715   319   301    2
  1716  1211  1209    1
  1717  5276  5274    1
  1718  5276  5275    1
  1719  1551  1533    1
  1720  2625  2620    1
  1721  4274  4276   ar
  1722  1203  1202    1
  1723  1550  1543   ar
  1724  5369  5386    1
  1725   302   303    1
  1726   302   304    1
  1727  5274  5257    1
  1728  1533  1519    1
  1729  1533  1535    1
  1730  5341  5325    1
  1731  5341  5343    1
  1732  5341  5361    1
  1733   419   414    1
  1734  4280  4279   ar
  1735  5502  5501   ar
  1736  2560  2561   ar
  1737  4246  4247    1
  1738  4246  4244    1
  1739  2472  2478   ar
  1740  2498  2496   ar
  1741  2547  2546   ar
  1742  2547  2540   ar
  1743  1202  1201   ar
  1744  2583  2584   ar
  1745  1672  1671    2
  1746  1670  1671   ar
  1747  1670  1677   ar
  1748  2591  2588   ar
  1749  2591  2592   ar
  1750  1546  1544   ar
  1751  5386  5407    2
  1752  5386  5406    1
  1753  5346  5344    1
  1754  5346  5347    1
  1755  1520  1521    1
  1756  1683  1684    1
  1757  1683  1685    1
  1758  2645  2643    1
  1759  5322  5323    1
  1760  4295  4294    2
  1761  2444  2442    1
  1762  1199  1200   ar
  1763  1099  1083    1
  1764  1099  1119    1
  1765  1099  1101    1
  1766  1647  1653   ar
  1767  5529  5530   ar
  1768  5529  5527   ar
  1769  5343  5342    1
  1770  1588  1583   ar
  1771  1588  1587   ar
  1772  2539  2537    1
  1773  2539  2540    1
  1774  2595  2573    2
  1775  5365  5364    1
  1776  5365  5363    1
  1777  4252  4247    1
  1778  4252  4253    1
  1779  2588  2587   ar
  1780  5281  5282    1
  1781  5281  5283    1
  1782   303   301    1
  1783  2537  2538    1
  1784  4294  4296   ar
  1785  5344  5342    1
  1786   305   304    1
  1787   305   310    1
  1788  2570  2564   ar
  1789  2570  2559    1
  1790  4396  4394   ar
  1791  3715  3714    1
  1792  2564  2563   ar
  1793  4399  4400    2
  1794  4399  4393   ar
  1795  4255  4254    2
  1796  5291  5290    2
  1797   320   301    1
  1798  2546  2544   ar
  1799  2551  2553    1
  1800  5275  5277    1
  1801  1564  1565    2
  1802  1564  1563   ar
  1803  2478  2479    2
  1804  5528  5527    2
  1805  1684  1689    1
  1806   301   285    1
  1807  2607  2608    2
  1808  2607  2606   ar
  1809  2455  2456   ar
  1810  1570  1563   ar
  1811  3673  3672    1
  1812  2659  2638    2
  1813  1583  1584   ar
  1814   304   306    1
  1815  2460  2442    2
  1816  2642  2641    1
  1817  5292  5289   ar
  1818  5292  5293   ar
  1819  5385  5363    2
  1820  1607  1608   ar
  1821  5515  5514    1
  1822  5277  5278    1
  1823  5530  5523   ar
  1824  1671  1673   ar
  1825  3696  3695    1
  1826  1677  1676   ar
  1827  3692  3691    1
  1828  3710  3711    1
  1829  3710  3708    1
  1830  3710  3712    1
  1831  4299  4297   ar
  1832  5290  5289   ar
  1833  5290  5284   ar
  1834  1656  1655   ar
  1835  2540  2541   ar
  1836  1624  1626    1
  1837  1624  1622    1
  1838  5527  5526   ar
  1839  5272  5251    2
  1840  2431  2430    1
  1841  2459  2458   ar
  1842  2621  2622    1
  1843  2621  2619    1
  1844  5289  5288   ar
  1845  4408  4407    1
  1846  5293  5294   ar
  1847  4244  4245    1
  1848  1652  1653   ar
  1849  1652  1655   ar
  1850  2501  2502    2
  1851  2501  2495   ar
  1852   316   315    2
  1853   317   315   ar
  1854   317   318   ar
  1855   413   414    1
  1856   413   411    1
  1857  1639  1637    1
  1858  1201  1200   ar
  1859  1201  1204   ar
  1860  3713  3712    1
  1861  3713  3729    1
  1862  1230  1209    2
  1863  1628  1630   ar
  1864  1628  1627   ar
  1865  1200  1206   ar
  1866  2613  2606   ar
  1867  2554  2553    1
  1868  2554  2559    1
  1869  1195  1194    1
  1870  3711  3716    1
  1871   315   314   ar
  1872  1543  1544   ar
  1873  1543  1542    1
  1874  5284  5285   ar
  1875  1609  1608   ar
  1876  1609  1612   ar
  1877  3708  3709    1
  1878   318   311   ar
  1879  2620  2619    1
  1880  4276  4277   ar
  1881  1544  1545    2
  1882  1563  1562    1
  1883  1209  1193    1
  1884  1209  1231    1
  1885  1626  1627    1
  1886  1626  1621    1
  1887  2496  2495   ar
  1888  2496  2497    1
  1889  5514  5516    1
  1890   405   404    2
  1891  2561  2563   ar
  1892  2561  2562    1
  1893  5288  5294   ar
  1894  5288  5287   ar
  1895  5363  5347    1
  1896  5363  5384    1
  1897  2592  2593   ar
  1898  5294  5283    1
  1899  1686  1685    1
  1900  1686  1702    1
  1901  2442  2461    1
  1902  2442  2425    1
  1903  4279  4277   ar
  1904  1534  1535    1
  1905  1534  1536    1
  1906  1653  1654    2
  1907  5517  5516    1
  1908  5517  5522    1
  1909  1587  1590   ar
  1910  1587  1586   ar
  1911  3747  3729    2
  1912  1722  1702    2
  1913  1590  1591   ar
  1914  1194  1192    1
  1915  1194  1196    1
  1916  2584  2585    1
  1917  2584  2586   ar
  1918  2622  2638    1
  1919  4394  4393   ar
  1920  4394  4395    1
  1921  1685  1687    1
  1922  5285  5287   ar
  1923  5285  5286    1
  1924   314   312   ar
  1925  2606  2605    1
  1926  2640  2638    1
  1927  2640  2639    1
  1928  1101  1100    1
  1929  1608  1614   ar
  1930   311   312   ar
  1931   311   310    1
  1932  5257  5256    1
  1933  4254  4253   ar
  1934  4254  4256   ar
  1935  4253  4260   ar
  1936  3716  3714    1
  1937  3716  3726    1
  1938  5283  5278    1
  1939  4407  4409    1
  1940  1630  1631   ar
  1941  2553  2555    1
  1942  2559  2557    1
  1943  4296  4297   ar
  1944  1100  1102    1
  1945  3712  3714    1
  1946  2456  2458   ar
  1947  2456  2457    1
  1948  2587  2593   ar
  1949  2587  2586   ar
  1950  2643  2641    1
  1951  2643  2644    1
  1952   312   313    2
  1953   310   308    1
  1954  2638  2658    1
  1955  4422  4423   ar
  1956  4422  4420   ar
  1957  2427  2426    1
  1958  5523  5522    1
  1959  5523  5524   ar
  1960  1193  1192    1
  1961  4245  4243    1
  1962  3697  3695   ar
  1963  3697  3698   ar
  1964  4261  4243    2
  1965  2573  2594    1
  1966  2573  2556    1
  1967  2573  2575    1
  1968  2555  2557    1
  1969  2555  2556    1
  1970  3695  3694   ar
  1971  3730  3732    1
  1972  3730  3731    1
  1973  5526  5524   ar
  1974   412   411    1
  1975   412   410    1
  1976   343   321    2
  1977  1623  1622    1
  1978  1623  1637    1
  1979  1584  1585   ar
  1980  1627  1634   ar
  1981  3672  3674   ar
  1982  3672  3671   ar
  1983  1703  1705    1
  1984  1703  1704    1
  1985  4277  4278    1
  1986  1689  1687    1
  1987  1689  1699    1
  1988  2641  2639    1
  1989  4297  4298    2
  1990  2544  2545    1
  1991  2544  2543   ar
  1992  1658  1637    2
  1993  2619  2617    1
  1994  4421  4420    1
  1995  5273  5251    1
  1996  3691  3693    1
  1997  3691  3689    1
  1998  1572  1553    2
  1999  1204  1205   ar
  2000   285   284    1
  2001  1673  1674   ar
  2002  1537  1542    1
  2003  1537  1536    1
  2004   403   404   ar
  2005   403   401   ar
  2006   404   406   ar
  2007  5251  5253    1
  2008  5251  5234    1
  2009  1676  1674   ar
  2010  1206  1196    1
  2011  1206  1205   ar
  2012  2418  2397    2
  2013  4423  4416   ar
  2014  2430  2432   ar
  2015  2430  2429   ar
  2016  5516  5518    1
  2017  2178  2158    2
  2018  2644  2660    1
  2019   306   307    1
  2020   306   308    1
  2021  1622  1620    1
  2022   432   410    2
  2023  1192  1190    1
  2024  3693  3688    1
  2025  3693  3704    1
  2026  5522  5520    1
  2027  3729  3731    1
  2028  3729  3748    1
  2029  2541  2543   ar
  2030  2541  2542    2
  2031  1621  1620    1
  2032  5252  5253    1
  2033  5252  5254    1
  2034  1637  1659    1
  2035  2425  2424    1
  2036  1612  1613   ar
  2037  4420  4419   ar
  2038  2593  2582    1
  2039  4410  4409    1
  2040  4410  4415    1
  2041  2417  2397    1
  2042  1702  1704    1
  2043  1702  1723    1
  2044   342   321    1
  2045  1698  1699   ar
  2046  1698  1697   ar
  2047  5524  5525    2
  2048  1542  1540    1
  2049  2557  2558    1
  2050  5256  5254    1
  2051  5256  5258    1
  2052  2432  2433   ar
  2053  1196  1191    1
  2054  3674  3675   ar
  2055  1687  1688    1
  2056  1536  1538    1
  2057  2426  2424    1
  2058  2426  2428    1
  2059  3727  3707    2
  2060  2575  2574    1
  2061  2677  2678   ar
  2062  2677  2674   ar
  2063  1620  1618    1
  2064  1705  1706    1
  2065  1705  1707    1
  2066  3709  3707    1
  2067   307   321    1
  2068  1182  1181    1
  2069  3732  3733    1
  2070  3732  3734    1
  2071  2618  2617    1
  2072  2618  2616    1
  2073  2676  2675    1
  2074  1586  1585   ar
  2075  1586  1592   ar
  2076  3671  3677   ar
  2077   308   309    1
  2078  5249  5228    2
  2079  4256  4257   ar
  2080  1699  1693   ar
  2081  1591  1592   ar
  2082  4260  4259   ar
  2083  1562  1557    1
  2084  1562  1560    1
  2085  1674  1675    1
  2086  2678  2679   ar
  2087   321   323    1
  2088  1706  1711    1
  2089  3690  3689    1
  2090  3690  3707    1
  2091  3688  3687    1
  2092  4409  4411    1
  2093   402   401    2
  2094  1142  1121    2
  2095  4243  4229    1
  2096  4243  4262    1
  2097  2664  2669    1
  2098  2664  2663    1
  2099   410   431    1
  2100   410   396    1
  2101  1538  1540    1
  2102  1538  1539    1
  2103  3726  3720   ar
  2104  3726  3725   ar
  2105   401   400   ar
  2106  3687  3689    1
  2107  3687  3685    1
  2108  2141  2158    1
  2109  2141  2140    1
  2110  1614  1613   ar
  2111  1614  1604    1
  2112  4231  4230    1
  2113  2674  2675   ar
  2114  2674  2673   ar
  2115   284   282    1
  2116   284   286    1
  2117  2605  2603    1
  2118  2605  2600    1
  2119  2637  2616    2
  2120  2397  2381    1
  2121  2397  2399    1
  2122  2429  2435   ar
  2123  2675  2670   ar
  2124  1631  1632    1
  2125  1631  1633   ar
  2126  3698  3704   ar
  2127  3698  3699   ar
  2128  4416  4415    1
  2129  4416  4417   ar
  2130  1117  1116   ar
  2131  1117  1118   ar
  2132  2615  2596    2
  2133   406   407   ar
  2134  1102  1104    1
  2135  1102  1103    1
  2136   299   279    2
  2137  2136  2138    1
  2138  2136  2137    1
  2139  3694  3700   ar
  2140  3669  3668    1
  2141  5254  5255    1
  2142  2386  2387   ar
  2143  2386  2385   ar
  2144  1104  1106    1
  2145  1104  1105    1
  2146  3733  3738    1
  2147  2603  2601    1
  2148  2603  2604    1
  2149   384   383    2
  2150  1557  1556    1
  2151  4229  4228    1
  2152  4419  4417   ar
  2153  2424  2422    1
  2154  2679  2673   ar
  2155  2679  2669    1
  2156  3704  3703   ar
  2157  3719  3720   ar
  2158  3719  3718   ar
  2159  2156  2135    2
  2160  5548  5547    2
  2161  5135  5134    1
  2162  1697  1694   ar
  2163  1560  1561    1
  2164  1560  1558    1
  2165  1634  1633   ar
  2166  2673  2672   ar
  2167  2383  2382    1
  2168  3707  3728    1
  2169  1116  1113   ar
  2170  1540  1541    1
  2171  2670  2671   ar
  2172  5518  5520    1
  2173  5518  5519    1
  2174  2669  2667    1
  2175  4415  4413    1
  2176  2158  2160    1
  2177  2158  2179    1
  2178  2138  2140    1
  2179  2138  2139    1
  2180  2143  2142    1
  2181  1103  1108    1
  2182  3735  3734    1
  2183  3735  3749    1
  2184  1553  1555    1
  2185  1553  1539    1
  2186  1553  1571    1
  2187  2387  2388   ar
  2188  5234  5233    1
  2189  1106  1108    1
  2190  1106  1107    1
  2191  1592  1582    1
  2192  5250  5228    1
  2193  1161  1160    2
  2194  4417  4418    2
  2195  2120  2119    1
  2196  2200  2180    2
  2197  2159  2160    1
  2198  2159  2161    1
  2199  3720  3721   ar
  2200   287   286    1
  2201  2661  2663    1
  2202  2661  2662    1
  2203  1555  1554    1
  2204  3725  3724   ar
  2205  1190  1191    1
  2206  1190  1188    1
  2207  5258  5259    1
  2208  5258  5260    1
  2209  2616  2602    1
  2210  2616  2636    1
  2211  2672  2671   ar
  2212  1181  1180   ar
  2213  1181  1183   ar
  2214  5269  5270   ar
  2215  5269  5266   ar
  2216  5520  5521    1
  2217   282   280    1
  2218   282   283    1
  2219  2433  2439   ar
  2220  2433  2434   ar
  2221  1180  1178   ar
  2222  2601  2602    1
  2223  2601  2599    1
  2224  2428  2439    1
  2225  2428  2423    1
  2226  2600  2599    1
  2227  2582  2577    1
  2228  2582  2580    1
  2229  2660  2681    2
  2230  2660  2662    1
  2231  2660  2680    1
  2232  2385  2390   ar
  2233  4230  4228    1
  2234  4230  4232    1
  2235  5270  5271   ar
  2236  1604  1602    1
  2237  1604  1599    1
  2238   400   407   ar
  2239   400   399    1
  2240  4257  4259   ar
  2241  4257  4258    1
  2242  5228  5230    1
  2243  5228  5212    1
  2244  2118  2135    1
  2245  2118  2117    1
  2246  3675  3676   ar
  2247  3675  3681   ar
  2248  2381  2380    1
  2249  2577  2576    1
  2250  2140  2142    1
  2251  2663  2665    1
  2252  3734  3736    1
  2253  2382  2380    1
  2254  2382  2384    1
  2255  1708  1707    1
  2256  1708  1724    1
  2257  3770  3749    2
  2258  1693  1694   ar
  2259  1693  1692   ar
  2260  2574  2576    1
  2261  1602  1603    1
  2262  1602  1600    1
  2263  4411  4413    1
  2264  4411  4412    1
  2265  2598  2596    1
  2266  2598  2597    1
  2267  5268  5267    2
  2268  1707  1709    1
  2269  3668  3670    1
  2270  3668  3666    1
  2271   397   395    1
  2272   397   398    1
  2273   397   399    1
  2274  3685  3686    1
  2275   280   281    1
  2276   286   288    1
  2277  1121  1105    1
  2278  1121  1143    1
  2279  1121  1123    1
  2280  5547  5549   ar
  2281  5547  5546   ar
  2282  3677  3678    2
  2283  3677  3676   ar
  2284  1746  1724    2
  2285  1618  1619    1
  2286  2399  2398    1
  2287  1711  1709    1
  2288  1711  1721    1
  2289  5549  5550   ar
  2290  1594  1573    2
  2291  1118  1108    1
  2292  1118  1112   ar
  2293  3718  3717   ar
  2294   366   344    2
  2295  5266  5267   ar
  2296  5266  5265   ar
  2297   383   377   ar
  2298   383   382   ar
  2299  3699  3700   ar
  2300  3699  3702   ar
  2301   396   395    1
  2302  2435  2434   ar
  2303  2435  2436    2
  2304  3738  3736    1
  2305  3738  3739    1
  2306  1904  1903    1
  2307  1558  1556    1
  2308  1558  1559    1
  2309  5255  5260    1
  2310  3670  3681    1
  2311  3670  3665    1
  2312  4228  4226    1
  2313   267   266    1
  2314  5552  5533    2
  2315   323   322    1
  2316  2439  2438   ar
  2317  3737  3736    1
  2318  1694  1695   ar
  2319  5134  5133   ar
  2320  5134  5129   ar
  2321  4235  4234    2
  2322  3700  3701    2
  2323  2422  2423    1
  2324  2422  2420    1
  2325  5267  5261   ar
  2326  1138  1137    2
  2327  2137  2135    1
  2328   395   393    1
  2329  2596  2579    1
  2330  2596  2614    1
  2331  4445  4426    2
  2332  2578  2580    1
  2333  2578  2576    1
  2334  2578  2579    1
  2335  1710  1709    1
  2336  5271  5260    1
  2337  5271  5265   ar
  2338   265   279    1
  2339   265   264    1
  2340  2135  2157    1
  2341  3749  3771    1
  2342  3749  3751    1
  2343  5519  5533    1
  2344   279   281    1
  2345   279   300    1
  2346  4441  4440    1
  2347  2201  2180    1
  2348  5233  5231    1
  2349  5233  5235    1
  2350  5226  5206    2
  2351  2580  2581    1
  2352  1556  1554    1
  2353  5136  5133   ar
  2354  5136  5137   ar
  2355  5230  5229    1
  2356  2142  2144    1
  2357  3703  3702   ar
  2358  2434  2437   ar
  2359  2180  2164    1
  2360  2180  2182    1
  2361  2164  2163    1
  2362  5265  5264   ar
  2363  2599  2597    1
  2364  2380  2378    1
  2365  4413  4414    1
  2366  1160  1154   ar
  2367  1160  1159   ar
  2368  5229  5231    1
  2369  3676  3679   ar
  2370  1183  1184   ar
  2371  3681  3680   ar
  2372  2388  2394   ar
  2373  2388  2389   ar
  2374  2161  2163    1
  2375  2161  2162    1
  2376   399   394    1
  2377  1692  1691   ar
  2378  1178  1179    2
  2379  1178  1177   ar
  2380  1188  1189    1
  2381  1113  1112   ar
  2382  1113  1114   ar
  2383  2668  2667    1
  2384  2139  2144    1
  2385  1724  1745    1
  2386  1724  1726    1
  2387  3721  3724   ar
  2388  3721  3722   ar
  2389  2119  2117    1
  2390  2119  2121    1
  2391   377   378   ar
  2392  1720  1721   ar
  2393  1720  1719   ar
  2394   385   382   ar
  2395   385   386   ar
  2396   409   390    2
  2397  5227  5206    1
  2398  1619  1617    1
  2399  2408  2407   ar
  2400  2408  2409   ar
  2401  5133  5132   ar
  2402  2667  2665    1
  2403  2115  2117    1
  2404  2115  2113    1
  2405  2115  2116    1
  2406  1189  1187    1
  2407   283   288    1
  2408  5129  5130   ar
  2409  2398  2400    1
  2410  5261  5262   ar
  2411  4412  4426    1
  2412  1721  1715   ar
  2413   288   298    1
  2414  1582  1577    1
  2415  1582  1580    1
  2416  5212  5211    1
  2417  5546  5544   ar
  2418  2390  2389   ar
  2419  2390  2391    1
  2420  2697  2696    1
  2421   382   381   ar
  2422  1154  1155   ar
  2423  2421  2420    1
  2424  2421  2419    1
  2425  1139  1136   ar
  2426  1139  1140   ar
  2427  5550  5543   ar
  2428  2384  2394    1
  2429  2384  2379    1
  2430  1599  1598    1
  2431  4232  4233    1
  2432  4232  4227    1
  2433  4462  4461    1
  2434  2440  2419    2
  2435   322   324    1
  2436  2665  2666    1
  2437  5264  5262   ar
  2438  2144  2155    1
  2439  1112  1111   ar
  2440  5533  5551    1
  2441  5533  5535    1
  2442  1115  1114    1
  2443  1600  1601    1
  2444  1600  1598    1
  2445  3667  3666    1
  2446  3667  3684    1
  2447  4440  4442   ar
  2448  4440  4439   ar
  2449  3665  3664    1
  2450  3739  3746   ar
  2451  3739  3740   ar
  2452  5231  5232    1
  2453  3717  3722   ar
  2454  5262  5263    1
  2455  4234  4233   ar
  2456  4234  4236   ar
  2457  1123  1122    1
  2458  3686  3684    1
  2459  5137  5138   ar
  2460  2407  2412   ar
  2461  5206  5208    1
  2462  5206  5190    1
  2463  4226  4227    1
  2464  4226  4224    1
  2465  2394  2393   ar
  2466  1920  1922    1
  2467  1920  1921    1
  2468  2113  2114    1
  2469   262   264    1
  2470   262   260    1
  2471   262   263    1
  2472  2163  2165    1
  2473  3666  3664    1
  2474  1137  1136   ar
  2475  1137  1131   ar
  2476  3746  3745   ar
  2477   361   360    2
  2478   392   390    1
  2479   392   391    1
  2480  2409  2410   ar
  2481  4442  4443   ar
  2482  1577  1576    1
  2483  2696  2695   ar
  2484  2696  2698   ar
  2485   344   365    1
  2486   344   346    1
  2487   344   327    1
  2488  2389  2392   ar
  2489  4426  4444    1
  2490  4426  4428    1
  2491  5235  5236    1
  2492  5235  5237    1
  2493  1559  1573    1
  2494  2438  2437   ar
  2495   389   367    2
  2496  1573  1575    1
  2497  1573  1593    1
  2498  1695  1696    1
  2499  1695  1690   ar
  2500   264   266    1
  2501   266   268    1
  2502  1114  1109   ar
  2503  2695  2693   ar
  2504  3722  3723    1
  2505  1903  1905    1
  2506  1903  1901    1
  2507  1184  1177   ar
  2508  1922  1923    1
  2509  1922  1924    1
  2510  1159  1162   ar
  2511  1159  1158   ar
  2512  1177  1176    1
  2513   339   340   ar
  2514   339   336   ar
  2515  1575  1574    1
  2516  1162  1163   ar
  2517  2698  2699   ar
  2518  2121  2116    1
  2519  2121  2132    1
  2520  1208  1187    2
  2521  1580  1578    1
  2522  1580  1581    1
  2523  1719  1716   ar
  2524   260   261    1
  2525  1136  1135   ar
  2526  2402  2400    1
  2527  2402  2404    1
  2528  2402  2403    1
  2529  1902  1901    1
  2530  1902  1919    1
  2531  2274  2273    1
  2532   394   393    1
  2533   386   387   ar
  2534   393   391    1
  2535  2162  2167    1
  2536  3664  3662    1
  2537  4233  4240   ar
  2538  1691  1690   ar
  2539  1140  1141   ar
  2540  4439  4437   ar
  2541  3751  3750    1
  2542  5544  5543   ar
  2543  5544  5545    2
  2544   390   408    1
  2545   390   373    1
  2546  2378  2379    1
  2547  2378  2376    1
  2548  5132  5138   ar
  2549  5132  5131   ar
  2550  1601  1617    1
  2551   378   379    1
  2552   378   380   ar
  2553  5543  5542    1
  2554  5130  5131   ar
  2555  3680  3679   ar
  2556  2419  2403    1
  2557  2419  2441    1
  2558  5204  5184    2
  2559  3705  3684    2
  2560   340   341   ar
  2561   362   359   ar
  2562   362   363   ar
  2563  4236  4237   ar
  2564  1166  1144    2
  2565  1598  1596    1
  2566  2693  2694    2
  2567  2693  2692   ar
  2568  5208  5207    1
  2569  1908  1907    1
  2570  2400  2401    1
  2571  4212  4211    1
  2572  5211  5209    1
  2573  5211  5213    1
  2574  1937  1919    2
  2575  2182  2181    1
  2576   381   380   ar
  2577   381   387   ar
  2578  1899  1901    1
  2579  1899  1900    1
  2580  1899  1897    1
  2581  1187  1207    1
  2582  1187  1173    1
  2583  3741  3740    2
  2584  1715  1716   ar
  2585  1715  1714   ar
  2586  1923  1928    1
  2587  3684  3706    1
  2588  5247  5246   ar
  2589  5247  5248   ar
  2590  2404  2405    1
  2591  2404  2406    1
  2592  2699  2692   ar
  2593  1155  1156    1
  2594  1155  1157   ar
  2595  1905  1900    1
  2596  1905  1916    1
  2597  3740  3742   ar
  2598   338   337    2
  2599  2272  2273   ar
  2600  2272  2278   ar
  2601  5138  5128    1
  2602   263   268    1
  2603  5535  5534    1
  2604  4443  4436   ar
  2605  2666  2682    1
  2606  5246  5243   ar
  2607  1927  1926    1
  2608  1726  1725    1
  2609  1174  1176    1
  2610  1174  1172    1
  2611  1174  1175    1
  2612   298   292   ar
  2613   298   297   ar
  2614  5207  5209    1
  2615  1617  1636    2
  2616  1617  1635    1
  2617   291   292   ar
  2618   291   290   ar
  2619  2692  2691    1
  2620  5127  5126    1
  2621   360   359   ar
  2622   360   354   ar
  2623   346   345    1
  2624  1925  1924    1
  2625  1925  1939    1
  2626   327   326    1
  2627  3745  3743   ar
  2628  4461  4460   ar
  2629  4461  4456   ar
  2630  1131  1132   ar
  2631   268   269    1
  2632   326   324    1
  2633   326   328    1
  2634  5683  5682    1
  2635  4463  4460   ar
  2636  4463  4464   ar
  2637  5232  5237    1
  2638  1578  1576    1
  2639  1578  1579    1
  2640  3750  3752    1
  2641  1597  1596    1
  2642  1597  1595    1
  2643  1122  1124    1
  2644  2181  2183    1
  2645   324   325    1
  2646  6696  6695    1
  2647  2166  2165    1
  2648  4224  4225    1
  2649  1909  1907   ar
  2650  1909  1910   ar
  2651  2279  2278    2
  2652  5663  5662    1
  2653  5140  5119    2
  2654  4428  4427    1
  2655  1616  1595    2
  2656  1111  1110   ar
  2657  2393  2392   ar
  2658  5190  5189    1
  2659  5537  5542    1
  2660  5537  5536    1
  2661  2221  2202    2
  2662  2273  2275   ar
  2663   388   367    1
  2664  5248  5237    1
  2665  5248  5242   ar
  2666  1716  1717   ar
  2667  2125  2123   ar
  2668  2125  2126   ar
  2669  1921  1919    1
  2670  2155  2154   ar
  2671  2155  2149   ar
  2672   387   376    1
  2673  5678  5676    1
  2674  5678  5679    1
  2675  5678  5680    1
  2676  2124  2123    1
  2677  2165  2167    1
  2678  2412  2413    1
  2679  2412  2411   ar
  2680  2133  2112    2
  2681   368   369    1
  2682   368   370    1
  2683  1960  1939    2
  2684   359   358   ar
  2685   367   369    1
  2686   367   350    1
  2687  2410  2411   ar
  2688  2410  2416   ar
  2689  2114  2112    1
  2690  1576  1574    1
  2691  4437  4436   ar
  2692  4437  4438    2
  2693   336   337   ar
  2694   336   335   ar
  2695  1714  1713   ar
  2696  1176  1171    1
  2697   363   364   ar
  2698  1884  1883    1
  2699  1924  1926    1
  2700  5243  5242   ar
  2701  5243  5244   ar
  2702  5126  5128    1
  2703  5126  5124    1
  2704  5716  5695    2
  2705  5676  5677    1
  2706  1919  1938    1
  2707  1158  1157   ar
  2708  1158  1164   ar
  2709  5209  5210    1
  2710  5542  5540    1
  2711  1172  1173    1
  2712  1172  1170    1
  2713  1163  1164   ar
  2714   292   293   ar
  2715  4436  4435    1
  2716  2691  2686    1
  2717  2691  2689    1
  2718  1109  1110   ar
  2719   372   373    1
  2720   372   370    1
  2721   372   374    1
  2722   337   331   ar
  2723  2686  2685    1
  2724  6704  6705   ar
  2725  6704  6702   ar
  2726  5245  5244    2
  2727  5681  5680    1
  2728  5681  5695    1
  2729  1907  1906   ar
  2730  2167  2177    1
  2731  2278  2277   ar
  2732   261   259    1
  2733  4460  4459   ar
  2734  1725  1727    1
  2735  1897  1898    1
  2736  6705  6698   ar
  2737  1928  1926    1
  2738  1928  1929    1
  2739  5242  5241   ar
  2740  1135  1141   ar
  2741  1135  1134   ar
  2742  4240  4239   ar
  2743  5679  5684    1
  2744  2401  2406    1
  2745  2132  2126   ar
  2746  2132  2131   ar
  2747  1141  1130    1
  2748  5244  5238   ar
  2749  2376  2377    1
  2750  6695  6697    1
  2751  6695  6693    1
  2752   244   243    1
  2753   325   330    1
  2754  5213  5214    1
  2755  5213  5215    1
  2756  4456  4457   ar
  2757   341   335   ar
  2758   341   330    1
  2759  3742  3743   ar
  2760  1743  1742   ar
  2761  1743  1744   ar
  2762   290   289   ar
  2763  5205  5184    1
  2764  4237  4239   ar
  2765  4237  4238    2
  2766  4211  4210   ar
  2767  4211  4213   ar
  2768   297   296   ar
  2769  5568  5567    1
  2770  5184  5186    1
  2771  5184  5167    1
  2772  4225  4223    1
  2773  2148  2149   ar
  2774  2148  2146   ar
  2775  4430  4435    1
  2776  4430  4429    1
  2777  1742  1739   ar
  2778  5128  5123    1
  2779   354   355   ar
  2780  2123  2122   ar
  2781  3662  3663    1
  2782  5693  5675    2
  2783  2100  2099    1
  2784  2220  2202    1
  2785  5534  5536    1
  2786  2406  2416    1
  2787  1595  1579    1
  2788  1595  1615    1
  2789  2154  2153   ar
  2790  3743  3744    2
  2791  2411  2414   ar
  2792  1916  1910   ar
  2793  1916  1915   ar
  2794  1186  1167    2
  2795  6703  6702    1
  2796  2377  2375    1
  2797  1939  1941    1
  2798  1939  1961    1
  2799  6702  6701   ar
  2800  5121  5119    1
  2801  5121  5120    1
  2802  2126  2127   ar
  2803  4464  4465   ar
  2804  5185  5186    1
  2805  5185  5187    1
  2806   277   259    2
  2807  5091  5090    2
  2808  1144  1165    1
  2809  1144  1146    1
  2810  1144  1127    1
  2811  6698  6697    1
  2812  6698  6699   ar
  2813  5680  5682    1
  2814  1910  1911   ar
  2815  5241  5239   ar
  2816  4210  4216   ar
  2817  2112  2098    1
  2818  2112  2134    1
  2819  2149  2150   ar
  2820  6697  6692    1
  2821  2717  2716    1
  2822  1728  1727    1
  2823  1728  1733    1
  2824  5682  5684    1
  2825   271   270    2
  2826  4427  4429    1
  2827  5238  5239   ar
  2828  5189  5187    1
  2829  5189  5191    1
  2830  1164  1153    1
  2831   370   371    1
  2832  1132  1134   ar
  2833  1132  1133    1
  2834  2416  2415   ar
  2835  5119  5139    1
  2836  5119  5102    1
  2837  2202  2186    1
  2838  2202  2204    1
  2839  5684  5685    1
  2840   374   376    1
  2841   374   375    1
  2842  5089  5090   ar
  2843  5089  5087   ar
  2844   345   347    1
  2845   335   334   ar
  2846  1126  1124    1
  2847  1126  1127    1
  2848  1126  1128    1
  2849  1124  1125    1
  2850  1888  1887    2
  2851  5120  5122    1
  2852  2682  2701    2
  2853  2682  2684    1
  2854  2682  2700    1
  2855  2275  2276   ar
  2856   328   330    1
  2857   328   329    1
  2858  1125  1130    1
  2859  5088  5087    2
  2860  5536  5538    1
  2861  5182  5161    2
  2862  6669  6670    1
  2863  6669  6671    1
  2864  5239  5240    1
  2865  5696  5698    1
  2866  5696  5697    1
  2867  4435  4433    1
  2868  1171  1170    1
  2869  1717  1718    1
  2870  1717  1712   ar
  2871   358   364   ar
  2872   358   357   ar
  2873  1940  1941    1
  2874  1940  1942    1
  2875   269   270   ar
  2876   269   276   ar
  2877   376   371    1
  2878  5661  5675    1
  2879  5661  5660    1
  2880   364   353    1
  2881  2364  2363    1
  2882   349   350    1
  2883   349   347    1
  2884   349   351    1
  2885  1713  1712   ar
  2886  5662  5664    1
  2887  5662  5660    1
  2888  3752  3753    1
  2889  3752  3754    1
  2890  5695  5697    1
  2891  5695  5717    1
  2892   242   259    1
  2893   242   241    1
  2894  2183  2185    1
  2895  2183  2184    1
  2896  2684  2683    1
  2897   259   278    1
  2898  1169  1167    1
  2899  1169  1168    1
  2900  6701  6699   ar
  2901  3768  3767   ar
  2902  3768  3769   ar
  2903  2098  2097    1
  2904  4213  4214   ar
  2905  3753  3758    1
  2906  3767  3764   ar
  2907  6699  6700    2
  2908  5124  5122    1
  2909  5124  5125    1
  2910  3663  3661    1
  2911  1883  1885    1
  2912  1883  1881    1
  2913  5159  5141    2
  2914  1727  1729    1
  2915  5090  5092   ar
  2916  5187  5188    1
  2917  5224  5223   ar
  2918  5224  5225   ar
  2919  5123  5122    1
  2920  2176  2177   ar
  2921  2176  2175   ar
  2922   331   332   ar
  2923  2177  2171   ar
  2924  2716  2715   ar
  2925  2716  2718   ar
  2926  2277  2276   ar
  2927  2277  2280   ar
  2928   293   296   ar
  2929   293   294   ar
  2930  2186  2185    1
  2931  5210  5215    1
  2932  5677  5675    1
  2933  1130  1128    1
  2934  1170  1168    1
  2935  2715  2713   ar
  2936  2131  2130   ar
  2937  5087  5086   ar
  2938  2685  2683    1
  2939  2685  2687    1
  2940  3792  3772    2
  2941  1146  1145    1
  2942  2257  2256    2
  2943  1906  1912   ar
  2944  2147  2146    1
  2945  4429  4431    1
  2946   243   241    1
  2947   243   245    1
  2948  1929  1936   ar
  2949  1929  1930   ar
  2950  5667  5666    2
  2951  4459  4465   ar
  2952  4459  4458   ar
  2953   248   247    1
  2954  1744  1733    1
  2955  1744  1738   ar
  2956  5567  5569   ar
  2957  5567  5566   ar
  2958  5223  5220   ar
  2959  2099  2097    1
  2960  2099  2101    1
  2961   270   272   ar
  2962  2146  2145   ar
  2963  2689  2690    1
  2964  2689  2687    1
  2965  4208  4207    1
  2966  5540  5538    1
  2967  5540  5541    1
  2968  5215  5225    1
  2969  1898  1896    1
  2970   355   357   ar
  2971   355   356    1
  2972  5675  5694    1
  2973  6693  6694    1
  2974  6693  6691    1
  2975  6670  6668    1
  2976  2276  2282   ar
  2977  6671  6672    1
  2978  6671  6673    1
  2979  6694  6708    1
  2980   289   294   ar
  2981   347   348    1
  2982  4457  4458   ar
  2983  5225  5219   ar
  2984  5167  5166    1
  2985  2185  2187    1
  2986  5664  5659    1
  2987  5664  5665    1
  2988  1167  1185    1
  2989  1167  1150    1
  2990  3793  3772    1
  2991  1739  1740   ar
  2992  1739  1738   ar
  2993  2395  2375    2
  2994  5698  5699    1
  2995  5698  5700    1
  2996  5658  5660    1
  2997  5658  5659    1
  2998  5658  5656    1
  2999  4241  4223    2
  3000  1128  1129    1
  3001  2718  2719   ar
  3002  1882  1881    1
  3003  1882  1896    1
  3004  4465  4455    1
  3005  5538  5539    1
  3006  4068  4048    2
  3007  1733  1731    1
  3008  4223  4242    1
  3009  4223  4206    1
  3010  2153  2150   ar
  3011   276   275   ar
  3012  2122  2128   ar
  3013  4216  4217    2
  3014  4216  4215   ar
  3015   348   353    1
  3016  1915  1914   ar
  3017  2184  2189    1
  3018  2198  2197   ar
  3019  2198  2199   ar
  3020  1741  1740    2
  3021  2414  2415   ar
  3022  1931  1930    2
  3023  3754  3755    1
  3024  3754  3756    1
  3025   351   353    1
  3026   351   352    1
  3027  2713  2714    2
  3028  2713  2712   ar
  3029  1936  1935   ar
  3030  5569  5570   ar
  3031  1885  1886    1
  3032  1885  1880    1
  3033  2150  2151   ar
  3034  5183  5161    1
  3035   334   332   ar
  3036  2127  2130   ar
  3037  2127  2128   ar
  3038  6730  6708    2
  3039  5191  5192    1
  3040  5191  5193    1
  3041  1942  1943    1
  3042  1942  1944    1
  3043  2217  2216    2
  3044   241   239    1
  3045  1149  1151    1
  3046  1149  1150    1
  3047  1149  1147    1
  3048  6692  6691    1
  3049  1911  1912   ar
  3050  1911  1914   ar
  3051  6687  6668    2
  3052  2375  2358    1
  3053  2375  2396    1
  3054  2097  2095    1
  3055  5588  5587    2
  3056  5220  5219   ar
  3057  5220  5221   ar
  3058  1887  1886   ar
  3059  1887  1889   ar
  3060  2104  2103    2
  3061  5102  5101    1
  3062  5699  5704    1
  3063  3772  3755    1
  3064  3772  3774    1
  3065  1153  1151    1
  3066  1153  1148    1
  3067   294   295    1
  3068  6672  6677    1
  3069  5161  5163    1
  3070  5161  5147    1
  3071   332   333    1
  3072  1151  1152    1
  3073  2197  2194   ar
  3074  5685  5692   ar
  3075  5685  5686   ar
  3076  5566  5564   ar
  3077  5125  5141    1
  3078  4207  4209    1
  3079  4207  4205    1
  3080  5219  5218   ar
  3081  4431  4433    1
  3082  4431  4432    1
  3083  1881  1879    1
  3084  4214  4215   ar
  3085  4214  4220   ar
  3086  2218  2216   ar
  3087  2218  2219   ar
  3088  2204  2203    1
  3089  2363  2365   ar
  3090  2363  2362   ar
  3091  1930  1932   ar
  3092  3769  3758    1
  3093  3769  3763   ar
  3094   249   247   ar
  3095   249   250   ar
  3096  2358  2357    1
  3097  2280  2281   ar
  3098  1740  1734   ar
  3099  2687  2688    1
  3100  2719  2712   ar
  3101  5687  5686    2
  3102  1738  1737   ar
  3103  5092  5093   ar
  3104  4433  4434    1
  3105  3764  3765   ar
  3106  3764  3763   ar
  3107  2712  2711    1
  3108  1943  1948    1
  3109  1729  1731    1
  3110  1729  1730    1
  3111  5086  5093   ar
  3112  5086  5085    1
  3113   247   246   ar
  3114  3766  3765    2
  3115  2175  2172   ar
  3116  3758  3756    1
  3117  1912  1913    2
  3118  6656  6655    1
  3119  5141  5160    1
  3120  5141  5143    1
  3121  2365  2366   ar
  3122  1917  1896    2
  3123  5222  5221    1
  3124  4206  4205    1
  3125  5221  5216   ar
  3126   245   240    1
  3127   245   256    1
  3128  2256  2255   ar
  3129  2256  2258   ar
  3130  6668  6686    1
  3131  6668  6654    1
  3132  5666  5665   ar
  3133  5666  5668   ar
  3134  2095  2096    1
  3135  2095  2093    1
  3136  2101  2096    1
  3137  2101  2102    1
  3138  2171  2170   ar
  3139  2171  2172   ar
  3140  6725  6724    2
  3141  1896  1918    1
  3142  1145  1147    1
  3143  6691  6689    1
  3144   239   240    1
  3145   239   237    1
  3146  4215  4218   ar
  3147  5572  5553    2
  3148  1148  1147    1
  3149  4090  4070    2
  3150  2128  2129    2
  3151  4467  4446    2
  3152  5188  5193    1
  3153  5608  5607    2
  3154  6726  6727   ar
  3155  6726  6723   ar
  3156  6708  6710    1
  3157  6708  6729    1
  3158  5218  5217   ar
  3159  2216  2215   ar
  3160  5692  5691   ar
  3161  1769  1747    2
  3162  6674  6673    1
  3163  6674  6688    1
  3164  1879  1880    1
  3165  1879  1877    1
  3166  1886  1893   ar
  3167  6673  6675    1
  3168  2145  2151   ar
  3169  5656  5657    1
  3170  3661  3647    1
  3171  3661  3683    2
  3172  3661  3682    1
  3173  2282  2281   ar
  3174  2282  2271    1
  3175  5665  5672   ar
  3176   272   273   ar
  3177  1889  1890   ar
  3178  5166  5164    1
  3179  5166  5168    1
  3180  5686  5688   ar
  3181  5701  5700    1
  3182  5701  5718    1
  3183  5703  5702    1
  3184  4032  4048    1
  3185  4032  4031    1
  3186  3649  3648    1
  3187  3765  3759   ar
  3188  5700  5702    1
  3189  4450  4455    1
  3190  4450  4449    1
  3191  2711  2706    1
  3192  2711  2709    1
  3193  2199  2189    1
  3194  2199  2193   ar
  3195  5162  5163    1
  3196  5162  5164    1
  3197  1731  1732    1
  3198  5570  5563   ar
  3199  6710  6709    1
  3200  2189  2187    1
  3201  3763  3762   ar
  3202  2241  2222    2
  3203  4209  4220    1
  3204  4209  4204    1
  3205  2151  2152    2
  3206  5587  5586   ar
  3207  5587  5589   ar
  3208  5216  5217   ar
  3209  2170  2169   ar
  3210  2255  2253   ar
  3211  4455  4453    1
  3212  2219  2212   ar
  3213  3756  3757    1
  3214  4048  4050    1
  3215  4048  4069    1
  3216  5193  5203    1
  3217  5085  5080    1
  3218  5085  5083    1
  3219   275   273   ar
  3220  2269  2270    1
  3221  2269  2271    1
  3222  2269  2267    1
  3223  5539  5553    1
  3224  2187  2188    1
  3225  5739  5718    2
  3226  3647  3646    1
  3227  1935  1933   ar
  3228  2706  2705    1
  3229  2237  2236    1
  3230  1945  1944    1
  3231  1945  1962    1
  3232  5147  5146    1
  3233  4220  4219   ar
  3234  2362  2368   ar
  3235  2103  2102   ar
  3236  2103  2105   ar
  3237  4205  4203    1
  3238  6727  6728   ar
  3239  5080  5079    1
  3240  4049  4050    1
  3241  4049  4051    1
  3242  5202  5203   ar
  3243  5202  5201   ar
  3244  6706  6688    2
  3245  2356  2355    1
  3246  2356  2361    1
  3247  5704  5702    1
  3248  5704  5715    1
  3249  5564  5563   ar
  3250  5564  5565    2
  3251  5586  5584   ar
  3252  1944  1946    1
  3253  4091  4070    1
  3254  2172  2173   ar
  3255  2305  2285    2
  3256   250   256   ar
  3257   250   251   ar
  3258  4432  4446    1
  3259  4046  4026    2
  3260  5101  5103    1
  3261  5101  5099    1
  3262  4447  4449    1
  3263  4447  4448    1
  3264  2203  2205    1
  3265  1730  1747    1
  3266  6724  6723   ar
  3267  6724  6718   ar
  3268  6677  6675    1
  3269  6677  6678    1
  3270  5203  5197   ar
  3271  5143  5142    1
  3272  2258  2259   ar
  3273  2737  2736    2
  3274  2355  2357    1
  3275  2355  2353    1
  3276  5164  5165    1
  3277  6723  6722   ar
  3278   256   255   ar
  3279  2194  2193   ar
  3280  2194  2195   ar
  3281  4027  4029    1
  3282  4027  4028    1
  3283  2271  2266    1
  3284  1932  1933   ar
  3285  2688  2702    1
  3286  2093  2094    1
  3287  1734  1735   ar
  3288  2102  2109   ar
  3289   246   252   ar
  3290  1737  1735   ar
  3291  5104  5103    1
  3292  5668  5669   ar
  3293  2361  2372    1
  3294  2361  2359    1
  3295   273   274    1
  3296  2357  2359    1
  3297  1764  1763    2
  3298  4070  4054    1
  3299  4070  4072    1
  3300  6690  6688    1
  3301  6690  6689    1
  3302  6655  6653    1
  3303  6655  6657    1
  3304  3774  3773    1
  3305  5607  5606   ar
  3306  5607  5609   ar
  3307  5201  5198   ar
  3308  5606  5604   ar
  3309   237   238    1
  3310  4029  4031    1
  3311  4029  4030    1
  3312  2306  2285    1
  3313  5563  5562    1
  3314  5553  5571    1
  3315  5553  5555    1
  3316  1948  1946    1
  3317  1948  1959    1
  3318  2366  2372   ar
  3319  2366  2367   ar
  3320   225   224    1
  3321  6688  6707    1
  3322  4446  4448    1
  3323  4446  4466    1
  3324  1765  1766   ar
  3325  1765  1762   ar
  3326  3646  3648    1
  3327  3646  3644    1
  3328  4218  4219   ar
  3329  5168  5169    1
  3330  5168  5170    1
  3331  4451  4449    1
  3332  4451  4453    1
  3333  4451  4452    1
  3334  1747  1768    1
  3335  1747  1749    1
  3336  5103  5105    1
  3337  5718  5740    1
  3338  5718  5720    1
  3339  4188  4189   ar
  3340  4188  4193   ar
  3341  3648  3650    1
  3342  6654  6653    1
  3343  5691  5689   ar
  3344  4453  4454    1
  3345  4034  4033    1
  3346  2735  2736   ar
  3347  2735  2733   ar
  3348  1868  1867    2
  3349  6675  6676    1
  3350  5197  5198   ar
  3351  5197  5196   ar
  3352  2736  2738   ar
  3353  4054  4053    1
  3354  5672  5671   ar
  3355  5657  5655    1
  3356  1947  1946    1
  3357  4031  4033    1
  3358  1933  1934    2
  3359  2196  2195    1
  3360  2193  2192   ar
  3361  2215  2213   ar
  3362  7977  7955    2
  3363  5589  5590   ar
  3364  5688  5689   ar
  3365  1877  1878    1
  3366  1893  1892   ar
  3367  5198  5199   ar
  3368  7953  7935    2
  3369  1735  1736    1
  3370  1890  1892   ar
  3371  1890  1891    1
  3372  2105  2106   ar
  3373  4203  4204    1
  3374  4203  4201    1
  3375  6663  6662    2
  3376  2285  2268    1
  3377  2285  2287    1
  3378  5714  5715   ar
  3379  5714  5713   ar
  3380  1983  1962    2
  3381  3759  3760   ar
  3382  2238  2236   ar
  3383  2238  2239   ar
  3384  4194  4193    1
  3385  6678  6685   ar
  3386  6678  6679   ar
  3387  2360  2359    1
  3388  2267  2268    1
  3389  2267  2265    1
  3390  1958  1959   ar
  3391  1958  1957   ar
  3392  6662  6664   ar
  3393  6662  6661   ar
  3394  2236  2235   ar
  3395  6664  6665   ar
  3396  3762  3760   ar
  3397  2372  2371   ar
  3398  5099  5097    1
  3399  5099  5100    1
  3400  5715  5709   ar
  3401  4051  4053    1
  3402  4051  4052    1
  3403  5196  5195   ar
  3404  6728  6722   ar
  3405  6728  6717    1
  3406  5584  5585    2
  3407  5584  5583   ar
  3408  6685  6684   ar
  3409  4189  4190   ar
  3410  2721  2702    2
  3411  2253  2254    2
  3412  2253  2252   ar
  3413  2709  2710    1
  3414  2709  2707    1
  3415  3659  3641    2
  3416  6661  6659   ar
  3417  6665  6658   ar
  3418  3773  3775    1
  3419  2094  2092    1
  3420  2734  2733    2
  3421  2195  2190   ar
  3422  6709  6711    1
  3423  5146  5144    1
  3424  5146  5148    1
  3425  2169  2168   ar
  3426  6653  6651    1
  3427  6718  6719   ar
  3428  2212  2213   ar
  3429  2212  2211    1
  3430  6712  6717    1
  3431  6712  6711    1
  3432  2733  2732   ar
  3433  1766  1767   ar
  3434  5079  5081    1
  3435  5079  5077    1
  3436  1962  1984    1
  3437  1962  1964    1
  3438  1959  1953   ar
  3439  2368  2367   ar
  3440  2368  2369    2
  3441  6659  6658   ar
  3442  6659  6660    2
  3443  6658  6657    1
  3444  2705  2703    1
  3445  2705  2707    1
  3446  6722  6721   ar
  3447  5097  5098    1
  3448  2222  2208    1
  3449  2222  2240    1
  3450  2222  2224    1
  3451  5083  5084    1
  3452  5083  5081    1
  3453   251   252   ar
  3454   251   254   ar
  3455  2207  2205    1
  3456  2207  2208    1
  3457  2207  2209    1
  3458  1763  1762   ar
  3459  1763  1757   ar
  3460  2081  2080   ar
  3461  2081  2082   ar
  3462  5605  5604    2
  3463  2704  2702    1
  3464  2704  2703    1
  3465  4193  4192   ar
  3466  2738  2739   ar
  3467  2205  2206    1
  3468  6657  6652    1
  3469  5689  5690    1
  3470  5199  5200    1
  3471  5199  5194   ar
  3472  4028  4026    1
  3473  2353  2354    1
  3474  5604  5603   ar
  3475  4150  4149    1
  3476  2702  2720    1
  3477  2173  2168   ar
  3478  2173  2174    1
  3479   252   253    2
  3480  2259  2252   ar
  3481  5142  5144    1
  3482  5082  5081    1
  3483  5082  5096    1
  3484   238   236    1
  3485  4026  4012    1
  3486  4026  4047    1
  3487  1762  1761   ar
  3488  5673  5655    2
  3489  2367  2370   ar
  3490  5669  5671   ar
  3491  5669  5670    1
  3492   255   254   ar
  3493  4033  4035    1
  3494  4053  4055    1
  3495  5555  5554    1
  3496  3760  3761    1
  3497  4452  4468    1
  3498  5195  5194   ar
  3499  2206  2211    1
  3500  2109  2108   ar
  3501  6680  6679    2
  3502  5609  5610   ar
  3503  5557  5562    1
  3504  5557  5556    1
  3505  5165  5170    1
  3506  2266  2265    1
  3507  1864  1863    1
  3508  4030  4035    1
  3509  6679  6681   ar
  3510  5562  5560    1
  3511  5144  5145    1
  3512  5098  5096    1
  3513  1787  1786    2
  3514  2213  2214    2
  3515  4072  4071    1
  3516   224   223   ar
  3517   224   226   ar
  3518  2080  2085   ar
  3519  4012  4011    1
  3520  4501  4500   ar
  3521  4501  4502   ar
  3522  2732  2739   ar
  3523  2732  2731    1
  3524  6684  6682   ar
  3525  1867  1869   ar
  3526  1867  1866   ar
  3527  7933  7915    2
  3528  1957  1954   ar
  3529  5170  5181    1
  3530  5590  5583   ar
  3531  6717  6715    1
  3532  1878  1876    1
  3533  3643  3641    1
  3534  3643  3642    1
  3535  6711  6713    1
  3536  2252  2251    1
  3537  2082  2083   ar
  3538  5643  5642    1
  3539  5719  5720    1
  3540  5719  5721    1
  3541  1749  1748    1
  3542  5077  5078    1
  3543  3644  3642    1
  3544  3644  3645    1
  3545  5713  5710   ar
  3546  1869  1870   ar
  3547  4172  4171    1
  3548  5583  5582    1
  3549  2707  2708    1
  3550  4500  4505   ar
  3551  3650  3651    1
  3552  3650  3645    1
  3553  4502  4503   ar
  3554  5655  5641    1
  3555  5655  5674    1
  3556  4112  4092    2
  3557  2239  2232   ar
  3558  2192  2191   ar
  3559  5105  5100    1
  3560  5105  5116    1
  3561  2211  2209    1
  3562  3641  3660    1
  3563  3641  3625    1
  3564  2235  2233   ar
  3565  2265  2263    1
  3566  6719  6721   ar
  3567  6719  6720    1
  3568  2106  2108   ar
  3569  2106  2107    2
  3570  3776  3775    1
  3571  3776  3781    1
  3572  4014  4013    1
  3573  4190  4191   ar
  3574  2261  2242    2
  3575  2224  2223    1
  3576  4052  4057    1
  3577  5181  5180   ar
  3578  5181  5175   ar
  3579  4201  4202    1
  3580  4071  4073    1
  3581  7955  7976    1
  3582  7955  7957    1
  3583  7955  7941    1
  3584   223   229   ar
  3585  2078  2077    1
  3586  3775  3777    1
  3587  5180  5179   ar
  3588  5709  5708   ar
  3589  5709  5710   ar
  3590  5148  5149    1
  3591  5148  5150    1
  3592  5641  5640    1
  3593  1863  1865    1
  3594  1863  1861    1
  3595  7935  7954    1
  3596  7935  7921    1
  3597  7935  7937    1
  3598  2371  2370   ar
  3599  4113  4092    1
  3600  2731  2726    1
  3601  2731  2729    1
  3602  1964  1963    1
  3603  2287  2286    1
  3604  2110  2092    2
  3605  4035  4045    1
  3606  1953  1954   ar
  3607  1953  1952   ar
  3608  6681  6682   ar
  3609  4144  4149   ar
  3610  4144  4145   ar
  3611  5554  5556    1
  3612   226   227   ar
  3613  2209  2210    1
  3614  4149  4148   ar
  3615  2328  2307    2
  3616  2190  2191   ar
  3617  5096  5118    2
  3618  5096  5117    1
  3619   257   236    2
  3620  4192  4191   ar
  3621  4192  4195   ar
  3622  1757  1758   ar
  3623  1767  1761   ar
  3624  1767  1756    1
  3625  5603  5610   ar
  3626  5603  5602    1
  3627   221   220    1
  3628  6682  6683    2
  3629  6746  6745    1
  3630  2264  2263    1
  3631  2264  2262    1
  3632  2092  2076    1
  3633  2092  2111    1
  3634  6651  6652    1
  3635  6651  6649    1
  3636  2284  2262    2
  3637  5078  5076    1
  3638  2354  2352    1
  3639  4505  4506    1
  3640  4505  4504   ar
  3641  5175  5174   ar
  3642  5175  5176   ar
  3643  4503  4504   ar
  3644  4503  4509   ar
  3645  1761  1760   ar
  3646  4524  4523    1
  3647  5179  5176   ar
  3648  6667  6648    2
  3649  2754  2753    2
  3650  1954  1955   ar
  3651  5174  5172   ar
  3652  3651  3658   ar
  3653  3651  3652   ar
  3654   236   219    1
  3655   236   258    1
  3656  1865  1866    1
  3657  1865  1860    1
  3658  5556  5558    1
  3659  7957  7956    1
  3660  5708  5706   ar
  3661  2726  2725    1
  3662  4191  4197   ar
  3663  4202  4200    1
  3664  5640  5642    1
  3665  5640  5638    1
  3666  5710  5711   ar
  3667  7956  7958    1
  3668  1751  1756    1
  3669  1751  1750    1
  3670  2373  2352    2
  3671  4470  4469    1
  3672  4470  4468    1
  3673  5116  5115   ar
  3674  5116  5110   ar
  3675  4092  4076    1
  3676  4092  4094    1
  3677  1748  1750    1
  3678  1786  1785   ar
  3679  1786  1780   ar
  3680  5176  5177   ar
  3681  2755  2753   ar
  3682  2755  2756   ar
  3683  7941  7940    1
  3684  6666  6648    1
  3685  7936  7937    1
  3686  7936  7938    1
  3687  5642  5644    1
  3688  1866  1873   ar
  3689  1952  1950   ar
  3690  7921  7920    1
  3691  4055  4056    1
  3692  4055  4057    1
  3693  3658  3657   ar
  3694  1808  1807    2
  3695  2085  2086    1
  3696  2085  2084   ar
  3697  2301  2300    1
  3698  5560  5558    1
  3699  5560  5561    1
  3700  4499  4509    1
  3701  4499  4494    1
  3702  4499  4497    1
  3703  4504  4507   ar
  3704  4469  4471    1
  3705  2077  2075    1
  3706  2077  2079    1
  3707  4468  4488    2
  3708  4468  4489    1
  3709  4011  4013    1
  3710  4011  4009    1
  3711  2286  2288    1
  3712  2757  2756    2
  3713  4498  4497    1
  3714  4509  4508   ar
  3715  5145  5150    1
  3716  5592  5573    2
  3717  4171  4166   ar
  3718  4171  4170   ar
  3719  2753  2752   ar
  3720  5582  5577    1
  3721  5582  5580    1
  3722  3653  3652    2
  3723  5172  5173    1
  3724  5172  5171   ar
  3725  1894  1876    2
  3726  5109  5110   ar
  3727  5109  5107   ar
  3728  2083  2084   ar
  3729  2083  2089   ar
  3730  5558  5559    1
  3731  1870  1871    1
  3732  1870  1872   ar
  3733  5721  5722    1
  3734  5721  5723    1
  3735  4013  4015    1
  3736  2076  2075    1
  3737  2708  2722    1
  3738  4523  4525   ar
  3739  4523  4522   ar
  3740  2232  2233   ar
  3741  2232  2231    1
  3742   219   218    1
  3743  2251  2249    1
  3744  2251  2246    1
  3745  1862  1876    1
  3746  1862  1861    1
  3747  1788  1785   ar
  3748  1788  1789   ar
  3749  2249  2247    1
  3750  2249  2250    1
  3751  7915  7917    1
  3752  7915  7899    1
  3753  7915  7934    1
  3754  2233  2234    2
  3755  3652  3654   ar
  3756  6715  6713    1
  3757  6715  6716    1
  3758  4166  4167   ar
  3759  7917  7916    1
  3760  7916  7918    1
  3761   220   218    1
  3762   220   222    1
  3763  6713  6714    1
  3764  1876  1895    1
  3765  2756  2758   ar
  3766  5722  5727    1
  3767  5115  5114   ar
  3768  5177  5171   ar
  3769  5177  5178    2
  3770  6745  6747   ar
  3771  6745  6744   ar
  3772  5110  5111   ar
  3773  3790  3791   ar
  3774  3790  3789   ar
  3775  4057  4067    1
  3776  4525  4526   ar
  3777  1963  1965    1
  3778  4195  4196   ar
  3779  3781  3791    1
  3780  3781  3779    1
  3781  7998  7978    2
  3782  4009  4007    1
  3783  4009  4010    1
  3784  4076  4075    1
  3785  5095  5076    2
  3786  4145  4146   ar
  3787  2262  2248    1
  3788  2262  2283    1
  3789  1756  1754    1
  3790  2730  2729    1
  3791  5150  5151    1
  3792  2729  2727    1
  3793  4148  4151   ar
  3794  4148  4147   ar
  3795  6648  6650    1
  3796  6648  6631    1
  3797   229   230    2
  3798   229   228   ar
  3799  2350  2329    2
  3800  2242  2244    1
  3801  2242  2228    1
  3802  2242  2260    1
  3803  2223  2225    1
  3804  2247  2248    1
  3805  2247  2245    1
  3806  4494  4493    1
  3807  4066  4067   ar
  3808  4066  4065   ar
  3809  6747  6748   ar
  3810  4507  4508   ar
  3811  2302  2299   ar
  3812  2302  2303   ar
  3813  1861  1859    1
  3814  2244  2243    1
  3815  4045  4044   ar
  3816  4045  4039   ar
  3817  3625  3624    1
  3818  4522  4528   ar
  3819  4073  4075    1
  3820  4073  4074    1
  3821  3657  3655   ar
  3822  2352  2374    1
  3823  2352  2335    1
  3824  5602  5600    1
  3825  5602  5597    1
  3826  1758  1760   ar
  3827  1758  1759    1
  3828  5108  5107    1
  3829  1785  1784   ar
  3830  3777  3778    1
  3831  3777  3779    1
  3832   227   228   ar
  3833   227   233   ar
  3834  5158  5151   ar
  3835  5158  5157   ar
  3836  1780  1781   ar
  3837  4497  4495    1
  3838  6649  6650    1
  3839  1750  1752    1
  3840  2084  2087   ar
  3841  4520  4519    1
  3842  5107  5106   ar
  3843  5076  5094    1
  3844  5076  5062    1
  3845  2300  2299   ar
  3846  2300  2295   ar
  3847  5577  5576    1
  3848  7899  7898    1
  3849  4075  4077    1
  3850  4151  4152   ar
  3851  2752  2751    1
  3852  2752  2759   ar
  3853  2307  2327    1
  3854  2307  2291    1
  3855  2307  2309    1
  3856  4186  4185    1
  3857  3791  3785   ar
  3858  1955  1956    2
  3859  1955  1949   ar
  3860  4007  4008    1
  3861  7938  7940    1
  3862  7938  7939    1
  3863  2075  2073    1
  3864  5151  5152   ar
  3865  3816  3794    2
  3866  4526  4532   ar
  3867  4526  4527   ar
  3868  6744  6742   ar
  3869  2246  2245    1
  3870  4197  4196   ar
  3871  4197  4187    1
  3872  4044  4043   ar
  3873  3654  3655   ar
  3874  2079  2089    1
  3875  2079  2074    1
  3876  4521  4532    1
  3877  4521  4516    1
  3878  4521  4519    1
  3879  7940  7942    1
  3880  3789  3786   ar
  3881  3778  3794    1
  3882  5706  5705   ar
  3883  5706  5707    1
  3884  2774  2773    2
  3885  2227  2225    1
  3886  2227  2228    1
  3887  2227  2229    1
  3888  4185  4187    1
  3889  4185  4183    1
  3890  6646  6625    2
  3891  1950  1949   ar
  3892  1950  1951    1
  3893  2758  2759   ar
  3894  2299  2298   ar
  3895  5114  5111   ar
  3896  5157  5155   ar
  3897  1860  1859    1
  3898  7918  7920    1
  3899  7918  7919    1
  3900  5111  5112   ar
  3901  4067  4061   ar
  3902  2089  2088   ar
  3903  4129  4128    1
  3904  2751  2746    1
  3905  2751  2749    1
  3906   218   216    1
  3907  1807  1806   ar
  3908  1807  1809   ar
  3909  4170  4173   ar
  3910  4170  4169   ar
  3911  4479  4480   ar
  3912  4479  4478   ar
  3913  7920  7922    1
  3914  6714  6731    1
  3915  2725  2727    1
  3916  2725  2723    1
  3917  5711  5705   ar
  3918  5711  5712    2
  3919  1873  1872   ar
  3920  5580  5581    1
  3921  5580  5578    1
  3922  3655  3656    2
  3923  2303  2304   ar
  3924  4528  4527   ar
  3925  4528  4529    2
  3926  4094  4093    1
  3927  4173  4174   ar
  3928  5644  5645    1
  3929  5644  5639    1
  3930  4532  4531   ar
  3931  7958  7959    1
  3932  7958  7960    1
  3933  1966  1965    1
  3934  1966  1971    1
  3935  2290  2288    1
  3936  2290  2291    1
  3937  2290  2292    1
  3938   228   231   ar
  3939  5638  5636    1
  3940  5638  5639    1
  3941  2724  2722    1
  3942  2724  2723    1
  3943  2226  2225    1
  3944  2226  2231    1
  3945  1806  1804   ar
  3946  5737  5736   ar
  3947  5737  5738   ar
  3948  2741  2722    2
  3949  7913  7893    2
  3950  2288  2289    1
  3951  1789  1790   ar
  3952  2308  2309    1
  3953  2308  2310    1
  3954  4133  4114    2
  3955  4527  4530   ar
  3956  2295  2296   ar
  3957  1859  1857    1
  3958  6642  6641    2
  3959  3779  3780    1
  3960  4471  4472    1
  3961  4471  4473    1
  3962  4167  4168   ar
  3963  4200  4221    2
  3964  4200  4222    1
  3965  4200  4184    1
  3966  4088  4087   ar
  3967  4088  4089   ar
  3968  6748  6741   ar
  3969  1752  1754    1
  3970  1752  1753    1
  3971  2775  2773   ar
  3972  2775  2776   ar
  3973  4065  4062   ar
  3974  4074  4079    1
  3975   222   233    1
  3976   222   217    1
  3977  5106  5112   ar
  3978  5600  5601    1
  3979  5600  5598    1
  3980  5573  5559    1
  3981  5573  5575    1
  3982  5573  5591    1
  3983  5597  5596    1
  3984  2722  2740    1
  3985  2231  2229    1
  3986  4015  4010    1
  3987  4015  4016    1
  3988  1848  1847    2
  3989  4147  4146   ar
  3990  4147  4153   ar
  3991  4516  4515    1
  3992  4480  4481   ar
  3993  5723  5724    1
  3994  5723  5725    1
  3995  1965  1967    1
  3996  2746  2745    1
  3997  5152  5153    2
  3998  5152  5154   ar
  3999  1792  1770    2
  4000  5637  5636    1
  4001  5637  5635    1
  4002  1981  1980   ar
  4003  1981  1982   ar
  4004  2773  2772   ar
  4005  6583  6565    2
  4006  2245  2243    1
  4007  3811  3810    2
  4008   233   232   ar
  4009  4519  4517    1
  4010  1849  1847   ar
  4011  1849  1850   ar
  4012  1851  1850    2
  4013  7959  7964    1
  4014  5652  5645   ar
  4015  5652  5651   ar
  4016  4187  4182    1
  4017  2727  2728    1
  4018  4087  4084   ar
  4019  3624  3626    1
  4020  3624  3622    1
  4021  5112  5113    2
  4022  5727  5738    1
  4023  5727  5725    1
  4024  4478  4483   ar
  4025  7982  7981    1
  4026  7982  7987    1
  4027  4008  4006    1
  4028  4039  4038   ar
  4029  4039  4040   ar
  4030  5155  5154   ar
  4031  5155  5156    2
  4032  6626  6627    1
  4033  6626  6628    1
  4034  1754  1755    1
  4035  4177  4156    2
  4036  6647  6625    1
  4037  2229  2230    1
  4038  4472  4477    1
  4039  2335  2334    1
  4040  3794  3815    1
  4041  3794  3796    1
  4042  4132  4114    1
  4043  1980  1977   ar
  4044  5062  5061    1
  4045  6742  6741   ar
  4046  6742  6743    2
  4047  2750  2749    1
  4048  6749  6731    2
  4049  2330  2332    1
  4050  2330  2331    1
  4051  3812  3813   ar
  4052  3812  3809   ar
  4053  7978  7999    1
  4054  7978  7980    1
  4055  7978  7961    1
  4056  4531  4530   ar
  4057  4038  4037   ar
  4058  6631  6630    1
  4059  4493  4495    1
  4060  4493  4491    1
  4061  5724  5741    1
  4062  5645  5646   ar
  4063  3785  3786   ar
  4064  3785  3784   ar
  4065  2777  2776    1
  4066  4184  4183    1
  4067  4183  4181    1
  4068  2298  2304   ar
  4069  2298  2297   ar
  4070  5575  5574    1
  4071  2087  2088   ar
  4072  2794  2793    1
  4073  5736  5733   ar
  4074  7996  7995   ar
  4075  7996  7997   ar
  4076  6563  6545    2
  4077  3786  3787   ar
  4078  4130  4128   ar
  4079  4130  4131   ar
  4080  6733  6731    1
  4081  6733  6732    1
  4082  6623  6605    2
  4083  1784  1790   ar
  4084  1784  1783   ar
  4085  2304  2294    1
  4086  2004  1985    2
  4087  1781  1782    1
  4088  1781  1783   ar
  4089  6625  6627    1
  4090  6625  6611    1
  4091  4152  4153   ar
  4092  7923  7922    1
  4093  6641  6635   ar
  4094  6641  6640   ar
  4095  4093  4095    1
  4096  2329  2313    1
  4097  2329  2331    1
  4098  2329  2351    1
  4099  2776  2778   ar
  4100  6741  6740    1
  4101  5738  5732   ar
  4102  7943  7942    1
  4103  7979  7981    1
  4104  7979  7980    1
  4105  4495  4496    1
  4106  4128  4127   ar
  4107  4515  4517    1
  4108  4515  4513    1
  4109  2073  2074    1
  4110  2073  2071    1
  4111  2749  2747    1
  4112  5578  5576    1
  4113  5578  5579    1
  4114  5576  5574    1
  4115  4043  4040   ar
  4116  7995  7992   ar
  4117  1847  1846   ar
  4118  2313  2312    1
  4119  7898  7896    1
  4120  7898  7900    1
  4121  6731  6750    1
  4122  2296  2297   ar
  4123  4169  4168   ar
  4124  4169  4175   ar
  4125  5651  5649   ar
  4126   216   217    1
  4127   216   214    1
  4128  3626  3627    1
  4129  3626  3628    1
  4130  4024  4006    2
  4131  7939  7944    1
  4132  7942  7944    1
  4133  1809  1810   ar
  4134  1850  1852   ar
  4135  4114  4098    1
  4136  4114  4116    1
  4137  4109  4110   ar
  4138  4109  4106   ar
  4139  6635  6636   ar
  4140  2772  2771    1
  4141  2772  2779   ar
  4142  4077  4079    1
  4143  4077  4078    1
  4144  4061  4062   ar
  4145  4061  4060   ar
  4146  7922  7924    1
  4147  4174  4175   ar
  4148  4089  4079    1
  4149  4089  4083   ar
  4150  5763  5741    2
  4151  2771  2766    1
  4152  2771  2769    1
  4153  7919  7924    1
  4154  7960  7961    1
  4155  7960  7962    1
  4156  2289  2294    1
  4157  3813  3814   ar
  4158  1982  1971    1
  4159  1982  1976   ar
  4160  5654  5635    2
  4161  1790  1779    1
  4162  4155  4134    2
  4163  7981  7983    1
  4164  2793  2792   ar
  4165  2793  2795   ar
  4166  7987  7997    1
  4167  7987  7985    1
  4168  7901  7900    1
  4169  4018  4017    2
  4170  1971  1969    1
  4171  3810  3809   ar
  4172  3810  3804   ar
  4173  4473  4474    1
  4174  4473  4475    1
  4175  5725  5726    1
  4176  4153  4143    1
  4177  2310  2312    1
  4178  2310  2311    1
  4179  6643  6640   ar
  4180  6643  6644   ar
  4181  7894  7895    1
  4182  7894  7896    1
  4183  6630  6628    1
  4184  6630  6632    1
  4185  1804  1805    2
  4186  1804  1803   ar
  4187  2792  2798   ar
  4188  6584  6565    1
  4189  6735  6740    1
  4190  6735  6734    1
  4191  6624  6605    1
  4192  6640  6639   ar
  4193  4062  4063   ar
  4194  2292  2294    1
  4195  2292  2293    1
  4196   231   232   ar
  4197  7997  7991   ar
  4198  4539  4544    1
  4199  4539  4538    1
  4200  2332  2334    1
  4201  2332  2333    1
  4202  6603  6585    2
  4203  6604  6585    1
  4204  4110  4111   ar
  4205  7893  7895    1
  4206  7893  7914    1
  4207  7893  7879    1
  4208  3809  3808   ar
  4209  1753  1770    1
  4210  3784  3783   ar
  4211  5598  5596    1
  4212  5598  5599    1
  4213  4040  4041   ar
  4214  4517  4518    1
  4215  4016  4017   ar
  4216  4016  4023   ar
  4217  5646  5647    2
  4218  5646  5648   ar
  4219  4481  4482   ar
  4220  4481  4487   ar
  4221  4544  4545    1
  4222  4544  4542    1
  4223  4496  4512    1
  4224  6565  6567    1
  4225  6565  6551    1
  4226  5612  5593    2
  4227  4543  4542    1
  4228  5741  5762    1
  4229  5741  5743    1
  4230  1967  1968    1
  4231  1967  1969    1
  4232  7974  7973   ar
  4233  7974  7975   ar
  4234  2334  2336    1
  4235  2778  2779   ar
  4236  6628  6629    1
  4237  2795  2796   ar
  4238  7896  7897    1
  4239  5596  5594    1
  4240  2745  2747    1
  4241  2745  2743    1
  4242  5635  5653    1
  4243  5635  5619    1
  4244  2766  2765    1
  4245  1770  1772    1
  4246  1770  1791    1
  4247  2728  2742    1
  4248  1857  1858    1
  4249  4006  3990    1
  4250  4006  4025    1
  4251  4108  4107    1
  4252  3622  3620    1
  4253  3622  3623    1
  4254  4483  4482   ar
  4255  4483  4484    1
  4256    29    28    1
  4257  4491  4492    1
  4258  1977  1976   ar
  4259  1977  1978   ar
  4260  4084  4083   ar
  4261  4084  4085   ar
  4262  6732  6734    1
  4263  3787  3788    1
  4264  3787  3782   ar
  4265  5595  5593    1
  4266  5595  5594    1
  4267  7900  7902    1
  4268  7992  7991   ar
  4269  7992  7993   ar
  4270  4492  4490    1
  4271  6740  6738    1
  4272  6605  6607    1
  4273  6605  6591    1
  4274  6636  6637    1
  4275  6636  6638   ar
  4276  2770  2769    1
  4277  4182  4181    1
  4278  3620  3621    1
  4279  7964  7975    1
  4280  7964  7962    1
  4281  4131  4124   ar
  4282  4518  4535    1
  4283  4175  4165    1
  4284  4037  4036   ar
  4285  5061  5063    1
  4286  5061  5059    1
  4287  2798  2799    2
  4288  2798  2797   ar
  4289  3796  3795    1
  4290  5649  5648   ar
  4291  5649  5650    1
  4292  5064  5063    1
  4293  2312  2314    1
  4294  4513  4514    1
  4295  4538  4536    1
  4296  4538  4540    1
  4297  4017  4019   ar
  4298  4156  4176    1
  4299  4156  4158    1
  4300  4156  4140    1
  4301  4547  4546    2
  4302  7944  7945    1
  4303  4477  4475    1
  4304  4477  4487    1
  4305  6644  6645   ar
  4306  4098  4097    1
  4307  5733  5732   ar
  4308  5733  5734   ar
  4309  4127  4125   ar
  4310  7991  7990   ar
  4311  4115  4116    1
  4312  4115  4117    1
  4313  4474  4490    1
  4314  4060  4059   ar
  4315  6639  6638   ar
  4316  6639  6645   ar
  4317  7924  7925    1
  4318  5732  5731   ar
  4319  1985  1968    1
  4320  1985  2003    1
  4321  1985  1987    1
  4322  4141  4139    1
  4323  4141  4143    1
  4324  4141  4142    1
  4325  4181  4179    1
  4326  3639  3619    2
  4327  4475  4476    1
  4328  3621  3619    1
  4329  4097  4095    1
  4330  4097  4099    1
  4331  2796  2797   ar
  4332  2796  2802   ar
  4333  6546  6547    1
  4334  6546  6548    1
  4335  4545  4546   ar
  4336  4545  4552   ar
  4337  1976  1975   ar
  4338    12    11    1
  4339  6585  6587    1
  4340  6585  6571    1
  4341  4095  4096    1
  4342  5579  5593    1
  4343  2071  2072    1
  4344  3990  3989    1
  4345  2747  2748    1
  4346   214   215    1
  4347  7952  7945   ar
  4348  7952  7951   ar
  4349  4083  4082   ar
  4350  4023  4022   ar
  4351  7994  7993    1
  4352  1858  1856    1
  4353  5063  5065    1
  4354  6545  6547    1
  4355  6545  6529    1
  4356  6545  6564    1
  4357  6611  6610    1
  4358  4482  4485   ar
  4359  1979  1978    2
  4360  4487  4486   ar
  4361  4106  4107   ar
  4362  4106  4105   ar
  4363  1844  1843    1
  4364  2072  2070    1
  4365  4086  4085    1
  4366  4546  4548   ar
  4367  2797  2800   ar
  4368  2769  2767    1
  4369  1810  1803   ar
  4370  7973  7970   ar
  4371  4536  4537    1
  4372  7975  7969   ar
  4373  3804  3805   ar
  4374  4180  4179    1
  4375  4180  4178    1
  4376  3992  3991    1
  4377  1846  1845    1
  4378  1846  1853   ar
  4379  7993  7988   ar
  4380  2744  2743    1
  4381  2744  2742    1
  4382  3814  3808   ar
  4383  3814  3803    1
  4384  1969  1970    1
  4385  3783  3782   ar
  4386  4199  4178    2
  4387  4542  4540    1
  4388  4139  4140    1
  4389  4139  4137    1
  4390  6734  6736    1
  4391  5618  5619    1
  4392  5618  5620    1
  4393  5618  5616    1
  4394  5593  5611    1
  4395  1772  1771    1
  4396  7962  7963    1
  4397  7986  7985    1
  4398  2311  2316    1
  4399  1803  1802    1
  4400  1978  1972   ar
  4401  6645  6634    1
  4402  1774  1779    1
  4403  1774  1773    1
  4404  3628  3638    1
  4405  3628  3623    1
  4406  1852  1853   ar
  4407  4143  4138    1
  4408  3808  3807   ar
  4409  4552  4551   ar
  4410  7879  7878    1
  4411  4158  4157    1
  4412  6567  6566    1
  4413  1843  1845    1
  4414  1843  1841    1
  4415  4107  4102   ar
  4416    99    98    1
  4417  1779  1777    1
  4418  2761  2742    2
  4419  4085  4080   ar
  4420  7985  7983    1
  4421  6607  6606    1
  4422  2802  2791    1
  4423  2802  2801   ar
  4424  4136  4134    1
  4425  4136  4135    1
  4426  6551  6550    1
  4427  6620  6619    2
  4428  3631  3632   ar
  4429  3631  3630   ar
  4430  3798  3803    1
  4431  3798  3797    1
  4432  2063  2061   ar
  4433  2063  2064   ar
  4434  4134  4154    1
  4435  4134  4120    1
  4436  2062  2061    2
  4437  5599  5613    1
  4438  4063  4064    1
  4439  4063  4058   ar
  4440  3638  3632   ar
  4441  3638  3637   ar
  4442  5621  5620    1
  4443  2065  2064    1
  4444  4514  4512    1
  4445  2791  2786    1
  4446  2791  2789    1
  4447  4096  4101    1
  4448  4111  4105   ar
  4449  4111  4101    1
  4450  7945  7946   ar
  4451  2333  2338    1
  4452  7983  7984    1
  4453  6632  6634    1
  4454  6632  6633    1
  4455  4041  4036   ar
  4456  4041  4042    1
  4457  3632  3633   ar
  4458  3630  3629   ar
  4459  7990  7989   ar
  4460  2800  2801   ar
  4461  2742  2760    1
  4462  3637  3636   ar
  4463  4548  4549   ar
  4464  5614  5616    1
  4465  5614  5615    1
  4466  6629  6634    1
  4467  4490  4511    2
  4468  4490  4510    1
  4469   215   213    1
  4470  2765  2767    1
  4471  2765  2763    1
  4472  6591  6590    1
  4473  3832  3831    2
  4474  3633  3636   ar
  4475  3633  3634   ar
  4476  3795  3797    1
  4477  7951  7949   ar
  4478  3629  3634   ar
  4479  6621  6619   ar
  4480  6621  6622   ar
  4481  3619  3640    1
  4482  3619  3603    1
  4483   206   204   ar
  4484   206   207   ar
  4485  5059  5057    1
  4486  5059  5060    1
  4487   208   207    1
  4488   205   204    2
  4489  6529  6528    1
  4490  5634  5613    2
  4491  2336  2337    1
  4492  2336  2338    1
  4493  4124  4125   ar
  4494  4124  4123    1
  4495    30    25    1
  4496    30    28    1
  4497  1845  1840    1
  4498  5620  5622    1
  4499  4512  4534    2
  4500  4512  4533    1
  4501  6610  6608    1
  4502  6610  6612    1
  4503    25    24    1
  4504  4019  4020   ar
  4505  3634  3635    1
  4506    28    26    1
  4507  6587  6586    1
  4508  5743  5742    1
  4509  7897  7902    1
  4510  4551  4549   ar
  4511  4540  4541    1
  4512  5734  5735    2
  4513  5734  5728   ar
  4514  6606  6608    1
  4515  7925  7932   ar
  4516  7925  7926   ar
  4517  4125  4126    2
  4518  6619  6618   ar
  4519  2790  2789    1
  4520  5731  5729   ar
  4521  3991  3989    1
  4522  3991  3993    1
  4523  7988  7989   ar
  4524     8     7    1
  4525  1975  1973   ar
  4526  4165  4163    1
  4527  4165  4160    1
  4528  7932  7931   ar
  4529  7902  7912    1
  4530  4163  4161    1
  4531  4163  4164    1
  4532  2315  2314    1
  4533  5057  5058    1
  4534  4537  4535    1
  4535  4059  4058   ar
  4536  2786  2785    1
  4537  6738  6736    1
  4538  6738  6739    1
  4539  3803  3801    1
  4540  4549  4550    2
  4541  2817  2816    1
  4542  6566  6568    1
  4543  4178  4162    1
  4544  4178  4198    1
  4545  2061  2060   ar
  4546  4105  4104   ar
  4547  4161  4162    1
  4548  4161  4159    1
  4549  6736  6737    1
  4550  4022  4020   ar
  4551  2314  2316    1
  4552  5074  5056    2
  4553    98    97   ar
  4554    98   100   ar
  4555  2748  2762    1
  4556  2064  2066   ar
  4557  3989  3987    1
  4558  6548  6550    1
  4559  6548  6549    1
  4560  5616  5617    1
  4561    11    13   ar
  4562    11    10   ar
  4563  6571  6570    1
  4564  4138  4137    1
  4565    24    26    1
  4566    24    22    1
  4567  4119  4117    1
  4568  4119  4120    1
  4569  4119  4121    1
  4570  4082  4081   ar
  4571  2027  2005    2
  4572  3805  3807   ar
  4573  3805  3806    1
  4574  4535  4553    2
  4575  4535  4554    1
  4576  4101  4099    1
  4577  1771  1773    1
  4578  4486  4485   ar
  4579  4099  4100    1
  4580  4117  4118    1
  4581  6134  6114    2
  4582  5058  5056    1
  4583    97   103   ar
  4584  2767  2768    1
  4585  1972  1973   ar
  4586  7970  7969   ar
  4587  7970  7971   ar
  4588  6622  6615   ar
  4589  1987  1986    1
  4590  7969  7968   ar
  4591   204   203   ar
  4592  6112  6092    2
  4593   207   209   ar
  4594  6550  6552    1
  4595  4137  4135    1
  4596  4541  4555    1
  4597  5742  5744    1
  4598  3797  3799    1
  4599  2316  2326    1
  4600    13    14   ar
  4601  1773  1775    1
  4602    27    26    1
  4603    27    32    1
  4604  2789  2787    1
  4605  2764  2763    1
  4606  2764  2762    1
  4607  7984  8000    1
  4608  4559  4564    1
  4609  4559  4558    1
  4610  4020  4021    1
  4611  5613  5615    1
  4612  5613  5633    1
  4613  2091  2070    2
  4614  1777  1775    1
  4615  1777  1778    1
  4616  2338  2349    1
  4617  2070  2090    1
  4618  2070  2056    1
  4619  5065  5060    1
  4620  5065  5066    1
  4621  4080  4081   ar
  4622  1986  1988    1
  4623  1802  1800    1
  4624  1802  1797    1
  4625   100   101   ar
  4626  4160  4159    1
  4627  8016  8015    1
  4628  1856  1842    1
  4629  1856  1875    2
  4630  1856  1874    1
  4631  1841  1842    1
  4632  1841  1839    1
  4633  2341  2340    1
  4634  2816  2818   ar
  4635  2816  2815   ar
  4636  6586  6588    1
  4637  6590  6588    1
  4638  6590  6592    1
  4639  1973  1974    1
  4640  4102  4103   ar
  4641  6608  6609    1
  4642  5759  5760   ar
  4643  5759  5756   ar
  4644  1775  1776    1
  4645  3831  3833   ar
  4646  3831  3830   ar
  4647  7891  7873    2
  4648  6618  6616   ar
  4649  7927  7926    2
  4650  7878  7880    1
  4651  7878  7876    1
  4652  4118  4123    1
  4653  2818  2819   ar
  4654  4157  4159    1
  4655    23    22    1
  4656    23    21    1
  4657  4563  4562    1
  4658  6761  6762   ar
  4659  6761  6766   ar
  4660  6767  6766    1
  4661  7926  7928   ar
  4662  7946  7947    2
  4663  7946  7948   ar
  4664  2342  2340   ar
  4665  2342  2343   ar
  4666  3996  3995   ar
  4667  3996  3997   ar
  4668  4564  4565    1
  4669  4564  4562    1
  4670  6531  6530    1
  4671  3995  3994   ar
  4672  5068  5067    2
  4673  5760  5761   ar
  4674  7881  7880    1
  4675  6612  6613    1
  4676  6612  6614    1
  4677  5056  5075    1
  4678  5056  5040    1
  4679  3603  3602    1
  4680  7931  7929   ar
  4681     7     9    1
  4682     7     5    1
  4683  5729  5728   ar
  4684  5729  5730    1
  4685  8017  8018   ar
  4686  8017  8014   ar
  4687  4123  4121    1
  4688  5066  5067   ar
  4689  5066  5073   ar
  4690  6570  6568    1
  4691  6570  6572    1
  4692  3833  3834   ar
  4693  2815  2821   ar
  4694   103   104    2
  4695   103   102   ar
  4696  7949  7948   ar
  4697  7949  7950    1
  4698  4558  4556    1
  4699  4558  4560    1
  4700  7912  7911   ar
  4701  7912  7906   ar
  4702  2340  2339   ar
  4703    10    16   ar
  4704  5067  5069   ar
  4705  6615  6616   ar
  4706  6615  6614    1
  4707  6762  6763   ar
  4708  6766  6765   ar
  4709  2057  2058    1
  4710  2057  2055    1
  4711  2057  2059    1
  4712  2762  2781    2
  4713  2762  2780    1
  4714    31    21    1
  4715  2768  2782    1
  4716  6528  6530    1
  4717  6528  6526    1
  4718  3987  3985    1
  4719  3987  3988    1
  4720  5073  5072   ar
  4721  4121  4122    1
  4722   213   234    2
  4723   213   235    1
  4724   213   199    1
  4725  1840  1839    1
  4726  6568  6569    1
  4727  3852  3851    2
  4728  2814  2809    1
  4729  2814  2825    1
  4730  2814  2812    1
  4731  1800  1801    1
  4732  1800  1798    1
  4733  2349  2343   ar
  4734  2349  2348   ar
  4735  2819  2825   ar
  4736  2819  2820   ar
  4737  6616  6617    2
  4738    53    32    2
  4739  5622  5617    1
  4740  5622  5632    1
  4741   101   102   ar
  4742   101   107   ar
  4743  4556  4557    1
  4744  4104  4103   ar
  4745  7880  7882    1
  4746  7968  7966   ar
  4747  1797  1796    1
  4748  2343  2344   ar
  4749  6588  6589    1
  4750  6549  6554    1
  4751  3799  3801    1
  4752  3799  3800    1
  4753  7874  7876    1
  4754  7874  7875    1
  4755   200   201    1
  4756   200   198    1
  4757   200   202    1
  4758  3993  4003    1
  4759  3993  3988    1
  4760  6601  6602   ar
  4761  6601  6599   ar
  4762  8015  8014   ar
  4763  8015  8010   ar
  4764  2785  2787    1
  4765  2785  2783    1
  4766  2060  2059    1
  4767  2060  2067   ar
  4768  8018  8019   ar
  4769  6737  6751    1
  4770  7876  7877    1
  4771  5069  5070   ar
  4772  3801  3802    1
  4773  7971  7972    2
  4774  7971  7965   ar
  4775  2326  2325   ar
  4776  2326  2320   ar
  4777  7905  7906   ar
  4778  7905  7904   ar
  4779  2066  2067   ar
  4780  8014  8013   ar
  4781  5758  5757    2
  4782  2809  2808    1
  4783  5745  5744    1
  4784  5745  5750    1
  4785  2825  2824   ar
  4786  4567  4566    2
  4787  6602  6595   ar
  4788  3830  3828   ar
  4789   102   105   ar
  4790  6114  6135    1
  4791  6114  6098    1
  4792  6114  6116    1
  4793  5072  5070   ar
  4794  4565  4566   ar
  4795  4565  4572   ar
  4796  2005  2026    1
  4797  2005  1991    1
  4798  2005  2007    1
  4799  1812  1793    2
  4800  6530  6532    1
  4801   203   202    1
  4802   203   210   ar
  4803  2821  2820   ar
  4804  2821  2822    2
  4805  7911  7910   ar
  4806  2325  2324   ar
  4807  3994  3999   ar
  4808  2056  2055    1
  4809  4562  4560    1
  4810  2784  2783    1
  4811  2784  2782    1
  4812  2813  2812    1
  4813     9    20    1
  4814     9     4    1
  4815  7875  7873    1
  4816  6609  6614    1
  4817     6    21    1
  4818     6     5    1
  4819    32    34    1
  4820    32    54    1
  4821    14    20   ar
  4822    14    15   ar
  4823  6526  6524    1
  4824  6526  6527    1
  4825  8021  8000    2
  4826   209   210   ar
  4827  7906  7907   ar
  4828  1839  1837    1
  4829  5070  5071    2
  4830  2055  2053    1
  4831  5744  5746    1
  4832    34    33    1
  4833  2820  2823   ar
  4834  7928  7929   ar
  4835  3997  4003   ar
  4836  3997  3998   ar
  4837  6592  6593    1
  4838  6592  6594    1
  4839  2022  2021    2
  4840    40    39    1
  4841  2339  2345   ar
  4842  2044  2043    1
  4843  2787  2788    1
  4844  5756  5757   ar
  4845  5756  5755   ar
  4846   199   198    1
  4847  7873  7892    1
  4848  7873  7857    1
  4849  7929  7930    1
  4850  6092  6075    1
  4851  6092  6094    1
  4852  6092  6113    1
  4853  6543  6523    2
  4854  8000  8002    1
  4855  8000  8020    1
  4856  6552  6553    1
  4857  6552  6554    1
  4858  4566  4568   ar
  4859  6763  6764   ar
  4860   107    96    1
  4861   107   106   ar
  4862  6524  6525    1
  4863   188   187    1
  4864  2348  2347   ar
  4865  6772  6751    2
  4866  4557  4555    1
  4867  4555  4573    2
  4868  4555  4574    1
  4869  6765  6764   ar
  4870  6765  6768   ar
  4871    96    94    1
  4872    96    91    1
  4873  1776  1793    1
  4874  6098  6097    1
  4875  2059  2054    1
  4876  6157  6136    2
  4877  4572  4571   ar
  4878  6090  6069    2
  4879  3985  3986    1
  4880  5631  5632   ar
  4881  5631  5630   ar
  4882  1988  1990    1
  4883  1988  1989    1
  4884    95    94    1
  4885  3602  3604    1
  4886  3602  3600    1
  4887  4003  4002   ar
  4888  5761  5750    1
  4889  5761  5755   ar
  4890  2344  2345   ar
  4891  2344  2347   ar
  4892  5632  5626   ar
  4893  3604  3605    1
  4894  3604  3606    1
  4895  8010  8011   ar
  4896  3834  3827   ar
  4897     5     3    1
  4898  6093  6094    1
  4899  6093  6095    1
  4900  6158  6136    1
  4901   198   196    1
  4902  2023  2024   ar
  4903  2023  2020   ar
  4904  2824  2823   ar
  4905  1795  1793    1
  4906  1795  1794    1
  4907  6771  6751    1
  4908  1855  1836    2
  4909  5757  5751   ar
  4910  6075  6074    1
  4911   202   197    1
  4912  6600  6599    1
  4913  2812  2810    1
  4914  4560  4561    1
  4915  6751  6753    1
  4916  5040  5039    1
  4917    36    41    1
  4918    36    35    1
  4919   122   121    2
  4920    20    19   ar
  4921  8019  8013   ar
  4922  8019  8009    1
  4923  6764  6770   ar
  4924  6582  6581   ar
  4925  6582  6575   ar
  4926  3851  3850   ar
  4927  3851  3853   ar
  4928  7904  7903   ar
  4929  6569  6574    1
  4930  8013  8012   ar
  4931  2345  2346    2
  4932  6599  6598   ar
  4933  6581  6579   ar
  4934   105   106   ar
  4935    41    39    1
  4936    41    52    1
  4937    16    15   ar
  4938    16    17    2
  4939  2320  2319   ar
  4940  2320  2321   ar
  4941  8077  8076    1
  4942  7966  7965   ar
  4943  7966  7967    1
  4944    35    33    1
  4945    35    37    1
  4946  8004  8009    1
  4947  8004  8003    1
  4948  6572  6573    1
  4949  6572  6574    1
  4950  6554  6555    1
  4951  2782  2803    2
  4952  2782  2804    1
  4953  3986  3984    1
  4954  1793  1811    1
  4955  6115  6116    1
  4956  6115  6117    1
  4957   118   117    1
  4958  8037  8036    1
  4959  1991  1990    1
  4960  8002  8001    1
  4961  6562  6555   ar
  4962  6562  6561   ar
  4963  6589  6594    1
  4964    94    92    1
  4965  6768  6769   ar
  4966  1798  1796    1
  4967  1798  1799    1
  4968  2319  2318   ar
  4969  4568  4569   ar
  4970  2808  2806    1
  4971  2808  2810    1
  4972  3850  3848   ar
  4973  3999  3998   ar
  4974  3999  4000    1
  4975  5750  5748    1
  4976  7910  7907   ar
  4977  3800  3817    1
  4978  1990  1992    1
  4979  6595  6594    1
  4980  6595  6596   ar
  4981  2324  2321   ar
  4982  3872  3871    2
  4983  7907  7908   ar
  4984  3828  3827   ar
  4985  3828  3829    2
  4986  1989  1994    1
  4987    15    18   ar
  4988  5755  5754   ar
  4989  3998  4001   ar
  4990  4571  4569   ar
  4991  1796  1794    1
  4992  3836  3817    2
  4993  5746  5747    1
  4994  5746  5748    1
  4995  4561  4575    1
  4996   114   119    1
  4997   114   113    1
  4998   119   120    1
  4999   119   117    1
  5000     4     3    1
  5001  3608  3607   ar
  5002  3608  3609   ar
  5003  2788  2805    1
  5004  2007  2006    1
  5005  5786  5764    2
  5006  5630  5627   ar
  5007  7882  7877    1
  5008  7882  7883    1
  5009  6136  6120    1
  5010  6136  6138    1
  5011  8011  8012   ar
  5012   186   187   ar
  5013   186   184   ar
  5014  2002  2001   ar
  5015  2002  1995   ar
  5016  8001  8003    1
  5017  2021  2020   ar
  5018  2021  2015   ar
  5019  2024  2025   ar
  5020  6525  6523    1
  5021  2001  1999   ar
  5022    39    37    1
  5023  3607  3612   ar
  5024    59    64    1
  5025    59    58    1
  5026  3870  3871   ar
  5027  3870  3868   ar
  5028  3827  3826    1
  5029   187   189   ar
  5030  3609  3610   ar
  5031  5626  5625   ar
  5032  5626  5627   ar
  5033    91    90    1
  5034  6095  6097    1
  5035  6095  6096    1
  5036  6071  6069    1
  5037  6071  6070    1
  5038  6527  6532    1
  5039   168   167    1
  5040  8009  8007    1
  5041  6532  6542    1
  5042  4569  4570    2
  5043  3869  3868    2
  5044  1838  1837    1
  5045  1838  1836    1
  5046  2020  2019   ar
  5047   121   120   ar
  5048   121   123   ar
  5049  2043  2042   ar
  5050  2043  2038   ar
  5051  6555  6556   ar
  5052  6770  6769   ar
  5053  6770  6760    1
  5054  2321  2322   ar
  5055  6561  6559   ar
  5056  6097  6099    1
  5057  6574  6575    1
  5058  4002  4001   ar
  5059  8100  8099    2
  5060     3     1    1
  5061  6523  6544    1
  5062  6523  6509    1
  5063  4004  3984    2
  5064  6575  6576   ar
  5065  2045  2042   ar
  5066  2045  2046   ar
  5067    64    62    1
  5068  7857  7856    1
  5069  3612  3613    1
  5070  3612  3611   ar
  5071  2053  2054    1
  5072  2053  2051    1
  5073  6790  6789    2
  5074    52    51   ar
  5075    52    46   ar
  5076  4579  4578    1
  5077  4579  4584    1
  5078  3610  3611   ar
  5079  3610  3616   ar
  5080  5625  5624   ar
  5081  7903  7908   ar
  5082  6077  6076    1
  5083  5039  5041    1
  5084  5039  5037    1
  5085   113   111    1
  5086   113   115    1
  5087  2049  2028    2
  5088  3853  3854   ar
  5089  2806  2807    1
  5090  6069  6053    1
  5091  6069  6091    1
  5092  6755  6760    1
  5093  6755  6754    1
  5094  5627  5628   ar
  5095  8054  8053    1
  5096  6598  6596   ar
  5097  6579  6580    1
  5098  6579  6578   ar
  5099  2810  2811    1
  5100  3871  3873   ar
  5101   120   127   ar
  5102    37    38    1
  5103  5751  5752   ar
  5104  3611  3614   ar
  5105   117   115    1
  5106  3600  3598    1
  5107  3600  3601    1
  5108  8003  8005    1
  5109  1836  1819    1
  5110  1836  1854    1
  5111    38    55    1
  5112  8036  8035   ar
  5113  8036  8038   ar
  5114  3606  3616    1
  5115  3606  3601    1
  5116  8076  8075   ar
  5117  8076  8078   ar
  5118  2832  2837    1
  5119  2832  2831    1
  5120  7883  7890   ar
  5121  7883  7884   ar
  5122  5747  5764    1
  5123  7908  7909    1
  5124  6070  6072    1
  5125  3616  3615   ar
  5126   197   196    1
  5127  6072  6074    1
  5128  6072  6073    1
  5129  6074  6076    1
  5130  6596  6597    2
  5131  3817  3819    1
  5132  3817  3835    1
  5133    19    18   ar
  5134   196   194    1
  5135  8162  8161    1
  5136  6120  6119    1
  5137  2318  2317   ar
  5138  3868  3867   ar
  5139  4576  4578    1
  5140  4576  4577    1
  5141    45    46   ar
  5142    45    43   ar
  5143  5748  5749    1
  5144    51    50   ar
  5145  7890  7889   ar
  5146  8075  8081   ar
  5147  2042  2041   ar
  5148  1799  1813    1
  5149   123   124   ar
  5150  6760  6758    1
  5151  2837  2838    1
  5152  2837  2835    1
  5153  3984  4005    1
  5154  3984  3968    1
  5155  8052  8053   ar
  5156  8052  8058   ar
  5157  5041  5042    1
  5158  5041  5043    1
  5159  3617  3597    2
  5160  3614  3615   ar
  5161  3848  3849    2
  5162  3848  3847   ar
  5163  6117  6119    1
  5164  6117  6118    1
  5165    85    67    2
  5166  7885  7884    2
  5167    46    47   ar
  5168  2840  2839    2
  5169  2807  2805    1
  5170  4578  4580    1
  5171  6753  6752    1
  5172   185   184    2
  5173  6100  6099    1
  5174    86    67    1
  5175  6783  6789   ar
  5176  6783  6784   ar
  5177  2038  2039   ar
  5178   184   183   ar
  5179    61    67    1
  5180    61    60    1
  5181  2051  2052    1
  5182    58    60    1
  5183    58    56    1
  5184  6789  6788   ar
  5185  7884  7886   ar
  5186  5754  5752   ar
  5187  8035  8033   ar
  5188  3599  3598    1
  5189  3599  3597    1
  5190  1819  1818    1
  5191  3819  3818    1
  5192  1994  1995    1
  5193  1994  1992    1
  5194  2006  2008    1
  5195  6053  6052    1
  5196  1995  1996   ar
  5197  5782  5783   ar
  5198  5782  5779   ar
  5199  5764  5785    1
  5200  5764  5766    1
  5201   116   115    1
  5202   116   130    1
  5203  8038  8039   ar
  5204  2015  2016   ar
  5205  8059  8058    2
  5206  2838  2839   ar
  5207  2838  2845   ar
  5208   189   190   ar
  5209    92    90    1
  5210    92    93    1
  5211  3821  3826    1
  5212  3821  3820    1
  5213  6542  6541   ar
  5214  6542  6536   ar
  5215  2839  2841   ar
  5216   111   112    1
  5217  1992  1993    1
  5218  6509  6508    1
  5219  5054  5034    2
  5220  3826  3824    1
  5221  8096  8095    1
  5222  8053  8055   ar
  5223  4584  4595    1
  5224  4584  4582    1
  5225  2811  2828    1
  5226  1999  2000    1
  5227  1999  1998   ar
  5228  2322  2317   ar
  5229  2322  2323    1
  5230  8099  8101   ar
  5231  8099  8098   ar
  5232  5624  5623   ar
  5233  2805  2827    2
  5234  2805  2826    1
  5235   167   169   ar
  5236   167   166   ar
  5237  6138  6137    1
  5238  3618  3597    1
  5239  6576  6578   ar
  5240  6576  6577    2
  5241  6119  6121    1
  5242    44    43    1
  5243  2025  2019   ar
  5244  2025  2014    1
  5245  7889  7887   ar
  5246    90    88    1
  5247    67    69    1
  5248  2046  2047   ar
  5249  5752  5753    1
  5250  6178  6159    2
  5251  6556  6557    2
  5252  6556  6558   ar
  5253    43    42   ar
  5254  6076  6078    1
  5255  4583  4582    1
  5256  4575  4596    2
  5257  4575  4577    1
  5258  4575  4597    1
  5259   127   126   ar
  5260  6559  6558   ar
  5261  6559  6560    1
  5262   195   194    1
  5263   195   193    1
  5264  5628  5623   ar
  5265  5628  5629    1
  5266  6099  6101    1
  5267  5045  5044   ar
  5268  5045  5046   ar
  5269  8078  8079   ar
  5270  2019  2018   ar
  5271  6785  6784    1
  5272   131   133    1
  5273   131   132    1
  5274  5781  5780    2
  5275  3597  3583    1
  5276   172   153    2
  5277  6096  6101    1
  5278  5036  5035    1
  5279  5036  5034    1
  5280    50    47   ar
  5281  8058  8057   ar
  5282  6752  6754    1
  5283  5044  5049   ar
  5284  1834  1813    2
  5285  6535  6536   ar
  5286  6535  6534   ar
  5287    57    56    1
  5288    57    55    1
  5289  7856  7858    1
  5290  7856  7854    1
  5291  3854  3847   ar
  5292  7886  7887   ar
  5293    47    48   ar
  5294  2845  2844   ar
  5295  5783  5784   ar
  5296  2841  2842   ar
  5297  6754  6756    1
  5298  6784  6786   ar
  5299  8007  8005    1
  5300  8007  8008    1
  5301  2836  2835    1
  5302  5046  5047   ar
  5303  2831  2829    1
  5304  2831  2833    1
  5305   169   170   ar
  5306  8101  8102   ar
  5307  8161  8160   ar
  5308  8161  8163   ar
  5309  8005  8006    1
  5310    60    62    1
  5311     1     2    1
  5312   124   126   ar
  5313   124   125    2
  5314  5037  5035    1
  5315  5037  5038    1
  5316    62    63    1
  5317  8097  8098    1
  5318  8097  8095    1
  5319  8097  8092    1
  5320  7887  7888    2
  5321  6541  6540   ar
  5322  8081  8082    2
  5323  8081  8080   ar
  5324  6536  6537   ar
  5325   212   193    2
  5326  7859  7858    1
  5327   133   134    1
  5328   133   135    1
  5329  3847  3846    1
  5330  6788  6791   ar
  5331  6788  6787   ar
  5332  6511  6510    1
  5333    93   110    1
  5334   151   130    2
  5335  6073  6078    1
  5336  3970  3969    1
  5337  5049  5050    1
  5338  5049  5048   ar
  5339  3968  3967    1
  5340  4595  4594   ar
  5341  4595  4589   ar
  5342  2829  2830    1
  5343  3873  3874   ar
  5344   134   139    1
  5345  2028  2048    1
  5346  2028  2030    1
  5347  2028  2011    1
  5348  6194  6193    1
  5349  5047  5048   ar
  5350  5047  5053   ar
  5351  6118  6123    1
  5352  2844  2842   ar
  5353    55    65    2
  5354    55    66    1
  5355  2842  2843    2
  5356  8160  8166   ar
  5357  7858  7860    1
  5358  5034  5055    1
  5359  5034  5017    1
  5360  1818  1816    1
  5361  1818  1820    1
  5362  1813  1815    1
  5363  1813  1835    1
  5364  3867  3874   ar
  5365  3867  3866    1
  5366  2835  2833    1
  5367  8033  8034    2
  5368  8033  8032   ar
  5369   183   190   ar
  5370   183   182    1
  5371    42    48   ar
  5372  8098  8105   ar
  5373  4594  4593   ar
  5374  2010  2008    1
  5375  2010  2012    1
  5376  2010  2011    1
  5377  2041  2047   ar
  5378  2041  2040   ar
  5379  5048  5051   ar
  5380   166   164   ar
  5381  8039  8032   ar
  5382  6055  6054    1
  5383  6791  6792   ar
  5384  4582  4580    1
  5385  8095  8093    1
  5386  2009  2008    1
  5387  2009  2014    1
  5388  7871  7851    2
  5389  2039  2040   ar
  5390  2069  2050    2
  5391   112   110    1
  5392  8163  8164   ar
  5393  3818  3820    1
  5394  5779  5780   ar
  5395  5779  5778   ar
  5396  8055  8056   ar
  5397  6177  6159    1
  5398  5043  5053    1
  5399  5043  5038    1
  5400  5053  5052   ar
  5401    48    49    2
  5402  5766  5765    1
  5403  6101  6111    1
  5404  1996  1998   ar
  5405  1996  1997    2
  5406  8092  8091    1
  5407  6534  6533   ar
  5408  6758  6759    1
  5409  6758  6756    1
  5410  4580  4581    1
  5411  5780  5774   ar
  5412  6137  6139    1
  5413   130   132    1
  5414   130   152    1
  5415  2016  2018   ar
  5416  2016  2017    1
  5417  6875  6876   ar
  5418  6875  6880   ar
  5419  2052  2050    1
  5420  6786  6787   ar
  5421  4589  4588   ar
  5422  4589  4590   ar
  5423  6078  6089    1
  5424  2014  2012    1
  5425  4588  4586   ar
  5426  6154  6155   ar
  5427  6154  6151   ar
  5428  8079  8080   ar
  5429  8079  8085   ar
  5430  2047  2037    1
  5431  6508  6510    1
  5432  6508  6506    1
  5433  5051  5052   ar
  5434  3820  3822    1
  5435  6787  6793   ar
  5436   193   211    1
  5437   193   179    1
  5438  3969  3967    1
  5439  3969  3971    1
  5440    88    89    1
  5441  6159  6161    1
  5442  6159  6142    1
  5443  6510  6512    1
  5444  1816  1814    1
  5445  1816  1817    1
  5446  6052  6054    1
  5447  6052  6050    1
  5448  6876  6877   ar
  5449  3824  3822    1
  5450  3824  3825    1
  5451    89    87    1
  5452  8057  8056   ar
  5453  8057  8060   ar
  5454  8032  8031    1
  5455  6813  6812    2
  5456  2030  2029    1
  5457  4593  4590   ar
  5458  8080  8083   ar
  5459  7854  7852    1
  5460  7854  7855    1
  5461  2830  2828    1
  5462  6540  6537   ar
  5463  6537  6538   ar
  5464  8102  8103    2
  5465  8102  8104   ar
  5466   192   173    2
  5467  2828  2846    2
  5468  2828  2847    1
  5469   180   182    1
  5470   180   178    1
  5471   180   181    1
  5472  7852  7853    1
  5473  2833  2834    1
  5474  6121  6122    1
  5475  6121  6123    1
  5476  6155  6156   ar
  5477  2012  2013    1
  5478  6756  6757    1
  5479  3866  3864    1
  5480  3866  3861    1
  5481  6054  6056    1
  5482   153   171    1
  5483   153   136    1
  5484   153   155    1
  5485   170   163   ar
  5486  3822  3823    1
  5487  8056  8062   ar
  5488  1815  1814    1
  5489  8006  8022    1
  5490  6132  6131   ar
  5491  6132  6133   ar
  5492  4590  4591   ar
  5493    69    68    1
  5494  3967  3965    1
  5495  6806  6812   ar
  5496  6806  6807   ar
  5497  5784  5778   ar
  5498  5784  5773    1
  5499  8166  8167    2
  5500  8166  8165   ar
  5501  6792  6793   ar
  5502  3846  3841    1
  5503  3846  3844    1
  5504  7853  7851    1
  5505  4586  4587    1
  5506  4586  4585   ar
  5507  6881  6880    1
  5508  3583  3582    1
  5509  6153  6152    2
  5510  6110  6111   ar
  5511  6110  6109   ar
  5512  6050  6048    1
  5513  6050  6051    1
  5514  6193  6195   ar
  5515  6193  6192   ar
  5516  6812  6811   ar
  5517  4581  4598    1
  5518  8091  8093    1
  5519  8091  8089    1
  5520   135   136    1
  5521   135   137    1
  5522   110   128    2
  5523   110   129    1
  5524  1821  1820    1
  5525   182   177    1
  5526  6880  6879   ar
  5527  6123  6133    1
  5528  8164  8165   ar
  5529  8164  8170   ar
  5530  6808  6807    1
  5531  6111  6105   ar
  5532  6793  6782    1
  5533  2050  2034    1
  5534  2050  2068    1
  5535  8105  8104   ar
  5536   139   150    1
  5537   139   137    1
  5538  3973  3974   ar
  5539  3973  3972   ar
  5540  7851  7872    1
  5541  7851  7837    1
  5542  6533  6538   ar
  5543  3974  3975   ar
  5544  1820  1822    1
  5545  6195  6196   ar
  5546  6515  6514    2
  5547   164   163   ar
  5548   164   165    2
  5549  6877  6878   ar
  5550   178   179    1
  5551   178   176    1
  5552   142   141    1
  5553  5778  5777   ar
  5554  6161  6160    1
  5555  6141  6142    1
  5556  6141  6139    1
  5557  6141  6143    1
  5558   143   141   ar
  5559   143   144   ar
  5560  8093  8094    1
  5561  6831  6830    1
  5562  2852  2857    1
  5563  2852  2851    1
  5564  8085  8074    1
  5565  8085  8084   ar
  5566  4591  4585   ar
  5567  4591  4592    2
  5568    68    70    1
  5569  6807  6809   ar
  5570  5771  5772    1
  5571  5771  5773    1
  5572  5771  5769    1
  5573  8060  8061   ar
  5574  6048  6049    1
  5575  6506  6504    1
  5576  6506  6507    1
  5577  6538  6539    1
  5578  5765  5767    1
  5579  7860  7855    1
  5580  7860  7870    1
  5581  5017  5016    1
  5582  6131  6128   ar
  5583  2033  2035    1
  5584  2033  2034    1
  5585  2033  2031    1
  5586  3864  3865    1
  5587  3864  3862    1
  5588  8165  8168   ar
  5589  6139  6140    1
  5590  6151  6152   ar
  5591  6151  6150   ar
  5592   150   144   ar
  5593   150   149   ar
  5594  1817  1822    1
  5595  8094  8108    1
  5596   141   140   ar
  5597  2834  2848    1
  5598  6089  6088   ar
  5599  6089  6083   ar
  5600  6133  6127   ar
  5601  8074  8072    1
  5602  8074  8069    1
  5603  3841  3840    1
  5604  6898  6897   ar
  5605  6898  6899   ar
  5606  8031  8026    1
  5607  8031  8029    1
  5608  8185  8184    2
  5609  5774  5775   ar
  5610  3972  3977   ar
  5611   109    87    2
  5612   144   145   ar
  5613   163   162    1
  5614  3856  3837    2
  5615  2035  2037    1
  5616  2035  2036    1
  5617  8073  8072    1
  5618  6829  6830   ar
  5619  6829  6835   ar
  5620  3582  3584    1
  5621  3582  3580    1
  5622  2037  2032    1
  5623  5768  5773    1
  5624  5768  5767    1
  5625  8041  8022    2
  5626  3861  3860    1
  5627  6152  6146   ar
  5628  8083  8084   ar
  5629  3971  3981    1
  5630  3971  3966    1
  5631   155   154    1
  5632  7870  7864   ar
  5633  7870  7869   ar
  5634  8159  8170    1
  5635  8159  8154    1
  5636  8159  8157    1
  5637  8170  8169   ar
  5638  8026  8025    1
  5639  7863  7864   ar
  5640  7863  7862   ar
  5641  6757  6773    1
  5642  6836  6835    2
  5643    87   108    1
  5644    87    73    1
  5645  2857  2858    1
  5646  2857  2855    1
  5647   149   148   ar
  5648  8062  8061   ar
  5649  8062  8051    1
  5650  8072  8070    1
  5651  3975  3981   ar
  5652  3975  3976   ar
  5653  6811  6814   ar
  5654  6811  6810   ar
  5655  6830  6832   ar
  5656  3844  3845    1
  5657  3844  3842    1
  5658  2029  2031    1
  5659   175   173    1
  5660   175   174    1
  5661  6512  6507    1
  5662  6512  6513    1
  5663  7864  7865   ar
  5664  8022  8024    1
  5665  8022  8040    1
  5666  6782  6777    1
  5667  6782  6780    1
  5668  6192  6190   ar
  5669   140   146   ar
  5670  6879  6878   ar
  5671  6879  6882   ar
  5672  6897  6902   ar
  5673   137   138    1
  5674  6160  6162    1
  5675  6505  6504    1
  5676  6505  6503    1
  5677  7869  7868   ar
  5678  8024  8023    1
  5679  6878  6884   ar
  5680  6156  6150   ar
  5681  6156  6145    1
  5682   173   191    1
  5683   173   159    1
  5684  6109  6106   ar
  5685   145   148   ar
  5686   145   146   ar
  5687  7862  7861   ar
  5688  6140  6145    1
  5689  3965  3966    1
  5690  3965  3963    1
  5691  6056  6051    1
  5692  6056  6066    1
  5693  6835  6834   ar
  5694  6777  6776    1
  5695  3823  3837    1
  5696  6088  6087   ar
  5697  1822  1833    1
  5698  6082  6083   ar
  5699  6082  6080   ar
  5700    72    70    1
  5701    72    73    1
  5702    72    74    1
  5703  6809  6810   ar
  5704  3981  3980   ar
  5705   177   176    1
  5706  6899  6900   ar
  5707  8154  8153    1
  5708  3467  3447    2
  5709  2858  2859   ar
  5710  2858  2865   ar
  5711    70    71    1
  5712  2860  2859    2
  5713  7865  7868   ar
  5714  7865  7866   ar
  5715  6514  6513   ar
  5716  6514  6516   ar
  5717  3584  3585    1
  5718  3584  3586    1
  5719  2032  2031    1
  5720  3977  3976   ar
  5721  3977  3978    1
  5722  8089  8090    1
  5723  8128  8108    2
  5724  2851  2849    1
  5725  2851  2853    1
  5726  5767  5769    1
  5727   146   147    2
  5728  8158  8157    1
  5729  5769  5770    1
  5730  6105  6104   ar
  5731  6105  6106   ar
  5732  6814  6815   ar
  5733  3592  3591    1
  5734  7861  7866   ar
  5735  6083  6084   ar
  5736  6810  6816   ar
  5737  2849  2850    1
  5738  2859  2861   ar
  5739  2865  2864   ar
  5740  5016  5018    1
  5741  5016  5014    1
  5742  3976  3979   ar
  5743  8184  8183   ar
  5744  8184  8186   ar
  5745  6196  6189   ar
  5746  8182  8177    1
  5747  8182  8183    1
  5748  8182  8180    1
  5749  3590  3591   ar
  5750  3590  3588   ar
  5751  3490  3469    2
  5752  7866  7867    1
  5753  8168  8169   ar
  5754  6049  6047    1
  5755  8181  8180    1
  5756  3839  3837    1
  5757  3839  3838    1
  5758  8108  8129    1
  5759  8108  8110    1
  5760  8177  8176    1
  5761  8051  8046    1
  5762  8051  8049    1
  5763  5923  5922    1
  5764  6150  6149   ar
  5765   176   174    1
  5766  6854  6853    1
  5767  5777  5775   ar
  5768   158   160    1
  5769   158   159    1
  5770   158   156    1
  5771  3589  3588    2
  5772  6478  6458    2
  5773  7837  7836    1
  5774  6832  6833   ar
  5775  2856  2855    1
  5776  3837  3855    1
  5777  3591  3593   ar
  5778  6143  6145    1
  5779  6143  6144    1
  5780  4598  4619    2
  5781  4598  4620    1
  5782  4598  4600    1
  5783  6067  6047    2
  5784  6479  6458    1
  5785  5775  5776    1
  5786  6513  6520   ar
  5787  6175  6176   ar
  5788  6175  6173   ar
  5789  8069  8068    1
  5790  5807  5787    2
  5791  3578  3580    1
  5792  3578  3579    1
  5793  2864  2862   ar
  5794  6128  6127   ar
  5795  6128  6129   ar
  5796  2861  2862   ar
  5797  3588  3587   ar
  5798  4602  4601    1
  5799  4602  4607    1
  5800  6059  6058   ar
  5801  6059  6060   ar
  5802  4599  4601    1
  5803  4599  4600    1
  5804  8157  8155    1
  5805  6127  6126   ar
  5806  3862  3860    1
  5807  3862  3863    1
  5808  6104  6103   ar
  5809  6106  6107   ar
  5810  3980  3979   ar
  5811  2862  2863    1
  5812  2850  2848    1
  5813  8029  8027    1
  5814  8029  8030    1
  5815  3580  3581    1
  5816  6834  6833   ar
  5817  6834  6837   ar
  5818  6882  6883   ar
  5819  8183  8190   ar
  5820   160   162    1
  5821   160   161    1
  5822  8186  8187   ar
  5823   162   157    1
  5824  3842  3840    1
  5825  3842  3843    1
  5826  3840  3838    1
  5827  6884  6874    1
  5828  6884  6883   ar
  5829  8090  8088    1
  5830  5023  5022    1
  5831  2848  2866    2
  5832  2848  2867    1
  5833  6516  6517   ar
  5834  6176  6169   ar
  5835  6146  6147   ar
  5836  3860  3858    1
  5837  6795  6773    2
  5838  3963  3964    1
  5839  2855  2853    1
  5840  6833  6839   ar
  5841  6815  6816   ar
  5842   154   156    1
  5843  3593  3594   ar
  5844  6081  6080    1
  5845  5018  5019    1
  5846  5018  5020    1
  5847  6816  6805    1
  5848  6080  6079   ar
  5849    74    75    1
  5850    74    76    1
  5851  3445  3427    2
  5852  6190  6189   ar
  5853  6190  6191    2
  5854  6066  6060   ar
  5855  6066  6065   ar
  5856  6902  6903    1
  5857  6902  6901   ar
  5858  5903  5902    1
  5859  3587  3594   ar
  5860  3587  3586    1
  5861  8025  8023    1
  5862  8025  8027    1
  5863  6521  6503    2
  5864  5021  5022   ar
  5865  5021  5027   ar
  5866  6503  6522    1
  5867  6503  6486    1
  5868  6773  6775    1
  5869  6773  6794    1
  5870  5012  5014    1
  5871  5012  5013    1
  5872   157   156    1
  5873  6087  6084   ar
  5874  5022  5024   ar
  5875  3899  3877    2
  5876  8180  8178    1
  5877  6446  6445    1
  5878  6458  6444    1
  5879  6458  6460    1
  5880  4601  4603    1
  5881  6058  6057   ar
  5882  8046  8045    1
  5883  6874  6869    1
  5884  6874  6872    1
  5885  8070  8068    1
  5886  8070  8071    1
  5887  6780  6781    1
  5888  6780  6778    1
  5889  6900  6901   ar
  5890  6900  6906   ar
  5891  5028  5027    2
  5892  6189  6188    1
  5893  6775  6774    1
  5894  1826  1827   ar
  5895  1826  1824   ar
  5896  6084  6085   ar
  5897  8049  8050    1
  5898  8049  8047    1
  5899  6060  6061   ar
  5900  1833  1827   ar
  5901  1833  1832   ar
  5902  6162  6163    1
  5903  6162  6164    1
  5904  5027  5026   ar
  5905  3586  3581    1
  5906  6174  6173    2
  5907  6047  6033    1
  5908  6047  6068    1
  5909  6776  6774    1
  5910  6776  6778    1
  5911  6853  6855   ar
  5912  6853  6852   ar
  5913  8176  8174    1
  5914  8176  8178    1
  5915  5014  5015    1
  5916  6837  6838   ar
  5917  5919  5918    1
  5918  5919  5924    1
  5919  3579  3577    1
  5920  8027  8028    1
  5921  2853  2854    1
  5922  5024  5025   ar
  5923  8153  8155    1
  5924  8153  8151    1
  5925    71    76    1
  5926  6855  6856   ar
  5927  5770  5787    1
  5928  3447  3468    1
  5929  3447  3433    1
  5930  3447  3449    1
  5931  6850  6849    1
  5932  4607  4618    1
  5933  4607  4605    1
  5934  7836  7838    1
  5935  7836  7834    1
  5936  4617  4618   ar
  5937  4617  4616   ar
  5938  6173  6172   ar
  5939  5907  5906    2
  5940  3469  3453    1
  5941  3469  3491    1
  5942  3469  3471    1
  5943  5918  5916    1
  5944  5918  5920    1
  5945  1825  1824    1
  5946  5924  5922    1
  5947  5924  5935    1
  5948  3595  3577    2
  5949  3863  3877    1
  5950  3596  3577    1
  5951  6163  6168    1
  5952  3453  3452    1
  5953  8068  8066    1
  5954  3964  3962    1
  5955  6520  6519   ar
  5956  3859  3858    1
  5957  3859  3857    1
  5958  6149  6147   ar
  5959  6035  6034    1
  5960  5026  5025   ar
  5961  5026  5029   ar
  5962  5025  5031   ar
  5963  6129  6130    1
  5964  6129  6124   ar
  5965  6126  6125   ar
  5966  6839  6838   ar
  5967  6839  6828    1
  5968  8187  8188    2
  5969  8187  8189   ar
  5970  8190  8189   ar
  5971  8071  8088    1
  5972  6805  6800    1
  5973  6805  6803    1
  5974  4618  4612   ar
  5975  5922  5920    1
  5976  6901  6904   ar
  5977  8110  8109    1
  5978  6873  6872    1
  5979  5787  5808    1
  5980  5787  5789    1
  5981  4616  4613   ar
  5982  6103  6102   ar
  5983  3876  3857    2
  5984  6869  6868    1
  5985  6147  6148    1
  5986  1827  1828   ar
  5987  5032  5011    2
  5988  6033  6032    1
  5989  7839  7838    1
  5990  5033  5011    1
  5991  8155  8156    1
  5992  6444  6443    1
  5993  6107  6102   ar
  5994  6107  6108    1
  5995  7838  7840    1
  5996  3577  3563    1
  5997  3898  3877    1
  5998  3877  3879    1
  5999  5029  5030   ar
  6000  5904  5899    1
  6001  5904  5902    1
  6002  5904  5905    1
  6003  6517  6519   ar
  6004  6517  6518    2
  6005  6896  6891    1
  6006  6896  6906    1
  6007  6896  6894    1
  6008  6778  6779    1
  6009  5031  5030   ar
  6010  5031  5020    1
  6011  1824  1823   ar
  6012  6065  6064   ar
  6013  3448  3449    1
  6014  3448  3450    1
  6015  6921  6920    1
  6016  3433  3432    1
  6017  3843  3857    1
  6018  8197  8202    1
  6019  8197  8196    1
  6020  6079  6085   ar
  6021    76    77    1
  6022    84    83   ar
  6023    84    77   ar
  6024  6891  6890    1
  6025  5916  5917    1
  6026  2854  2868    1
  6027  8174  8175    1
  6028  6828  6826    1
  6029  6828  6823    1
  6030  6906  6905   ar
  6031  6872  6870    1
  6032  5899  5898    1
  6033  8178  8179    1
  6034  5020  5015    1
  6035  6169  6168    1
  6036  6169  6170   ar
  6037  8151  8152    1
  6038  6800  6799    1
  6039  6852  6858   ar
  6040  4612  4613   ar
  6041  4612  4611   ar
  6042  6164  6166    1
  6043  6164  6165    1
  6044  5902  5900    1
  6045  6851  6849    1
  6046  6851  6846    1
  6047  6851  6862    1
  6048  1832  1831   ar
  6049  4613  4614   ar
  6050  6057  6062   ar
  6051  6459  6460    1
  6052  6459  6461    1
  6053  8088  8107    2
  6054  8088  8106    1
  6055  6895  6894    1
  6056  6085  6086    2
  6057  6486  6485    1
  6058  5013  5011    1
  6059  6187  6186    1
  6060  8124  8123    1
  6061  5928  5926   ar
  6062  5928  5929   ar
  6063  5927  5926    1
  6064  6445  6443    1
  6065  6445  6447    1
  6066  5011  4995    1
  6067  3857  3875    1
  6068  5921  5920    1
  6069  5921  5938    1
  6070  3427  3429    1
  6071  3427  3446    1
  6072  3427  3413    1
  6073  6061  6064   ar
  6074  6061  6062   ar
  6075  8109  8111    1
  6076  6166  6168    1
  6077  6166  6167    1
  6078  6856  6862   ar
  6079  6856  6857   ar
  6080  6034  6032    1
  6081  6034  6036    1
  6082  5906  5905   ar
  6083  5906  5908   ar
  6084  6188  6186    1
  6085  6188  6183    1
  6086  6198  6179    2
  6087  7849  7831    2
  6088  7833  7832    1
  6089  7833  7831    1
  6090  4611  4609   ar
  6091  6849  6847    1
  6092  8045  8047    1
  6093  8045  8043    1
  6094  8125  8126   ar
  6095  8125  8122   ar
  6096  8047  8048    1
  6097  8202  8212    1
  6098  8202  8200    1
  6099    83    81   ar
  6100  6827  6826    1
  6101  8064  8042    2
  6102  7850  7831    1
  6103  4603  4605    1
  6104  4603  4604    1
  6105  5935  5929   ar
  6106  5935  5934   ar
  6107    77    78   ar
  6108  4614  4615    2
  6109  4614  4608   ar
  6110  6125  6124   ar
  6111  6186  6184    1
  6112  3429  3428    1
  6113  8179  8193    1
  6114  6846  6845    1
  6115  8156  8173    1
  6116  3471  3470    1
  6117  6826  6824    1
  6118  8028  8042    1
  6119  3452  3450    1
  6120  3452  3454    1
  6121  4605  4606    1
  6122  6172  6170   ar
  6123  3450  3451    1
  6124  7834  7832    1
  6125  7834  7835    1
  6126  6862  6861   ar
  6127  8205  8206   ar
  6128  8205  8204   ar
  6129  5887  5886    2
  6130  2872  2877    1
  6131  2872  2871    1
  6132  5898  5900    1
  6133  5898  5896    1
  6134  8175  8173    1
  6135  5926  5925   ar
  6136  8212  8206   ar
  6137  8212  8211   ar
  6138  5905  5912   ar
  6139  8066  8067    1
  6140  6443  6441    1
  6141  8194  8196    1
  6142  8194  8195    1
  6143  6062  6063    1
  6144  6032  6030    1
  6145  8196  8198    1
  6146  6803  6804    1
  6147  6803  6801    1
  6148  8206  8207   ar
  6149  4609  4608   ar
  6150  4609  4610    1
  6151  8204  8203   ar
  6152  5929  5930   ar
  6153  8123  8122   ar
  6154  8123  8118   ar
  6155  6894  6892    1
  6156  8126  8127   ar
  6157  7831  7814    1
  6158  6904  6905   ar
  6159  3954  3953    2
  6160  8172  8150    2
  6161  3513  3492    2
  6162  8211  8210   ar
  6163  1828  1831   ar
  6164  1828  1829   ar
  6165  8122  8121   ar
  6166  3428  3430    1
  6167  3957  3956    2
  6168  3955  3953   ar
  6169  3955  3956   ar
  6170  6823  6822    1
  6171  3962  3982    2
  6172  3962  3983    1
  6173  3962  3948    1
  6174  8044  8042    1
  6175  8044  8043    1
  6176  3413  3412    1
  6177  5789  5788    1
  6178  6476  6475   ar
  6179  6476  6477   ar
  6180  6462  6461    1
  6181  6462  6467    1
  6182  8152  8150    1
  6183  6868  6870    1
  6184  6868  6866    1
  6185  6475  6472   ar
  6186  6170  6171    2
  6187  8203  8208   ar
  6188  8207  8210   ar
  6189  8207  8208   ar
  6190  5959  5938    2
  6191  1823  1829   ar
  6192  6920  6922   ar
  6193  6920  6919   ar
  6194  6890  6888    1
  6195  6890  6892    1
  6196  6858  6857   ar
  6197  6858  6859    2
  6198  6488  6487    1
  6199  5788  5790    1
  6200  8067  8065    1
  6201  5917  5915    1
  6202  2877  2878    1
  6203  2877  2875    1
  6204  6039  6038    2
  6205  8208  8209    1
  6206  7840  7841    1
  6207  7840  7835    1
  6208  5908  5909   ar
  6209  6461  6463    1
  6210  7848  7847   ar
  6211  7848  7841   ar
  6212  3432  3430    1
  6213  3432  3434    1
  6214  7847  7845   ar
  6215  5900  5901    1
  6216  7846  7845    2
  6217  5901  5915    1
  6218  7841  7842   ar
  6219  7845  7844   ar
  6220  6857  6860   ar
  6221  6779  6796    1
  6222  8042  8063    1
  6223  7842  7844   ar
  6224  7842  7843    2
  6225  5936  5915    2
  6226  6165  6179    1
  6227  3879  3878    1
  6228  3895  3896   ar
  6229  3895  3892   ar
  6230  8201  8200    1
  6231  2885  2878   ar
  6232  2885  2884   ar
  6233  6870  6871    1
  6234  4604  4621    1
  6235  3572  3571    2
  6236  3563  3562    1
  6237  6183  6182    1
  6238  3953  3952   ar
  6239  5883  5882    1
  6240  5934  5933   ar
  6241  6845  6847    1
  6242  6845  6843    1
  6243  6447  6442    1
  6244  6447  6448    1
  6245  3956  3958   ar
  6246  2878  2879   ar
  6247  3430  3431    1
  6248  8118  8119   ar
  6249  2869  2871    1
  6250  2869  2870    1
  6251  8048  8065    1
  6252  2871  2873    1
  6253  6799  6801    1
  6254  6799  6797    1
  6255  6485  6487    1
  6256  6485  6483    1
  6257  6450  6449    2
  6258  2868  2870    1
  6259  2868  2887    2
  6260  2868  2886    1
  6261  3455  3454    1
  6262  6441  6442    1
  6263  6441  6439    1
  6264  8127  8121   ar
  6265  8127  8117    1
  6266  8173  8191    2
  6267  8173  8192    1
  6268  2884  2882   ar
  6269  6179  6181    1
  6270  6179  6197    1
  6271  8121  8120   ar
  6272  6922  6923   ar
  6273  3565  3564    1
  6274  5938  5940    1
  6275  5938  5960    1
  6276  5939  5941    1
  6277  5939  5940    1
  6278  8112  8111    1
  6279  8112  8117    1
  6280  5896  5897    1
  6281  6036  6031    1
  6282  6036  6037    1
  6283  8200  8198    1
  6284  8111  8113    1
  6285  3470  3472    1
  6286  6847  6848    1
  6287  3896  3897   ar
  6288  8195  8193    1
  6289  6818  6796    2
  6290  1829  1830    2
  6291  6030  6031    1
  6292  6030  6028    1
  6293  3571  3573   ar
  6294  3571  3570   ar
  6295  6919  6925   ar
  6296  6798  6797    1
  6297  6798  6796    1
  6298    81    80   ar
  6299    81    82    2
  6300  3894  3893    2
  6301  5925  5931   ar
  6302  5886  5888   ar
  6303  5886  5885   ar
  6304  5912  5911   ar
  6305  6861  6860   ar
  6306  2879  2880    2
  6307  2879  2881   ar
  6308  8150  8171    1
  6309  8150  8136    1
  6310  4995  4994    1
  6311    78    80   ar
  6312    78    79    2
  6313  3454  3456    1
  6314  3564  3562    1
  6315  3564  3566    1
  6316  5915  5937    1
  6317  3948  3947    1
  6318  6888  6889    1
  6319  5930  5933   ar
  6320  5930  5931   ar
  6321  6801  6802    1
  6322  6892  6893    1
  6323  3573  3574   ar
  6324  6866  6867    1
  6325  5791  5790    1
  6326  5791  5796    1
  6327  6477  6467    1
  6328  6477  6471   ar
  6329  3435  3434    1
  6330  3949  3950    1
  6331  3949  3947    1
  6332  3949  3951    1
  6333  2882  2881   ar
  6334  2882  2883    2
  6335  3534  3515    2
  6336  6181  6180    1
  6337  6015  6016   ar
  6338  6015  6020   ar
  6339  5888  5889   ar
  6340  3475  3492    1
  6341  3475  3474    1
  6342  8193  8213    2
  6343  8193  8214    1
  6344  5942  5941    1
  6345  5942  5947    1
  6346  6848  6865    1
  6347  6021  6020    1
  6348  3570  3568   ar
  6349  6472  6473   ar
  6350  6472  6471   ar
  6351  6184  6185    1
  6352  6184  6182    1
  6353  3562  3560    1
  6354  3451  3456    1
  6355  6487  6489    1
  6356  6824  6822    1
  6357  6824  6825    1
  6358  8119  8120   ar
  6359  3492  3514    1
  6360  3492  3494    1
  6361  6200  6202    1
  6362  6200  6201    1
  6363  6038  6037   ar
  6364  6038  6040   ar
  6365  3425  3407    2
  6366  8198  8199    1
  6367  3409  3408    1
  6368  3409  3407    1
  6369  6474  6473    1
  6370  6796  6817    1
  6371  5805  5804   ar
  6372  5805  5806   ar
  6373  5941  5943    1
  6374  8115  8117    1
  6375  8115  8113    1
  6376  8115  8116    1
  6377  6871  6887    1
  6378  3408  3410    1
  6379  6467  6465    1
  6380  6449  6448   ar
  6381  6449  6451   ar
  6382  5790  5792    1
  6383  6822  6820    1
  6384  8065  8087    2
  6385  8065  8086    1
  6386  5849  5848    2
  6387  2876  2875    1
  6388  5882  5884    1
  6389  5882  5880    1
  6390  3434  3436    1
  6391  6203  6202    1
  6392  6203  6208    1
  6393  5909  5911   ar
  6394  5909  5910    2
  6395  6448  6455   ar
  6396  3947  3945    1
  6397  3574  3567   ar
  6398  3878  3880    1
  6399  3412  3410    1
  6400  3412  3414    1
  6401  6893  6909    1
  6402  6913  6912    1
  6403  6913  6918    1
  6404  6220  6199    2
  6405  8113  8114    1
  6406  3952  3959   ar
  6407  3952  3951    1
  6408  3892  3893   ar
  6409  3892  3891   ar
  6410  6483  6484    1
  6411  6483  6481    1
  6412  7814  7813    1
  6413  3410  3411    1
  6414  5931  5932    2
  6415  6185  6199    1
  6416  6037  6044   ar
  6417  2875  2873    1
  6418  6016  6017   ar
  6419  3958  3959   ar
  6420  6492  6491    1
  6421  3568  3567   ar
  6422  3568  3569    2
  6423  6489  6484    1
  6424  6489  6500    1
  6425  6182  6180    1
  6426  6020  6019   ar
  6427  7830  7808    2
  6428  3893  3887   ar
  6429  5804  5801   ar
  6430  4994  4996    1
  6431  4994  4992    1
  6432  6843  6844    1
  6433  5884  5885    1
  6434  5884  5879    1
  6435  6889  6887    1
  6436  6473  6468   ar
  6437  3936  3935    1
  6438  3576  3557    2
  6439  6463  6465    1
  6440  6463  6464    1
  6441  6471  6470   ar
  6442  6439  6440    1
  6443  3567  3566    1
  6444  4640  4621    2
  6445  6202  6204    1
  6446  4621  4639    1
  6447  4621  4623    1
  6448  5005  5004    1
  6449  7829  7808    1
  6450  6028  6029    1
  6451  5870  5869    2
  6452  6910  6912    1
  6453  6910  6911    1
  6454  3472  3474    1
  6455  3472  3473    1
  6456  5867  5866    2
  6457  4999  5004   ar
  6458  4999  5000   ar
  6459  3881  3880    1
  6460  3881  3886    1
  6461  3415  3414    1
  6462  5868  5866   ar
  6463  5868  5869   ar
  6464  3456  3466    1
  6465  6493  6491   ar
  6466  6493  6494   ar
  6467  2873  2874    1
  6468  5885  5892   ar
  6469  6040  6041   ar
  6470  3459  3458   ar
  6471  3459  3460   ar
  6472  6825  6842    1
  6473  3431  3436    1
  6474  6923  6924   ar
  6475  6923  6929   ar
  6476  5947  5958    1
  6477  5947  5945    1
  6478  6465  6466    1
  6479  3951  3946    1
  6480  8136  8135    1
  6481  8199  8215    1
  6482  4996  4997    1
  6483  4996  4998    1
  6484  5004  5003   ar
  6485  3897  3891   ar
  6486  3897  3886    1
  6487  6867  6865    1
  6488  5009  4989    2
  6489  6912  6914    1
  6490  5842  5848   ar
  6491  5842  5843   ar
  6492  6821  6820    1
  6493  6821  6819    1
  6494  5000  5001   ar
  6495  3474  3476    1
  6496  5897  5895    1
  6497  6925  6926    2
  6498  6925  6924   ar
  6499  3575  3557    1
  6500  3566  3561    1
  6501  6451  6452   ar
  6502  5010  4989    1
  6503  6501  6480    2
  6504  3407  3390    1
  6505  3407  3426    1
  6506  6482  6481    1
  6507  6482  6480    1
  6508  6201  6199    1
  6509  5826  5825    2
  6510  6455  6454   ar
  6511  5796  5806    1
  6512  5796  5794    1
  6513  5806  5800   ar
  6514  7813  7815    1
  6515  7813  7811    1
  6516  5999  5998    1
  6517  3458  3457   ar
  6518  6802  6819    1
  6519  6491  6490   ar
  6520  6199  6219    1
  6521  5889  5890    1
  6522  5889  5891   ar
  6523  5848  5847   ar
  6524  3559  3557    1
  6525  3559  3558    1
  6526  4637  4638   ar
  6527  4637  4635   ar
  6528  6208  6218    1
  6529  6208  6206    1
  6530  3414  3416    1
  6531  8149  8130    2
  6532  6844  6842    1
  6533  7808  7810    1
  6534  7808  7794    1
  6535  3515  3533    1
  6536  3515  3517    1
  6537  3515  3498    1
  6538  5003  5002   ar
  6539  5003  5006   ar
  6540  6918  6929    1
  6541  6918  6916    1
  6542  4991  4989    1
  6543  4991  4990    1
  6544  3493  3494    1
  6545  3493  3495    1
  6546  6887  6908    2
  6547  6887  6907    1
  6548  4625  4630    1
  6549  4625  4624    1
  6550  3557  3541    1
  6551  5001  5002   ar
  6552  4636  4635    2
  6553  3891  3890   ar
  6554  3961  3942    2
  6555  5866  5865   ar
  6556  3880  3882    1
  6557  6911  6909    1
  6558  5869  5871   ar
  6559  6865  6886    2
  6560  6865  6885    1
  6561  6464  6480    1
  6562  3436  3437    1
  6563  3935  3930   ar
  6564  3935  3934   ar
  6565  4638  4631   ar
  6566  6440  6438    1
  6567  8219  8224    1
  6568  8219  8218    1
  6569  5881  5880    1
  6570  5881  5895    1
  6571  6017  6018   ar
  6572  3930  3931   ar
  6573  6044  6043   ar
  6574  4635  4634   ar
  6575  5844  5843    1
  6576  6500  6494   ar
  6577  6500  6499   ar
  6578  3551  3550    1
  6579  5002  5008   ar
  6580  5958  5957   ar
  6581  5958  5952   ar
  6582  3944  3942    1
  6583  3944  3943    1
  6584  5946  5945    1
  6585  4989  4975    1
  6586  3560  3561    1
  6587  3560  3558    1
  6588  6019  6018   ar
  6589  6019  6022   ar
  6590  3481  3480    1
  6591  6924  6927   ar
  6592  5792  5794    1
  6593  5792  5793    1
  6594  5006  5007   ar
  6595  6468  6469   ar
  6596  5880  5878    1
  6597  6470  6469   ar
  6598  3556  3535    2
  6599  5957  5956   ar
  6600  6494  6495   ar
  6601  3886  3884    1
  6602  2874  2888    1
  6603  6929  6928   ar
  6604  5943  5945    1
  6605  5943  5944    1
  6606  3390  3389    1
  6607  7810  7809    1
  6608  7815  7816    1
  6609  7815  7817    1
  6610  5879  5878    1
  6611  3411  3416    1
  6612  8114  8130    1
  6613  6217  6218   ar
  6614  6217  6216   ar
  6615  3887  3888   ar
  6616  6480  6502    1
  6617  5801  5800   ar
  6618  5801  5802   ar
  6619  3460  3466   ar
  6620  3460  3461   ar
  6621  6909  6930    2
  6622  6909  6931    1
  6623  3945  3946    1
  6624  3945  3943    1
  6625  6218  6212   ar
  6626  4623  4622    1
  6627  4622  4624    1
  6628  8135  8133    1
  6629  8135  8137    1
  6630  3466  3465   ar
  6631  4631  4630    1
  6632  4631  4632   ar
  6633  6041  6043   ar
  6634  6041  6042    1
  6635  4634  4632   ar
  6636  3517  3516    1
  6637  6029  6027    1
  6638  6454  6452   ar
  6639  4992  4990    1
  6640  4992  4993    1
  6641  6452  6453    2
  6642  5008  5007   ar
  6643  5008  4998    1
  6644  5843  5845   ar
  6645  8131  8133    1
  6646  8131  8132    1
  6647  8224  8225    1
  6648  8224  8222    1
  6649  6207  6206    1
  6650  6819  6840    2
  6651  6819  6841    1
  6652  6018  6024   ar
  6653  3902  3901    1
  6654  3902  3900    1
  6655  3444  3437   ar
  6656  3444  3443   ar
  6657  3473  3478    1
  6658  4630  4628    1
  6659  5892  5891   ar
  6660  6842  6864    2
  6661  6842  6863    1
  6662  5878  5876    1
  6663  4632  4633    2
  6664  6917  6916    1
  6665  5831  5809    2
  6666  8227  8226    2
  6667  3960  3942    1
  6668  7806  7788    2
  6669  3516  3518    1
  6670  3392  3391    1
  6671  3942  3926    1
  6672  8225  8226   ar
  6673  8225  8232   ar
  6674  5944  5961    1
  6675  5800  5799   ar
  6676  6204  6206    1
  6677  6204  6205    1
  6678  7825  7824    2
  6679  7809  7811    1
  6680  4998  4993    1
  6681  3940  3920    2
  6682  5825  5824   ar
  6683  5825  5819   ar
  6684  8226  8228   ar
  6685  5895  5913    2
  6686  5895  5914    1
  6687  3457  3462   ar
  6688  3901  3903    1
  6689  6490  6496   ar
  6690  5794  5795    1
  6691  3437  3438   ar
  6692  3477  3476    1
  6693  5998  5993   ar
  6694  5998  5997   ar
  6695  5793  5809    1
  6696  3882  3884    1
  6697  3882  3883    1
  6698  8232  8231   ar
  6699  3934  3937   ar
  6700  3934  3933   ar
  6701  3498  3497    1
  6702  4624  4626    1
  6703  6216  6213   ar
  6704  3918  3900    2
  6705  3476  3478    1
  6706  5827  5824   ar
  6707  5827  5828   ar
  6708  3931  3932   ar
  6709  7824  7818   ar
  6710  7824  7823   ar
  6711  3550  3549   ar
  6712  3550  3545   ar
  6713  5952  5951   ar
  6714  5952  5953   ar
  6715  6022  6023   ar
  6716  3416  3417    1
  6717  8130  8132    1
  6718  8130  8148    1
  6719  7811  7812    1
  6720  8228  8229   ar
  6721  5956  5953   ar
  6722  8216  8218    1
  6723  8216  8217    1
  6724  7818  7819   ar
  6725  6914  6916    1
  6726  6914  6915    1
  6727  7826  7823   ar
  6728  7826  7827   ar
  6729  6457  6438    2
  6730  8231  8229   ar
  6731  7823  7822   ar
  6732  6212  6213   ar
  6733  6212  6211   ar
  6734  3552  3549   ar
  6735  3552  3553   ar
  6736  5803  5802    1
  6737  3937  3938   ar
  6738  8215  8234    2
  6739  8215  8217    1
  6740  8215  8233    1
  6741  8218  8220    1
  6742  8229  8230    1
  6743  3482  3480   ar
  6744  3482  3483   ar
  6745  6499  6498   ar
  6746  3480  3479   ar
  6747  8133  8134    1
  6748  3890  3888   ar
  6749  5847  5850   ar
  6750  5847  5846   ar
  6751  5993  5994   ar
  6752  5951  5949   ar
  6753  7819  7820    1
  6754  7819  7821   ar
  6755  7827  7828   ar
  6756  3555  3535    1
  6757  7822  7821   ar
  6758  7822  7828   ar
  6759  6438  6456    1
  6760  6438  6422    1
  6761  7786  7768    2
  6762  3495  3497    1
  6763  3495  3496    1
  6764  6915  6932    1
  6765  5802  5797   ar
  6766  3888  3889    1
  6767  3903  3904    1
  6768  3903  3905    1
  6769  6495  6496   ar
  6770  6495  6498   ar
  6771  7794  7793    1
  6772  7807  7788    1
  6773  3443  3441   ar
  6774  3497  3499    1
  6775  5865  5872   ar
  6776  5865  5864    1
  6777  7828  7817    1
  6778  6213  6214   ar
  6779  3549  3548   ar
  6780  6211  6210   ar
  6781  7787  7768    1
  6782  3535  3537    1
  6783  3535  3521    1
  6784  5871  5872   ar
  6785  6205  6221    1
  6786  3545  3546   ar
  6787  5824  5823   ar
  6788  6927  6928   ar
  6789  3884  3885    1
  6790  5953  5954   ar
  6791  8137  8138    1
  6792  8137  8139    1
  6793  3541  3540    1
  6794  3461  3462   ar
  6795  3461  3464   ar
  6796  7817  7812    1
  6797  3465  3464   ar
  6798  7788  7790    1
  6799  7788  7774    1
  6800  3389  3391    1
  6801  3389  3387    1
  6802  3478  3489    1
  6803  3900  3883    1
  6804  3900  3919    1
  6805  6024  6023   ar
  6806  6024  6014    1
  6807  5819  5820   ar
  6808  6496  6497    2
  6809  3391  3393    1
  6810  3906  3920    1
  6811  3906  3905    1
  6812  5809  5830    1
  6813  5809  5811    1
  6814  8223  8222    1
  6815  6045  6027    2
  6816  3933  3932   ar
  6817  3933  3939   ar
  6818  6424  6423    1
  6819  4975  4974    1
  6820  3941  3920    1
  6821  3462  3463    1
  6822  3553  3554   ar
  6823  6000  5997   ar
  6824  6000  6001   ar
  6825  5997  5996   ar
  6826  5845  5846   ar
  6827  4988  4969    2
  6828  2888  2910    2
  6829  2888  2909    1
  6830  2888  2890    1
  6831  6012  6013    1
  6832  6012  6014    1
  6833  6012  6010    1
  6834  5850  5851   ar
  6835  3920  3922    1
  6836  7790  7789    1
  6837  6027  6046    1
  6838  6027  6011    1
  6839  5982  5961    2
  6840  3438  3439    2
  6841  3438  3440   ar
  6842  5828  5829   ar
  6843  3531  3532   ar
  6844  3531  3529   ar
  6845  5977  5976    1
  6846  4984  4983    1
  6847  5799  5798   ar
  6848  8222  8220    1
  6849  2906  2907   ar
  6850  2906  2903   ar
  6851  3511  3510   ar
  6852  3511  3512   ar
  6853  3904  3909    1
  6854  3540  3542    1
  6855  3540  3538    1
  6856  2892  2897    1
  6857  2892  2891    1
  6858  2905  2904    2
  6859  4987  4969    1
  6860  3510  3507   ar
  6861  7793  7795    1
  6862  7793  7791    1
  6863  6210  6209   ar
  6864  5862  5864    1
  6865  5862  5863    1
  6866  5862  5860    1
  6867  3417  3424   ar
  6868  3417  3418   ar
  6869  5949  5950    1
  6870  5949  5948   ar
  6871  3938  3939   ar
  6872  5846  5852   ar
  6873  6214  6209   ar
  6874  6214  6215    1
  6875  5864  5859    1
  6876  7768  7770    1
  6877  7768  7751    1
  6878  2907  2908   ar
  6879  4628  4626    1
  6880  4628  4629    1
  6881  3479  3485   ar
  6882  4968  4946    2
  6883  5876  5877    1
  6884  3483  3489   ar
  6885  3483  3484   ar
  6886  2889  2890    1
  6887  2889  2891    1
  6888  3518  3520    1
  6889  3518  3519    1
  6890  3537  3536    1
  6891  5961  5981    1
  6892  5961  5963    1
  6893  4626  4627    1
  6894  3536  3538    1
  6895  3548  3554   ar
  6896  3548  3547   ar
  6897  2903  2904   ar
  6898  2903  2902   ar
  6899  3546  3547   ar
  6900  2904  2898   ar
  6901  5994  5995   ar
  6902  3926  3925    1
  6903  3496  3501    1
  6904  3419  3418    2
  6905  3532  3525   ar
  6906  4944  4924    2
  6907  3905  3907    1
  6908  6014  6009    1
  6909  8147  8146   ar
  6910  8147  8140   ar
  6911  3441  3440   ar
  6912  3441  3442    2
  6913  8220  8221    1
  6914  3424  3423   ar
  6915  4922  4902    2
  6916  3387  3385    1
  6917  3387  3388    1
  6918  3521  3520    1
  6919  4983  4985   ar
  6920  4983  4982   ar
  6921  5954  5948   ar
  6922  5954  5955    2
  6923  5797  5798   ar
  6924  3489  3488   ar
  6925  8146  8144   ar
  6926  3939  3929    1
  6927  3530  3529    2
  6928  5978  5979   ar
  6929  5978  5975   ar
  6930  4967  4946    1
  6931  4969  4971    1
  6932  4969  4952    1
  6933  8134  8139    1
  6934  2908  2902   ar
  6935  2908  2897    1
  6936  3554  3544    1
  6937  4985  4986   ar
  6938  4971  4970    1
  6939  4974  4976    1
  6940  4974  4972    1
  6941  6423  6421    1
  6942  6423  6425    1
  6943  6427  6428   ar
  6944  6427  6426   ar
  6945  2902  2901   ar
  6946  3520  3522    1
  6947  6422  6421    1
  6948  2898  2899   ar
  6949  3418  3420   ar
  6950  3908  3907    1
  6951  3925  3927    1
  6952  3925  3923    1
  6953  4945  4924    1
  6954  4900  4879    2
  6955  6010  6011    1
  6956  6010  6008    1
  6957  5823  5829   ar
  6958  5823  5822   ar
  6959  8139  8140    1
  6960  3529  3528   ar
  6961  3542  3544    1
  6962  3542  3543    1
  6963  2897  2895    1
  6964  6428  6429   ar
  6965  7795  7796    1
  6966  7795  7797    1
  6967  6932  6953    2
  6968  6932  6954    1
  6969  6932  6934    1
  6970  3909  3907    1
  6971  3909  3910    1
  6972  5811  5810    1
  6973  3927  3929    1
  6974  3927  3928    1
  6975  8140  8141   ar
  6976  2891  2893    1
  6977  3499  3501    1
  6978  3499  3500    1
  6979  5877  5875    1
  6980  7766  7745    2
  6981  7789  7791    1
  6982  3538  3539    1
  6983  4982  4980   ar
  6984  4657  4656    1
  6985  6001  6002   ar
  6986  5996  5995   ar
  6987  5996  6002   ar
  6988  3512  3501    1
  6989  3512  3506   ar
  6990  5820  5822   ar
  6991  5820  5821    1
  6992  2901  2899   ar
  6993  2899  2900    1
  6994  5976  5975   ar
  6995  5976  5971   ar
  6996  6221  6243    2
  6997  6221  6242    1
  6998  6221  6223    1
  6999  5829  5818    1
  7000  7774  7773    1
  7001  3519  3524    1
  7002  8144  8145    1
  7003  8144  8143   ar
  7004  3385  3386    1
  7005  3396  3395    1
  7006  5851  5852   ar
  7007  4946  4930    1
  7008  4946  4948    1
  7009  4986  4979   ar
  7010  4976  4977    1
  7011  4976  4978    1
  7012  3507  3508   ar
  7013  3507  3506   ar
  7014  3393  3388    1
  7015  3393  3404    1
  7016  7791  7792    1
  7017  7770  7769    1
  7018  5979  5980   ar
  7019  3484  3485   ar
  7020  3484  3487   ar
  7021  3485  3486    2
  7022  5975  5974   ar
  7023  5852  5841    1
  7024  4831  4830    1
  7025  7751  7750    1
  7026  4924  4926    1
  7027  4924  4908    1
  7028  5963  5962    1
  7029  6421  6419    1
  7030  3922  3921    1
  7031  3509  3508    2
  7032  6426  6431   ar
  7033  5860  5861    1
  7034  5860  5858    1
  7035  8141  8143   ar
  7036  8141  8142    2
  7037  3423  3421   ar
  7038  4627  4641    1
  7039  7804  7805   ar
  7040  7804  7802   ar
  7041  3544  3539    1
  7042  3397  3395   ar
  7043  3397  3398   ar
  7044  5859  5858    1
  7045  8221  8235    1
  7046  4980  4979   ar
  7047  4980  4981    2
  7048  4923  4902    1
  7049  3929  3924    1
  7050  6933  6934    1
  7051  6933  6935    1
  7052  4656  4651   ar
  7053  4656  4655   ar
  7054  4662  4641    2
  7055  7805  7798   ar
  7056  7803  7802    1
  7057  7746  7747    1
  7058  7746  7748    1
  7059  3525  3524    1
  7060  3525  3526   ar
  7061  4979  4978    1
  7062  6223  6222    1
  7063  7769  7771    1
  7064  3488  3487   ar
  7065  6002  5992    1
  7066  4970  4972    1
  7067  4902  4885    1
  7068  4902  4904    1
  7069  7802  7801   ar
  7070  7773  7771    1
  7071  7773  7775    1
  7072  3420  3421   ar
  7073  3508  3502   ar
  7074  3506  3505   ar
  7075  4658  4655   ar
  7076  4658  4659   ar
  7077  6004  5983    2
  7078  3395  3394   ar
  7079  6009  6008    1
  7080  4651  4652   ar
  7081  5861  5875    1
  7082  6425  6435    1
  7083  6425  6420    1
  7084  4762  4761    1
  7085  7767  7745    1
  7086  4972  4973    1
  7087  4655  4654   ar
  7088  6429  6435   ar
  7089  6429  6430   ar
  7090  4901  4879    1
  7091  7798  7797    1
  7092  7798  7799   ar
  7093  5971  5972   ar
  7094  4879  4881    1
  7095  4879  4865    1
  7096  3528  3526   ar
  7097  7745  7747    1
  7098  7745  7731    1
  7099  7801  7799   ar
  7100  6936  6935    1
  7101  6936  6941    1
  7102  3524  3522    1
  7103  3421  3422    1
  7104  3910  3917   ar
  7105  3910  3911   ar
  7106  3923  3921    1
  7107  3923  3924    1
  7108  7797  7792    1
  7109  8252  8251    2
  7110  4930  4929    1
  7111  6008  6006    1
  7112  3405  3384    2
  7113  3404  3398   ar
  7114  3404  3403   ar
  7115  3522  3523    1
  7116  8251  8245   ar
  7117  8251  8250   ar
  7118  8245  8246   ar
  7119  7799  7800    2
  7120  4952  4951    1
  7121  4948  4947    1
  7122  3386  3384    1
  7123  4978  4973    1
  7124  2893  2895    1
  7125  2893  2894    1
  7126  3398  3399   ar
  7127  8247  8246    1
  7128  7750  7748    1
  7129  7750  7752    1
  7130  8246  8248   ar
  7131  4659  4660   ar
  7132  2895  2896    1
  7133  8250  8253   ar
  7134  8250  8249   ar
  7135  5810  5812    1
  7136  6026  6005    2
  7137  8253  8254   ar
  7138  5858  5856    1
  7139  4830  4825   ar
  7140  4830  4829   ar
  7141  5813  5818    1
  7142  5813  5812    1
  7143  4926  4925    1
  7144  8248  8249   ar
  7145  8249  8255   ar
  7146  6419  6420    1
  7147  6419  6417    1
  7148  4652  4653   ar
  7149  5818  5816    1
  7150  5875  5894    2
  7151  5875  5893    1
  7152  4885  4884    1
  7153  8254  8255   ar
  7154  3912  3911    2
  7155  6435  6434   ar
  7156  8255  8244    1
  7157  5980  5974   ar
  7158  5980  5970    1
  7159  4641  4643    1
  7160  4641  4661    1
  7161  7771  7772    1
  7162  5974  5973   ar
  7163  6935  6937    1
  7164  4908  4907    1
  7165  6431  6430   ar
  7166  6431  6432    1
  7167  4654  4660   ar
  7168  4654  4653   ar
  7169  3917  3916   ar
  7170  3526  3527    2
  7171  6007  6006    1
  7172  6007  6005    1
  7173  7748  7749    1
  7174  4825  4826   ar
  7175  8244  8239    1
  7176  8244  8242    1
  7177  8239  8238    1
  7178  5841  5839    1
  7179  5841  5836    1
  7180  4925  4927    1
  7181  7743  7725    2
  7182  4660  4650    1
  7183  5962  5964    1
  7184  4963  4962    2
  7185  4781  4780    1
  7186  4947  4949    1
  7187  6430  6433   ar
  7188  4951  4949    1
  7189  4951  4953    1
  7190  4880  4881    1
  7191  4880  4882    1
  7192  3911  3913   ar
  7193  3394  3400   ar
  7194  7775  7776    1
  7195  7775  7777    1
  7196  3505  3503   ar
  7197  3502  3503   ar
  7198  4761  4763   ar
  7199  4761  4760   ar
  7200  4904  4903    1
  7201  4865  4864    1
  7202  4929  4927    1
  7203  4929  4931    1
  7204  7784  7785   ar
  7205  7784  7782   ar
  7206  6951  6950   ar
  7207  6951  6952   ar
  7208  4964  4965   ar
  7209  4964  4961   ar
  7210  5965  5970    1
  7211  5965  5964    1
  7212  7785  7778   ar
  7213  6222  6224    1
  7214  5992  5990    1
  7215  5992  5987    1
  7216  6225  6224    1
  7217  6225  6230    1
  7218  8235  8257    2
  7219  8235  8237    1
  7220  8235  8256    1
  7221  4903  4905    1
  7222  4645  4650    1
  7223  4645  4644    1
  7224  3384  3367    1
  7225  3384  3406    1
  7226  5812  5814    1
  7227  2919  2918    1
  7228  5972  5973   ar
  7229  5985  5983    1
  7230  5985  5984    1
  7231  5983  6003    1
  7232  5983  5967    1
  7233  4738  4739   ar
  7234  4738  4743   ar
  7235  3167  3166    1
  7236  3403  3402   ar
  7237  5839  5840    1
  7238  5839  5837    1
  7239  4739  4740   ar
  7240  5854  5832    2
  7241  4763  4764   ar
  7242  8237  8236    1
  7243  5990  5988    1
  7244  5990  5991    1
  7245  4829  4832   ar
  7246  4829  4828   ar
  7247  6941  6952    1
  7248  6941  6939    1
  7249  4678  4677    1
  7250  6950  6947   ar
  7251  4643  4642    1
  7252  4832  4833   ar
  7253  6239  6240   ar
  7254  6239  6236   ar
  7255  6005  5989    1
  7256  6005  6025    1
  7257  3399  3400   ar
  7258  3399  3402   ar
  7259  4962  4961   ar
  7260  4962  4956   ar
  7261  4650  4648    1
  7262  6240  6241   ar
  7263  5814  5816    1
  7264  5814  5815    1
  7265  7731  7730    1
  7266  2894  2911    1
  7267  4907  4905    1
  7268  4907  4909    1
  7269  6952  6946   ar
  7270  3503  3504    1
  7271  4965  4966   ar
  7272  5988  5989    1
  7273  5988  5986    1
  7274  4961  4960   ar
  7275  5966  5964    1
  7276  5966  5968    1
  7277  5966  5967    1
  7278  4884  4882    1
  7279  4884  4886    1
  7280  4785  4784    2
  7281  5816  5817    1
  7282  5857  5856    1
  7283  5857  5855    1
  7284  5970  5968    1
  7285  6434  6433   ar
  7286  7744  7725    1
  7287  2954  2933    2
  7288  4826  4827   ar
  7289  6417  6418    1
  7290  7772  7777    1
  7291  4758  4757    1
  7292  7753  7752    1
  7293  4949  4950    1
  7294  5836  5835    1
  7295  4927  4928    1
  7296  3916  3914   ar
  7297  4760  4766   ar
  7298  7752  7754    1
  7299  3400  3401    2
  7300  8243  8242    1
  7301  6238  6237    2
  7302  5987  5986    1
  7303  2913  2912    1
  7304  2913  2911    1
  7305  7783  7782    1
  7306  7782  7781   ar
  7307  6224  6226    1
  7308  3166  3168   ar
  7309  3166  3165   ar
  7310  4882  4883    1
  7311  7778  7777    1
  7312  7778  7779   ar
  7313  2917  2933    1
  7314  2917  2916    1
  7315  6236  6237   ar
  7316  6236  6235   ar
  7317  6947  6946   ar
  7318  6947  6948   ar
  7319  6241  6230    1
  7320  6241  6235   ar
  7321  7725  7711    1
  7322  7725  7727    1
  7323  2914  2915    1
  7324  2914  2912    1
  7325  2914  2916    1
  7326  8242  8240    1
  7327  4953  4955    1
  7328  4953  4954    1
  7329  3369  3368    1
  7330  6946  6945   ar
  7331  4722  4721    2
  7332  4956  4957   ar
  7333  5968  5969    1
  7334  4905  4906    1
  7335  3913  3914   ar
  7336  6237  6231   ar
  7337  7749  7754    1
  7338  8238  8236    1
  7339  8238  8240    1
  7340  6418  6416    1
  7341  6937  6939    1
  7342  6937  6938    1
  7343  6230  6228    1
  7344  3367  3366    1
  7345  3168  3169   ar
  7346  4642  4644    1
  7347  3373  3372    1
  7348  4860  4861    1
  7349  4860  4862    1
  7350  4780  4782    1
  7351  4780  4778    1
  7352  2915  2920    1
  7353  6235  6234   ar
  7354  4966  4960   ar
  7355  4966  4955    1
  7356  5837  5835    1
  7357  5837  5838    1
  7358  4677  4676   ar
  7359  4677  4679   ar
  7360  4960  4959   ar
  7361  4740  4741   ar
  7362  4942  4941   ar
  7363  4942  4943   ar
  7364  3165  3163   ar
  7365  4715  4721   ar
  7366  4715  4716   ar
  7367  4931  4932    1
  7368  4931  4933    1
  7369  4828  4827   ar
  7370  4828  4834   ar
  7371  4744  4743    1
  7372  4941  4938   ar
  7373  4743  4742   ar
  7374  4717  4716    1
  7375  4764  4770   ar
  7376  4764  4765   ar
  7377  4813  4793    2
  7378  4782  4777    1
  7379  4782  4783    1
  7380  3119  3118   ar
  7381  3119  3120   ar
  7382  4864  4862    1
  7383  4864  4866    1
  7384  5984  5986    1
  7385  4759  4757    1
  7386  4759  4770    1
  7387  4759  4754    1
  7388  6948  6949    2
  7389  6948  6942   ar
  7390  4833  4834   ar
  7391  5834  5832    1
  7392  5834  5833    1
  7393  4644  4646    1
  7394  3914  3915    1
  7395  4699  4698    1
  7396  3118  3123   ar
  7397  6945  6943   ar
  7398  4676  4674   ar
  7399  2918  2916    1
  7400  2918  2920    1
  7401  5874  5855    2
  7402  6939  6940    1
  7403  5832  5815    1
  7404  5832  5853    1
  7405  7781  7779   ar
  7406  2911  2931    2
  7407  2911  2932    1
  7408  6231  6232   ar
  7409  4861  4859    1
  7410  4950  4955    1
  7411  7779  7780    2
  7412  2933  2935    1
  7413  2933  2955    1
  7414  4862  4863    1
  7415  4784  4783   ar
  7416  4784  4786   ar
  7417  2920  2930    1
  7418  4957  4959   ar
  7419  4957  4958    1
  7420  6234  6232   ar
  7421  4757  4755    1
  7422  7723  7705    2
  7423  6938  6955    1
  7424  7754  7765    1
  7425  3169  3162   ar
  7426  7730  7728    1
  7427  7730  7732    1
  7428  3368  3366    1
  7429  3368  3370    1
  7430  4909  4910    1
  7431  4909  4911    1
  7432  4721  4720   ar
  7433  4766  4765   ar
  7434  4766  4767    2
  7435  2934  2935    1
  7436  2934  2936    1
  7437  4928  4933    1
  7438  5835  5833    1
  7439  4693  4698   ar
  7440  4693  4694   ar
  7441  6232  6233    1
  7442  4679  4680   ar
  7443  4887  4886    1
  7444  4779  4793    1
  7445  4779  4778    1
  7446  4770  4769   ar
  7447  4886  4888    1
  7448  6942  6943   ar
  7449  3163  3162   ar
  7450  3163  3164    2
  7451  8240  8241    1
  7452  6943  6944    1
  7453  7764  7765   ar
  7454  7764  7763   ar
  7455  7711  7710    1
  7456  5855  5838    1
  7457  5855  5873    1
  7458  7727  7726    1
  7459  6259  6258    1
  7460  4648  4646    1
  7461  4648  4649    1
  7462  4777  4776    1
  7463  8275  8274    2
  7464  4877  4859    2
  7465  4716  4718   ar
  7466  4814  4793    1
  7467  4834  4824    1
  7468  7726  7728    1
  7469  3372  3374   ar
  7470  3372  3371   ar
  7471  4943  4933    1
  7472  4943  4937   ar
  7473  4823  4822    1
  7474  4765  4768   ar
  7475  4754  4753    1
  7476  4783  4790   ar
  7477  3162  3161    1
  7478  3366  3364    1
  7479  3141  3142   ar
  7480  3141  3140   ar
  7481  4793  4795    1
  7482  6436  6416    2
  7483  4883  4888    1
  7484  7765  7759   ar
  7485  4920  4919   ar
  7486  4920  4921   ar
  7487  3120  3121   ar
  7488  3374  3375   ar
  7489  4938  4937   ar
  7490  4938  4939   ar
  7491  8274  8268   ar
  7492  8274  8273   ar
  7493  4867  4866    1
  7494  6226  6228    1
  7495  6226  6227    1
  7496  4698  4697   ar
  7497  4778  4776    1
  7498  4741  4742   ar
  7499  4741  4747   ar
  7500  4906  4911    1
  7501  4646  4647    1
  7502  6416  6437    1
  7503  6416  6402    1
  7504  8268  8269   ar
  7505  3142  3143   ar
  7506  4674  4675    2
  7507  4674  4673   ar
  7508  4742  4745   ar
  7509  4786  4787   ar
  7510  4940  4939    1
  7511  7763  7760   ar
  7512  4835  4815    2
  7513  7728  7729    1
  7514  4866  4868    1
  7515  8276  8273   ar
  7516  8276  8277   ar
  7517  8273  8272   ar
  7518  6228  6229    1
  7519  3138  3137    1
  7520  4776  4774    1
  7521  3123  3124    1
  7522  3123  3122   ar
  7523  4919  4916   ar
  7524  4859  4878    1
  7525  4859  4843    1
  7526  8269  8270    1
  7527  8269  8271   ar
  7528  3371  3377   ar
  7529  4694  4695   ar
  7530  4822  4824    1
  7531  4822  4820    1
  7532  3156  3161    1
  7533  3156  3155    1
  7534  7733  7732    1
  7535  4937  4936   ar
  7536  4680  4673   ar
  7537  7732  7734    1
  7538  8272  8271   ar
  7539  8272  8278   ar
  7540  8277  8278   ar
  7541  4838  4840    1
  7542  4838  4839    1
  7543  4939  4934   ar
  7544  4911  4921    1
  7545  3161  3159    1
  7546  2936  2937    1
  7547  2936  2938    1
  7548  4888  4899    1
  7549  7759  7760   ar
  7550  7759  7758   ar
  7551  4769  4768   ar
  7552  8278  8267    1
  7553  6258  6260   ar
  7554  6258  6257   ar
  7555  4921  4915   ar
  7556  3187  3186    2
  7557  6411  6410    1
  7558  2930  2924   ar
  7559  2930  2929   ar
  7560  4673  4672    1
  7561  4753  4755    1
  7562  4753  4751    1
  7563  3140  3145   ar
  7564  7706  7707    1
  7565  7706  7708    1
  7566  7760  7761   ar
  7567  7705  7707    1
  7568  7705  7724    1
  7569  7705  7689    1
  7570  4755  4756    1
  7571  6227  6244    1
  7572  4898  4899   ar
  7573  4898  4897   ar
  7574  4863  4868    1
  7575  4824  4819    1
  7576  3370  3381    1
  7577  3370  3365    1
  7578  3375  3381   ar
  7579  3375  3376   ar
  7580  8241  8258    1
  7581  4720  4719   ar
  7582  4720  4723   ar
  7583  6409  6410   ar
  7584  6409  6407   ar
  7585  6955  6976    2
  7586  6955  6975    1
  7587  6955  6957    1
  7588  7710  7708    1
  7589  7710  7712    1
  7590  8262  8267    1
  7591  8262  8261    1
  7592  4840  4841    1
  7593  4840  4842    1
  7594  6404  6403    1
  7595  8267  8265    1
  7596  3121  3122   ar
  7597  3121  3127   ar
  7598  4718  4719   ar
  7599  2923  2924   ar
  7600  2923  2922   ar
  7601  6410  6412   ar
  7602  6260  6261   ar
  7603  4790  4789   ar
  7604  3364  3365    1
  7605  3364  3362    1
  7606  7758  7756   ar
  7607  4839  4837    1
  7608  2937  2942    1
  7609  4799  4815    1
  7610  4799  4798    1
  7611  6403  6401    1
  7612  6403  6405    1
  7613  4756  4773    1
  7614  4899  4893   ar
  7615  6408  6407    2
  7616  4736  4735    1
  7617  4747  4737    1
  7618  4747  4746   ar
  7619  6257  6255   ar
  7620  3139  3137    1
  7621  3139  3134    1
  7622  3139  3149    1
  7623  3122  3125   ar
  7624  4697  4700   ar
  7625  4697  4696   ar
  7626  4916  4915   ar
  7627  4916  4917   ar
  7628  6402  6401    1
  7629  6407  6406   ar
  7630  3377  3376   ar
  7631  3377  3378    2
  7632  6263  6244    2
  7633  3381  3380   ar
  7634  3143  3149   ar
  7635  3143  3144   ar
  7636  4936  4935   ar
  7637  4787  4789   ar
  7638  4787  4788    2
  7639  7708  7709    1
  7640  4868  4869    1
  7641  4745  4746   ar
  7642  4934  4935   ar
  7643  3137  3135    1
  7644  2924  2925   ar
  7645  2978  2956    2
  7646  4796  4797    1
  7647  4796  4794    1
  7648  4796  4798    1
  7649  4647  4663    1
  7650  4815  4817    1
  7651  4815  4836    1
  7652  4897  4894   ar
  7653  4795  4794    1
  7654  7761  7762    2
  7655  7761  7755   ar
  7656  2929  2928   ar
  7657  4915  4914   ar
  7658  3186  3185   ar
  7659  3186  3188   ar
  7660  3376  3379   ar
  7661  4797  4802    1
  7662  4719  4725   ar
  7663  4737  4735    1
  7664  4737  4732    1
  7665  3355  3354    1
  7666  7729  7734    1
  7667  4695  4696   ar
  7668  6412  6413   ar
  7669  4876  4869   ar
  7670  4876  4875   ar
  7671  4841  4846    1
  7672  4667  4672    1
  7673  4667  4666    1
  7674  4843  4842    1
  7675  7689  7688    1
  7676  4672  4670    1
  7677  6401  6399    1
  7678  2939  2938    1
  7679  2939  2956    1
  7680  4774  4775    1
  7681  4665  4663    1
  7682  4665  4664    1
  7683  6957  6956    1
  7684  3153  3155    1
  7685  3153  3154    1
  7686  3155  3157    1
  7687  7756  7755   ar
  7688  7756  7757    1
  7689  3185  3183   ar
  7690  4805  4804   ar
  7691  4805  4806   ar
  7692  6972  6973   ar
  7693  6972  6969   ar
  7694  4735  4733    1
  7695  4723  4724   ar
  7696  4820  4821    1
  7697  4820  4818    1
  7698  7734  7735    1
  7699  3134  3133    1
  7700  6973  6974   ar
  7701  6406  6413   ar
  7702  6406  6405    1
  7703  6244  6262    1
  7704  6244  6246    1
  7705  2938  2940    1
  7706  7713  7712    1
  7707  4775  4773    1
  7708  7742  7741   ar
  7709  7742  7735   ar
  7710  4819  4818    1
  7711  4918  4917    1
  7712  4804  4803   ar
  7713  3149  3148   ar
  7714  3349  3354   ar
  7715  3349  3350   ar
  7716  4817  4816    1
  7717  4700  4701   ar
  7718  4842  4844    1
  7719  4696  4702   ar
  7720  2922  2921   ar
  7721  4917  4912   ar
  7722  3145  3144   ar
  7723  3145  3146    1
  7724  4869  4870   ar
  7725  4682  4663    2
  7726  7741  7739   ar
  7727  7712  7714    1
  7728  7735  7736   ar
  7729  4751  4752    1
  7730  6261  6254   ar
  7731  4821  4837    1
  7732  3362  3363    1
  7733  3159  3160    1
  7734  3159  3157    1
  7735  2977  2956    1
  7736  3127  3117    1
  7737  3127  3126   ar
  7738  4802  4812    1
  7739  4802  4800    1
  7740  4893  4894   ar
  7741  4893  4892   ar
  7742  4798  4800    1
  7743  2956  2958    1
  7744  4875  4873   ar
  7745  3116  3115    1
  7746  8280  8258    2
  7747  3380  3379   ar
  7748  6959  6964    1
  7749  6959  6958    1
  7750  6255  6254   ar
  7751  6255  6256    2
  7752  6405  6400    1
  7753  8258  8260    1
  7754  8258  8279    1
  7755  8261  8259    1
  7756  8261  8263    1
  7757  4894  4895   ar
  7758  3354  3353   ar
  7759  8260  8259    1
  7760  3144  3147   ar
  7761  4663  4681    1
  7762  3188  3189   ar
  7763  3117  3115    1
  7764  3117  3112    1
  7765  4914  4913   ar
  7766  7739  7740    1
  7767  7739  7738   ar
  7768  7736  7737    2
  7769  7736  7738   ar
  7770  4837  4858    2
  7771  4837  4857    1
  7772  4773  4792    2
  7773  4773  4791    1
  7774  3125  3126   ar
  7775  6971  6970    1
  7776  8296  8295    2
  7777  8265  8266    1
  7778  8265  8263    1
  7779  3133  3135    1
  7780  3133  3131    1
  7781  6969  6970   ar
  7782  6969  6968   ar
  7783  6974  6964    1
  7784  6974  6968   ar
  7785  2942  2940    1
  7786  2942  2953    1
  7787  4664  4666    1
  7788  2925  2928   ar
  7789  2925  2926   ar
  7790  3183  3184    2
  7791  3183  3182   ar
  7792  6254  6253    1
  7793  4806  4812   ar
  7794  4806  4807   ar
  7795  3135  3136    1
  7796  4818  4816    1
  7797  3136  3152    1
  7798  3350  3351   ar
  7799  4803  4808   ar
  7800  3157  3158    1
  7801  4892  4890   ar
  7802  4846  4844    1
  7803  4846  4856    1
  7804  3115  3113    1
  7805  2952  2953   ar
  7806  2952  2951   ar
  7807  4732  4731    1
  7808  6964  6962    1
  7809  6970  6965   ar
  7810  7709  7714    1
  7811  4812  4811   ar
  7812  6956  6958    1
  7813  4725  4724   ar
  7814  4725  4714    1
  7815  8295  8294   ar
  7816  8295  8297   ar
  7817  3363  3361    1
  7818  4666  4668    1
  7819  4912  4913   ar
  7820  4870  4871    2
  7821  4870  4872   ar
  7822  4752  4750    1
  7823  8294  8292   ar
  7824  6968  6967   ar
  7825  4800  4801    1
  7826  2940  2941    1
  7827  3154  3152    1
  7828  7688  7686    1
  7829  7688  7690    1
  7830  4701  4702   ar
  7831  6415  6396    2
  7832  6391  6390    2
  7833  4873  4872   ar
  7834  4873  4874    2
  7835  3148  3147   ar
  7836  4670  4668    1
  7837  4670  4671    1
  7838  4702  4692    1
  7839  6246  6245    1
  7840  2921  2926   ar
  7841  3189  3182   ar
  7842  2953  2947   ar
  7843  6248  6253    1
  7844  6248  6247    1
  7845  4895  4896    2
  7846  4895  4889   ar
  7847  8263  8264    1
  7848  6399  6400    1
  7849  6399  6397    1
  7850  6958  6960    1
  7851  7691  7690    1
  7852  4844  4845    1
  7853  7714  7715    1
  7854  6398  6396    1
  7855  6398  6397    1
  7856  4733  4734    1
  7857  4733  4731    1
  7858  3207  3206    2
  7859  8297  8298   ar
  7860  3182  3181    1
  7861  3353  3356   ar
  7862  3353  3352   ar
  7863  3112  3111    1
  7864  8292  8293    2
  7865  8292  8291   ar
  7866  7684  7686    1
  7867  7684  7685    1
  7868  7722  7715   ar
  7869  7722  7721   ar
  7870  4807  4808   ar
  7871  4807  4810   ar
  7872  4808  4809    1
  7873  2951  2948   ar
  7874  2926  2927    1
  7875  4890  4889   ar
  7876  4890  4891    1
  7877  6965  6966   ar
  7878  4668  4669    1
  7879  4856  4855   ar
  7880  4856  4850   ar
  7881  7686  7687    1
  7882  6245  6247    1
  7883  6967  6966   ar
  7884  2958  2957    1
  7885  3351  3352   ar
  7886  6253  6251    1
  7887  4734  4750    1
  7888  8298  8291   ar
  7889  7715  7716   ar
  7890  3131  3132    1
  7891  4731  4729    1
  7892  4811  4810   ar
  7893  8291  8290    1
  7894  3152  3171    2
  7895  3152  3170    1
  7896  6396  6414    1
  7897  6396  6382    1
  7898  6390  6392   ar
  7899  6390  6389   ar
  7900  7690  7692    1
  7901  3012  3011   ar
  7902  3012  3013   ar
  7903  7721  7719   ar
  7904  4714  4712    1
  7905  4714  4709    1
  7906  3382  3361    2
  7907  3356  3357   ar
  7908  3158  3172    1
  7909  4855  4854   ar
  7910  3352  3358   ar
  7911  8318  8317    2
  7912  3206  3205   ar
  7913  3206  3208   ar
  7914  6351  6331    2
  7915  7703  7683    2
  7916  3011  3016   ar
  7917  4849  4850   ar
  7918  4849  4848   ar
  7919  3205  3203   ar
  7920  3361  3383    1
  7921  3361  3345    1
  7922  8285  8290    1
  7923  8285  8284    1
  7924  6247  6249    1
  7925  4850  4851   ar
  7926  3113  3111    1
  7927  3113  3114    1
  7928  4750  4772    2
  7929  4750  4771    1
  7930  6962  6963    1
  7931  6962  6960    1
  7932  4692  4690    1
  7933  4692  4687    1
  7934  3181  3176    1
  7935  3181  3179    1
  7936  8311  8317   ar
  7937  8311  8312   ar
  7938  6392  6393   ar
  7939  4712  4713    1
  7940  4712  4710    1
  7941  8290  8288    1
  7942  2947  2948   ar
  7943  2947  2946   ar
  7944  6389  6387   ar
  7945  6329  6309    2
  7946  3013  3014   ar
  7947  3176  3175    1
  7948  6960  6961    1
  7949  8313  8312    1
  7950  7716  7717    2
  7951  7716  7718   ar
  7952  8264  8281    1
  7953  8317  8316   ar
  7954  3111  3109    1
  7955  6395  6376    2
  7956  2974  2975   ar
  7957  2974  2971   ar
  7958  7685  7683    1
  7959  2948  2949   ar
  7960  2957  2959    1
  7961  3360  3339    2
  7962  3132  3130    1
  7963  7719  7718   ar
  7964  7719  7720    1
  7965  6251  6249    1
  7966  6251  6252    1
  7967  4704  4683    2
  7968  3097  3096    1
  7969  8312  8314   ar
  7970  3114  3130    1
  7971  4854  4851   ar
  7972  2975  2976   ar
  7973  3204  3203    2
  7974  4848  4847   ar
  7975  3203  3202   ar
  7976  3357  3358   ar
  7977  4669  4683    1
  7978  7687  7692    1
  7979  4851  4852   ar
  7980  3208  3209   ar
  7981  8336  8335    1
  7982  4730  4729    1
  7983  4730  4728    1
  7984  3174  3172    1
  7985  3174  3173    1
  7986  3358  3348    1
  7987  6375  6353    2
  7988  3191  3172    2
  7989  3016  3017    1
  7990  3016  3015   ar
  7991  3000  2979    2
  7992  4709  4708    1
  7993  4690  4691    1
  7994  4690  4688    1
  7995  4687  4686    1
  7996  6394  6376    1
  7997  2946  2944   ar
  7998  2973  2972    2
  7999  6393  6386   ar
  8000  7683  7704    1
  8001  7683  7667    1
  8002  8316  8315   ar
  8003  8316  8319   ar
  8004  7692  7702    1
  8005  6387  6386   ar
  8006  6387  6388    2
  8007  3346  3344    1
  8008  3346  3347    1
  8009  3346  3348    1
  8010  3243  3242   ar
  8011  3243  3244   ar
  8012  3172  3190    1
  8013  6352  6331    1
  8014  3242  3247   ar
  8015  6249  6250    1
  8016  3014  3015   ar
  8017  3014  3020   ar
  8018  3227  3226    1
  8019  6382  6381    1
  8020  4710  4708    1
  8021  4710  4711    1
  8022  6331  6315    1
  8023  6331  6333    1
  8024  3345  3344    1
  8025  6307  6286    2
  8026  6376  6378    1
  8027  6376  6359    1
  8028  8314  8315   ar
  8029  3009  3008    1
  8030  3225  3226   ar
  8031  3225  3223   ar
  8032  8300  8281    2
  8033  8284  8282    1
  8034  8284  8286    1
  8035  6378  6377    1
  8036  6381  6383    1
  8037  6381  6379    1
  8038  3344  3342    1
  8039  3093  3092    1
  8040  8282  8283    1
  8041  6292  6309    1
  8042  6292  6291    1
  8043  6374  6353    1
  8044  6961  6977    1
  8045  6386  6385    1
  8046  8315  8321   ar
  8047  8319  8320   ar
  8048  6992  6991    1
  8049  3224  3223    2
  8050  3179  3180    1
  8051  3179  3177    1
  8052  2971  2972   ar
  8053  2971  2970   ar
  8054  3015  3018   ar
  8055  4683  4685    1
  8056  4683  4703    1
  8057  4847  4852   ar
  8058  2949  2950    2
  8059  2949  2943   ar
  8060  8335  8334   ar
  8061  8335  8337   ar
  8062  8334  8340   ar
  8063  3130  3150    2
  8064  3130  3151    1
  8065  4852  4853    1
  8066  6309  6330    1
  8067  6309  6311    1
  8068  8281  8283    1
  8069  8281  8299    1
  8070  3202  3209   ar
  8071  3202  3201    1
  8072  3109  3110    1
  8073  3175  3173    1
  8074  3175  3177    1
  8075  8288  8289    1
  8076  8288  8286    1
  8077  3244  3245   ar
  8078  3226  3228   ar
  8079  2972  2966   ar
  8080  2960  2959    1
  8081  2960  2965    1
  8082  2959  2961    1
  8083  6383  6385    1
  8084  6383  6384    1
  8085  3348  3343    1
  8086  3341  3339    1
  8087  3341  3340    1
  8088  6370  6369    2
  8089  3339  3322    1
  8090  3339  3359    1
  8091  3096  3098   ar
  8092  3096  3095   ar
  8093  4749  4728    2
  8094  4685  4684    1
  8095  3223  3222   ar
  8096  3020  3010    1
  8097  3020  3019   ar
  8098  6353  6355    1
  8099  6353  6337    1
  8100  3010  3008    1
  8101  3010  3005    1
  8102  7702  7696   ar
  8103  7702  7701   ar
  8104  3328  3327    1
  8105  3247  3248    1
  8106  3247  3246   ar
  8107  6993  6991   ar
  8108  6993  6994   ar
  8109  6315  6314    1
  8110  4708  4706    1
  8111  7695  7696   ar
  8112  7695  7694   ar
  8113  6310  6311    1
  8114  6310  6312    1
  8115  6991  6990   ar
  8116  4688  4686    1
  8117  4688  4689    1
  8118  3110  3108    1
  8119  2976  2970   ar
  8120  2976  2965    1
  8121  3008  3006    1
  8122  4711  4728    1
  8123  6308  6286    1
  8124  2944  2943   ar
  8125  2944  2945    1
  8126  4728  4748    1
  8127  6996  6977    2
  8128  8320  8321   ar
  8129  6333  6332    1
  8130  8321  8310    1
  8131  8337  8338   ar
  8132  3128  3108    2
  8133  3098  3099   ar
  8134  6291  6293    1
  8135  6291  6289    1
  8136  8341  8340    2
  8137  7696  7697   ar
  8138  7667  7666    1
  8139  4686  4684    1
  8140  8340  8339   ar
  8141  6294  6293    1
  8142  2961  2962    1
  8143  2961  2963    1
  8144  6250  6264    1
  8145  6286  6288    1
  8146  6286  6270    1
  8147  8286  8287    1
  8148  6377  6379    1
  8149  6994  6987   ar
  8150  3177  3178    1
  8151  7701  7700   ar
  8152  6990  6988   ar
  8153  6385  6380    1
  8154  2979  2962    1
  8155  2979  2999    1
  8156  2979  2981    1
  8157  3322  3321    1
  8158  7694  7693   ar
  8159  3290  3289    1
  8160  3245  3246   ar
  8161  3245  3251   ar
  8162  3201  3196    1
  8163  3201  3199    1
  8164  3018  3019   ar
  8165  6369  6368   ar
  8166  6369  6363   ar
  8167  2970  2969   ar
  8168  6379  6380    1
  8169  4706  4707    1
  8170  3266  3265    2
  8171  6371  6368   ar
  8172  6371  6372   ar
  8173  3246  3249   ar
  8174  6355  6354    1
  8175  6977  6979    1
  8176  6977  6995    1
  8177  7669  7668    1
  8178  2965  2963    1
  8179  3228  3229   ar
  8180  6293  6295    1
  8181  3095  3101   ar
  8182  3324  3323    1
  8183  3092  3094    1
  8184  3092  3090    1
  8185  6359  6358    1
  8186  3342  3343    1
  8187  3342  3340    1
  8188  6332  6334    1
  8189  6987  6988   ar
  8190  6987  6986    1
  8191  8310  8305    1
  8192  8310  8308    1
  8193  8338  8339   ar
  8194  8338  8344   ar
  8195  3196  3195    1
  8196  6988  6989    2
  8197  3222  3229   ar
  8198  3222  3221    1
  8199  6312  6314    1
  8200  6312  6313    1
  8201  3108  3091    1
  8202  3108  3129    1
  8203  8339  8342   ar
  8204  6368  6367   ar
  8205  3091  3090    1
  8206  6314  6316    1
  8207  7697  7700   ar
  8208  7697  7698   ar
  8209  3005  3004    1
  8210  3327  3329   ar
  8211  3327  3326   ar
  8212  6981  6986    1
  8213  6981  6980    1
  8214  4727  4705    2
  8215  6337  6336    1
  8216  3329  3330   ar
  8217  6363  6364   ar
  8218  2966  2967   ar
  8219  2980  2981    1
  8220  2980  2982    1
  8221  7668  7666    1
  8222  7668  7670    1
  8223  7014  7013    2
  8224  6358  6360    1
  8225  6358  6356    1
  8226  6287  6288    1
  8227  6287  6289    1
  8228  4689  4705    1
  8229  7693  7698   ar
  8230  6372  6373   ar
  8231  3251  3241    1
  8232  3251  3250   ar
  8233  7666  7664    1
  8234  8305  8304    1
  8235  3265  3267   ar
  8236  3265  3264   ar
  8237  2963  2964    1
  8238  6289  6290    1
  8239  6986  6984    1
  8240  6979  6978    1
  8241  6354  6356    1
  8242  3241  3236    1
  8243  3241  3239    1
  8244  3289  3284   ar
  8245  3289  3288   ar
  8246  7698  7699    1
  8247  6270  6269    1
  8248  3249  3250   ar
  8249  3221  3216    1
  8250  3221  3219    1
  8251  8344  8333    1
  8252  8344  8343   ar
  8253  3099  3105   ar
  8254  3099  3100   ar
  8255  3094  3105    1
  8256  3094  3089    1
  8257  3006  3007    1
  8258  3006  3004    1
  8259  7007  7013   ar
  8260  7007  7008   ar
  8261  3267  3268   ar
  8262  2990  2989   ar
  8263  2990  2991   ar
  8264  8287  8301    1
  8265  8342  8343   ar
  8266  3178  3192    1
  8267  3090  3088    1
  8268  7013  7012   ar
  8269  6367  6373   ar
  8270  6367  6366   ar
  8271  3007  3023    1
  8272  4707  4705    1
  8273  6264  6284    2
  8274  6264  6285    1
  8275  6264  6266    1
  8276  3321  3323    1
  8277  3321  3319    1
  8278  8333  8328    1
  8279  8333  8331    1
  8280  3284  3285   ar
  8281  3263  3264    1
  8282  3263  3258    1
  8283  3263  3261    1
  8284  2969  2967   ar
  8285  3199  3200    1
  8286  3199  3197    1
  8287  6336  6334    1
  8288  6336  6338    1
  8289  8359  8358    2
  8290  4705  4726    1
  8291  3323  3325    1
  8292  3004  3002    1
  8293  3325  3320    1
  8294  3325  3336    1
  8295  6364  6366   ar
  8296  6364  6365    1
  8297  7009  7008    1
  8298  6373  6362    1
  8299  6360  6362    1
  8300  6360  6361    1
  8301  3291  3288   ar
  8302  3291  3292   ar
  8303  3240  3239    1
  8304  3264  3271   ar
  8305  3042  3023    2
  8306  3326  3332   ar
  8307  6334  6335    1
  8308  8308  8309    1
  8309  8308  8306    1
  8310  2967  2968    1
  8311  6978  6980    1
  8312  6356  6357    1
  8313  2989  2994   ar
  8314  2991  2992   ar
  8315  3288  3287   ar
  8316  3236  3235    1
  8317  3258  3257    1
  8318  3262  3261    1
  8319  3101  3100   ar
  8320  3101  3102    2
  8321  8358  8360   ar
  8322  8358  8357   ar
  8323  3105  3104   ar
  8324  7682  7661    2
  8325  8356  8357    1
  8326  8356  8351    1
  8327  8356  8354    1
  8328  7008  7010   ar
  8329  7673  7672   ar
  8330  7673  7674   ar
  8331  7672  7671   ar
  8332  3330  3336   ar
  8333  3330  3331   ar
  8334  6980  6982    1
  8335  6313  6318    1
  8336  6295  6290    1
  8337  6295  6306    1
  8338  3239  3237    1
  8339  6317  6316    1
  8340  3195  3193    1
  8341  3195  3197    1
  8342  6316  6318    1
  8343  8360  8361   ar
  8344  3216  3215    1
  8345  3194  3193    1
  8346  3194  3192    1
  8347  8357  8364   ar
  8348  6305  6306   ar
  8349  6305  6304   ar
  8350  3088  3089    1
  8351  3088  3086    1
  8352  8351  8350    1
  8353  3268  3269    2
  8354  3268  3270   ar
  8355  3219  3220    1
  8356  3219  3217    1
  8357  2982  2983    1
  8358  2982  2984    1
  8359  2983  2988    1
  8360  8328  8327    1
  8361  3211  3192    2
  8362  6265  6266    1
  8363  6265  6267    1
  8364  3100  3103   ar
  8365  7670  7680    1
  8366  7670  7665    1
  8367  8355  8354    1
  8368  6269  6267    1
  8369  6269  6271    1
  8370  3320  3319    1
  8371  7664  7662    1
  8372  7664  7665    1
  8373  8332  8331    1
  8374  7012  7015   ar
  8375  7012  7011   ar
  8376  8303  8301    1
  8377  8303  8302    1
  8378  3336  3335   ar
  8379  3319  3317    1
  8380  7671  7676   ar
  8381  6362  6357    1
  8382  8361  8362    2
  8383  8361  8363   ar
  8384  8323  8301    2
  8385  8364  8363   ar
  8386  7674  7680   ar
  8387  7674  7675   ar
  8388  3261  3259    1
  8389  3285  3286   ar
  8390  8331  8329    1
  8391  3023  3041    1
  8392  3023  3025    1
  8393  3192  3210    1
  8394  3080  3079    1
  8395  3197  3198    1
  8396  8304  8306    1
  8397  8304  8302    1
  8398  3271  3270   ar
  8399  3059  3058    1
  8400  6349  6348   ar
  8401  6349  6350   ar
  8402  3292  3293   ar
  8403  6984  6982    1
  8404  6984  6985    1
  8405  8301  8322    1
  8406  7680  7679   ar
  8407  6306  6300   ar
  8408  7032  7031    1
  8409  3078  3079   ar
  8410  3078  3076   ar
  8411  6335  6340    1
  8412  7010  7011   ar
  8413  7015  7016   ar
  8414  3287  3286   ar
  8415  3287  3293   ar
  8416  6348  6345   ar
  8417  6327  6328   ar
  8418  6327  6326   ar
  8419  8306  8307    1
  8420  2994  2995    1
  8421  2994  2993   ar
  8422  6318  6328    1
  8423  2992  2993   ar
  8424  2992  2998   ar
  8425  6304  6301   ar
  8426  3077  3076    2
  8427  7011  7017   ar
  8428  8354  8352    1
  8429  6267  6268    1
  8430  3332  3331   ar
  8431  3332  3333    2
  8432  7676  7675   ar
  8433  7676  7677    1
  8434  3257  3259    1
  8435  3257  3255    1
  8436  6338  6340    1
  8437  6338  6339    1
  8438  7675  7678   ar
  8439  6982  6983    1
  8440  3002  3003    1
  8441  7662  7663    1
  8442  3331  3334   ar
  8443  3003  3001    1
  8444  3235  3237    1
  8445  3235  3233    1
  8446  3104  3103   ar
  8447  8350  8352    1
  8448  8350  8348    1
  8449  7679  7678   ar
  8450  7030  7031   ar
  8451  7030  7036   ar
  8452  6328  6322   ar
  8453  3079  3081   ar
  8454  3293  3283    1
  8455  7661  7663    1
  8456  7661  7681    1
  8457  7661  7644    1
  8458  2984  2985    1
  8459  2984  2986    1
  8460  6326  6323   ar
  8461  3217  3215    1
  8462  3217  3218    1
  8463  3237  3238    1
  8464  3076  3075   ar
  8465  3215  3213    1
  8466  2993  2996   ar
  8467  6271  6272    1
  8468  6271  6273    1
  8469  6350  6340    1
  8470  6350  6344   ar
  8471  8327  8329    1
  8472  8327  8325    1
  8473  2988  2998    1
  8474  2988  2986    1
  8475  3086  3087    1
  8476  7016  7017   ar
  8477  7031  7033   ar
  8478  3335  3334   ar
  8479  2998  2997   ar
  8480  7037  7036    2
  8481  3259  3260    1
  8482  7017  7006    1
  8483  3198  3212    1
  8484  3255  3256    1
  8485  3025  3024    1
  8486  3021  3001    2
  8487  3317  3318    1
  8488  3058  3053   ar
  8489  3058  3057   ar
  8490  8329  8330    1
  8491  2985  3001    1
  8492  3278  3283    1
  8493  3278  3277    1
  8494  6345  6344   ar
  8495  6345  6346   ar
  8496  6300  6301   ar
  8497  6300  6299   ar
  8498  3213  3214    1
  8499  8371  8370    1
  8500  8371  8376    1
  8501  8352  8353    1
  8502  8348  8349    1
  8503  6301  6302   ar
  8504  6282  6281   ar
  8505  6282  6283   ar
  8506  7036  7035   ar
  8507  8379  8378    1
  8508  3053  3054   ar
  8509  3233  3234    1
  8510  8307  8324    1
  8511  6322  6323   ar
  8512  6322  6321   ar
  8513  6323  6324   ar
  8514  3001  3022    1
  8515  6268  6273    1
  8516  6983  6997    1
  8517  3234  3232    1
  8518  3238  3254    1
  8519  3087  3085    1
  8520  6347  6346    1
  8521  3283  3281    1
  8522  6344  6343   ar
  8523  6281  6278   ar
  8524  3318  3316    1
  8525  7644  7643    1
  8526  8326  8325    1
  8527  8326  8324    1
  8528  2986  2987    1
  8529  8370  8368    1
  8530  8370  8372    1
  8531  3231  3212    2
  8532  8368  8369    1
  8533  3260  3274    1
  8534  8349  8347    1
  8535  2996  2997   ar
  8536  7006  7001    1
  8537  7006  7004    1
  8538  3256  3254    1
  8539  3218  3232    1
  8540  6273  6283    1
  8541  8378  8380   ar
  8542  8378  8377   ar
  8543  8380  8381   ar
  8544  6346  6341   ar
  8545  7019  6997    2
  8546  8353  8367    1
  8547  7001  7000    1
  8548  6283  6277   ar
  8549  8412  8410    1
  8550  3081  3082   ar
  8551  7033  7034   ar
  8552  3275  3277    1
  8553  3275  3276    1
  8554  8346  8324    2
  8555  3214  3212    1
  8556  3024  3026    1
  8557  6299  6297   ar
  8558  3075  3082   ar
  8559  3075  3074    1
  8560  6321  6320   ar
  8561  3057  3060   ar
  8562  3057  3056   ar
  8563  8330  8347    1
  8564  3212  3230    1
  8565  3060  3061   ar
  8566  8394  8393    1
  8567  8394  8399    1
  8568  8376  8387    1
  8569  8376  8374    1
  8570  7059  7058    1
  8571  8411  8410    1
  8572  8324  8345    1
  8573  8377  8383   ar
  8574  3277  3279    1
  8575  8410  8396    1
  8576  7053  7058   ar
  8577  7053  7054   ar
  8578  6324  6325    1
  8579  6324  6319   ar
  8580  3039  3040   ar
  8581  3039  3037   ar
  8582  8381  8387   ar
  8583  8381  8382   ar
  8584  3064  3043    2
  8585  3072  3073    1
  8586  3072  3074    1
  8587  3072  3070    1
  8588  8387  8386   ar
  8589  6278  6277   ar
  8590  6278  6279   ar
  8591  8402  8401    2
  8592  6302  6303    2
  8593  6302  6296   ar
  8594  3253  3232    2
  8595  7646  7645    1
  8596  6997  6999    1
  8597  6997  7018    1
  8598  7035  7034   ar
  8599  7035  7038   ar
  8600  3232  3252    1
  8601  6343  6342   ar
  8602  8393  8391    1
  8603  8393  8395    1
  8604  3254  3273    2
  8605  3254  3272    1
  8606  3054  3055   ar
  8607  6999  6998    1
  8608  7058  7057   ar
  8609  6277  6276   ar
  8610  8383  8382   ar
  8611  8383  8384    2
  8612  7054  7055   ar
  8613  8369  8367    1
  8614  8391  8392    1
  8615  7034  7040   ar
  8616  3040  3033   ar
  8617  8382  8385   ar
  8618  3276  3274    1
  8619  3038  3037    1
  8620  3074  3069    1
  8621  6320  6319   ar
  8622  3281  3279    1
  8623  3281  3282    1
  8624  6341  6342   ar
  8625  8347  8366    2
  8626  8347  8365    1
  8627  7643  7645    1
  8628  7643  7641    1
  8629  6280  6279    1
  8630  8401  8403   ar
  8631  8401  8400   ar
  8632  8386  8385   ar
  8633  3295  3274    2
  8634  3274  3294    1
  8635  8372  8373    1
  8636  8372  8374    1
  8637  8373  8390    1
  8638  6279  6274   ar
  8639  7645  7647    1
  8640  3085  3106    2
  8641  3085  3071    1
  8642  3085  3107    1
  8643  6297  6296   ar
  8644  6297  6298    1
  8645  3316  3338    2
  8646  3316  3302    1
  8647  3316  3337    1
  8648  7004  7005    1
  8649  7004  7002    1
  8650  8403  8404   ar
  8651  3037  3036   ar
  8652  8367  8388    2
  8653  8367  8389    1
  8654  3028  3029    1
  8655  3028  3026    1
  8656  3028  3030    1
  8657  8399  8400    1
  8658  8399  8397    1
  8659  3029  3043    1
  8660  7076  7075   ar
  8661  7076  7077   ar
  8662  3026  3027    1
  8663  7000  6998    1
  8664  7000  7002    1
  8665  3056  3055   ar
  8666  3056  3062   ar
  8667  3070  3071    1
  8668  3070  3068    1
  8669  3061  3062   ar
  8670  8400  8407   ar
  8671  3279  3280    1
  8672  6276  6275   ar
  8673  3302  3301    1
  8674  7075  7080   ar
  8675  8374  8375    1
  8676  7057  7056   ar
  8677  7057  7060   ar
  8678  7055  7056   ar
  8679  7038  7039   ar
  8680  8396  8395    1
  8681  3043  3063    1
  8682  3043  3045    1
  8683  8404  8405    2
  8684  8404  8406   ar
  8685  8392  8390    1
  8686  3027  3032    1
  8687  7077  7078   ar
  8688  8395  8397    1
  8689  6274  6275   ar
  8690  7641  7639    1
  8691  7641  7642    1
  8692  7002  7003    1
  8693  7056  7062   ar
  8694  7040  7039   ar
  8695  7040  7029    1
  8696  8407  8406   ar
  8697  3033  3032    1
  8698  3033  3034   ar
  8699  7060  7061   ar
  8700  3062  3052    1
  8701  3280  3296    1
  8702  3069  3068    1
  8703  7080  7081    1
  8704  7080  7079   ar
  8705  7639  7640    1
  8706  7650  7649    1
  8707  8390  8408    2
  8708  8390  8409    1
  8709  8397  8398    1
  8710  3030  3032    1
  8711  3030  3031    1
  8712  3036  3034   ar
  8713  7095  7094    1
  8714  7647  7642    1
  8715  7647  7658    1
  8716  3068  3066    1
  8717  7029  7024    1
  8718  7029  7027    1
  8719  7651  7649   ar
  8720  7651  7652   ar
  8721  3304  3303    1
  8722  3301  3303    1
  8723  3301  3299    1
  8724  7078  7079   ar
  8725  7078  7084   ar
  8726  7024  7023    1
  8727  7062  7061   ar
  8728  7062  7052    1
  8729  3045  3044    1
  8730  7659  7638    2
  8731  7649  7648   ar
  8732  3084  3065    2
  8733  3034  3035    2
  8734  7099  7098    2
  8735  3067  3066    1
  8736  3067  3065    1
  8737  7079  7082   ar
  8738  7640  7638    1
  8739  7096  7091    1
  8740  7096  7094    1
  8741  7096  7097    1
  8742  7658  7652   ar
  8743  7658  7657   ar
  8744  7073  7072    1
  8745  7652  7653   ar
  8746  7003  7020    1
  8747  7091  7090    1
  8748  7052  7047    1
  8749  7052  7050    1
  8750  3303  3305    1
  8751  3052  3050    1
  8752  3052  3047    1
  8753  3315  3296    2
  8754  7084  7074    1
  8755  7084  7083   ar
  8756  7074  7072    1
  8757  7074  7069    1
  8758  7648  7654   ar
  8759  3296  3314    1
  8760  3296  3298    1
  8761  3299  3297    1
  8762  3299  3300    1
  8763  7094  7092    1
  8764  7098  7097   ar
  8765  7098  7100   ar
  8766  3044  3046    1
  8767  7638  7660    1
  8768  7638  7624    1
  8769  3048  3050    1
  8770  3048  3046    1
  8771  3048  3049    1
  8772  7097  7104   ar
  8773  3065  3049    1
  8774  3065  3083    1
  8775  7090  7092    1
  8776  7090  7088    1
  8777  3050  3051    1
  8778  7111  7110    1
  8779  7111  7116    1
  8780  7042  7020    2
  8781  3047  3046    1
  8782  7657  7656   ar
  8783  3297  3298    1
  8784  7072  7070    1
  8785  7653  7654   ar
  8786  7653  7656   ar
  8787  7047  7046    1
  8788  7027  7028    1
  8789  7027  7025    1
  8790  7082  7083   ar
  8791  7023  7021    1
  8792  7023  7025    1
  8793  7654  7655    2
  8794  7100  7101   ar
  8795  7020  7022    1
  8796  7020  7041    1
  8797  7022  7021    1
  8798  7110  7108    1
  8799  7110  7112    1
  8800  7115  7114    1
  8801  7116  7126    1
  8802  7116  7114    1
  8803  7050  7051    1
  8804  7050  7048    1
  8805  7092  7093    1
  8806  3305  3300    1
  8807  3305  3306    1
  8808  7108  7109    1
  8809  7069  7068    1
  8810  7093  7107    1
  8811  7104  7103   ar
  8812  3308  3307    2
  8813  7088  7089    1
  8814  7025  7026    1
  8815  7101  7103   ar
  8816  7101  7102    1
  8817  7624  7623    1
  8818  7126  7120   ar
  8819  7126  7125   ar
  8820  7119  7120   ar
  8821  7119  7118   ar
  8822  7114  7112    1
  8823  7626  7625    1
  8824  7070  7068    1
  8825  7070  7071    1
  8826  7046  7048    1
  8827  7046  7044    1
  8828  7026  7043    1
  8829  7120  7121   ar
  8830  7068  7066    1
  8831  7125  7124   ar
  8832  7048  7049    1
  8833  7112  7113    1
  8834  7109  7107    1
  8835  3307  3306   ar
  8836  3307  3309   ar
  8837  7118  7117   ar
  8838  3306  3313   ar
  8839  7089  7087    1
  8840  7071  7087    1
  8841  7625  7623    1
  8842  7625  7627    1
  8843  7064  7043    2
  8844  7107  7127    2
  8845  7107  7128    1
  8846  7044  7045    1
  8847  7113  7129    1
  8848  7121  7124   ar
  8849  7121  7122   ar
  8850  7623  7621    1
  8851  7045  7043    1
  8852  7117  7122   ar
  8853  7043  7063    1
  8854  7630  7629    2
  8855  7122  7123    1
  8856  7087  7105    2
  8857  7087  7106    1
  8858  7067  7066    1
  8859  7067  7065    1
  8860  3309  3310   ar
  8861  7049  7065    1
  8862  3313  3312   ar
  8863  7629  7631   ar
  8864  7629  7628   ar
  8865  7130  7131    1
  8866  7130  7132    1
  8867  7133  7132    1
  8868  7133  7138    1
  8869  7149  7129    2
  8870  7627  7628    1
  8871  7627  7622    1
  8872  7631  7632   ar
  8873  7086  7065    2
  8874  7621  7622    1
  8875  7621  7619    1
  8876  7129  7131    1
  8877  7129  7150    1
  8878  7628  7635   ar
  8879  7132  7134    1
  8880  7065  7085    1
  8881  7138  7148    1
  8882  7138  7136    1
  8883  7632  7633    2
  8884  7632  7634   ar
  8885  7620  7619    1
  8886  7620  7618    1
  8887  3312  3310   ar
  8888  3310  3311    2
  8889  7147  7148   ar
  8890  7147  7146   ar
  8891  7635  7634   ar
  8892  7148  7142   ar
  8893  7637  7618    2
  8894  7146  7143   ar
  8895  7636  7618    1
  8896  7142  7143   ar
  8897  7142  7141   ar
  8898  7618  7604    1
  8899  7143  7144   ar
  8900  7141  7140   ar
  8901  7134  7136    1
  8902  7134  7135    1
  8903  7136  7137    1
  8904  7144  7145    1
  8905  7144  7139   ar
  8906  7140  7139   ar
  8907  7135  7151    1
  8908  7604  7603    1
  8909  7606  7605    1
  8910  7605  7603    1
  8911  7605  7607    1
  8912  7613  7612    2
  8913  7151  7172    2
  8914  7151  7173    1
  8915  7151  7153    1
  8916  7603  7601    1
  8917  7612  7611   ar
  8918  7612  7614   ar
  8919  7611  7609   ar
  8920  7614  7615   ar
  8921  7609  7610    2
  8922  7609  7608   ar
  8923  7155  7154    1
  8924  7155  7160    1
  8925  7152  7153    1
  8926  7152  7154    1
  8927  7617  7598    2
  8928  7615  7608   ar
  8929  7608  7607    1
  8930  7170  7169   ar
  8931  7170  7171   ar
  8932  7607  7602    1
  8933  7169  7166   ar
  8934  7600  7598    1
  8935  7600  7599    1
  8936  7154  7156    1
  8937  7171  7160    1
  8938  7171  7165   ar
  8939  7601  7602    1
  8940  7601  7599    1
  8941  7160  7158    1
  8942  7166  7165   ar
  8943  7166  7167   ar
  8944  7598  7616    1
  8945  7598  7584    1
  8946  7168  7167    2
  8947  7165  7164   ar
  8948  7167  7161   ar
  8949  7554  7533    2
  8950  7593  7592    1
  8951  7164  7162   ar
  8952  7161  7162   ar
  8953  7156  7158    1
  8954  7156  7157    1
  8955  7597  7578    2
  8956  7577  7555    2
  8957  7162  7163    1
  8958  7158  7159    1
  8959  7553  7533    1
  8960  7592  7591   ar
  8961  7592  7594   ar
  8962  7576  7555    1
  8963  7584  7583    1
  8964  7531  7511    2
  8965  7591  7589   ar
  8966  7533  7517    1
  8967  7533  7535    1
  8968  7594  7595   ar
  8969  7519  7518    1
  8970  7532  7511    1
  8971  7157  7174    1
  8972  7596  7578    1
  8973  7555  7539    1
  8974  7555  7557    1
  8975  7583  7585    1
  8976  7583  7581    1
  8977  7578  7580    1
  8978  7578  7561    1
  8979  7189  7188    2
  8980  7580  7579    1
  8981  7589  7590    2
  8982  7589  7588   ar
  8983  7511  7513    1
  8984  7511  7497    1
  8985  7518  7516    1
  8986  7518  7520    1
  8987  7516  7517    1
  8988  7516  7514    1
  8989  7595  7588   ar
  8990  7585  7586    1
  8991  7585  7587    1
  8992  7193  7174    2
  8993  7509  7491    2
  8994  7534  7535    1
  8995  7534  7536    1
  8996  7190  7188   ar
  8997  7190  7191   ar
  8998  7188  7187   ar
  8999  7588  7587    1
  9000  7539  7538    1
  9001  7513  7512    1
  9002  7572  7571    2
  9003  7557  7556    1
  9004  7174  7176    1
  9005  7174  7192    1
  9006  7573  7574   ar
  9007  7573  7570   ar
  9008  7579  7581    1
  9009  7581  7582    1
  9010  7191  7184   ar
  9011  7512  7514    1
  9012  7187  7185   ar
  9013  7561  7560    1
  9014  7587  7582    1
  9015  7514  7515    1
  9016  7538  7536    1
  9017  7538  7540    1
  9018  7497  7496    1
  9019  7536  7537    1
  9020  7510  7491    1
  9021  7556  7558    1
  9022  7574  7575   ar
  9023  7176  7175    1
  9024  7491  7493    1
  9025  7491  7477    1
  9026  7571  7570   ar
  9027  7571  7565   ar
  9028  7520  7530    1
  9029  7520  7515    1
  9030  7529  7530   ar
  9031  7529  7528   ar
  9032  7560  7558    1
  9033  7560  7562    1
  9034  7570  7569   ar
  9035  7184  7185   ar
  9036  7184  7183    1
  9037  7185  7186    2
  9038  7530  7524   ar
  9039  7178  7183    1
  9040  7178  7177    1
  9041  7489  7471    2
  9042  7528  7525   ar
  9043  7496  7494    1
  9044  7496  7498    1
  9045  7492  7493    1
  9046  7492  7494    1
  9047  7558  7559    1
  9048  7183  7181    1
  9049  7565  7566   ar
  9050  7575  7569   ar
  9051  7575  7564    1
  9052  7175  7177    1
  9053  7569  7568   ar
  9054  7477  7476    1
  9055  7537  7542    1
  9056  7551  7550   ar
  9057  7551  7552   ar
  9058  7562  7564    1
  9059  7562  7563    1
  9060  7524  7525   ar
  9061  7524  7523   ar
  9062  7540  7541    1
  9063  7540  7542    1
  9064  7525  7526   ar
  9065  7494  7495    1
  9066  7177  7179    1
  9067  7550  7547   ar
  9068  7559  7564    1
  9069  7471  7490    1
  9070  7471  7473    1
  9071  7471  7457    1
  9072  7566  7568   ar
  9073  7566  7567    1
  9074  7523  7522   ar
  9075  7498  7499    1
  9076  7498  7500    1
  9077  7542  7552    1
  9078  7552  7546   ar
  9079  7526  7527    1
  9080  7526  7521   ar
  9081  7476  7474    1
  9082  7476  7478    1
  9083  7181  7179    1
  9084  7181  7182    1
  9085  7473  7472    1
  9086  7179  7180    1
  9087  7472  7474    1
  9088  7522  7521   ar
  9089  7547  7546   ar
  9090  7547  7548   ar
  9091  7495  7500    1
  9092  7508  7507   ar
  9093  7508  7501   ar
  9094  7457  7456    1
  9095  7507  7505   ar
  9096  7546  7545   ar
  9097  7500  7501    1
  9098  7474  7475    1
  9099  7501  7502   ar
  9100  7549  7548    1
  9101  7478  7479    1
  9102  7478  7480    1
  9103  7548  7543   ar
  9104  7469  7451    2
  9105  7505  7506    2
  9106  7505  7504   ar
  9107  7180  7194    1
  9108  7215  7194    2
  9109  7545  7544   ar
  9110  7456  7454    1
  9111  7456  7458    1
  9112  7210  7209    1
  9113  7502  7504   ar
  9114  7502  7503    2
  9115  7452  7454    1
  9116  7452  7453    1
  9117  7475  7480    1
  9118  7543  7544   ar
  9119  7454  7455    1
  9120  7488  7487   ar
  9121  7488  7481   ar
  9122  7480  7481    1
  9123  7459  7458    1
  9124  7194  7196    1
  9125  7194  7214    1
  9126  7453  7451    1
  9127  7487  7485   ar
  9128  7451  7470    1
  9129  7451  7434    1
  9130  7209  7204   ar
  9131  7209  7208   ar
  9132  7458  7460    1
  9133  7231  7230    2
  9134  7481  7482   ar
  9135  7204  7205   ar
  9136  7211  7208   ar
  9137  7211  7212   ar
  9138  7196  7195    1
  9139  7208  7207   ar
  9140  7485  7486    1
  9141  7485  7484   ar
  9142  7195  7197    1
  9143  7455  7460    1
  9144  7482  7484   ar
  9145  7482  7483    2
  9146  7434  7433    1
  9147  7230  7229   ar
  9148  7230  7232   ar
  9149  7212  7213   ar
  9150  7460  7461    1
  9151  7205  7206   ar
  9152  7468  7461   ar
  9153  7468  7467   ar
  9154  7207  7206   ar
  9155  7207  7213   ar
  9156  7229  7227   ar
  9157  7461  7462   ar
  9158  7248  7247    1
  9159  7467  7465   ar
  9160  7213  7203    1
  9161  7197  7198    1
  9162  7197  7199    1
  9163  7232  7233   ar
  9164  7433  7435    1
  9165  7433  7431    1
  9166  7246  7247   ar
  9167  7246  7252   ar
  9168  7198  7203    1
  9169  7247  7249   ar
  9170  7436  7435    1
  9171  7449  7428    2
  9172  7462  7463    2
  9173  7462  7464   ar
  9174  7253  7252    2
  9175  7252  7251   ar
  9176  7465  7464   ar
  9177  7465  7466    1
  9178  7435  7437    1
  9179  7249  7250   ar
  9180  7203  7201    1
  9181  7227  7228    2
  9182  7227  7226   ar
  9183  7431  7429    1
  9184  7431  7432    1
  9185  7199  7201    1
  9186  7199  7200    1
  9187  7429  7430    1
  9188  7251  7250   ar
  9189  7251  7254   ar
  9190  7250  7256   ar
  9191  7233  7226   ar
  9192  7271  7270    1
  9193  7201  7202    1
  9194  7430  7428    1
  9195  7428  7450    1
  9196  7428  7414    1
  9197  7254  7255   ar
  9198  7226  7225    1
  9199  7256  7245    1
  9200  7256  7255   ar
  9201  7269  7270   ar
  9202  7269  7275   ar
  9203  7270  7272   ar
  9204  7245  7240    1
  9205  7245  7243    1
  9206  7200  7216    1
  9207  7240  7239    1
  9208  7437  7432    1
  9209  7437  7448    1
  9210  7276  7275    2
  9211  7275  7274   ar
  9212  7272  7273   ar
  9213  7448  7447   ar
  9214  7448  7442   ar
  9215  7441  7442   ar
  9216  7441  7439   ar
  9217  7218  7217    1
  9218  7218  7216    1
  9219  7273  7274   ar
  9220  7273  7279   ar
  9221  7447  7446   ar
  9222  7274  7277   ar
  9223  7442  7443   ar
  9224  7414  7413    1
  9225  7440  7439    1
  9226  7225  7220    1
  9227  7225  7223    1
  9228  7439  7438   ar
  9229  7294  7293    2
  9230  7446  7443   ar
  9231  7217  7219    1
  9232  7443  7444   ar
  9233  7243  7244    1
  9234  7243  7241    1
  9235  7216  7234    2
  9236  7216  7235    1
  9237  7279  7268    1
  9238  7279  7278   ar
  9239  7277  7278   ar
  9240  7267  7266    1
  9241  7438  7444   ar
  9242  7239  7237    1
  9243  7239  7241    1
  9244  7268  7266    1
  9245  7268  7263    1
  9246  7444  7445    2
  9247  7220  7219    1
  9248  7223  7221    1
  9249  7223  7224    1
  9250  7293  7295   ar
  9251  7293  7292   ar
  9252  7237  7238    1
  9253  7238  7236    1
  9254  7221  7219    1
  9255  7221  7222    1
  9256  7295  7296   ar
  9257  7413  7415    1
  9258  7413  7411    1
  9259  7266  7264    1
  9260  7290  7289    1
  9261  7291  7292    1
  9262  7291  7286    1
  9263  7291  7289    1
  9264  7241  7242    1
  9265  7263  7262    1
  9266  7292  7299   ar
  9267  7416  7415    1
  9268  7415  7417    1
  9269  7286  7285    1
  9270  7296  7297    1
  9271  7296  7298   ar
  9272  7289  7287    1
  9273  7258  7236    2
  9274  7409  7411    1
  9275  7409  7410    1
  9276  7299  7298   ar
  9277  7411  7412    1
  9278  7222  7236    1
  9279  7262  7264    1
  9280  7262  7260    1
  9281  7236  7257    1
  9282  7242  7259    1
  9283  7314  7313    1
  9284  7264  7265    1
  9285  7306  7311    1
  9286  7306  7305    1
  9287  7285  7287    1
  9288  7285  7283    1
  9289  7315  7313   ar
  9290  7315  7316   ar
  9291  7281  7259    2
  9292  7265  7282    1
  9293  7311  7322    1
  9294  7311  7309    1
  9295  7313  7312   ar
  9296  7410  7408    1
  9297  7420  7419    2
  9298  7417  7412    1
  9299  7417  7418    1
  9300  7261  7259    1
  9301  7261  7260    1
  9302  7287  7288    1
  9303  7316  7322   ar
  9304  7316  7317   ar
  9305  7322  7321   ar
  9306  7284  7283    1
  9307  7284  7282    1
  9308  7259  7280    1
  9309  7419  7418   ar
  9310  7419  7421   ar
  9311  7312  7318   ar
  9312  7418  7425   ar
  9313  7310  7309    1
  9314  7305  7303    1
  9315  7305  7307    1
  9316  7421  7422   ar
  9317  7425  7424   ar
  9318  7317  7318   ar
  9319  7317  7320   ar
  9320  7303  7304    1
  9321  7321  7320   ar
  9322  7318  7319    2
  9323  7309  7307    1
  9324  7288  7302    1
  9325  7422  7424   ar
  9326  7422  7423    1
  9327  7282  7300    2
  9328  7282  7301    1
  9329  7408  7426    2
  9330  7408  7427    1
  9331  7408  7391    1
  9332  7304  7302    1
  9333  7307  7308    1
  9334  7393  7392    1
  9335  7360  7359    2
  9336  7392  7390    1
  9337  7392  7394    1
  9338  7391  7390    1
  9339  7302  7324    2
  9340  7302  7323    1
  9341  7358  7359   ar
  9342  7358  7356   ar
  9343  7357  7356    2
  9344  7402  7401    2
  9345  7403  7404   ar
  9346  7403  7400   ar
  9347  7390  7388    1
  9348  7308  7325    1
  9349  7404  7405   ar
  9350  7401  7400   ar
  9351  7401  7395   ar
  9352  7359  7361   ar
  9353  7400  7399   ar
  9354  7329  7328    1
  9355  7329  7334    1
  9356  7356  7355   ar
  9357  7405  7399   ar
  9358  7405  7394    1
  9359  7395  7396   ar
  9360  7327  7326    1
  9361  7327  7325    1
  9362  7399  7398   ar
  9363  7394  7389    1
  9364  7396  7398   ar
  9365  7396  7397    1
  9366  7326  7328    1
  9367  7328  7330    1
  9368  7334  7335    1
  9369  7334  7332    1
  9370  7337  7336    2
  9371  7336  7335   ar
  9372  7336  7338   ar
  9373  7335  7342   ar
  9374  7353  7352    1
  9375  7325  7343    2
  9376  7325  7344    1
  9377  7342  7341   ar
  9378  7338  7339   ar
  9379  7388  7389    1
  9380  7388  7386    1
  9381  7361  7362   ar
  9382  7341  7339   ar
  9383  7339  7340    2
  9384  7333  7332    1
  9385  7355  7362   ar
  9386  7355  7354    1
  9387  7332  7330    1
  9388  7330  7331    1
  9389  7352  7354    1
  9390  7352  7350    1
  9391  7386  7387    1
  9392  7331  7345    1
  9393  7354  7349    1
  9394  7387  7385    1
  9395  7350  7351    1
  9396  7350  7348    1
  9397  7363  7345    2
  9398  7351  7365    1
  9399  7377  7376    2
  9400  7345  7347    1
  9401  7345  7364    1
  9402  7349  7348    1
  9403  7376  7378   ar
  9404  7376  7375   ar
  9405  7378  7379   ar
  9406  7367  7365    1
  9407  7367  7366    1
  9408  7369  7374    1
  9409  7369  7368    1
  9410  7374  7375    1
  9411  7374  7372    1
  9412  7347  7346    1
  9413  7375  7382   ar
  9414  7348  7346    1
  9415  7379  7380    1
  9416  7379  7381   ar
  9417  7368  7366    1
  9418  7368  7370    1
  9419  7407  7385    2
  9420  7385  7406    1
  9421  7385  7371    1
  9422  7382  7381   ar
  9423  7365  7384    2
  9424  7365  7383    1
  9425  7373  7372    1
  9426  7372  7370    1
  9427  7370  7371    1
