ligand
  PyMOL2.2          3D                             0

 41 45  0  0  0  0  0  0  0  0999 V2000
   35.0120   39.2220    5.4060 C   0  0  0  0  0  0  0  0  0  0  0  0
   34.4750   39.2460    6.7430 O   0  0  0  0  0  0  0  0  0  0  0  0
   34.0680   36.3550    9.9670 C   0  0  0  0  0  0  0  0  0  0  0  0
   33.7560   35.0850   10.6720 N   0  0  0  0  0  0  0  0  0  0  0  0
   38.0730   37.8610    7.8300 C   0  0  0  0  0  0  0  0  0  0  0  0
   42.4020   39.5200    6.9550 C   0  0  0  0  0  0  0  0  0  0  0  0
   35.7970   40.5310    5.0930 C   0  0  0  0  0  0  0  0  0  0  0  0
   36.8390   40.8230    6.0820 N   0  0  0  0  0  0  0  0  0  0  0  0
   32.8000   36.8260    9.1870 C   0  0  0  0  0  0  0  0  0  0  0  0
   39.2100   37.4810    6.8540 C   0  0  0  0  0  0  0  0  0  0  0  0
   40.0390   36.4400    7.3810 O   0  0  0  0  0  0  0  0  0  0  0  0
   43.5660   39.5490    8.0350 C   0  0  0  0  0  0  0  0  0  0  0  0
   43.1880   40.2090    9.3220 N   0  0  0  0  0  0  0  0  0  0  0  0
   34.8180   41.7310    4.9840 C   0  0  0  0  0  0  0  0  0  0  0  0
   35.5370   42.9210    4.6710 O   0  0  0  0  0  0  0  0  0  0  0  0
   33.0700   38.1530    8.4200 C   0  0  0  0  0  0  0  0  0  0  0  0
   31.8270   38.5320    7.7220 N   0  0  0  0  0  0  0  0  0  0  0  0
   39.9750   38.7950    6.6210 C   0  0  0  0  0  0  0  0  0  0  0  0
   41.1720   38.9100    7.4890 O   0  0  0  0  0  0  0  0  0  0  0  0
   44.8550   40.2620    7.4220 C   0  0  0  0  0  0  0  0  0  0  0  0
   45.4360   39.4710    6.3620 O   0  0  0  0  0  0  0  0  0  0  0  0
   33.7520   41.4380    3.9030 C   0  0  0  0  0  0  0  0  0  0  0  0
   32.8680   42.5330    3.7860 O   0  0  0  0  0  0  0  0  0  0  0  0
   34.2810   37.9700    7.4380 C   0  0  0  0  0  0  0  0  0  0  0  0
   38.9480   39.8790    6.9360 C   0  0  0  0  0  0  0  0  0  0  0  0
   38.0060   39.2880    7.8200 O   0  0  0  0  0  0  0  0  0  0  0  0
   44.5280   41.7030    6.8580 C   0  0  0  0  0  0  0  0  0  0  0  0
   44.1890   42.5730    7.9510 O   0  0  0  0  0  0  0  0  0  0  0  0
   32.9780   40.1520    4.2550 C   0  0  0  0  0  0  0  0  0  0  0  0
   33.9510   39.0450    4.3870 O   0  0  0  0  0  0  0  0  0  0  0  0
   35.5860   37.5240    8.2690 C   0  0  0  0  0  0  0  0  0  0  0  0
   36.7730   37.2970    7.4010 O   0  0  0  0  0  0  0  0  0  0  0  0
   38.1900   40.3790    5.7150 C   0  0  0  0  0  0  0  0  0  0  0  0
   43.3350   41.6150    5.8220 C   0  0  0  0  0  0  0  0  0  0  0  0
   42.1470   40.8980    6.3980 O   0  0  0  0  0  0  0  0  0  0  0  0
   31.9320   39.8560    3.1550 C   0  0  0  0  0  0  0  0  0  0  0  0
   31.1160   38.6490    3.3820 N   0  0  0  0  0  0  0  0  0  0  0  0
   35.3010   36.1930    8.9970 C   0  0  0  0  0  0  0  0  0  0  0  0
   36.4610   35.7950    9.7350 O   0  0  0  0  0  0  0  0  0  0  0  0
   42.9050   43.0180    5.2440 C   0  0  0  0  0  0  0  0  0  0  0  0
   42.4220   44.0260    6.2410 N   0  0  0  0  0  0  0  0  0  0  0  0
  1  2  1  0  0  0  0
  1  7  1  0  0  0  0
  1 30  1  0  0  0  0
  2 24  1  0  0  0  0
  3  4  1  0  0  0  0
  3  9  1  0  0  0  0
  3 38  1  0  0  0  0
  5 10  1  0  0  0  0
  5 26  1  0  0  0  0
  6 12  1  0  0  0  0
  6 35  1  0  0  0  0
  7  8  1  0  0  0  0
  7 14  1  0  0  0  0
  8 33  1  0  0  0  0
  9 16  1  0  0  0  0
 10 11  1  0  0  0  0
 10 18  1  0  0  0  0
 12 13  1  0  0  0  0
 12 20  1  0  0  0  0
 14 15  1  0  0  0  0
 14 22  1  0  0  0  0
 16 17  1  0  0  0  0
 16 24  1  0  0  0  0
 18 19  1  0  0  0  0
 18 25  1  0  0  0  0
  6 19  1  0  0  0  0
 20 21  1  0  0  0  0
 20 27  1  0  0  0  0
 22 23  1  0  0  0  0
 22 29  1  0  0  0  0
 24 31  1  0  0  0  0
 25 26  1  0  0  0  0
 25 33  1  0  0  0  0
 27 28  1  0  0  0  0
 27 34  1  0  0  0  0
 29 30  1  0  0  0  0
 29 36  1  0  0  0  0
 31 32  1  0  0  0  0
 31 38  1  0  0  0  0
  5 32  1  0  0  0  0
 34 35  1  0  0  0  0
 34 40  1  0  0  0  0
 36 37  1  0  0  0  0
 38 39  1  0  0  0  0
 40 41  1  0  0  0  0
M  END
$$$$
