ligand
 OpenBabel11021811423D
libRbt.so/2013.1/901 2013/11/27
 41 45  0  0  0  0  0  0  0  0999 V2000
   34.9612   39.4932    4.8669 C   0  0  2  0  0  0  0  0  0  0  0  0
   34.4896   39.4863    6.2286 O   0  0  0  0  0  0  0  0  0  0  0  0
   34.0272   36.4703    9.3282 C   0  0  2  0  0  0  0  0  0  0  0  0
   33.6584   35.1907    9.9869 N   0  0  0  0  0  0  0  0  0  0  0  0
   38.0262   37.8033    7.0686 C   0  0  1  0  0  0  0  0  0  0  0  0
   42.2476   39.6144    6.3247 C   0  0  1  0  0  0  0  0  0  0  0  0
   35.8221   40.7592    4.5777 C   0  0  2  0  0  0  0  0  0  0  0  0
   36.9269   40.9282    5.5264 N   0  0  0  0  0  0  0  0  0  0  0  0
   32.7613   37.0666    8.6354 C   0  0  0  0  0  0  0  0  0  0  0  0
   39.0869   37.3959    6.0204 C   0  0  2  0  0  0  0  0  0  0  0  0
   39.8631   36.2748    6.4556 O   0  0  0  0  0  0  0  0  0  0  0  0
   43.5300   39.3707    7.2292 C   0  0  2  0  0  0  0  0  0  0  0  0
   43.2486   39.3627    8.6974 N   0  0  0  0  0  0  0  0  0  0  0  0
   34.9271   42.0278    4.5744 C   0  0  1  0  0  0  0  0  0  0  0  0
   35.7139   43.1798    4.2828 O   0  0  0  0  0  0  0  0  0  0  0  0
   33.0894   38.4090    7.9197 C   0  0  2  0  0  0  0  0  0  0  0  0
   31.8456   38.9077    7.3030 N   0  0  0  0  0  0  0  0  0  0  0  0
   39.9320   38.6642    5.8122 C   0  0  2  0  0  0  0  0  0  0  0  0
   41.1730   38.6522    6.6241 O   0  0  0  0  0  0  0  0  0  0  0  0
   44.6409   40.4673    6.8993 C   0  0  1  0  0  0  0  0  0  0  0  0
   45.1662   40.2949    5.5647 O   0  0  0  0  0  0  0  0  0  0  0  0
   33.7941   41.8642    3.5351 C   0  0  2  0  0  0  0  0  0  0  0  0
   32.9859   43.0220    3.5142 O   0  0  0  0  0  0  0  0  0  0  0  0
   34.2376   38.1931    6.8711 C   0  0  2  0  0  0  0  0  0  0  0  0
   39.0005   39.7990    6.2288 C   0  0  2  0  0  0  0  0  0  0  0  0
   38.0607   39.2302    7.1296 O   0  0  0  0  0  0  0  0  0  0  0  0
   44.0840   41.9411    7.0381 C   0  0  2  0  0  0  0  0  0  0  0  0
   43.7925   42.2083    8.4202 O   0  0  0  0  0  0  0  0  0  0  0  0
   32.9476   40.6184    3.8638 C   0  0  2  0  0  0  0  0  0  0  0  0
   33.8443   39.4417    3.8947 O   0  0  0  0  0  0  0  0  0  0  0  0
   35.5445   37.6166    7.6142 C   0  0  2  0  0  0  0  0  0  0  0  0
   36.6709   37.3527    6.6785 O   0  0  0  0  0  0  0  0  0  0  0  0
   38.2244   40.4113    5.0721 C   0  0  0  0  0  0  0  0  0  0  0  0
   42.7853   42.1091    6.1496 C   0  0  1  0  0  0  0  0  0  0  0  0
   41.7695   41.0402    6.4376 O   0  0  0  0  0  0  0  0  0  0  0  0
   31.8334   40.4514    2.8043 C   0  0  0  0  0  0  0  0  0  0  0  0
   30.9081   39.3293    3.0472 N   0  0  0  0  0  0  0  0  0  0  0  0
   35.1993   36.2732    8.2916 C   0  0  1  0  0  0  0  0  0  0  0  0
   36.3609   35.7593    8.9513 O   0  0  0  0  0  0  0  0  0  0  0  0
   42.1293   43.5386    6.2664 C   0  0  0  0  0  0  0  0  0  0  0  0
   41.6527   43.9401    7.6284 N   0  0  0  0  0  0  0  0  0  0  0  0
  1  2  1  1  0  0  0
  1  7  1  0  0  0  0
  1 30  1  0  0  0  0
  3  4  1  6  0  0  0
  3  9  1  0  0  0  0
  3 38  1  0  0  0  0
  5 10  1  0  0  0  0
  5 26  1  6  0  0  0
  5 32  1  0  0  0  0
  6 12  1  0  0  0  0
  6 35  1  0  0  0  0
  6 19  1  1  0  0  0
  7  8  1  1  0  0  0
  7 14  1  0  0  0  0
  8 33  1  0  0  0  0
  9 16  1  0  0  0  0
 10 11  1  1  0  0  0
 10 18  1  0  0  0  0
 12 13  1  1  0  0  0
 12 20  1  0  0  0  0
 14 15  1  6  0  0  0
 14 22  1  0  0  0  0
 16 17  1  6  0  0  0
 16 24  1  0  0  0  0
 18 19  1  1  0  0  0
 18 25  1  0  0  0  0
 20 21  1  6  0  0  0
 20 27  1  0  0  0  0
 22 23  1  1  0  0  0
 22 29  1  0  0  0  0
 24  2  1  1  0  0  0
 24 31  1  0  0  0  0
 25 26  1  1  0  0  0
 25 33  1  0  0  0  0
 27 28  1  1  0  0  0
 27 34  1  0  0  0  0
 29 30  1  0  0  0  0
 29 36  1  6  0  0  0
 31 32  1  6  0  0  0
 31 38  1  0  0  0  0
 34 35  1  0  0  0  0
 34 40  1  1  0  0  0
 36 37  1  0  0  0  0
 38 39  1  1  0  0  0
 40 41  1  0  0  0  0
M  END
>  <CHROM.1>
165.66920237,-175.72122083,-176.99238021,-61.23477959,37.60835506,39.61733085
6.31985798,3.06618121,0.19215996,2.52447296

>  <Name>
ligand

>  <RI>
0

>  <Rbt.Current_Directory>
/home/itssahil/PROJECTS/Mol_Feturizer/New_Systems/rnas/1ZZ5

>  <Rbt.Executable>
rbdock ($Id: //depot/dev/client3/rdock/2013.1/src/exe/rbdock.cxx#4 $)

>  <Rbt.Library>
libRbt.so (2013.1, Build901 2013/11/27)

>  <Rbt.Parameter_File>
/export/apps/rDock/src/rDock_2013.1_src/data/scripts/dock_solv.prm

>  <Rbt.Receptor>
prm/pocket_docking_2.prm

>  <SCORE>
-10.2012

>  <SCORE.INTER>
-8.28816

>  <SCORE.INTER.CONST>
1

>  <SCORE.INTER.POLAR>
0

>  <SCORE.INTER.ROT>
4

>  <SCORE.INTER.SOLV>
17.372

>  <SCORE.INTER.VDW>
-17.5828

>  <SCORE.INTER.norm>
-0.20215

>  <SCORE.INTRA>
-1.91308

>  <SCORE.INTRA.DIHEDRAL>
-3.86613

>  <SCORE.INTRA.DIHEDRAL.0>
5.18357

>  <SCORE.INTRA.POLAR>
0

>  <SCORE.INTRA.POLAR.0>
0

>  <SCORE.INTRA.REPUL>
0

>  <SCORE.INTRA.REPUL.0>
0

>  <SCORE.INTRA.SOLV>
0.0436106

>  <SCORE.INTRA.SOLV.lig_0>
-109.973

>  <SCORE.INTRA.VDW>
-0.00182379

>  <SCORE.INTRA.VDW.0>
-1.68646

>  <SCORE.INTRA.norm>
-0.0466606

>  <SCORE.RESTR>
0

>  <SCORE.RESTR.CAVITY>
0

>  <SCORE.RESTR.norm>
0

>  <SCORE.SYSTEM>
0

>  <SCORE.SYSTEM.CONST>
0

>  <SCORE.SYSTEM.DIHEDRAL>
0

>  <SCORE.SYSTEM.SOLV>
0

>  <SCORE.SYSTEM.norm>
0

>  <SCORE.heavy>
41

>  <SCORE.norm>
-0.248811

>  <RMSD>
0.764

$$$$
ligand
 OpenBabel11021811423D
libRbt.so/2013.1/901 2013/11/27
 41 45  0  0  0  0  0  0  0  0999 V2000
   35.0785   39.1130    5.1187 C   0  0  2  0  0  0  0  0  0  0  0  0
   34.5556   39.1587    6.4607 O   0  0  0  0  0  0  0  0  0  0  0  0
   33.7103   36.2208    9.5545 C   0  0  2  0  0  0  0  0  0  0  0  0
   33.2054   34.9839   10.2044 N   0  0  0  0  0  0  0  0  0  0  0  0
   37.8956   37.1802    7.4480 C   0  0  1  0  0  0  0  0  0  0  0  0
   42.3126   38.5551    6.8170 C   0  0  1  0  0  0  0  0  0  0  0  0
   36.0577   40.2965    4.8574 C   0  0  2  0  0  0  0  0  0  0  0  0
   37.1353   40.3762    5.8481 N   0  0  0  0  0  0  0  0  0  0  0  0
   32.5294   36.9196    8.8093 C   0  0  0  0  0  0  0  0  0  0  0  0
   38.9565   36.6729    6.4445 C   0  0  2  0  0  0  0  0  0  0  0  0
   39.6139   35.4920    6.9156 O   0  0  0  0  0  0  0  0  0  0  0  0
   43.4301   38.4103    7.9361 C   0  0  2  0  0  0  0  0  0  0  0  0
   42.9515   38.7145    9.3193 N   0  0  0  0  0  0  0  0  0  0  0  0
   35.2782   41.6383    4.8125 C   0  0  1  0  0  0  0  0  0  0  0  0
   36.1736   42.7147    4.5465 O   0  0  0  0  0  0  0  0  0  0  0  0
   33.0015   38.2222    8.1004 C   0  0  2  0  0  0  0  0  0  0  0  0
   31.8312   38.8224    7.4327 N   0  0  0  0  0  0  0  0  0  0  0  0
   39.9169   37.8607    6.2636 C   0  0  2  0  0  0  0  0  0  0  0  0
   41.1196   37.7472    7.1239 O   0  0  0  0  0  0  0  0  0  0  0  0
   44.6760   39.3412    7.5800 C   0  0  1  0  0  0  0  0  0  0  0  0
   45.3595   38.8707    6.3975 O   0  0  0  0  0  0  0  0  0  0  0  0
   34.1765   41.5656    3.7300 C   0  0  2  0  0  0  0  0  0  0  0  0
   33.4743   42.7895    3.6715 O   0  0  0  0  0  0  0  0  0  0  0  0
   34.1663   37.8979    7.0991 C   0  0  2  0  0  0  0  0  0  0  0  0
   39.0730   39.0760    6.6375 C   0  0  2  0  0  0  0  0  0  0  0  0
   38.0526   38.5991    7.5032 O   0  0  0  0  0  0  0  0  0  0  0  0
   44.2498   40.8473    7.3535 C   0  0  2  0  0  0  0  0  0  0  0  0
   43.7995   41.4041    8.5999 O   0  0  0  0  0  0  0  0  0  0  0  0
   33.2118   40.4014    4.0312 C   0  0  2  0  0  0  0  0  0  0  0  0
   34.0000   39.1511    4.1033 O   0  0  0  0  0  0  0  0  0  0  0  0
   35.3877   37.2157    7.8961 C   0  0  2  0  0  0  0  0  0  0  0  0
   36.5222   36.8466    7.0069 O   0  0  0  0  0  0  0  0  0  0  0  0
   38.3992   39.7441    5.4480 C   0  0  0  0  0  0  0  0  0  0  0  0
   43.1068   40.9224    6.2616 C   0  0  1  0  0  0  0  0  0  0  0  0
   41.9631   40.0038    6.5864 O   0  0  0  0  0  0  0  0  0  0  0  0
   32.1293   40.3235    2.9294 C   0  0  0  0  0  0  0  0  0  0  0  0
   31.0766   39.3177    3.1625 N   0  0  0  0  0  0  0  0  0  0  0  0
   34.9001   35.9133    8.5659 C   0  0  1  0  0  0  0  0  0  0  0  0
   35.9856   35.3054    9.2736 O   0  0  0  0  0  0  0  0  0  0  0  0
   42.5817   42.3876    6.0068 C   0  0  0  0  0  0  0  0  0  0  0  0
   41.5470   42.5441    4.9352 N   0  0  0  0  0  0  0  0  0  0  0  0
  1  2  1  1  0  0  0
  1  7  1  0  0  0  0
  1 30  1  0  0  0  0
  3  4  1  6  0  0  0
  3  9  1  0  0  0  0
  3 38  1  0  0  0  0
  5 10  1  0  0  0  0
  5 26  1  6  0  0  0
  5 32  1  0  0  0  0
  6 12  1  0  0  0  0
  6 35  1  0  0  0  0
  6 19  1  1  0  0  0
  7  8  1  1  0  0  0
  7 14  1  0  0  0  0
  8 33  1  0  0  0  0
  9 16  1  0  0  0  0
 10 11  1  1  0  0  0
 10 18  1  0  0  0  0
 12 13  1  1  0  0  0
 12 20  1  0  0  0  0
 14 15  1  6  0  0  0
 14 22  1  0  0  0  0
 16 17  1  6  0  0  0
 16 24  1  0  0  0  0
 18 19  1  1  0  0  0
 18 25  1  0  0  0  0
 20 21  1  6  0  0  0
 20 27  1  0  0  0  0
 22 23  1  1  0  0  0
 22 29  1  0  0  0  0
 24  2  1  1  0  0  0
 24 31  1  0  0  0  0
 25 26  1  1  0  0  0
 25 33  1  0  0  0  0
 27 28  1  1  0  0  0
 27 34  1  0  0  0  0
 29 30  1  0  0  0  0
 29 36  1  6  0  0  0
 31 32  1  6  0  0  0
 31 38  1  0  0  0  0
 34 35  1  0  0  0  0
 34 40  1  1  0  0  0
 36 37  1  0  0  0  0
 38 39  1  1  0  0  0
 40 41  1  0  0  0  0
M  END
>  <CHROM.1>
162.28124305,173.86667209,-175.13468116,176.99857099,37.64906490,39.02033736
6.55083978,3.13894249,0.14260354,2.46601773

>  <Name>
ligand

>  <RI>
0

>  <Rbt.Current_Directory>
/home/itssahil/PROJECTS/Mol_Feturizer/New_Systems/rnas/1ZZ5

>  <Rbt.Executable>
rbdock ($Id: //depot/dev/client3/rdock/2013.1/src/exe/rbdock.cxx#4 $)

>  <Rbt.Library>
libRbt.so (2013.1, Build901 2013/11/27)

>  <Rbt.Parameter_File>
/export/apps/rDock/src/rDock_2013.1_src/data/scripts/dock_solv.prm

>  <Rbt.Receptor>
prm/pocket_docking_2.prm

>  <SCORE>
-10.0429

>  <SCORE.INTER>
-7.86364

>  <SCORE.INTER.CONST>
1

>  <SCORE.INTER.POLAR>
0

>  <SCORE.INTER.ROT>
4

>  <SCORE.INTER.SOLV>
17.8222

>  <SCORE.INTER.VDW>
-17.4498

>  <SCORE.INTER.norm>
-0.191796

>  <SCORE.INTRA>
-2.18097

>  <SCORE.INTRA.DIHEDRAL>
-3.22401

>  <SCORE.INTRA.DIHEDRAL.0>
5.18357

>  <SCORE.INTRA.POLAR>
0

>  <SCORE.INTRA.POLAR.0>
0

>  <SCORE.INTRA.REPUL>
0

>  <SCORE.INTRA.REPUL.0>
0

>  <SCORE.INTRA.SOLV>
-1.21494

>  <SCORE.INTRA.SOLV.lig_0>
-109.973

>  <SCORE.INTRA.VDW>
0.0385024

>  <SCORE.INTRA.VDW.0>
-1.68646

>  <SCORE.INTRA.norm>
-0.0531944

>  <SCORE.RESTR>
0.00171848

>  <SCORE.RESTR.CAVITY>
0.00171848

>  <SCORE.RESTR.norm>
4.19142e-05

>  <SCORE.SYSTEM>
0

>  <SCORE.SYSTEM.CONST>
0

>  <SCORE.SYSTEM.DIHEDRAL>
0

>  <SCORE.SYSTEM.SOLV>
0

>  <SCORE.SYSTEM.norm>
0

>  <SCORE.heavy>
41

>  <SCORE.norm>
-0.244949

>  <RMSD>
0.852

$$$$
ligand
 OpenBabel11021811423D
libRbt.so/2013.1/901 2013/11/27
 41 45  0  0  0  0  0  0  0  0999 V2000
   35.0484   39.0507    5.1506 C   0  0  2  0  0  0  0  0  0  0  0  0
   34.5329   39.1209    6.4944 O   0  0  0  0  0  0  0  0  0  0  0  0
   33.6954   36.2386    9.6423 C   0  0  2  0  0  0  0  0  0  0  0  0
   33.1903   35.0145   10.3159 N   0  0  0  0  0  0  0  0  0  0  0  0
   37.8722   37.1490    7.4975 C   0  0  1  0  0  0  0  0  0  0  0  0
   42.2775   38.5252    6.8402 C   0  0  1  0  0  0  0  0  0  0  0  0
   36.0298   40.2265    4.8640 C   0  0  2  0  0  0  0  0  0  0  0  0
   37.1130   40.3196    5.8475 N   0  0  0  0  0  0  0  0  0  0  0  0
   32.5127   36.9283    8.8916 C   0  0  0  0  0  0  0  0  0  0  0  0
   38.9261   36.6214    6.4972 C   0  0  2  0  0  0  0  0  0  0  0  0
   39.5825   35.4466    6.9848 O   0  0  0  0  0  0  0  0  0  0  0  0
   43.3963   38.3969    7.9600 C   0  0  2  0  0  0  0  0  0  0  0  0
   42.9125   38.6947    9.3428 N   0  0  0  0  0  0  0  0  0  0  0  0
   35.2541   41.5698    4.8005 C   0  0  1  0  0  0  0  0  0  0  0  0
   36.1514   42.6387    4.5114 O   0  0  0  0  0  0  0  0  0  0  0  0
   32.9849   38.2171    8.1582 C   0  0  2  0  0  0  0  0  0  0  0  0
   31.8128   38.8096    7.4866 N   0  0  0  0  0  0  0  0  0  0  0  0
   39.8892   37.8029    6.2909 C   0  0  2  0  0  0  0  0  0  0  0  0
   41.0961   37.7003    7.1466 O   0  0  0  0  0  0  0  0  0  0  0  0
   44.6289   39.3455    7.6044 C   0  0  1  0  0  0  0  0  0  0  0  0
   45.3198   38.8845    6.4225 O   0  0  0  0  0  0  0  0  0  0  0  0
   34.1464   41.4822    3.7253 C   0  0  2  0  0  0  0  0  0  0  0  0
   33.4476   42.7070    3.6497 O   0  0  0  0  0  0  0  0  0  0  0  0
   34.1432   37.8723    7.1563 C   0  0  2  0  0  0  0  0  0  0  0  0
   39.0510   39.0270    6.6486 C   0  0  2  0  0  0  0  0  0  0  0  0
   38.0338   38.5681    7.5277 O   0  0  0  0  0  0  0  0  0  0  0  0
   44.1812   40.8453    7.3770 C   0  0  2  0  0  0  0  0  0  0  0  0
   43.7221   41.3960    8.6230 O   0  0  0  0  0  0  0  0  0  0  0  0
   33.1799   40.3262    4.0514 C   0  0  2  0  0  0  0  0  0  0  0  0
   33.9647   39.0749    4.1406 O   0  0  0  0  0  0  0  0  0  0  0  0
   35.3669   37.1999    7.9583 C   0  0  2  0  0  0  0  0  0  0  0  0
   36.4955   36.8122    7.0695 O   0  0  0  0  0  0  0  0  0  0  0  0
   38.3728   39.6769    5.4515 C   0  0  0  0  0  0  0  0  0  0  0  0
   43.0379   40.9035    6.2844 C   0  0  1  0  0  0  0  0  0  0  0  0
   41.9073   39.9687    6.6088 O   0  0  0  0  0  0  0  0  0  0  0  0
   32.0912   40.2330    2.9569 C   0  0  0  0  0  0  0  0  0  0  0  0
   31.0282   39.2456    3.2202 N   0  0  0  0  0  0  0  0  0  0  0  0
   34.8789   35.9106    8.6528 C   0  0  1  0  0  0  0  0  0  0  0  0
   35.9664   35.3115    9.3649 O   0  0  0  0  0  0  0  0  0  0  0  0
   42.4919   42.3608    6.0287 C   0  0  0  0  0  0  0  0  0  0  0  0
   41.4845   42.5082    4.9302 N   0  0  0  0  0  0  0  0  0  0  0  0
  1  2  1  1  0  0  0
  1  7  1  0  0  0  0
  1 30  1  0  0  0  0
  3  4  1  6  0  0  0
  3  9  1  0  0  0  0
  3 38  1  0  0  0  0
  5 10  1  0  0  0  0
  5 26  1  6  0  0  0
  5 32  1  0  0  0  0
  6 12  1  0  0  0  0
  6 35  1  0  0  0  0
  6 19  1  1  0  0  0
  7  8  1  1  0  0  0
  7 14  1  0  0  0  0
  8 33  1  0  0  0  0
  9 16  1  0  0  0  0
 10 11  1  1  0  0  0
 10 18  1  0  0  0  0
 12 13  1  1  0  0  0
 12 20  1  0  0  0  0
 14 15  1  6  0  0  0
 14 22  1  0  0  0  0
 16 17  1  6  0  0  0
 16 24  1  0  0  0  0
 18 19  1  1  0  0  0
 18 25  1  0  0  0  0
 20 21  1  6  0  0  0
 20 27  1  0  0  0  0
 22 23  1  1  0  0  0
 22 29  1  0  0  0  0
 24  2  1  1  0  0  0
 24 31  1  0  0  0  0
 25 26  1  1  0  0  0
 25 33  1  0  0  0  0
 27 28  1  1  0  0  0
 27 34  1  0  0  0  0
 29 30  1  0  0  0  0
 29 36  1  6  0  0  0
 31 32  1  6  0  0  0
 31 38  1  0  0  0  0
 34 35  1  0  0  0  0
 34 40  1  1  0  0  0
 36 37  1  0  0  0  0
 38 39  1  1  0  0  0
 40 41  1  0  0  0  0
M  END
>  <CHROM.1>
163.86402636,173.45456636,-174.45810176,175.32006043,37.61550256,38.98514956
6.58437895,3.13858605,0.14266629,2.45198349

>  <Name>
ligand

>  <RI>
0

>  <Rbt.Current_Directory>
/home/itssahil/PROJECTS/Mol_Feturizer/New_Systems/rnas/1ZZ5

>  <Rbt.Executable>
rbdock ($Id: //depot/dev/client3/rdock/2013.1/src/exe/rbdock.cxx#4 $)

>  <Rbt.Library>
libRbt.so (2013.1, Build901 2013/11/27)

>  <Rbt.Parameter_File>
/export/apps/rDock/src/rDock_2013.1_src/data/scripts/dock_solv.prm

>  <Rbt.Receptor>
prm/pocket_docking_2.prm

>  <SCORE>
-10.0875

>  <SCORE.INTER>
-7.85938

>  <SCORE.INTER.CONST>
1

>  <SCORE.INTER.POLAR>
0

>  <SCORE.INTER.ROT>
4

>  <SCORE.INTER.SOLV>
17.5795

>  <SCORE.INTER.VDW>
-17.3661

>  <SCORE.INTER.norm>
-0.191692

>  <SCORE.INTRA>
-2.22952

>  <SCORE.INTRA.DIHEDRAL>
-3.35424

>  <SCORE.INTRA.DIHEDRAL.0>
5.18357

>  <SCORE.INTRA.POLAR>
0

>  <SCORE.INTRA.POLAR.0>
0

>  <SCORE.INTRA.REPUL>
0

>  <SCORE.INTRA.REPUL.0>
0

>  <SCORE.INTRA.SOLV>
-1.21387

>  <SCORE.INTRA.SOLV.lig_0>
-109.973

>  <SCORE.INTRA.VDW>
0.0545355

>  <SCORE.INTRA.VDW.0>
-1.68646

>  <SCORE.INTRA.norm>
-0.0543786

>  <SCORE.RESTR>
0.00136283

>  <SCORE.RESTR.CAVITY>
0.00136283

>  <SCORE.RESTR.norm>
3.32397e-05

>  <SCORE.SYSTEM>
0

>  <SCORE.SYSTEM.CONST>
0

>  <SCORE.SYSTEM.DIHEDRAL>
0

>  <SCORE.SYSTEM.SOLV>
0

>  <SCORE.SYSTEM.norm>
0

>  <SCORE.heavy>
41

>  <SCORE.norm>
-0.246037

>  <RMSD>
0.862

$$$$
ligand
 OpenBabel11021811423D
libRbt.so/2013.1/901 2013/11/27
 41 45  0  0  0  0  0  0  0  0999 V2000
   35.0989   39.1377    5.1129 C   0  0  2  0  0  0  0  0  0  0  0  0
   34.5826   39.1811    6.4576 O   0  0  0  0  0  0  0  0  0  0  0  0
   33.7328   36.2354    9.5428 C   0  0  2  0  0  0  0  0  0  0  0  0
   33.2230   34.9989   10.1898 N   0  0  0  0  0  0  0  0  0  0  0  0
   37.9143   37.1768    7.4206 C   0  0  1  0  0  0  0  0  0  0  0  0
   42.3312   38.5383    6.7848 C   0  0  1  0  0  0  0  0  0  0  0  0
   36.0845   40.3159    4.8521 C   0  0  2  0  0  0  0  0  0  0  0  0
   37.1672   40.3844    5.8381 N   0  0  0  0  0  0  0  0  0  0  0  0
   32.5530   36.9449    8.8061 C   0  0  0  0  0  0  0  0  0  0  0  0
   38.9671   36.6669    6.4100 C   0  0  2  0  0  0  0  0  0  0  0  0
   39.6191   35.4798    6.8729 O   0  0  0  0  0  0  0  0  0  0  0  0
   43.4410   38.4008    7.9124 C   0  0  2  0  0  0  0  0  0  0  0  0
   42.9505   38.7040    9.2917 N   0  0  0  0  0  0  0  0  0  0  0  0
   35.3135   41.6630    4.8166 C   0  0  1  0  0  0  0  0  0  0  0  0
   36.2146   42.7347    4.5510 O   0  0  0  0  0  0  0  0  0  0  0  0
   33.0302   38.2475    8.1006 C   0  0  2  0  0  0  0  0  0  0  0  0
   31.8607   38.8582    7.4410 N   0  0  0  0  0  0  0  0  0  0  0  0
   39.9344   37.8492    6.2296 C   0  0  2  0  0  0  0  0  0  0  0  0
   41.1404   37.7242    7.0837 O   0  0  0  0  0  0  0  0  0  0  0  0
   44.6845   39.3380    7.5646 C   0  0  1  0  0  0  0  0  0  0  0  0
   45.3794   38.8700    6.3877 O   0  0  0  0  0  0  0  0  0  0  0  0
   34.2063   41.6021    3.7391 C   0  0  2  0  0  0  0  0  0  0  0  0
   33.5118   42.8307    3.6891 O   0  0  0  0  0  0  0  0  0  0  0  0
   34.1881   37.9201    7.0925 C   0  0  2  0  0  0  0  0  0  0  0  0
   39.1002   39.0684    6.6127 C   0  0  2  0  0  0  0  0  0  0  0  0
   38.0808   38.5943    7.4812 O   0  0  0  0  0  0  0  0  0  0  0  0
   44.2518   40.8416    7.3331 C   0  0  2  0  0  0  0  0  0  0  0  0
   43.7892   41.3973    8.5755 O   0  0  0  0  0  0  0  0  0  0  0  0
   33.2355   40.4428    4.0398 C   0  0  2  0  0  0  0  0  0  0  0  0
   34.0159   39.1872    4.1029 O   0  0  0  0  0  0  0  0  0  0  0  0
   35.4089   37.2265    7.8807 C   0  0  2  0  0  0  0  0  0  0  0  0
   36.5367   36.8539    6.9846 O   0  0  0  0  0  0  0  0  0  0  0  0
   38.4251   39.7459    5.4292 C   0  0  0  0  0  0  0  0  0  0  0  0
   43.1166   40.9092    6.2326 C   0  0  1  0  0  0  0  0  0  0  0  0
   41.9756   39.9849    6.5499 O   0  0  0  0  0  0  0  0  0  0  0  0
   32.1474   40.3767    2.9429 C   0  0  0  0  0  0  0  0  0  0  0  0
   31.0963   39.3678    3.1701 N   0  0  0  0  0  0  0  0  0  0  0  0
   34.9159   35.9244    8.5473 C   0  0  1  0  0  0  0  0  0  0  0  0
   36.0008   35.3065    9.2472 O   0  0  0  0  0  0  0  0  0  0  0  0
   42.5855   42.3713    5.9722 C   0  0  0  0  0  0  0  0  0  0  0  0
   41.5381   42.5171    4.9116 N   0  0  0  0  0  0  0  0  0  0  0  0
  1  2  1  1  0  0  0
  1  7  1  0  0  0  0
  1 30  1  0  0  0  0
  3  4  1  6  0  0  0
  3  9  1  0  0  0  0
  3 38  1  0  0  0  0
  5 10  1  0  0  0  0
  5 26  1  6  0  0  0
  5 32  1  0  0  0  0
  6 12  1  0  0  0  0
  6 35  1  0  0  0  0
  6 19  1  1  0  0  0
  7  8  1  1  0  0  0
  7 14  1  0  0  0  0
  8 33  1  0  0  0  0
  9 16  1  0  0  0  0
 10 11  1  1  0  0  0
 10 18  1  0  0  0  0
 12 13  1  1  0  0  0
 12 20  1  0  0  0  0
 14 15  1  6  0  0  0
 14 22  1  0  0  0  0
 16 17  1  6  0  0  0
 16 24  1  0  0  0  0
 18 19  1  1  0  0  0
 18 25  1  0  0  0  0
 20 21  1  6  0  0  0
 20 27  1  0  0  0  0
 22 23  1  1  0  0  0
 22 29  1  0  0  0  0
 24  2  1  1  0  0  0
 24 31  1  0  0  0  0
 25 26  1  1  0  0  0
 25 33  1  0  0  0  0
 27 28  1  1  0  0  0
 27 34  1  0  0  0  0
 29 30  1  0  0  0  0
 29 36  1  6  0  0  0
 31 32  1  6  0  0  0
 31 38  1  0  0  0  0
 34 35  1  0  0  0  0
 34 40  1  1  0  0  0
 36 37  1  0  0  0  0
 38 39  1  1  0  0  0
 40 41  1  0  0  0  0
M  END
>  <CHROM.1>
163.05057941,172.71043767,-175.70101180,178.18152629,37.66752977,39.02877239
6.53630341,3.14015568,0.13788796,2.47011368

>  <Name>
ligand

>  <RI>
0

>  <Rbt.Current_Directory>
/home/itssahil/PROJECTS/Mol_Feturizer/New_Systems/rnas/1ZZ5

>  <Rbt.Executable>
rbdock ($Id: //depot/dev/client3/rdock/2013.1/src/exe/rbdock.cxx#4 $)

>  <Rbt.Library>
libRbt.so (2013.1, Build901 2013/11/27)

>  <Rbt.Parameter_File>
/export/apps/rDock/src/rDock_2013.1_src/data/scripts/dock_solv.prm

>  <Rbt.Receptor>
prm/pocket_docking_2.prm

>  <SCORE>
-10.0617

>  <SCORE.INTER>
-7.89206

>  <SCORE.INTER.CONST>
1

>  <SCORE.INTER.POLAR>
0

>  <SCORE.INTER.ROT>
4

>  <SCORE.INTER.SOLV>
17.6246

>  <SCORE.INTER.VDW>
-17.4029

>  <SCORE.INTER.norm>
-0.192489

>  <SCORE.INTRA>
-2.17221

>  <SCORE.INTRA.DIHEDRAL>
-3.30442

>  <SCORE.INTRA.DIHEDRAL.0>
5.18357

>  <SCORE.INTRA.POLAR>
0

>  <SCORE.INTRA.POLAR.0>
0

>  <SCORE.INTRA.REPUL>
0

>  <SCORE.INTRA.REPUL.0>
0

>  <SCORE.INTRA.SOLV>
-1.13155

>  <SCORE.INTRA.SOLV.lig_0>
-109.973

>  <SCORE.INTRA.VDW>
0.0457756

>  <SCORE.INTRA.VDW.0>
-1.68646

>  <SCORE.INTRA.norm>
-0.0529807

>  <SCORE.RESTR>
0.00257006

>  <SCORE.RESTR.CAVITY>
0.00257006

>  <SCORE.RESTR.norm>
6.26843e-05

>  <SCORE.SYSTEM>
0

>  <SCORE.SYSTEM.CONST>
0

>  <SCORE.SYSTEM.DIHEDRAL>
0

>  <SCORE.SYSTEM.SOLV>
0

>  <SCORE.SYSTEM.norm>
0

>  <SCORE.heavy>
41

>  <SCORE.norm>
-0.245407

>  <RMSD>
0.865

$$$$
ligand
 OpenBabel11021811423D
libRbt.so/2013.1/901 2013/11/27
 41 45  0  0  0  0  0  0  0  0999 V2000
   34.8504   39.2175    5.0175 C   0  0  2  0  0  0  0  0  0  0  0  0
   34.3432   39.2958    6.3641 O   0  0  0  0  0  0  0  0  0  0  0  0
   33.5596   36.4373    9.5472 C   0  0  2  0  0  0  0  0  0  0  0  0
   33.0729   35.2147   10.2368 N   0  0  0  0  0  0  0  0  0  0  0  0
   37.7113   37.3720    7.3644 C   0  0  1  0  0  0  0  0  0  0  0  0
   42.0452   38.8830    6.7443 C   0  0  1  0  0  0  0  0  0  0  0  0
   35.8165   40.4011    4.7120 C   0  0  2  0  0  0  0  0  0  0  0  0
   36.9052   40.5166    5.6870 N   0  0  0  0  0  0  0  0  0  0  0  0
   32.3641   37.1058    8.7976 C   0  0  0  0  0  0  0  0  0  0  0  0
   38.7642   36.8458    6.3623 C   0  0  2  0  0  0  0  0  0  0  0  0
   39.4371   35.6836    6.8575 O   0  0  0  0  0  0  0  0  0  0  0  0
   43.3087   38.5327    7.6404 C   0  0  2  0  0  0  0  0  0  0  0  0
   43.0166   38.4579    9.1046 N   0  0  0  0  0  0  0  0  0  0  0  0
   35.0253   41.7349    4.6400 C   0  0  1  0  0  0  0  0  0  0  0  0
   35.9085   42.8107    4.3337 O   0  0  0  0  0  0  0  0  0  0  0  0
   32.8168   38.3922    8.0477 C   0  0  2  0  0  0  0  0  0  0  0  0
   31.6336   38.9645    7.3781 N   0  0  0  0  0  0  0  0  0  0  0  0
   39.7125   38.0359    6.1372 C   0  0  2  0  0  0  0  0  0  0  0  0
   40.9263   37.9556    6.9856 O   0  0  0  0  0  0  0  0  0  0  0  0
   44.4702   39.5942    7.3762 C   0  0  1  0  0  0  0  0  0  0  0  0
   44.9970   39.4708    6.0367 O   0  0  0  0  0  0  0  0  0  0  0  0
   33.9114   41.6237    3.5734 C   0  0  2  0  0  0  0  0  0  0  0  0
   33.1984   42.8398    3.4900 O   0  0  0  0  0  0  0  0  0  0  0  0
   33.9722   38.0499    7.0415 C   0  0  2  0  0  0  0  0  0  0  0  0
   38.8630   39.2542    6.4880 C   0  0  2  0  0  0  0  0  0  0  0  0
   37.8571   38.7931    7.3788 O   0  0  0  0  0  0  0  0  0  0  0  0
   43.9791   41.0820    7.5924 C   0  0  2  0  0  0  0  0  0  0  0  0
   43.6897   41.2868    8.9855 O   0  0  0  0  0  0  0  0  0  0  0  0
   32.9602   40.4605    3.9181 C   0  0  2  0  0  0  0  0  0  0  0  0
   33.7596   39.2190    4.0148 O   0  0  0  0  0  0  0  0  0  0  0  0
   35.2087   37.3997    7.8418 C   0  0  2  0  0  0  0  0  0  0  0  0
   36.3355   37.0153    6.9493 O   0  0  0  0  0  0  0  0  0  0  0  0
   38.1695   39.8840    5.2890 C   0  0  0  0  0  0  0  0  0  0  0  0
   42.6958   41.3566    6.7081 C   0  0  1  0  0  0  0  0  0  0  0  0
   41.6309   40.3207    6.9325 O   0  0  0  0  0  0  0  0  0  0  0  0
   31.8653   40.3437    2.8321 C   0  0  0  0  0  0  0  0  0  0  0  0
   30.8495   39.3047    3.0830 N   0  0  0  0  0  0  0  0  0  0  0  0
   34.7400   36.1123    8.5530 C   0  0  1  0  0  0  0  0  0  0  0  0
   35.8389   35.5328    9.2637 O   0  0  0  0  0  0  0  0  0  0  0  0
   42.1039   42.8059    6.8994 C   0  0  0  0  0  0  0  0  0  0  0  0
   40.9127   43.1517    6.0598 N   0  0  0  0  0  0  0  0  0  0  0  0
  1  2  1  1  0  0  0
  1  7  1  0  0  0  0
  1 30  1  0  0  0  0
  3  4  1  6  0  0  0
  3  9  1  0  0  0  0
  3 38  1  0  0  0  0
  5 10  1  0  0  0  0
  5 26  1  6  0  0  0
  5 32  1  0  0  0  0
  6 12  1  0  0  0  0
  6 35  1  0  0  0  0
  6 19  1  1  0  0  0
  7  8  1  1  0  0  0
  7 14  1  0  0  0  0
  8 33  1  0  0  0  0
  9 16  1  0  0  0  0
 10 11  1  1  0  0  0
 10 18  1  0  0  0  0
 12 13  1  1  0  0  0
 12 20  1  0  0  0  0
 14 15  1  6  0  0  0
 14 22  1  0  0  0  0
 16 17  1  6  0  0  0
 16 24  1  0  0  0  0
 18 19  1  1  0  0  0
 18 25  1  0  0  0  0
 20 21  1  6  0  0  0
 20 27  1  0  0  0  0
 22 23  1  1  0  0  0
 22 29  1  0  0  0  0
 24  2  1  1  0  0  0
 24 31  1  0  0  0  0
 25 26  1  1  0  0  0
 25 33  1  0  0  0  0
 27 28  1  1  0  0  0
 27 34  1  0  0  0  0
 29 30  1  0  0  0  0
 29 36  1  6  0  0  0
 31 32  1  6  0  0  0
 31 38  1  0  0  0  0
 34 35  1  0  0  0  0
 34 40  1  1  0  0  0
 36 37  1  0  0  0  0
 38 39  1  1  0  0  0
 40 41  1  0  0  0  0
M  END
>  <CHROM.1>
169.84155176,-173.52590593,-177.12978005,178.10235567,37.42051820,39.19570195
6.53810998,-3.12984732,0.16976581,2.47188323

>  <Name>
ligand

>  <RI>
0

>  <Rbt.Current_Directory>
/home/itssahil/PROJECTS/Mol_Feturizer/New_Systems/rnas/1ZZ5

>  <Rbt.Executable>
rbdock ($Id: //depot/dev/client3/rdock/2013.1/src/exe/rbdock.cxx#4 $)

>  <Rbt.Library>
libRbt.so (2013.1, Build901 2013/11/27)

>  <Rbt.Parameter_File>
/export/apps/rDock/src/rDock_2013.1_src/data/scripts/dock_solv.prm

>  <Rbt.Receptor>
prm/pocket_docking_2.prm

>  <SCORE>
-9.97858

>  <SCORE.INTER>
-7.33686

>  <SCORE.INTER.CONST>
1

>  <SCORE.INTER.POLAR>
0

>  <SCORE.INTER.ROT>
4

>  <SCORE.INTER.SOLV>
18.3225

>  <SCORE.INTER.VDW>
-17.2654

>  <SCORE.INTER.norm>
-0.178948

>  <SCORE.INTRA>
-2.64172

>  <SCORE.INTRA.DIHEDRAL>
-4.21168

>  <SCORE.INTRA.DIHEDRAL.0>
5.18357

>  <SCORE.INTRA.POLAR>
0

>  <SCORE.INTRA.POLAR.0>
0

>  <SCORE.INTRA.REPUL>
0

>  <SCORE.INTRA.REPUL.0>
0

>  <SCORE.INTRA.SOLV>
-1.19776

>  <SCORE.INTRA.SOLV.lig_0>
-109.973

>  <SCORE.INTRA.VDW>
0.0629949

>  <SCORE.INTRA.VDW.0>
-1.68646

>  <SCORE.INTRA.norm>
-0.0644322

>  <SCORE.RESTR>
0

>  <SCORE.RESTR.CAVITY>
0

>  <SCORE.RESTR.norm>
0

>  <SCORE.SYSTEM>
0

>  <SCORE.SYSTEM.CONST>
0

>  <SCORE.SYSTEM.DIHEDRAL>
0

>  <SCORE.SYSTEM.SOLV>
0

>  <SCORE.SYSTEM.norm>
0

>  <SCORE.heavy>
41

>  <SCORE.norm>
-0.24338

>  <RMSD>
0.888

$$$$
ligand
 OpenBabel11021811423D
libRbt.so/2013.1/901 2013/11/27
 41 45  0  0  0  0  0  0  0  0999 V2000
   34.9082   39.1494    5.1367 C   0  0  2  0  0  0  0  0  0  0  0  0
   34.3644   39.2359    6.4684 O   0  0  0  0  0  0  0  0  0  0  0  0
   33.4267   36.3882    9.6195 C   0  0  2  0  0  0  0  0  0  0  0  0
   32.8935   35.1751   10.2913 N   0  0  0  0  0  0  0  0  0  0  0  0
   37.6590   37.2357    7.5592 C   0  0  1  0  0  0  0  0  0  0  0  0
   42.1004   38.5418    6.9749 C   0  0  1  0  0  0  0  0  0  0  0  0
   35.9086   40.3120    4.8625 C   0  0  2  0  0  0  0  0  0  0  0  0
   36.9711   40.4012    5.8686 N   0  0  0  0  0  0  0  0  0  0  0  0
   32.2683   37.0848    8.8379 C   0  0  0  0  0  0  0  0  0  0  0  0
   38.7284   36.6885    6.5862 C   0  0  2  0  0  0  0  0  0  0  0  0
   39.3609   35.5106    7.0971 O   0  0  0  0  0  0  0  0  0  0  0  0
   43.1984   38.4047    8.1141 C   0  0  2  0  0  0  0  0  0  0  0  0
   42.7002   38.7339    9.4846 N   0  0  0  0  0  0  0  0  0  0  0  0
   35.1494   41.6632    4.7717 C   0  0  1  0  0  0  0  0  0  0  0  0
   36.0646   42.7198    4.4940 O   0  0  0  0  0  0  0  0  0  0  0  0
   32.7707   38.3625    8.1049 C   0  0  2  0  0  0  0  0  0  0  0  0
   31.6201   38.9625    7.4034 N   0  0  0  0  0  0  0  0  0  0  0  0
   39.7088   37.8578    6.3918 C   0  0  2  0  0  0  0  0  0  0  0  0
   40.8957   37.7487    7.2744 O   0  0  0  0  0  0  0  0  0  0  0  0
   44.4579   39.3195    7.7643 C   0  0  1  0  0  0  0  0  0  0  0  0
   45.1563   38.8253    6.6003 O   0  0  0  0  0  0  0  0  0  0  0  0
   34.0644   41.5792    3.6733 C   0  0  2  0  0  0  0  0  0  0  0  0
   33.3811   42.8109    3.5730 O   0  0  0  0  0  0  0  0  0  0  0  0
   33.9466   37.9970    7.1313 C   0  0  2  0  0  0  0  0  0  0  0  0
   38.8767   39.0938    6.7217 C   0  0  2  0  0  0  0  0  0  0  0  0
   37.8357   38.6531    7.5820 O   0  0  0  0  0  0  0  0  0  0  0  0
   44.0485   40.8255    7.5082 C   0  0  2  0  0  0  0  0  0  0  0  0
   43.5830   41.4050    8.7386 O   0  0  0  0  0  0  0  0  0  0  0  0
   33.0782   40.4365    3.9872 C   0  0  2  0  0  0  0  0  0  0  0  0
   33.8469   39.1774    4.1031 O   0  0  0  0  0  0  0  0  0  0  0  0
   35.1450   37.3177    7.9649 C   0  0  2  0  0  0  0  0  0  0  0  0
   36.2882   36.9105    7.1039 O   0  0  0  0  0  0  0  0  0  0  0  0
   38.2319   39.7416    5.5051 C   0  0  0  0  0  0  0  0  0  0  0  0
   42.9240   40.8936    6.3968 C   0  0  1  0  0  0  0  0  0  0  0  0
   41.7673   39.9898    6.7168 O   0  0  0  0  0  0  0  0  0  0  0  0
   32.0126   40.3465    2.8700 C   0  0  0  0  0  0  0  0  0  0  0  0
   30.9368   39.3683    3.1147 N   0  0  0  0  0  0  0  0  0  0  0  0
   34.6277   36.0394    8.6585 C   0  0  1  0  0  0  0  0  0  0  0  0
   35.6927   35.4341    9.3988 O   0  0  0  0  0  0  0  0  0  0  0  0
   42.4158   42.3591    6.1115 C   0  0  0  0  0  0  0  0  0  0  0  0
   41.4580   42.5185    4.9710 N   0  0  0  0  0  0  0  0  0  0  0  0
  1  2  1  1  0  0  0
  1  7  1  0  0  0  0
  1 30  1  0  0  0  0
  3  4  1  6  0  0  0
  3  9  1  0  0  0  0
  3 38  1  0  0  0  0
  5 10  1  0  0  0  0
  5 26  1  6  0  0  0
  5 32  1  0  0  0  0
  6 12  1  0  0  0  0
  6 35  1  0  0  0  0
  6 19  1  1  0  0  0
  7  8  1  1  0  0  0
  7 14  1  0  0  0  0
  8 33  1  0  0  0  0
  9 16  1  0  0  0  0
 10 11  1  1  0  0  0
 10 18  1  0  0  0  0
 12 13  1  1  0  0  0
 12 20  1  0  0  0  0
 14 15  1  6  0  0  0
 14 22  1  0  0  0  0
 16 17  1  6  0  0  0
 16 24  1  0  0  0  0
 18 19  1  1  0  0  0
 18 25  1  0  0  0  0
 20 21  1  6  0  0  0
 20 27  1  0  0  0  0
 22 23  1  1  0  0  0
 22 29  1  0  0  0  0
 24  2  1  1  0  0  0
 24 31  1  0  0  0  0
 25 26  1  1  0  0  0
 25 33  1  0  0  0  0
 27 28  1  1  0  0  0
 27 34  1  0  0  0  0
 29 30  1  0  0  0  0
 29 36  1  6  0  0  0
 31 32  1  6  0  0  0
 31 38  1  0  0  0  0
 34 35  1  0  0  0  0
 34 40  1  1  0  0  0
 36 37  1  0  0  0  0
 38 39  1  1  0  0  0
 40 41  1  0  0  0  0
M  END
>  <CHROM.1>
162.87613097,173.95818901,-174.74186643,173.70381964,37.45118380,39.06013377
6.61803593,-3.12253532,0.14829115,2.43903259

>  <Name>
ligand

>  <RI>
0

>  <Rbt.Current_Directory>
/home/itssahil/PROJECTS/Mol_Feturizer/New_Systems/rnas/1ZZ5

>  <Rbt.Executable>
rbdock ($Id: //depot/dev/client3/rdock/2013.1/src/exe/rbdock.cxx#4 $)

>  <Rbt.Library>
libRbt.so (2013.1, Build901 2013/11/27)

>  <Rbt.Parameter_File>
/export/apps/rDock/src/rDock_2013.1_src/data/scripts/dock_solv.prm

>  <Rbt.Receptor>
prm/pocket_docking_2.prm

>  <SCORE>
-10.0276

>  <SCORE.INTER>
-7.83273

>  <SCORE.INTER.CONST>
1

>  <SCORE.INTER.POLAR>
0

>  <SCORE.INTER.ROT>
4

>  <SCORE.INTER.SOLV>
17.7594

>  <SCORE.INTER.VDW>
-17.4083

>  <SCORE.INTER.norm>
-0.191042

>  <SCORE.INTRA>
-2.19483

>  <SCORE.INTRA.DIHEDRAL>
-3.1905

>  <SCORE.INTRA.DIHEDRAL.0>
5.18357

>  <SCORE.INTRA.POLAR>
0

>  <SCORE.INTRA.POLAR.0>
0

>  <SCORE.INTRA.REPUL>
0

>  <SCORE.INTRA.REPUL.0>
0

>  <SCORE.INTRA.SOLV>
-1.29594

>  <SCORE.INTRA.SOLV.lig_0>
-109.973

>  <SCORE.INTRA.VDW>
0.0483871

>  <SCORE.INTRA.VDW.0>
-1.68646

>  <SCORE.INTRA.norm>
-0.0535325

>  <SCORE.RESTR>
0

>  <SCORE.RESTR.CAVITY>
0

>  <SCORE.RESTR.norm>
0

>  <SCORE.SYSTEM>
0

>  <SCORE.SYSTEM.CONST>
0

>  <SCORE.SYSTEM.DIHEDRAL>
0

>  <SCORE.SYSTEM.SOLV>
0

>  <SCORE.SYSTEM.norm>
0

>  <SCORE.heavy>
41

>  <SCORE.norm>
-0.244575

>  <RMSD>
0.904

$$$$
ligand
 OpenBabel11021811423D
libRbt.so/2013.1/901 2013/11/27
 41 45  0  0  0  0  0  0  0  0999 V2000
   34.8675   39.1962    5.0273 C   0  0  2  0  0  0  0  0  0  0  0  0
   34.3571   39.2749    6.3726 O   0  0  0  0  0  0  0  0  0  0  0  0
   33.5533   36.4157    9.5501 C   0  0  2  0  0  0  0  0  0  0  0  0
   33.0597   35.1943   10.2369 N   0  0  0  0  0  0  0  0  0  0  0  0
   37.7145   37.3358    7.3793 C   0  0  1  0  0  0  0  0  0  0  0  0
   42.0504   38.8389    6.7817 C   0  0  1  0  0  0  0  0  0  0  0  0
   35.8393   40.3761    4.7259 C   0  0  2  0  0  0  0  0  0  0  0  0
   36.9259   40.4859    5.7038 N   0  0  0  0  0  0  0  0  0  0  0  0
   32.3625   37.0902    8.7982 C   0  0  0  0  0  0  0  0  0  0  0  0
   38.7678   36.8065    6.3793 C   0  0  2  0  0  0  0  0  0  0  0  0
   39.4345   35.6409    6.8748 O   0  0  0  0  0  0  0  0  0  0  0  0
   43.3077   38.4892    7.6868 C   0  0  2  0  0  0  0  0  0  0  0  0
   43.0035   38.4071    9.1482 N   0  0  0  0  0  0  0  0  0  0  0  0
   35.0539   41.7134    4.6535 C   0  0  1  0  0  0  0  0  0  0  0  0
   35.9423   42.7858    4.3509 O   0  0  0  0  0  0  0  0  0  0  0  0
   32.8225   38.3756    8.0511 C   0  0  2  0  0  0  0  0  0  0  0  0
   31.6435   38.9537    7.3792 N   0  0  0  0  0  0  0  0  0  0  0  0
   39.7217   37.9929    6.1582 C   0  0  2  0  0  0  0  0  0  0  0  0
   40.9329   37.9065    7.0097 O   0  0  0  0  0  0  0  0  0  0  0  0
   44.4675   39.5560    7.4369 C   0  0  1  0  0  0  0  0  0  0  0  0
   45.0059   39.4402    6.1014 O   0  0  0  0  0  0  0  0  0  0  0  0
   33.9423   41.6081    3.5839 C   0  0  2  0  0  0  0  0  0  0  0  0
   33.2346   42.8273    3.5001 O   0  0  0  0  0  0  0  0  0  0  0  0
   33.9791   38.0298    7.0475 C   0  0  2  0  0  0  0  0  0  0  0  0
   38.8763   39.2143    6.5083 C   0  0  2  0  0  0  0  0  0  0  0  0
   37.8662   38.7563    7.3959 O   0  0  0  0  0  0  0  0  0  0  0  0
   43.9692   41.0411    7.6553 C   0  0  2  0  0  0  0  0  0  0  0  0
   43.6676   41.2389    9.0469 O   0  0  0  0  0  0  0  0  0  0  0  0
   32.9853   40.4484    3.9246 C   0  0  2  0  0  0  0  0  0  0  0  0
   33.7793   39.2036    4.0217 O   0  0  0  0  0  0  0  0  0  0  0  0
   35.2108   37.3734    7.8503 C   0  0  2  0  0  0  0  0  0  0  0  0
   36.3383   36.9854    6.9602 O   0  0  0  0  0  0  0  0  0  0  0  0
   38.1885   39.8485    5.3083 C   0  0  0  0  0  0  0  0  0  0  0  0
   42.6924   41.3149    6.7615 C   0  0  1  0  0  0  0  0  0  0  0  0
   41.6294   40.2743    6.9725 O   0  0  0  0  0  0  0  0  0  0  0  0
   31.8928   40.3376    2.8356 C   0  0  0  0  0  0  0  0  0  0  0  0
   30.8687   39.3065    3.0854 N   0  0  0  0  0  0  0  0  0  0  0  0
   34.7349   36.0871    8.5586 C   0  0  1  0  0  0  0  0  0  0  0  0
   35.8295   35.5021    9.2714 O   0  0  0  0  0  0  0  0  0  0  0  0
   42.0937   42.7613    6.9540 C   0  0  0  0  0  0  0  0  0  0  0  0
   40.9157   43.1106    6.0976 N   0  0  0  0  0  0  0  0  0  0  0  0
  1  2  1  1  0  0  0
  1  7  1  0  0  0  0
  1 30  1  0  0  0  0
  3  4  1  6  0  0  0
  3  9  1  0  0  0  0
  3 38  1  0  0  0  0
  5 10  1  0  0  0  0
  5 26  1  6  0  0  0
  5 32  1  0  0  0  0
  6 12  1  0  0  0  0
  6 35  1  0  0  0  0
  6 19  1  1  0  0  0
  7  8  1  1  0  0  0
  7 14  1  0  0  0  0
  8 33  1  0  0  0  0
  9 16  1  0  0  0  0
 10 11  1  1  0  0  0
 10 18  1  0  0  0  0
 12 13  1  1  0  0  0
 12 20  1  0  0  0  0
 14 15  1  6  0  0  0
 14 22  1  0  0  0  0
 16 17  1  6  0  0  0
 16 24  1  0  0  0  0
 18 19  1  1  0  0  0
 18 25  1  0  0  0  0
 20 21  1  6  0  0  0
 20 27  1  0  0  0  0
 22 23  1  1  0  0  0
 22 29  1  0  0  0  0
 24  2  1  1  0  0  0
 24 31  1  0  0  0  0
 25 26  1  1  0  0  0
 25 33  1  0  0  0  0
 27 28  1  1  0  0  0
 27 34  1  0  0  0  0
 29 30  1  0  0  0  0
 29 36  1  6  0  0  0
 31 32  1  6  0  0  0
 31 38  1  0  0  0  0
 34 35  1  0  0  0  0
 34 40  1  1  0  0  0
 36 37  1  0  0  0  0
 38 39  1  1  0  0  0
 40 41  1  0  0  0  0
M  END
>  <CHROM.1>
170.48577614,-173.99053533,-176.87707863,177.59886116,37.42787990,39.16599241
6.55966145,-3.12460332,0.17166453,2.47298062

>  <Name>
ligand

>  <RI>
0

>  <Rbt.Current_Directory>
/home/itssahil/PROJECTS/Mol_Feturizer/New_Systems/rnas/1ZZ5

>  <Rbt.Executable>
rbdock ($Id: //depot/dev/client3/rdock/2013.1/src/exe/rbdock.cxx#4 $)

>  <Rbt.Library>
libRbt.so (2013.1, Build901 2013/11/27)

>  <Rbt.Parameter_File>
/export/apps/rDock/src/rDock_2013.1_src/data/scripts/dock_solv.prm

>  <Rbt.Receptor>
prm/pocket_docking_2.prm

>  <SCORE>
-10.0366

>  <SCORE.INTER>
-7.37516

>  <SCORE.INTER.CONST>
1

>  <SCORE.INTER.POLAR>
0

>  <SCORE.INTER.ROT>
4

>  <SCORE.INTER.SOLV>
18.2796

>  <SCORE.INTER.VDW>
-17.2766

>  <SCORE.INTER.norm>
-0.179882

>  <SCORE.INTRA>
-2.66146

>  <SCORE.INTRA.DIHEDRAL>
-4.28412

>  <SCORE.INTRA.DIHEDRAL.0>
5.18357

>  <SCORE.INTRA.POLAR>
0

>  <SCORE.INTRA.POLAR.0>
0

>  <SCORE.INTRA.REPUL>
0

>  <SCORE.INTRA.REPUL.0>
0

>  <SCORE.INTRA.SOLV>
-1.18242

>  <SCORE.INTRA.SOLV.lig_0>
-109.973

>  <SCORE.INTRA.VDW>
0.0718165

>  <SCORE.INTRA.VDW.0>
-1.68646

>  <SCORE.INTRA.norm>
-0.0649135

>  <SCORE.RESTR>
0

>  <SCORE.RESTR.CAVITY>
0

>  <SCORE.RESTR.norm>
0

>  <SCORE.SYSTEM>
0

>  <SCORE.SYSTEM.CONST>
0

>  <SCORE.SYSTEM.DIHEDRAL>
0

>  <SCORE.SYSTEM.SOLV>
0

>  <SCORE.SYSTEM.norm>
0

>  <SCORE.heavy>
41

>  <SCORE.norm>
-0.244795

>  <RMSD>
0.908

$$$$
ligand
 OpenBabel11021811423D
libRbt.so/2013.1/901 2013/11/27
 41 45  0  0  0  0  0  0  0  0999 V2000
   34.5904   39.2433    4.9939 C   0  0  2  0  0  0  0  0  0  0  0  0
   34.1297   39.3238    6.3569 O   0  0  0  0  0  0  0  0  0  0  0  0
   33.4388   36.4681    9.5640 C   0  0  2  0  0  0  0  0  0  0  0  0
   32.9691   35.2478   10.2694 N   0  0  0  0  0  0  0  0  0  0  0  0
   37.5191   37.3810    7.2417 C   0  0  1  0  0  0  0  0  0  0  0  0
   41.8498   38.8469    6.4543 C   0  0  1  0  0  0  0  0  0  0  0  0
   35.5521   40.4218    4.6561 C   0  0  2  0  0  0  0  0  0  0  0  0
   36.6739   40.5308    5.5936 N   0  0  0  0  0  0  0  0  0  0  0  0
   32.2223   37.1435    8.8556 C   0  0  0  0  0  0  0  0  0  0  0  0
   38.5345   36.8495    6.2043 C   0  0  2  0  0  0  0  0  0  0  0  0
   39.2173   35.6834    6.6759 O   0  0  0  0  0  0  0  0  0  0  0  0
   43.1081   38.5475    7.3759 C   0  0  2  0  0  0  0  0  0  0  0  0
   42.8116   38.5741    8.8409 N   0  0  0  0  0  0  0  0  0  0  0  0
   34.7663   41.7600    4.6114 C   0  0  1  0  0  0  0  0  0  0  0  0
   35.6445   42.8310    4.2756 O   0  0  0  0  0  0  0  0  0  0  0  0
   32.6564   38.4278    8.0911 C   0  0  2  0  0  0  0  0  0  0  0  0
   31.4543   39.0069    7.4623 N   0  0  0  0  0  0  0  0  0  0  0  0
   39.4811   38.0344    5.9475 C   0  0  2  0  0  0  0  0  0  0  0  0
   40.7226   37.9471    6.7541 O   0  0  0  0  0  0  0  0  0  0  0  0
   44.2791   39.5792    7.0443 C   0  0  1  0  0  0  0  0  0  0  0  0
   44.8082   39.3614    5.7179 O   0  0  0  0  0  0  0  0  0  0  0  0
   33.6162   41.6554    3.5832 C   0  0  2  0  0  0  0  0  0  0  0  0
   32.9075   42.8754    3.5244 O   0  0  0  0  0  0  0  0  0  0  0  0
   33.7750   38.0797    7.0462 C   0  0  2  0  0  0  0  0  0  0  0  0
   38.6508   39.2572    6.3273 C   0  0  2  0  0  0  0  0  0  0  0  0
   37.6731   38.8012    7.2516 O   0  0  0  0  0  0  0  0  0  0  0  0
   43.7999   41.0822    7.1581 C   0  0  2  0  0  0  0  0  0  0  0  0
   43.5088   41.3829    8.5334 O   0  0  0  0  0  0  0  0  0  0  0  0
   32.6708   40.4972    3.9596 C   0  0  2  0  0  0  0  0  0  0  0  0
   33.4662   39.2514    4.0287 O   0  0  0  0  0  0  0  0  0  0  0  0
   35.0344   37.4222    7.8039 C   0  0  2  0  0  0  0  0  0  0  0  0
   36.1281   37.0321    6.8735 O   0  0  0  0  0  0  0  0  0  0  0  0
   37.9204   39.8914    5.1526 C   0  0  0  0  0  0  0  0  0  0  0  0
   42.5212   41.3070    6.2533 C   0  0  1  0  0  0  0  0  0  0  0  0
   41.4471   40.2974    6.5438 O   0  0  0  0  0  0  0  0  0  0  0  0
   31.5390   40.3870    2.9115 C   0  0  0  0  0  0  0  0  0  0  0  0
   30.5111   39.3732    3.2111 N   0  0  0  0  0  0  0  0  0  0  0  0
   34.5830   36.1371    8.5301 C   0  0  1  0  0  0  0  0  0  0  0  0
   35.7022   35.5512    9.2030 O   0  0  0  0  0  0  0  0  0  0  0  0
   41.9410   42.7707    6.3446 C   0  0  0  0  0  0  0  0  0  0  0  0
   42.8688   43.8776    5.9481 N   0  0  0  0  0  0  0  0  0  0  0  0
  1  2  1  1  0  0  0
  1  7  1  0  0  0  0
  1 30  1  0  0  0  0
  3  4  1  6  0  0  0
  3  9  1  0  0  0  0
  3 38  1  0  0  0  0
  5 10  1  0  0  0  0
  5 26  1  6  0  0  0
  5 32  1  0  0  0  0
  6 12  1  0  0  0  0
  6 35  1  0  0  0  0
  6 19  1  1  0  0  0
  7  8  1  1  0  0  0
  7 14  1  0  0  0  0
  8 33  1  0  0  0  0
  9 16  1  0  0  0  0
 10 11  1  1  0  0  0
 10 18  1  0  0  0  0
 12 13  1  1  0  0  0
 12 20  1  0  0  0  0
 14 15  1  6  0  0  0
 14 22  1  0  0  0  0
 16 17  1  6  0  0  0
 16 24  1  0  0  0  0
 18 19  1  1  0  0  0
 18 25  1  0  0  0  0
 20 21  1  6  0  0  0
 20 27  1  0  0  0  0
 22 23  1  1  0  0  0
 22 29  1  0  0  0  0
 24  2  1  1  0  0  0
 24 31  1  0  0  0  0
 25 26  1  1  0  0  0
 25 33  1  0  0  0  0
 27 28  1  1  0  0  0
 27 34  1  0  0  0  0
 29 30  1  0  0  0  0
 29 36  1  6  0  0  0
 31 32  1  6  0  0  0
 31 38  1  0  0  0  0
 34 35  1  0  0  0  0
 34 40  1  1  0  0  0
 36 37  1  0  0  0  0
 38 39  1  1  0  0  0
 40 41  1  0  0  0  0
M  END
>  <CHROM.1>
168.39263979,-177.05541607,-175.88283455,59.36997824,37.26053428,39.22908119
6.41285585,3.10696484,0.14272831,2.48115385

>  <Name>
ligand

>  <RI>
0

>  <Rbt.Current_Directory>
/home/itssahil/PROJECTS/Mol_Feturizer/New_Systems/rnas/1ZZ5

>  <Rbt.Executable>
rbdock ($Id: //depot/dev/client3/rdock/2013.1/src/exe/rbdock.cxx#4 $)

>  <Rbt.Library>
libRbt.so (2013.1, Build901 2013/11/27)

>  <Rbt.Parameter_File>
/export/apps/rDock/src/rDock_2013.1_src/data/scripts/dock_solv.prm

>  <Rbt.Receptor>
prm/pocket_docking_2.prm

>  <SCORE>
-10.6061

>  <SCORE.INTER>
-8.07731

>  <SCORE.INTER.CONST>
1

>  <SCORE.INTER.POLAR>
0

>  <SCORE.INTER.ROT>
4

>  <SCORE.INTER.SOLV>
18.4353

>  <SCORE.INTER.VDW>
-17.7966

>  <SCORE.INTER.norm>
-0.197008

>  <SCORE.INTRA>
-2.53203

>  <SCORE.INTRA.DIHEDRAL>
-4.20689

>  <SCORE.INTRA.DIHEDRAL.0>
5.18357

>  <SCORE.INTRA.POLAR>
0

>  <SCORE.INTRA.POLAR.0>
0

>  <SCORE.INTRA.REPUL>
0

>  <SCORE.INTRA.REPUL.0>
0

>  <SCORE.INTRA.SOLV>
-1.1311

>  <SCORE.INTRA.SOLV.lig_0>
-109.973

>  <SCORE.INTRA.VDW>
0.136971

>  <SCORE.INTRA.VDW.0>
-1.68646

>  <SCORE.INTRA.norm>
-0.0617567

>  <SCORE.RESTR>
0.0032685

>  <SCORE.RESTR.CAVITY>
0.0032685

>  <SCORE.RESTR.norm>
7.97196e-05

>  <SCORE.SYSTEM>
0

>  <SCORE.SYSTEM.CONST>
0

>  <SCORE.SYSTEM.DIHEDRAL>
0

>  <SCORE.SYSTEM.SOLV>
0

>  <SCORE.SYSTEM.norm>
0

>  <SCORE.heavy>
41

>  <SCORE.norm>
-0.258685

>  <RMSD>
0.912

$$$$
ligand
 OpenBabel11021811423D
libRbt.so/2013.1/901 2013/11/27
 41 45  0  0  0  0  0  0  0  0999 V2000
   34.8421   39.1954    5.0441 C   0  0  2  0  0  0  0  0  0  0  0  0
   34.3290   39.2776    6.3881 O   0  0  0  0  0  0  0  0  0  0  0  0
   33.5123   36.4256    9.5688 C   0  0  2  0  0  0  0  0  0  0  0  0
   33.0147   35.2064   10.2567 N   0  0  0  0  0  0  0  0  0  0  0  0
   37.6801   37.3332    7.4053 C   0  0  1  0  0  0  0  0  0  0  0  0
   42.0200   38.8269    6.8153 C   0  0  1  0  0  0  0  0  0  0  0  0
   35.8170   40.3728    4.7426 C   0  0  2  0  0  0  0  0  0  0  0  0
   36.9018   40.4820    5.7228 N   0  0  0  0  0  0  0  0  0  0  0  0
   32.3246   37.1013    8.8132 C   0  0  0  0  0  0  0  0  0  0  0  0
   38.7345   36.7999    6.4085 C   0  0  2  0  0  0  0  0  0  0  0  0
   39.3977   35.6338    6.9074 O   0  0  0  0  0  0  0  0  0  0  0  0
   43.2657   38.4912    7.7413 C   0  0  2  0  0  0  0  0  0  0  0  0
   42.9429   38.4288    9.1996 N   0  0  0  0  0  0  0  0  0  0  0  0
   35.0346   41.7116    4.6662 C   0  0  1  0  0  0  0  0  0  0  0  0
   35.9259   42.7816    4.3637 O   0  0  0  0  0  0  0  0  0  0  0  0
   32.7889   38.3844    8.0649 C   0  0  2  0  0  0  0  0  0  0  0  0
   31.6125   38.9638    7.3894 N   0  0  0  0  0  0  0  0  0  0  0  0
   39.6913   37.9839    6.1874 C   0  0  2  0  0  0  0  0  0  0  0  0
   40.9005   37.8965    7.0416 O   0  0  0  0  0  0  0  0  0  0  0  0
   44.4277   39.5558    7.4917 C   0  0  1  0  0  0  0  0  0  0  0  0
   44.9834   39.4222    6.1649 O   0  0  0  0  0  0  0  0  0  0  0  0
   33.9251   41.6068    3.5944 C   0  0  2  0  0  0  0  0  0  0  0  0
   33.2201   42.8273    3.5070 O   0  0  0  0  0  0  0  0  0  0  0  0
   33.9469   38.0344    7.0644 C   0  0  2  0  0  0  0  0  0  0  0  0
   38.8478   39.2077    6.5336 C   0  0  2  0  0  0  0  0  0  0  0  0
   37.8347   38.7533    7.4198 O   0  0  0  0  0  0  0  0  0  0  0  0
   43.9252   41.0431    7.6832 C   0  0  2  0  0  0  0  0  0  0  0  0
   43.6053   41.2597    9.0679 O   0  0  0  0  0  0  0  0  0  0  0  0
   32.9649   40.4497    3.9351 C   0  0  2  0  0  0  0  0  0  0  0  0
   33.7561   39.2034    4.0361 O   0  0  0  0  0  0  0  0  0  0  0  0
   35.1755   37.3768    7.8709 C   0  0  2  0  0  0  0  0  0  0  0  0
   36.3041   36.9850    6.9839 O   0  0  0  0  0  0  0  0  0  0  0  0
   38.1639   39.8412    5.3310 C   0  0  0  0  0  0  0  0  0  0  0  0
   42.6597   41.3032    6.7693 C   0  0  1  0  0  0  0  0  0  0  0  0
   41.5951   40.2644    6.9809 O   0  0  0  0  0  0  0  0  0  0  0  0
   31.8745   40.3393    2.8440 C   0  0  0  0  0  0  0  0  0  0  0  0
   30.8571   39.2996    3.0851 N   0  0  0  0  0  0  0  0  0  0  0  0
   34.6954   36.0927    8.5804 C   0  0  1  0  0  0  0  0  0  0  0  0
   35.7872   35.5067    9.2966 O   0  0  0  0  0  0  0  0  0  0  0  0
   42.0572   42.7513    6.9341 C   0  0  0  0  0  0  0  0  0  0  0  0
   40.9047   43.0955    6.0416 N   0  0  0  0  0  0  0  0  0  0  0  0
  1  2  1  1  0  0  0
  1  7  1  0  0  0  0
  1 30  1  0  0  0  0
  3  4  1  6  0  0  0
  3  9  1  0  0  0  0
  3 38  1  0  0  0  0
  5 10  1  0  0  0  0
  5 26  1  6  0  0  0
  5 32  1  0  0  0  0
  6 12  1  0  0  0  0
  6 35  1  0  0  0  0
  6 19  1  1  0  0  0
  7  8  1  1  0  0  0
  7 14  1  0  0  0  0
  8 33  1  0  0  0  0
  9 16  1  0  0  0  0
 10 11  1  1  0  0  0
 10 18  1  0  0  0  0
 12 13  1  1  0  0  0
 12 20  1  0  0  0  0
 14 15  1  6  0  0  0
 14 22  1  0  0  0  0
 16 17  1  6  0  0  0
 16 24  1  0  0  0  0
 18 19  1  1  0  0  0
 18 25  1  0  0  0  0
 20 21  1  6  0  0  0
 20 27  1  0  0  0  0
 22 23  1  1  0  0  0
 22 29  1  0  0  0  0
 24  2  1  1  0  0  0
 24 31  1  0  0  0  0
 25 26  1  1  0  0  0
 25 33  1  0  0  0  0
 27 28  1  1  0  0  0
 27 34  1  0  0  0  0
 29 30  1  0  0  0  0
 29 36  1  6  0  0  0
 31 32  1  6  0  0  0
 31 38  1  0  0  0  0
 34 35  1  0  0  0  0
 34 40  1  1  0  0  0
 36 37  1  0  0  0  0
 38 39  1  1  0  0  0
 40 41  1  0  0  0  0
M  END
>  <CHROM.1>
170.54286822,-174.96013102,-177.59436395,176.60090537,37.39664673,39.16524011
6.57913884,-3.12313013,0.17245198,2.46977305

>  <Name>
ligand

>  <RI>
0

>  <Rbt.Current_Directory>
/home/itssahil/PROJECTS/Mol_Feturizer/New_Systems/rnas/1ZZ5

>  <Rbt.Executable>
rbdock ($Id: //depot/dev/client3/rdock/2013.1/src/exe/rbdock.cxx#4 $)

>  <Rbt.Library>
libRbt.so (2013.1, Build901 2013/11/27)

>  <Rbt.Parameter_File>
/export/apps/rDock/src/rDock_2013.1_src/data/scripts/dock_solv.prm

>  <Rbt.Receptor>
prm/pocket_docking_2.prm

>  <SCORE>
-10.0208

>  <SCORE.INTER>
-7.33803

>  <SCORE.INTER.CONST>
1

>  <SCORE.INTER.POLAR>
0

>  <SCORE.INTER.ROT>
4

>  <SCORE.INTER.SOLV>
18.2881

>  <SCORE.INTER.VDW>
-17.2547

>  <SCORE.INTER.norm>
-0.178976

>  <SCORE.INTRA>
-2.68277

>  <SCORE.INTRA.DIHEDRAL>
-4.33219

>  <SCORE.INTRA.DIHEDRAL.0>
5.18357

>  <SCORE.INTRA.POLAR>
0

>  <SCORE.INTRA.POLAR.0>
0

>  <SCORE.INTRA.REPUL>
0

>  <SCORE.INTRA.REPUL.0>
0

>  <SCORE.INTRA.SOLV>
-1.18856

>  <SCORE.INTRA.SOLV.lig_0>
-109.973

>  <SCORE.INTRA.VDW>
0.0776077

>  <SCORE.INTRA.VDW.0>
-1.68646

>  <SCORE.INTRA.norm>
-0.0654334

>  <SCORE.RESTR>
0

>  <SCORE.RESTR.CAVITY>
0

>  <SCORE.RESTR.norm>
0

>  <SCORE.SYSTEM>
0

>  <SCORE.SYSTEM.CONST>
0

>  <SCORE.SYSTEM.DIHEDRAL>
0

>  <SCORE.SYSTEM.SOLV>
0

>  <SCORE.SYSTEM.norm>
0

>  <SCORE.heavy>
41

>  <SCORE.norm>
-0.24441

>  <RMSD>
0.915

$$$$
ligand
 OpenBabel11021811423D
libRbt.so/2013.1/901 2013/11/27
 41 45  0  0  0  0  0  0  0  0999 V2000
   35.0400   39.4719    4.8211 C   0  0  2  0  0  0  0  0  0  0  0  0
   34.5800   39.4496    6.1865 O   0  0  0  0  0  0  0  0  0  0  0  0
   34.1741   36.4051    9.2661 C   0  0  2  0  0  0  0  0  0  0  0  0
   33.8239   35.1166    9.9178 N   0  0  0  0  0  0  0  0  0  0  0  0
   38.1404   37.7965    6.9841 C   0  0  1  0  0  0  0  0  0  0  0  0
   42.2126   39.8119    6.4139 C   0  0  1  0  0  0  0  0  0  0  0  0
   35.8856   40.7488    4.5347 C   0  0  2  0  0  0  0  0  0  0  0  0
   36.9965   40.9217    5.4756 N   0  0  0  0  0  0  0  0  0  0  0  0
   32.8965   36.9936    8.5885 C   0  0  0  0  0  0  0  0  0  0  0  0
   39.1964   37.4081    5.9240 C   0  0  2  0  0  0  0  0  0  0  0  0
   39.9876   36.2917    6.3440 O   0  0  0  0  0  0  0  0  0  0  0  0
   43.5705   39.5301    7.1877 C   0  0  2  0  0  0  0  0  0  0  0  0
   43.3882   39.1535    8.6229 N   0  0  0  0  0  0  0  0  0  0  0  0
   34.9778   42.0082    4.5488 C   0  0  1  0  0  0  0  0  0  0  0  0
   35.7502   43.1704    4.2597 O   0  0  0  0  0  0  0  0  0  0  0  0
   33.2049   38.3449    7.8806 C   0  0  2  0  0  0  0  0  0  0  0  0
   31.9510   38.8355    7.2782 N   0  0  0  0  0  0  0  0  0  0  0  0
   40.0268   38.6865    5.7188 C   0  0  2  0  0  0  0  0  0  0  0  0
   41.2745   38.6810    6.5203 O   0  0  0  0  0  0  0  0  0  0  0  0
   44.5275   40.8023    7.0818 C   0  0  1  0  0  0  0  0  0  0  0  0
   44.9807   41.0045    5.7251 O   0  0  0  0  0  0  0  0  0  0  0  0
   33.8378   41.8410    3.5176 C   0  0  2  0  0  0  0  0  0  0  0  0
   33.0178   42.9906    3.5124 O   0  0  0  0  0  0  0  0  0  0  0  0
   34.3465   38.1489    6.8210 C   0  0  2  0  0  0  0  0  0  0  0  0
   39.0873   39.8085    6.1520 C   0  0  2  0  0  0  0  0  0  0  0  0
   38.1608   39.2231    7.0560 O   0  0  0  0  0  0  0  0  0  0  0  0
   43.8190   42.1249    7.5818 C   0  0  2  0  0  0  0  0  0  0  0  0
   43.5902   42.0325    8.9980 O   0  0  0  0  0  0  0  0  0  0  0  0
   33.0068   40.5841    3.8435 C   0  0  2  0  0  0  0  0  0  0  0  0
   33.9157   39.4164    3.8577 O   0  0  0  0  0  0  0  0  0  0  0  0
   35.6653   37.5801    7.5487 C   0  0  2  0  0  0  0  0  0  0  0  0
   36.7865   37.3350    6.6017 O   0  0  0  0  0  0  0  0  0  0  0  0
   38.2954   40.4218    5.0065 C   0  0  0  0  0  0  0  0  0  0  0  0
   42.4545   42.3280    6.8064 C   0  0  1  0  0  0  0  0  0  0  0  0
   41.5860   41.1039    6.8746 O   0  0  0  0  0  0  0  0  0  0  0  0
   31.8856   40.4139    2.7920 C   0  0  0  0  0  0  0  0  0  0  0  0
   30.9346   39.3215    3.0688 N   0  0  0  0  0  0  0  0  0  0  0  0
   35.3395   36.2280    8.2183 C   0  0  1  0  0  0  0  0  0  0  0  0
   36.5118   35.7209    8.8644 O   0  0  0  0  0  0  0  0  0  0  0  0
   41.6514   43.6006    7.2784 C   0  0  0  0  0  0  0  0  0  0  0  0
   42.3342   44.9211    7.0953 N   0  0  0  0  0  0  0  0  0  0  0  0
  1  2  1  1  0  0  0
  1  7  1  0  0  0  0
  1 30  1  0  0  0  0
  3  4  1  6  0  0  0
  3  9  1  0  0  0  0
  3 38  1  0  0  0  0
  5 10  1  0  0  0  0
  5 26  1  6  0  0  0
  5 32  1  0  0  0  0
  6 12  1  0  0  0  0
  6 35  1  0  0  0  0
  6 19  1  1  0  0  0
  7  8  1  1  0  0  0
  7 14  1  0  0  0  0
  8 33  1  0  0  0  0
  9 16  1  0  0  0  0
 10 11  1  1  0  0  0
 10 18  1  0  0  0  0
 12 13  1  1  0  0  0
 12 20  1  0  0  0  0
 14 15  1  6  0  0  0
 14 22  1  0  0  0  0
 16 17  1  6  0  0  0
 16 24  1  0  0  0  0
 18 19  1  1  0  0  0
 18 25  1  0  0  0  0
 20 21  1  6  0  0  0
 20 27  1  0  0  0  0
 22 23  1  1  0  0  0
 22 29  1  0  0  0  0
 24  2  1  1  0  0  0
 24 31  1  0  0  0  0
 25 26  1  1  0  0  0
 25 33  1  0  0  0  0
 27 28  1  1  0  0  0
 27 34  1  0  0  0  0
 29 30  1  0  0  0  0
 29 36  1  6  0  0  0
 31 32  1  6  0  0  0
 31 38  1  0  0  0  0
 34 35  1  0  0  0  0
 34 40  1  1  0  0  0
 36 37  1  0  0  0  0
 38 39  1  1  0  0  0
 40 41  1  0  0  0  0
M  END
>  <CHROM.1>
178.13174670,-172.12616997,-174.13253137,61.30572151,37.65284709,39.66159909
6.35506180,3.05265012,0.23211175,2.56212992

>  <Name>
ligand

>  <RI>
0

>  <Rbt.Current_Directory>
/home/itssahil/PROJECTS/Mol_Feturizer/New_Systems/rnas/1ZZ5

>  <Rbt.Executable>
rbdock ($Id: //depot/dev/client3/rdock/2013.1/src/exe/rbdock.cxx#4 $)

>  <Rbt.Library>
libRbt.so (2013.1, Build901 2013/11/27)

>  <Rbt.Parameter_File>
/export/apps/rDock/src/rDock_2013.1_src/data/scripts/dock_solv.prm

>  <Rbt.Receptor>
prm/pocket_docking_2.prm

>  <SCORE>
-10.6063

>  <SCORE.INTER>
-8.03749

>  <SCORE.INTER.CONST>
1

>  <SCORE.INTER.POLAR>
0

>  <SCORE.INTER.ROT>
4

>  <SCORE.INTER.SOLV>
18.0484

>  <SCORE.INTER.VDW>
-17.6411

>  <SCORE.INTER.norm>
-0.196036

>  <SCORE.INTRA>
-2.56878

>  <SCORE.INTRA.DIHEDRAL>
-4.51051

>  <SCORE.INTRA.DIHEDRAL.0>
5.18357

>  <SCORE.INTRA.POLAR>
0

>  <SCORE.INTRA.POLAR.0>
0

>  <SCORE.INTRA.REPUL>
0

>  <SCORE.INTRA.REPUL.0>
0

>  <SCORE.INTRA.SOLV>
-1.14187

>  <SCORE.INTRA.SOLV.lig_0>
-109.973

>  <SCORE.INTRA.VDW>
0.257411

>  <SCORE.INTRA.VDW.0>
-1.68646

>  <SCORE.INTRA.norm>
-0.0626531

>  <SCORE.RESTR>
0

>  <SCORE.RESTR.CAVITY>
0

>  <SCORE.RESTR.norm>
0

>  <SCORE.SYSTEM>
0

>  <SCORE.SYSTEM.CONST>
0

>  <SCORE.SYSTEM.DIHEDRAL>
0

>  <SCORE.SYSTEM.SOLV>
0

>  <SCORE.SYSTEM.norm>
0

>  <SCORE.heavy>
41

>  <SCORE.norm>
-0.258689

>  <RMSD>
0.931

$$$$
ligand
 OpenBabel11021811423D
libRbt.so/2013.1/901 2013/11/27
 41 45  0  0  0  0  0  0  0  0999 V2000
   35.0822   39.5067    4.8668 C   0  0  2  0  0  0  0  0  0  0  0  0
   34.6199   39.4753    6.2313 O   0  0  0  0  0  0  0  0  0  0  0  0
   34.2181   36.4124    9.2931 C   0  0  2  0  0  0  0  0  0  0  0  0
   33.8708   35.1193    9.9370 N   0  0  0  0  0  0  0  0  0  0  0  0
   38.1840   37.8287    7.0258 C   0  0  1  0  0  0  0  0  0  0  0  0
   42.2693   39.8415    6.4451 C   0  0  1  0  0  0  0  0  0  0  0  0
   35.9243   40.7879    4.5890 C   0  0  2  0  0  0  0  0  0  0  0  0
   37.0330   40.9589    5.5327 N   0  0  0  0  0  0  0  0  0  0  0  0
   32.9398   37.0009    8.6166 C   0  0  0  0  0  0  0  0  0  0  0  0
   39.2430   37.4495    5.9653 C   0  0  2  0  0  0  0  0  0  0  0  0
   40.0369   36.3333    6.3805 O   0  0  0  0  0  0  0  0  0  0  0  0
   43.6277   39.5511    7.2150 C   0  0  2  0  0  0  0  0  0  0  0  0
   43.4485   39.1967    8.6563 N   0  0  0  0  0  0  0  0  0  0  0  0
   35.0126   42.0443    4.6086 C   0  0  1  0  0  0  0  0  0  0  0  0
   35.7820   43.2105    4.3274 O   0  0  0  0  0  0  0  0  0  0  0  0
   33.2453   38.3570    7.9168 C   0  0  2  0  0  0  0  0  0  0  0  0
   31.9910   38.8472    7.3150 N   0  0  0  0  0  0  0  0  0  0  0  0
   40.0698   38.7317    5.7687 C   0  0  2  0  0  0  0  0  0  0  0  0
   41.3162   38.7255    6.5723 O   0  0  0  0  0  0  0  0  0  0  0  0
   44.6018   40.8081    7.0863 C   0  0  1  0  0  0  0  0  0  0  0  0
   45.0498   40.9855    5.7244 O   0  0  0  0  0  0  0  0  0  0  0  0
   33.8749   41.8794    3.5745 C   0  0  2  0  0  0  0  0  0  0  0  0
   33.0513   43.0265    3.5743 O   0  0  0  0  0  0  0  0  0  0  0  0
   34.3893   38.1704    6.8581 C   0  0  2  0  0  0  0  0  0  0  0  0
   39.1261   39.8483    6.2065 C   0  0  2  0  0  0  0  0  0  0  0  0
   38.1999   39.2550    7.1056 O   0  0  0  0  0  0  0  0  0  0  0  0
   43.9149   42.1473    7.5722 C   0  0  2  0  0  0  0  0  0  0  0  0
   43.6930   42.0774    8.9908 O   0  0  0  0  0  0  0  0  0  0  0  0
   33.0472   40.6181    3.8919 C   0  0  2  0  0  0  0  0  0  0  0  0
   33.9596   39.4532    3.9012 O   0  0  0  0  0  0  0  0  0  0  0  0
   35.7086   37.6016    7.5848 C   0  0  2  0  0  0  0  0  0  0  0  0
   36.8322   37.3653    6.6384 O   0  0  0  0  0  0  0  0  0  0  0  0
   38.3342   40.4656    5.0632 C   0  0  0  0  0  0  0  0  0  0  0  0
   42.5488   42.3590    6.8019 C   0  0  1  0  0  0  0  0  0  0  0  0
   41.6637   41.1484    6.8917 O   0  0  0  0  0  0  0  0  0  0  0  0
   31.9283   40.4504    2.8376 C   0  0  0  0  0  0  0  0  0  0  0  0
   31.0008   39.3318    3.0882 N   0  0  0  0  0  0  0  0  0  0  0  0
   35.3859   36.2448    8.2464 C   0  0  1  0  0  0  0  0  0  0  0  0
   36.5585   35.7377    8.8916 O   0  0  0  0  0  0  0  0  0  0  0  0
   41.7664   43.6491    7.2609 C   0  0  0  0  0  0  0  0  0  0  0  0
   40.4914   43.9455    6.5328 N   0  0  0  0  0  0  0  0  0  0  0  0
  1  2  1  1  0  0  0
  1  7  1  0  0  0  0
  1 30  1  0  0  0  0
  3  4  1  6  0  0  0
  3  9  1  0  0  0  0
  3 38  1  0  0  0  0
  5 10  1  0  0  0  0
  5 26  1  6  0  0  0
  5 32  1  0  0  0  0
  6 12  1  0  0  0  0
  6 35  1  0  0  0  0
  6 19  1  1  0  0  0
  7  8  1  1  0  0  0
  7 14  1  0  0  0  0
  8 33  1  0  0  0  0
  9 16  1  0  0  0  0
 10 11  1  1  0  0  0
 10 18  1  0  0  0  0
 12 13  1  1  0  0  0
 12 20  1  0  0  0  0
 14 15  1  6  0  0  0
 14 22  1  0  0  0  0
 16 17  1  6  0  0  0
 16 24  1  0  0  0  0
 18 19  1  1  0  0  0
 18 25  1  0  0  0  0
 20 21  1  6  0  0  0
 20 27  1  0  0  0  0
 22 23  1  1  0  0  0
 22 29  1  0  0  0  0
 24  2  1  1  0  0  0
 24 31  1  0  0  0  0
 25 26  1  1  0  0  0
 25 33  1  0  0  0  0
 27 28  1  1  0  0  0
 27 34  1  0  0  0  0
 29 30  1  0  0  0  0
 29 36  1  6  0  0  0
 31 32  1  6  0  0  0
 31 38  1  0  0  0  0
 34 35  1  0  0  0  0
 34 40  1  1  0  0  0
 36 37  1  0  0  0  0
 38 39  1  1  0  0  0
 40 41  1  0  0  0  0
M  END
>  <CHROM.1>
176.39964606,-171.57354050,-175.63713909,177.46546241,37.65887765,39.66608689
6.37501715,3.07100105,0.21949141,2.55061559

>  <Name>
ligand

>  <RI>
0

>  <Rbt.Current_Directory>
/home/itssahil/PROJECTS/Mol_Feturizer/New_Systems/rnas/1ZZ5

>  <Rbt.Executable>
rbdock ($Id: //depot/dev/client3/rdock/2013.1/src/exe/rbdock.cxx#4 $)

>  <Rbt.Library>
libRbt.so (2013.1, Build901 2013/11/27)

>  <Rbt.Parameter_File>
/export/apps/rDock/src/rDock_2013.1_src/data/scripts/dock_solv.prm

>  <Rbt.Receptor>
prm/pocket_docking_2.prm

>  <SCORE>
-10.3192

>  <SCORE.INTER>
-7.67503

>  <SCORE.INTER.CONST>
1

>  <SCORE.INTER.POLAR>
0

>  <SCORE.INTER.ROT>
4

>  <SCORE.INTER.SOLV>
18.2487

>  <SCORE.INTER.VDW>
-17.4663

>  <SCORE.INTER.norm>
-0.187196

>  <SCORE.INTRA>
-2.6442

>  <SCORE.INTRA.DIHEDRAL>
-4.45322

>  <SCORE.INTRA.DIHEDRAL.0>
5.18357

>  <SCORE.INTRA.POLAR>
0

>  <SCORE.INTRA.POLAR.0>
0

>  <SCORE.INTRA.REPUL>
0

>  <SCORE.INTRA.REPUL.0>
0

>  <SCORE.INTRA.SOLV>
-1.11866

>  <SCORE.INTRA.SOLV.lig_0>
-109.973

>  <SCORE.INTRA.VDW>
0.141739

>  <SCORE.INTRA.VDW.0>
-1.68646

>  <SCORE.INTRA.norm>
-0.0644927

>  <SCORE.RESTR>
0

>  <SCORE.RESTR.CAVITY>
0

>  <SCORE.RESTR.norm>
0

>  <SCORE.SYSTEM>
0

>  <SCORE.SYSTEM.CONST>
0

>  <SCORE.SYSTEM.DIHEDRAL>
0

>  <SCORE.SYSTEM.SOLV>
0

>  <SCORE.SYSTEM.norm>
0

>  <SCORE.heavy>
41

>  <SCORE.norm>
-0.251689

>  <RMSD>
0.932

$$$$
ligand
 OpenBabel11021811423D
libRbt.so/2013.1/901 2013/11/27
 41 45  0  0  0  0  0  0  0  0999 V2000
   34.9556   39.4427    4.8330 C   0  0  2  0  0  0  0  0  0  0  0  0
   34.5012   39.4291    6.2004 O   0  0  0  0  0  0  0  0  0  0  0  0
   34.1178   36.4063    9.3043 C   0  0  2  0  0  0  0  0  0  0  0  0
   33.7744   35.1217    9.9669 N   0  0  0  0  0  0  0  0  0  0  0  0
   38.0702   37.7932    6.9956 C   0  0  1  0  0  0  0  0  0  0  0  0
   42.1632   39.7861    6.3470 C   0  0  1  0  0  0  0  0  0  0  0  0
   35.7959   40.7201    4.5336 C   0  0  2  0  0  0  0  0  0  0  0  0
   36.9101   40.9036    5.4685 N   0  0  0  0  0  0  0  0  0  0  0  0
   32.8355   36.9858    8.6275 C   0  0  0  0  0  0  0  0  0  0  0  0
   39.1230   37.4003    5.9340 C   0  0  2  0  0  0  0  0  0  0  0  0
   39.9195   36.2896    6.3591 O   0  0  0  0  0  0  0  0  0  0  0  0
   43.5538   39.4665    7.0443 C   0  0  2  0  0  0  0  0  0  0  0  0
   43.4420   39.1007    8.4895 N   0  0  0  0  0  0  0  0  0  0  0  0
   34.8841   41.9766    4.5421 C   0  0  1  0  0  0  0  0  0  0  0  0
   35.6516   43.1391    4.2412 O   0  0  0  0  0  0  0  0  0  0  0  0
   33.1367   38.3327    7.9083 C   0  0  2  0  0  0  0  0  0  0  0  0
   31.8788   38.8149    7.3075 N   0  0  0  0  0  0  0  0  0  0  0  0
   39.9484   38.6799    5.7159 C   0  0  2  0  0  0  0  0  0  0  0  0
   41.1995   38.6843    6.5123 O   0  0  0  0  0  0  0  0  0  0  0  0
   44.5407   40.7091    6.8778 C   0  0  1  0  0  0  0  0  0  0  0  0
   44.9221   40.8928    5.4966 O   0  0  0  0  0  0  0  0  0  0  0  0
   33.7405   41.7982    3.5168 C   0  0  2  0  0  0  0  0  0  0  0  0
   32.9167   42.9451    3.5065 O   0  0  0  0  0  0  0  0  0  0  0  0
   34.2745   38.1324    6.8455 C   0  0  2  0  0  0  0  0  0  0  0  0
   39.0072   39.8020    6.1446 C   0  0  2  0  0  0  0  0  0  0  0  0
   38.0863   39.2204    7.0567 O   0  0  0  0  0  0  0  0  0  0  0  0
   43.9013   42.0542    7.4101 C   0  0  2  0  0  0  0  0  0  0  0  0
   43.7503   41.9737    8.8374 O   0  0  0  0  0  0  0  0  0  0  0  0
   32.9148   40.5411    3.8555 C   0  0  2  0  0  0  0  0  0  0  0  0
   33.8274   39.3765    3.8747 O   0  0  0  0  0  0  0  0  0  0  0  0
   35.5981   37.5733    7.5719 C   0  0  2  0  0  0  0  0  0  0  0  0
   36.7162   37.3247    6.6222 O   0  0  0  0  0  0  0  0  0  0  0  0
   38.2086   40.4042    4.9979 C   0  0  0  0  0  0  0  0  0  0  0  0
   42.5017   42.2952    6.7120 C   0  0  1  0  0  0  0  0  0  0  0  0
   41.6025   41.0980    6.8357 O   0  0  0  0  0  0  0  0  0  0  0  0
   31.7898   40.3595    2.8099 C   0  0  0  0  0  0  0  0  0  0  0  0
   30.8598   39.2487    3.0844 N   0  0  0  0  0  0  0  0  0  0  0  0
   35.2794   36.2252    8.2530 C   0  0  1  0  0  0  0  0  0  0  0  0
   36.4559   35.7266    8.8980 O   0  0  0  0  0  0  0  0  0  0  0  0
   41.7647   43.5930    7.2219 C   0  0  0  0  0  0  0  0  0  0  0  0
   40.4836   43.9433    6.5295 N   0  0  0  0  0  0  0  0  0  0  0  0
  1  2  1  1  0  0  0
  1  7  1  0  0  0  0
  1 30  1  0  0  0  0
  3  4  1  6  0  0  0
  3  9  1  0  0  0  0
  3 38  1  0  0  0  0
  5 10  1  0  0  0  0
  5 26  1  6  0  0  0
  5 32  1  0  0  0  0
  6 12  1  0  0  0  0
  6 35  1  0  0  0  0
  6 19  1  1  0  0  0
  7  8  1  1  0  0  0
  7 14  1  0  0  0  0
  8 33  1  0  0  0  0
  9 16  1  0  0  0  0
 10 11  1  1  0  0  0
 10 18  1  0  0  0  0
 12 13  1  1  0  0  0
 12 20  1  0  0  0  0
 14 15  1  6  0  0  0
 14 22  1  0  0  0  0
 16 17  1  6  0  0  0
 16 24  1  0  0  0  0
 18 19  1  1  0  0  0
 18 25  1  0  0  0  0
 20 21  1  6  0  0  0
 20 27  1  0  0  0  0
 22 23  1  1  0  0  0
 22 29  1  0  0  0  0
 24  2  1  1  0  0  0
 24 31  1  0  0  0  0
 25 26  1  1  0  0  0
 25 33  1  0  0  0  0
 27 28  1  1  0  0  0
 27 34  1  0  0  0  0
 29 30  1  0  0  0  0
 29 36  1  6  0  0  0
 31 32  1  6  0  0  0
 31 38  1  0  0  0  0
 34 35  1  0  0  0  0
 34 40  1  1  0  0  0
 36 37  1  0  0  0  0
 38 39  1  1  0  0  0
 40 41  1  0  0  0  0
M  END
>  <CHROM.1>
175.29643229,-168.15897708,-175.32988213,175.40184400,37.56045248,39.61142967
6.31877364,3.06924548,0.20974409,2.53802762

>  <Name>
ligand

>  <RI>
0

>  <Rbt.Current_Directory>
/home/itssahil/PROJECTS/Mol_Feturizer/New_Systems/rnas/1ZZ5

>  <Rbt.Executable>
rbdock ($Id: //depot/dev/client3/rdock/2013.1/src/exe/rbdock.cxx#4 $)

>  <Rbt.Library>
libRbt.so (2013.1, Build901 2013/11/27)

>  <Rbt.Parameter_File>
/export/apps/rDock/src/rDock_2013.1_src/data/scripts/dock_solv.prm

>  <Rbt.Receptor>
prm/pocket_docking_2.prm

>  <SCORE>
-10.4113

>  <SCORE.INTER>
-7.86266

>  <SCORE.INTER.CONST>
1

>  <SCORE.INTER.POLAR>
0

>  <SCORE.INTER.ROT>
4

>  <SCORE.INTER.SOLV>
18.7283

>  <SCORE.INTER.VDW>
-17.7512

>  <SCORE.INTER.norm>
-0.191772

>  <SCORE.INTRA>
-2.54868

>  <SCORE.INTRA.DIHEDRAL>
-4.02667

>  <SCORE.INTRA.DIHEDRAL.0>
5.18357

>  <SCORE.INTRA.POLAR>
0

>  <SCORE.INTRA.POLAR.0>
0

>  <SCORE.INTRA.REPUL>
0

>  <SCORE.INTRA.REPUL.0>
0

>  <SCORE.INTRA.SOLV>
-1.32771

>  <SCORE.INTRA.SOLV.lig_0>
-109.973

>  <SCORE.INTRA.VDW>
0.128506

>  <SCORE.INTRA.VDW.0>
-1.68646

>  <SCORE.INTRA.norm>
-0.062163

>  <SCORE.RESTR>
0

>  <SCORE.RESTR.CAVITY>
0

>  <SCORE.RESTR.norm>
0

>  <SCORE.SYSTEM>
0

>  <SCORE.SYSTEM.CONST>
0

>  <SCORE.SYSTEM.DIHEDRAL>
0

>  <SCORE.SYSTEM.SOLV>
0

>  <SCORE.SYSTEM.norm>
0

>  <SCORE.heavy>
41

>  <SCORE.norm>
-0.253935

>  <RMSD>
0.937

$$$$
ligand
 OpenBabel11021811423D
libRbt.so/2013.1/901 2013/11/27
 41 45  0  0  0  0  0  0  0  0999 V2000
   34.9832   39.4455    4.8269 C   0  0  2  0  0  0  0  0  0  0  0  0
   34.5296   39.4328    6.1946 O   0  0  0  0  0  0  0  0  0  0  0  0
   34.1523   36.4131    9.3022 C   0  0  2  0  0  0  0  0  0  0  0  0
   33.8111   35.1288    9.9665 N   0  0  0  0  0  0  0  0  0  0  0  0
   38.1014   37.8032    6.9898 C   0  0  1  0  0  0  0  0  0  0  0  0
   42.1907   39.8018    6.3374 C   0  0  1  0  0  0  0  0  0  0  0  0
   35.8215   40.7238    4.5256 C   0  0  2  0  0  0  0  0  0  0  0  0
   36.9359   40.9100    5.4597 N   0  0  0  0  0  0  0  0  0  0  0  0
   32.8688   36.9899    8.6254 C   0  0  0  0  0  0  0  0  0  0  0  0
   39.1543   37.4106    5.9281 C   0  0  2  0  0  0  0  0  0  0  0  0
   39.9526   36.3016    6.3541 O   0  0  0  0  0  0  0  0  0  0  0  0
   43.5825   39.4849    7.0335 C   0  0  2  0  0  0  0  0  0  0  0  0
   43.4726   39.1193    8.4789 N   0  0  0  0  0  0  0  0  0  0  0  0
   34.9078   41.9790    4.5331 C   0  0  1  0  0  0  0  0  0  0  0  0
   35.6735   43.1422    4.2304 O   0  0  0  0  0  0  0  0  0  0  0  0
   33.1676   38.3364    7.9045 C   0  0  2  0  0  0  0  0  0  0  0  0
   31.9086   38.8160    7.3038 N   0  0  0  0  0  0  0  0  0  0  0  0
   39.9777   38.6911    5.7081 C   0  0  2  0  0  0  0  0  0  0  0  0
   41.2292   38.6983    6.5038 O   0  0  0  0  0  0  0  0  0  0  0  0
   44.5670   40.7292    6.8658 C   0  0  1  0  0  0  0  0  0  0  0  0
   44.9468   40.9132    5.4842 O   0  0  0  0  0  0  0  0  0  0  0  0
   33.7639   41.7976    3.5087 C   0  0  2  0  0  0  0  0  0  0  0  0
   32.9385   42.9433    3.4974 O   0  0  0  0  0  0  0  0  0  0  0  0
   34.3051   38.1365    6.8413 C   0  0  2  0  0  0  0  0  0  0  0  0
   39.0350   39.8123    6.1360 C   0  0  2  0  0  0  0  0  0  0  0  0
   38.1155   39.2305    7.0492 O   0  0  0  0  0  0  0  0  0  0  0  0
   43.9256   42.0733    7.3983 C   0  0  2  0  0  0  0  0  0  0  0  0
   43.7761   41.9929    8.8258 O   0  0  0  0  0  0  0  0  0  0  0  0
   32.9403   40.5397    3.8492 C   0  0  2  0  0  0  0  0  0  0  0  0
   33.8547   39.3765    3.8693 O   0  0  0  0  0  0  0  0  0  0  0  0
   35.6300   37.5802    7.5677 C   0  0  2  0  0  0  0  0  0  0  0  0
   36.7479   37.3322    6.6176 O   0  0  0  0  0  0  0  0  0  0  0  0
   38.2349   40.4120    4.9890 C   0  0  0  0  0  0  0  0  0  0  0  0
   42.5250   42.3116    6.7014 C   0  0  1  0  0  0  0  0  0  0  0  0
   41.6280   41.1128    6.8262 O   0  0  0  0  0  0  0  0  0  0  0  0
   31.8150   40.3552    2.8045 C   0  0  0  0  0  0  0  0  0  0  0  0
   30.8604   39.2721    3.1040 N   0  0  0  0  0  0  0  0  0  0  0  0
   35.3136   36.2324    8.2505 C   0  0  1  0  0  0  0  0  0  0  0  0
   36.4912   35.7364    8.8955 O   0  0  0  0  0  0  0  0  0  0  0  0
   41.7862   43.6082    7.2117 C   0  0  0  0  0  0  0  0  0  0  0  0
   40.4942   43.9455    6.5331 N   0  0  0  0  0  0  0  0  0  0  0  0
  1  2  1  1  0  0  0
  1  7  1  0  0  0  0
  1 30  1  0  0  0  0
  3  4  1  6  0  0  0
  3  9  1  0  0  0  0
  3 38  1  0  0  0  0
  5 10  1  0  0  0  0
  5 26  1  6  0  0  0
  5 32  1  0  0  0  0
  6 12  1  0  0  0  0
  6 35  1  0  0  0  0
  6 19  1  1  0  0  0
  7  8  1  1  0  0  0
  7 14  1  0  0  0  0
  8 33  1  0  0  0  0
  9 16  1  0  0  0  0
 10 11  1  1  0  0  0
 10 18  1  0  0  0  0
 12 13  1  1  0  0  0
 12 20  1  0  0  0  0
 14 15  1  6  0  0  0
 14 22  1  0  0  0  0
 16 17  1  6  0  0  0
 16 24  1  0  0  0  0
 18 19  1  1  0  0  0
 18 25  1  0  0  0  0
 20 21  1  6  0  0  0
 20 27  1  0  0  0  0
 22 23  1  1  0  0  0
 22 29  1  0  0  0  0
 24  2  1  1  0  0  0
 24 31  1  0  0  0  0
 25 26  1  1  0  0  0
 25 33  1  0  0  0  0
 27 28  1  1  0  0  0
 27 34  1  0  0  0  0
 29 30  1  0  0  0  0
 29 36  1  6  0  0  0
 31 32  1  6  0  0  0
 31 38  1  0  0  0  0
 34 35  1  0  0  0  0
 34 40  1  1  0  0  0
 36 37  1  0  0  0  0
 38 39  1  1  0  0  0
 40 41  1  0  0  0  0
M  END
>  <CHROM.1>
175.33665234,-168.13126754,-173.38162805,176.21948119,37.58758048,39.62027230
6.31248476,3.06819319,0.20987513,2.53751466

>  <Name>
ligand

>  <RI>
0

>  <Rbt.Current_Directory>
/home/itssahil/PROJECTS/Mol_Feturizer/New_Systems/rnas/1ZZ5

>  <Rbt.Executable>
rbdock ($Id: //depot/dev/client3/rdock/2013.1/src/exe/rbdock.cxx#4 $)

>  <Rbt.Library>
libRbt.so (2013.1, Build901 2013/11/27)

>  <Rbt.Parameter_File>
/export/apps/rDock/src/rDock_2013.1_src/data/scripts/dock_solv.prm

>  <Rbt.Receptor>
prm/pocket_docking_2.prm

>  <SCORE>
-10.3657

>  <SCORE.INTER>
-7.85836

>  <SCORE.INTER.CONST>
1

>  <SCORE.INTER.POLAR>
0

>  <SCORE.INTER.ROT>
4

>  <SCORE.INTER.SOLV>
18.5774

>  <SCORE.INTER.VDW>
-17.698

>  <SCORE.INTER.norm>
-0.191667

>  <SCORE.INTRA>
-2.50739

>  <SCORE.INTRA.DIHEDRAL>
-3.97248

>  <SCORE.INTRA.DIHEDRAL.0>
5.18357

>  <SCORE.INTRA.POLAR>
0

>  <SCORE.INTRA.POLAR.0>
0

>  <SCORE.INTRA.REPUL>
0

>  <SCORE.INTRA.REPUL.0>
0

>  <SCORE.INTRA.SOLV>
-1.29711

>  <SCORE.INTRA.SOLV.lig_0>
-109.973

>  <SCORE.INTRA.VDW>
0.127411

>  <SCORE.INTRA.VDW.0>
-1.68646

>  <SCORE.INTRA.norm>
-0.0611558

>  <SCORE.RESTR>
0

>  <SCORE.RESTR.CAVITY>
0

>  <SCORE.RESTR.norm>
0

>  <SCORE.SYSTEM>
0

>  <SCORE.SYSTEM.CONST>
0

>  <SCORE.SYSTEM.DIHEDRAL>
0

>  <SCORE.SYSTEM.SOLV>
0

>  <SCORE.SYSTEM.norm>
0

>  <SCORE.heavy>
41

>  <SCORE.norm>
-0.252823

>  <RMSD>
0.938

$$$$
ligand
 OpenBabel11021811423D
libRbt.so/2013.1/901 2013/11/27
 41 45  0  0  0  0  0  0  0  0999 V2000
   34.8927   39.4549    4.8397 C   0  0  2  0  0  0  0  0  0  0  0  0
   34.4321   39.4577    6.2051 O   0  0  0  0  0  0  0  0  0  0  0  0
   34.0263   36.4706    9.3405 C   0  0  2  0  0  0  0  0  0  0  0  0
   33.6763   35.1944   10.0158 N   0  0  0  0  0  0  0  0  0  0  0  0
   37.9928   37.8211    7.0346 C   0  0  1  0  0  0  0  0  0  0  0  0
   42.0570   39.8347    6.4401 C   0  0  1  0  0  0  0  0  0  0  0  0
   35.7378   40.7266    4.5300 C   0  0  2  0  0  0  0  0  0  0  0  0
   36.8483   40.9174    5.4679 N   0  0  0  0  0  0  0  0  0  0  0  0
   32.7486   37.0460    8.6516 C   0  0  0  0  0  0  0  0  0  0  0  0
   39.0494   37.4136    5.9823 C   0  0  2  0  0  0  0  0  0  0  0  0
   39.8409   36.3055    6.4232 O   0  0  0  0  0  0  0  0  0  0  0  0
   43.4261   39.5588    7.1961 C   0  0  2  0  0  0  0  0  0  0  0  0
   43.2640   39.1780    8.6327 N   0  0  0  0  0  0  0  0  0  0  0  0
   34.8295   41.9856    4.5204 C   0  0  1  0  0  0  0  0  0  0  0  0
   35.6016   43.1426    4.2101 O   0  0  0  0  0  0  0  0  0  0  0  0
   33.0568   38.3840    7.9189 C   0  0  2  0  0  0  0  0  0  0  0  0
   31.8030   38.8629    7.3070 N   0  0  0  0  0  0  0  0  0  0  0  0
   39.8793   38.6883    5.7537 C   0  0  2  0  0  0  0  0  0  0  0  0
   41.1268   38.6982    6.5556 O   0  0  0  0  0  0  0  0  0  0  0  0
   44.3745   40.8367    7.0812 C   0  0  1  0  0  0  0  0  0  0  0  0
   44.8095   41.0445    5.7194 O   0  0  0  0  0  0  0  0  0  0  0  0
   33.6900   41.7989    3.4920 C   0  0  2  0  0  0  0  0  0  0  0  0
   32.8695   42.9479    3.4652 O   0  0  0  0  0  0  0  0  0  0  0  0
   34.1988   38.1689    6.8635 C   0  0  2  0  0  0  0  0  0  0  0  0
   38.9392   39.8177    6.1657 C   0  0  2  0  0  0  0  0  0  0  0  0
   38.0127   39.2488    7.0800 O   0  0  0  0  0  0  0  0  0  0  0  0
   43.6649   42.1542    7.5931 C   0  0  2  0  0  0  0  0  0  0  0  0
   43.4543   42.0573    9.0118 O   0  0  0  0  0  0  0  0  0  0  0  0
   32.8593   40.5479    3.8408 C   0  0  2  0  0  0  0  0  0  0  0  0
   33.7687   39.3811    3.8771 O   0  0  0  0  0  0  0  0  0  0  0  0
   35.5177   37.6142    7.6021 C   0  0  2  0  0  0  0  0  0  0  0  0
   36.6393   37.3521    6.6602 O   0  0  0  0  0  0  0  0  0  0  0  0
   38.1475   40.4094    5.0087 C   0  0  0  0  0  0  0  0  0  0  0  0
   42.2896   42.3512    6.8354 C   0  0  1  0  0  0  0  0  0  0  0  0
   41.4290   41.1220    6.9116 O   0  0  0  0  0  0  0  0  0  0  0  0
   31.7386   40.3577    2.7923 C   0  0  0  0  0  0  0  0  0  0  0  0
   30.8141   39.2421    3.0661 N   0  0  0  0  0  0  0  0  0  0  0  0
   35.1922   36.2746    8.2966 C   0  0  1  0  0  0  0  0  0  0  0  0
   36.3643   35.7801    8.9524 O   0  0  0  0  0  0  0  0  0  0  0  0
   41.4852   43.6181    7.3203 C   0  0  0  0  0  0  0  0  0  0  0  0
   42.1617   44.9422    7.1396 N   0  0  0  0  0  0  0  0  0  0  0  0
  1  2  1  1  0  0  0
  1  7  1  0  0  0  0
  1 30  1  0  0  0  0
  3  4  1  6  0  0  0
  3  9  1  0  0  0  0
  3 38  1  0  0  0  0
  5 10  1  0  0  0  0
  5 26  1  6  0  0  0
  5 32  1  0  0  0  0
  6 12  1  0  0  0  0
  6 35  1  0  0  0  0
  6 19  1  1  0  0  0
  7  8  1  1  0  0  0
  7 14  1  0  0  0  0
  8 33  1  0  0  0  0
  9 16  1  0  0  0  0
 10 11  1  1  0  0  0
 10 18  1  0  0  0  0
 12 13  1  1  0  0  0
 12 20  1  0  0  0  0
 14 15  1  6  0  0  0
 14 22  1  0  0  0  0
 16 17  1  6  0  0  0
 16 24  1  0  0  0  0
 18 19  1  1  0  0  0
 18 25  1  0  0  0  0
 20 21  1  6  0  0  0
 20 27  1  0  0  0  0
 22 23  1  1  0  0  0
 22 29  1  0  0  0  0
 24  2  1  1  0  0  0
 24 31  1  0  0  0  0
 25 26  1  1  0  0  0
 25 33  1  0  0  0  0
 27 28  1  1  0  0  0
 27 34  1  0  0  0  0
 29 30  1  0  0  0  0
 29 36  1  6  0  0  0
 31 32  1  6  0  0  0
 31 38  1  0  0  0  0
 34 35  1  0  0  0  0
 34 40  1  1  0  0  0
 36 37  1  0  0  0  0
 38 39  1  1  0  0  0
 40 41  1  0  0  0  0
M  END
>  <CHROM.1>
178.82541077,-171.16494853,-176.04973271,60.93657521,37.50400077,39.67201382
6.37996206,3.05530655,0.23549816,2.54460436

>  <Name>
ligand

>  <RI>
0

>  <Rbt.Current_Directory>
/home/itssahil/PROJECTS/Mol_Feturizer/New_Systems/rnas/1ZZ5

>  <Rbt.Executable>
rbdock ($Id: //depot/dev/client3/rdock/2013.1/src/exe/rbdock.cxx#4 $)

>  <Rbt.Library>
libRbt.so (2013.1, Build901 2013/11/27)

>  <Rbt.Parameter_File>
/export/apps/rDock/src/rDock_2013.1_src/data/scripts/dock_solv.prm

>  <Rbt.Receptor>
prm/pocket_docking_2.prm

>  <SCORE>
-10.6149

>  <SCORE.INTER>
-8.0477

>  <SCORE.INTER.CONST>
1

>  <SCORE.INTER.POLAR>
0

>  <SCORE.INTER.ROT>
4

>  <SCORE.INTER.SOLV>
18.1388

>  <SCORE.INTER.VDW>
-17.6781

>  <SCORE.INTER.norm>
-0.196285

>  <SCORE.INTRA>
-2.56718

>  <SCORE.INTRA.DIHEDRAL>
-4.51534

>  <SCORE.INTRA.DIHEDRAL.0>
5.18357

>  <SCORE.INTRA.POLAR>
0

>  <SCORE.INTRA.POLAR.0>
0

>  <SCORE.INTRA.REPUL>
0

>  <SCORE.INTRA.REPUL.0>
0

>  <SCORE.INTRA.SOLV>
-1.1425

>  <SCORE.INTRA.SOLV.lig_0>
-109.973

>  <SCORE.INTRA.VDW>
0.261748

>  <SCORE.INTRA.VDW.0>
-1.68646

>  <SCORE.INTRA.norm>
-0.0626141

>  <SCORE.RESTR>
0

>  <SCORE.RESTR.CAVITY>
0

>  <SCORE.RESTR.norm>
0

>  <SCORE.SYSTEM>
0

>  <SCORE.SYSTEM.CONST>
0

>  <SCORE.SYSTEM.DIHEDRAL>
0

>  <SCORE.SYSTEM.SOLV>
0

>  <SCORE.SYSTEM.norm>
0

>  <SCORE.heavy>
41

>  <SCORE.norm>
-0.2589

>  <RMSD>
0.942

$$$$
ligand
 OpenBabel11021811423D
libRbt.so/2013.1/901 2013/11/27
 41 45  0  0  0  0  0  0  0  0999 V2000
   35.0226   39.4809    4.8238 C   0  0  2  0  0  0  0  0  0  0  0  0
   34.5591   39.4634    6.1881 O   0  0  0  0  0  0  0  0  0  0  0  0
   34.1538   36.4315    9.2802 C   0  0  2  0  0  0  0  0  0  0  0  0
   33.8055   35.1451    9.9367 N   0  0  0  0  0  0  0  0  0  0  0  0
   38.1220   37.8237    7.0021 C   0  0  1  0  0  0  0  0  0  0  0  0
   42.1821   39.8556    6.4456 C   0  0  1  0  0  0  0  0  0  0  0  0
   35.8653   40.7589    4.5338 C   0  0  2  0  0  0  0  0  0  0  0  0
   36.9733   40.9391    5.4767 N   0  0  0  0  0  0  0  0  0  0  0  0
   32.8762   37.0135    8.5967 C   0  0  0  0  0  0  0  0  0  0  0  0
   39.1818   37.4336    5.9465 C   0  0  2  0  0  0  0  0  0  0  0  0
   39.9750   36.3213    6.3735 O   0  0  0  0  0  0  0  0  0  0  0  0
   43.5359   39.5868    7.2311 C   0  0  2  0  0  0  0  0  0  0  0  0
   43.3448   39.2066    8.6642 N   0  0  0  0  0  0  0  0  0  0  0  0
   34.9540   42.0158    4.5400 C   0  0  1  0  0  0  0  0  0  0  0  0
   35.7240   43.1788    4.2477 O   0  0  0  0  0  0  0  0  0  0  0  0
   33.1827   38.3624    7.8836 C   0  0  2  0  0  0  0  0  0  0  0  0
   31.9291   38.8469    7.2758 N   0  0  0  0  0  0  0  0  0  0  0  0
   40.0091   38.7134    5.7377 C   0  0  2  0  0  0  0  0  0  0  0  0
   41.2549   38.7150    6.5424 O   0  0  0  0  0  0  0  0  0  0  0  0
   44.4807   40.8690    7.1352 C   0  0  1  0  0  0  0  0  0  0  0  0
   44.9437   41.0776    5.7828 O   0  0  0  0  0  0  0  0  0  0  0  0
   33.8172   41.8408    3.5066 C   0  0  2  0  0  0  0  0  0  0  0  0
   32.9939   42.9881    3.4942 O   0  0  0  0  0  0  0  0  0  0  0  0
   34.3275   38.1649    6.8278 C   0  0  2  0  0  0  0  0  0  0  0  0
   39.0654   39.8347    6.1635 C   0  0  2  0  0  0  0  0  0  0  0  0
   38.1383   39.2508    7.0677 O   0  0  0  0  0  0  0  0  0  0  0  0
   43.7541   42.1836    7.6305 C   0  0  2  0  0  0  0  0  0  0  0  0
   43.5136   42.0870    9.0445 O   0  0  0  0  0  0  0  0  0  0  0  0
   32.9888   40.5831    3.8360 C   0  0  2  0  0  0  0  0  0  0  0  0
   33.9008   39.4180    3.8578 O   0  0  0  0  0  0  0  0  0  0  0  0
   35.6461   37.6030    7.5613 C   0  0  2  0  0  0  0  0  0  0  0  0
   36.7704   37.3569    6.6183 O   0  0  0  0  0  0  0  0  0  0  0  0
   38.2748   40.4407    5.0132 C   0  0  0  0  0  0  0  0  0  0  0  0
   42.3945   42.3735    6.8433 C   0  0  1  0  0  0  0  0  0  0  0  0
   41.5381   41.1405    6.9024 O   0  0  0  0  0  0  0  0  0  0  0  0
   31.8707   40.4050    2.7824 C   0  0  0  0  0  0  0  0  0  0  0  0
   30.9208   39.3126    3.0628 N   0  0  0  0  0  0  0  0  0  0  0  0
   35.3224   36.2530    8.2362 C   0  0  1  0  0  0  0  0  0  0  0  0
   36.4943   35.7521    8.8875 O   0  0  0  0  0  0  0  0  0  0  0  0
   41.5741   43.6372    7.3097 C   0  0  0  0  0  0  0  0  0  0  0  0
   42.2702   44.9585    7.1962 N   0  0  0  0  0  0  0  0  0  0  0  0
  1  2  1  1  0  0  0
  1  7  1  0  0  0  0
  1 30  1  0  0  0  0
  3  4  1  6  0  0  0
  3  9  1  0  0  0  0
  3 38  1  0  0  0  0
  5 10  1  0  0  0  0
  5 26  1  6  0  0  0
  5 32  1  0  0  0  0
  6 12  1  0  0  0  0
  6 35  1  0  0  0  0
  6 19  1  1  0  0  0
  7  8  1  1  0  0  0
  7 14  1  0  0  0  0
  8 33  1  0  0  0  0
  9 16  1  0  0  0  0
 10 11  1  1  0  0  0
 10 18  1  0  0  0  0
 12 13  1  1  0  0  0
 12 20  1  0  0  0  0
 14 15  1  6  0  0  0
 14 22  1  0  0  0  0
 16 17  1  6  0  0  0
 16 24  1  0  0  0  0
 18 19  1  1  0  0  0
 18 25  1  0  0  0  0
 20 21  1  6  0  0  0
 20 27  1  0  0  0  0
 22 23  1  1  0  0  0
 22 29  1  0  0  0  0
 24  2  1  1  0  0  0
 24 31  1  0  0  0  0
 25 26  1  1  0  0  0
 25 33  1  0  0  0  0
 27 28  1  1  0  0  0
 27 34  1  0  0  0  0
 29 30  1  0  0  0  0
 29 36  1  6  0  0  0
 31 32  1  6  0  0  0
 31 38  1  0  0  0  0
 34 35  1  0  0  0  0
 34 40  1  1  0  0  0
 36 37  1  0  0  0  0
 38 39  1  1  0  0  0
 40 41  1  0  0  0  0
M  END
>  <CHROM.1>
178.87258769,-172.59379890,-174.04089187,58.43452896,37.62449141,39.68714262
6.37242631,3.05288814,0.23906716,2.55942552

>  <Name>
ligand

>  <RI>
0

>  <Rbt.Current_Directory>
/home/itssahil/PROJECTS/Mol_Feturizer/New_Systems/rnas/1ZZ5

>  <Rbt.Executable>
rbdock ($Id: //depot/dev/client3/rdock/2013.1/src/exe/rbdock.cxx#4 $)

>  <Rbt.Library>
libRbt.so (2013.1, Build901 2013/11/27)

>  <Rbt.Parameter_File>
/export/apps/rDock/src/rDock_2013.1_src/data/scripts/dock_solv.prm

>  <Rbt.Receptor>
prm/pocket_docking_2.prm

>  <SCORE>
-10.5432

>  <SCORE.INTER>
-8.01191

>  <SCORE.INTER.CONST>
1

>  <SCORE.INTER.POLAR>
0

>  <SCORE.INTER.ROT>
4

>  <SCORE.INTER.SOLV>
17.9013

>  <SCORE.INTER.VDW>
-17.575

>  <SCORE.INTER.norm>
-0.195412

>  <SCORE.INTRA>
-2.53133

>  <SCORE.INTRA.DIHEDRAL>
-4.54244

>  <SCORE.INTRA.DIHEDRAL.0>
5.18357

>  <SCORE.INTRA.POLAR>
0

>  <SCORE.INTRA.POLAR.0>
0

>  <SCORE.INTRA.REPUL>
0

>  <SCORE.INTRA.REPUL.0>
0

>  <SCORE.INTRA.SOLV>
-1.07715

>  <SCORE.INTRA.SOLV.lig_0>
-109.973

>  <SCORE.INTRA.VDW>
0.27847

>  <SCORE.INTRA.VDW.0>
-1.68646

>  <SCORE.INTRA.norm>
-0.0617397

>  <SCORE.RESTR>
0

>  <SCORE.RESTR.CAVITY>
0

>  <SCORE.RESTR.norm>
0

>  <SCORE.SYSTEM>
0

>  <SCORE.SYSTEM.CONST>
0

>  <SCORE.SYSTEM.DIHEDRAL>
0

>  <SCORE.SYSTEM.SOLV>
0

>  <SCORE.SYSTEM.norm>
0

>  <SCORE.heavy>
41

>  <SCORE.norm>
-0.257152

>  <RMSD>
0.943

$$$$
ligand
 OpenBabel11021811423D
libRbt.so/2013.1/901 2013/11/27
 41 45  0  0  0  0  0  0  0  0999 V2000
   34.5437   38.9894    4.9801 C   0  0  2  0  0  0  0  0  0  0  0  0
   34.1077   39.1507    6.3441 O   0  0  0  0  0  0  0  0  0  0  0  0
   33.5805   36.5074    9.7577 C   0  0  2  0  0  0  0  0  0  0  0  0
   33.1675   35.3252   10.5571 N   0  0  0  0  0  0  0  0  0  0  0  0
   37.5795   37.3888    7.2866 C   0  0  1  0  0  0  0  0  0  0  0  0
   41.9006   38.8097    6.2066 C   0  0  1  0  0  0  0  0  0  0  0  0
   35.4570   40.1723    4.5393 C   0  0  2  0  0  0  0  0  0  0  0  0
   36.5928   40.3845    5.4416 N   0  0  0  0  0  0  0  0  0  0  0  0
   32.3273   37.0904    9.0312 C   0  0  0  0  0  0  0  0  0  0  0  0
   38.5918   36.8193    6.2665 C   0  0  2  0  0  0  0  0  0  0  0  0
   39.3239   35.7128    6.8033 O   0  0  0  0  0  0  0  0  0  0  0  0
   43.1251   38.7489    7.2162 C   0  0  2  0  0  0  0  0  0  0  0  0
   42.7838   39.1534    8.6143 N   0  0  0  0  0  0  0  0  0  0  0  0
   34.6245   41.4772    4.4186 C   0  0  1  0  0  0  0  0  0  0  0  0
   35.4582   42.5503    3.9892 O   0  0  0  0  0  0  0  0  0  0  0  0
   32.7013   38.3311    8.1692 C   0  0  2  0  0  0  0  0  0  0  0  0
   31.4675   38.8241    7.5284 N   0  0  0  0  0  0  0  0  0  0  0  0
   39.4915   38.0139    5.9064 C   0  0  2  0  0  0  0  0  0  0  0  0
   40.7510   38.0250    6.6892 O   0  0  0  0  0  0  0  0  0  0  0  0
   44.3214   39.6525    6.6705 C   0  0  1  0  0  0  0  0  0  0  0  0
   44.8879   39.0972    5.4632 O   0  0  0  0  0  0  0  0  0  0  0  0
   33.4585   41.2621    3.4263 C   0  0  2  0  0  0  0  0  0  0  0  0
   32.7069   42.4507    3.2981 O   0  0  0  0  0  0  0  0  0  0  0  0
   33.8102   37.9473    7.1265 C   0  0  2  0  0  0  0  0  0  0  0  0
   38.6269   39.2323    6.2182 C   0  0  2  0  0  0  0  0  0  0  0  0
   37.6843   38.8105    7.1937 O   0  0  0  0  0  0  0  0  0  0  0  0
   43.8620   41.1374    6.3782 C   0  0  2  0  0  0  0  0  0  0  0  0
   43.5331   41.7838    7.6194 O   0  0  0  0  0  0  0  0  0  0  0  0
   32.5615   40.1027    3.9038 C   0  0  2  0  0  0  0  0  0  0  0  0
   33.4009   38.8919    4.0421 O   0  0  0  0  0  0  0  0  0  0  0  0
   35.1066   37.3872    7.9000 C   0  0  2  0  0  0  0  0  0  0  0  0
   36.1943   36.9688    6.9750 O   0  0  0  0  0  0  0  0  0  0  0  0
   37.8517   39.7572    5.0187 C   0  0  0  0  0  0  0  0  0  0  0  0
   42.6155   41.1306    5.4033 C   0  0  1  0  0  0  0  0  0  0  0  0
   41.5176   40.2371    5.9068 O   0  0  0  0  0  0  0  0  0  0  0  0
   31.4136   39.8811    2.8915 C   0  0  0  0  0  0  0  0  0  0  0  0
   30.4212   40.9699    2.8291 N   0  0  0  0  0  0  0  0  0  0  0  0
   34.7146   36.1424    8.7243 C   0  0  1  0  0  0  0  0  0  0  0  0
   35.8666   35.6429    9.4113 O   0  0  0  0  0  0  0  0  0  0  0  0
   42.0552   42.5725    5.0958 C   0  0  0  0  0  0  0  0  0  0  0  0
   41.5562   43.3545    6.2717 N   0  0  0  0  0  0  0  0  0  0  0  0
  1  2  1  1  0  0  0
  1  7  1  0  0  0  0
  1 30  1  0  0  0  0
  3  4  1  6  0  0  0
  3  9  1  0  0  0  0
  3 38  1  0  0  0  0
  5 10  1  0  0  0  0
  5 26  1  6  0  0  0
  5 32  1  0  0  0  0
  6 12  1  0  0  0  0
  6 35  1  0  0  0  0
  6 19  1  1  0  0  0
  7  8  1  1  0  0  0
  7 14  1  0  0  0  0
  8 33  1  0  0  0  0
  9 16  1  0  0  0  0
 10 11  1  1  0  0  0
 10 18  1  0  0  0  0
 12 13  1  1  0  0  0
 12 20  1  0  0  0  0
 14 15  1  6  0  0  0
 14 22  1  0  0  0  0
 16 17  1  6  0  0  0
 16 24  1  0  0  0  0
 18 19  1  1  0  0  0
 18 25  1  0  0  0  0
 20 21  1  6  0  0  0
 20 27  1  0  0  0  0
 22 23  1  1  0  0  0
 22 29  1  0  0  0  0
 24  2  1  1  0  0  0
 24 31  1  0  0  0  0
 25 26  1  1  0  0  0
 25 33  1  0  0  0  0
 27 28  1  1  0  0  0
 27 34  1  0  0  0  0
 29 30  1  0  0  0  0
 29 36  1  6  0  0  0
 31 32  1  6  0  0  0
 31 38  1  0  0  0  0
 34 35  1  0  0  0  0
 34 40  1  1  0  0  0
 36 37  1  0  0  0  0
 38 39  1  1  0  0  0
 40 41  1  0  0  0  0
M  END
>  <CHROM.1>
160.73038242,177.24782332,-68.07724436,-61.03300025,37.23738618,39.17409824
6.27309808,3.09743294,0.11176459,2.40851857

>  <Name>
ligand

>  <RI>
0

>  <Rbt.Current_Directory>
/home/itssahil/PROJECTS/Mol_Feturizer/New_Systems/rnas/1ZZ5

>  <Rbt.Executable>
rbdock ($Id: //depot/dev/client3/rdock/2013.1/src/exe/rbdock.cxx#4 $)

>  <Rbt.Library>
libRbt.so (2013.1, Build901 2013/11/27)

>  <Rbt.Parameter_File>
/export/apps/rDock/src/rDock_2013.1_src/data/scripts/dock_solv.prm

>  <Rbt.Receptor>
prm/pocket_docking_2.prm

>  <SCORE>
-9.79417

>  <SCORE.INTER>
-8.95726

>  <SCORE.INTER.CONST>
1

>  <SCORE.INTER.POLAR>
0

>  <SCORE.INTER.ROT>
4

>  <SCORE.INTER.SOLV>
17.2968

>  <SCORE.INTER.VDW>
-18.0038

>  <SCORE.INTER.norm>
-0.21847

>  <SCORE.INTRA>
-0.848646

>  <SCORE.INTRA.DIHEDRAL>
-3.01336

>  <SCORE.INTRA.DIHEDRAL.0>
5.18357

>  <SCORE.INTRA.POLAR>
0

>  <SCORE.INTRA.POLAR.0>
0

>  <SCORE.INTRA.REPUL>
0

>  <SCORE.INTRA.REPUL.0>
0

>  <SCORE.INTRA.SOLV>
1.21586

>  <SCORE.INTRA.SOLV.lig_0>
-109.973

>  <SCORE.INTRA.VDW>
0.0501051

>  <SCORE.INTRA.VDW.0>
-1.68646

>  <SCORE.INTRA.norm>
-0.0206987

>  <SCORE.RESTR>
0.011731

>  <SCORE.RESTR.CAVITY>
0.011731

>  <SCORE.RESTR.norm>
0.000286121

>  <SCORE.SYSTEM>
0

>  <SCORE.SYSTEM.CONST>
0

>  <SCORE.SYSTEM.DIHEDRAL>
0

>  <SCORE.SYSTEM.SOLV>
0

>  <SCORE.SYSTEM.norm>
0

>  <SCORE.heavy>
41

>  <SCORE.norm>
-0.238882

>  <RMSD>
0.950

$$$$
ligand
 OpenBabel11021811423D
libRbt.so/2013.1/901 2013/11/27
 41 45  0  0  0  0  0  0  0  0999 V2000
   34.5429   39.0259    4.9556 C   0  0  2  0  0  0  0  0  0  0  0  0
   34.0919   39.1748    6.3161 O   0  0  0  0  0  0  0  0  0  0  0  0
   33.5188   36.4989    9.6968 C   0  0  2  0  0  0  0  0  0  0  0  0
   33.0936   35.3099   10.4795 N   0  0  0  0  0  0  0  0  0  0  0  0
   37.5479   37.3939    7.2803 C   0  0  1  0  0  0  0  0  0  0  0  0
   41.8637   38.8619    6.2970 C   0  0  1  0  0  0  0  0  0  0  0  0
   35.4643   40.2106    4.5371 C   0  0  2  0  0  0  0  0  0  0  0  0
   36.5903   40.4106    5.4543 N   0  0  0  0  0  0  0  0  0  0  0  0
   32.2755   37.0926    8.9620 C   0  0  0  0  0  0  0  0  0  0  0  0
   38.5703   36.8319    6.2661 C   0  0  2  0  0  0  0  0  0  0  0  0
   39.2934   35.7180    6.7999 O   0  0  0  0  0  0  0  0  0  0  0  0
   43.0694   38.7959    7.3285 C   0  0  2  0  0  0  0  0  0  0  0  0
   42.6895   39.1361    8.7338 N   0  0  0  0  0  0  0  0  0  0  0  0
   34.6367   41.5189    4.4201 C   0  0  1  0  0  0  0  0  0  0  0  0
   35.4780   42.5941    4.0110 O   0  0  0  0  0  0  0  0  0  0  0  0
   32.6626   38.3408    8.1168 C   0  0  2  0  0  0  0  0  0  0  0  0
   31.4375   38.8437    7.4670 N   0  0  0  0  0  0  0  0  0  0  0  0
   39.4772   38.0275    5.9281 C   0  0  2  0  0  0  0  0  0  0  0  0
   40.7278   38.0273    6.7253 O   0  0  0  0  0  0  0  0  0  0  0  0
   44.2498   39.7531    6.8427 C   0  0  1  0  0  0  0  0  0  0  0  0
   44.8555   39.2611    5.6269 O   0  0  0  0  0  0  0  0  0  0  0  0
   33.4814   41.3170    3.4124 C   0  0  2  0  0  0  0  0  0  0  0  0
   32.7345   42.5090    3.2877 O   0  0  0  0  0  0  0  0  0  0  0  0
   33.7823   37.9644    7.0829 C   0  0  2  0  0  0  0  0  0  0  0  0
   38.6124   39.2451    6.2423 C   0  0  2  0  0  0  0  0  0  0  0  0
   37.6576   38.8162    7.2028 O   0  0  0  0  0  0  0  0  0  0  0  0
   43.7539   41.2349    6.5982 C   0  0  2  0  0  0  0  0  0  0  0  0
   43.3825   41.8230    7.8562 O   0  0  0  0  0  0  0  0  0  0  0  0
   32.5760   40.1554    3.8681 C   0  0  2  0  0  0  0  0  0  0  0  0
   33.4105   38.9410    4.0038 O   0  0  0  0  0  0  0  0  0  0  0  0
   35.0682   37.3930    7.8654 C   0  0  2  0  0  0  0  0  0  0  0  0
   36.1653   36.9809    6.9487 O   0  0  0  0  0  0  0  0  0  0  0  0
   37.8522   39.7842    5.0394 C   0  0  0  0  0  0  0  0  0  0  0  0
   42.5274   41.2313    5.5982 C   0  0  1  0  0  0  0  0  0  0  0  0
   41.4459   40.2887    6.0443 O   0  0  0  0  0  0  0  0  0  0  0  0
   31.4391   39.9472    2.8406 C   0  0  0  0  0  0  0  0  0  0  0  0
   30.4465   41.0361    2.7828 N   0  0  0  0  0  0  0  0  0  0  0  0
   34.6636   36.1411    8.6727 C   0  0  1  0  0  0  0  0  0  0  0  0
   35.8064   35.6316    9.3677 O   0  0  0  0  0  0  0  0  0  0  0  0
   41.9322   42.6679    5.3348 C   0  0  0  0  0  0  0  0  0  0  0  0
   41.3618   43.3776    6.5241 N   0  0  0  0  0  0  0  0  0  0  0  0
  1  2  1  1  0  0  0
  1  7  1  0  0  0  0
  1 30  1  0  0  0  0
  3  4  1  6  0  0  0
  3  9  1  0  0  0  0
  3 38  1  0  0  0  0
  5 10  1  0  0  0  0
  5 26  1  6  0  0  0
  5 32  1  0  0  0  0
  6 12  1  0  0  0  0
  6 35  1  0  0  0  0
  6 19  1  1  0  0  0
  7  8  1  1  0  0  0
  7 14  1  0  0  0  0
  8 33  1  0  0  0  0
  9 16  1  0  0  0  0
 10 11  1  1  0  0  0
 10 18  1  0  0  0  0
 12 13  1  1  0  0  0
 12 20  1  0  0  0  0
 14 15  1  6  0  0  0
 14 22  1  0  0  0  0
 16 17  1  6  0  0  0
 16 24  1  0  0  0  0
 18 19  1  1  0  0  0
 18 25  1  0  0  0  0
 20 21  1  6  0  0  0
 20 27  1  0  0  0  0
 22 23  1  1  0  0  0
 22 29  1  0  0  0  0
 24  2  1  1  0  0  0
 24 31  1  0  0  0  0
 25 26  1  1  0  0  0
 25 33  1  0  0  0  0
 27 28  1  1  0  0  0
 27 34  1  0  0  0  0
 29 30  1  0  0  0  0
 29 36  1  6  0  0  0
 31 32  1  6  0  0  0
 31 38  1  0  0  0  0
 34 35  1  0  0  0  0
 34 40  1  1  0  0  0
 36 37  1  0  0  0  0
 38 39  1  1  0  0  0
 40 41  1  0  0  0  0
M  END
>  <CHROM.1>
163.52024464,176.31987182,-68.37611809,-62.28275848,37.20069687,39.20892937
6.30534594,3.10892758,0.12901710,2.42211585

>  <Name>
ligand

>  <RI>
0

>  <Rbt.Current_Directory>
/home/itssahil/PROJECTS/Mol_Feturizer/New_Systems/rnas/1ZZ5

>  <Rbt.Executable>
rbdock ($Id: //depot/dev/client3/rdock/2013.1/src/exe/rbdock.cxx#4 $)

>  <Rbt.Library>
libRbt.so (2013.1, Build901 2013/11/27)

>  <Rbt.Parameter_File>
/export/apps/rDock/src/rDock_2013.1_src/data/scripts/dock_solv.prm

>  <Rbt.Receptor>
prm/pocket_docking_2.prm

>  <SCORE>
-9.78441

>  <SCORE.INTER>
-8.75519

>  <SCORE.INTER.CONST>
1

>  <SCORE.INTER.POLAR>
0

>  <SCORE.INTER.ROT>
4

>  <SCORE.INTER.SOLV>
17.4545

>  <SCORE.INTER.VDW>
-17.9216

>  <SCORE.INTER.norm>
-0.213541

>  <SCORE.INTRA>
-1.0297

>  <SCORE.INTRA.DIHEDRAL>
-3.36801

>  <SCORE.INTRA.DIHEDRAL.0>
5.18357

>  <SCORE.INTRA.POLAR>
0

>  <SCORE.INTRA.POLAR.0>
0

>  <SCORE.INTRA.REPUL>
0

>  <SCORE.INTRA.REPUL.0>
0

>  <SCORE.INTRA.SOLV>
1.22015

>  <SCORE.INTRA.SOLV.lig_0>
-109.973

>  <SCORE.INTRA.VDW>
0.0442288

>  <SCORE.INTRA.VDW.0>
-1.68646

>  <SCORE.INTRA.norm>
-0.0251146

>  <SCORE.RESTR>
0.000482385

>  <SCORE.RESTR.CAVITY>
0.000482385

>  <SCORE.RESTR.norm>
1.17655e-05

>  <SCORE.SYSTEM>
0

>  <SCORE.SYSTEM.CONST>
0

>  <SCORE.SYSTEM.DIHEDRAL>
0

>  <SCORE.SYSTEM.SOLV>
0

>  <SCORE.SYSTEM.norm>
0

>  <SCORE.heavy>
41

>  <SCORE.norm>
-0.238644

>  <RMSD>
0.954

$$$$
ligand
 OpenBabel11021811423D
libRbt.so/2013.1/901 2013/11/27
 41 45  0  0  0  0  0  0  0  0999 V2000
   34.5562   39.0154    4.9771 C   0  0  2  0  0  0  0  0  0  0  0  0
   34.1031   39.1660    6.3367 O   0  0  0  0  0  0  0  0  0  0  0  0
   33.5072   36.4916    9.7146 C   0  0  2  0  0  0  0  0  0  0  0  0
   33.0735   35.3045   10.4957 N   0  0  0  0  0  0  0  0  0  0  0  0
   37.5468   37.3649    7.3074 C   0  0  1  0  0  0  0  0  0  0  0  0
   41.8569   38.8425    6.3599 C   0  0  1  0  0  0  0  0  0  0  0  0
   35.4854   40.1950    4.5614 C   0  0  2  0  0  0  0  0  0  0  0  0
   36.6105   40.3881    5.4811 N   0  0  0  0  0  0  0  0  0  0  0  0
   32.2690   37.0928    8.9774 C   0  0  0  0  0  0  0  0  0  0  0  0
   38.5681   36.7976    6.2951 C   0  0  2  0  0  0  0  0  0  0  0  0
   39.2836   35.6792    6.8300 O   0  0  0  0  0  0  0  0  0  0  0  0
   43.0359   38.8090    7.4234 C   0  0  2  0  0  0  0  0  0  0  0  0
   42.6100   39.1420    8.8172 N   0  0  0  0  0  0  0  0  0  0  0  0
   34.6655   41.5082    4.4433 C   0  0  1  0  0  0  0  0  0  0  0  0
   35.5139   42.5787    4.0367 O   0  0  0  0  0  0  0  0  0  0  0  0
   32.6651   38.3393    8.1338 C   0  0  2  0  0  0  0  0  0  0  0  0
   31.4443   38.8495    7.4816 N   0  0  0  0  0  0  0  0  0  0  0  0
   39.4826   37.9882    5.9599 C   0  0  2  0  0  0  0  0  0  0  0  0
   40.7314   37.9804    6.7599 O   0  0  0  0  0  0  0  0  0  0  0  0
   44.2044   39.7948    6.9669 C   0  0  1  0  0  0  0  0  0  0  0  0
   44.8546   39.3161    5.7690 O   0  0  0  0  0  0  0  0  0  0  0  0
   33.5113   41.3135    3.4330 C   0  0  2  0  0  0  0  0  0  0  0  0
   32.7715   42.5097    3.3073 O   0  0  0  0  0  0  0  0  0  0  0  0
   33.7848   37.9570    7.1021 C   0  0  2  0  0  0  0  0  0  0  0  0
   38.6241   39.2105    6.2729 C   0  0  2  0  0  0  0  0  0  0  0  0
   37.6648   38.7865    7.2311 O   0  0  0  0  0  0  0  0  0  0  0  0
   43.6779   41.2631    6.7055 C   0  0  2  0  0  0  0  0  0  0  0  0
   43.2583   41.8440    7.9517 O   0  0  0  0  0  0  0  0  0  0  0  0
   32.5983   40.1568    3.8860 C   0  0  2  0  0  0  0  0  0  0  0  0
   33.4255   38.9375    4.0228 O   0  0  0  0  0  0  0  0  0  0  0  0
   35.0658   37.3778    7.8871 C   0  0  2  0  0  0  0  0  0  0  0  0
   36.1625   36.9600    6.9726 O   0  0  0  0  0  0  0  0  0  0  0  0
   37.8697   39.7546    5.0687 C   0  0  0  0  0  0  0  0  0  0  0  0
   42.4791   41.2268    5.6732 C   0  0  1  0  0  0  0  0  0  0  0  0
   41.4102   40.2579    6.0926 O   0  0  0  0  0  0  0  0  0  0  0  0
   31.4624   39.9557    2.8559 C   0  0  0  0  0  0  0  0  0  0  0  0
   30.4871   41.0591    2.7830 N   0  0  0  0  0  0  0  0  0  0  0  0
   34.6522   36.1278    8.6928 C   0  0  1  0  0  0  0  0  0  0  0  0
   35.7906   35.6114    9.3900 O   0  0  0  0  0  0  0  0  0  0  0  0
   41.8551   42.6473    5.3904 C   0  0  0  0  0  0  0  0  0  0  0  0
   41.2051   43.3296    6.5545 N   0  0  0  0  0  0  0  0  0  0  0  0
  1  2  1  1  0  0  0
  1  7  1  0  0  0  0
  1 30  1  0  0  0  0
  3  4  1  6  0  0  0
  3  9  1  0  0  0  0
  3 38  1  0  0  0  0
  5 10  1  0  0  0  0
  5 26  1  6  0  0  0
  5 32  1  0  0  0  0
  6 12  1  0  0  0  0
  6 35  1  0  0  0  0
  6 19  1  1  0  0  0
  7  8  1  1  0  0  0
  7 14  1  0  0  0  0
  8 33  1  0  0  0  0
  9 16  1  0  0  0  0
 10 11  1  1  0  0  0
 10 18  1  0  0  0  0
 12 13  1  1  0  0  0
 12 20  1  0  0  0  0
 14 15  1  6  0  0  0
 14 22  1  0  0  0  0
 16 17  1  6  0  0  0
 16 24  1  0  0  0  0
 18 19  1  1  0  0  0
 18 25  1  0  0  0  0
 20 21  1  6  0  0  0
 20 27  1  0  0  0  0
 22 23  1  1  0  0  0
 22 29  1  0  0  0  0
 24  2  1  1  0  0  0
 24 31  1  0  0  0  0
 25 26  1  1  0  0  0
 25 33  1  0  0  0  0
 27 28  1  1  0  0  0
 27 34  1  0  0  0  0
 29 30  1  0  0  0  0
 29 36  1  6  0  0  0
 31 32  1  6  0  0  0
 31 38  1  0  0  0  0
 34 35  1  0  0  0  0
 34 40  1  1  0  0  0
 36 37  1  0  0  0  0
 38 39  1  1  0  0  0
 40 41  1  0  0  0  0
M  END
>  <CHROM.1>
165.54826322,173.88802830,-67.54172200,-63.76331008,37.19063873,39.19947013
6.34401877,3.11375934,0.13415718,2.42393933

>  <Name>
ligand

>  <RI>
0

>  <Rbt.Current_Directory>
/home/itssahil/PROJECTS/Mol_Feturizer/New_Systems/rnas/1ZZ5

>  <Rbt.Executable>
rbdock ($Id: //depot/dev/client3/rdock/2013.1/src/exe/rbdock.cxx#4 $)

>  <Rbt.Library>
libRbt.so (2013.1, Build901 2013/11/27)

>  <Rbt.Parameter_File>
/export/apps/rDock/src/rDock_2013.1_src/data/scripts/dock_solv.prm

>  <Rbt.Receptor>
prm/pocket_docking_2.prm

>  <SCORE>
-9.80745

>  <SCORE.INTER>
-8.70863

>  <SCORE.INTER.CONST>
1

>  <SCORE.INTER.POLAR>
0

>  <SCORE.INTER.ROT>
4

>  <SCORE.INTER.SOLV>
17.3672

>  <SCORE.INTER.VDW>
-17.8615

>  <SCORE.INTER.norm>
-0.212406

>  <SCORE.INTRA>
-1.09881

>  <SCORE.INTRA.DIHEDRAL>
-3.54043

>  <SCORE.INTRA.DIHEDRAL.0>
5.18357

>  <SCORE.INTRA.POLAR>
0

>  <SCORE.INTRA.POLAR.0>
0

>  <SCORE.INTRA.REPUL>
0

>  <SCORE.INTRA.REPUL.0>
0

>  <SCORE.INTRA.SOLV>
1.26133

>  <SCORE.INTRA.SOLV.lig_0>
-109.973

>  <SCORE.INTRA.VDW>
0.0407391

>  <SCORE.INTRA.VDW.0>
-1.68646

>  <SCORE.INTRA.norm>
-0.0268004

>  <SCORE.RESTR>
0

>  <SCORE.RESTR.CAVITY>
0

>  <SCORE.RESTR.norm>
0

>  <SCORE.SYSTEM>
0

>  <SCORE.SYSTEM.CONST>
0

>  <SCORE.SYSTEM.DIHEDRAL>
0

>  <SCORE.SYSTEM.SOLV>
0

>  <SCORE.SYSTEM.norm>
0

>  <SCORE.heavy>
41

>  <SCORE.norm>
-0.239206

>  <RMSD>
0.957

$$$$
ligand
 OpenBabel11021811423D
libRbt.so/2013.1/901 2013/11/27
 41 45  0  0  0  0  0  0  0  0999 V2000
   34.5484   39.0368    4.9392 C   0  0  2  0  0  0  0  0  0  0  0  0
   34.0931   39.1802    6.2988 O   0  0  0  0  0  0  0  0  0  0  0  0
   33.5053   36.4901    9.6656 C   0  0  2  0  0  0  0  0  0  0  0  0
   33.0760   35.2981   10.4416 N   0  0  0  0  0  0  0  0  0  0  0  0
   37.5436   37.3907    7.2666 C   0  0  1  0  0  0  0  0  0  0  0  0
   41.8484   38.8908    6.3295 C   0  0  1  0  0  0  0  0  0  0  0  0
   35.4728   40.2222    4.5290 C   0  0  2  0  0  0  0  0  0  0  0  0
   36.5959   40.4167    5.4509 N   0  0  0  0  0  0  0  0  0  0  0  0
   32.2653   37.0886    8.9293 C   0  0  0  0  0  0  0  0  0  0  0  0
   38.5687   36.8318    6.2533 C   0  0  2  0  0  0  0  0  0  0  0  0
   39.2885   35.7146    6.7846 O   0  0  0  0  0  0  0  0  0  0  0  0
   43.0499   38.8148    7.3652 C   0  0  2  0  0  0  0  0  0  0  0  0
   42.6566   39.1036    8.7783 N   0  0  0  0  0  0  0  0  0  0  0  0
   34.6472   41.5321    4.4151 C   0  0  1  0  0  0  0  0  0  0  0  0
   35.4912   42.6079    4.0136 O   0  0  0  0  0  0  0  0  0  0  0  0
   32.6567   38.3401    8.0910 C   0  0  2  0  0  0  0  0  0  0  0  0
   31.4344   38.8474    7.4394 N   0  0  0  0  0  0  0  0  0  0  0  0
   39.4782   38.0278    5.9237 C   0  0  2  0  0  0  0  0  0  0  0  0
   40.7261   38.0225    6.7251 O   0  0  0  0  0  0  0  0  0  0  0  0
   44.2148   39.8084    6.9163 C   0  0  1  0  0  0  0  0  0  0  0  0
   44.8356   39.3661    5.6892 O   0  0  0  0  0  0  0  0  0  0  0  0
   33.4951   41.3362    3.4027 C   0  0  2  0  0  0  0  0  0  0  0  0
   32.7500   42.5296    3.2808 O   0  0  0  0  0  0  0  0  0  0  0  0
   33.7794   37.9668    7.0592 C   0  0  2  0  0  0  0  0  0  0  0  0
   38.6139   39.2451    6.2404 C   0  0  2  0  0  0  0  0  0  0  0  0
   37.6554   38.8131    7.1958 O   0  0  0  0  0  0  0  0  0  0  0  0
   43.6926   41.2877    6.7155 C   0  0  2  0  0  0  0  0  0  0  0  0
   43.3039   41.8291    7.9892 O   0  0  0  0  0  0  0  0  0  0  0  0
   32.5867   40.1737    3.8502 C   0  0  2  0  0  0  0  0  0  0  0  0
   33.4192   38.9576    3.9832 O   0  0  0  0  0  0  0  0  0  0  0  0
   35.0620   37.3903    7.8434 C   0  0  2  0  0  0  0  0  0  0  0  0
   36.1616   36.9809    6.9285 O   0  0  0  0  0  0  0  0  0  0  0  0
   37.8585   39.7905    5.0374 C   0  0  0  0  0  0  0  0  0  0  0  0
   42.4714   41.2929    5.7090 C   0  0  1  0  0  0  0  0  0  0  0  0
   41.4054   40.3169    6.1193 O   0  0  0  0  0  0  0  0  0  0  0  0
   31.4529   39.9715    2.8180 C   0  0  0  0  0  0  0  0  0  0  0  0
   30.4669   41.0661    2.7554 N   0  0  0  0  0  0  0  0  0  0  0  0
   34.6530   36.1353    8.6438 C   0  0  1  0  0  0  0  0  0  0  0  0
   35.7929   35.6213    9.3403 O   0  0  0  0  0  0  0  0  0  0  0  0
   41.8509   42.7259    5.4874 C   0  0  0  0  0  0  0  0  0  0  0  0
   41.2399   43.3770    6.6899 N   0  0  0  0  0  0  0  0  0  0  0  0
  1  2  1  1  0  0  0
  1  7  1  0  0  0  0
  1 30  1  0  0  0  0
  3  4  1  6  0  0  0
  3  9  1  0  0  0  0
  3 38  1  0  0  0  0
  5 10  1  0  0  0  0
  5 26  1  6  0  0  0
  5 32  1  0  0  0  0
  6 12  1  0  0  0  0
  6 35  1  0  0  0  0
  6 19  1  1  0  0  0
  7  8  1  1  0  0  0
  7 14  1  0  0  0  0
  8 33  1  0  0  0  0
  9 16  1  0  0  0  0
 10 11  1  1  0  0  0
 10 18  1  0  0  0  0
 12 13  1  1  0  0  0
 12 20  1  0  0  0  0
 14 15  1  6  0  0  0
 14 22  1  0  0  0  0
 16 17  1  6  0  0  0
 16 24  1  0  0  0  0
 18 19  1  1  0  0  0
 18 25  1  0  0  0  0
 20 21  1  6  0  0  0
 20 27  1  0  0  0  0
 22 23  1  1  0  0  0
 22 29  1  0  0  0  0
 24  2  1  1  0  0  0
 24 31  1  0  0  0  0
 25 26  1  1  0  0  0
 25 33  1  0  0  0  0
 27 28  1  1  0  0  0
 27 34  1  0  0  0  0
 29 30  1  0  0  0  0
 29 36  1  6  0  0  0
 31 32  1  6  0  0  0
 31 38  1  0  0  0  0
 34 35  1  0  0  0  0
 34 40  1  1  0  0  0
 36 37  1  0  0  0  0
 38 39  1  1  0  0  0
 40 41  1  0  0  0  0
M  END
>  <CHROM.1>
165.52668418,176.12665684,-67.98670132,-63.31907665,37.18780853,39.22177305
6.31811141,3.11491598,0.13840973,2.42949471

>  <Name>
ligand

>  <RI>
0

>  <Rbt.Current_Directory>
/home/itssahil/PROJECTS/Mol_Feturizer/New_Systems/rnas/1ZZ5

>  <Rbt.Executable>
rbdock ($Id: //depot/dev/client3/rdock/2013.1/src/exe/rbdock.cxx#4 $)

>  <Rbt.Library>
libRbt.so (2013.1, Build901 2013/11/27)

>  <Rbt.Parameter_File>
/export/apps/rDock/src/rDock_2013.1_src/data/scripts/dock_solv.prm

>  <Rbt.Receptor>
prm/pocket_docking_2.prm

>  <SCORE>
-9.81546

>  <SCORE.INTER>
-8.66917

>  <SCORE.INTER.CONST>
1

>  <SCORE.INTER.POLAR>
0

>  <SCORE.INTER.ROT>
4

>  <SCORE.INTER.SOLV>
17.5037

>  <SCORE.INTER.VDW>
-17.8807

>  <SCORE.INTER.norm>
-0.211443

>  <SCORE.INTRA>
-1.15176

>  <SCORE.INTRA.DIHEDRAL>
-3.63144

>  <SCORE.INTRA.DIHEDRAL.0>
5.18357

>  <SCORE.INTRA.POLAR>
0

>  <SCORE.INTRA.POLAR.0>
0

>  <SCORE.INTRA.REPUL>
0

>  <SCORE.INTRA.REPUL.0>
0

>  <SCORE.INTRA.SOLV>
1.23711

>  <SCORE.INTRA.SOLV.lig_0>
-109.973

>  <SCORE.INTRA.VDW>
0.0454081

>  <SCORE.INTRA.VDW.0>
-1.68646

>  <SCORE.INTRA.norm>
-0.0280916

>  <SCORE.RESTR>
0.00546244

>  <SCORE.RESTR.CAVITY>
0.00546244

>  <SCORE.RESTR.norm>
0.00013323

>  <SCORE.SYSTEM>
0

>  <SCORE.SYSTEM.CONST>
0

>  <SCORE.SYSTEM.DIHEDRAL>
0

>  <SCORE.SYSTEM.SOLV>
0

>  <SCORE.SYSTEM.norm>
0

>  <SCORE.heavy>
41

>  <SCORE.norm>
-0.239401

>  <RMSD>
0.966

$$$$
ligand
 OpenBabel11021811423D
libRbt.so/2013.1/901 2013/11/27
 41 45  0  0  0  0  0  0  0  0999 V2000
   34.5156   38.9952    4.9728 C   0  0  2  0  0  0  0  0  0  0  0  0
   34.0738   39.1605    6.3344 O   0  0  0  0  0  0  0  0  0  0  0  0
   33.5173   36.5247    9.7492 C   0  0  2  0  0  0  0  0  0  0  0  0
   33.0948   35.3456   10.5482 N   0  0  0  0  0  0  0  0  0  0  0  0
   37.5324   37.3836    7.2965 C   0  0  1  0  0  0  0  0  0  0  0  0
   41.8478   38.8240    6.2635 C   0  0  1  0  0  0  0  0  0  0  0  0
   35.4367   40.1731    4.5348 C   0  0  2  0  0  0  0  0  0  0  0  0
   36.5691   40.3812    5.4423 N   0  0  0  0  0  0  0  0  0  0  0  0
   32.2705   37.1126    9.0157 C   0  0  0  0  0  0  0  0  0  0  0  0
   38.5470   36.8078    6.2821 C   0  0  2  0  0  0  0  0  0  0  0  0
   39.2713   35.6986    6.8240 O   0  0  0  0  0  0  0  0  0  0  0  0
   43.0676   38.7524    7.2779 C   0  0  2  0  0  0  0  0  0  0  0  0
   42.7117   39.1054    8.6863 N   0  0  0  0  0  0  0  0  0  0  0  0
   34.6110   41.4818    4.4082 C   0  0  1  0  0  0  0  0  0  0  0  0
   35.4519   42.5503    3.9814 O   0  0  0  0  0  0  0  0  0  0  0  0
   32.6545   38.3502    8.1538 C   0  0  2  0  0  0  0  0  0  0  0  0
   31.4263   38.8482    7.5063 N   0  0  0  0  0  0  0  0  0  0  0  0
   39.4541   37.9976    5.9247 C   0  0  2  0  0  0  0  0  0  0  0  0
   40.7099   38.0039    6.7137 O   0  0  0  0  0  0  0  0  0  0  0  0
   44.2506   39.6943    6.7688 C   0  0  1  0  0  0  0  0  0  0  0  0
   44.8334   39.1884    5.5477 O   0  0  0  0  0  0  0  0  0  0  0  0
   33.4488   41.2708    3.4105 C   0  0  2  0  0  0  0  0  0  0  0  0
   32.7035   42.4628    3.2769 O   0  0  0  0  0  0  0  0  0  0  0  0
   33.7667   37.9597    7.1170 C   0  0  2  0  0  0  0  0  0  0  0  0
   38.5939   39.2205    6.2305 C   0  0  2  0  0  0  0  0  0  0  0  0
   37.6445   38.8046    7.2021 O   0  0  0  0  0  0  0  0  0  0  0  0
   43.7661   41.1795    6.5217 C   0  0  2  0  0  0  0  0  0  0  0  0
   43.4190   41.7794    7.7811 O   0  0  0  0  0  0  0  0  0  0  0  0
   32.5441   40.1163    3.8853 C   0  0  2  0  0  0  0  0  0  0  0  0
   33.3770   38.9018    4.0294 O   0  0  0  0  0  0  0  0  0  0  0  0
   35.0566   37.3946    7.8977 C   0  0  2  0  0  0  0  0  0  0  0  0
   36.1469   36.9697    6.9786 O   0  0  0  0  0  0  0  0  0  0  0  0
   37.8270   39.7474    5.0265 C   0  0  0  0  0  0  0  0  0  0  0  0
   42.5252   41.1820    5.5397 C   0  0  1  0  0  0  0  0  0  0  0  0
   41.4409   40.2534    6.0076 O   0  0  0  0  0  0  0  0  0  0  0  0
   31.4000   39.8988    2.8676 C   0  0  0  0  0  0  0  0  0  0  0  0
   30.4161   40.9946    2.7951 N   0  0  0  0  0  0  0  0  0  0  0  0
   34.6547   36.1528    8.7218 C   0  0  1  0  0  0  0  0  0  0  0  0
   35.8010   35.6489    9.4151 O   0  0  0  0  0  0  0  0  0  0  0  0
   41.9408   42.6229    5.2755 C   0  0  0  0  0  0  0  0  0  0  0  0
   41.4202   43.3570    6.4727 N   0  0  0  0  0  0  0  0  0  0  0  0
  1  2  1  1  0  0  0
  1  7  1  0  0  0  0
  1 30  1  0  0  0  0
  3  4  1  6  0  0  0
  3  9  1  0  0  0  0
  3 38  1  0  0  0  0
  5 10  1  0  0  0  0
  5 26  1  6  0  0  0
  5 32  1  0  0  0  0
  6 12  1  0  0  0  0
  6 35  1  0  0  0  0
  6 19  1  1  0  0  0
  7  8  1  1  0  0  0
  7 14  1  0  0  0  0
  8 33  1  0  0  0  0
  9 16  1  0  0  0  0
 10 11  1  1  0  0  0
 10 18  1  0  0  0  0
 12 13  1  1  0  0  0
 12 20  1  0  0  0  0
 14 15  1  6  0  0  0
 14 22  1  0  0  0  0
 16 17  1  6  0  0  0
 16 24  1  0  0  0  0
 18 19  1  1  0  0  0
 18 25  1  0  0  0  0
 20 21  1  6  0  0  0
 20 27  1  0  0  0  0
 22 23  1  1  0  0  0
 22 29  1  0  0  0  0
 24  2  1  1  0  0  0
 24 31  1  0  0  0  0
 25 26  1  1  0  0  0
 25 33  1  0  0  0  0
 27 28  1  1  0  0  0
 27 34  1  0  0  0  0
 29 30  1  0  0  0  0
 29 36  1  6  0  0  0
 31 32  1  6  0  0  0
 31 38  1  0  0  0  0
 34 35  1  0  0  0  0
 34 40  1  1  0  0  0
 36 37  1  0  0  0  0
 38 39  1  1  0  0  0
 40 41  1  0  0  0  0
M  END
>  <CHROM.1>
163.10902040,177.13700956,-67.84563234,-61.09245802,37.18857348,39.18400165
6.30185852,3.10694006,0.12152355,2.41078052

>  <Name>
ligand

>  <RI>
0

>  <Rbt.Current_Directory>
/home/itssahil/PROJECTS/Mol_Feturizer/New_Systems/rnas/1ZZ5

>  <Rbt.Executable>
rbdock ($Id: //depot/dev/client3/rdock/2013.1/src/exe/rbdock.cxx#4 $)

>  <Rbt.Library>
libRbt.so (2013.1, Build901 2013/11/27)

>  <Rbt.Parameter_File>
/export/apps/rDock/src/rDock_2013.1_src/data/scripts/dock_solv.prm

>  <Rbt.Receptor>
prm/pocket_docking_2.prm

>  <SCORE>
-9.81076

>  <SCORE.INTER>
-8.78712

>  <SCORE.INTER.CONST>
1

>  <SCORE.INTER.POLAR>
0

>  <SCORE.INTER.ROT>
4

>  <SCORE.INTER.SOLV>
17.2998

>  <SCORE.INTER.VDW>
-17.8913

>  <SCORE.INTER.norm>
-0.21432

>  <SCORE.INTRA>
-1.02364

>  <SCORE.INTRA.DIHEDRAL>
-3.3816

>  <SCORE.INTRA.DIHEDRAL.0>
5.18357

>  <SCORE.INTRA.POLAR>
0

>  <SCORE.INTRA.POLAR.0>
0

>  <SCORE.INTRA.REPUL>
0

>  <SCORE.INTRA.REPUL.0>
0

>  <SCORE.INTRA.SOLV>
1.22956

>  <SCORE.INTRA.SOLV.lig_0>
-109.973

>  <SCORE.INTRA.VDW>
0.0523821

>  <SCORE.INTRA.VDW.0>
-1.68646

>  <SCORE.INTRA.norm>
-0.0249668

>  <SCORE.RESTR>
0

>  <SCORE.RESTR.CAVITY>
0

>  <SCORE.RESTR.norm>
0

>  <SCORE.SYSTEM>
0

>  <SCORE.SYSTEM.CONST>
0

>  <SCORE.SYSTEM.DIHEDRAL>
0

>  <SCORE.SYSTEM.SOLV>
0

>  <SCORE.SYSTEM.norm>
0

>  <SCORE.heavy>
41

>  <SCORE.norm>
-0.239287

>  <RMSD>
0.970

$$$$
ligand
 OpenBabel11021811423D
libRbt.so/2013.1/901 2013/11/27
 41 45  0  0  0  0  0  0  0  0999 V2000
   34.6238   39.2430    4.9837 C   0  0  2  0  0  0  0  0  0  0  0  0
   34.1519   39.3248    6.3428 O   0  0  0  0  0  0  0  0  0  0  0  0
   33.4450   36.4735    9.5503 C   0  0  2  0  0  0  0  0  0  0  0  0
   32.9737   35.2532   10.2545 N   0  0  0  0  0  0  0  0  0  0  0  0
   37.5406   37.3952    7.2588 C   0  0  1  0  0  0  0  0  0  0  0  0
   41.8794   38.8615    6.4913 C   0  0  1  0  0  0  0  0  0  0  0  0
   35.5842   40.4239    4.6511 C   0  0  2  0  0  0  0  0  0  0  0  0
   36.6981   40.5387    5.5973 N   0  0  0  0  0  0  0  0  0  0  0  0
   32.2319   37.1434    8.8308 C   0  0  0  0  0  0  0  0  0  0  0  0
   38.5660   36.8650    6.2306 C   0  0  2  0  0  0  0  0  0  0  0  0
   39.2490   35.7021    6.7103 O   0  0  0  0  0  0  0  0  0  0  0  0
   43.1971   38.4287    7.2650 C   0  0  2  0  0  0  0  0  0  0  0  0
   43.0250   38.3119    8.7454 N   0  0  0  0  0  0  0  0  0  0  0  0
   34.7944   41.7594    4.5972 C   0  0  1  0  0  0  0  0  0  0  0  0
   35.6716   42.8327    4.2662 O   0  0  0  0  0  0  0  0  0  0  0  0
   32.6678   38.4275    8.0671 C   0  0  2  0  0  0  0  0  0  0  0  0
   31.4688   39.0013    7.4274 N   0  0  0  0  0  0  0  0  0  0  0  0
   39.5108   38.0525    5.9789 C   0  0  2  0  0  0  0  0  0  0  0  0
   40.7460   37.9710    6.7956 O   0  0  0  0  0  0  0  0  0  0  0  0
   44.3767   39.4522    6.9388 C   0  0  1  0  0  0  0  0  0  0  0  0
   44.7844   39.3572    5.5561 O   0  0  0  0  0  0  0  0  0  0  0  0
   33.6529   41.6488    3.5602 C   0  0  2  0  0  0  0  0  0  0  0  0
   32.9406   42.8663    3.4931 O   0  0  0  0  0  0  0  0  0  0  0  0
   33.7959   38.0809    7.0319 C   0  0  2  0  0  0  0  0  0  0  0  0
   38.6733   39.2733    6.3494 C   0  0  2  0  0  0  0  0  0  0  0  0
   37.6898   38.8160    7.2669 O   0  0  0  0  0  0  0  0  0  0  0  0
   43.9692   40.9494    7.2451 C   0  0  2  0  0  0  0  0  0  0  0  0
   43.8059   41.1143    8.6638 O   0  0  0  0  0  0  0  0  0  0  0  0
   32.7084   40.4883    3.9315 C   0  0  2  0  0  0  0  0  0  0  0  0
   33.5073   39.2452    4.0096 O   0  0  0  0  0  0  0  0  0  0  0  0
   35.0514   37.4293    7.8010 C   0  0  2  0  0  0  0  0  0  0  0  0
   36.1538   37.0409    6.8802 O   0  0  0  0  0  0  0  0  0  0  0  0
   37.9502   39.9026    5.1677 C   0  0  0  0  0  0  0  0  0  0  0  0
   42.6295   41.3070    6.4823 C   0  0  1  0  0  0  0  0  0  0  0  0
   41.5439   40.3067    6.7616 O   0  0  0  0  0  0  0  0  0  0  0  0
   31.5854   40.3721    2.8745 C   0  0  0  0  0  0  0  0  0  0  0  0
   30.5849   39.3228    3.1435 N   0  0  0  0  0  0  0  0  0  0  0  0
   34.5985   36.1442    8.5264 C   0  0  1  0  0  0  0  0  0  0  0  0
   35.7142   35.5635    9.2094 O   0  0  0  0  0  0  0  0  0  0  0  0
   42.1180   42.7706    6.7711 C   0  0  0  0  0  0  0  0  0  0  0  0
   40.9027   43.2097    6.0137 N   0  0  0  0  0  0  0  0  0  0  0  0
  1  2  1  1  0  0  0
  1  7  1  0  0  0  0
  1 30  1  0  0  0  0
  3  4  1  6  0  0  0
  3  9  1  0  0  0  0
  3 38  1  0  0  0  0
  5 10  1  0  0  0  0
  5 26  1  6  0  0  0
  5 32  1  0  0  0  0
  6 12  1  0  0  0  0
  6 35  1  0  0  0  0
  6 19  1  1  0  0  0
  7  8  1  1  0  0  0
  7 14  1  0  0  0  0
  8 33  1  0  0  0  0
  9 16  1  0  0  0  0
 10 11  1  1  0  0  0
 10 18  1  0  0  0  0
 12 13  1  1  0  0  0
 12 20  1  0  0  0  0
 14 15  1  6  0  0  0
 14 22  1  0  0  0  0
 16 17  1  6  0  0  0
 16 24  1  0  0  0  0
 18 19  1  1  0  0  0
 18 25  1  0  0  0  0
 20 21  1  6  0  0  0
 20 27  1  0  0  0  0
 22 23  1  1  0  0  0
 22 29  1  0  0  0  0
 24  2  1  1  0  0  0
 24 31  1  0  0  0  0
 25 26  1  1  0  0  0
 25 33  1  0  0  0  0
 27 28  1  1  0  0  0
 27 34  1  0  0  0  0
 29 30  1  0  0  0  0
 29 36  1  6  0  0  0
 31 32  1  6  0  0  0
 31 38  1  0  0  0  0
 34 35  1  0  0  0  0
 34 40  1  1  0  0  0
 36 37  1  0  0  0  0
 38 39  1  1  0  0  0
 40 41  1  0  0  0  0
M  END
>  <CHROM.1>
167.57387864,-168.32357635,-177.96841863,176.17200258,37.26283954,39.19341442
6.42669961,-3.14090290,0.13878598,2.47253758

>  <Name>
ligand

>  <RI>
0

>  <Rbt.Current_Directory>
/home/itssahil/PROJECTS/Mol_Feturizer/New_Systems/rnas/1ZZ5

>  <Rbt.Executable>
rbdock ($Id: //depot/dev/client3/rdock/2013.1/src/exe/rbdock.cxx#4 $)

>  <Rbt.Library>
libRbt.so (2013.1, Build901 2013/11/27)

>  <Rbt.Parameter_File>
/export/apps/rDock/src/rDock_2013.1_src/data/scripts/dock_solv.prm

>  <Rbt.Receptor>
prm/pocket_docking_2.prm

>  <SCORE>
-10.0175

>  <SCORE.INTER>
-7.57684

>  <SCORE.INTER.CONST>
1

>  <SCORE.INTER.POLAR>
0

>  <SCORE.INTER.ROT>
4

>  <SCORE.INTER.SOLV>
18.8225

>  <SCORE.INTER.VDW>
-17.5921

>  <SCORE.INTER.norm>
-0.184801

>  <SCORE.INTRA>
-2.44064

>  <SCORE.INTRA.DIHEDRAL>
-3.51305

>  <SCORE.INTRA.DIHEDRAL.0>
5.18357

>  <SCORE.INTRA.POLAR>
0

>  <SCORE.INTRA.POLAR.0>
0

>  <SCORE.INTRA.REPUL>
0

>  <SCORE.INTRA.REPUL.0>
0

>  <SCORE.INTRA.SOLV>
-1.48543

>  <SCORE.INTRA.SOLV.lig_0>
-109.973

>  <SCORE.INTRA.VDW>
0.0586

>  <SCORE.INTRA.VDW.0>
-1.68646

>  <SCORE.INTRA.norm>
-0.0595278

>  <SCORE.RESTR>
0

>  <SCORE.RESTR.CAVITY>
0

>  <SCORE.RESTR.norm>
0

>  <SCORE.SYSTEM>
0

>  <SCORE.SYSTEM.CONST>
0

>  <SCORE.SYSTEM.DIHEDRAL>
0

>  <SCORE.SYSTEM.SOLV>
0

>  <SCORE.SYSTEM.norm>
0

>  <SCORE.heavy>
41

>  <SCORE.norm>
-0.244329

>  <RMSD>
0.975

$$$$
ligand
 OpenBabel11021811423D
libRbt.so/2013.1/901 2013/11/27
 41 45  0  0  0  0  0  0  0  0999 V2000
   34.5288   39.0199    4.9609 C   0  0  2  0  0  0  0  0  0  0  0  0
   34.0798   39.1682    6.3221 O   0  0  0  0  0  0  0  0  0  0  0  0
   33.5109   36.4909    9.7024 C   0  0  2  0  0  0  0  0  0  0  0  0
   33.0866   35.3016   10.4852 N   0  0  0  0  0  0  0  0  0  0  0  0
   37.5368   37.3859    7.2803 C   0  0  1  0  0  0  0  0  0  0  0  0
   41.8161   38.9242    6.3471 C   0  0  1  0  0  0  0  0  0  0  0  0
   35.4499   40.2045    4.5416 C   0  0  2  0  0  0  0  0  0  0  0  0
   36.5773   40.4037    5.4572 N   0  0  0  0  0  0  0  0  0  0  0  0
   32.2668   37.0853    8.9697 C   0  0  0  0  0  0  0  0  0  0  0  0
   38.5575   36.8240    6.2643 C   0  0  2  0  0  0  0  0  0  0  0  0
   39.2810   35.7096    6.7966 O   0  0  0  0  0  0  0  0  0  0  0  0
   43.0184   38.8547    7.3824 C   0  0  2  0  0  0  0  0  0  0  0  0
   42.6168   39.1005    8.8013 N   0  0  0  0  0  0  0  0  0  0  0  0
   34.6225   41.5131    4.4264 C   0  0  1  0  0  0  0  0  0  0  0  0
   35.4636   42.5882    4.0166 O   0  0  0  0  0  0  0  0  0  0  0  0
   32.6529   38.3338    8.1246 C   0  0  2  0  0  0  0  0  0  0  0  0
   31.4270   38.8373    7.4768 N   0  0  0  0  0  0  0  0  0  0  0  0
   39.4642   38.0195    5.9257 C   0  0  2  0  0  0  0  0  0  0  0  0
   40.7160   38.0186    6.7210 O   0  0  0  0  0  0  0  0  0  0  0  0
   44.1579   39.8878    6.9582 C   0  0  1  0  0  0  0  0  0  0  0  0
   44.7907   39.4901    5.7220 O   0  0  0  0  0  0  0  0  0  0  0  0
   33.4657   41.3120    3.4204 C   0  0  2  0  0  0  0  0  0  0  0  0
   32.7189   42.5042    3.2973 O   0  0  0  0  0  0  0  0  0  0  0  0
   33.7710   37.9575    7.0888 C   0  0  2  0  0  0  0  0  0  0  0  0
   38.6003   39.2372    6.2417 C   0  0  2  0  0  0  0  0  0  0  0  0
   37.6468   38.8082    7.2034 O   0  0  0  0  0  0  0  0  0  0  0  0
   43.5983   41.3576    6.7911 C   0  0  2  0  0  0  0  0  0  0  0  0
   43.1950   41.8592    8.0765 O   0  0  0  0  0  0  0  0  0  0  0  0
   32.5607   40.1505    3.8769 C   0  0  2  0  0  0  0  0  0  0  0  0
   33.3950   38.9357    4.0107 O   0  0  0  0  0  0  0  0  0  0  0  0
   35.0579   37.3854    7.8692 C   0  0  2  0  0  0  0  0  0  0  0  0
   36.1536   36.9734    6.9506 O   0  0  0  0  0  0  0  0  0  0  0  0
   37.8385   39.7771    5.0402 C   0  0  0  0  0  0  0  0  0  0  0  0
   42.3781   41.3551    5.7834 C   0  0  1  0  0  0  0  0  0  0  0  0
   41.3371   40.3431    6.1695 O   0  0  0  0  0  0  0  0  0  0  0  0
   31.4221   39.9431    2.8510 C   0  0  0  0  0  0  0  0  0  0  0  0
   30.4437   41.0438    2.7774 N   0  0  0  0  0  0  0  0  0  0  0  0
   34.6541   36.1332    8.6764 C   0  0  1  0  0  0  0  0  0  0  0  0
   35.7978   35.6231    9.3695 O   0  0  0  0  0  0  0  0  0  0  0  0
   41.7215   42.7766    5.5942 C   0  0  0  0  0  0  0  0  0  0  0  0
   41.0649   43.3697    6.8027 N   0  0  0  0  0  0  0  0  0  0  0  0
  1  2  1  1  0  0  0
  1  7  1  0  0  0  0
  1 30  1  0  0  0  0
  3  4  1  6  0  0  0
  3  9  1  0  0  0  0
  3 38  1  0  0  0  0
  5 10  1  0  0  0  0
  5 26  1  6  0  0  0
  5 32  1  0  0  0  0
  6 12  1  0  0  0  0
  6 35  1  0  0  0  0
  6 19  1  1  0  0  0
  7  8  1  1  0  0  0
  7 14  1  0  0  0  0
  8 33  1  0  0  0  0
  9 16  1  0  0  0  0
 10 11  1  1  0  0  0
 10 18  1  0  0  0  0
 12 13  1  1  0  0  0
 12 20  1  0  0  0  0
 14 15  1  6  0  0  0
 14 22  1  0  0  0  0
 16 17  1  6  0  0  0
 16 24  1  0  0  0  0
 18 19  1  1  0  0  0
 18 25  1  0  0  0  0
 20 21  1  6  0  0  0
 20 27  1  0  0  0  0
 22 23  1  1  0  0  0
 22 29  1  0  0  0  0
 24  2  1  1  0  0  0
 24 31  1  0  0  0  0
 25 26  1  1  0  0  0
 25 33  1  0  0  0  0
 27 28  1  1  0  0  0
 27 34  1  0  0  0  0
 29 30  1  0  0  0  0
 29 36  1  6  0  0  0
 31 32  1  6  0  0  0
 31 38  1  0  0  0  0
 34 35  1  0  0  0  0
 34 40  1  1  0  0  0
 36 37  1  0  0  0  0
 38 39  1  1  0  0  0
 40 41  1  0  0  0  0
M  END
>  <CHROM.1>
167.86605910,175.57808779,-67.29038420,-64.71783492,37.15683709,39.22589150
6.34826110,3.11430019,0.14426072,2.42954773

>  <Name>
ligand

>  <RI>
0

>  <Rbt.Current_Directory>
/home/itssahil/PROJECTS/Mol_Feturizer/New_Systems/rnas/1ZZ5

>  <Rbt.Executable>
rbdock ($Id: //depot/dev/client3/rdock/2013.1/src/exe/rbdock.cxx#4 $)

>  <Rbt.Library>
libRbt.so (2013.1, Build901 2013/11/27)

>  <Rbt.Parameter_File>
/export/apps/rDock/src/rDock_2013.1_src/data/scripts/dock_solv.prm

>  <Rbt.Receptor>
prm/pocket_docking_2.prm

>  <SCORE>
-9.73128

>  <SCORE.INTER>
-8.48429

>  <SCORE.INTER.CONST>
1

>  <SCORE.INTER.POLAR>
0

>  <SCORE.INTER.ROT>
4

>  <SCORE.INTER.SOLV>
17.2765

>  <SCORE.INTER.VDW>
-17.6817

>  <SCORE.INTER.norm>
-0.206934

>  <SCORE.INTRA>
-1.24749

>  <SCORE.INTRA.DIHEDRAL>
-3.88456

>  <SCORE.INTRA.DIHEDRAL.0>
5.18357

>  <SCORE.INTRA.POLAR>
0

>  <SCORE.INTRA.POLAR.0>
0

>  <SCORE.INTRA.REPUL>
0

>  <SCORE.INTRA.REPUL.0>
0

>  <SCORE.INTRA.SOLV>
1.26419

>  <SCORE.INTRA.SOLV.lig_0>
-109.973

>  <SCORE.INTRA.VDW>
0.0626951

>  <SCORE.INTRA.VDW.0>
-1.68646

>  <SCORE.INTRA.norm>
-0.0304266

>  <SCORE.RESTR>
0.000498927

>  <SCORE.RESTR.CAVITY>
0.000498927

>  <SCORE.RESTR.norm>
1.2169e-05

>  <SCORE.SYSTEM>
0

>  <SCORE.SYSTEM.CONST>
0

>  <SCORE.SYSTEM.DIHEDRAL>
0

>  <SCORE.SYSTEM.SOLV>
0

>  <SCORE.SYSTEM.norm>
0

>  <SCORE.heavy>
41

>  <SCORE.norm>
-0.237348

>  <RMSD>
0.980

$$$$
ligand
 OpenBabel11021811423D
libRbt.so/2013.1/901 2013/11/27
 41 45  0  0  0  0  0  0  0  0999 V2000
   34.9783   39.3911    4.7966 C   0  0  2  0  0  0  0  0  0  0  0  0
   34.6023   39.3693    6.1875 O   0  0  0  0  0  0  0  0  0  0  0  0
   34.2411   36.3000    9.2480 C   0  0  2  0  0  0  0  0  0  0  0  0
   33.8703   35.0195    9.9039 N   0  0  0  0  0  0  0  0  0  0  0  0
   38.1218   37.5386    6.7419 C   0  0  1  0  0  0  0  0  0  0  0  0
   42.3105   39.2763    5.8150 C   0  0  1  0  0  0  0  0  0  0  0  0
   35.8648   40.6312    4.4743 C   0  0  2  0  0  0  0  0  0  0  0  0
   37.0383   40.7372    5.3465 N   0  0  0  0  0  0  0  0  0  0  0  0
   32.9539   36.9583    8.6583 C   0  0  0  0  0  0  0  0  0  0  0  0
   39.0910   37.1175    5.6136 C   0  0  2  0  0  0  0  0  0  0  0  0
   39.8521   35.9589    5.9697 O   0  0  0  0  0  0  0  0  0  0  0  0
   43.6791   38.9113    6.5333 C   0  0  2  0  0  0  0  0  0  0  0  0
   43.5572   38.7026    8.0086 N   0  0  0  0  0  0  0  0  0  0  0  0
   35.0208   41.9314    4.5604 C   0  0  1  0  0  0  0  0  0  0  0  0
   35.8288   43.0604    4.2386 O   0  0  0  0  0  0  0  0  0  0  0  0
   33.2826   38.3044    7.9496 C   0  0  2  0  0  0  0  0  0  0  0  0
   32.0190   38.8626    7.4324 N   0  0  0  0  0  0  0  0  0  0  0  0
   39.9674   38.3586    5.3733 C   0  0  2  0  0  0  0  0  0  0  0  0
   41.2603   38.2821    6.0957 O   0  0  0  0  0  0  0  0  0  0  0  0
   44.7641   40.0428    6.2369 C   0  0  1  0  0  0  0  0  0  0  0  0
   45.1402   40.0546    4.8422 O   0  0  0  0  0  0  0  0  0  0  0  0
   33.8131   41.8340    3.5999 C   0  0  2  0  0  0  0  0  0  0  0  0
   33.0502   43.0208    3.6600 O   0  0  0  0  0  0  0  0  0  0  0  0
   34.3462   38.0714    6.8189 C   0  0  2  0  0  0  0  0  0  0  0  0
   39.1110   39.5166    5.8779 C   0  0  2  0  0  0  0  0  0  0  0  0
   38.2149   38.9615    6.8302 O   0  0  0  0  0  0  0  0  0  0  0  0
   44.2471   41.4837    6.6345 C   0  0  2  0  0  0  0  0  0  0  0  0
   44.1099   41.5595    8.0634 O   0  0  0  0  0  0  0  0  0  0  0  0
   32.9444   40.6126    3.9609 C   0  0  2  0  0  0  0  0  0  0  0  0
   33.7955   39.4034    3.9042 O   0  0  0  0  0  0  0  0  0  0  0  0
   35.6786   37.4301    7.4562 C   0  0  2  0  0  0  0  0  0  0  0  0
   36.7265   37.1473    6.4384 O   0  0  0  0  0  0  0  0  0  0  0  0
   38.2806   40.1841    4.7916 C   0  0  0  0  0  0  0  0  0  0  0  0
   42.8630   41.7715    5.9233 C   0  0  1  0  0  0  0  0  0  0  0  0
   41.8685   40.6732    6.1720 O   0  0  0  0  0  0  0  0  0  0  0  0
   31.7539   40.5115    2.9790 C   0  0  0  0  0  0  0  0  0  0  0  0
   30.8306   39.3907    3.2349 N   0  0  0  0  0  0  0  0  0  0  0  0
   35.3302   36.0846    8.1277 C   0  0  1  0  0  0  0  0  0  0  0  0
   36.5142   35.5131    8.6935 O   0  0  0  0  0  0  0  0  0  0  0  0
   42.2445   43.1716    6.3039 C   0  0  0  0  0  0  0  0  0  0  0  0
   43.0842   44.3730    5.9960 N   0  0  0  0  0  0  0  0  0  0  0  0
  1  2  1  1  0  0  0
  1  7  1  0  0  0  0
  1 30  1  0  0  0  0
  3  4  1  6  0  0  0
  3  9  1  0  0  0  0
  3 38  1  0  0  0  0
  5 10  1  0  0  0  0
  5 26  1  6  0  0  0
  5 32  1  0  0  0  0
  6 12  1  0  0  0  0
  6 35  1  0  0  0  0
  6 19  1  1  0  0  0
  7  8  1  1  0  0  0
  7 14  1  0  0  0  0
  8 33  1  0  0  0  0
  9 16  1  0  0  0  0
 10 11  1  1  0  0  0
 10 18  1  0  0  0  0
 12 13  1  1  0  0  0
 12 20  1  0  0  0  0
 14 15  1  6  0  0  0
 14 22  1  0  0  0  0
 16 17  1  6  0  0  0
 16 24  1  0  0  0  0
 18 19  1  1  0  0  0
 18 25  1  0  0  0  0
 20 21  1  6  0  0  0
 20 27  1  0  0  0  0
 22 23  1  1  0  0  0
 22 29  1  0  0  0  0
 24  2  1  1  0  0  0
 24 31  1  0  0  0  0
 25 26  1  1  0  0  0
 25 33  1  0  0  0  0
 27 28  1  1  0  0  0
 27 34  1  0  0  0  0
 29 30  1  0  0  0  0
 29 36  1  6  0  0  0
 31 32  1  6  0  0  0
 31 38  1  0  0  0  0
 34 35  1  0  0  0  0
 34 40  1  1  0  0  0
 36 37  1  0  0  0  0
 38 39  1  1  0  0  0
 40 41  1  0  0  0  0
M  END
>  <CHROM.1>
170.35196537,-172.15845977,-178.98828199,58.73184629,37.73686498,39.41058369
6.07829075,3.04380620,0.12631152,2.55879428

>  <Name>
ligand

>  <RI>
0

>  <Rbt.Current_Directory>
/home/itssahil/PROJECTS/Mol_Feturizer/New_Systems/rnas/1ZZ5

>  <Rbt.Executable>
rbdock ($Id: //depot/dev/client3/rdock/2013.1/src/exe/rbdock.cxx#4 $)

>  <Rbt.Library>
libRbt.so (2013.1, Build901 2013/11/27)

>  <Rbt.Parameter_File>
/export/apps/rDock/src/rDock_2013.1_src/data/scripts/dock_solv.prm

>  <Rbt.Receptor>
prm/pocket_docking_4.prm

>  <SCORE>
-11.4758

>  <SCORE.INTER>
-8.9411

>  <SCORE.INTER.CONST>
1

>  <SCORE.INTER.POLAR>
0

>  <SCORE.INTER.ROT>
4

>  <SCORE.INTER.SOLV>
18.559

>  <SCORE.INTER.VDW>
-18.4137

>  <SCORE.INTER.norm>
-0.218076

>  <SCORE.INTRA>
-2.53468

>  <SCORE.INTRA.DIHEDRAL>
-4.20095

>  <SCORE.INTRA.DIHEDRAL.0>
5.18357

>  <SCORE.INTRA.POLAR>
0

>  <SCORE.INTRA.POLAR.0>
0

>  <SCORE.INTRA.REPUL>
0

>  <SCORE.INTRA.REPUL.0>
0

>  <SCORE.INTRA.SOLV>
-1.14779

>  <SCORE.INTRA.SOLV.lig_0>
-109.973

>  <SCORE.INTRA.VDW>
0.139687

>  <SCORE.INTRA.VDW.0>
-1.68646

>  <SCORE.INTRA.norm>
-0.0618215

>  <SCORE.RESTR>
0

>  <SCORE.RESTR.CAVITY>
0

>  <SCORE.RESTR.norm>
0

>  <SCORE.SYSTEM>
0

>  <SCORE.SYSTEM.CONST>
0

>  <SCORE.SYSTEM.DIHEDRAL>
0

>  <SCORE.SYSTEM.SOLV>
0

>  <SCORE.SYSTEM.norm>
0

>  <SCORE.heavy>
41

>  <SCORE.norm>
-0.279897

>  <RMSD>
0.981

$$$$
ligand
 OpenBabel11021811423D
libRbt.so/2013.1/901 2013/11/27
 41 45  0  0  0  0  0  0  0  0999 V2000
   34.5183   38.9891    4.9798 C   0  0  2  0  0  0  0  0  0  0  0  0
   34.0790   39.1514    6.3426 O   0  0  0  0  0  0  0  0  0  0  0  0
   33.5143   36.5056    9.7482 C   0  0  2  0  0  0  0  0  0  0  0  0
   33.0871   35.3255   10.5434 N   0  0  0  0  0  0  0  0  0  0  0  0
   37.5303   37.3540    7.2933 C   0  0  1  0  0  0  0  0  0  0  0  0
   41.8545   38.7697    6.2546 C   0  0  1  0  0  0  0  0  0  0  0  0
   35.4445   40.1641    4.5450 C   0  0  2  0  0  0  0  0  0  0  0  0
   36.5791   40.3633    5.4517 N   0  0  0  0  0  0  0  0  0  0  0  0
   32.2694   37.1022    9.0186 C   0  0  0  0  0  0  0  0  0  0  0  0
   38.5407   36.7772    6.2754 C   0  0  2  0  0  0  0  0  0  0  0  0
   39.2602   35.6623    6.8122 O   0  0  0  0  0  0  0  0  0  0  0  0
   43.0687   38.7036    7.2761 C   0  0  2  0  0  0  0  0  0  0  0  0
   42.7074   39.0752    8.6783 N   0  0  0  0  0  0  0  0  0  0  0  0
   34.6250   41.4772    4.4244 C   0  0  1  0  0  0  0  0  0  0  0  0
   35.4705   42.5433    4.0005 O   0  0  0  0  0  0  0  0  0  0  0  0
   32.6583   38.3412    8.1609 C   0  0  2  0  0  0  0  0  0  0  0  0
   31.4316   38.8476    7.5169 N   0  0  0  0  0  0  0  0  0  0  0  0
   39.4531   37.9638    5.9212 C   0  0  2  0  0  0  0  0  0  0  0  0
   40.7099   37.9610    6.7085 O   0  0  0  0  0  0  0  0  0  0  0  0
   44.2593   39.6331    6.7620 C   0  0  1  0  0  0  0  0  0  0  0  0
   44.8457   39.1096    5.5500 O   0  0  0  0  0  0  0  0  0  0  0  0
   33.4605   41.2757    3.4275 C   0  0  2  0  0  0  0  0  0  0  0  0
   32.7208   42.4718    3.2994 O   0  0  0  0  0  0  0  0  0  0  0  0
   33.7672   37.9492    7.1211 C   0  0  2  0  0  0  0  0  0  0  0  0
   38.5992   39.1897    6.2328 C   0  0  2  0  0  0  0  0  0  0  0  0
   37.6492   38.7749    7.2041 O   0  0  0  0  0  0  0  0  0  0  0  0
   43.7841   41.1178    6.4948 C   0  0  2  0  0  0  0  0  0  0  0  0
   43.4338   41.7345    7.7451 O   0  0  0  0  0  0  0  0  0  0  0  0
   32.5507   40.1239    3.8992 C   0  0  2  0  0  0  0  0  0  0  0  0
   33.3779   38.9048    4.0376 O   0  0  0  0  0  0  0  0  0  0  0  0
   35.0553   37.3748    7.8979 C   0  0  2  0  0  0  0  0  0  0  0  0
   36.1423   36.9481    6.9758 O   0  0  0  0  0  0  0  0  0  0  0  0
   37.8333   39.7249    5.0318 C   0  0  0  0  0  0  0  0  0  0  0  0
   42.5483   41.1153    5.5063 C   0  0  1  0  0  0  0  0  0  0  0  0
   41.4566   40.1980    5.9796 O   0  0  0  0  0  0  0  0  0  0  0  0
   31.4043   39.9157    2.8823 C   0  0  0  0  0  0  0  0  0  0  0  0
   30.4448   41.0317    2.7904 N   0  0  0  0  0  0  0  0  0  0  0  0
   34.6484   36.1319    8.7179 C   0  0  1  0  0  0  0  0  0  0  0  0
   35.7932   35.6198    9.4078 O   0  0  0  0  0  0  0  0  0  0  0  0
   41.9731   42.5560    5.2220 C   0  0  0  0  0  0  0  0  0  0  0  0
   41.4627   43.3124    6.4098 N   0  0  0  0  0  0  0  0  0  0  0  0
  1  2  1  1  0  0  0
  1  7  1  0  0  0  0
  1 30  1  0  0  0  0
  3  4  1  6  0  0  0
  3  9  1  0  0  0  0
  3 38  1  0  0  0  0
  5 10  1  0  0  0  0
  5 26  1  6  0  0  0
  5 32  1  0  0  0  0
  6 12  1  0  0  0  0
  6 35  1  0  0  0  0
  6 19  1  1  0  0  0
  7  8  1  1  0  0  0
  7 14  1  0  0  0  0
  8 33  1  0  0  0  0
  9 16  1  0  0  0  0
 10 11  1  1  0  0  0
 10 18  1  0  0  0  0
 12 13  1  1  0  0  0
 12 20  1  0  0  0  0
 14 15  1  6  0  0  0
 14 22  1  0  0  0  0
 16 17  1  6  0  0  0
 16 24  1  0  0  0  0
 18 19  1  1  0  0  0
 18 25  1  0  0  0  0
 20 21  1  6  0  0  0
 20 27  1  0  0  0  0
 22 23  1  1  0  0  0
 22 29  1  0  0  0  0
 24  2  1  1  0  0  0
 24 31  1  0  0  0  0
 25 26  1  1  0  0  0
 25 33  1  0  0  0  0
 27 28  1  1  0  0  0
 27 34  1  0  0  0  0
 29 30  1  0  0  0  0
 29 36  1  6  0  0  0
 31 32  1  6  0  0  0
 31 38  1  0  0  0  0
 34 35  1  0  0  0  0
 34 40  1  1  0  0  0
 36 37  1  0  0  0  0
 38 39  1  1  0  0  0
 40 41  1  0  0  0  0
M  END
>  <CHROM.1>
162.66827288,176.46270879,-66.35395642,-60.50976184,37.19523122,39.15936527
6.29846552,3.10806874,0.11555436,2.41280733

>  <Name>
ligand

>  <RI>
0

>  <Rbt.Current_Directory>
/home/itssahil/PROJECTS/Mol_Feturizer/New_Systems/rnas/1ZZ5

>  <Rbt.Executable>
rbdock ($Id: //depot/dev/client3/rdock/2013.1/src/exe/rbdock.cxx#4 $)

>  <Rbt.Library>
libRbt.so (2013.1, Build901 2013/11/27)

>  <Rbt.Parameter_File>
/export/apps/rDock/src/rDock_2013.1_src/data/scripts/dock_solv.prm

>  <Rbt.Receptor>
prm/pocket_docking_2.prm

>  <SCORE>
-9.80779

>  <SCORE.INTER>
-8.84009

>  <SCORE.INTER.CONST>
1

>  <SCORE.INTER.POLAR>
0

>  <SCORE.INTER.ROT>
4

>  <SCORE.INTER.SOLV>
17.3524

>  <SCORE.INTER.VDW>
-17.9442

>  <SCORE.INTER.norm>
-0.215612

>  <SCORE.INTRA>
-0.977907

>  <SCORE.INTRA.DIHEDRAL>
-3.37628

>  <SCORE.INTRA.DIHEDRAL.0>
5.18357

>  <SCORE.INTRA.POLAR>
0

>  <SCORE.INTRA.POLAR.0>
0

>  <SCORE.INTRA.REPUL>
0

>  <SCORE.INTRA.REPUL.0>
0

>  <SCORE.INTRA.SOLV>
1.26805

>  <SCORE.INTRA.SOLV.lig_0>
-109.973

>  <SCORE.INTRA.VDW>
0.076205

>  <SCORE.INTRA.VDW.0>
-1.68646

>  <SCORE.INTRA.norm>
-0.0238514

>  <SCORE.RESTR>
0.0102107

>  <SCORE.RESTR.CAVITY>
0.0102107

>  <SCORE.RESTR.norm>
0.000249041

>  <SCORE.SYSTEM>
0

>  <SCORE.SYSTEM.CONST>
0

>  <SCORE.SYSTEM.DIHEDRAL>
0

>  <SCORE.SYSTEM.SOLV>
0

>  <SCORE.SYSTEM.norm>
0

>  <SCORE.heavy>
41

>  <SCORE.norm>
-0.239214

>  <RMSD>
0.982

$$$$
ligand
 OpenBabel11021811423D
libRbt.so/2013.1/901 2013/11/27
 41 45  0  0  0  0  0  0  0  0999 V2000
   34.4848   39.2373    4.8718 C   0  0  2  0  0  0  0  0  0  0  0  0
   34.0646   39.3346    6.2467 O   0  0  0  0  0  0  0  0  0  0  0  0
   33.4977   36.5223    9.5159 C   0  0  2  0  0  0  0  0  0  0  0  0
   33.0610   35.3088   10.2535 N   0  0  0  0  0  0  0  0  0  0  0  0
   37.4974   37.4362    7.0577 C   0  0  1  0  0  0  0  0  0  0  0  0
   41.8091   38.8869    6.0801 C   0  0  1  0  0  0  0  0  0  0  0  0
   35.4247   40.4191    4.4874 C   0  0  2  0  0  0  0  0  0  0  0  0
   36.5731   40.5526    5.3888 N   0  0  0  0  0  0  0  0  0  0  0  0
   32.2540   37.1758    8.8345 C   0  0  0  0  0  0  0  0  0  0  0  0
   38.4861   36.8980    5.9982 C   0  0  2  0  0  0  0  0  0  0  0  0
   39.1938   35.7455    6.4665 O   0  0  0  0  0  0  0  0  0  0  0  0
   43.0229   38.7624    7.0966 C   0  0  2  0  0  0  0  0  0  0  0  0
   42.6528   39.0146    8.5229 N   0  0  0  0  0  0  0  0  0  0  0  0
   34.6253   41.7493    4.4463 C   0  0  1  0  0  0  0  0  0  0  0  0
   35.4827   42.8229    4.0680 O   0  0  0  0  0  0  0  0  0  0  0  0
   32.6527   38.4520    8.0380 C   0  0  2  0  0  0  0  0  0  0  0  0
   31.4268   39.0106    7.4372 N   0  0  0  0  0  0  0  0  0  0  0  0
   39.4133   38.0874    5.6951 C   0  0  2  0  0  0  0  0  0  0  0  0
   40.6792   38.0236    6.4651 O   0  0  0  0  0  0  0  0  0  0  0  0
   44.1966   39.7517    6.6614 C   0  0  1  0  0  0  0  0  0  0  0  0
   44.7944   39.3372    5.4134 O   0  0  0  0  0  0  0  0  0  0  0  0
   33.4458   41.6186    3.4551 C   0  0  2  0  0  0  0  0  0  0  0  0
   32.7241   42.8312    3.3994 O   0  0  0  0  0  0  0  0  0  0  0  0
   33.7426   38.0980    6.9651 C   0  0  2  0  0  0  0  0  0  0  0  0
   38.5832   39.3083    6.0814 C   0  0  2  0  0  0  0  0  0  0  0  0
   37.6382   38.8578    7.0416 O   0  0  0  0  0  0  0  0  0  0  0  0
   43.6941   41.2439    6.5117 C   0  0  2  0  0  0  0  0  0  0  0  0
   43.3305   41.7527    7.8060 O   0  0  0  0  0  0  0  0  0  0  0  0
   32.5232   40.4579    3.8773 C   0  0  2  0  0  0  0  0  0  0  0  0
   33.3321   39.2205    3.9411 O   0  0  0  0  0  0  0  0  0  0  0  0
   35.0304   37.4636    7.6942 C   0  0  2  0  0  0  0  0  0  0  0  0
   36.0993   37.0692    6.7371 O   0  0  0  0  0  0  0  0  0  0  0  0
   37.8118   39.9178    4.9200 C   0  0  0  0  0  0  0  0  0  0  0  0
   42.4599   41.2970    5.5226 C   0  0  1  0  0  0  0  0  0  0  0  0
   41.3849   40.3249    5.9183 O   0  0  0  0  0  0  0  0  0  0  0  0
   31.3615   40.3214    2.8656 C   0  0  0  0  0  0  0  0  0  0  0  0
   30.3410   39.3188    3.2227 N   0  0  0  0  0  0  0  0  0  0  0  0
   34.6133   36.1858    8.4530 C   0  0  1  0  0  0  0  0  0  0  0  0
   35.7578   35.6204    9.1004 O   0  0  0  0  0  0  0  0  0  0  0  0
   41.8582   42.7449    5.3520 C   0  0  0  0  0  0  0  0  0  0  0  0
   41.2589   43.3624    6.5778 N   0  0  0  0  0  0  0  0  0  0  0  0
  1  2  1  1  0  0  0
  1  7  1  0  0  0  0
  1 30  1  0  0  0  0
  3  4  1  6  0  0  0
  3  9  1  0  0  0  0
  3 38  1  0  0  0  0
  5 10  1  0  0  0  0
  5 26  1  6  0  0  0
  5 32  1  0  0  0  0
  6 12  1  0  0  0  0
  6 35  1  0  0  0  0
  6 19  1  1  0  0  0
  7  8  1  1  0  0  0
  7 14  1  0  0  0  0
  8 33  1  0  0  0  0
  9 16  1  0  0  0  0
 10 11  1  1  0  0  0
 10 18  1  0  0  0  0
 12 13  1  1  0  0  0
 12 20  1  0  0  0  0
 14 15  1  6  0  0  0
 14 22  1  0  0  0  0
 16 17  1  6  0  0  0
 16 24  1  0  0  0  0
 18 19  1  1  0  0  0
 18 25  1  0  0  0  0
 20 21  1  6  0  0  0
 20 27  1  0  0  0  0
 22 23  1  1  0  0  0
 22 29  1  0  0  0  0
 24  2  1  1  0  0  0
 24 31  1  0  0  0  0
 25 26  1  1  0  0  0
 25 33  1  0  0  0  0
 27 28  1  1  0  0  0
 27 34  1  0  0  0  0
 29 30  1  0  0  0  0
 29 36  1  6  0  0  0
 31 32  1  6  0  0  0
 31 38  1  0  0  0  0
 34 35  1  0  0  0  0
 34 40  1  1  0  0  0
 36 37  1  0  0  0  0
 38 39  1  1  0  0  0
 40 41  1  0  0  0  0
M  END
>  <CHROM.1>
165.70536352,175.12112499,-174.91359631,-64.00222802,37.15302183,39.26360841
6.19945817,3.08894968,0.11818032,2.46370428

>  <Name>
ligand

>  <RI>
0

>  <Rbt.Current_Directory>
/home/itssahil/PROJECTS/Mol_Feturizer/New_Systems/rnas/1ZZ5

>  <Rbt.Executable>
rbdock ($Id: //depot/dev/client3/rdock/2013.1/src/exe/rbdock.cxx#4 $)

>  <Rbt.Library>
libRbt.so (2013.1, Build901 2013/11/27)

>  <Rbt.Parameter_File>
/export/apps/rDock/src/rDock_2013.1_src/data/scripts/dock_solv.prm

>  <Rbt.Receptor>
prm/pocket_docking_2.prm

>  <SCORE>
-10.8218

>  <SCORE.INTER>
-8.95491

>  <SCORE.INTER.CONST>
1

>  <SCORE.INTER.POLAR>
0

>  <SCORE.INTER.ROT>
4

>  <SCORE.INTER.SOLV>
18.6273

>  <SCORE.INTER.VDW>
-18.4457

>  <SCORE.INTER.norm>
-0.218413

>  <SCORE.INTRA>
-1.87037

>  <SCORE.INTRA.DIHEDRAL>
-3.72826

>  <SCORE.INTRA.DIHEDRAL.0>
5.18357

>  <SCORE.INTRA.POLAR>
0

>  <SCORE.INTRA.POLAR.0>
0

>  <SCORE.INTRA.REPUL>
0

>  <SCORE.INTRA.REPUL.0>
0

>  <SCORE.INTRA.SOLV>
0.0968883

>  <SCORE.INTRA.SOLV.lig_0>
-109.973

>  <SCORE.INTRA.VDW>
-0.0546855

>  <SCORE.INTRA.VDW.0>
-1.68646

>  <SCORE.INTRA.norm>
-0.0456188

>  <SCORE.RESTR>
0.00352456

>  <SCORE.RESTR.CAVITY>
0.00352456

>  <SCORE.RESTR.norm>
8.5965e-05

>  <SCORE.SYSTEM>
0

>  <SCORE.SYSTEM.CONST>
0

>  <SCORE.SYSTEM.DIHEDRAL>
0

>  <SCORE.SYSTEM.SOLV>
0

>  <SCORE.SYSTEM.norm>
0

>  <SCORE.heavy>
41

>  <SCORE.norm>
-0.263945

>  <RMSD>
0.990

$$$$
ligand
 OpenBabel11021811423D
libRbt.so/2013.1/901 2013/11/27
 41 45  0  0  0  0  0  0  0  0999 V2000
   34.4563   39.2228    4.9004 C   0  0  2  0  0  0  0  0  0  0  0  0
   34.0457   39.3213    6.2781 O   0  0  0  0  0  0  0  0  0  0  0  0
   33.5101   36.5132    9.5561 C   0  0  2  0  0  0  0  0  0  0  0  0
   33.0821   35.2998   10.2989 N   0  0  0  0  0  0  0  0  0  0  0  0
   37.4894   37.4337    7.0676 C   0  0  1  0  0  0  0  0  0  0  0  0
   41.7878   38.8993    6.0606 C   0  0  1  0  0  0  0  0  0  0  0  0
   35.3902   40.4064    4.5071 C   0  0  2  0  0  0  0  0  0  0  0  0
   36.5447   40.5447    5.4000 N   0  0  0  0  0  0  0  0  0  0  0  0
   32.2598   37.1621    8.8826 C   0  0  0  0  0  0  0  0  0  0  0  0
   38.4719   36.8964    6.0019 C   0  0  2  0  0  0  0  0  0  0  0  0
   39.1862   35.7466    6.4671 O   0  0  0  0  0  0  0  0  0  0  0  0
   43.0189   38.7598    7.0540 C   0  0  2  0  0  0  0  0  0  0  0  0
   42.6731   38.9887    8.4903 N   0  0  0  0  0  0  0  0  0  0  0  0
   34.5868   41.7344    4.4695 C   0  0  1  0  0  0  0  0  0  0  0  0
   35.4386   42.8097    4.0832 O   0  0  0  0  0  0  0  0  0  0  0  0
   32.6492   38.4380    8.0811 C   0  0  2  0  0  0  0  0  0  0  0  0
   31.4175   38.9922    7.4881 N   0  0  0  0  0  0  0  0  0  0  0  0
   39.3937   38.0877    5.6900 C   0  0  2  0  0  0  0  0  0  0  0  0
   40.6653   38.0287    6.4510 O   0  0  0  0  0  0  0  0  0  0  0  0
   44.1841   39.7573    6.6147 C   0  0  1  0  0  0  0  0  0  0  0  0
   44.7608   39.3635    5.3501 O   0  0  0  0  0  0  0  0  0  0  0  0
   33.4005   41.5988    3.4871 C   0  0  2  0  0  0  0  0  0  0  0  0
   32.6752   42.8093    3.4345 O   0  0  0  0  0  0  0  0  0  0  0  0
   33.7323   38.0851    7.0009 C   0  0  2  0  0  0  0  0  0  0  0  0
   38.5631   39.3071    6.0802 C   0  0  2  0  0  0  0  0  0  0  0  0
   37.6262   38.8556    7.0480 O   0  0  0  0  0  0  0  0  0  0  0  0
   43.6779   41.2511    6.4976 C   0  0  2  0  0  0  0  0  0  0  0  0
   43.3362   41.7386    7.8061 O   0  0  0  0  0  0  0  0  0  0  0  0
   32.4842   40.4363    3.9180 C   0  0  2  0  0  0  0  0  0  0  0  0
   33.2969   39.2012    3.9780 O   0  0  0  0  0  0  0  0  0  0  0  0
   35.0271   37.4555    7.7218 C   0  0  2  0  0  0  0  0  0  0  0  0
   36.0901   37.0623    6.7577 O   0  0  0  0  0  0  0  0  0  0  0  0
   37.7816   39.9124    4.9233 C   0  0  0  0  0  0  0  0  0  0  0  0
   42.4269   41.3188    5.5308 C   0  0  1  0  0  0  0  0  0  0  0  0
   41.3597   40.3393    5.9293 O   0  0  0  0  0  0  0  0  0  0  0  0
   31.3156   40.2949    2.9149 C   0  0  0  0  0  0  0  0  0  0  0  0
   30.3227   39.2605    3.2593 N   0  0  0  0  0  0  0  0  0  0  0  0
   34.6189   36.1779    8.4858 C   0  0  1  0  0  0  0  0  0  0  0  0
   35.7696   35.6167    9.1259 O   0  0  0  0  0  0  0  0  0  0  0  0
   41.8212   42.7685    5.3939 C   0  0  0  0  0  0  0  0  0  0  0  0
   41.2713   43.3783    6.6466 N   0  0  0  0  0  0  0  0  0  0  0  0
  1  2  1  1  0  0  0
  1  7  1  0  0  0  0
  1 30  1  0  0  0  0
  3  4  1  6  0  0  0
  3  9  1  0  0  0  0
  3 38  1  0  0  0  0
  5 10  1  0  0  0  0
  5 26  1  6  0  0  0
  5 32  1  0  0  0  0
  6 12  1  0  0  0  0
  6 35  1  0  0  0  0
  6 19  1  1  0  0  0
  7  8  1  1  0  0  0
  7 14  1  0  0  0  0
  8 33  1  0  0  0  0
  9 16  1  0  0  0  0
 10 11  1  1  0  0  0
 10 18  1  0  0  0  0
 12 13  1  1  0  0  0
 12 20  1  0  0  0  0
 14 15  1  6  0  0  0
 14 22  1  0  0  0  0
 16 17  1  6  0  0  0
 16 24  1  0  0  0  0
 18 19  1  1  0  0  0
 18 25  1  0  0  0  0
 20 21  1  6  0  0  0
 20 27  1  0  0  0  0
 22 23  1  1  0  0  0
 22 29  1  0  0  0  0
 24  2  1  1  0  0  0
 24 31  1  0  0  0  0
 25 26  1  1  0  0  0
 25 33  1  0  0  0  0
 27 28  1  1  0  0  0
 27 34  1  0  0  0  0
 29 30  1  0  0  0  0
 29 36  1  6  0  0  0
 31 32  1  6  0  0  0
 31 38  1  0  0  0  0
 34 35  1  0  0  0  0
 34 40  1  1  0  0  0
 36 37  1  0  0  0  0
 38 39  1  1  0  0  0
 40 41  1  0  0  0  0
M  END
>  <CHROM.1>
166.01303150,176.11223728,-176.75668866,-62.62867634,37.13649120,39.25709798
6.21504671,3.08408497,0.11618919,2.46368321

>  <Name>
ligand

>  <RI>
0

>  <Rbt.Current_Directory>
/home/itssahil/PROJECTS/Mol_Feturizer/New_Systems/rnas/1ZZ5

>  <Rbt.Executable>
rbdock ($Id: //depot/dev/client3/rdock/2013.1/src/exe/rbdock.cxx#4 $)

>  <Rbt.Library>
libRbt.so (2013.1, Build901 2013/11/27)

>  <Rbt.Parameter_File>
/export/apps/rDock/src/rDock_2013.1_src/data/scripts/dock_solv.prm

>  <Rbt.Receptor>
prm/pocket_docking_2.prm

>  <SCORE>
-10.8298

>  <SCORE.INTER>
-8.90017

>  <SCORE.INTER.CONST>
1

>  <SCORE.INTER.POLAR>
0

>  <SCORE.INTER.ROT>
4

>  <SCORE.INTER.SOLV>
18.5117

>  <SCORE.INTER.VDW>
-18.3707

>  <SCORE.INTER.norm>
-0.217077

>  <SCORE.INTRA>
-1.93281

>  <SCORE.INTRA.DIHEDRAL>
-3.8977

>  <SCORE.INTRA.DIHEDRAL.0>
5.18357

>  <SCORE.INTRA.POLAR>
0

>  <SCORE.INTRA.POLAR.0>
0

>  <SCORE.INTRA.REPUL>
0

>  <SCORE.INTRA.REPUL.0>
0

>  <SCORE.INTRA.SOLV>
0.0924894

>  <SCORE.INTRA.SOLV.lig_0>
-109.973

>  <SCORE.INTRA.VDW>
-0.0302073

>  <SCORE.INTRA.VDW.0>
-1.68646

>  <SCORE.INTRA.norm>
-0.0471418

>  <SCORE.RESTR>
0.00321781

>  <SCORE.RESTR.CAVITY>
0.00321781

>  <SCORE.RESTR.norm>
7.84832e-05

>  <SCORE.SYSTEM>
0

>  <SCORE.SYSTEM.CONST>
0

>  <SCORE.SYSTEM.DIHEDRAL>
0

>  <SCORE.SYSTEM.SOLV>
0

>  <SCORE.SYSTEM.norm>
0

>  <SCORE.heavy>
41

>  <SCORE.norm>
-0.264141

>  <RMSD>
0.994

$$$$
ligand
 OpenBabel11021811423D
libRbt.so/2013.1/901 2013/11/27
 41 45  0  0  0  0  0  0  0  0999 V2000
   34.6367   39.0432    5.0691 C   0  0  2  0  0  0  0  0  0  0  0  0
   34.1604   39.1676    6.4234 O   0  0  0  0  0  0  0  0  0  0  0  0
   33.3480   36.4064    9.6843 C   0  0  2  0  0  0  0  0  0  0  0  0
   32.8352   35.2160   10.4105 N   0  0  0  0  0  0  0  0  0  0  0  0
   37.4824   37.1531    7.3987 C   0  0  1  0  0  0  0  0  0  0  0  0
   41.8466   38.5104    6.6656 C   0  0  1  0  0  0  0  0  0  0  0  0
   35.6352   40.1867    4.7182 C   0  0  2  0  0  0  0  0  0  0  0  0
   36.7471   40.2863    5.6684 N   0  0  0  0  0  0  0  0  0  0  0  0
   32.1602   37.0986    8.9441 C   0  0  0  0  0  0  0  0  0  0  0  0
   38.4963   36.5702    6.3877 C   0  0  2  0  0  0  0  0  0  0  0  0
   39.1401   35.3968    6.8950 O   0  0  0  0  0  0  0  0  0  0  0  0
   43.0390   38.2828    7.6895 C   0  0  2  0  0  0  0  0  0  0  0  0
   42.6406   38.3983    9.1257 N   0  0  0  0  0  0  0  0  0  0  0  0
   34.8876   41.5447    4.6324 C   0  0  1  0  0  0  0  0  0  0  0  0
   35.7996   42.5831    4.2847 O   0  0  0  0  0  0  0  0  0  0  0  0
   32.6399   38.3525    8.1569 C   0  0  2  0  0  0  0  0  0  0  0  0
   31.4628   38.9500    7.4985 N   0  0  0  0  0  0  0  0  0  0  0  0
   39.4789   37.7224    6.1174 C   0  0  2  0  0  0  0  0  0  0  0  0
   40.7066   37.6195    6.9429 O   0  0  0  0  0  0  0  0  0  0  0  0
   44.2241   39.3039    7.3753 C   0  0  1  0  0  0  0  0  0  0  0  0
   44.8461   39.0086    6.1053 O   0  0  0  0  0  0  0  0  0  0  0  0
   33.7487   41.4482    3.5910 C   0  0  2  0  0  0  0  0  0  0  0  0
   33.0751   42.6856    3.4949 O   0  0  0  0  0  0  0  0  0  0  0  0
   33.7621   37.9499    7.1357 C   0  0  2  0  0  0  0  0  0  0  0  0
   38.6779   38.9760    6.4579 C   0  0  2  0  0  0  0  0  0  0  0  0
   37.6758   38.5684    7.3787 O   0  0  0  0  0  0  0  0  0  0  0  0
   43.7289   40.8059    7.3599 C   0  0  2  0  0  0  0  0  0  0  0  0
   43.3404   41.1894    8.6898 O   0  0  0  0  0  0  0  0  0  0  0  0
   32.7666   40.3255    3.9804 C   0  0  2  0  0  0  0  0  0  0  0  0
   33.5260   39.0601    4.0886 O   0  0  0  0  0  0  0  0  0  0  0  0
   34.9927   37.2756    7.9254 C   0  0  2  0  0  0  0  0  0  0  0  0
   36.0873   36.8343    7.0193 O   0  0  0  0  0  0  0  0  0  0  0  0
   37.9810   39.6029    5.2593 C   0  0  0  0  0  0  0  0  0  0  0  0
   42.5154   40.9599    6.3560 C   0  0  1  0  0  0  0  0  0  0  0  0
   41.4298   39.9593    6.6347 O   0  0  0  0  0  0  0  0  0  0  0  0
   31.6462   40.2224    2.9194 C   0  0  0  0  0  0  0  0  0  0  0  0
   30.5902   39.2394    3.2241 N   0  0  0  0  0  0  0  0  0  0  0  0
   34.4961   36.0204    8.6741 C   0  0  1  0  0  0  0  0  0  0  0  0
   35.5896   35.4195    9.3754 O   0  0  0  0  0  0  0  0  0  0  0  0
   41.9213   42.4203    6.3137 C   0  0  0  0  0  0  0  0  0  0  0  0
   42.8693   43.5105    5.9189 N   0  0  0  0  0  0  0  0  0  0  0  0
  1  2  1  1  0  0  0
  1  7  1  0  0  0  0
  1 30  1  0  0  0  0
  3  4  1  6  0  0  0
  3  9  1  0  0  0  0
  3 38  1  0  0  0  0
  5 10  1  0  0  0  0
  5 26  1  6  0  0  0
  5 32  1  0  0  0  0
  6 12  1  0  0  0  0
  6 35  1  0  0  0  0
  6 19  1  1  0  0  0
  7  8  1  1  0  0  0
  7 14  1  0  0  0  0
  8 33  1  0  0  0  0
  9 16  1  0  0  0  0
 10 11  1  1  0  0  0
 10 18  1  0  0  0  0
 12 13  1  1  0  0  0
 12 20  1  0  0  0  0
 14 15  1  6  0  0  0
 14 22  1  0  0  0  0
 16 17  1  6  0  0  0
 16 24  1  0  0  0  0
 18 19  1  1  0  0  0
 18 25  1  0  0  0  0
 20 21  1  6  0  0  0
 20 27  1  0  0  0  0
 22 23  1  1  0  0  0
 22 29  1  0  0  0  0
 24  2  1  1  0  0  0
 24 31  1  0  0  0  0
 25 26  1  1  0  0  0
 25 33  1  0  0  0  0
 27 28  1  1  0  0  0
 27 34  1  0  0  0  0
 29 30  1  0  0  0  0
 29 36  1  6  0  0  0
 31 32  1  6  0  0  0
 31 38  1  0  0  0  0
 34 35  1  0  0  0  0
 34 40  1  1  0  0  0
 36 37  1  0  0  0  0
 38 39  1  1  0  0  0
 40 41  1  0  0  0  0
M  END
>  <CHROM.1>
170.32413818,177.84067207,-176.18858251,59.11594679,37.25921745,39.01210043
6.53044797,3.13175156,0.14373462,2.45395533

>  <Name>
ligand

>  <RI>
0

>  <Rbt.Current_Directory>
/home/itssahil/PROJECTS/Mol_Feturizer/New_Systems/rnas/1ZZ5

>  <Rbt.Executable>
rbdock ($Id: //depot/dev/client3/rdock/2013.1/src/exe/rbdock.cxx#4 $)

>  <Rbt.Library>
libRbt.so (2013.1, Build901 2013/11/27)

>  <Rbt.Parameter_File>
/export/apps/rDock/src/rDock_2013.1_src/data/scripts/dock_solv.prm

>  <Rbt.Receptor>
prm/pocket_docking_2.prm

>  <SCORE>
-10.7049

>  <SCORE.INTER>
-8.1312

>  <SCORE.INTER.CONST>
1

>  <SCORE.INTER.POLAR>
0

>  <SCORE.INTER.ROT>
4

>  <SCORE.INTER.SOLV>
18.4428

>  <SCORE.INTER.VDW>
-17.8351

>  <SCORE.INTER.norm>
-0.198322

>  <SCORE.INTRA>
-2.57543

>  <SCORE.INTRA.DIHEDRAL>
-4.42288

>  <SCORE.INTRA.DIHEDRAL.0>
5.18357

>  <SCORE.INTRA.POLAR>
0

>  <SCORE.INTRA.POLAR.0>
0

>  <SCORE.INTRA.REPUL>
0

>  <SCORE.INTRA.REPUL.0>
0

>  <SCORE.INTRA.SOLV>
-1.0808

>  <SCORE.INTRA.SOLV.lig_0>
-109.973

>  <SCORE.INTRA.VDW>
0.17641

>  <SCORE.INTRA.VDW.0>
-1.68646

>  <SCORE.INTRA.norm>
-0.0628153

>  <SCORE.RESTR>
0.00167928

>  <SCORE.RESTR.CAVITY>
0.00167928

>  <SCORE.RESTR.norm>
4.09582e-05

>  <SCORE.SYSTEM>
0

>  <SCORE.SYSTEM.CONST>
0

>  <SCORE.SYSTEM.DIHEDRAL>
0

>  <SCORE.SYSTEM.SOLV>
0

>  <SCORE.SYSTEM.norm>
0

>  <SCORE.heavy>
41

>  <SCORE.norm>
-0.261096

>  <RMSD>
0.996

$$$$
ligand
 OpenBabel11021811423D
libRbt.so/2013.1/901 2013/11/27
 41 45  0  0  0  0  0  0  0  0999 V2000
   34.8554   38.9693    5.1106 C   0  0  2  0  0  0  0  0  0  0  0  0
   34.3341   39.0871    6.4488 O   0  0  0  0  0  0  0  0  0  0  0  0
   33.5372   36.3264    9.7139 C   0  0  2  0  0  0  0  0  0  0  0  0
   33.0516   35.1231   10.4375 N   0  0  0  0  0  0  0  0  0  0  0  0
   37.7045   37.2197    7.5436 C   0  0  1  0  0  0  0  0  0  0  0  0
   42.0299   38.7473    6.9251 C   0  0  1  0  0  0  0  0  0  0  0  0
   35.8167   40.1493    4.7769 C   0  0  2  0  0  0  0  0  0  0  0  0
   36.8947   40.3034    5.7585 N   0  0  0  0  0  0  0  0  0  0  0  0
   32.3449   36.9624    8.9315 C   0  0  0  0  0  0  0  0  0  0  0  0
   38.7710   36.6691    6.5694 C   0  0  2  0  0  0  0  0  0  0  0  0
   39.4465   35.5280    7.1082 O   0  0  0  0  0  0  0  0  0  0  0  0
   43.2822   38.4442    7.8535 C   0  0  2  0  0  0  0  0  0  0  0  0
   42.9658   38.4137    9.3142 N   0  0  0  0  0  0  0  0  0  0  0  0
   35.0175   41.4746    4.6544 C   0  0  1  0  0  0  0  0  0  0  0  0
   35.8966   42.5461    4.3226 O   0  0  0  0  0  0  0  0  0  0  0  0
   32.7967   38.2272    8.1453 C   0  0  2  0  0  0  0  0  0  0  0  0
   31.6166   38.7696    7.4460 N   0  0  0  0  0  0  0  0  0  0  0  0
   39.7136   37.8579    6.3157 C   0  0  2  0  0  0  0  0  0  0  0  0
   40.9192   37.8132    7.1782 O   0  0  0  0  0  0  0  0  0  0  0  0
   44.4341   39.5121    7.5737 C   0  0  1  0  0  0  0  0  0  0  0  0
   44.9855   39.3518    6.2482 O   0  0  0  0  0  0  0  0  0  0  0  0
   33.9152   41.3216    3.5809 C   0  0  2  0  0  0  0  0  0  0  0  0
   33.1950   42.5294    3.4515 O   0  0  0  0  0  0  0  0  0  0  0  0
   33.9644   37.8610    7.1621 C   0  0  2  0  0  0  0  0  0  0  0  0
   38.8526   39.0809    6.6189 C   0  0  2  0  0  0  0  0  0  0  0  0
   37.8407   38.6415    7.5140 O   0  0  0  0  0  0  0  0  0  0  0  0
   43.9198   40.9994    7.7321 C   0  0  2  0  0  0  0  0  0  0  0  0
   43.6038   41.2461    9.1126 O   0  0  0  0  0  0  0  0  0  0  0  0
   32.9682   40.1634    3.9532 C   0  0  2  0  0  0  0  0  0  0  0  0
   33.7748   38.9313    4.0975 O   0  0  0  0  0  0  0  0  0  0  0  0
   35.1971   37.2453    7.9951 C   0  0  2  0  0  0  0  0  0  0  0  0
   36.3354   36.8404    7.1266 O   0  0  0  0  0  0  0  0  0  0  0  0
   38.1670   39.6672    5.3934 C   0  0  0  0  0  0  0  0  0  0  0  0
   42.6485   41.2270    6.8176 C   0  0  1  0  0  0  0  0  0  0  0  0
   41.5936   40.1847    7.0584 O   0  0  0  0  0  0  0  0  0  0  0  0
   31.8852   40.0044    2.8607 C   0  0  0  0  0  0  0  0  0  0  0  0
   30.8959   41.0963    2.8028 N   0  0  0  0  0  0  0  0  0  0  0  0
   34.7297   35.9780    8.7424 C   0  0  1  0  0  0  0  0  0  0  0  0
   35.8252   35.4292    9.4822 O   0  0  0  0  0  0  0  0  0  0  0  0
   42.0344   42.6736    6.9507 C   0  0  0  0  0  0  0  0  0  0  0  0
   40.9063   43.0030    6.0221 N   0  0  0  0  0  0  0  0  0  0  0  0
  1  2  1  1  0  0  0
  1  7  1  0  0  0  0
  1 30  1  0  0  0  0
  3  4  1  6  0  0  0
  3  9  1  0  0  0  0
  3 38  1  0  0  0  0
  5 10  1  0  0  0  0
  5 26  1  6  0  0  0
  5 32  1  0  0  0  0
  6 12  1  0  0  0  0
  6 35  1  0  0  0  0
  6 19  1  1  0  0  0
  7  8  1  1  0  0  0
  7 14  1  0  0  0  0
  8 33  1  0  0  0  0
  9 16  1  0  0  0  0
 10 11  1  1  0  0  0
 10 18  1  0  0  0  0
 12 13  1  1  0  0  0
 12 20  1  0  0  0  0
 14 15  1  6  0  0  0
 14 22  1  0  0  0  0
 16 17  1  6  0  0  0
 16 24  1  0  0  0  0
 18 19  1  1  0  0  0
 18 25  1  0  0  0  0
 20 21  1  6  0  0  0
 20 27  1  0  0  0  0
 22 23  1  1  0  0  0
 22 29  1  0  0  0  0
 24  2  1  1  0  0  0
 24 31  1  0  0  0  0
 25 26  1  1  0  0  0
 25 33  1  0  0  0  0
 27 28  1  1  0  0  0
 27 34  1  0  0  0  0
 29 30  1  0  0  0  0
 29 36  1  6  0  0  0
 31 32  1  6  0  0  0
 31 38  1  0  0  0  0
 34 35  1  0  0  0  0
 34 40  1  1  0  0  0
 36 37  1  0  0  0  0
 38 39  1  1  0  0  0
 40 41  1  0  0  0  0
M  END
>  <CHROM.1>
170.32349387,-174.13115803,-69.74143632,174.55249678,37.40683149,39.06988101
6.65007143,-3.10378570,0.17221140,2.44664437

>  <Name>
ligand

>  <RI>
0

>  <Rbt.Current_Directory>
/home/itssahil/PROJECTS/Mol_Feturizer/New_Systems/rnas/1ZZ5

>  <Rbt.Executable>
rbdock ($Id: //depot/dev/client3/rdock/2013.1/src/exe/rbdock.cxx#4 $)

>  <Rbt.Library>
libRbt.so (2013.1, Build901 2013/11/27)

>  <Rbt.Parameter_File>
/export/apps/rDock/src/rDock_2013.1_src/data/scripts/dock_solv.prm

>  <Rbt.Receptor>
prm/pocket_docking_2.prm

>  <SCORE>
-9.34446

>  <SCORE.INTER>
-7.45243

>  <SCORE.INTER.CONST>
1

>  <SCORE.INTER.POLAR>
0

>  <SCORE.INTER.ROT>
4

>  <SCORE.INTER.SOLV>
17.4153

>  <SCORE.INTER.VDW>
-17.0401

>  <SCORE.INTER.norm>
-0.181767

>  <SCORE.INTRA>
-1.89203

>  <SCORE.INTRA.DIHEDRAL>
-3.88761

>  <SCORE.INTRA.DIHEDRAL.0>
5.18357

>  <SCORE.INTRA.POLAR>
0

>  <SCORE.INTRA.POLAR.0>
0

>  <SCORE.INTRA.REPUL>
0

>  <SCORE.INTRA.REPUL.0>
0

>  <SCORE.INTRA.SOLV>
-0.173503

>  <SCORE.INTRA.SOLV.lig_0>
-109.973

>  <SCORE.INTRA.VDW>
0.138529

>  <SCORE.INTRA.VDW.0>
-1.68646

>  <SCORE.INTRA.norm>
-0.0461471

>  <SCORE.RESTR>
0

>  <SCORE.RESTR.CAVITY>
0

>  <SCORE.RESTR.norm>
0

>  <SCORE.SYSTEM>
0

>  <SCORE.SYSTEM.CONST>
0

>  <SCORE.SYSTEM.DIHEDRAL>
0

>  <SCORE.SYSTEM.SOLV>
0

>  <SCORE.SYSTEM.norm>
0

>  <SCORE.heavy>
41

>  <SCORE.norm>
-0.227914

>  <RMSD>
0.996

$$$$
ligand
 OpenBabel11021811423D
libRbt.so/2013.1/901 2013/11/27
 41 45  0  0  0  0  0  0  0  0999 V2000
   34.5021   39.2343    4.9095 C   0  0  2  0  0  0  0  0  0  0  0  0
   34.0746   39.3257    6.2826 O   0  0  0  0  0  0  0  0  0  0  0  0
   33.4851   36.4990    9.5353 C   0  0  2  0  0  0  0  0  0  0  0  0
   33.0423   35.2829   10.2647 N   0  0  0  0  0  0  0  0  0  0  0  0
   37.4996   37.4175    7.1031 C   0  0  1  0  0  0  0  0  0  0  0  0
   41.7848   38.9314    6.2173 C   0  0  1  0  0  0  0  0  0  0  0  0
   35.4461   40.4161    4.5358 C   0  0  2  0  0  0  0  0  0  0  0  0
   36.5898   40.5434    5.4440 N   0  0  0  0  0  0  0  0  0  0  0  0
   32.2463   37.1580    8.8503 C   0  0  0  0  0  0  0  0  0  0  0  0
   38.4930   36.8826    6.0464 C   0  0  2  0  0  0  0  0  0  0  0  0
   39.1962   35.7265    6.5131 O   0  0  0  0  0  0  0  0  0  0  0  0
   43.1167   38.5580    6.9975 C   0  0  2  0  0  0  0  0  0  0  0  0
   42.9467   38.4517    8.4789 N   0  0  0  0  0  0  0  0  0  0  0  0
   34.6492   41.7480    4.4967 C   0  0  1  0  0  0  0  0  0  0  0  0
   35.5106   42.8219    4.1281 O   0  0  0  0  0  0  0  0  0  0  0  0
   32.6515   38.4372    8.0620 C   0  0  2  0  0  0  0  0  0  0  0  0
   31.4298   39.0008    7.4572 N   0  0  0  0  0  0  0  0  0  0  0  0
   39.4240   38.0717    5.7539 C   0  0  2  0  0  0  0  0  0  0  0  0
   40.6856   38.0020    6.5304 O   0  0  0  0  0  0  0  0  0  0  0  0
   44.2571   39.6219    6.6609 C   0  0  1  0  0  0  0  0  0  0  0  0
   44.6704   39.5266    5.2800 O   0  0  0  0  0  0  0  0  0  0  0  0
   33.4748   41.6241    3.4985 C   0  0  2  0  0  0  0  0  0  0  0  0
   32.7556   42.8382    3.4446 O   0  0  0  0  0  0  0  0  0  0  0  0
   33.7465   38.0864    6.9933 C   0  0  2  0  0  0  0  0  0  0  0  0
   38.5939   39.2922    6.1415 C   0  0  2  0  0  0  0  0  0  0  0  0
   37.6430   38.8388    7.0945 O   0  0  0  0  0  0  0  0  0  0  0  0
   43.7924   41.1059    6.9495 C   0  0  2  0  0  0  0  0  0  0  0  0
   43.6206   41.2807    8.3660 O   0  0  0  0  0  0  0  0  0  0  0  0
   32.5479   40.4630    3.9103 C   0  0  2  0  0  0  0  0  0  0  0  0
   33.3543   39.2239    3.9725 O   0  0  0  0  0  0  0  0  0  0  0  0
   35.0293   37.4463    7.7263 C   0  0  2  0  0  0  0  0  0  0  0  0
   36.1026   37.0544    6.7732 O   0  0  0  0  0  0  0  0  0  0  0  0
   37.8299   39.9086    4.9789 C   0  0  0  0  0  0  0  0  0  0  0  0
   42.4414   41.4034    6.1810 C   0  0  1  0  0  0  0  0  0  0  0  0
   41.3941   40.3658    6.4705 O   0  0  0  0  0  0  0  0  0  0  0  0
   31.3915   40.3334    2.8917 C   0  0  0  0  0  0  0  0  0  0  0  0
   30.3788   39.3155    3.2274 N   0  0  0  0  0  0  0  0  0  0  0  0
   34.6058   36.1656    8.4769 C   0  0  1  0  0  0  0  0  0  0  0  0
   35.7458   35.5951    9.1278 O   0  0  0  0  0  0  0  0  0  0  0  0
   41.8740   42.8497    6.4523 C   0  0  0  0  0  0  0  0  0  0  0  0
   42.7435   43.9933    6.0284 N   0  0  0  0  0  0  0  0  0  0  0  0
  1  2  1  1  0  0  0
  1  7  1  0  0  0  0
  1 30  1  0  0  0  0
  3  4  1  6  0  0  0
  3  9  1  0  0  0  0
  3 38  1  0  0  0  0
  5 10  1  0  0  0  0
  5 26  1  6  0  0  0
  5 32  1  0  0  0  0
  6 12  1  0  0  0  0
  6 35  1  0  0  0  0
  6 19  1  1  0  0  0
  7  8  1  1  0  0  0
  7 14  1  0  0  0  0
  8 33  1  0  0  0  0
  9 16  1  0  0  0  0
 10 11  1  1  0  0  0
 10 18  1  0  0  0  0
 12 13  1  1  0  0  0
 12 20  1  0  0  0  0
 14 15  1  6  0  0  0
 14 22  1  0  0  0  0
 16 17  1  6  0  0  0
 16 24  1  0  0  0  0
 18 19  1  1  0  0  0
 18 25  1  0  0  0  0
 20 21  1  6  0  0  0
 20 27  1  0  0  0  0
 22 23  1  1  0  0  0
 22 29  1  0  0  0  0
 24  2  1  1  0  0  0
 24 31  1  0  0  0  0
 25 26  1  1  0  0  0
 25 33  1  0  0  0  0
 27 28  1  1  0  0  0
 27 34  1  0  0  0  0
 29 30  1  0  0  0  0
 29 36  1  6  0  0  0
 31 32  1  6  0  0  0
 31 38  1  0  0  0  0
 34 35  1  0  0  0  0
 34 40  1  1  0  0  0
 36 37  1  0  0  0  0
 38 39  1  1  0  0  0
 40 41  1  0  0  0  0
M  END
>  <CHROM.1>
170.03715546,-171.29186855,-175.86586203,61.74281809,37.21340033,39.24626346
6.29238477,3.09711362,0.13365447,2.48051537

>  <Name>
ligand

>  <RI>
0

>  <Rbt.Current_Directory>
/home/itssahil/PROJECTS/Mol_Feturizer/New_Systems/rnas/1ZZ5

>  <Rbt.Executable>
rbdock ($Id: //depot/dev/client3/rdock/2013.1/src/exe/rbdock.cxx#4 $)

>  <Rbt.Library>
libRbt.so (2013.1, Build901 2013/11/27)

>  <Rbt.Parameter_File>
/export/apps/rDock/src/rDock_2013.1_src/data/scripts/dock_solv.prm

>  <Rbt.Receptor>
prm/pocket_docking_2.prm

>  <SCORE>
-10.6177

>  <SCORE.INTER>
-8.1294

>  <SCORE.INTER.CONST>
1

>  <SCORE.INTER.POLAR>
0

>  <SCORE.INTER.ROT>
4

>  <SCORE.INTER.SOLV>
18.9443

>  <SCORE.INTER.VDW>
-18.001

>  <SCORE.INTER.norm>
-0.198278

>  <SCORE.INTRA>
-2.49484

>  <SCORE.INTRA.DIHEDRAL>
-4.04869

>  <SCORE.INTRA.DIHEDRAL.0>
5.18357

>  <SCORE.INTRA.POLAR>
0

>  <SCORE.INTRA.POLAR.0>
0

>  <SCORE.INTRA.REPUL>
0

>  <SCORE.INTRA.REPUL.0>
0

>  <SCORE.INTRA.SOLV>
-1.20394

>  <SCORE.INTRA.SOLV.lig_0>
-109.973

>  <SCORE.INTRA.VDW>
0.131475

>  <SCORE.INTRA.VDW.0>
-1.68646

>  <SCORE.INTRA.norm>
-0.0608498

>  <SCORE.RESTR>
0.00653518

>  <SCORE.RESTR.CAVITY>
0.00653518

>  <SCORE.RESTR.norm>
0.000159395

>  <SCORE.SYSTEM>
0

>  <SCORE.SYSTEM.CONST>
0

>  <SCORE.SYSTEM.DIHEDRAL>
0

>  <SCORE.SYSTEM.SOLV>
0

>  <SCORE.SYSTEM.norm>
0

>  <SCORE.heavy>
41

>  <SCORE.norm>
-0.258968

>  <RMSD>
0.998

$$$$
ligand
 OpenBabel11021811423D
libRbt.so/2013.1/901 2013/11/27
 41 45  0  0  0  0  0  0  0  0999 V2000
   34.4543   39.2200    4.8974 C   0  0  2  0  0  0  0  0  0  0  0  0
   34.0430   39.3203    6.2748 O   0  0  0  0  0  0  0  0  0  0  0  0
   33.5045   36.5163    9.5559 C   0  0  2  0  0  0  0  0  0  0  0  0
   33.0755   35.3040   10.3000 N   0  0  0  0  0  0  0  0  0  0  0  0
   37.4855   37.4323    7.0685 C   0  0  1  0  0  0  0  0  0  0  0  0
   41.7783   38.9089    6.0743 C   0  0  1  0  0  0  0  0  0  0  0  0
   35.3888   40.4028    4.5033 C   0  0  2  0  0  0  0  0  0  0  0  0
   36.5429   40.5416    5.3966 N   0  0  0  0  0  0  0  0  0  0  0  0
   32.2548   37.1650    8.8810 C   0  0  0  0  0  0  0  0  0  0  0  0
   38.4684   36.8933    6.0040 C   0  0  2  0  0  0  0  0  0  0  0  0
   39.1819   35.7438    6.4710 O   0  0  0  0  0  0  0  0  0  0  0  0
   43.0090   38.7673    7.0679 C   0  0  2  0  0  0  0  0  0  0  0  0
   42.6594   38.9769    8.5062 N   0  0  0  0  0  0  0  0  0  0  0  0
   34.5860   41.7310    4.4636 C   0  0  1  0  0  0  0  0  0  0  0  0
   35.4384   42.8055    4.0765 O   0  0  0  0  0  0  0  0  0  0  0  0
   32.6451   38.4397    8.0781 C   0  0  2  0  0  0  0  0  0  0  0  0
   31.4139   38.9937    7.4838 N   0  0  0  0  0  0  0  0  0  0  0  0
   39.3908   38.0839    5.6912 C   0  0  2  0  0  0  0  0  0  0  0  0
   40.6619   38.0254    6.4529 O   0  0  0  0  0  0  0  0  0  0  0  0
   44.1672   39.7787    6.6420 C   0  0  1  0  0  0  0  0  0  0  0  0
   44.7486   39.4040    5.3737 O   0  0  0  0  0  0  0  0  0  0  0  0
   33.4002   41.5946    3.4807 C   0  0  2  0  0  0  0  0  0  0  0  0
   32.6753   42.8053    3.4262 O   0  0  0  0  0  0  0  0  0  0  0  0
   33.7287   38.0851    6.9989 C   0  0  2  0  0  0  0  0  0  0  0  0
   38.5604   39.3040    6.0794 C   0  0  2  0  0  0  0  0  0  0  0  0
   37.6229   38.8541    7.0473 O   0  0  0  0  0  0  0  0  0  0  0  0
   43.6498   41.2699    6.5414 C   0  0  2  0  0  0  0  0  0  0  0  0
   43.3025   41.7396    7.8549 O   0  0  0  0  0  0  0  0  0  0  0  0
   32.4832   40.4330    3.9125 C   0  0  2  0  0  0  0  0  0  0  0  0
   33.2954   39.1977    3.9745 O   0  0  0  0  0  0  0  0  0  0  0  0
   35.0228   37.4559    7.7213 C   0  0  2  0  0  0  0  0  0  0  0  0
   36.0862   37.0611    6.7583 O   0  0  0  0  0  0  0  0  0  0  0  0
   37.7798   39.9083    4.9214 C   0  0  0  0  0  0  0  0  0  0  0  0
   42.3997   41.3392    5.5735 C   0  0  1  0  0  0  0  0  0  0  0  0
   41.3393   40.3470    5.9590 O   0  0  0  0  0  0  0  0  0  0  0  0
   31.3151   40.2908    2.9089 C   0  0  0  0  0  0  0  0  0  0  0  0
   30.3161   39.2645    3.2595 N   0  0  0  0  0  0  0  0  0  0  0  0
   34.6137   36.1793    8.4867 C   0  0  1  0  0  0  0  0  0  0  0  0
   35.7638   35.6185    9.1281 O   0  0  0  0  0  0  0  0  0  0  0  0
   41.7830   42.7857    5.4525 C   0  0  0  0  0  0  0  0  0  0  0  0
   41.2089   43.3689    6.7070 N   0  0  0  0  0  0  0  0  0  0  0  0
  1  2  1  1  0  0  0
  1  7  1  0  0  0  0
  1 30  1  0  0  0  0
  3  4  1  6  0  0  0
  3  9  1  0  0  0  0
  3 38  1  0  0  0  0
  5 10  1  0  0  0  0
  5 26  1  6  0  0  0
  5 32  1  0  0  0  0
  6 12  1  0  0  0  0
  6 35  1  0  0  0  0
  6 19  1  1  0  0  0
  7  8  1  1  0  0  0
  7 14  1  0  0  0  0
  8 33  1  0  0  0  0
  9 16  1  0  0  0  0
 10 11  1  1  0  0  0
 10 18  1  0  0  0  0
 12 13  1  1  0  0  0
 12 20  1  0  0  0  0
 14 15  1  6  0  0  0
 14 22  1  0  0  0  0
 16 17  1  6  0  0  0
 16 24  1  0  0  0  0
 18 19  1  1  0  0  0
 18 25  1  0  0  0  0
 20 21  1  6  0  0  0
 20 27  1  0  0  0  0
 22 23  1  1  0  0  0
 22 29  1  0  0  0  0
 24  2  1  1  0  0  0
 24 31  1  0  0  0  0
 25 26  1  1  0  0  0
 25 33  1  0  0  0  0
 27 28  1  1  0  0  0
 27 34  1  0  0  0  0
 29 30  1  0  0  0  0
 29 36  1  6  0  0  0
 31 32  1  6  0  0  0
 31 38  1  0  0  0  0
 34 35  1  0  0  0  0
 34 40  1  1  0  0  0
 36 37  1  0  0  0  0
 38 39  1  1  0  0  0
 40 41  1  0  0  0  0
M  END
>  <CHROM.1>
166.89418076,176.08179967,-176.30222239,-63.47803048,37.12759163,39.25910195
6.22293893,3.08625356,0.11959960,2.46385500

>  <Name>
ligand

>  <RI>
0

>  <Rbt.Current_Directory>
/home/itssahil/PROJECTS/Mol_Feturizer/New_Systems/rnas/1ZZ5

>  <Rbt.Executable>
rbdock ($Id: //depot/dev/client3/rdock/2013.1/src/exe/rbdock.cxx#4 $)

>  <Rbt.Library>
libRbt.so (2013.1, Build901 2013/11/27)

>  <Rbt.Parameter_File>
/export/apps/rDock/src/rDock_2013.1_src/data/scripts/dock_solv.prm

>  <Rbt.Receptor>
prm/pocket_docking_2.prm

>  <SCORE>
-10.8303

>  <SCORE.INTER>
-8.87377

>  <SCORE.INTER.CONST>
1

>  <SCORE.INTER.POLAR>
0

>  <SCORE.INTER.ROT>
4

>  <SCORE.INTER.SOLV>
18.4628

>  <SCORE.INTER.VDW>
-18.3368

>  <SCORE.INTER.norm>
-0.216433

>  <SCORE.INTRA>
-1.96237

>  <SCORE.INTRA.DIHEDRAL>
-3.97225

>  <SCORE.INTRA.DIHEDRAL.0>
5.18357

>  <SCORE.INTRA.POLAR>
0

>  <SCORE.INTRA.POLAR.0>
0

>  <SCORE.INTRA.REPUL>
0

>  <SCORE.INTRA.REPUL.0>
0

>  <SCORE.INTRA.SOLV>
0.0955683

>  <SCORE.INTRA.SOLV.lig_0>
-109.973

>  <SCORE.INTRA.VDW>
-0.0240282

>  <SCORE.INTRA.VDW.0>
-1.68646

>  <SCORE.INTRA.norm>
-0.0478627

>  <SCORE.RESTR>
0.00583149

>  <SCORE.RESTR.CAVITY>
0.00583149

>  <SCORE.RESTR.norm>
0.000142231

>  <SCORE.SYSTEM>
0

>  <SCORE.SYSTEM.CONST>
0

>  <SCORE.SYSTEM.DIHEDRAL>
0

>  <SCORE.SYSTEM.SOLV>
0

>  <SCORE.SYSTEM.norm>
0

>  <SCORE.heavy>
41

>  <SCORE.norm>
-0.264154

>  <RMSD>
0.999

$$$$
ligand
 OpenBabel11021811423D
libRbt.so/2013.1/901 2013/11/27
 41 45  0  0  0  0  0  0  0  0999 V2000
   34.8108   38.9838    5.0760 C   0  0  2  0  0  0  0  0  0  0  0  0
   34.2880   39.1115    6.4127 O   0  0  0  0  0  0  0  0  0  0  0  0
   33.4865   36.3748    9.6969 C   0  0  2  0  0  0  0  0  0  0  0  0
   32.9997   35.1769   10.4286 N   0  0  0  0  0  0  0  0  0  0  0  0
   37.6565   37.2508    7.5247 C   0  0  1  0  0  0  0  0  0  0  0  0
   41.9949   38.7531    6.8828 C   0  0  1  0  0  0  0  0  0  0  0  0
   35.7729   40.1609    4.7349 C   0  0  2  0  0  0  0  0  0  0  0  0
   36.8498   40.3218    5.7165 N   0  0  0  0  0  0  0  0  0  0  0  0
   32.2954   37.0054    8.9085 C   0  0  0  0  0  0  0  0  0  0  0  0
   38.7239   36.6928    6.5557 C   0  0  2  0  0  0  0  0  0  0  0  0
   39.3984   35.5554    7.1035 O   0  0  0  0  0  0  0  0  0  0  0  0
   43.2557   38.4335    7.7940 C   0  0  2  0  0  0  0  0  0  0  0  0
   42.9611   38.4176    9.2596 N   0  0  0  0  0  0  0  0  0  0  0  0
   34.9743   41.4856    4.6018 C   0  0  1  0  0  0  0  0  0  0  0  0
   35.8541   42.5544    4.2633 O   0  0  0  0  0  0  0  0  0  0  0  0
   32.7485   38.2644    8.1136 C   0  0  2  0  0  0  0  0  0  0  0  0
   31.5693   38.8022    7.4092 N   0  0  0  0  0  0  0  0  0  0  0  0
   39.6673   37.8793    6.2945 C   0  0  2  0  0  0  0  0  0  0  0  0
   40.8719   37.8405    7.1587 O   0  0  0  0  0  0  0  0  0  0  0  0
   44.4219   39.4791    7.4901 C   0  0  1  0  0  0  0  0  0  0  0  0
   44.9501   39.3008    6.1574 O   0  0  0  0  0  0  0  0  0  0  0  0
   33.8731   41.3253    3.5283 C   0  0  2  0  0  0  0  0  0  0  0  0
   33.1536   42.5324    3.3893 O   0  0  0  0  0  0  0  0  0  0  0  0
   33.9171   37.8907    7.1344 C   0  0  2  0  0  0  0  0  0  0  0  0
   38.8063   39.1048    6.5878 C   0  0  2  0  0  0  0  0  0  0  0  0
   37.7933   38.6723    7.4850 O   0  0  0  0  0  0  0  0  0  0  0  0
   43.9364   40.9762    7.6466 C   0  0  2  0  0  0  0  0  0  0  0  0
   43.6459   41.2369    9.0301 O   0  0  0  0  0  0  0  0  0  0  0  0
   32.9253   40.1702    3.9079 C   0  0  2  0  0  0  0  0  0  0  0  0
   33.7314   38.9388    4.0620 O   0  0  0  0  0  0  0  0  0  0  0  0
   35.1487   37.2805    7.9732 C   0  0  2  0  0  0  0  0  0  0  0  0
   36.2878   36.8690    7.1089 O   0  0  0  0  0  0  0  0  0  0  0  0
   38.1224   39.6825    5.3574 C   0  0  0  0  0  0  0  0  0  0  0  0
   42.6556   41.2208    6.7501 C   0  0  1  0  0  0  0  0  0  0  0  0
   41.5862   40.1988    7.0134 O   0  0  0  0  0  0  0  0  0  0  0  0
   31.8435   40.0036    2.8154 C   0  0  0  0  0  0  0  0  0  0  0  0
   30.8513   41.0926    2.7521 N   0  0  0  0  0  0  0  0  0  0  0  0
   34.6800   36.0189    8.7292 C   0  0  1  0  0  0  0  0  0  0  0  0
   35.7744   35.4750    9.4741 O   0  0  0  0  0  0  0  0  0  0  0  0
   42.0693   42.6788    6.8831 C   0  0  0  0  0  0  0  0  0  0  0  0
   40.9125   43.0121    5.9920 N   0  0  0  0  0  0  0  0  0  0  0  0
  1  2  1  1  0  0  0
  1  7  1  0  0  0  0
  1 30  1  0  0  0  0
  3  4  1  6  0  0  0
  3  9  1  0  0  0  0
  3 38  1  0  0  0  0
  5 10  1  0  0  0  0
  5 26  1  6  0  0  0
  5 32  1  0  0  0  0
  6 12  1  0  0  0  0
  6 35  1  0  0  0  0
  6 19  1  1  0  0  0
  7  8  1  1  0  0  0
  7 14  1  0  0  0  0
  8 33  1  0  0  0  0
  9 16  1  0  0  0  0
 10 11  1  1  0  0  0
 10 18  1  0  0  0  0
 12 13  1  1  0  0  0
 12 20  1  0  0  0  0
 14 15  1  6  0  0  0
 14 22  1  0  0  0  0
 16 17  1  6  0  0  0
 16 24  1  0  0  0  0
 18 19  1  1  0  0  0
 18 25  1  0  0  0  0
 20 21  1  6  0  0  0
 20 27  1  0  0  0  0
 22 23  1  1  0  0  0
 22 29  1  0  0  0  0
 24  2  1  1  0  0  0
 24 31  1  0  0  0  0
 25 26  1  1  0  0  0
 25 33  1  0  0  0  0
 27 28  1  1  0  0  0
 27 34  1  0  0  0  0
 29 30  1  0  0  0  0
 29 36  1  6  0  0  0
 31 32  1  6  0  0  0
 31 38  1  0  0  0  0
 34 35  1  0  0  0  0
 34 40  1  1  0  0  0
 36 37  1  0  0  0  0
 38 39  1  1  0  0  0
 40 41  1  0  0  0  0
M  END
>  <CHROM.1>
169.05527571,-172.69923075,-69.98548501,175.92637786,37.37270000,39.08459689
6.60986314,-3.10263402,0.16791555,2.43837816

>  <Name>
ligand

>  <RI>
0

>  <Rbt.Current_Directory>
/home/itssahil/PROJECTS/Mol_Feturizer/New_Systems/rnas/1ZZ5

>  <Rbt.Executable>
rbdock ($Id: //depot/dev/client3/rdock/2013.1/src/exe/rbdock.cxx#4 $)

>  <Rbt.Library>
libRbt.so (2013.1, Build901 2013/11/27)

>  <Rbt.Parameter_File>
/export/apps/rDock/src/rDock_2013.1_src/data/scripts/dock_solv.prm

>  <Rbt.Receptor>
prm/pocket_docking_2.prm

>  <SCORE>
-9.33293

>  <SCORE.INTER>
-7.49159

>  <SCORE.INTER.CONST>
1

>  <SCORE.INTER.POLAR>
0

>  <SCORE.INTER.ROT>
4

>  <SCORE.INTER.SOLV>
17.6813

>  <SCORE.INTER.VDW>
-17.1548

>  <SCORE.INTER.norm>
-0.182722

>  <SCORE.INTRA>
-1.84134

>  <SCORE.INTRA.DIHEDRAL>
-3.70858

>  <SCORE.INTRA.DIHEDRAL.0>
5.18357

>  <SCORE.INTRA.POLAR>
0

>  <SCORE.INTRA.POLAR.0>
0

>  <SCORE.INTRA.REPUL>
0

>  <SCORE.INTRA.REPUL.0>
0

>  <SCORE.INTRA.SOLV>
-0.208434

>  <SCORE.INTRA.SOLV.lig_0>
-109.973

>  <SCORE.INTRA.VDW>
0.117165

>  <SCORE.INTRA.VDW.0>
-1.68646

>  <SCORE.INTRA.norm>
-0.0449107

>  <SCORE.RESTR>
0

>  <SCORE.RESTR.CAVITY>
0

>  <SCORE.RESTR.norm>
0

>  <SCORE.SYSTEM>
0

>  <SCORE.SYSTEM.CONST>
0

>  <SCORE.SYSTEM.DIHEDRAL>
0

>  <SCORE.SYSTEM.SOLV>
0

>  <SCORE.SYSTEM.norm>
0

>  <SCORE.heavy>
41

>  <SCORE.norm>
-0.227632

>  <RMSD>
0.999

$$$$
ligand
 OpenBabel11021811423D
libRbt.so/2013.1/901 2013/11/27
 41 45  0  0  0  0  0  0  0  0999 V2000
   34.6746   39.2133    4.9351 C   0  0  2  0  0  0  0  0  0  0  0  0
   34.2067   39.3022    6.2951 O   0  0  0  0  0  0  0  0  0  0  0  0
   33.7708   36.5158    9.6063 C   0  0  2  0  0  0  0  0  0  0  0  0
   33.4116   35.2850   10.3569 N   0  0  0  0  0  0  0  0  0  0  0  0
   37.7557   37.7053    7.2439 C   0  0  1  0  0  0  0  0  0  0  0  0
   41.8214   39.6727    6.5647 C   0  0  1  0  0  0  0  0  0  0  0  0
   35.5270   40.4601    4.5524 C   0  0  2  0  0  0  0  0  0  0  0  0
   36.6332   40.7038    5.4830 N   0  0  0  0  0  0  0  0  0  0  0  0
   32.4995   37.0528    8.8760 C   0  0  0  0  0  0  0  0  0  0  0  0
   38.8161   37.2294    6.2247 C   0  0  2  0  0  0  0  0  0  0  0  0
   39.6002   36.1474    6.7375 O   0  0  0  0  0  0  0  0  0  0  0  0
   43.1827   39.4457    7.3504 C   0  0  2  0  0  0  0  0  0  0  0  0
   43.0052   39.1407    8.8031 N   0  0  0  0  0  0  0  0  0  0  0  0
   34.6243   41.7199    4.4601 C   0  0  1  0  0  0  0  0  0  0  0  0
   35.4032   42.8523    4.0835 O   0  0  0  0  0  0  0  0  0  0  0  0
   32.8175   38.3418    8.0640 C   0  0  2  0  0  0  0  0  0  0  0  0
   31.5691   38.7872    7.4167 N   0  0  0  0  0  0  0  0  0  0  0  0
   39.6528   38.4843    5.9226 C   0  0  2  0  0  0  0  0  0  0  0  0
   40.8960   38.5385    6.7295 O   0  0  0  0  0  0  0  0  0  0  0  0
   44.1256   40.7213    7.1789 C   0  0  1  0  0  0  0  0  0  0  0  0
   44.5759   40.8592    5.8132 O   0  0  0  0  0  0  0  0  0  0  0  0
   33.4895   41.4747    3.4388 C   0  0  2  0  0  0  0  0  0  0  0  0
   32.6742   42.6232    3.3366 O   0  0  0  0  0  0  0  0  0  0  0  0
   33.9642   38.0574    7.0303 C   0  0  2  0  0  0  0  0  0  0  0  0
   38.7155   39.6407    6.2589 C   0  0  2  0  0  0  0  0  0  0  0  0
   37.7816   39.1331    7.2013 O   0  0  0  0  0  0  0  0  0  0  0  0
   43.4027   42.0598    7.6116 C   0  0  2  0  0  0  0  0  0  0  0  0
   43.1755   42.0371    9.0309 O   0  0  0  0  0  0  0  0  0  0  0  0
   32.6515   40.2510    3.8593 C   0  0  2  0  0  0  0  0  0  0  0  0
   33.5555   39.0850    3.9725 O   0  0  0  0  0  0  0  0  0  0  0  0
   35.2766   37.5440    7.8091 C   0  0  2  0  0  0  0  0  0  0  0  0
   36.4021   37.2197    6.8916 O   0  0  0  0  0  0  0  0  0  0  0  0
   37.9327   40.1632    5.0633 C   0  0  0  0  0  0  0  0  0  0  0  0
   42.0357   42.2081    6.8284 C   0  0  1  0  0  0  0  0  0  0  0  0
   41.1808   40.9796    6.9597 O   0  0  0  0  0  0  0  0  0  0  0  0
   31.5356   40.0012    2.8182 C   0  0  0  0  0  0  0  0  0  0  0  0
   30.4582   41.0078    2.8082 N   0  0  0  0  0  0  0  0  0  0  0  0
   34.9414   36.2511    8.5830 C   0  0  1  0  0  0  0  0  0  0  0  0
   36.1079   35.7931    9.2747 O   0  0  0  0  0  0  0  0  0  0  0  0
   41.2187   43.4941    7.2358 C   0  0  0  0  0  0  0  0  0  0  0  0
   41.9127   44.8079    7.0468 N   0  0  0  0  0  0  0  0  0  0  0  0
  1  2  1  1  0  0  0
  1  7  1  0  0  0  0
  1 30  1  0  0  0  0
  3  4  1  6  0  0  0
  3  9  1  0  0  0  0
  3 38  1  0  0  0  0
  5 10  1  0  0  0  0
  5 26  1  6  0  0  0
  5 32  1  0  0  0  0
  6 12  1  0  0  0  0
  6 35  1  0  0  0  0
  6 19  1  1  0  0  0
  7  8  1  1  0  0  0
  7 14  1  0  0  0  0
  8 33  1  0  0  0  0
  9 16  1  0  0  0  0
 10 11  1  1  0  0  0
 10 18  1  0  0  0  0
 12 13  1  1  0  0  0
 12 20  1  0  0  0  0
 14 15  1  6  0  0  0
 14 22  1  0  0  0  0
 16 17  1  6  0  0  0
 16 24  1  0  0  0  0
 18 19  1  1  0  0  0
 18 25  1  0  0  0  0
 20 21  1  6  0  0  0
 20 27  1  0  0  0  0
 22 23  1  1  0  0  0
 22 29  1  0  0  0  0
 24  2  1  1  0  0  0
 24 31  1  0  0  0  0
 25 26  1  1  0  0  0
 25 33  1  0  0  0  0
 27 28  1  1  0  0  0
 27 34  1  0  0  0  0
 29 30  1  0  0  0  0
 29 36  1  6  0  0  0
 31 32  1  6  0  0  0
 31 38  1  0  0  0  0
 34 35  1  0  0  0  0
 34 40  1  1  0  0  0
 36 37  1  0  0  0  0
 38 39  1  1  0  0  0
 40 41  1  0  0  0  0
M  END
>  <CHROM.1>
179.78608336,-171.67114546,-70.24992224,58.44040154,37.26679453,39.56870654
6.47616346,3.08945248,0.23016198,2.48907088

>  <Name>
ligand

>  <RI>
0

>  <Rbt.Current_Directory>
/home/itssahil/PROJECTS/Mol_Feturizer/New_Systems/rnas/1ZZ5

>  <Rbt.Executable>
rbdock ($Id: //depot/dev/client3/rdock/2013.1/src/exe/rbdock.cxx#4 $)

>  <Rbt.Library>
libRbt.so (2013.1, Build901 2013/11/27)

>  <Rbt.Parameter_File>
/export/apps/rDock/src/rDock_2013.1_src/data/scripts/dock_solv.prm

>  <Rbt.Receptor>
prm/pocket_docking_2.prm

>  <SCORE>
-9.80635

>  <SCORE.INTER>
-8.03986

>  <SCORE.INTER.CONST>
1

>  <SCORE.INTER.POLAR>
0

>  <SCORE.INTER.ROT>
4

>  <SCORE.INTER.SOLV>
16.8442

>  <SCORE.INTER.VDW>
-17.2413

>  <SCORE.INTER.norm>
-0.196094

>  <SCORE.INTRA>
-1.76649

>  <SCORE.INTRA.DIHEDRAL>
-4.23647

>  <SCORE.INTRA.DIHEDRAL.0>
5.18357

>  <SCORE.INTRA.POLAR>
0

>  <SCORE.INTRA.POLAR.0>
0

>  <SCORE.INTRA.REPUL>
0

>  <SCORE.INTRA.REPUL.0>
0

>  <SCORE.INTRA.SOLV>
0.0130166

>  <SCORE.INTRA.SOLV.lig_0>
-109.973

>  <SCORE.INTRA.VDW>
0.345236

>  <SCORE.INTRA.VDW.0>
-1.68646

>  <SCORE.INTRA.norm>
-0.0430851

>  <SCORE.RESTR>
0

>  <SCORE.RESTR.CAVITY>
0

>  <SCORE.RESTR.norm>
0

>  <SCORE.SYSTEM>
0

>  <SCORE.SYSTEM.CONST>
0

>  <SCORE.SYSTEM.DIHEDRAL>
0

>  <SCORE.SYSTEM.SOLV>
0

>  <SCORE.SYSTEM.norm>
0

>  <SCORE.heavy>
41

>  <SCORE.norm>
-0.239179

>  <RMSD>
1.002

$$$$
ligand
 OpenBabel11021811423D
libRbt.so/2013.1/901 2013/11/27
 41 45  0  0  0  0  0  0  0  0999 V2000
   34.6882   39.2494    4.9049 C   0  0  2  0  0  0  0  0  0  0  0  0
   34.2163   39.3306    6.2640 O   0  0  0  0  0  0  0  0  0  0  0  0
   33.7677   36.5251    9.5572 C   0  0  2  0  0  0  0  0  0  0  0  0
   33.4050   35.2903   10.2995 N   0  0  0  0  0  0  0  0  0  0  0  0
   37.7608   37.7247    7.2141 C   0  0  1  0  0  0  0  0  0  0  0  0
   41.8407   39.6815    6.5440 C   0  0  1  0  0  0  0  0  0  0  0  0
   35.5431   40.4976    4.5321 C   0  0  2  0  0  0  0  0  0  0  0  0
   36.6467   40.7347    5.4675 N   0  0  0  0  0  0  0  0  0  0  0  0
   32.4991   37.0677    8.8263 C   0  0  0  0  0  0  0  0  0  0  0  0
   38.8239   37.2538    6.1953 C   0  0  2  0  0  0  0  0  0  0  0  0
   39.6054   36.1680    6.7041 O   0  0  0  0  0  0  0  0  0  0  0  0
   43.2085   39.4337    7.3119 C   0  0  2  0  0  0  0  0  0  0  0  0
   43.0449   39.1232    8.7651 N   0  0  0  0  0  0  0  0  0  0  0  0
   34.6418   41.7587    4.4446 C   0  0  1  0  0  0  0  0  0  0  0  0
   35.4230   42.8926    4.0770 O   0  0  0  0  0  0  0  0  0  0  0  0
   32.8208   38.3612    8.0229 C   0  0  2  0  0  0  0  0  0  0  0  0
   31.5748   38.8117    7.3745 N   0  0  0  0  0  0  0  0  0  0  0  0
   39.6628   38.5096    5.9032 C   0  0  2  0  0  0  0  0  0  0  0  0
   40.9035   38.5577    6.7142 O   0  0  0  0  0  0  0  0  0  0  0  0
   44.1648   40.6987    7.1355 C   0  0  1  0  0  0  0  0  0  0  0  0
   44.6002   40.8383    5.7652 O   0  0  0  0  0  0  0  0  0  0  0  0
   33.5100   41.5208    3.4184 C   0  0  2  0  0  0  0  0  0  0  0  0
   32.6961   42.6707    3.3205 O   0  0  0  0  0  0  0  0  0  0  0  0
   33.9704   38.0818    6.9911 C   0  0  2  0  0  0  0  0  0  0  0  0
   38.7256   39.6649    6.2435 C   0  0  2  0  0  0  0  0  0  0  0  0
   37.7882   39.1526    7.1800 O   0  0  0  0  0  0  0  0  0  0  0  0
   43.4636   42.0436    7.5840 C   0  0  2  0  0  0  0  0  0  0  0  0
   43.2533   42.0161    9.0058 O   0  0  0  0  0  0  0  0  0  0  0  0
   32.6695   40.2954    3.8291 C   0  0  2  0  0  0  0  0  0  0  0  0
   33.5719   39.1278    3.9382 O   0  0  0  0  0  0  0  0  0  0  0  0
   35.2799   37.5624    7.7708 C   0  0  2  0  0  0  0  0  0  0  0  0
   36.4079   37.2425    6.8547 O   0  0  0  0  0  0  0  0  0  0  0  0
   37.9469   40.1952    5.0486 C   0  0  0  0  0  0  0  0  0  0  0  0
   42.0892   42.2126    6.8181 C   0  0  1  0  0  0  0  0  0  0  0  0
   41.2210   40.9939    6.9535 O   0  0  0  0  0  0  0  0  0  0  0  0
   31.5565   40.0528    2.7831 C   0  0  0  0  0  0  0  0  0  0  0  0
   30.4880   41.0688    2.7656 N   0  0  0  0  0  0  0  0  0  0  0  0
   34.9411   36.2653    8.5360 C   0  0  1  0  0  0  0  0  0  0  0  0
   36.1050   35.8021    9.2285 O   0  0  0  0  0  0  0  0  0  0  0  0
   41.2930   43.5063    7.2421 C   0  0  0  0  0  0  0  0  0  0  0  0
   41.9992   44.8128    7.0479 N   0  0  0  0  0  0  0  0  0  0  0  0
  1  2  1  1  0  0  0
  1  7  1  0  0  0  0
  1 30  1  0  0  0  0
  3  4  1  6  0  0  0
  3  9  1  0  0  0  0
  3 38  1  0  0  0  0
  5 10  1  0  0  0  0
  5 26  1  6  0  0  0
  5 32  1  0  0  0  0
  6 12  1  0  0  0  0
  6 35  1  0  0  0  0
  6 19  1  1  0  0  0
  7  8  1  1  0  0  0
  7 14  1  0  0  0  0
  8 33  1  0  0  0  0
  9 16  1  0  0  0  0
 10 11  1  1  0  0  0
 10 18  1  0  0  0  0
 12 13  1  1  0  0  0
 12 20  1  0  0  0  0
 14 15  1  6  0  0  0
 14 22  1  0  0  0  0
 16 17  1  6  0  0  0
 16 24  1  0  0  0  0
 18 19  1  1  0  0  0
 18 25  1  0  0  0  0
 20 21  1  6  0  0  0
 20 27  1  0  0  0  0
 22 23  1  1  0  0  0
 22 29  1  0  0  0  0
 24  2  1  1  0  0  0
 24 31  1  0  0  0  0
 25 26  1  1  0  0  0
 25 33  1  0  0  0  0
 27 28  1  1  0  0  0
 27 34  1  0  0  0  0
 29 30  1  0  0  0  0
 29 36  1  6  0  0  0
 31 32  1  6  0  0  0
 31 38  1  0  0  0  0
 34 35  1  0  0  0  0
 34 40  1  1  0  0  0
 36 37  1  0  0  0  0
 38 39  1  1  0  0  0
 40 41  1  0  0  0  0
M  END
>  <CHROM.1>
178.85217599,-170.49564332,-69.59515533,58.60312649,37.28725256,39.58791309
6.44764703,3.09163361,0.22826999,2.49271131

>  <Name>
ligand

>  <RI>
0

>  <Rbt.Current_Directory>
/home/itssahil/PROJECTS/Mol_Feturizer/New_Systems/rnas/1ZZ5

>  <Rbt.Executable>
rbdock ($Id: //depot/dev/client3/rdock/2013.1/src/exe/rbdock.cxx#4 $)

>  <Rbt.Library>
libRbt.so (2013.1, Build901 2013/11/27)

>  <Rbt.Parameter_File>
/export/apps/rDock/src/rDock_2013.1_src/data/scripts/dock_solv.prm

>  <Rbt.Receptor>
prm/pocket_docking_2.prm

>  <SCORE>
-9.83167

>  <SCORE.INTER>
-8.08544

>  <SCORE.INTER.CONST>
1

>  <SCORE.INTER.POLAR>
0

>  <SCORE.INTER.ROT>
4

>  <SCORE.INTER.SOLV>
17.0394

>  <SCORE.INTER.VDW>
-17.3368

>  <SCORE.INTER.norm>
-0.197206

>  <SCORE.INTRA>
-1.74623

>  <SCORE.INTRA.DIHEDRAL>
-4.17998

>  <SCORE.INTRA.DIHEDRAL.0>
5.18357

>  <SCORE.INTRA.POLAR>
0

>  <SCORE.INTRA.POLAR.0>
0

>  <SCORE.INTRA.REPUL>
0

>  <SCORE.INTRA.REPUL.0>
0

>  <SCORE.INTRA.SOLV>
0.0118692

>  <SCORE.INTRA.SOLV.lig_0>
-109.973

>  <SCORE.INTRA.VDW>
0.337826

>  <SCORE.INTRA.VDW.0>
-1.68646

>  <SCORE.INTRA.norm>
-0.042591

>  <SCORE.RESTR>
0

>  <SCORE.RESTR.CAVITY>
0

>  <SCORE.RESTR.norm>
0

>  <SCORE.SYSTEM>
0

>  <SCORE.SYSTEM.CONST>
0

>  <SCORE.SYSTEM.DIHEDRAL>
0

>  <SCORE.SYSTEM.SOLV>
0

>  <SCORE.SYSTEM.norm>
0

>  <SCORE.heavy>
41

>  <SCORE.norm>
-0.239797

>  <RMSD>
1.003

$$$$
ligand
 OpenBabel11021811423D
libRbt.so/2013.1/901 2013/11/27
 41 45  0  0  0  0  0  0  0  0999 V2000
   34.4460   39.1969    4.8686 C   0  0  2  0  0  0  0  0  0  0  0  0
   34.0240   39.2998    6.2426 O   0  0  0  0  0  0  0  0  0  0  0  0
   33.4757   36.5045    9.5295 C   0  0  2  0  0  0  0  0  0  0  0  0
   33.0475   35.2926   10.2746 N   0  0  0  0  0  0  0  0  0  0  0  0
   37.4703   37.4325    7.0684 C   0  0  1  0  0  0  0  0  0  0  0  0
   41.7721   38.9086    6.0839 C   0  0  1  0  0  0  0  0  0  0  0  0
   35.3773   40.3831    4.4773 C   0  0  2  0  0  0  0  0  0  0  0  0
   36.5239   40.5311    5.3786 N   0  0  0  0  0  0  0  0  0  0  0  0
   32.2277   37.1443    8.8430 C   0  0  0  0  0  0  0  0  0  0  0  0
   38.4638   36.8950    6.0130 C   0  0  2  0  0  0  0  0  0  0  0  0
   39.1798   35.7508    6.4893 O   0  0  0  0  0  0  0  0  0  0  0  0
   42.9945   38.7834    7.0900 C   0  0  2  0  0  0  0  0  0  0  0  0
   42.6352   39.0280    8.5203 N   0  0  0  0  0  0  0  0  0  0  0  0
   34.5679   41.7070    4.4270 C   0  0  1  0  0  0  0  0  0  0  0  0
   35.4176   42.7846    4.0424 O   0  0  0  0  0  0  0  0  0  0  0  0
   32.6174   38.4183    8.0385 C   0  0  2  0  0  0  0  0  0  0  0  0
   31.3878   38.9637    7.4332 N   0  0  0  0  0  0  0  0  0  0  0  0
   39.3823   38.0893    5.7029 C   0  0  2  0  0  0  0  0  0  0  0  0
   40.6481   38.0400    6.4742 O   0  0  0  0  0  0  0  0  0  0  0  0
   44.1614   39.7785    6.6498 C   0  0  1  0  0  0  0  0  0  0  0  0
   44.7504   39.3716    5.3950 O   0  0  0  0  0  0  0  0  0  0  0  0
   33.3902   41.5611    3.4358 C   0  0  2  0  0  0  0  0  0  0  0  0
   32.6595   42.7678    3.3717 O   0  0  0  0  0  0  0  0  0  0  0  0
   33.7107   38.0655    6.9687 C   0  0  2  0  0  0  0  0  0  0  0  0
   38.5428   39.3064    6.0807 C   0  0  2  0  0  0  0  0  0  0  0  0
   37.6004   38.8550    7.0431 O   0  0  0  0  0  0  0  0  0  0  0  0
   43.6529   41.2697    6.5109 C   0  0  2  0  0  0  0  0  0  0  0  0
   43.2983   41.7715    7.8105 O   0  0  0  0  0  0  0  0  0  0  0  0
   32.4760   40.3962    3.8649 C   0  0  2  0  0  0  0  0  0  0  0  0
   33.2941   39.1653    3.9372 O   0  0  0  0  0  0  0  0  0  0  0  0
   35.0027   37.4456    7.7028 C   0  0  2  0  0  0  0  0  0  0  0  0
   36.0752   37.0530    6.7491 O   0  0  0  0  0  0  0  0  0  0  0  0
   37.7677   39.9026    4.9148 C   0  0  0  0  0  0  0  0  0  0  0  0
   42.4106   41.3234    5.5321 C   0  0  1  0  0  0  0  0  0  0  0  0
   41.3420   40.3460    5.9321 O   0  0  0  0  0  0  0  0  0  0  0  0
   31.3161   40.2445    2.8533 C   0  0  0  0  0  0  0  0  0  0  0  0
   30.2841   39.2624    3.2338 N   0  0  0  0  0  0  0  0  0  0  0  0
   34.5946   36.1696    8.4696 C   0  0  1  0  0  0  0  0  0  0  0  0
   35.7428   35.6170    9.1215 O   0  0  0  0  0  0  0  0  0  0  0  0
   41.8029   42.7700    5.3730 C   0  0  0  0  0  0  0  0  0  0  0  0
   41.2023   43.3759    6.6041 N   0  0  0  0  0  0  0  0  0  0  0  0
  1  2  1  1  0  0  0
  1  7  1  0  0  0  0
  1 30  1  0  0  0  0
  3  4  1  6  0  0  0
  3  9  1  0  0  0  0
  3 38  1  0  0  0  0
  5 10  1  0  0  0  0
  5 26  1  6  0  0  0
  5 32  1  0  0  0  0
  6 12  1  0  0  0  0
  6 35  1  0  0  0  0
  6 19  1  1  0  0  0
  7  8  1  1  0  0  0
  7 14  1  0  0  0  0
  8 33  1  0  0  0  0
  9 16  1  0  0  0  0
 10 11  1  1  0  0  0
 10 18  1  0  0  0  0
 12 13  1  1  0  0  0
 12 20  1  0  0  0  0
 14 15  1  6  0  0  0
 14 22  1  0  0  0  0
 16 17  1  6  0  0  0
 16 24  1  0  0  0  0
 18 19  1  1  0  0  0
 18 25  1  0  0  0  0
 20 21  1  6  0  0  0
 20 27  1  0  0  0  0
 22 23  1  1  0  0  0
 22 29  1  0  0  0  0
 24  2  1  1  0  0  0
 24 31  1  0  0  0  0
 25 26  1  1  0  0  0
 25 33  1  0  0  0  0
 27 28  1  1  0  0  0
 27 34  1  0  0  0  0
 29 30  1  0  0  0  0
 29 36  1  6  0  0  0
 31 32  1  6  0  0  0
 31 38  1  0  0  0  0
 34 35  1  0  0  0  0
 34 40  1  1  0  0  0
 36 37  1  0  0  0  0
 38 39  1  1  0  0  0
 40 41  1  0  0  0  0
M  END
>  <CHROM.1>
165.66896735,175.98490750,-173.34753617,-64.44748657,37.11524651,39.24979369
6.20102944,3.08532543,0.12312234,2.45851100

>  <Name>
ligand

>  <RI>
0

>  <Rbt.Current_Directory>
/home/itssahil/PROJECTS/Mol_Feturizer/New_Systems/rnas/1ZZ5

>  <Rbt.Executable>
rbdock ($Id: //depot/dev/client3/rdock/2013.1/src/exe/rbdock.cxx#4 $)

>  <Rbt.Library>
libRbt.so (2013.1, Build901 2013/11/27)

>  <Rbt.Parameter_File>
/export/apps/rDock/src/rDock_2013.1_src/data/scripts/dock_solv.prm

>  <Rbt.Receptor>
prm/pocket_docking_2.prm

>  <SCORE>
-10.7666

>  <SCORE.INTER>
-8.91387

>  <SCORE.INTER.CONST>
1

>  <SCORE.INTER.POLAR>
0

>  <SCORE.INTER.ROT>
4

>  <SCORE.INTER.SOLV>
18.8017

>  <SCORE.INTER.VDW>
-18.4765

>  <SCORE.INTER.norm>
-0.217411

>  <SCORE.INTRA>
-1.85499

>  <SCORE.INTRA.DIHEDRAL>
-3.68097

>  <SCORE.INTRA.DIHEDRAL.0>
5.18357

>  <SCORE.INTRA.POLAR>
0

>  <SCORE.INTRA.POLAR.0>
0

>  <SCORE.INTRA.REPUL>
0

>  <SCORE.INTRA.REPUL.0>
0

>  <SCORE.INTRA.SOLV>
0.0925146

>  <SCORE.INTRA.SOLV.lig_0>
-109.973

>  <SCORE.INTRA.VDW>
-0.0607624

>  <SCORE.INTRA.VDW.0>
-1.68646

>  <SCORE.INTRA.norm>
-0.0452436

>  <SCORE.RESTR>
0.00226079

>  <SCORE.RESTR.CAVITY>
0.00226079

>  <SCORE.RESTR.norm>
5.51413e-05

>  <SCORE.SYSTEM>
0

>  <SCORE.SYSTEM.CONST>
0

>  <SCORE.SYSTEM.DIHEDRAL>
0

>  <SCORE.SYSTEM.SOLV>
0

>  <SCORE.SYSTEM.norm>
0

>  <SCORE.heavy>
41

>  <SCORE.norm>
-0.2626

>  <RMSD>
1.004

$$$$
ligand
 OpenBabel11021811423D
libRbt.so/2013.1/901 2013/11/27
 41 45  0  0  0  0  0  0  0  0999 V2000
   34.3973   39.1513    5.1717 C   0  0  2  0  0  0  0  0  0  0  0  0
   33.9993   39.2472    6.5534 O   0  0  0  0  0  0  0  0  0  0  0  0
   33.4861   36.4317    9.8286 C   0  0  2  0  0  0  0  0  0  0  0  0
   33.0617   35.2174   10.5720 N   0  0  0  0  0  0  0  0  0  0  0  0
   37.4452   37.3490    7.3070 C   0  0  1  0  0  0  0  0  0  0  0  0
   41.7115   38.8603    6.3152 C   0  0  1  0  0  0  0  0  0  0  0  0
   35.3305   40.3337    4.7733 C   0  0  2  0  0  0  0  0  0  0  0  0
   36.4933   40.4667    5.6561 N   0  0  0  0  0  0  0  0  0  0  0  0
   32.2314   37.0855    9.1681 C   0  0  0  0  0  0  0  0  0  0  0  0
   38.4168   36.8122    6.2311 C   0  0  2  0  0  0  0  0  0  0  0  0
   39.1324   35.6594    6.6869 O   0  0  0  0  0  0  0  0  0  0  0  0
   43.0482   38.5169    7.1009 C   0  0  2  0  0  0  0  0  0  0  0  0
   42.8853   38.4582    8.5858 N   0  0  0  0  0  0  0  0  0  0  0  0
   34.5301   41.6638    4.7463 C   0  0  1  0  0  0  0  0  0  0  0  0
   35.3811   42.7380    4.3553 O   0  0  0  0  0  0  0  0  0  0  0  0
   32.6168   38.3626    8.3664 C   0  0  2  0  0  0  0  0  0  0  0  0
   31.3812   38.9213    7.7860 N   0  0  0  0  0  0  0  0  0  0  0  0
   39.3387   38.0020    5.9141 C   0  0  2  0  0  0  0  0  0  0  0  0
   40.6169   37.9379    6.6635 O   0  0  0  0  0  0  0  0  0  0  0  0
   44.1833   39.5731    6.7246 C   0  0  1  0  0  0  0  0  0  0  0  0
   44.5906   39.4344    5.3456 O   0  0  0  0  0  0  0  0  0  0  0  0
   33.3348   41.5337    3.7742 C   0  0  2  0  0  0  0  0  0  0  0  0
   32.6120   42.7460    3.7313 O   0  0  0  0  0  0  0  0  0  0  0  0
   33.6893   38.0099    7.2757 C   0  0  2  0  0  0  0  0  0  0  0  0
   38.5146   39.2224    6.3149 C   0  0  2  0  0  0  0  0  0  0  0  0
   37.5854   38.7707    7.2899 O   0  0  0  0  0  0  0  0  0  0  0  0
   43.7147   41.0641    6.9671 C   0  0  2  0  0  0  0  0  0  0  0  0
   43.5488   41.2843    8.3779 O   0  0  0  0  0  0  0  0  0  0  0  0
   32.4195   40.3723    4.2102 C   0  0  2  0  0  0  0  0  0  0  0  0
   33.2296   39.1350    4.2597 O   0  0  0  0  0  0  0  0  0  0  0  0
   34.9889   37.3752    7.9832 C   0  0  2  0  0  0  0  0  0  0  0  0
   36.0422   36.9819    7.0087 O   0  0  0  0  0  0  0  0  0  0  0  0
   37.7244   39.8327    5.1667 C   0  0  0  0  0  0  0  0  0  0  0  0
   42.3592   41.3320    6.1957 C   0  0  1  0  0  0  0  0  0  0  0  0
   41.3169   40.3009    6.5235 O   0  0  0  0  0  0  0  0  0  0  0  0
   31.2416   40.2364    3.2173 C   0  0  0  0  0  0  0  0  0  0  0  0
   31.6174   39.7827    1.8656 N   0  0  0  0  0  0  0  0  0  0  0  0
   34.5845   36.0965    8.7475 C   0  0  1  0  0  0  0  0  0  0  0  0
   35.7394   35.5308    9.3758 O   0  0  0  0  0  0  0  0  0  0  0  0
   41.7881   42.7845    6.4226 C   0  0  0  0  0  0  0  0  0  0  0  0
   42.6835   43.9183    6.0274 N   0  0  0  0  0  0  0  0  0  0  0  0
  1  2  1  1  0  0  0
  1  7  1  0  0  0  0
  1 30  1  0  0  0  0
  3  4  1  6  0  0  0
  3  9  1  0  0  0  0
  3 38  1  0  0  0  0
  5 10  1  0  0  0  0
  5 26  1  6  0  0  0
  5 32  1  0  0  0  0
  6 12  1  0  0  0  0
  6 35  1  0  0  0  0
  6 19  1  1  0  0  0
  7  8  1  1  0  0  0
  7 14  1  0  0  0  0
  8 33  1  0  0  0  0
  9 16  1  0  0  0  0
 10 11  1  1  0  0  0
 10 18  1  0  0  0  0
 12 13  1  1  0  0  0
 12 20  1  0  0  0  0
 14 15  1  6  0  0  0
 14 22  1  0  0  0  0
 16 17  1  6  0  0  0
 16 24  1  0  0  0  0
 18 19  1  1  0  0  0
 18 25  1  0  0  0  0
 20 21  1  6  0  0  0
 20 27  1  0  0  0  0
 22 23  1  1  0  0  0
 22 29  1  0  0  0  0
 24  2  1  1  0  0  0
 24 31  1  0  0  0  0
 25 26  1  1  0  0  0
 25 33  1  0  0  0  0
 27 28  1  1  0  0  0
 27 34  1  0  0  0  0
 29 30  1  0  0  0  0
 29 36  1  6  0  0  0
 31 32  1  6  0  0  0
 31 38  1  0  0  0  0
 34 35  1  0  0  0  0
 34 40  1  1  0  0  0
 36 37  1  0  0  0  0
 38 39  1  1  0  0  0
 40 41  1  0  0  0  0
M  END
>  <CHROM.1>
169.49496007,-172.87486283,67.93519789,58.46736590,37.17012515,39.18987881
6.44663503,3.09366817,0.12495280,2.44785699

>  <Name>
ligand

>  <RI>
0

>  <Rbt.Current_Directory>
/home/itssahil/PROJECTS/Mol_Feturizer/New_Systems/rnas/1ZZ5

>  <Rbt.Executable>
rbdock ($Id: //depot/dev/client3/rdock/2013.1/src/exe/rbdock.cxx#4 $)

>  <Rbt.Library>
libRbt.so (2013.1, Build901 2013/11/27)

>  <Rbt.Parameter_File>
/export/apps/rDock/src/rDock_2013.1_src/data/scripts/dock_solv.prm

>  <Rbt.Receptor>
prm/pocket_docking_2.prm

>  <SCORE>
-8.3333

>  <SCORE.INTER>
-6.49275

>  <SCORE.INTER.CONST>
1

>  <SCORE.INTER.POLAR>
0

>  <SCORE.INTER.ROT>
4

>  <SCORE.INTER.SOLV>
20.7087

>  <SCORE.INTER.VDW>
-17.4981

>  <SCORE.INTER.norm>
-0.15836

>  <SCORE.INTRA>
-1.84157

>  <SCORE.INTRA.DIHEDRAL>
-3.94714

>  <SCORE.INTRA.DIHEDRAL.0>
5.18357

>  <SCORE.INTRA.POLAR>
0

>  <SCORE.INTRA.POLAR.0>
0

>  <SCORE.INTRA.REPUL>
0

>  <SCORE.INTRA.REPUL.0>
0

>  <SCORE.INTRA.SOLV>
0.12905

>  <SCORE.INTRA.SOLV.lig_0>
-109.973

>  <SCORE.INTRA.VDW>
0.0674803

>  <SCORE.INTRA.VDW.0>
-1.68646

>  <SCORE.INTRA.norm>
-0.0449162

>  <SCORE.RESTR>
0.0010178

>  <SCORE.RESTR.CAVITY>
0.0010178

>  <SCORE.RESTR.norm>
2.48244e-05

>  <SCORE.SYSTEM>
0

>  <SCORE.SYSTEM.CONST>
0

>  <SCORE.SYSTEM.DIHEDRAL>
0

>  <SCORE.SYSTEM.SOLV>
0

>  <SCORE.SYSTEM.norm>
0

>  <SCORE.heavy>
41

>  <SCORE.norm>
-0.203251

>  <RMSD>
1.004

$$$$
ligand
 OpenBabel11021811423D
libRbt.so/2013.1/901 2013/11/27
 41 45  0  0  0  0  0  0  0  0999 V2000
   34.4493   39.2062    4.8850 C   0  0  2  0  0  0  0  0  0  0  0  0
   34.0316   39.3019    6.2608 O   0  0  0  0  0  0  0  0  0  0  0  0
   33.4912   36.4890    9.5340 C   0  0  2  0  0  0  0  0  0  0  0  0
   33.0644   35.2734   10.2737 N   0  0  0  0  0  0  0  0  0  0  0  0
   37.4790   37.4276    7.0658 C   0  0  1  0  0  0  0  0  0  0  0  0
   41.7626   38.9386    6.1055 C   0  0  1  0  0  0  0  0  0  0  0  0
   35.3803   40.3939    4.4973 C   0  0  2  0  0  0  0  0  0  0  0  0
   36.5298   40.5360    5.3959 N   0  0  0  0  0  0  0  0  0  0  0  0
   32.2416   37.1335    8.8548 C   0  0  0  0  0  0  0  0  0  0  0  0
   38.4689   36.8951    6.0045 C   0  0  2  0  0  0  0  0  0  0  0  0
   39.1855   35.7478    6.4723 O   0  0  0  0  0  0  0  0  0  0  0  0
   42.9964   38.7859    7.0937 C   0  0  2  0  0  0  0  0  0  0  0  0
   42.6472   38.9589    8.5370 N   0  0  0  0  0  0  0  0  0  0  0  0
   34.5718   41.7186    4.4567 C   0  0  1  0  0  0  0  0  0  0  0  0
   35.4211   42.7976    4.0755 O   0  0  0  0  0  0  0  0  0  0  0  0
   32.6298   38.4116    8.0562 C   0  0  2  0  0  0  0  0  0  0  0  0
   31.3988   38.9612    7.4576 N   0  0  0  0  0  0  0  0  0  0  0  0
   39.3873   38.0904    5.6981 C   0  0  2  0  0  0  0  0  0  0  0  0
   40.6554   38.0360    6.4652 O   0  0  0  0  0  0  0  0  0  0  0  0
   44.1442   39.8178    6.6895 C   0  0  1  0  0  0  0  0  0  0  0  0
   44.7269   39.4781    5.4121 O   0  0  0  0  0  0  0  0  0  0  0  0
   33.3909   41.5790    3.4684 C   0  0  2  0  0  0  0  0  0  0  0  0
   32.6609   42.7865    3.4131 O   0  0  0  0  0  0  0  0  0  0  0  0
   33.7196   38.0639    6.9811 C   0  0  2  0  0  0  0  0  0  0  0  0
   38.5499   39.3061    6.0851 C   0  0  2  0  0  0  0  0  0  0  0  0
   37.6101   38.8501    7.0479 O   0  0  0  0  0  0  0  0  0  0  0  0
   43.6124   41.3059    6.6242 C   0  0  2  0  0  0  0  0  0  0  0  0
   43.2628   41.7419    7.9486 O   0  0  0  0  0  0  0  0  0  0  0  0
   32.4772   40.4124    3.8939 C   0  0  2  0  0  0  0  0  0  0  0  0
   33.2946   39.1806    3.9569 O   0  0  0  0  0  0  0  0  0  0  0  0
   35.0134   37.4390    7.7078 C   0  0  2  0  0  0  0  0  0  0  0  0
   36.0827   37.0508    6.7487 O   0  0  0  0  0  0  0  0  0  0  0  0
   37.7717   39.9092    4.9249 C   0  0  0  0  0  0  0  0  0  0  0  0
   42.3600   41.3857    5.6600 C   0  0  1  0  0  0  0  0  0  0  0  0
   41.3098   40.3748    6.0241 O   0  0  0  0  0  0  0  0  0  0  0  0
   31.3141   40.2671    2.8850 C   0  0  0  0  0  0  0  0  0  0  0  0
   30.3129   39.2424    3.2341 N   0  0  0  0  0  0  0  0  0  0  0  0
   34.6066   36.1591    8.4689 C   0  0  1  0  0  0  0  0  0  0  0  0
   35.7564   35.6021    9.1142 O   0  0  0  0  0  0  0  0  0  0  0  0
   41.7294   42.8287    5.5733 C   0  0  0  0  0  0  0  0  0  0  0  0
   41.1429   43.3731    6.8394 N   0  0  0  0  0  0  0  0  0  0  0  0
  1  2  1  1  0  0  0
  1  7  1  0  0  0  0
  1 30  1  0  0  0  0
  3  4  1  6  0  0  0
  3  9  1  0  0  0  0
  3 38  1  0  0  0  0
  5 10  1  0  0  0  0
  5 26  1  6  0  0  0
  5 32  1  0  0  0  0
  6 12  1  0  0  0  0
  6 35  1  0  0  0  0
  6 19  1  1  0  0  0
  7  8  1  1  0  0  0
  7 14  1  0  0  0  0
  8 33  1  0  0  0  0
  9 16  1  0  0  0  0
 10 11  1  1  0  0  0
 10 18  1  0  0  0  0
 12 13  1  1  0  0  0
 12 20  1  0  0  0  0
 14 15  1  6  0  0  0
 14 22  1  0  0  0  0
 16 17  1  6  0  0  0
 16 24  1  0  0  0  0
 18 19  1  1  0  0  0
 18 25  1  0  0  0  0
 20 21  1  6  0  0  0
 20 27  1  0  0  0  0
 22 23  1  1  0  0  0
 22 29  1  0  0  0  0
 24  2  1  1  0  0  0
 24 31  1  0  0  0  0
 25 26  1  1  0  0  0
 25 33  1  0  0  0  0
 27 28  1  1  0  0  0
 27 34  1  0  0  0  0
 29 30  1  0  0  0  0
 29 36  1  6  0  0  0
 31 32  1  6  0  0  0
 31 38  1  0  0  0  0
 34 35  1  0  0  0  0
 34 40  1  1  0  0  0
 36 37  1  0  0  0  0
 38 39  1  1  0  0  0
 40 41  1  0  0  0  0
M  END
>  <CHROM.1>
167.76117789,176.69980747,-175.87748356,-63.91477903,37.11286041,39.25679300
6.23375703,3.08817731,0.12908479,2.46764473

>  <Name>
ligand

>  <RI>
0

>  <Rbt.Current_Directory>
/home/itssahil/PROJECTS/Mol_Feturizer/New_Systems/rnas/1ZZ5

>  <Rbt.Executable>
rbdock ($Id: //depot/dev/client3/rdock/2013.1/src/exe/rbdock.cxx#4 $)

>  <Rbt.Library>
libRbt.so (2013.1, Build901 2013/11/27)

>  <Rbt.Parameter_File>
/export/apps/rDock/src/rDock_2013.1_src/data/scripts/dock_solv.prm

>  <Rbt.Receptor>
prm/pocket_docking_2.prm

>  <SCORE>
-10.7352

>  <SCORE.INTER>
-8.73475

>  <SCORE.INTER.CONST>
1

>  <SCORE.INTER.POLAR>
0

>  <SCORE.INTER.ROT>
4

>  <SCORE.INTER.SOLV>
18.6106

>  <SCORE.INTER.VDW>
-18.2934

>  <SCORE.INTER.norm>
-0.213043

>  <SCORE.INTRA>
-2.00442

>  <SCORE.INTRA.DIHEDRAL>
-4.06893

>  <SCORE.INTRA.DIHEDRAL.0>
5.18357

>  <SCORE.INTRA.POLAR>
0

>  <SCORE.INTRA.POLAR.0>
0

>  <SCORE.INTRA.REPUL>
0

>  <SCORE.INTRA.REPUL.0>
0

>  <SCORE.INTRA.SOLV>
0.0955967

>  <SCORE.INTRA.SOLV.lig_0>
-109.973

>  <SCORE.INTRA.VDW>
-0.0177501

>  <SCORE.INTRA.VDW.0>
-1.68646

>  <SCORE.INTRA.norm>
-0.0488883

>  <SCORE.RESTR>
0.0039448

>  <SCORE.RESTR.CAVITY>
0.0039448

>  <SCORE.RESTR.norm>
9.62146e-05

>  <SCORE.SYSTEM>
0

>  <SCORE.SYSTEM.CONST>
0

>  <SCORE.SYSTEM.DIHEDRAL>
0

>  <SCORE.SYSTEM.SOLV>
0

>  <SCORE.SYSTEM.norm>
0

>  <SCORE.heavy>
41

>  <SCORE.norm>
-0.261835

>  <RMSD>
1.005

$$$$
ligand
 OpenBabel11021811423D
libRbt.so/2013.1/901 2013/11/27
 41 45  0  0  0  0  0  0  0  0999 V2000
   34.4368   39.2025    4.8869 C   0  0  2  0  0  0  0  0  0  0  0  0
   34.0244   39.3005    6.2641 O   0  0  0  0  0  0  0  0  0  0  0  0
   33.5038   36.4940    9.5460 C   0  0  2  0  0  0  0  0  0  0  0  0
   33.0828   35.2791   10.2903 N   0  0  0  0  0  0  0  0  0  0  0  0
   37.4794   37.4360    7.0595 C   0  0  1  0  0  0  0  0  0  0  0  0
   41.7613   38.9433    6.0680 C   0  0  1  0  0  0  0  0  0  0  0  0
   35.3635   40.3914    4.4926 C   0  0  2  0  0  0  0  0  0  0  0  0
   36.5163   40.5383    5.3863 N   0  0  0  0  0  0  0  0  0  0  0  0
   32.2500   37.1340    8.8705 C   0  0  0  0  0  0  0  0  0  0  0  0
   38.4662   36.9033    5.9955 C   0  0  2  0  0  0  0  0  0  0  0  0
   39.1873   35.7588    6.4630 O   0  0  0  0  0  0  0  0  0  0  0  0
   42.9995   38.7971    7.0517 C   0  0  2  0  0  0  0  0  0  0  0  0
   42.6587   38.9896    8.4945 N   0  0  0  0  0  0  0  0  0  0  0  0
   34.5517   41.7142    4.4523 C   0  0  1  0  0  0  0  0  0  0  0  0
   35.3970   42.7943    4.0651 O   0  0  0  0  0  0  0  0  0  0  0  0
   32.6320   38.4111    8.0672 C   0  0  2  0  0  0  0  0  0  0  0  0
   31.3973   38.9565    7.4724 N   0  0  0  0  0  0  0  0  0  0  0  0
   39.3806   38.0999    5.6826 C   0  0  2  0  0  0  0  0  0  0  0  0
   40.6519   38.0502    6.4447 O   0  0  0  0  0  0  0  0  0  0  0  0
   44.1498   39.8187    6.6288 C   0  0  1  0  0  0  0  0  0  0  0  0
   44.7244   39.4606    5.3527 O   0  0  0  0  0  0  0  0  0  0  0  0
   33.3672   41.5695    3.4690 C   0  0  2  0  0  0  0  0  0  0  0  0
   32.6342   42.7753    3.4139 O   0  0  0  0  0  0  0  0  0  0  0  0
   33.7182   38.0634    6.9886 C   0  0  2  0  0  0  0  0  0  0  0  0
   38.5419   39.3146    6.0701 C   0  0  2  0  0  0  0  0  0  0  0  0
   37.6072   38.8587    7.0378 O   0  0  0  0  0  0  0  0  0  0  0  0
   43.6245   41.3083    6.5478 C   0  0  2  0  0  0  0  0  0  0  0  0
   43.2838   41.7622    7.8685 O   0  0  0  0  0  0  0  0  0  0  0  0
   32.4579   40.4019    3.9009 C   0  0  2  0  0  0  0  0  0  0  0  0
   33.2784   39.1721    3.9636 O   0  0  0  0  0  0  0  0  0  0  0  0
   35.0164   37.4432    7.7115 C   0  0  2  0  0  0  0  0  0  0  0  0
   36.0827   37.0552    6.7490 O   0  0  0  0  0  0  0  0  0  0  0  0
   37.7577   39.9132    4.9117 C   0  0  0  0  0  0  0  0  0  0  0  0
   42.3674   41.3819    5.5892 C   0  0  1  0  0  0  0  0  0  0  0  0
   41.3146   40.3804    5.9712 O   0  0  0  0  0  0  0  0  0  0  0  0
   31.2911   40.2515    2.8971 C   0  0  0  0  0  0  0  0  0  0  0  0
   30.2920   39.2276    3.2543 N   0  0  0  0  0  0  0  0  0  0  0  0
   34.6157   36.1641    8.4772 C   0  0  1  0  0  0  0  0  0  0  0  0
   35.7693   35.6113    9.1191 O   0  0  0  0  0  0  0  0  0  0  0  0
   41.7430   42.8266    5.4879 C   0  0  0  0  0  0  0  0  0  0  0  0
   41.1881   43.3994    6.7557 N   0  0  0  0  0  0  0  0  0  0  0  0
  1  2  1  1  0  0  0
  1  7  1  0  0  0  0
  1 30  1  0  0  0  0
  3  4  1  6  0  0  0
  3  9  1  0  0  0  0
  3 38  1  0  0  0  0
  5 10  1  0  0  0  0
  5 26  1  6  0  0  0
  5 32  1  0  0  0  0
  6 12  1  0  0  0  0
  6 35  1  0  0  0  0
  6 19  1  1  0  0  0
  7  8  1  1  0  0  0
  7 14  1  0  0  0  0
  8 33  1  0  0  0  0
  9 16  1  0  0  0  0
 10 11  1  1  0  0  0
 10 18  1  0  0  0  0
 12 13  1  1  0  0  0
 12 20  1  0  0  0  0
 14 15  1  6  0  0  0
 14 22  1  0  0  0  0
 16 17  1  6  0  0  0
 16 24  1  0  0  0  0
 18 19  1  1  0  0  0
 18 25  1  0  0  0  0
 20 21  1  6  0  0  0
 20 27  1  0  0  0  0
 22 23  1  1  0  0  0
 22 29  1  0  0  0  0
 24  2  1  1  0  0  0
 24 31  1  0  0  0  0
 25 26  1  1  0  0  0
 25 33  1  0  0  0  0
 27 28  1  1  0  0  0
 27 34  1  0  0  0  0
 29 30  1  0  0  0  0
 29 36  1  6  0  0  0
 31 32  1  6  0  0  0
 31 38  1  0  0  0  0
 34 35  1  0  0  0  0
 34 40  1  1  0  0  0
 36 37  1  0  0  0  0
 38 39  1  1  0  0  0
 40 41  1  0  0  0  0
M  END
>  <CHROM.1>
167.03057758,176.76623858,-175.73765694,-62.83225651,37.11098905,39.25917838
6.21721872,3.08256471,0.12465446,2.46486470

>  <Name>
ligand

>  <RI>
0

>  <Rbt.Current_Directory>
/home/itssahil/PROJECTS/Mol_Feturizer/New_Systems/rnas/1ZZ5

>  <Rbt.Executable>
rbdock ($Id: //depot/dev/client3/rdock/2013.1/src/exe/rbdock.cxx#4 $)

>  <Rbt.Library>
libRbt.so (2013.1, Build901 2013/11/27)

>  <Rbt.Parameter_File>
/export/apps/rDock/src/rDock_2013.1_src/data/scripts/dock_solv.prm

>  <Rbt.Receptor>
prm/pocket_docking_2.prm

>  <SCORE>
-10.7588

>  <SCORE.INTER>
-8.78007

>  <SCORE.INTER.CONST>
1

>  <SCORE.INTER.POLAR>
0

>  <SCORE.INTER.ROT>
4

>  <SCORE.INTER.SOLV>
18.6206

>  <SCORE.INTER.VDW>
-18.3269

>  <SCORE.INTER.norm>
-0.214148

>  <SCORE.INTRA>
-1.9795

>  <SCORE.INTRA.DIHEDRAL>
-4.01099

>  <SCORE.INTRA.DIHEDRAL.0>
5.18357

>  <SCORE.INTRA.POLAR>
0

>  <SCORE.INTRA.POLAR.0>
0

>  <SCORE.INTRA.REPUL>
0

>  <SCORE.INTRA.REPUL.0>
0

>  <SCORE.INTRA.SOLV>
0.0962426

>  <SCORE.INTRA.SOLV.lig_0>
-109.973

>  <SCORE.INTRA.VDW>
-0.022127

>  <SCORE.INTRA.VDW.0>
-1.68646

>  <SCORE.INTRA.norm>
-0.0482805

>  <SCORE.RESTR>
0.000736379

>  <SCORE.RESTR.CAVITY>
0.000736379

>  <SCORE.RESTR.norm>
1.79605e-05

>  <SCORE.SYSTEM>
0

>  <SCORE.SYSTEM.CONST>
0

>  <SCORE.SYSTEM.DIHEDRAL>
0

>  <SCORE.SYSTEM.SOLV>
0

>  <SCORE.SYSTEM.norm>
0

>  <SCORE.heavy>
41

>  <SCORE.norm>
-0.262411

>  <RMSD>
1.006

$$$$
ligand
 OpenBabel11021811423D
libRbt.so/2013.1/901 2013/11/27
 41 45  0  0  0  0  0  0  0  0999 V2000
   34.4437   39.1801    4.8792 C   0  0  2  0  0  0  0  0  0  0  0  0
   34.0303   39.2827    6.2559 O   0  0  0  0  0  0  0  0  0  0  0  0
   33.5137   36.4882    9.5485 C   0  0  2  0  0  0  0  0  0  0  0  0
   33.0948   35.2753   10.2974 N   0  0  0  0  0  0  0  0  0  0  0  0
   37.4887   37.4288    7.0607 C   0  0  1  0  0  0  0  0  0  0  0  0
   41.7649   38.9474    6.0713 C   0  0  1  0  0  0  0  0  0  0  0  0
   35.3681   40.3695    4.4809 C   0  0  2  0  0  0  0  0  0  0  0  0
   36.5200   40.5224    5.3746 N   0  0  0  0  0  0  0  0  0  0  0  0
   32.2588   37.1227    8.8697 C   0  0  0  0  0  0  0  0  0  0  0  0
   38.4773   36.8940    5.9994 C   0  0  2  0  0  0  0  0  0  0  0  0
   39.2006   35.7529    6.4719 O   0  0  0  0  0  0  0  0  0  0  0  0
   43.0196   38.7754    7.0296 C   0  0  2  0  0  0  0  0  0  0  0  0
   42.7041   38.9334    8.4823 N   0  0  0  0  0  0  0  0  0  0  0  0
   34.5535   41.6903    4.4348 C   0  0  1  0  0  0  0  0  0  0  0  0
   35.3967   42.7707    4.0438 O   0  0  0  0  0  0  0  0  0  0  0  0
   32.6386   38.3975    8.0616 C   0  0  2  0  0  0  0  0  0  0  0  0
   31.4031   38.9379    7.4639 N   0  0  0  0  0  0  0  0  0  0  0  0
   39.3894   38.0914    5.6823 C   0  0  2  0  0  0  0  0  0  0  0  0
   40.6603   38.0474    6.4454 O   0  0  0  0  0  0  0  0  0  0  0  0
   44.1646   39.8049    6.6118 C   0  0  1  0  0  0  0  0  0  0  0  0
   44.7164   39.4767    5.3176 O   0  0  0  0  0  0  0  0  0  0  0  0
   33.3699   41.5392    3.4514 C   0  0  2  0  0  0  0  0  0  0  0  0
   32.6344   42.7432    3.3911 O   0  0  0  0  0  0  0  0  0  0  0  0
   33.7263   38.0479    6.9850 C   0  0  2  0  0  0  0  0  0  0  0  0
   38.5478   39.3057    6.0645 C   0  0  2  0  0  0  0  0  0  0  0  0
   37.6135   38.8517    7.0335 O   0  0  0  0  0  0  0  0  0  0  0  0
   43.6411   41.2969    6.5758 C   0  0  2  0  0  0  0  0  0  0  0  0
   43.3242   41.7193    7.9128 O   0  0  0  0  0  0  0  0  0  0  0  0
   32.4628   40.3714    3.8873 C   0  0  2  0  0  0  0  0  0  0  0  0
   33.2859   39.1436    3.9554 O   0  0  0  0  0  0  0  0  0  0  0  0
   35.0253   37.4333    7.7112 C   0  0  2  0  0  0  0  0  0  0  0  0
   36.0930   37.0438    6.7508 O   0  0  0  0  0  0  0  0  0  0  0  0
   37.7630   39.8981    4.9032 C   0  0  0  0  0  0  0  0  0  0  0  0
   42.3679   41.3958    5.6412 C   0  0  1  0  0  0  0  0  0  0  0  0
   41.3197   40.3872    6.0169 O   0  0  0  0  0  0  0  0  0  0  0  0
   31.2970   40.2145    2.8834 C   0  0  0  0  0  0  0  0  0  0  0  0
   30.3237   39.1596    3.2212 N   0  0  0  0  0  0  0  0  0  0  0  0
   34.6269   36.1564    8.4817 C   0  0  1  0  0  0  0  0  0  0  0  0
   35.7813   35.6086    9.1265 O   0  0  0  0  0  0  0  0  0  0  0  0
   41.7449   42.8436    5.5856 C   0  0  0  0  0  0  0  0  0  0  0  0
   41.2299   43.3939    6.8799 N   0  0  0  0  0  0  0  0  0  0  0  0
  1  2  1  1  0  0  0
  1  7  1  0  0  0  0
  1 30  1  0  0  0  0
  3  4  1  6  0  0  0
  3  9  1  0  0  0  0
  3 38  1  0  0  0  0
  5 10  1  0  0  0  0
  5 26  1  6  0  0  0
  5 32  1  0  0  0  0
  6 12  1  0  0  0  0
  6 35  1  0  0  0  0
  6 19  1  1  0  0  0
  7  8  1  1  0  0  0
  7 14  1  0  0  0  0
  8 33  1  0  0  0  0
  9 16  1  0  0  0  0
 10 11  1  1  0  0  0
 10 18  1  0  0  0  0
 12 13  1  1  0  0  0
 12 20  1  0  0  0  0
 14 15  1  6  0  0  0
 14 22  1  0  0  0  0
 16 17  1  6  0  0  0
 16 24  1  0  0  0  0
 18 19  1  1  0  0  0
 18 25  1  0  0  0  0
 20 21  1  6  0  0  0
 20 27  1  0  0  0  0
 22 23  1  1  0  0  0
 22 29  1  0  0  0  0
 24  2  1  1  0  0  0
 24 31  1  0  0  0  0
 25 26  1  1  0  0  0
 25 33  1  0  0  0  0
 27 28  1  1  0  0  0
 27 34  1  0  0  0  0
 29 30  1  0  0  0  0
 29 36  1  6  0  0  0
 31 32  1  6  0  0  0
 31 38  1  0  0  0  0
 34 35  1  0  0  0  0
 34 40  1  1  0  0  0
 36 37  1  0  0  0  0
 38 39  1  1  0  0  0
 40 41  1  0  0  0  0
M  END
>  <CHROM.1>
167.42034770,178.46673730,-177.65731968,-62.03676057,37.12121904,39.24431650
6.22025112,3.08463494,0.12865822,2.46207144

>  <Name>
ligand

>  <RI>
0

>  <Rbt.Current_Directory>
/home/itssahil/PROJECTS/Mol_Feturizer/New_Systems/rnas/1ZZ5

>  <Rbt.Executable>
rbdock ($Id: //depot/dev/client3/rdock/2013.1/src/exe/rbdock.cxx#4 $)

>  <Rbt.Library>
libRbt.so (2013.1, Build901 2013/11/27)

>  <Rbt.Parameter_File>
/export/apps/rDock/src/rDock_2013.1_src/data/scripts/dock_solv.prm

>  <Rbt.Receptor>
prm/pocket_docking_2.prm

>  <SCORE>
-10.759

>  <SCORE.INTER>
-8.70981

>  <SCORE.INTER.CONST>
1

>  <SCORE.INTER.POLAR>
0

>  <SCORE.INTER.ROT>
4

>  <SCORE.INTER.SOLV>
18.7504

>  <SCORE.INTER.VDW>
-18.3233

>  <SCORE.INTER.norm>
-0.212434

>  <SCORE.INTRA>
-2.05579

>  <SCORE.INTRA.DIHEDRAL>
-4.15551

>  <SCORE.INTRA.DIHEDRAL.0>
5.18357

>  <SCORE.INTRA.POLAR>
0

>  <SCORE.INTRA.POLAR.0>
0

>  <SCORE.INTRA.REPUL>
0

>  <SCORE.INTRA.REPUL.0>
0

>  <SCORE.INTRA.SOLV>
0.0837659

>  <SCORE.INTRA.SOLV.lig_0>
-109.973

>  <SCORE.INTRA.VDW>
-0.0199171

>  <SCORE.INTRA.VDW.0>
-1.68646

>  <SCORE.INTRA.norm>
-0.0501412

>  <SCORE.RESTR>
0.00655141

>  <SCORE.RESTR.CAVITY>
0.00655141

>  <SCORE.RESTR.norm>
0.00015979

>  <SCORE.SYSTEM>
0

>  <SCORE.SYSTEM.CONST>
0

>  <SCORE.SYSTEM.DIHEDRAL>
0

>  <SCORE.SYSTEM.SOLV>
0

>  <SCORE.SYSTEM.norm>
0

>  <SCORE.heavy>
41

>  <SCORE.norm>
-0.262416

>  <RMSD>
1.006

$$$$
ligand
 OpenBabel11021811423D
libRbt.so/2013.1/901 2013/11/27
 41 45  0  0  0  0  0  0  0  0999 V2000
   34.5111   38.9689    5.0012 C   0  0  2  0  0  0  0  0  0  0  0  0
   34.0628   39.1367    6.3604 O   0  0  0  0  0  0  0  0  0  0  0  0
   33.4418   36.4988    9.7624 C   0  0  2  0  0  0  0  0  0  0  0  0
   32.9953   35.3238   10.5545 N   0  0  0  0  0  0  0  0  0  0  0  0
   37.4864   37.3020    7.3394 C   0  0  1  0  0  0  0  0  0  0  0  0
   41.8013   38.7411    6.3876 C   0  0  1  0  0  0  0  0  0  0  0  0
   35.4536   40.1335    4.5734 C   0  0  2  0  0  0  0  0  0  0  0  0
   36.5831   40.3206    5.4891 N   0  0  0  0  0  0  0  0  0  0  0  0
   32.2094   37.1087    9.0226 C   0  0  0  0  0  0  0  0  0  0  0  0
   38.4985   36.7136    6.3299 C   0  0  2  0  0  0  0  0  0  0  0  0
   39.2014   35.5912    6.8728 O   0  0  0  0  0  0  0  0  0  0  0  0
   42.9854   38.6905    7.4448 C   0  0  2  0  0  0  0  0  0  0  0  0
   42.5666   39.0026    8.8455 N   0  0  0  0  0  0  0  0  0  0  0  0
   34.6497   41.4555    4.4458 C   0  0  1  0  0  0  0  0  0  0  0  0
   35.5101   42.5120    4.0282 O   0  0  0  0  0  0  0  0  0  0  0  0
   32.6187   38.3430    8.1675 C   0  0  2  0  0  0  0  0  0  0  0  0
   31.4029   38.8625    7.5136 N   0  0  0  0  0  0  0  0  0  0  0  0
   39.4267   37.8900    5.9825 C   0  0  2  0  0  0  0  0  0  0  0  0
   40.6771   37.8737    6.7799 O   0  0  0  0  0  0  0  0  0  0  0  0
   44.1525   39.6823    6.9977 C   0  0  1  0  0  0  0  0  0  0  0  0
   44.7964   39.2214    5.7894 O   0  0  0  0  0  0  0  0  0  0  0  0
   33.4910   41.2662    3.4396 C   0  0  2  0  0  0  0  0  0  0  0  0
   32.7655   42.4703    3.3052 O   0  0  0  0  0  0  0  0  0  0  0  0
   33.7315   37.9383    7.1369 C   0  0  2  0  0  0  0  0  0  0  0  0
   38.5839   39.1253    6.2868 C   0  0  2  0  0  0  0  0  0  0  0  0
   37.6216   38.7214    7.2506 O   0  0  0  0  0  0  0  0  0  0  0  0
   43.6259   41.1548    6.7611 C   0  0  2  0  0  0  0  0  0  0  0  0
   43.2128   41.7170    8.0180 O   0  0  0  0  0  0  0  0  0  0  0  0
   32.5649   40.1247    3.9044 C   0  0  2  0  0  0  0  0  0  0  0  0
   33.3774   38.8967    4.0499 O   0  0  0  0  0  0  0  0  0  0  0  0
   35.0070   37.3502    7.9241 C   0  0  2  0  0  0  0  0  0  0  0  0
   36.0966   36.9112    7.0109 O   0  0  0  0  0  0  0  0  0  0  0  0
   37.8335   39.6683    5.0795 C   0  0  0  0  0  0  0  0  0  0  0  0
   42.4221   41.1350    5.7342 C   0  0  1  0  0  0  0  0  0  0  0  0
   41.3545   40.1606    6.1441 O   0  0  0  0  0  0  0  0  0  0  0  0
   31.4244   39.9287    2.8784 C   0  0  0  0  0  0  0  0  0  0  0  0
   30.4507   41.0341    2.8128 N   0  0  0  0  0  0  0  0  0  0  0  0
   34.5800   36.1122    8.7413 C   0  0  1  0  0  0  0  0  0  0  0  0
   35.7135   35.5879    9.4406 O   0  0  0  0  0  0  0  0  0  0  0  0
   41.7979   42.5602    5.4761 C   0  0  0  0  0  0  0  0  0  0  0  0
   41.1752   43.2355    6.6592 N   0  0  0  0  0  0  0  0  0  0  0  0
  1  2  1  1  0  0  0
  1  7  1  0  0  0  0
  1 30  1  0  0  0  0
  3  4  1  6  0  0  0
  3  9  1  0  0  0  0
  3 38  1  0  0  0  0
  5 10  1  0  0  0  0
  5 26  1  6  0  0  0
  5 32  1  0  0  0  0
  6 12  1  0  0  0  0
  6 35  1  0  0  0  0
  6 19  1  1  0  0  0
  7  8  1  1  0  0  0
  7 14  1  0  0  0  0
  8 33  1  0  0  0  0
  9 16  1  0  0  0  0
 10 11  1  1  0  0  0
 10 18  1  0  0  0  0
 12 13  1  1  0  0  0
 12 20  1  0  0  0  0
 14 15  1  6  0  0  0
 14 22  1  0  0  0  0
 16 17  1  6  0  0  0
 16 24  1  0  0  0  0
 18 19  1  1  0  0  0
 18 25  1  0  0  0  0
 20 21  1  6  0  0  0
 20 27  1  0  0  0  0
 22 23  1  1  0  0  0
 22 29  1  0  0  0  0
 24  2  1  1  0  0  0
 24 31  1  0  0  0  0
 25 26  1  1  0  0  0
 25 33  1  0  0  0  0
 27 28  1  1  0  0  0
 27 34  1  0  0  0  0
 29 30  1  0  0  0  0
 29 36  1  6  0  0  0
 31 32  1  6  0  0  0
 31 38  1  0  0  0  0
 34 35  1  0  0  0  0
 34 40  1  1  0  0  0
 36 37  1  0  0  0  0
 38 39  1  1  0  0  0
 40 41  1  0  0  0  0
M  END
>  <CHROM.1>
166.90868968,174.17161408,-68.43739677,-62.72953603,37.14277125,39.13915031
6.37667554,3.12396679,0.12998181,2.41723571

>  <Name>
ligand

>  <RI>
0

>  <Rbt.Current_Directory>
/home/itssahil/PROJECTS/Mol_Feturizer/New_Systems/rnas/1ZZ5

>  <Rbt.Executable>
rbdock ($Id: //depot/dev/client3/rdock/2013.1/src/exe/rbdock.cxx#4 $)

>  <Rbt.Library>
libRbt.so (2013.1, Build901 2013/11/27)

>  <Rbt.Parameter_File>
/export/apps/rDock/src/rDock_2013.1_src/data/scripts/dock_solv.prm

>  <Rbt.Receptor>
prm/pocket_docking_2.prm

>  <SCORE>
-9.75378

>  <SCORE.INTER>
-8.58152

>  <SCORE.INTER.CONST>
1

>  <SCORE.INTER.POLAR>
0

>  <SCORE.INTER.ROT>
4

>  <SCORE.INTER.SOLV>
17.2352

>  <SCORE.INTER.VDW>
-17.7328

>  <SCORE.INTER.norm>
-0.209305

>  <SCORE.INTRA>
-1.17226

>  <SCORE.INTRA.DIHEDRAL>
-3.69854

>  <SCORE.INTRA.DIHEDRAL.0>
5.18357

>  <SCORE.INTRA.POLAR>
0

>  <SCORE.INTRA.POLAR.0>
0

>  <SCORE.INTRA.REPUL>
0

>  <SCORE.INTRA.REPUL.0>
0

>  <SCORE.INTRA.SOLV>
1.25221

>  <SCORE.INTRA.SOLV.lig_0>
-109.973

>  <SCORE.INTRA.VDW>
0.0509049

>  <SCORE.INTRA.VDW.0>
-1.68646

>  <SCORE.INTRA.norm>
-0.0285918

>  <SCORE.RESTR>
0

>  <SCORE.RESTR.CAVITY>
0

>  <SCORE.RESTR.norm>
0

>  <SCORE.SYSTEM>
0

>  <SCORE.SYSTEM.CONST>
0

>  <SCORE.SYSTEM.DIHEDRAL>
0

>  <SCORE.SYSTEM.SOLV>
0

>  <SCORE.SYSTEM.norm>
0

>  <SCORE.heavy>
41

>  <SCORE.norm>
-0.237897

>  <RMSD>
1.012

$$$$
ligand
 OpenBabel11021811423D
libRbt.so/2013.1/901 2013/11/27
 41 45  0  0  0  0  0  0  0  0999 V2000
   34.4735   39.2355    4.8708 C   0  0  2  0  0  0  0  0  0  0  0  0
   34.0558   39.3174    6.2475 O   0  0  0  0  0  0  0  0  0  0  0  0
   33.5315   36.4743    9.4970 C   0  0  2  0  0  0  0  0  0  0  0  0
   33.1113   35.2502   10.2266 N   0  0  0  0  0  0  0  0  0  0  0  0
   37.5133   37.4544    7.0354 C   0  0  1  0  0  0  0  0  0  0  0  0
   41.7688   39.0318    6.1217 C   0  0  1  0  0  0  0  0  0  0  0  0
   35.3981   40.4313    4.4928 C   0  0  2  0  0  0  0  0  0  0  0  0
   36.5472   40.5719    5.3922 N   0  0  0  0  0  0  0  0  0  0  0  0
   32.2782   37.1179    8.8238 C   0  0  0  0  0  0  0  0  0  0  0  0
   38.5055   36.9361    5.9694 C   0  0  2  0  0  0  0  0  0  0  0  0
   39.2283   35.7887    6.4272 O   0  0  0  0  0  0  0  0  0  0  0  0
   43.0406   38.8094    7.0465 C   0  0  2  0  0  0  0  0  0  0  0  0
   42.7441   38.8475    8.5112 N   0  0  0  0  0  0  0  0  0  0  0  0
   34.5827   41.7521    4.4637 C   0  0  1  0  0  0  0  0  0  0  0  0
   35.4262   42.8387    4.0913 O   0  0  0  0  0  0  0  0  0  0  0  0
   32.6594   38.4047    8.0358 C   0  0  2  0  0  0  0  0  0  0  0  0
   31.4253   38.9529    7.4423 N   0  0  0  0  0  0  0  0  0  0  0  0
   39.4176   38.1387    5.6727 C   0  0  2  0  0  0  0  0  0  0  0  0
   40.6862   38.0844    6.4389 O   0  0  0  0  0  0  0  0  0  0  0  0
   44.1606   39.8901    6.6951 C   0  0  1  0  0  0  0  0  0  0  0  0
   44.6987   39.6746    5.3719 O   0  0  0  0  0  0  0  0  0  0  0  0
   33.4022   41.6146    3.4746 C   0  0  2  0  0  0  0  0  0  0  0  0
   32.6658   42.8188    3.4299 O   0  0  0  0  0  0  0  0  0  0  0  0
   33.7506   38.0718    6.9575 C   0  0  2  0  0  0  0  0  0  0  0  0
   38.5739   39.3467    6.0703 C   0  0  2  0  0  0  0  0  0  0  0  0
   37.6370   38.8777    7.0296 O   0  0  0  0  0  0  0  0  0  0  0  0
   43.6099   41.3701    6.7833 C   0  0  2  0  0  0  0  0  0  0  0  0
   43.3055   41.6807    8.1535 O   0  0  0  0  0  0  0  0  0  0  0  0
   32.4947   40.4398    3.8906 C   0  0  2  0  0  0  0  0  0  0  0  0
   33.3185   39.2117    3.9430 O   0  0  0  0  0  0  0  0  0  0  0  0
   35.0479   37.4475    7.6784 C   0  0  2  0  0  0  0  0  0  0  0  0
   36.1188   37.0731    6.7157 O   0  0  0  0  0  0  0  0  0  0  0  0
   37.7922   39.9555    4.9155 C   0  0  0  0  0  0  0  0  0  0  0  0
   42.3213   41.5174    5.8766 C   0  0  1  0  0  0  0  0  0  0  0  0
   41.2971   40.4627    6.1863 O   0  0  0  0  0  0  0  0  0  0  0  0
   31.3320   40.2969    2.8809 C   0  0  0  0  0  0  0  0  0  0  0  0
   30.3335   39.2677    3.2245 N   0  0  0  0  0  0  0  0  0  0  0  0
   34.6482   36.1591    8.4288 C   0  0  1  0  0  0  0  0  0  0  0  0
   35.8011   35.6027    9.0690 O   0  0  0  0  0  0  0  0  0  0  0  0
   41.6716   42.9529    5.9431 C   0  0  0  0  0  0  0  0  0  0  0  0
   41.1617   43.3886    7.2823 N   0  0  0  0  0  0  0  0  0  0  0  0
  1  2  1  1  0  0  0
  1  7  1  0  0  0  0
  1 30  1  0  0  0  0
  3  4  1  6  0  0  0
  3  9  1  0  0  0  0
  3 38  1  0  0  0  0
  5 10  1  0  0  0  0
  5 26  1  6  0  0  0
  5 32  1  0  0  0  0
  6 12  1  0  0  0  0
  6 35  1  0  0  0  0
  6 19  1  1  0  0  0
  7  8  1  1  0  0  0
  7 14  1  0  0  0  0
  8 33  1  0  0  0  0
  9 16  1  0  0  0  0
 10 11  1  1  0  0  0
 10 18  1  0  0  0  0
 12 13  1  1  0  0  0
 12 20  1  0  0  0  0
 14 15  1  6  0  0  0
 14 22  1  0  0  0  0
 16 17  1  6  0  0  0
 16 24  1  0  0  0  0
 18 19  1  1  0  0  0
 18 25  1  0  0  0  0
 20 21  1  6  0  0  0
 20 27  1  0  0  0  0
 22 23  1  1  0  0  0
 22 29  1  0  0  0  0
 24  2  1  1  0  0  0
 24 31  1  0  0  0  0
 25 26  1  1  0  0  0
 25 33  1  0  0  0  0
 27 28  1  1  0  0  0
 27 34  1  0  0  0  0
 29 30  1  0  0  0  0
 29 36  1  6  0  0  0
 31 32  1  6  0  0  0
 31 38  1  0  0  0  0
 34 35  1  0  0  0  0
 34 40  1  1  0  0  0
 36 37  1  0  0  0  0
 38 39  1  1  0  0  0
 40 41  1  0  0  0  0
M  END
>  <CHROM.1>
170.17942639,-179.80815394,-175.64836294,-62.25333361,37.13462510,39.28871733
6.25633369,3.09408929,0.14168303,2.48124848

>  <Name>
ligand

>  <RI>
0

>  <Rbt.Current_Directory>
/home/itssahil/PROJECTS/Mol_Feturizer/New_Systems/rnas/1ZZ5

>  <Rbt.Executable>
rbdock ($Id: //depot/dev/client3/rdock/2013.1/src/exe/rbdock.cxx#4 $)

>  <Rbt.Library>
libRbt.so (2013.1, Build901 2013/11/27)

>  <Rbt.Parameter_File>
/export/apps/rDock/src/rDock_2013.1_src/data/scripts/dock_solv.prm

>  <Rbt.Receptor>
prm/pocket_docking_2.prm

>  <SCORE>
-10.7164

>  <SCORE.INTER>
-8.58995

>  <SCORE.INTER.CONST>
1

>  <SCORE.INTER.POLAR>
0

>  <SCORE.INTER.ROT>
4

>  <SCORE.INTER.SOLV>
18.3879

>  <SCORE.INTER.VDW>
-18.1226

>  <SCORE.INTER.norm>
-0.209511

>  <SCORE.INTRA>
-2.12645

>  <SCORE.INTRA.DIHEDRAL>
-4.3984

>  <SCORE.INTRA.DIHEDRAL.0>
5.18357

>  <SCORE.INTRA.POLAR>
0

>  <SCORE.INTRA.POLAR.0>
0

>  <SCORE.INTRA.REPUL>
0

>  <SCORE.INTRA.REPUL.0>
0

>  <SCORE.INTRA.SOLV>
0.0936861

>  <SCORE.INTRA.SOLV.lig_0>
-109.973

>  <SCORE.INTRA.VDW>
0.0259058

>  <SCORE.INTRA.VDW.0>
-1.68646

>  <SCORE.INTRA.norm>
-0.0518646

>  <SCORE.RESTR>
0

>  <SCORE.RESTR.CAVITY>
0

>  <SCORE.RESTR.norm>
0

>  <SCORE.SYSTEM>
0

>  <SCORE.SYSTEM.CONST>
0

>  <SCORE.SYSTEM.DIHEDRAL>
0

>  <SCORE.SYSTEM.SOLV>
0

>  <SCORE.SYSTEM.norm>
0

>  <SCORE.heavy>
41

>  <SCORE.norm>
-0.261376

>  <RMSD>
1.012

$$$$
ligand
 OpenBabel11021811423D
libRbt.so/2013.1/901 2013/11/27
 41 45  0  0  0  0  0  0  0  0999 V2000
   34.4543   39.2130    4.8952 C   0  0  2  0  0  0  0  0  0  0  0  0
   34.0413   39.3062    6.2726 O   0  0  0  0  0  0  0  0  0  0  0  0
   33.5083   36.4867    9.5412 C   0  0  2  0  0  0  0  0  0  0  0  0
   33.0824   35.2699   10.2797 N   0  0  0  0  0  0  0  0  0  0  0  0
   37.4889   37.4255    7.0616 C   0  0  1  0  0  0  0  0  0  0  0  0
   41.7422   38.9862    6.1427 C   0  0  1  0  0  0  0  0  0  0  0  0
   35.3855   40.4004    4.5070 C   0  0  2  0  0  0  0  0  0  0  0  0
   36.5382   40.5390    5.4020 N   0  0  0  0  0  0  0  0  0  0  0  0
   32.2572   37.1343    8.8678 C   0  0  0  0  0  0  0  0  0  0  0  0
   38.4745   36.8941    5.9958 C   0  0  2  0  0  0  0  0  0  0  0  0
   39.1912   35.7449    6.4586 O   0  0  0  0  0  0  0  0  0  0  0  0
   43.0010   38.7854    7.0899 C   0  0  2  0  0  0  0  0  0  0  0  0
   42.6806   38.8343    8.5493 N   0  0  0  0  0  0  0  0  0  0  0  0
   34.5786   41.7263    4.4721 C   0  0  1  0  0  0  0  0  0  0  0  0
   35.4281   42.8051    4.0904 O   0  0  0  0  0  0  0  0  0  0  0  0
   32.6444   38.4137    8.0707 C   0  0  2  0  0  0  0  0  0  0  0  0
   31.4121   38.9663    7.4775 N   0  0  0  0  0  0  0  0  0  0  0  0
   39.3935   38.0889    5.6890 C   0  0  2  0  0  0  0  0  0  0  0  0
   40.6641   38.0311    6.4517 O   0  0  0  0  0  0  0  0  0  0  0  0
   44.1158   39.8739    6.7461 C   0  0  1  0  0  0  0  0  0  0  0  0
   44.6772   39.6513    5.4338 O   0  0  0  0  0  0  0  0  0  0  0  0
   33.3942   41.5904    3.4875 C   0  0  2  0  0  0  0  0  0  0  0  0
   32.6657   42.7991    3.4374 O   0  0  0  0  0  0  0  0  0  0  0  0
   33.7301   38.0670    6.9911 C   0  0  2  0  0  0  0  0  0  0  0  0
   38.5590   39.3048    6.0816 C   0  0  2  0  0  0  0  0  0  0  0  0
   37.6219   38.8479    7.0466 O   0  0  0  0  0  0  0  0  0  0  0  0
   43.5491   41.3491    6.8112 C   0  0  2  0  0  0  0  0  0  0  0  0
   43.2197   41.6695    8.1733 O   0  0  0  0  0  0  0  0  0  0  0  0
   32.4804   40.4242    3.9134 C   0  0  2  0  0  0  0  0  0  0  0  0
   33.2963   39.1911    3.9710 O   0  0  0  0  0  0  0  0  0  0  0  0
   35.0255   37.4387    7.7121 C   0  0  2  0  0  0  0  0  0  0  0  0
   36.0910   37.0513    6.7485 O   0  0  0  0  0  0  0  0  0  0  0  0
   37.7777   39.9115    4.9254 C   0  0  0  0  0  0  0  0  0  0  0  0
   42.2739   41.4748    5.8826 C   0  0  1  0  0  0  0  0  0  0  0  0
   41.2553   40.4128    6.1860 O   0  0  0  0  0  0  0  0  0  0  0  0
   31.3137   40.2826    2.9082 C   0  0  0  0  0  0  0  0  0  0  0  0
   30.3164   39.2532    3.2545 N   0  0  0  0  0  0  0  0  0  0  0  0
   34.6197   36.1576    8.4716 C   0  0  1  0  0  0  0  0  0  0  0  0
   35.7708   35.5977    9.1118 O   0  0  0  0  0  0  0  0  0  0  0  0
   41.6090   42.9043    5.9248 C   0  0  0  0  0  0  0  0  0  0  0  0
   41.0889   43.3546    7.2553 N   0  0  0  0  0  0  0  0  0  0  0  0
  1  2  1  1  0  0  0
  1  7  1  0  0  0  0
  1 30  1  0  0  0  0
  3  4  1  6  0  0  0
  3  9  1  0  0  0  0
  3 38  1  0  0  0  0
  5 10  1  0  0  0  0
  5 26  1  6  0  0  0
  5 32  1  0  0  0  0
  6 12  1  0  0  0  0
  6 35  1  0  0  0  0
  6 19  1  1  0  0  0
  7  8  1  1  0  0  0
  7 14  1  0  0  0  0
  8 33  1  0  0  0  0
  9 16  1  0  0  0  0
 10 11  1  1  0  0  0
 10 18  1  0  0  0  0
 12 13  1  1  0  0  0
 12 20  1  0  0  0  0
 14 15  1  6  0  0  0
 14 22  1  0  0  0  0
 16 17  1  6  0  0  0
 16 24  1  0  0  0  0
 18 19  1  1  0  0  0
 18 25  1  0  0  0  0
 20 21  1  6  0  0  0
 20 27  1  0  0  0  0
 22 23  1  1  0  0  0
 22 29  1  0  0  0  0
 24  2  1  1  0  0  0
 24 31  1  0  0  0  0
 25 26  1  1  0  0  0
 25 33  1  0  0  0  0
 27 28  1  1  0  0  0
 27 34  1  0  0  0  0
 29 30  1  0  0  0  0
 29 36  1  6  0  0  0
 31 32  1  6  0  0  0
 31 38  1  0  0  0  0
 34 35  1  0  0  0  0
 34 40  1  1  0  0  0
 36 37  1  0  0  0  0
 38 39  1  1  0  0  0
 40 41  1  0  0  0  0
M  END
>  <CHROM.1>
171.34619525,178.56698651,-176.20597522,-61.50428663,37.10731579,39.26658115
6.28014294,3.09665573,0.13986438,2.47598093

>  <Name>
ligand

>  <RI>
0

>  <Rbt.Current_Directory>
/home/itssahil/PROJECTS/Mol_Feturizer/New_Systems/rnas/1ZZ5

>  <Rbt.Executable>
rbdock ($Id: //depot/dev/client3/rdock/2013.1/src/exe/rbdock.cxx#4 $)

>  <Rbt.Library>
libRbt.so (2013.1, Build901 2013/11/27)

>  <Rbt.Parameter_File>
/export/apps/rDock/src/rDock_2013.1_src/data/scripts/dock_solv.prm

>  <Rbt.Receptor>
prm/pocket_docking_2.prm

>  <SCORE>
-10.7325

>  <SCORE.INTER>
-8.58339

>  <SCORE.INTER.CONST>
1

>  <SCORE.INTER.POLAR>
0

>  <SCORE.INTER.ROT>
4

>  <SCORE.INTER.SOLV>
18.288

>  <SCORE.INTER.VDW>
-18.0849

>  <SCORE.INTER.norm>
-0.209351

>  <SCORE.INTRA>
-2.15863

>  <SCORE.INTRA.DIHEDRAL>
-4.51722

>  <SCORE.INTRA.DIHEDRAL.0>
5.18357

>  <SCORE.INTRA.POLAR>
0

>  <SCORE.INTRA.POLAR.0>
0

>  <SCORE.INTRA.REPUL>
0

>  <SCORE.INTRA.REPUL.0>
0

>  <SCORE.INTRA.SOLV>
0.113914

>  <SCORE.INTRA.SOLV.lig_0>
-109.973

>  <SCORE.INTRA.VDW>
0.0430255

>  <SCORE.INTRA.VDW.0>
-1.68646

>  <SCORE.INTRA.norm>
-0.0526495

>  <SCORE.RESTR>
0.00952644

>  <SCORE.RESTR.CAVITY>
0.00952644

>  <SCORE.RESTR.norm>
0.000232352

>  <SCORE.SYSTEM>
0

>  <SCORE.SYSTEM.CONST>
0

>  <SCORE.SYSTEM.DIHEDRAL>
0

>  <SCORE.SYSTEM.SOLV>
0

>  <SCORE.SYSTEM.norm>
0

>  <SCORE.heavy>
41

>  <SCORE.norm>
-0.261768

>  <RMSD>
1.025

$$$$
ligand
 OpenBabel11021811423D
libRbt.so/2013.1/901 2013/11/27
 41 45  0  0  0  0  0  0  0  0999 V2000
   34.5830   39.0287    5.0022 C   0  0  2  0  0  0  0  0  0  0  0  0
   34.1006   39.1683    6.3528 O   0  0  0  0  0  0  0  0  0  0  0  0
   33.2853   36.4451    9.6448 C   0  0  2  0  0  0  0  0  0  0  0  0
   32.7741   35.2619   10.3838 N   0  0  0  0  0  0  0  0  0  0  0  0
   37.4263   37.1794    7.3672 C   0  0  1  0  0  0  0  0  0  0  0  0
   41.7910   38.5394    6.6304 C   0  0  1  0  0  0  0  0  0  0  0  0
   35.5785   40.1716    4.6410 C   0  0  2  0  0  0  0  0  0  0  0  0
   36.6860   40.2876    5.5945 N   0  0  0  0  0  0  0  0  0  0  0  0
   32.0979   37.1232    8.8910 C   0  0  0  0  0  0  0  0  0  0  0  0
   38.4467   36.5878    6.3679 C   0  0  2  0  0  0  0  0  0  0  0  0
   39.0930   35.4235    6.8926 O   0  0  0  0  0  0  0  0  0  0  0  0
   42.9928   38.3072    7.6424 C   0  0  2  0  0  0  0  0  0  0  0  0
   42.6090   38.4241    9.0825 N   0  0  0  0  0  0  0  0  0  0  0  0
   34.8260   41.5254    4.5350 C   0  0  1  0  0  0  0  0  0  0  0  0
   35.7354   42.5630    4.1780 O   0  0  0  0  0  0  0  0  0  0  0  0
   32.5760   38.3690    8.0900 C   0  0  2  0  0  0  0  0  0  0  0  0
   31.3993   38.9534    7.4193 N   0  0  0  0  0  0  0  0  0  0  0  0
   39.4259   37.7404    6.0871 C   0  0  2  0  0  0  0  0  0  0  0  0
   40.6505   37.6528    6.9190 O   0  0  0  0  0  0  0  0  0  0  0  0
   44.1785   39.3238    7.3165 C   0  0  1  0  0  0  0  0  0  0  0  0
   44.7867   39.0263    6.0404 O   0  0  0  0  0  0  0  0  0  0  0  0
   33.6919   41.4114    3.4902 C   0  0  2  0  0  0  0  0  0  0  0  0
   33.0138   42.6448    3.3756 O   0  0  0  0  0  0  0  0  0  0  0  0
   33.7040   37.9580    7.0786 C   0  0  2  0  0  0  0  0  0  0  0  0
   38.6186   38.9950    6.4085 C   0  0  2  0  0  0  0  0  0  0  0  0
   37.6142   38.5951    7.3302 O   0  0  0  0  0  0  0  0  0  0  0  0
   43.6889   40.8277    7.3062 C   0  0  2  0  0  0  0  0  0  0  0  0
   43.3151   41.2125    8.6398 O   0  0  0  0  0  0  0  0  0  0  0  0
   32.7125   40.2897    3.8895 C   0  0  2  0  0  0  0  0  0  0  0  0
   33.4764   39.0288    4.0168 O   0  0  0  0  0  0  0  0  0  0  0  0
   34.9339   37.2986    7.8819 C   0  0  2  0  0  0  0  0  0  0  0  0
   36.0340   36.8502    6.9860 O   0  0  0  0  0  0  0  0  0  0  0  0
   37.9243   39.6040    5.1992 C   0  0  0  0  0  0  0  0  0  0  0  0
   42.4660   40.9864    6.3144 C   0  0  1  0  0  0  0  0  0  0  0  0
   41.3795   39.9899    6.6038 O   0  0  0  0  0  0  0  0  0  0  0  0
   31.5970   40.1688    2.8253 C   0  0  0  0  0  0  0  0  0  0  0  0
   30.5270   39.2086    3.1528 N   0  0  0  0  0  0  0  0  0  0  0  0
   34.4391   36.0509    8.6444 C   0  0  1  0  0  0  0  0  0  0  0  0
   35.5319   35.4633    9.3578 O   0  0  0  0  0  0  0  0  0  0  0  0
   41.8771   42.4490    6.2781 C   0  0  0  0  0  0  0  0  0  0  0  0
   42.8250   43.5356    5.8730 N   0  0  0  0  0  0  0  0  0  0  0  0
  1  2  1  1  0  0  0
  1  7  1  0  0  0  0
  1 30  1  0  0  0  0
  3  4  1  6  0  0  0
  3  9  1  0  0  0  0
  3 38  1  0  0  0  0
  5 10  1  0  0  0  0
  5 26  1  6  0  0  0
  5 32  1  0  0  0  0
  6 12  1  0  0  0  0
  6 35  1  0  0  0  0
  6 19  1  1  0  0  0
  7  8  1  1  0  0  0
  7 14  1  0  0  0  0
  8 33  1  0  0  0  0
  9 16  1  0  0  0  0
 10 11  1  1  0  0  0
 10 18  1  0  0  0  0
 12 13  1  1  0  0  0
 12 20  1  0  0  0  0
 14 15  1  6  0  0  0
 14 22  1  0  0  0  0
 16 17  1  6  0  0  0
 16 24  1  0  0  0  0
 18 19  1  1  0  0  0
 18 25  1  0  0  0  0
 20 21  1  6  0  0  0
 20 27  1  0  0  0  0
 22 23  1  1  0  0  0
 22 29  1  0  0  0  0
 24  2  1  1  0  0  0
 24 31  1  0  0  0  0
 25 26  1  1  0  0  0
 25 33  1  0  0  0  0
 27 28  1  1  0  0  0
 27 34  1  0  0  0  0
 29 30  1  0  0  0  0
 29 36  1  6  0  0  0
 31 32  1  6  0  0  0
 31 38  1  0  0  0  0
 34 35  1  0  0  0  0
 34 40  1  1  0  0  0
 36 37  1  0  0  0  0
 38 39  1  1  0  0  0
 40 41  1  0  0  0  0
M  END
>  <CHROM.1>
169.97950596,179.14745595,-174.81188553,59.15698638,37.20506291,39.02175889
6.47537918,3.13318230,0.14792570,2.44208381

>  <Name>
ligand

>  <RI>
0

>  <Rbt.Current_Directory>
/home/itssahil/PROJECTS/Mol_Feturizer/New_Systems/rnas/1ZZ5

>  <Rbt.Executable>
rbdock ($Id: //depot/dev/client3/rdock/2013.1/src/exe/rbdock.cxx#4 $)

>  <Rbt.Library>
libRbt.so (2013.1, Build901 2013/11/27)

>  <Rbt.Parameter_File>
/export/apps/rDock/src/rDock_2013.1_src/data/scripts/dock_solv.prm

>  <Rbt.Receptor>
prm/pocket_docking_2.prm

>  <SCORE>
-10.8056

>  <SCORE.INTER>
-8.26645

>  <SCORE.INTER.CONST>
1

>  <SCORE.INTER.POLAR>
0

>  <SCORE.INTER.ROT>
4

>  <SCORE.INTER.SOLV>
19.0813

>  <SCORE.INTER.VDW>
-18.1381

>  <SCORE.INTER.norm>
-0.201621

>  <SCORE.INTRA>
-2.54811

>  <SCORE.INTRA.DIHEDRAL>
-4.36614

>  <SCORE.INTRA.DIHEDRAL.0>
5.18357

>  <SCORE.INTRA.POLAR>
0

>  <SCORE.INTRA.POLAR.0>
0

>  <SCORE.INTRA.REPUL>
0

>  <SCORE.INTRA.REPUL.0>
0

>  <SCORE.INTRA.SOLV>
-1.08917

>  <SCORE.INTRA.SOLV.lig_0>
-109.973

>  <SCORE.INTRA.VDW>
0.179541

>  <SCORE.INTRA.VDW.0>
-1.68646

>  <SCORE.INTRA.norm>
-0.0621491

>  <SCORE.RESTR>
0.00890937

>  <SCORE.RESTR.CAVITY>
0.00890937

>  <SCORE.RESTR.norm>
0.000217302

>  <SCORE.SYSTEM>
0

>  <SCORE.SYSTEM.CONST>
0

>  <SCORE.SYSTEM.DIHEDRAL>
0

>  <SCORE.SYSTEM.SOLV>
0

>  <SCORE.SYSTEM.norm>
0

>  <SCORE.heavy>
41

>  <SCORE.norm>
-0.263552

>  <RMSD>
1.025

$$$$
ligand
 OpenBabel11021811423D
libRbt.so/2013.1/901 2013/11/27
 41 45  0  0  0  0  0  0  0  0999 V2000
   34.5843   39.0266    5.0467 C   0  0  2  0  0  0  0  0  0  0  0  0
   34.1121   39.1685    6.4007 O   0  0  0  0  0  0  0  0  0  0  0  0
   33.3021   36.4487    9.6968 C   0  0  2  0  0  0  0  0  0  0  0  0
   32.7885   35.2684   10.4387 N   0  0  0  0  0  0  0  0  0  0  0  0
   37.4319   37.1577    7.3910 C   0  0  1  0  0  0  0  0  0  0  0  0
   41.7943   38.5009    6.6346 C   0  0  1  0  0  0  0  0  0  0  0  0
   35.5846   40.1633    4.6793 C   0  0  2  0  0  0  0  0  0  0  0  0
   36.6993   40.2716    5.6251 N   0  0  0  0  0  0  0  0  0  0  0  0
   32.1139   37.1349    8.9516 C   0  0  0  0  0  0  0  0  0  0  0  0
   38.4415   36.5602    6.3843 C   0  0  2  0  0  0  0  0  0  0  0  0
   39.0840   35.3914    6.9039 O   0  0  0  0  0  0  0  0  0  0  0  0
   42.9883   38.2834    7.6589 C   0  0  2  0  0  0  0  0  0  0  0  0
   42.5915   38.4102    9.0946 N   0  0  0  0  0  0  0  0  0  0  0  0
   34.8400   41.5220    4.5792 C   0  0  1  0  0  0  0  0  0  0  0  0
   35.7535   42.5540    4.2165 O   0  0  0  0  0  0  0  0  0  0  0  0
   32.5945   38.3780    8.1480 C   0  0  2  0  0  0  0  0  0  0  0  0
   31.4170   38.9704    7.4858 N   0  0  0  0  0  0  0  0  0  0  0  0
   39.4261   37.7066    6.0974 C   0  0  2  0  0  0  0  0  0  0  0  0
   40.6559   37.6106    6.9207 O   0  0  0  0  0  0  0  0  0  0  0  0
   44.1715   39.3036    7.3348 C   0  0  1  0  0  0  0  0  0  0  0  0
   44.7924   38.9987    6.0665 O   0  0  0  0  0  0  0  0  0  0  0  0
   33.6980   41.4158    3.5422 C   0  0  2  0  0  0  0  0  0  0  0  0
   33.0271   42.6536    3.4330 O   0  0  0  0  0  0  0  0  0  0  0  0
   33.7128   37.9604    7.1287 C   0  0  2  0  0  0  0  0  0  0  0  0
   38.6292   38.9662    6.4250 C   0  0  2  0  0  0  0  0  0  0  0  0
   37.6287   38.5722    7.3534 O   0  0  0  0  0  0  0  0  0  0  0  0
   43.6742   40.8047    7.3077 C   0  0  2  0  0  0  0  0  0  0  0  0
   43.2868   41.1986    8.6348 O   0  0  0  0  0  0  0  0  0  0  0  0
   32.7142   40.3002    3.9477 C   0  0  2  0  0  0  0  0  0  0  0  0
   33.4709   39.0344    4.0691 O   0  0  0  0  0  0  0  0  0  0  0  0
   34.9439   37.2926    7.9230 C   0  0  2  0  0  0  0  0  0  0  0  0
   36.0349   36.8377    7.0193 O   0  0  0  0  0  0  0  0  0  0  0  0
   37.9305   39.5803    5.2209 C   0  0  0  0  0  0  0  0  0  0  0  0
   42.4592   40.9487    6.3041 C   0  0  1  0  0  0  0  0  0  0  0  0
   41.3754   39.9489    6.5923 O   0  0  0  0  0  0  0  0  0  0  0  0
   31.5906   40.1871    2.8912 C   0  0  0  0  0  0  0  0  0  0  0  0
   30.5173   39.2328    3.2251 N   0  0  0  0  0  0  0  0  0  0  0  0
   34.4464   36.0477    8.6882 C   0  0  1  0  0  0  0  0  0  0  0  0
   35.5404   35.4526    9.3937 O   0  0  0  0  0  0  0  0  0  0  0  0
   41.8630   42.4078    6.2505 C   0  0  0  0  0  0  0  0  0  0  0  0
   42.8026   43.4927    5.8221 N   0  0  0  0  0  0  0  0  0  0  0  0
  1  2  1  1  0  0  0
  1  7  1  0  0  0  0
  1 30  1  0  0  0  0
  3  4  1  6  0  0  0
  3  9  1  0  0  0  0
  3 38  1  0  0  0  0
  5 10  1  0  0  0  0
  5 26  1  6  0  0  0
  5 32  1  0  0  0  0
  6 12  1  0  0  0  0
  6 35  1  0  0  0  0
  6 19  1  1  0  0  0
  7  8  1  1  0  0  0
  7 14  1  0  0  0  0
  8 33  1  0  0  0  0
  9 16  1  0  0  0  0
 10 11  1  1  0  0  0
 10 18  1  0  0  0  0
 12 13  1  1  0  0  0
 12 20  1  0  0  0  0
 14 15  1  6  0  0  0
 14 22  1  0  0  0  0
 16 17  1  6  0  0  0
 16 24  1  0  0  0  0
 18 19  1  1  0  0  0
 18 25  1  0  0  0  0
 20 21  1  6  0  0  0
 20 27  1  0  0  0  0
 22 23  1  1  0  0  0
 22 29  1  0  0  0  0
 24  2  1  1  0  0  0
 24 31  1  0  0  0  0
 25 26  1  1  0  0  0
 25 33  1  0  0  0  0
 27 28  1  1  0  0  0
 27 34  1  0  0  0  0
 29 30  1  0  0  0  0
 29 36  1  6  0  0  0
 31 32  1  6  0  0  0
 31 38  1  0  0  0  0
 34 35  1  0  0  0  0
 34 40  1  1  0  0  0
 36 37  1  0  0  0  0
 38 39  1  1  0  0  0
 40 41  1  0  0  0  0
M  END
>  <CHROM.1>
170.68509157,177.73542749,-174.85892942,60.16198529,37.20748242,39.00929649
6.50438818,3.13236714,0.14109950,2.44259631

>  <Name>
ligand

>  <RI>
0

>  <Rbt.Current_Directory>
/home/itssahil/PROJECTS/Mol_Feturizer/New_Systems/rnas/1ZZ5

>  <Rbt.Executable>
rbdock ($Id: //depot/dev/client3/rdock/2013.1/src/exe/rbdock.cxx#4 $)

>  <Rbt.Library>
libRbt.so (2013.1, Build901 2013/11/27)

>  <Rbt.Parameter_File>
/export/apps/rDock/src/rDock_2013.1_src/data/scripts/dock_solv.prm

>  <Rbt.Receptor>
prm/pocket_docking_2.prm

>  <SCORE>
-10.7428

>  <SCORE.INTER>
-8.17294

>  <SCORE.INTER.CONST>
1

>  <SCORE.INTER.POLAR>
0

>  <SCORE.INTER.ROT>
4

>  <SCORE.INTER.SOLV>
18.7286

>  <SCORE.INTER.VDW>
-17.9582

>  <SCORE.INTER.norm>
-0.19934

>  <SCORE.INTRA>
-2.57162

>  <SCORE.INTRA.DIHEDRAL>
-4.4148

>  <SCORE.INTRA.DIHEDRAL.0>
5.18357

>  <SCORE.INTRA.POLAR>
0

>  <SCORE.INTRA.POLAR.0>
0

>  <SCORE.INTRA.REPUL>
0

>  <SCORE.INTRA.REPUL.0>
0

>  <SCORE.INTRA.SOLV>
-1.09466

>  <SCORE.INTRA.SOLV.lig_0>
-109.973

>  <SCORE.INTRA.VDW>
0.183109

>  <SCORE.INTRA.VDW.0>
-1.68646

>  <SCORE.INTRA.norm>
-0.0627225

>  <SCORE.RESTR>
0.00177494

>  <SCORE.RESTR.CAVITY>
0.00177494

>  <SCORE.RESTR.norm>
4.32912e-05

>  <SCORE.SYSTEM>
0

>  <SCORE.SYSTEM.CONST>
0

>  <SCORE.SYSTEM.DIHEDRAL>
0

>  <SCORE.SYSTEM.SOLV>
0

>  <SCORE.SYSTEM.norm>
0

>  <SCORE.heavy>
41

>  <SCORE.norm>
-0.262019

>  <RMSD>
1.026

$$$$
ligand
 OpenBabel11021811423D
libRbt.so/2013.1/901 2013/11/27
 41 45  0  0  0  0  0  0  0  0999 V2000
   34.5786   39.0348    5.0062 C   0  0  2  0  0  0  0  0  0  0  0  0
   34.0951   39.1708    6.3569 O   0  0  0  0  0  0  0  0  0  0  0  0
   33.2755   36.4389    9.6406 C   0  0  2  0  0  0  0  0  0  0  0  0
   32.7630   35.2540   10.3758 N   0  0  0  0  0  0  0  0  0  0  0  0
   37.4188   37.1769    7.3683 C   0  0  1  0  0  0  0  0  0  0  0  0
   41.7848   38.5365    6.6390 C   0  0  1  0  0  0  0  0  0  0  0  0
   35.5750   40.1781    4.6491 C   0  0  2  0  0  0  0  0  0  0  0  0
   36.6818   40.2906    5.6038 N   0  0  0  0  0  0  0  0  0  0  0  0
   32.0892   37.1199    8.8877 C   0  0  0  0  0  0  0  0  0  0  0  0
   38.4396   36.5876    6.3681 C   0  0  2  0  0  0  0  0  0  0  0  0
   39.0847   35.4214    6.8900 O   0  0  0  0  0  0  0  0  0  0  0  0
   42.9775   38.3153    7.6640 C   0  0  2  0  0  0  0  0  0  0  0  0
   42.5800   38.4427    9.0995 N   0  0  0  0  0  0  0  0  0  0  0  0
   34.8234   41.5326    4.5463 C   0  0  1  0  0  0  0  0  0  0  0  0
   35.7337   42.5707    4.1930 O   0  0  0  0  0  0  0  0  0  0  0  0
   32.5687   38.3676    8.0907 C   0  0  2  0  0  0  0  0  0  0  0  0
   31.3929   38.9547    7.4207 N   0  0  0  0  0  0  0  0  0  0  0  0
   39.4197   37.7403    6.0913 C   0  0  2  0  0  0  0  0  0  0  0  0
   40.6437   37.6496    6.9239 O   0  0  0  0  0  0  0  0  0  0  0  0
   44.1639   39.3320    7.3411 C   0  0  1  0  0  0  0  0  0  0  0  0
   44.7848   39.0258    6.0731 O   0  0  0  0  0  0  0  0  0  0  0  0
   33.6901   41.4222    3.5003 C   0  0  2  0  0  0  0  0  0  0  0  0
   33.0129   42.6564    3.3887 O   0  0  0  0  0  0  0  0  0  0  0  0
   33.6973   37.9587    7.0790 C   0  0  2  0  0  0  0  0  0  0  0  0
   38.6130   38.9945    6.4156 C   0  0  2  0  0  0  0  0  0  0  0  0
   37.6077   38.5926    7.3354 O   0  0  0  0  0  0  0  0  0  0  0  0
   43.6710   40.8346    7.3142 C   0  0  2  0  0  0  0  0  0  0  0  0
   43.2839   41.2292    8.6411 O   0  0  0  0  0  0  0  0  0  0  0  0
   32.7097   40.3001    3.8957 C   0  0  2  0  0  0  0  0  0  0  0  0
   33.4727   39.0383    4.0201 O   0  0  0  0  0  0  0  0  0  0  0  0
   34.9260   37.2963    7.8814 C   0  0  2  0  0  0  0  0  0  0  0  0
   36.0266   36.8498    6.9851 O   0  0  0  0  0  0  0  0  0  0  0  0
   37.9200   39.6074    5.2075 C   0  0  0  0  0  0  0  0  0  0  0  0
   42.4571   40.9825    6.3097 C   0  0  1  0  0  0  0  0  0  0  0  0
   41.3702   39.9858    6.5968 O   0  0  0  0  0  0  0  0  0  0  0  0
   31.5949   40.1829    2.8303 C   0  0  0  0  0  0  0  0  0  0  0  0
   30.5634   39.1695    3.1189 N   0  0  0  0  0  0  0  0  0  0  0  0
   34.4299   36.0468    8.6399 C   0  0  1  0  0  0  0  0  0  0  0  0
   35.5218   35.4564    9.3525 O   0  0  0  0  0  0  0  0  0  0  0  0
   41.8652   42.4434    6.2562 C   0  0  0  0  0  0  0  0  0  0  0  0
   42.8055   43.5241    5.8186 N   0  0  0  0  0  0  0  0  0  0  0  0
  1  2  1  1  0  0  0
  1  7  1  0  0  0  0
  1 30  1  0  0  0  0
  3  4  1  6  0  0  0
  3  9  1  0  0  0  0
  3 38  1  0  0  0  0
  5 10  1  0  0  0  0
  5 26  1  6  0  0  0
  5 32  1  0  0  0  0
  6 12  1  0  0  0  0
  6 35  1  0  0  0  0
  6 19  1  1  0  0  0
  7  8  1  1  0  0  0
  7 14  1  0  0  0  0
  8 33  1  0  0  0  0
  9 16  1  0  0  0  0
 10 11  1  1  0  0  0
 10 18  1  0  0  0  0
 12 13  1  1  0  0  0
 12 20  1  0  0  0  0
 14 15  1  6  0  0  0
 14 22  1  0  0  0  0
 16 17  1  6  0  0  0
 16 24  1  0  0  0  0
 18 19  1  1  0  0  0
 18 25  1  0  0  0  0
 20 21  1  6  0  0  0
 20 27  1  0  0  0  0
 22 23  1  1  0  0  0
 22 29  1  0  0  0  0
 24  2  1  1  0  0  0
 24 31  1  0  0  0  0
 25 26  1  1  0  0  0
 25 33  1  0  0  0  0
 27 28  1  1  0  0  0
 27 34  1  0  0  0  0
 29 30  1  0  0  0  0
 29 36  1  6  0  0  0
 31 32  1  6  0  0  0
 31 38  1  0  0  0  0
 34 35  1  0  0  0  0
 34 40  1  1  0  0  0
 36 37  1  0  0  0  0
 38 39  1  1  0  0  0
 40 41  1  0  0  0  0
M  END
>  <CHROM.1>
169.99692874,178.32997860,-178.02256385,60.62219358,37.19776087,39.02280845
6.47749572,3.13243815,0.14844728,2.44308930

>  <Name>
ligand

>  <RI>
0

>  <Rbt.Current_Directory>
/home/itssahil/PROJECTS/Mol_Feturizer/New_Systems/rnas/1ZZ5

>  <Rbt.Executable>
rbdock ($Id: //depot/dev/client3/rdock/2013.1/src/exe/rbdock.cxx#4 $)

>  <Rbt.Library>
libRbt.so (2013.1, Build901 2013/11/27)

>  <Rbt.Parameter_File>
/export/apps/rDock/src/rDock_2013.1_src/data/scripts/dock_solv.prm

>  <Rbt.Receptor>
prm/pocket_docking_2.prm

>  <SCORE>
-10.7966

>  <SCORE.INTER>
-8.18965

>  <SCORE.INTER.CONST>
1

>  <SCORE.INTER.POLAR>
0

>  <SCORE.INTER.ROT>
4

>  <SCORE.INTER.SOLV>
19.297

>  <SCORE.INTER.VDW>
-18.1588

>  <SCORE.INTER.norm>
-0.199748

>  <SCORE.INTRA>
-2.6158

>  <SCORE.INTRA.DIHEDRAL>
-4.44457

>  <SCORE.INTRA.DIHEDRAL.0>
5.18357

>  <SCORE.INTRA.POLAR>
0

>  <SCORE.INTRA.POLAR.0>
0

>  <SCORE.INTRA.REPUL>
0

>  <SCORE.INTRA.REPUL.0>
0

>  <SCORE.INTRA.SOLV>
-1.12247

>  <SCORE.INTRA.SOLV.lig_0>
-109.973

>  <SCORE.INTRA.VDW>
0.167713

>  <SCORE.INTRA.VDW.0>
-1.68646

>  <SCORE.INTRA.norm>
-0.0638001

>  <SCORE.RESTR>
0.00881118

>  <SCORE.RESTR.CAVITY>
0.00881118

>  <SCORE.RESTR.norm>
0.000214907

>  <SCORE.SYSTEM>
0

>  <SCORE.SYSTEM.CONST>
0

>  <SCORE.SYSTEM.DIHEDRAL>
0

>  <SCORE.SYSTEM.SOLV>
0

>  <SCORE.SYSTEM.norm>
0

>  <SCORE.heavy>
41

>  <SCORE.norm>
-0.263333

>  <RMSD>
1.026

$$$$
ligand
 OpenBabel11021811423D
libRbt.so/2013.1/901 2013/11/27
 41 45  0  0  0  0  0  0  0  0999 V2000
   34.7920   39.2785    4.8291 C   0  0  2  0  0  0  0  0  0  0  0  0
   34.3655   39.3124    6.2051 O   0  0  0  0  0  0  0  0  0  0  0  0
   34.1442   36.4233    9.4488 C   0  0  2  0  0  0  0  0  0  0  0  0
   33.8569   35.1597   10.1755 N   0  0  0  0  0  0  0  0  0  0  0  0
   38.0018   37.8306    6.9966 C   0  0  1  0  0  0  0  0  0  0  0  0
   41.9586   39.9792    6.2557 C   0  0  1  0  0  0  0  0  0  0  0  0
   35.5833   40.5675    4.4549 C   0  0  2  0  0  0  0  0  0  0  0  0
   36.7090   40.8291    5.3567 N   0  0  0  0  0  0  0  0  0  0  0  0
   32.8302   36.9296    8.7742 C   0  0  0  0  0  0  0  0  0  0  0  0
   39.0459   37.4240    5.9316 C   0  0  2  0  0  0  0  0  0  0  0  0
   39.8871   36.3601    6.3890 O   0  0  0  0  0  0  0  0  0  0  0  0
   43.3586   39.7807    6.9788 C   0  0  2  0  0  0  0  0  0  0  0  0
   43.2522   39.4094    8.4230 N   0  0  0  0  0  0  0  0  0  0  0  0
   34.6306   41.7930    4.4264 C   0  0  1  0  0  0  0  0  0  0  0  0
   35.3530   42.9647    4.0575 O   0  0  0  0  0  0  0  0  0  0  0  0
   33.0722   38.2514    7.9891 C   0  0  2  0  0  0  0  0  0  0  0  0
   31.7873   38.6649    7.3942 N   0  0  0  0  0  0  0  0  0  0  0  0
   39.8239   38.7182    5.6388 C   0  0  2  0  0  0  0  0  0  0  0  0
   41.0897   38.7993    6.4074 O   0  0  0  0  0  0  0  0  0  0  0  0
   44.2386   41.1028    6.8258 C   0  0  1  0  0  0  0  0  0  0  0  0
   44.6279   41.3159    5.4511 O   0  0  0  0  0  0  0  0  0  0  0  0
   33.4734   41.5312    3.4348 C   0  0  2  0  0  0  0  0  0  0  0  0
   32.6120   42.6493    3.3906 O   0  0  0  0  0  0  0  0  0  0  0  0
   34.1947   38.0398    6.9123 C   0  0  2  0  0  0  0  0  0  0  0  0
   38.8545   39.8277    6.0367 C   0  0  2  0  0  0  0  0  0  0  0  0
   37.9718   39.2589    6.9934 O   0  0  0  0  0  0  0  0  0  0  0  0
   43.4771   42.3893    7.3421 C   0  0  2  0  0  0  0  0  0  0  0  0
   43.3078   42.2988    8.7667 O   0  0  0  0  0  0  0  0  0  0  0  0
   32.6968   40.2648    3.8470 C   0  0  2  0  0  0  0  0  0  0  0  0
   33.6479   39.1324    3.8989 O   0  0  0  0  0  0  0  0  0  0  0  0
   35.5504   37.5574    7.6348 C   0  0  2  0  0  0  0  0  0  0  0  0
   36.6570   37.3021    6.6735 O   0  0  0  0  0  0  0  0  0  0  0  0
   38.0138   40.3511    4.8814 C   0  0  0  0  0  0  0  0  0  0  0  0
   42.0749   42.5086    6.6183 C   0  0  1  0  0  0  0  0  0  0  0  0
   41.2791   41.2392    6.7298 O   0  0  0  0  0  0  0  0  0  0  0  0
   31.5580   39.9996    2.8348 C   0  0  0  0  0  0  0  0  0  0  0  0
   30.4718   40.9966    2.8462 N   0  0  0  0  0  0  0  0  0  0  0  0
   35.2902   36.2321    8.3822 C   0  0  1  0  0  0  0  0  0  0  0  0
   36.4951   35.8016    9.0237 O   0  0  0  0  0  0  0  0  0  0  0  0
   41.2208   43.7397    7.1106 C   0  0  0  0  0  0  0  0  0  0  0  0
   41.8830   45.0807    7.0304 N   0  0  0  0  0  0  0  0  0  0  0  0
  1  2  1  1  0  0  0
  1  7  1  0  0  0  0
  1 30  1  0  0  0  0
  3  4  1  6  0  0  0
  3  9  1  0  0  0  0
  3 38  1  0  0  0  0
  5 10  1  0  0  0  0
  5 26  1  6  0  0  0
  5 32  1  0  0  0  0
  6 12  1  0  0  0  0
  6 35  1  0  0  0  0
  6 19  1  1  0  0  0
  7  8  1  1  0  0  0
  7 14  1  0  0  0  0
  8 33  1  0  0  0  0
  9 16  1  0  0  0  0
 10 11  1  1  0  0  0
 10 18  1  0  0  0  0
 12 13  1  1  0  0  0
 12 20  1  0  0  0  0
 14 15  1  6  0  0  0
 14 22  1  0  0  0  0
 16 17  1  6  0  0  0
 16 24  1  0  0  0  0
 18 19  1  1  0  0  0
 18 25  1  0  0  0  0
 20 21  1  6  0  0  0
 20 27  1  0  0  0  0
 22 23  1  1  0  0  0
 22 29  1  0  0  0  0
 24  2  1  1  0  0  0
 24 31  1  0  0  0  0
 25 26  1  1  0  0  0
 25 33  1  0  0  0  0
 27 28  1  1  0  0  0
 27 34  1  0  0  0  0
 29 30  1  0  0  0  0
 29 36  1  6  0  0  0
 31 32  1  6  0  0  0
 31 38  1  0  0  0  0
 34 35  1  0  0  0  0
 34 40  1  1  0  0  0
 36 37  1  0  0  0  0
 38 39  1  1  0  0  0
 40 41  1  0  0  0  0
M  END
>  <CHROM.1>
-179.59833516,-171.19935825,-67.68191888,54.76464465,37.41643923,39.69375230
6.30593503,3.04116963,0.23016703,2.52902130

>  <Name>
ligand

>  <RI>
0

>  <Rbt.Current_Directory>
/home/itssahil/PROJECTS/Mol_Feturizer/New_Systems/rnas/1ZZ5

>  <Rbt.Executable>
rbdock ($Id: //depot/dev/client3/rdock/2013.1/src/exe/rbdock.cxx#4 $)

>  <Rbt.Library>
libRbt.so (2013.1, Build901 2013/11/27)

>  <Rbt.Parameter_File>
/export/apps/rDock/src/rDock_2013.1_src/data/scripts/dock_solv.prm

>  <Rbt.Receptor>
prm/pocket_docking_2.prm

>  <SCORE>
-9.7773

>  <SCORE.INTER>
-8.10465

>  <SCORE.INTER.CONST>
1

>  <SCORE.INTER.POLAR>
0

>  <SCORE.INTER.ROT>
4

>  <SCORE.INTER.SOLV>
17.468

>  <SCORE.INTER.VDW>
-17.4924

>  <SCORE.INTER.norm>
-0.197674

>  <SCORE.INTRA>
-1.67265

>  <SCORE.INTRA.DIHEDRAL>
-4.265

>  <SCORE.INTRA.DIHEDRAL.0>
5.18357

>  <SCORE.INTRA.POLAR>
0

>  <SCORE.INTRA.POLAR.0>
0

>  <SCORE.INTRA.REPUL>
0

>  <SCORE.INTRA.REPUL.0>
0

>  <SCORE.INTRA.SOLV>
0.14613

>  <SCORE.INTRA.SOLV.lig_0>
-109.973

>  <SCORE.INTRA.VDW>
0.386792

>  <SCORE.INTRA.VDW.0>
-1.68646

>  <SCORE.INTRA.norm>
-0.0407962

>  <SCORE.RESTR>
0

>  <SCORE.RESTR.CAVITY>
0

>  <SCORE.RESTR.norm>
0

>  <SCORE.SYSTEM>
0

>  <SCORE.SYSTEM.CONST>
0

>  <SCORE.SYSTEM.DIHEDRAL>
0

>  <SCORE.SYSTEM.SOLV>
0

>  <SCORE.SYSTEM.norm>
0

>  <SCORE.heavy>
41

>  <SCORE.norm>
-0.238471

>  <RMSD>
1.063

$$$$
ligand
 OpenBabel11021811423D
libRbt.so/2013.1/901 2013/11/27
 41 45  0  0  0  0  0  0  0  0999 V2000
   35.0951   39.5641    4.7317 C   0  0  2  0  0  0  0  0  0  0  0  0
   34.7136   39.4778    6.1186 O   0  0  0  0  0  0  0  0  0  0  0  0
   34.3088   36.2653    9.0228 C   0  0  2  0  0  0  0  0  0  0  0  0
   33.9222   34.9581    9.6135 N   0  0  0  0  0  0  0  0  0  0  0  0
   38.2118   37.5850    6.5938 C   0  0  1  0  0  0  0  0  0  0  0  0
   42.4259   39.3157    5.7594 C   0  0  1  0  0  0  0  0  0  0  0  0
   35.9957   40.8092    4.4740 C   0  0  2  0  0  0  0  0  0  0  0  0
   37.1669   40.8597    5.3543 N   0  0  0  0  0  0  0  0  0  0  0  0
   33.0307   36.9655    8.4620 C   0  0  0  0  0  0  0  0  0  0  0  0
   39.1809   37.2098    5.4494 C   0  0  2  0  0  0  0  0  0  0  0  0
   39.9286   36.0270    5.7504 O   0  0  0  0  0  0  0  0  0  0  0  0
   43.7744   38.9221    6.5001 C   0  0  2  0  0  0  0  0  0  0  0  0
   43.6176   38.6837    7.9675 N   0  0  0  0  0  0  0  0  0  0  0  0
   35.1649   42.1124    4.6213 C   0  0  1  0  0  0  0  0  0  0  0  0
   35.9858   43.2473    4.3582 O   0  0  0  0  0  0  0  0  0  0  0  0
   33.3761   38.3413    7.8217 C   0  0  2  0  0  0  0  0  0  0  0  0
   32.1204   38.9377    7.3284 N   0  0  0  0  0  0  0  0  0  0  0  0
   40.0710   38.4519    5.2735 C   0  0  2  0  0  0  0  0  0  0  0  0
   41.3603   38.3262    5.9956 O   0  0  0  0  0  0  0  0  0  0  0  0
   44.8765   40.0488    6.2520 C   0  0  1  0  0  0  0  0  0  0  0  0
   45.2839   40.0861    4.8665 O   0  0  0  0  0  0  0  0  0  0  0  0
   33.9599   42.0751    3.6531 C   0  0  2  0  0  0  0  0  0  0  0  0
   33.2091   43.2655    3.7691 O   0  0  0  0  0  0  0  0  0  0  0  0
   34.4416   38.1531    6.6844 C   0  0  2  0  0  0  0  0  0  0  0  0
   39.2248   39.5926    5.8318 C   0  0  2  0  0  0  0  0  0  0  0  0
   38.3192   39.0007    6.7525 O   0  0  0  0  0  0  0  0  0  0  0  0
   44.3643   41.4861    6.6684 C   0  0  2  0  0  0  0  0  0  0  0  0
   44.1959   41.5332    8.0952 O   0  0  0  0  0  0  0  0  0  0  0  0
   33.0773   40.8466    3.9506 C   0  0  2  0  0  0  0  0  0  0  0  0
   33.9160   39.6329    3.8371 O   0  0  0  0  0  0  0  0  0  0  0  0
   35.7648   37.4672    7.2937 C   0  0  2  0  0  0  0  0  0  0  0  0
   36.8137   37.2238    6.2668 O   0  0  0  0  0  0  0  0  0  0  0  0
   38.4055   40.3215    4.7769 C   0  0  0  0  0  0  0  0  0  0  0  0
   42.9993   41.8025    5.9329 C   0  0  1  0  0  0  0  0  0  0  0  0
   41.9891   40.7091    6.1360 O   0  0  0  0  0  0  0  0  0  0  0  0
   31.8896   40.8066    2.9609 C   0  0  0  0  0  0  0  0  0  0  0  0
   30.9363   39.7029    3.1784 N   0  0  0  0  0  0  0  0  0  0  0  0
   35.3999   36.0940    7.8970 C   0  0  1  0  0  0  0  0  0  0  0  0
   36.5758   35.4828    8.4378 O   0  0  0  0  0  0  0  0  0  0  0  0
   42.3857   43.2003    6.3293 C   0  0  0  0  0  0  0  0  0  0  0  0
   43.2548   44.3970    6.0927 N   0  0  0  0  0  0  0  0  0  0  0  0
  1  2  1  1  0  0  0
  1  7  1  0  0  0  0
  1 30  1  0  0  0  0
  3  4  1  6  0  0  0
  3  9  1  0  0  0  0
  3 38  1  0  0  0  0
  5 10  1  0  0  0  0
  5 26  1  6  0  0  0
  5 32  1  0  0  0  0
  6 12  1  0  0  0  0
  6 35  1  0  0  0  0
  6 19  1  1  0  0  0
  7  8  1  1  0  0  0
  7 14  1  0  0  0  0
  8 33  1  0  0  0  0
  9 16  1  0  0  0  0
 10 11  1  1  0  0  0
 10 18  1  0  0  0  0
 12 13  1  1  0  0  0
 12 20  1  0  0  0  0
 14 15  1  6  0  0  0
 14 22  1  0  0  0  0
 16 17  1  6  0  0  0
 16 24  1  0  0  0  0
 18 19  1  1  0  0  0
 18 25  1  0  0  0  0
 20 21  1  6  0  0  0
 20 27  1  0  0  0  0
 22 23  1  1  0  0  0
 22 29  1  0  0  0  0
 24  2  1  1  0  0  0
 24 31  1  0  0  0  0
 25 26  1  1  0  0  0
 25 33  1  0  0  0  0
 27 28  1  1  0  0  0
 27 34  1  0  0  0  0
 29 30  1  0  0  0  0
 29 36  1  6  0  0  0
 31 32  1  6  0  0  0
 31 38  1  0  0  0  0
 34 35  1  0  0  0  0
 34 40  1  1  0  0  0
 36 37  1  0  0  0  0
 38 39  1  1  0  0  0
 40 41  1  0  0  0  0
M  END
>  <CHROM.1>
169.85238401,-173.80259968,-177.59495640,57.47783578,37.84627768,39.49521484
6.01445797,3.05149847,0.12198864,2.60521095

>  <Name>
ligand

>  <RI>
0

>  <Rbt.Current_Directory>
/home/itssahil/PROJECTS/Mol_Feturizer/New_Systems/rnas/1ZZ5

>  <Rbt.Executable>
rbdock ($Id: //depot/dev/client3/rdock/2013.1/src/exe/rbdock.cxx#4 $)

>  <Rbt.Library>
libRbt.so (2013.1, Build901 2013/11/27)

>  <Rbt.Parameter_File>
/export/apps/rDock/src/rDock_2013.1_src/data/scripts/dock_solv.prm

>  <Rbt.Receptor>
prm/pocket_docking_3.prm

>  <SCORE>
-11.4272

>  <SCORE.INTER>
-8.8991

>  <SCORE.INTER.CONST>
1

>  <SCORE.INTER.POLAR>
0

>  <SCORE.INTER.ROT>
4

>  <SCORE.INTER.SOLV>
18.6367

>  <SCORE.INTER.VDW>
-18.4116

>  <SCORE.INTER.norm>
-0.217051

>  <SCORE.INTRA>
-2.52809

>  <SCORE.INTRA.DIHEDRAL>
-4.22724

>  <SCORE.INTRA.DIHEDRAL.0>
5.18357

>  <SCORE.INTRA.POLAR>
0

>  <SCORE.INTRA.POLAR.0>
0

>  <SCORE.INTRA.REPUL>
0

>  <SCORE.INTRA.REPUL.0>
0

>  <SCORE.INTRA.SOLV>
-1.11057

>  <SCORE.INTRA.SOLV.lig_0>
-109.973

>  <SCORE.INTRA.VDW>
0.140816

>  <SCORE.INTRA.VDW.0>
-1.68646

>  <SCORE.INTRA.norm>
-0.0616607

>  <SCORE.RESTR>
0

>  <SCORE.RESTR.CAVITY>
0

>  <SCORE.RESTR.norm>
0

>  <SCORE.SYSTEM>
0

>  <SCORE.SYSTEM.CONST>
0

>  <SCORE.SYSTEM.DIHEDRAL>
0

>  <SCORE.SYSTEM.SOLV>
0

>  <SCORE.SYSTEM.norm>
0

>  <SCORE.heavy>
41

>  <SCORE.norm>
-0.278712

>  <RMSD>
1.085

$$$$
ligand
 OpenBabel11021811423D
libRbt.so/2013.1/901 2013/11/27
 41 45  0  0  0  0  0  0  0  0999 V2000
   34.4664   39.1291    5.1810 C   0  0  2  0  0  0  0  0  0  0  0  0
   34.0436   39.2027    6.5566 O   0  0  0  0  0  0  0  0  0  0  0  0
   33.4435   36.3311    9.7678 C   0  0  2  0  0  0  0  0  0  0  0  0
   32.9941   35.1071   10.4800 N   0  0  0  0  0  0  0  0  0  0  0  0
   37.4573   37.2580    7.3377 C   0  0  1  0  0  0  0  0  0  0  0  0
   41.7680   38.7224    6.4297 C   0  0  1  0  0  0  0  0  0  0  0  0
   35.4177   40.3099    4.8224 C   0  0  2  0  0  0  0  0  0  0  0  0
   36.5650   40.4152    5.7290 N   0  0  0  0  0  0  0  0  0  0  0  0
   32.2074   37.0091    9.0966 C   0  0  0  0  0  0  0  0  0  0  0  0
   38.4438   36.7323    6.2700 C   0  0  2  0  0  0  0  0  0  0  0  0
   39.1402   35.5644    6.7170 O   0  0  0  0  0  0  0  0  0  0  0  0
   43.1226   38.2537    7.1135 C   0  0  2  0  0  0  0  0  0  0  0  0
   43.0313   38.0848    8.5960 N   0  0  0  0  0  0  0  0  0  0  0  0
   34.6302   41.6477    4.8060 C   0  0  1  0  0  0  0  0  0  0  0  0
   35.4981   42.7210    4.4512 O   0  0  0  0  0  0  0  0  0  0  0  0
   32.6194   38.2973    8.3266 C   0  0  2  0  0  0  0  0  0  0  0  0
   31.4000   38.8787    7.7342 N   0  0  0  0  0  0  0  0  0  0  0  0
   39.3824   37.9191    5.9928 C   0  0  2  0  0  0  0  0  0  0  0  0
   40.6457   37.8287    6.7644 O   0  0  0  0  0  0  0  0  0  0  0  0
   44.2910   39.2808    6.7591 C   0  0  1  0  0  0  0  0  0  0  0  0
   44.6211   39.2331    5.3536 O   0  0  0  0  0  0  0  0  0  0  0  0
   33.4521   41.5473    3.8096 C   0  0  2  0  0  0  0  0  0  0  0  0
   32.7414   42.7671    3.7763 O   0  0  0  0  0  0  0  0  0  0  0  0
   33.7088   37.9550    7.2494 C   0  0  2  0  0  0  0  0  0  0  0  0
   38.5621   39.1395    6.4014 C   0  0  2  0  0  0  0  0  0  0  0  0
   37.6107   38.6783    7.3503 O   0  0  0  0  0  0  0  0  0  0  0  0
   43.9134   40.7686    7.1406 C   0  0  2  0  0  0  0  0  0  0  0  0
   43.8298   40.8833    8.5711 O   0  0  0  0  0  0  0  0  0  0  0  0
   32.5182   40.3867    4.2064 C   0  0  2  0  0  0  0  0  0  0  0  0
   33.3159   39.1411    4.2474 O   0  0  0  0  0  0  0  0  0  0  0  0
   34.9891   37.2948    7.9688 C   0  0  2  0  0  0  0  0  0  0  0  0
   36.0568   36.9100    7.0066 O   0  0  0  0  0  0  0  0  0  0  0  0
   37.7991   39.7788    5.2506 C   0  0  0  0  0  0  0  0  0  0  0  0
   42.5368   41.1618    6.4663 C   0  0  1  0  0  0  0  0  0  0  0  0
   41.4599   40.1590    6.7694 O   0  0  0  0  0  0  0  0  0  0  0  0
   31.3579   40.2807    3.1895 C   0  0  0  0  0  0  0  0  0  0  0  0
   31.7400   39.7645    1.8622 N   0  0  0  0  0  0  0  0  0  0  0  0
   34.5587   36.0059    8.7010 C   0  0  1  0  0  0  0  0  0  0  0  0
   35.6965   35.4175    9.3397 O   0  0  0  0  0  0  0  0  0  0  0  0
   42.0541   42.6173    6.8348 C   0  0  0  0  0  0  0  0  0  0  0  0
   40.9033   43.1550    6.0411 N   0  0  0  0  0  0  0  0  0  0  0  0
  1  2  1  1  0  0  0
  1  7  1  0  0  0  0
  1 30  1  0  0  0  0
  3  4  1  6  0  0  0
  3  9  1  0  0  0  0
  3 38  1  0  0  0  0
  5 10  1  0  0  0  0
  5 26  1  6  0  0  0
  5 32  1  0  0  0  0
  6 12  1  0  0  0  0
  6 35  1  0  0  0  0
  6 19  1  1  0  0  0
  7  8  1  1  0  0  0
  7 14  1  0  0  0  0
  8 33  1  0  0  0  0
  9 16  1  0  0  0  0
 10 11  1  1  0  0  0
 10 18  1  0  0  0  0
 12 13  1  1  0  0  0
 12 20  1  0  0  0  0
 14 15  1  6  0  0  0
 14 22  1  0  0  0  0
 16 17  1  6  0  0  0
 16 24  1  0  0  0  0
 18 19  1  1  0  0  0
 18 25  1  0  0  0  0
 20 21  1  6  0  0  0
 20 27  1  0  0  0  0
 22 23  1  1  0  0  0
 22 29  1  0  0  0  0
 24  2  1  1  0  0  0
 24 31  1  0  0  0  0
 25 26  1  1  0  0  0
 25 33  1  0  0  0  0
 27 28  1  1  0  0  0
 27 34  1  0  0  0  0
 29 30  1  0  0  0  0
 29 36  1  6  0  0  0
 31 32  1  6  0  0  0
 31 38  1  0  0  0  0
 34 35  1  0  0  0  0
 34 40  1  1  0  0  0
 36 37  1  0  0  0  0
 38 39  1  1  0  0  0
 40 41  1  0  0  0  0
M  END
>  <CHROM.1>
167.83972939,-166.45292145,71.77121560,168.92738031,37.19481685,39.07292755
6.49326659,3.13846731,0.11619148,2.45477516

>  <Name>
ligand

>  <RI>
0

>  <Rbt.Current_Directory>
/home/itssahil/PROJECTS/Mol_Feturizer/New_Systems/rnas/1ZZ5

>  <Rbt.Executable>
rbdock ($Id: //depot/dev/client3/rdock/2013.1/src/exe/rbdock.cxx#4 $)

>  <Rbt.Library>
libRbt.so (2013.1, Build901 2013/11/27)

>  <Rbt.Parameter_File>
/export/apps/rDock/src/rDock_2013.1_src/data/scripts/dock_solv.prm

>  <Rbt.Receptor>
prm/pocket_docking_2.prm

>  <SCORE>
-7.54003

>  <SCORE.INTER>
-6.06442

>  <SCORE.INTER.CONST>
1

>  <SCORE.INTER.POLAR>
0

>  <SCORE.INTER.ROT>
4

>  <SCORE.INTER.SOLV>
21.4232

>  <SCORE.INTER.VDW>
-17.4507

>  <SCORE.INTER.norm>
-0.147913

>  <SCORE.INTRA>
-1.49947

>  <SCORE.INTRA.DIHEDRAL>
-2.48323

>  <SCORE.INTRA.DIHEDRAL.0>
5.18357

>  <SCORE.INTRA.POLAR>
0

>  <SCORE.INTRA.POLAR.0>
0

>  <SCORE.INTRA.REPUL>
0

>  <SCORE.INTRA.REPUL.0>
0

>  <SCORE.INTRA.SOLV>
-0.523372

>  <SCORE.INTRA.SOLV.lig_0>
-109.973

>  <SCORE.INTRA.VDW>
0.00382877

>  <SCORE.INTRA.VDW.0>
-1.68646

>  <SCORE.INTRA.norm>
-0.0365725

>  <SCORE.RESTR>
0.0238702

>  <SCORE.RESTR.CAVITY>
0.0238702

>  <SCORE.RESTR.norm>
0.000582201

>  <SCORE.SYSTEM>
0

>  <SCORE.SYSTEM.CONST>
0

>  <SCORE.SYSTEM.DIHEDRAL>
0

>  <SCORE.SYSTEM.SOLV>
0

>  <SCORE.SYSTEM.norm>
0

>  <SCORE.heavy>
41

>  <SCORE.norm>
-0.183903

>  <RMSD>
1.088

$$$$
ligand
 OpenBabel11021811423D
libRbt.so/2013.1/901 2013/11/27
 41 45  0  0  0  0  0  0  0  0999 V2000
   34.8772   39.2920    4.7635 C   0  0  2  0  0  0  0  0  0  0  0  0
   34.5344   39.2930    6.1632 O   0  0  0  0  0  0  0  0  0  0  0  0
   34.2094   36.2685    9.2719 C   0  0  2  0  0  0  0  0  0  0  0  0
   33.8389   35.0013    9.9534 N   0  0  0  0  0  0  0  0  0  0  0  0
   38.0438   37.4264    6.6583 C   0  0  1  0  0  0  0  0  0  0  0  0
   42.2208   39.1154    5.6281 C   0  0  1  0  0  0  0  0  0  0  0  0
   35.7707   40.5168    4.4038 C   0  0  2  0  0  0  0  0  0  0  0  0
   36.9659   40.6196    5.2465 N   0  0  0  0  0  0  0  0  0  0  0  0
   32.9164   36.9349    8.7042 C   0  0  0  0  0  0  0  0  0  0  0  0
   38.9806   36.9787    5.5130 C   0  0  2  0  0  0  0  0  0  0  0  0
   39.7361   35.8155    5.8664 O   0  0  0  0  0  0  0  0  0  0  0  0
   43.6169   38.7181    6.2723 C   0  0  2  0  0  0  0  0  0  0  0  0
   43.5602   38.4679    7.7451 N   0  0  0  0  0  0  0  0  0  0  0  0
   34.9447   41.8284    4.4927 C   0  0  1  0  0  0  0  0  0  0  0  0
   35.7583   42.9430    4.1368 O   0  0  0  0  0  0  0  0  0  0  0  0
   33.2443   38.2675    7.9701 C   0  0  2  0  0  0  0  0  0  0  0  0
   31.9755   38.8345    7.4755 N   0  0  0  0  0  0  0  0  0  0  0  0
   39.8659   38.2056    5.2355 C   0  0  2  0  0  0  0  0  0  0  0  0
   41.1747   38.1226    5.9281 O   0  0  0  0  0  0  0  0  0  0  0  0
   44.6986   39.8484    5.9590 C   0  0  1  0  0  0  0  0  0  0  0  0
   45.0110   39.8972    4.5495 O   0  0  0  0  0  0  0  0  0  0  0  0
   33.7133   41.7333    3.5624 C   0  0  2  0  0  0  0  0  0  0  0  0
   32.9663   42.9301    3.6248 O   0  0  0  0  0  0  0  0  0  0  0  0
   34.2778   38.0066    6.8176 C   0  0  2  0  0  0  0  0  0  0  0  0
   39.0358   39.3806    5.7449 C   0  0  2  0  0  0  0  0  0  0  0  0
   38.1560   38.8490    6.7254 O   0  0  0  0  0  0  0  0  0  0  0  0
   44.2144   41.2815    6.4207 C   0  0  2  0  0  0  0  0  0  0  0  0
   44.1431   41.3171    7.8560 O   0  0  0  0  0  0  0  0  0  0  0  0
   32.8388   40.5275    3.9602 C   0  0  2  0  0  0  0  0  0  0  0  0
   33.6738   39.3074    3.8993 O   0  0  0  0  0  0  0  0  0  0  0  0
   35.6172   37.3573    7.4317 C   0  0  2  0  0  0  0  0  0  0  0  0
   36.6370   37.0484    6.3932 O   0  0  0  0  0  0  0  0  0  0  0  0
   38.1877   40.0441    4.6697 C   0  0  0  0  0  0  0  0  0  0  0  0
   42.8024   41.6017    5.7821 C   0  0  1  0  0  0  0  0  0  0  0  0
   41.8093   40.5052    6.0445 O   0  0  0  0  0  0  0  0  0  0  0  0
   31.6241   40.4284    3.0081 C   0  0  0  0  0  0  0  0  0  0  0  0
   30.6775   39.3415    3.3196 N   0  0  0  0  0  0  0  0  0  0  0  0
   35.2687   36.0251    8.1291 C   0  0  1  0  0  0  0  0  0  0  0  0
   36.4590   35.4464    8.6742 O   0  0  0  0  0  0  0  0  0  0  0  0
   42.2157   42.9954    6.2303 C   0  0  0  0  0  0  0  0  0  0  0  0
   43.0615   44.1961    5.9366 N   0  0  0  0  0  0  0  0  0  0  0  0
  1  2  1  1  0  0  0
  1  7  1  0  0  0  0
  1 30  1  0  0  0  0
  3  4  1  6  0  0  0
  3  9  1  0  0  0  0
  3 38  1  0  0  0  0
  5 10  1  0  0  0  0
  5 26  1  6  0  0  0
  5 32  1  0  0  0  0
  6 12  1  0  0  0  0
  6 35  1  0  0  0  0
  6 19  1  1  0  0  0
  7  8  1  1  0  0  0
  7 14  1  0  0  0  0
  8 33  1  0  0  0  0
  9 16  1  0  0  0  0
 10 11  1  1  0  0  0
 10 18  1  0  0  0  0
 12 13  1  1  0  0  0
 12 20  1  0  0  0  0
 14 15  1  6  0  0  0
 14 22  1  0  0  0  0
 16 17  1  6  0  0  0
 16 24  1  0  0  0  0
 18 19  1  1  0  0  0
 18 25  1  0  0  0  0
 20 21  1  6  0  0  0
 20 27  1  0  0  0  0
 22 23  1  1  0  0  0
 22 29  1  0  0  0  0
 24  2  1  1  0  0  0
 24 31  1  0  0  0  0
 25 26  1  1  0  0  0
 25 33  1  0  0  0  0
 27 28  1  1  0  0  0
 27 34  1  0  0  0  0
 29 30  1  0  0  0  0
 29 36  1  6  0  0  0
 31 32  1  6  0  0  0
 31 38  1  0  0  0  0
 34 35  1  0  0  0  0
 34 40  1  1  0  0  0
 36 37  1  0  0  0  0
 38 39  1  1  0  0  0
 40 41  1  0  0  0  0
M  END
>  <CHROM.1>
171.50912474,-170.21160652,-177.64553301,57.86970069,37.66539877,39.29297385
5.99662034,3.04587567,0.10370873,2.54961680

>  <Name>
ligand

>  <RI>
0

>  <Rbt.Current_Directory>
/home/itssahil/PROJECTS/Mol_Feturizer/New_Systems/rnas/1ZZ5

>  <Rbt.Executable>
rbdock ($Id: //depot/dev/client3/rdock/2013.1/src/exe/rbdock.cxx#4 $)

>  <Rbt.Library>
libRbt.so (2013.1, Build901 2013/11/27)

>  <Rbt.Parameter_File>
/export/apps/rDock/src/rDock_2013.1_src/data/scripts/dock_solv.prm

>  <Rbt.Receptor>
prm/pocket_docking_4.prm

>  <SCORE>
-11.4287

>  <SCORE.INTER>
-8.96877

>  <SCORE.INTER.CONST>
1

>  <SCORE.INTER.POLAR>
0

>  <SCORE.INTER.ROT>
4

>  <SCORE.INTER.SOLV>
18.9728

>  <SCORE.INTER.VDW>
-18.5701

>  <SCORE.INTER.norm>
-0.218751

>  <SCORE.INTRA>
-2.45994

>  <SCORE.INTRA.DIHEDRAL>
-4.11178

>  <SCORE.INTRA.DIHEDRAL.0>
5.18357

>  <SCORE.INTRA.POLAR>
0

>  <SCORE.INTRA.POLAR.0>
0

>  <SCORE.INTRA.REPUL>
0

>  <SCORE.INTRA.REPUL.0>
0

>  <SCORE.INTRA.SOLV>
-1.13115

>  <SCORE.INTRA.SOLV.lig_0>
-109.973

>  <SCORE.INTRA.VDW>
0.161528

>  <SCORE.INTRA.VDW.0>
-1.68646

>  <SCORE.INTRA.norm>
-0.0599985

>  <SCORE.RESTR>
0

>  <SCORE.RESTR.CAVITY>
0

>  <SCORE.RESTR.norm>
0

>  <SCORE.SYSTEM>
0

>  <SCORE.SYSTEM.CONST>
0

>  <SCORE.SYSTEM.DIHEDRAL>
0

>  <SCORE.SYSTEM.SOLV>
0

>  <SCORE.SYSTEM.norm>
0

>  <SCORE.heavy>
41

>  <SCORE.norm>
-0.278749

>  <RMSD>
1.092

$$$$
ligand
 OpenBabel11021811423D
libRbt.so/2013.1/901 2013/11/27
 41 45  0  0  0  0  0  0  0  0999 V2000
   34.9233   39.2304    4.8017 C   0  0  2  0  0  0  0  0  0  0  0  0
   34.5638   39.2387    6.1971 O   0  0  0  0  0  0  0  0  0  0  0  0
   34.2357   36.2356    9.3262 C   0  0  2  0  0  0  0  0  0  0  0  0
   33.8714   34.9699   10.0136 N   0  0  0  0  0  0  0  0  0  0  0  0
   38.0878   37.4158    6.7487 C   0  0  1  0  0  0  0  0  0  0  0  0
   42.2599   39.1397    5.7496 C   0  0  1  0  0  0  0  0  0  0  0  0
   35.8072   40.4623    4.4426 C   0  0  2  0  0  0  0  0  0  0  0  0
   36.9911   40.5853    5.2985 N   0  0  0  0  0  0  0  0  0  0  0  0
   32.9423   36.8829    8.7379 C   0  0  0  0  0  0  0  0  0  0  0  0
   39.0431   36.9695    5.6182 C   0  0  2  0  0  0  0  0  0  0  0  0
   39.8072   35.8177    5.9899 O   0  0  0  0  0  0  0  0  0  0  0  0
   43.6451   38.7763    6.4361 C   0  0  2  0  0  0  0  0  0  0  0  0
   43.5565   38.5619    7.9129 N   0  0  0  0  0  0  0  0  0  0  0  0
   34.9656   41.7651    4.5111 C   0  0  1  0  0  0  0  0  0  0  0  0
   35.7709   42.8860    4.1558 O   0  0  0  0  0  0  0  0  0  0  0  0
   33.2639   38.2132    7.9970 C   0  0  2  0  0  0  0  0  0  0  0  0
   31.9949   38.7619    7.4829 N   0  0  0  0  0  0  0  0  0  0  0  0
   39.9178   38.2041    5.3412 C   0  0  2  0  0  0  0  0  0  0  0  0
   41.2192   38.1413    6.0498 O   0  0  0  0  0  0  0  0  0  0  0  0
   44.7200   39.9122    6.1200 C   0  0  1  0  0  0  0  0  0  0  0  0
   45.0650   39.9302    4.7173 O   0  0  0  0  0  0  0  0  0  0  0  0
   33.7465   41.6488    3.5672 C   0  0  2  0  0  0  0  0  0  0  0  0
   32.9856   42.8376    3.6110 O   0  0  0  0  0  0  0  0  0  0  0  0
   34.3139   37.9548    6.8589 C   0  0  2  0  0  0  0  0  0  0  0  0
   39.0687   39.3736    5.8312 C   0  0  2  0  0  0  0  0  0  0  0  0
   38.1833   38.8400    6.8056 O   0  0  0  0  0  0  0  0  0  0  0  0
   44.2076   41.3501    6.5342 C   0  0  2  0  0  0  0  0  0  0  0  0
   44.1018   41.4202    7.9661 O   0  0  0  0  0  0  0  0  0  0  0  0
   32.8809   40.4364    3.9644 C   0  0  2  0  0  0  0  0  0  0  0  0
   33.7301   39.2253    3.9233 O   0  0  0  0  0  0  0  0  0  0  0  0
   35.6530   37.3255    7.4939 C   0  0  2  0  0  0  0  0  0  0  0  0
   36.6886   37.0198    6.4701 O   0  0  0  0  0  0  0  0  0  0  0  0
   38.2261   40.0189    4.7408 C   0  0  0  0  0  0  0  0  0  0  0  0
   42.8072   41.6362    5.8549 C   0  0  1  0  0  0  0  0  0  0  0  0
   41.8217   40.5339    6.1214 O   0  0  0  0  0  0  0  0  0  0  0  0
   31.6788   40.3160    2.9989 C   0  0  0  0  0  0  0  0  0  0  0  0
   30.6973   41.4127    3.0887 N   0  0  0  0  0  0  0  0  0  0  0  0
   35.3112   35.9951    8.1981 C   0  0  1  0  0  0  0  0  0  0  0  0
   36.5013   35.4342    8.7618 O   0  0  0  0  0  0  0  0  0  0  0  0
   42.1931   43.0330    6.2543 C   0  0  0  0  0  0  0  0  0  0  0  0
   43.0386   44.2355    5.9668 N   0  0  0  0  0  0  0  0  0  0  0  0
  1  2  1  1  0  0  0
  1  7  1  0  0  0  0
  1 30  1  0  0  0  0
  3  4  1  6  0  0  0
  3  9  1  0  0  0  0
  3 38  1  0  0  0  0
  5 10  1  0  0  0  0
  5 26  1  6  0  0  0
  5 32  1  0  0  0  0
  6 12  1  0  0  0  0
  6 35  1  0  0  0  0
  6 19  1  1  0  0  0
  7  8  1  1  0  0  0
  7 14  1  0  0  0  0
  8 33  1  0  0  0  0
  9 16  1  0  0  0  0
 10 11  1  1  0  0  0
 10 18  1  0  0  0  0
 12 13  1  1  0  0  0
 12 20  1  0  0  0  0
 14 15  1  6  0  0  0
 14 22  1  0  0  0  0
 16 17  1  6  0  0  0
 16 24  1  0  0  0  0
 18 19  1  1  0  0  0
 18 25  1  0  0  0  0
 20 21  1  6  0  0  0
 20 27  1  0  0  0  0
 22 23  1  1  0  0  0
 22 29  1  0  0  0  0
 24  2  1  1  0  0  0
 24 31  1  0  0  0  0
 25 26  1  1  0  0  0
 25 33  1  0  0  0  0
 27 28  1  1  0  0  0
 27 34  1  0  0  0  0
 29 30  1  0  0  0  0
 29 36  1  6  0  0  0
 31 32  1  6  0  0  0
 31 38  1  0  0  0  0
 34 35  1  0  0  0  0
 34 40  1  1  0  0  0
 36 37  1  0  0  0  0
 38 39  1  1  0  0  0
 40 41  1  0  0  0  0
M  END
>  <CHROM.1>
171.22922085,-171.22524813,-66.72331464,57.09998739,37.69376202,39.32758003
6.05762594,3.06698078,0.10759965,2.54630401

>  <Name>
ligand

>  <RI>
0

>  <Rbt.Current_Directory>
/home/itssahil/PROJECTS/Mol_Feturizer/New_Systems/rnas/1ZZ5

>  <Rbt.Executable>
rbdock ($Id: //depot/dev/client3/rdock/2013.1/src/exe/rbdock.cxx#4 $)

>  <Rbt.Library>
libRbt.so (2013.1, Build901 2013/11/27)

>  <Rbt.Parameter_File>
/export/apps/rDock/src/rDock_2013.1_src/data/scripts/dock_solv.prm

>  <Rbt.Receptor>
prm/pocket_docking_6.prm

>  <SCORE>
-10.7068

>  <SCORE.INTER>
-8.98125

>  <SCORE.INTER.CONST>
1

>  <SCORE.INTER.POLAR>
0

>  <SCORE.INTER.ROT>
4

>  <SCORE.INTER.SOLV>
18.2588

>  <SCORE.INTER.VDW>
-18.3404

>  <SCORE.INTER.norm>
-0.219055

>  <SCORE.INTRA>
-1.72557

>  <SCORE.INTRA.DIHEDRAL>
-4.01896

>  <SCORE.INTRA.DIHEDRAL.0>
5.18357

>  <SCORE.INTRA.POLAR>
0

>  <SCORE.INTRA.POLAR.0>
0

>  <SCORE.INTRA.REPUL>
0

>  <SCORE.INTRA.REPUL.0>
0

>  <SCORE.INTRA.SOLV>
0.0711704

>  <SCORE.INTRA.SOLV.lig_0>
-109.973

>  <SCORE.INTRA.VDW>
0.248327

>  <SCORE.INTRA.VDW.0>
-1.68646

>  <SCORE.INTRA.norm>
-0.042087

>  <SCORE.RESTR>
0

>  <SCORE.RESTR.CAVITY>
0

>  <SCORE.RESTR.norm>
0

>  <SCORE.SYSTEM>
0

>  <SCORE.SYSTEM.CONST>
0

>  <SCORE.SYSTEM.DIHEDRAL>
0

>  <SCORE.SYSTEM.SOLV>
0

>  <SCORE.SYSTEM.norm>
0

>  <SCORE.heavy>
41

>  <SCORE.norm>
-0.261142

>  <RMSD>
1.097

$$$$
ligand
 OpenBabel11021811423D
libRbt.so/2013.1/901 2013/11/27
 41 45  0  0  0  0  0  0  0  0999 V2000
   34.8252   39.2293    4.8017 C   0  0  2  0  0  0  0  0  0  0  0  0
   34.5077   39.2304    6.2073 O   0  0  0  0  0  0  0  0  0  0  0  0
   34.1907   36.1996    9.3108 C   0  0  2  0  0  0  0  0  0  0  0  0
   33.8125   34.9359    9.9944 N   0  0  0  0  0  0  0  0  0  0  0  0
   37.9953   37.3064    6.6322 C   0  0  1  0  0  0  0  0  0  0  0  0
   42.1710   38.9477    5.5514 C   0  0  1  0  0  0  0  0  0  0  0  0
   35.7314   40.4411    4.4302 C   0  0  2  0  0  0  0  0  0  0  0  0
   36.9431   40.5217    5.2514 N   0  0  0  0  0  0  0  0  0  0  0  0
   32.8986   36.8886    8.7689 C   0  0  0  0  0  0  0  0  0  0  0  0
   38.9040   36.8482    5.4685 C   0  0  2  0  0  0  0  0  0  0  0  0
   39.6471   35.6718    5.8040 O   0  0  0  0  0  0  0  0  0  0  0  0
   43.5644   38.5498    6.2012 C   0  0  2  0  0  0  0  0  0  0  0  0
   43.5019   38.3001    7.6738 N   0  0  0  0  0  0  0  0  0  0  0  0
   34.9282   41.7652    4.5386 C   0  0  1  0  0  0  0  0  0  0  0  0
   35.7529   42.8682    4.1719 O   0  0  0  0  0  0  0  0  0  0  0  0
   33.2343   38.2186    8.0337 C   0  0  2  0  0  0  0  0  0  0  0  0
   31.9660   38.8076    7.5642 N   0  0  0  0  0  0  0  0  0  0  0  0
   39.8036   38.0620    5.1793 C   0  0  2  0  0  0  0  0  0  0  0  0
   41.1232   37.9555    5.8477 O   0  0  0  0  0  0  0  0  0  0  0  0
   44.6478   39.6795    5.8917 C   0  0  1  0  0  0  0  0  0  0  0  0
   44.9656   39.7278    4.4833 O   0  0  0  0  0  0  0  0  0  0  0  0
   33.6788   41.6933    3.6305 C   0  0  2  0  0  0  0  0  0  0  0  0
   32.9523   42.9016    3.7106 O   0  0  0  0  0  0  0  0  0  0  0  0
   34.2425   37.9458    6.8618 C   0  0  2  0  0  0  0  0  0  0  0  0
   39.0017   39.2480    5.7078 C   0  0  2  0  0  0  0  0  0  0  0  0
   38.1314   38.7268    6.7023 O   0  0  0  0  0  0  0  0  0  0  0  0
   44.1627   41.1131    6.3511 C   0  0  2  0  0  0  0  0  0  0  0  0
   44.0859   41.1491    7.7861 O   0  0  0  0  0  0  0  0  0  0  0  0
   32.7926   40.5001    4.0398 C   0  0  2  0  0  0  0  0  0  0  0  0
   33.6067   39.2670    3.9595 O   0  0  0  0  0  0  0  0  0  0  0  0
   35.5822   37.2729    7.4491 C   0  0  2  0  0  0  0  0  0  0  0  0
   36.5781   36.9518    6.3913 O   0  0  0  0  0  0  0  0  0  0  0  0
   38.1451   39.9290    4.6505 C   0  0  0  0  0  0  0  0  0  0  0  0
   42.7532   41.4337    5.7070 C   0  0  1  0  0  0  0  0  0  0  0  0
   41.7586   40.3378    5.9659 O   0  0  0  0  0  0  0  0  0  0  0  0
   31.5594   40.4239    3.1096 C   0  0  0  0  0  0  0  0  0  0  0  0
   30.6290   39.3175    3.4004 N   0  0  0  0  0  0  0  0  0  0  0  0
   35.2253   35.9438    8.1481 C   0  0  1  0  0  0  0  0  0  0  0  0
   36.4158   35.3442    8.6695 O   0  0  0  0  0  0  0  0  0  0  0  0
   42.1655   42.8278    6.1525 C   0  0  0  0  0  0  0  0  0  0  0  0
   43.0329   44.0232    5.9031 N   0  0  0  0  0  0  0  0  0  0  0  0
  1  2  1  1  0  0  0
  1  7  1  0  0  0  0
  1 30  1  0  0  0  0
  3  4  1  6  0  0  0
  3  9  1  0  0  0  0
  3 38  1  0  0  0  0
  5 10  1  0  0  0  0
  5 26  1  6  0  0  0
  5 32  1  0  0  0  0
  6 12  1  0  0  0  0
  6 35  1  0  0  0  0
  6 19  1  1  0  0  0
  7  8  1  1  0  0  0
  7 14  1  0  0  0  0
  8 33  1  0  0  0  0
  9 16  1  0  0  0  0
 10 11  1  1  0  0  0
 10 18  1  0  0  0  0
 12 13  1  1  0  0  0
 12 20  1  0  0  0  0
 14 15  1  6  0  0  0
 14 22  1  0  0  0  0
 16 17  1  6  0  0  0
 16 24  1  0  0  0  0
 18 19  1  1  0  0  0
 18 25  1  0  0  0  0
 20 21  1  6  0  0  0
 20 27  1  0  0  0  0
 22 23  1  1  0  0  0
 22 29  1  0  0  0  0
 24  2  1  1  0  0  0
 24 31  1  0  0  0  0
 25 26  1  1  0  0  0
 25 33  1  0  0  0  0
 27 28  1  1  0  0  0
 27 34  1  0  0  0  0
 29 30  1  0  0  0  0
 29 36  1  6  0  0  0
 31 32  1  6  0  0  0
 31 38  1  0  0  0  0
 34 35  1  0  0  0  0
 34 40  1  1  0  0  0
 36 37  1  0  0  0  0
 38 39  1  1  0  0  0
 40 41  1  0  0  0  0
M  END
>  <CHROM.1>
172.66070133,-171.96647603,179.99384459,55.90061384,37.62361484,39.18990768
5.99464305,3.04832543,0.08533098,2.55461853

>  <Name>
ligand

>  <RI>
0

>  <Rbt.Current_Directory>
/home/itssahil/PROJECTS/Mol_Feturizer/New_Systems/rnas/1ZZ5

>  <Rbt.Executable>
rbdock ($Id: //depot/dev/client3/rdock/2013.1/src/exe/rbdock.cxx#4 $)

>  <Rbt.Library>
libRbt.so (2013.1, Build901 2013/11/27)

>  <Rbt.Parameter_File>
/export/apps/rDock/src/rDock_2013.1_src/data/scripts/dock_solv.prm

>  <Rbt.Receptor>
prm/pocket_docking_6.prm

>  <SCORE>
-11.4868

>  <SCORE.INTER>
-8.95748

>  <SCORE.INTER.CONST>
1

>  <SCORE.INTER.POLAR>
0

>  <SCORE.INTER.ROT>
4

>  <SCORE.INTER.SOLV>
19.0797

>  <SCORE.INTER.VDW>
-18.5982

>  <SCORE.INTER.norm>
-0.218475

>  <SCORE.INTRA>
-2.52934

>  <SCORE.INTRA.DIHEDRAL>
-4.31656

>  <SCORE.INTRA.DIHEDRAL.0>
5.18357

>  <SCORE.INTRA.POLAR>
0

>  <SCORE.INTRA.POLAR.0>
0

>  <SCORE.INTRA.REPUL>
0

>  <SCORE.INTRA.REPUL.0>
0

>  <SCORE.INTRA.SOLV>
-1.07996

>  <SCORE.INTRA.SOLV.lig_0>
-109.973

>  <SCORE.INTRA.VDW>
0.168922

>  <SCORE.INTRA.VDW.0>
-1.68646

>  <SCORE.INTRA.norm>
-0.0616911

>  <SCORE.RESTR>
0

>  <SCORE.RESTR.CAVITY>
0

>  <SCORE.RESTR.norm>
0

>  <SCORE.SYSTEM>
0

>  <SCORE.SYSTEM.CONST>
0

>  <SCORE.SYSTEM.DIHEDRAL>
0

>  <SCORE.SYSTEM.SOLV>
0

>  <SCORE.SYSTEM.norm>
0

>  <SCORE.heavy>
41

>  <SCORE.norm>
-0.280166

>  <RMSD>
1.149

$$$$
ligand
 OpenBabel11021811423D
libRbt.so/2013.1/901 2013/11/27
 41 45  0  0  0  0  0  0  0  0999 V2000
   35.1019   39.6278    4.7488 C   0  0  2  0  0  0  0  0  0  0  0  0
   34.7525   39.5338    6.1437 O   0  0  0  0  0  0  0  0  0  0  0  0
   34.4207   36.3062    9.0402 C   0  0  2  0  0  0  0  0  0  0  0  0
   34.0503   34.9952    9.6331 N   0  0  0  0  0  0  0  0  0  0  0  0
   38.2643   37.6460    6.5290 C   0  0  1  0  0  0  0  0  0  0  0  0
   42.4519   39.3941    5.6129 C   0  0  1  0  0  0  0  0  0  0  0  0
   35.9938   40.8760    4.4767 C   0  0  2  0  0  0  0  0  0  0  0  0
   37.1848   40.9246    5.3301 N   0  0  0  0  0  0  0  0  0  0  0  0
   33.1287   37.0064    8.5124 C   0  0  0  0  0  0  0  0  0  0  0  0
   39.2076   37.2785    5.3607 C   0  0  2  0  0  0  0  0  0  0  0  0
   39.9643   36.0958    5.6386 O   0  0  0  0  0  0  0  0  0  0  0  0
   43.8288   38.9813    6.2882 C   0  0  2  0  0  0  0  0  0  0  0  0
   43.7300   38.7007    7.7532 N   0  0  0  0  0  0  0  0  0  0  0  0
   35.1641   42.1768    4.6496 C   0  0  1  0  0  0  0  0  0  0  0  0
   35.9765   43.3147    4.3735 O   0  0  0  0  0  0  0  0  0  0  0  0
   33.4566   38.3861    7.8713 C   0  0  2  0  0  0  0  0  0  0  0  0
   32.1887   38.9823    7.4099 N   0  0  0  0  0  0  0  0  0  0  0  0
   40.0910   38.5233    5.1707 C   0  0  2  0  0  0  0  0  0  0  0  0
   41.3968   38.3967    5.8624 O   0  0  0  0  0  0  0  0  0  0  0  0
   44.9198   40.1163    6.0294 C   0  0  1  0  0  0  0  0  0  0  0  0
   45.2722   40.1940    4.6306 O   0  0  0  0  0  0  0  0  0  0  0  0
   33.9373   42.1418    3.7091 C   0  0  2  0  0  0  0  0  0  0  0  0
   33.1870   43.3300    3.8483 O   0  0  0  0  0  0  0  0  0  0  0  0
   34.4961   38.2058    6.7088 C   0  0  2  0  0  0  0  0  0  0  0  0
   39.2556   39.6594    5.7540 C   0  0  2  0  0  0  0  0  0  0  0  0
   38.3726   39.0611    6.6923 O   0  0  0  0  0  0  0  0  0  0  0  0
   44.4240   41.5403    6.5068 C   0  0  2  0  0  0  0  0  0  0  0  0
   44.3120   41.5461    7.9399 O   0  0  0  0  0  0  0  0  0  0  0  0
   33.0641   40.9100    4.0206 C   0  0  2  0  0  0  0  0  0  0  0  0
   33.9024   39.6986    3.8818 O   0  0  0  0  0  0  0  0  0  0  0  0
   35.8343   37.5196    7.2842 C   0  0  2  0  0  0  0  0  0  0  0  0
   36.8598   37.2835    6.2323 O   0  0  0  0  0  0  0  0  0  0  0  0
   38.4108   40.3919    4.7218 C   0  0  0  0  0  0  0  0  0  0  0  0
   43.0309   41.8757    5.8352 C   0  0  1  0  0  0  0  0  0  0  0  0
   42.0299   40.7754    6.0464 O   0  0  0  0  0  0  0  0  0  0  0  0
   31.8541   40.8725    3.0582 C   0  0  0  0  0  0  0  0  0  0  0  0
   30.8735   39.8063    3.3340 N   0  0  0  0  0  0  0  0  0  0  0  0
   35.4860   36.1426    7.8888 C   0  0  1  0  0  0  0  0  0  0  0  0
   36.6752   35.5313    8.3994 O   0  0  0  0  0  0  0  0  0  0  0  0
   42.4330   43.2606    6.2954 C   0  0  0  0  0  0  0  0  0  0  0  0
   43.2742   44.4695    6.0226 N   0  0  0  0  0  0  0  0  0  0  0  0
  1  2  1  1  0  0  0
  1  7  1  0  0  0  0
  1 30  1  0  0  0  0
  3  4  1  6  0  0  0
  3  9  1  0  0  0  0
  3 38  1  0  0  0  0
  5 10  1  0  0  0  0
  5 26  1  6  0  0  0
  5 32  1  0  0  0  0
  6 12  1  0  0  0  0
  6 35  1  0  0  0  0
  6 19  1  1  0  0  0
  7  8  1  1  0  0  0
  7 14  1  0  0  0  0
  8 33  1  0  0  0  0
  9 16  1  0  0  0  0
 10 11  1  1  0  0  0
 10 18  1  0  0  0  0
 12 13  1  1  0  0  0
 12 20  1  0  0  0  0
 14 15  1  6  0  0  0
 14 22  1  0  0  0  0
 16 17  1  6  0  0  0
 16 24  1  0  0  0  0
 18 19  1  1  0  0  0
 18 25  1  0  0  0  0
 20 21  1  6  0  0  0
 20 27  1  0  0  0  0
 22 23  1  1  0  0  0
 22 29  1  0  0  0  0
 24  2  1  1  0  0  0
 24 31  1  0  0  0  0
 25 26  1  1  0  0  0
 25 33  1  0  0  0  0
 27 28  1  1  0  0  0
 27 34  1  0  0  0  0
 29 30  1  0  0  0  0
 29 36  1  6  0  0  0
 31 32  1  6  0  0  0
 31 38  1  0  0  0  0
 34 35  1  0  0  0  0
 34 40  1  1  0  0  0
 36 37  1  0  0  0  0
 38 39  1  1  0  0  0
 40 41  1  0  0  0  0
M  END
>  <CHROM.1>
170.21711093,-172.35385247,-174.68262542,59.22196600,37.88331670,39.55600782
5.97463611,3.04109887,0.10359695,2.61352341

>  <Name>
ligand

>  <RI>
0

>  <Rbt.Current_Directory>
/home/itssahil/PROJECTS/Mol_Feturizer/New_Systems/rnas/1ZZ5

>  <Rbt.Executable>
rbdock ($Id: //depot/dev/client3/rdock/2013.1/src/exe/rbdock.cxx#4 $)

>  <Rbt.Library>
libRbt.so (2013.1, Build901 2013/11/27)

>  <Rbt.Parameter_File>
/export/apps/rDock/src/rDock_2013.1_src/data/scripts/dock_solv.prm

>  <Rbt.Receptor>
prm/pocket_docking_5.prm

>  <SCORE>
-11.5345

>  <SCORE.INTER>
-9.04568

>  <SCORE.INTER.CONST>
1

>  <SCORE.INTER.POLAR>
0

>  <SCORE.INTER.ROT>
4

>  <SCORE.INTER.SOLV>
18.1206

>  <SCORE.INTER.VDW>
-18.3373

>  <SCORE.INTER.norm>
-0.220626

>  <SCORE.INTRA>
-2.48882

>  <SCORE.INTRA.DIHEDRAL>
-4.10955

>  <SCORE.INTRA.DIHEDRAL.0>
5.18357

>  <SCORE.INTRA.POLAR>
0

>  <SCORE.INTRA.POLAR.0>
0

>  <SCORE.INTRA.REPUL>
0

>  <SCORE.INTRA.REPUL.0>
0

>  <SCORE.INTRA.SOLV>
-1.14317

>  <SCORE.INTRA.SOLV.lig_0>
-109.973

>  <SCORE.INTRA.VDW>
0.13754

>  <SCORE.INTRA.VDW.0>
-1.68646

>  <SCORE.INTRA.norm>
-0.060703

>  <SCORE.RESTR>
0

>  <SCORE.RESTR.CAVITY>
0

>  <SCORE.RESTR.norm>
0

>  <SCORE.SYSTEM>
0

>  <SCORE.SYSTEM.CONST>
0

>  <SCORE.SYSTEM.DIHEDRAL>
0

>  <SCORE.SYSTEM.SOLV>
0

>  <SCORE.SYSTEM.norm>
0

>  <SCORE.heavy>
41

>  <SCORE.norm>
-0.281329

>  <RMSD>
1.151

$$$$
ligand
 OpenBabel11021811423D
libRbt.so/2013.1/901 2013/11/27
 41 45  0  0  0  0  0  0  0  0999 V2000
   34.8859   39.2715    4.7908 C   0  0  2  0  0  0  0  0  0  0  0  0
   34.5430   39.2697    6.1904 O   0  0  0  0  0  0  0  0  0  0  0  0
   34.2473   36.2433    9.3003 C   0  0  2  0  0  0  0  0  0  0  0  0
   33.8892   34.9729    9.9823 N   0  0  0  0  0  0  0  0  0  0  0  0
   38.0704   37.4376    6.6865 C   0  0  1  0  0  0  0  0  0  0  0  0
   42.2348   39.1603    5.6477 C   0  0  1  0  0  0  0  0  0  0  0  0
   35.7674   40.5048    4.4307 C   0  0  2  0  0  0  0  0  0  0  0  0
   36.9615   40.6196    5.2734 N   0  0  0  0  0  0  0  0  0  0  0  0
   32.9480   36.8969    8.7323 C   0  0  0  0  0  0  0  0  0  0  0  0
   39.0116   36.9986    5.5414 C   0  0  2  0  0  0  0  0  0  0  0  0
   39.7784   35.8429    5.8953 O   0  0  0  0  0  0  0  0  0  0  0  0
   43.6393   38.7634    6.2737 C   0  0  2  0  0  0  0  0  0  0  0  0
   43.6007   38.5072    7.7460 N   0  0  0  0  0  0  0  0  0  0  0  0
   34.9286   41.8082    4.5190 C   0  0  1  0  0  0  0  0  0  0  0  0
   35.7314   42.9306    4.1627 O   0  0  0  0  0  0  0  0  0  0  0  0
   33.2629   38.2323    7.9977 C   0  0  2  0  0  0  0  0  0  0  0  0
   31.9887   38.7868    7.5028 N   0  0  0  0  0  0  0  0  0  0  0  0
   39.8849   38.2340    5.2635 C   0  0  2  0  0  0  0  0  0  0  0  0
   41.1944   38.1640    5.9561 O   0  0  0  0  0  0  0  0  0  0  0  0
   44.7147   39.8973    5.9521 C   0  0  1  0  0  0  0  0  0  0  0  0
   45.0102   39.9525    4.5391 O   0  0  0  0  0  0  0  0  0  0  0  0
   33.6983   41.7008    3.5887 C   0  0  2  0  0  0  0  0  0  0  0  0
   32.9397   42.8903    3.6506 O   0  0  0  0  0  0  0  0  0  0  0  0
   34.2989   37.9811    6.8454 C   0  0  2  0  0  0  0  0  0  0  0  0
   39.0434   39.4010    5.7723 C   0  0  2  0  0  0  0  0  0  0  0  0
   38.1688   38.8612    6.7531 O   0  0  0  0  0  0  0  0  0  0  0  0
   44.2331   41.3276    6.4252 C   0  0  2  0  0  0  0  0  0  0  0  0
   44.1788   41.3572    7.8614 O   0  0  0  0  0  0  0  0  0  0  0  0
   32.8356   40.4867    3.9869 C   0  0  2  0  0  0  0  0  0  0  0  0
   33.6824   39.2747    3.9265 O   0  0  0  0  0  0  0  0  0  0  0  0
   35.6445   37.3451    7.4597 C   0  0  2  0  0  0  0  0  0  0  0  0
   36.6674   37.0458    6.4215 O   0  0  0  0  0  0  0  0  0  0  0  0
   38.1890   40.0557    4.6969 C   0  0  0  0  0  0  0  0  0  0  0  0
   42.8128   41.6472    5.8048 C   0  0  1  0  0  0  0  0  0  0  0  0
   41.8253   40.5475    6.0746 O   0  0  0  0  0  0  0  0  0  0  0  0
   31.6220   40.3754    3.0348 C   0  0  0  0  0  0  0  0  0  0  0  0
   30.6648   41.4941    3.1146 N   0  0  0  0  0  0  0  0  0  0  0  0
   35.3091   36.0098    8.1577 C   0  0  1  0  0  0  0  0  0  0  0  0
   36.5049   35.4430    8.7031 O   0  0  0  0  0  0  0  0  0  0  0  0
   42.2285   43.0378    6.2655 C   0  0  0  0  0  0  0  0  0  0  0  0
   43.0820   44.2383    5.9938 N   0  0  0  0  0  0  0  0  0  0  0  0
  1  2  1  1  0  0  0
  1  7  1  0  0  0  0
  1 30  1  0  0  0  0
  3  4  1  6  0  0  0
  3  9  1  0  0  0  0
  3 38  1  0  0  0  0
  5 10  1  0  0  0  0
  5 26  1  6  0  0  0
  5 32  1  0  0  0  0
  6 12  1  0  0  0  0
  6 35  1  0  0  0  0
  6 19  1  1  0  0  0
  7  8  1  1  0  0  0
  7 14  1  0  0  0  0
  8 33  1  0  0  0  0
  9 16  1  0  0  0  0
 10 11  1  1  0  0  0
 10 18  1  0  0  0  0
 12 13  1  1  0  0  0
 12 20  1  0  0  0  0
 14 15  1  6  0  0  0
 14 22  1  0  0  0  0
 16 17  1  6  0  0  0
 16 24  1  0  0  0  0
 18 19  1  1  0  0  0
 18 25  1  0  0  0  0
 20 21  1  6  0  0  0
 20 27  1  0  0  0  0
 22 23  1  1  0  0  0
 22 29  1  0  0  0  0
 24  2  1  1  0  0  0
 24 31  1  0  0  0  0
 25 26  1  1  0  0  0
 25 33  1  0  0  0  0
 27 28  1  1  0  0  0
 27 34  1  0  0  0  0
 29 30  1  0  0  0  0
 29 36  1  6  0  0  0
 31 32  1  6  0  0  0
 31 38  1  0  0  0  0
 34 35  1  0  0  0  0
 34 40  1  1  0  0  0
 36 37  1  0  0  0  0
 38 39  1  1  0  0  0
 40 41  1  0  0  0  0
M  END
>  <CHROM.1>
171.01041150,-169.23408976,-64.89644793,56.56354416,37.67995600,39.34872607
6.01504053,3.06459610,0.09605625,2.55432069

>  <Name>
ligand

>  <RI>
0

>  <Rbt.Current_Directory>
/home/itssahil/PROJECTS/Mol_Feturizer/New_Systems/rnas/1ZZ5

>  <Rbt.Executable>
rbdock ($Id: //depot/dev/client3/rdock/2013.1/src/exe/rbdock.cxx#4 $)

>  <Rbt.Library>
libRbt.so (2013.1, Build901 2013/11/27)

>  <Rbt.Parameter_File>
/export/apps/rDock/src/rDock_2013.1_src/data/scripts/dock_solv.prm

>  <Rbt.Receptor>
prm/pocket_docking_3.prm

>  <SCORE>
-10.7407

>  <SCORE.INTER>
-9.13781

>  <SCORE.INTER.CONST>
1

>  <SCORE.INTER.POLAR>
0

>  <SCORE.INTER.ROT>
4

>  <SCORE.INTER.SOLV>
18.3288

>  <SCORE.INTER.VDW>
-18.4681

>  <SCORE.INTER.norm>
-0.222873

>  <SCORE.INTRA>
-1.60293

>  <SCORE.INTRA.DIHEDRAL>
-3.88437

>  <SCORE.INTRA.DIHEDRAL.0>
5.18357

>  <SCORE.INTRA.POLAR>
0

>  <SCORE.INTRA.POLAR.0>
0

>  <SCORE.INTRA.REPUL>
0

>  <SCORE.INTRA.REPUL.0>
0

>  <SCORE.INTRA.SOLV>
0.110122

>  <SCORE.INTRA.SOLV.lig_0>
-109.973

>  <SCORE.INTRA.VDW>
0.284199

>  <SCORE.INTRA.VDW.0>
-1.68646

>  <SCORE.INTRA.norm>
-0.0390958

>  <SCORE.RESTR>
0

>  <SCORE.RESTR.CAVITY>
0

>  <SCORE.RESTR.norm>
0

>  <SCORE.SYSTEM>
0

>  <SCORE.SYSTEM.CONST>
0

>  <SCORE.SYSTEM.DIHEDRAL>
0

>  <SCORE.SYSTEM.SOLV>
0

>  <SCORE.SYSTEM.norm>
0

>  <SCORE.heavy>
41

>  <SCORE.norm>
-0.261969

>  <RMSD>
1.154

$$$$
ligand
 OpenBabel11021811423D
libRbt.so/2013.1/901 2013/11/27
 41 45  0  0  0  0  0  0  0  0999 V2000
   34.4629   39.1177    4.9246 C   0  0  2  0  0  0  0  0  0  0  0  0
   34.1049   39.2012    6.3180 O   0  0  0  0  0  0  0  0  0  0  0  0
   33.5686   36.3428    9.5522 C   0  0  2  0  0  0  0  0  0  0  0  0
   33.1170   35.1311   10.2837 N   0  0  0  0  0  0  0  0  0  0  0  0
   37.4934   37.1585    6.9435 C   0  0  1  0  0  0  0  0  0  0  0  0
   41.7756   38.5505    5.8931 C   0  0  1  0  0  0  0  0  0  0  0  0
   35.4304   40.2713    4.5237 C   0  0  2  0  0  0  0  0  0  0  0  0
   36.6200   40.3423    5.3776 N   0  0  0  0  0  0  0  0  0  0  0  0
   32.3233   37.0570    8.9378 C   0  0  0  0  0  0  0  0  0  0  0  0
   38.4153   36.6064    5.8321 C   0  0  2  0  0  0  0  0  0  0  0  0
   39.0973   35.4183    6.2468 O   0  0  0  0  0  0  0  0  0  0  0  0
   43.1090   38.1707    6.6675 C   0  0  2  0  0  0  0  0  0  0  0  0
   42.9496   38.0853    8.1515 N   0  0  0  0  0  0  0  0  0  0  0  0
   34.6816   41.6311    4.5433 C   0  0  1  0  0  0  0  0  0  0  0  0
   35.5630   42.6797    4.1499 O   0  0  0  0  0  0  0  0  0  0  0  0
   32.7368   38.3341    8.1503 C   0  0  2  0  0  0  0  0  0  0  0  0
   31.5091   38.9509    7.6137 N   0  0  0  0  0  0  0  0  0  0  0  0
   39.3739   37.7663    5.5131 C   0  0  2  0  0  0  0  0  0  0  0  0
   40.6677   37.6387    6.2267 O   0  0  0  0  0  0  0  0  0  0  0  0
   44.2595   39.2163    6.3085 C   0  0  1  0  0  0  0  0  0  0  0  0
   44.6605   39.0985    4.9256 O   0  0  0  0  0  0  0  0  0  0  0  0
   33.4573   41.5660    3.6011 C   0  0  2  0  0  0  0  0  0  0  0  0
   32.7810   42.8057    3.6004 O   0  0  0  0  0  0  0  0  0  0  0  0
   33.7662   37.9625    7.0249 C   0  0  2  0  0  0  0  0  0  0  0  0
   38.6082   39.0090    5.9587 C   0  0  2  0  0  0  0  0  0  0  0  0
   37.6879   38.5738    6.9494 O   0  0  0  0  0  0  0  0  0  0  0  0
   43.8151   40.7094    6.5817 C   0  0  2  0  0  0  0  0  0  0  0  0
   43.6568   40.9042    7.9972 O   0  0  0  0  0  0  0  0  0  0  0  0
   32.5094   40.4319    4.0395 C   0  0  2  0  0  0  0  0  0  0  0  0
   33.2722   39.1639    4.0440 O   0  0  0  0  0  0  0  0  0  0  0  0
   35.0583   37.2648    7.6854 C   0  0  2  0  0  0  0  0  0  0  0  0
   36.0700   36.8511    6.6758 O   0  0  0  0  0  0  0  0  0  0  0  0
   37.8126   39.6716    4.8436 C   0  0  0  0  0  0  0  0  0  0  0  0
   42.4618   41.0136    5.8201 C   0  0  1  0  0  0  0  0  0  0  0  0
   41.4043   39.9926    6.1310 O   0  0  0  0  0  0  0  0  0  0  0  0
   31.3018   40.3607    3.0760 C   0  0  0  0  0  0  0  0  0  0  0  0
   30.3033   39.3272    3.4063 N   0  0  0  0  0  0  0  0  0  0  0  0
   34.6247   35.9876    8.4361 C   0  0  1  0  0  0  0  0  0  0  0  0
   35.7729   35.3659    9.0225 O   0  0  0  0  0  0  0  0  0  0  0  0
   41.9142   42.4701    6.0774 C   0  0  0  0  0  0  0  0  0  0  0  0
   42.8483   43.5960    5.7563 N   0  0  0  0  0  0  0  0  0  0  0  0
  1  2  1  1  0  0  0
  1  7  1  0  0  0  0
  1 30  1  0  0  0  0
  3  4  1  6  0  0  0
  3  9  1  0  0  0  0
  3 38  1  0  0  0  0
  5 10  1  0  0  0  0
  5 26  1  6  0  0  0
  5 32  1  0  0  0  0
  6 12  1  0  0  0  0
  6 35  1  0  0  0  0
  6 19  1  1  0  0  0
  7  8  1  1  0  0  0
  7 14  1  0  0  0  0
  8 33  1  0  0  0  0
  9 16  1  0  0  0  0
 10 11  1  1  0  0  0
 10 18  1  0  0  0  0
 12 13  1  1  0  0  0
 12 20  1  0  0  0  0
 14 15  1  6  0  0  0
 14 22  1  0  0  0  0
 16 17  1  6  0  0  0
 16 24  1  0  0  0  0
 18 19  1  1  0  0  0
 18 25  1  0  0  0  0
 20 21  1  6  0  0  0
 20 27  1  0  0  0  0
 22 23  1  1  0  0  0
 22 29  1  0  0  0  0
 24  2  1  1  0  0  0
 24 31  1  0  0  0  0
 25 26  1  1  0  0  0
 25 33  1  0  0  0  0
 27 28  1  1  0  0  0
 27 34  1  0  0  0  0
 29 30  1  0  0  0  0
 29 36  1  6  0  0  0
 31 32  1  6  0  0  0
 31 38  1  0  0  0  0
 34 35  1  0  0  0  0
 34 40  1  1  0  0  0
 36 37  1  0  0  0  0
 38 39  1  1  0  0  0
 40 41  1  0  0  0  0
M  END
>  <CHROM.1>
171.20986174,-174.83737005,-178.83069665,55.95429747,37.21997663,39.02494305
6.18291838,3.09301670,0.08021356,2.49749052

>  <Name>
ligand

>  <RI>
0

>  <Rbt.Current_Directory>
/home/itssahil/PROJECTS/Mol_Feturizer/New_Systems/rnas/1ZZ5

>  <Rbt.Executable>
rbdock ($Id: //depot/dev/client3/rdock/2013.1/src/exe/rbdock.cxx#4 $)

>  <Rbt.Library>
libRbt.so (2013.1, Build901 2013/11/27)

>  <Rbt.Parameter_File>
/export/apps/rDock/src/rDock_2013.1_src/data/scripts/dock_solv.prm

>  <Rbt.Receptor>
prm/pocket_docking_4.prm

>  <SCORE>
-11.2695

>  <SCORE.INTER>
-8.70782

>  <SCORE.INTER.CONST>
1

>  <SCORE.INTER.POLAR>
0

>  <SCORE.INTER.ROT>
4

>  <SCORE.INTER.SOLV>
19.3269

>  <SCORE.INTER.VDW>
-18.5142

>  <SCORE.INTER.norm>
-0.212386

>  <SCORE.INTRA>
-2.56169

>  <SCORE.INTRA.DIHEDRAL>
-4.38124

>  <SCORE.INTRA.DIHEDRAL.0>
5.18357

>  <SCORE.INTRA.POLAR>
0

>  <SCORE.INTRA.POLAR.0>
0

>  <SCORE.INTRA.REPUL>
0

>  <SCORE.INTRA.REPUL.0>
0

>  <SCORE.INTRA.SOLV>
-1.07071

>  <SCORE.INTRA.SOLV.lig_0>
-109.973

>  <SCORE.INTRA.VDW>
0.164285

>  <SCORE.INTRA.VDW.0>
-1.68646

>  <SCORE.INTRA.norm>
-0.0624803

>  <SCORE.RESTR>
0

>  <SCORE.RESTR.CAVITY>
0

>  <SCORE.RESTR.norm>
0

>  <SCORE.SYSTEM>
0

>  <SCORE.SYSTEM.CONST>
0

>  <SCORE.SYSTEM.DIHEDRAL>
0

>  <SCORE.SYSTEM.SOLV>
0

>  <SCORE.SYSTEM.norm>
0

>  <SCORE.heavy>
41

>  <SCORE.norm>
-0.274866

>  <RMSD>
1.185

$$$$
ligand
 OpenBabel11021811423D
libRbt.so/2013.1/901 2013/11/27
 41 45  0  0  0  0  0  0  0  0999 V2000
   35.0660   39.6108    4.7484 C   0  0  2  0  0  0  0  0  0  0  0  0
   34.7423   39.5263    6.1500 O   0  0  0  0  0  0  0  0  0  0  0  0
   34.4486   36.3166    9.0705 C   0  0  2  0  0  0  0  0  0  0  0  0
   34.0828   35.0108    9.6776 N   0  0  0  0  0  0  0  0  0  0  0  0
   38.2512   37.6227    6.4804 C   0  0  1  0  0  0  0  0  0  0  0  0
   42.4185   39.3628    5.5022 C   0  0  1  0  0  0  0  0  0  0  0  0
   35.9590   40.8529    4.4526 C   0  0  2  0  0  0  0  0  0  0  0  0
   37.1659   40.9001    5.2834 N   0  0  0  0  0  0  0  0  0  0  0  0
   33.1505   37.0205    8.5629 C   0  0  0  0  0  0  0  0  0  0  0  0
   39.1707   37.2439    5.2968 C   0  0  2  0  0  0  0  0  0  0  0  0
   39.9266   36.0590    5.5673 O   0  0  0  0  0  0  0  0  0  0  0  0
   43.8051   38.9554    6.1605 C   0  0  2  0  0  0  0  0  0  0  0  0
   43.7225   38.6591    7.6234 N   0  0  0  0  0  0  0  0  0  0  0  0
   35.1391   42.1588    4.6336 C   0  0  1  0  0  0  0  0  0  0  0  0
   35.9519   43.2909    4.3359 O   0  0  0  0  0  0  0  0  0  0  0  0
   33.4732   38.3949    7.9080 C   0  0  2  0  0  0  0  0  0  0  0  0
   32.1999   38.9950    7.4670 N   0  0  0  0  0  0  0  0  0  0  0  0
   40.0566   38.4831    5.0833 C   0  0  2  0  0  0  0  0  0  0  0  0
   41.3744   38.3538    5.7512 O   0  0  0  0  0  0  0  0  0  0  0  0
   44.8838   40.1024    5.9030 C   0  0  1  0  0  0  0  0  0  0  0  0
   45.2225   40.1972    4.5019 O   0  0  0  0  0  0  0  0  0  0  0  0
   33.8948   42.1248    3.7164 C   0  0  2  0  0  0  0  0  0  0  0  0
   33.1532   43.3176    3.8629 O   0  0  0  0  0  0  0  0  0  0  0  0
   34.4899   38.2027    6.7274 C   0  0  2  0  0  0  0  0  0  0  0  0
   39.2379   39.6267    5.6757 C   0  0  2  0  0  0  0  0  0  0  0  0
   38.3696   39.0382    6.6337 O   0  0  0  0  0  0  0  0  0  0  0  0
   44.3802   41.5171    6.3994 C   0  0  2  0  0  0  0  0  0  0  0  0
   44.2815   41.5076    7.8335 O   0  0  0  0  0  0  0  0  0  0  0  0
   33.0214   40.8993    4.0511 C   0  0  2  0  0  0  0  0  0  0  0  0
   33.8509   39.6828    3.9036 O   0  0  0  0  0  0  0  0  0  0  0  0
   35.8351   37.5130    7.2816 C   0  0  2  0  0  0  0  0  0  0  0  0
   36.8396   37.2658    6.2121 O   0  0  0  0  0  0  0  0  0  0  0  0
   38.3777   40.3577    4.6553 C   0  0  0  0  0  0  0  0  0  0  0  0
   42.9780   41.8470    5.7442 C   0  0  1  0  0  0  0  0  0  0  0  0
   41.9886   40.7360    5.9535 O   0  0  0  0  0  0  0  0  0  0  0  0
   31.7935   40.8626    3.1117 C   0  0  0  0  0  0  0  0  0  0  0  0
   30.8454   39.7633    3.3708 N   0  0  0  0  0  0  0  0  0  0  0  0
   35.4914   36.1412    7.9003 C   0  0  1  0  0  0  0  0  0  0  0  0
   36.6868   35.5266    8.3921 O   0  0  0  0  0  0  0  0  0  0  0  0
   42.3724   43.2220    6.2239 C   0  0  0  0  0  0  0  0  0  0  0  0
   43.2138   44.4374    5.9823 N   0  0  0  0  0  0  0  0  0  0  0  0
  1  2  1  1  0  0  0
  1  7  1  0  0  0  0
  1 30  1  0  0  0  0
  3  4  1  6  0  0  0
  3  9  1  0  0  0  0
  3 38  1  0  0  0  0
  5 10  1  0  0  0  0
  5 26  1  6  0  0  0
  5 32  1  0  0  0  0
  6 12  1  0  0  0  0
  6 35  1  0  0  0  0
  6 19  1  1  0  0  0
  7  8  1  1  0  0  0
  7 14  1  0  0  0  0
  8 33  1  0  0  0  0
  9 16  1  0  0  0  0
 10 11  1  1  0  0  0
 10 18  1  0  0  0  0
 12 13  1  1  0  0  0
 12 20  1  0  0  0  0
 14 15  1  6  0  0  0
 14 22  1  0  0  0  0
 16 17  1  6  0  0  0
 16 24  1  0  0  0  0
 18 19  1  1  0  0  0
 18 25  1  0  0  0  0
 20 21  1  6  0  0  0
 20 27  1  0  0  0  0
 22 23  1  1  0  0  0
 22 29  1  0  0  0  0
 24  2  1  1  0  0  0
 24 31  1  0  0  0  0
 25 26  1  1  0  0  0
 25 33  1  0  0  0  0
 27 28  1  1  0  0  0
 27 34  1  0  0  0  0
 29 30  1  0  0  0  0
 29 36  1  6  0  0  0
 31 32  1  6  0  0  0
 31 38  1  0  0  0  0
 34 35  1  0  0  0  0
 34 40  1  1  0  0  0
 36 37  1  0  0  0  0
 38 39  1  1  0  0  0
 40 41  1  0  0  0  0
M  END
>  <CHROM.1>
171.71703680,-172.95347588,-177.49575474,57.94231867,37.86012116,39.53701668
5.93874109,3.03734495,0.09154739,2.61121400

>  <Name>
ligand

>  <RI>
0

>  <Rbt.Current_Directory>
/home/itssahil/PROJECTS/Mol_Feturizer/New_Systems/rnas/1ZZ5

>  <Rbt.Executable>
rbdock ($Id: //depot/dev/client3/rdock/2013.1/src/exe/rbdock.cxx#4 $)

>  <Rbt.Library>
libRbt.so (2013.1, Build901 2013/11/27)

>  <Rbt.Parameter_File>
/export/apps/rDock/src/rDock_2013.1_src/data/scripts/dock_solv.prm

>  <Rbt.Receptor>
prm/pocket_docking_5.prm

>  <SCORE>
-11.4117

>  <SCORE.INTER>
-8.84297

>  <SCORE.INTER.CONST>
1

>  <SCORE.INTER.POLAR>
0

>  <SCORE.INTER.ROT>
4

>  <SCORE.INTER.SOLV>
18.1772

>  <SCORE.INTER.VDW>
-18.221

>  <SCORE.INTER.norm>
-0.215682

>  <SCORE.INTRA>
-2.56877

>  <SCORE.INTRA.DIHEDRAL>
-4.34166

>  <SCORE.INTRA.DIHEDRAL.0>
5.18357

>  <SCORE.INTRA.POLAR>
0

>  <SCORE.INTRA.POLAR.0>
0

>  <SCORE.INTRA.REPUL>
0

>  <SCORE.INTRA.REPUL.0>
0

>  <SCORE.INTRA.SOLV>
-1.11483

>  <SCORE.INTRA.SOLV.lig_0>
-109.973

>  <SCORE.INTRA.VDW>
0.159475

>  <SCORE.INTRA.VDW.0>
-1.68646

>  <SCORE.INTRA.norm>
-0.0626529

>  <SCORE.RESTR>
0

>  <SCORE.RESTR.CAVITY>
0

>  <SCORE.RESTR.norm>
0

>  <SCORE.SYSTEM>
0

>  <SCORE.SYSTEM.CONST>
0

>  <SCORE.SYSTEM.DIHEDRAL>
0

>  <SCORE.SYSTEM.SOLV>
0

>  <SCORE.SYSTEM.norm>
0

>  <SCORE.heavy>
41

>  <SCORE.norm>
-0.278335

>  <RMSD>
1.189

$$$$
ligand
 OpenBabel11021811423D
libRbt.so/2013.1/901 2013/11/27
 41 45  0  0  0  0  0  0  0  0999 V2000
   34.7650   39.1980    4.8010 C   0  0  2  0  0  0  0  0  0  0  0  0
   34.4299   39.2204    6.2023 O   0  0  0  0  0  0  0  0  0  0  0  0
   34.0864   36.2387    9.3502 C   0  0  2  0  0  0  0  0  0  0  0  0
   33.7049   34.9846   10.0494 N   0  0  0  0  0  0  0  0  0  0  0  0
   37.9198   37.3187    6.7019 C   0  0  1  0  0  0  0  0  0  0  0  0
   42.1047   38.9557    5.6411 C   0  0  1  0  0  0  0  0  0  0  0  0
   35.6708   40.4076    4.4213 C   0  0  2  0  0  0  0  0  0  0  0  0
   36.8717   40.5067    5.2562 N   0  0  0  0  0  0  0  0  0  0  0  0
   32.7983   36.9133    8.7812 C   0  0  0  0  0  0  0  0  0  0  0  0
   38.8449   36.8458    5.5572 C   0  0  2  0  0  0  0  0  0  0  0  0
   39.5886   35.6781    5.9210 O   0  0  0  0  0  0  0  0  0  0  0  0
   43.4968   38.5611    6.2955 C   0  0  2  0  0  0  0  0  0  0  0  0
   43.4329   38.3257    7.7704 N   0  0  0  0  0  0  0  0  0  0  0  0
   34.8608   41.7298    4.4982 C   0  0  1  0  0  0  0  0  0  0  0  0
   35.6855   42.8302    4.1241 O   0  0  0  0  0  0  0  0  0  0  0  0
   33.1378   38.2327    8.0288 C   0  0  2  0  0  0  0  0  0  0  0  0
   31.8731   38.8085    7.5340 N   0  0  0  0  0  0  0  0  0  0  0  0
   39.7431   38.0586    5.2597 C   0  0  2  0  0  0  0  0  0  0  0  0
   41.0546   37.9686    5.9462 O   0  0  0  0  0  0  0  0  0  0  0  0
   44.5828   39.6855    5.9759 C   0  0  1  0  0  0  0  0  0  0  0  0
   44.9016   39.7195    4.5673 O   0  0  0  0  0  0  0  0  0  0  0  0
   33.6233   41.6378    3.5758 C   0  0  2  0  0  0  0  0  0  0  0  0
   32.8908   42.8440    3.6272 O   0  0  0  0  0  0  0  0  0  0  0  0
   34.1618   37.9454    6.8741 C   0  0  2  0  0  0  0  0  0  0  0  0
   38.9297   39.2495    5.7589 C   0  0  2  0  0  0  0  0  0  0  0  0
   38.0491   38.7406    6.7507 O   0  0  0  0  0  0  0  0  0  0  0  0
   44.1005   41.1244    6.4212 C   0  0  2  0  0  0  0  0  0  0  0  0
   44.0229   41.1743    7.8558 O   0  0  0  0  0  0  0  0  0  0  0  0
   32.7369   40.4475    3.9932 C   0  0  2  0  0  0  0  0  0  0  0  0
   33.5571   39.2168    3.9431 O   0  0  0  0  0  0  0  0  0  0  0  0
   35.4968   37.2879    7.4890 C   0  0  2  0  0  0  0  0  0  0  0  0
   36.5072   36.9541    6.4491 O   0  0  0  0  0  0  0  0  0  0  0  0
   38.0836   39.9096    4.6801 C   0  0  0  0  0  0  0  0  0  0  0  0
   42.6921   41.4419    5.7732 C   0  0  1  0  0  0  0  0  0  0  0  0
   41.6950   40.3506    6.0420 O   0  0  0  0  0  0  0  0  0  0  0  0
   31.5159   40.3509    3.0490 C   0  0  0  0  0  0  0  0  0  0  0  0
   30.5670   41.4757    3.1431 N   0  0  0  0  0  0  0  0  0  0  0  0
   35.1366   35.9686    8.2049 C   0  0  1  0  0  0  0  0  0  0  0  0
   36.3229   35.3827    8.7508 O   0  0  0  0  0  0  0  0  0  0  0  0
   42.1071   42.8414    6.2049 C   0  0  0  0  0  0  0  0  0  0  0  0
   42.9615   44.0361    5.9116 N   0  0  0  0  0  0  0  0  0  0  0  0
  1  2  1  1  0  0  0
  1  7  1  0  0  0  0
  1 30  1  0  0  0  0
  3  4  1  6  0  0  0
  3  9  1  0  0  0  0
  3 38  1  0  0  0  0
  5 10  1  0  0  0  0
  5 26  1  6  0  0  0
  5 32  1  0  0  0  0
  6 12  1  0  0  0  0
  6 35  1  0  0  0  0
  6 19  1  1  0  0  0
  7  8  1  1  0  0  0
  7 14  1  0  0  0  0
  8 33  1  0  0  0  0
  9 16  1  0  0  0  0
 10 11  1  1  0  0  0
 10 18  1  0  0  0  0
 12 13  1  1  0  0  0
 12 20  1  0  0  0  0
 14 15  1  6  0  0  0
 14 22  1  0  0  0  0
 16 17  1  6  0  0  0
 16 24  1  0  0  0  0
 18 19  1  1  0  0  0
 18 25  1  0  0  0  0
 20 21  1  6  0  0  0
 20 27  1  0  0  0  0
 22 23  1  1  0  0  0
 22 29  1  0  0  0  0
 24  2  1  1  0  0  0
 24 31  1  0  0  0  0
 25 26  1  1  0  0  0
 25 33  1  0  0  0  0
 27 28  1  1  0  0  0
 27 34  1  0  0  0  0
 29 30  1  0  0  0  0
 29 36  1  6  0  0  0
 31 32  1  6  0  0  0
 31 38  1  0  0  0  0
 34 35  1  0  0  0  0
 34 40  1  1  0  0  0
 36 37  1  0  0  0  0
 38 39  1  1  0  0  0
 40 41  1  0  0  0  0
M  END
>  <CHROM.1>
172.29822765,-170.98591367,-66.26550787,57.47159362,37.55291306,39.23967621
6.02116786,3.07890785,0.08446453,2.54323552

>  <Name>
ligand

>  <RI>
0

>  <Rbt.Current_Directory>
/home/itssahil/PROJECTS/Mol_Feturizer/New_Systems/rnas/1ZZ5

>  <Rbt.Executable>
rbdock ($Id: //depot/dev/client3/rdock/2013.1/src/exe/rbdock.cxx#4 $)

>  <Rbt.Library>
libRbt.so (2013.1, Build901 2013/11/27)

>  <Rbt.Parameter_File>
/export/apps/rDock/src/rDock_2013.1_src/data/scripts/dock_solv.prm

>  <Rbt.Receptor>
prm/pocket_docking_3.prm

>  <SCORE>
-10.7465

>  <SCORE.INTER>
-8.99664

>  <SCORE.INTER.CONST>
1

>  <SCORE.INTER.POLAR>
0

>  <SCORE.INTER.ROT>
4

>  <SCORE.INTER.SOLV>
18.7815

>  <SCORE.INTER.VDW>
-18.5249

>  <SCORE.INTER.norm>
-0.21943

>  <SCORE.INTRA>
-1.74988

>  <SCORE.INTRA.DIHEDRAL>
-4.11119

>  <SCORE.INTRA.DIHEDRAL.0>
5.18357

>  <SCORE.INTRA.POLAR>
0

>  <SCORE.INTRA.POLAR.0>
0

>  <SCORE.INTRA.REPUL>
0

>  <SCORE.INTRA.REPUL.0>
0

>  <SCORE.INTRA.SOLV>
0.0781169

>  <SCORE.INTRA.SOLV.lig_0>
-109.973

>  <SCORE.INTRA.VDW>
0.266658

>  <SCORE.INTRA.VDW.0>
-1.68646

>  <SCORE.INTRA.norm>
-0.0426799

>  <SCORE.RESTR>
0

>  <SCORE.RESTR.CAVITY>
0

>  <SCORE.RESTR.norm>
0

>  <SCORE.SYSTEM>
0

>  <SCORE.SYSTEM.CONST>
0

>  <SCORE.SYSTEM.DIHEDRAL>
0

>  <SCORE.SYSTEM.SOLV>
0

>  <SCORE.SYSTEM.norm>
0

>  <SCORE.heavy>
41

>  <SCORE.norm>
-0.26211

>  <RMSD>
1.193

$$$$
ligand
 OpenBabel11021811423D
libRbt.so/2013.1/901 2013/11/27
 41 45  0  0  0  0  0  0  0  0999 V2000
   34.4362   39.2008    4.8640 C   0  0  2  0  0  0  0  0  0  0  0  0
   34.1082   39.2688    6.2655 O   0  0  0  0  0  0  0  0  0  0  0  0
   33.7732   36.3901    9.5087 C   0  0  2  0  0  0  0  0  0  0  0  0
   33.3920   35.1599   10.2495 N   0  0  0  0  0  0  0  0  0  0  0  0
   37.5958   37.3748    6.8082 C   0  0  1  0  0  0  0  0  0  0  0  0
   41.7192   39.0605    5.8007 C   0  0  1  0  0  0  0  0  0  0  0  0
   35.3430   40.3952    4.4413 C   0  0  2  0  0  0  0  0  0  0  0  0
   36.5484   40.5178    5.2667 N   0  0  0  0  0  0  0  0  0  0  0  0
   32.4839   37.0496    8.9248 C   0  0  0  0  0  0  0  0  0  0  0  0
   38.5140   36.8631    5.6747 C   0  0  2  0  0  0  0  0  0  0  0  0
   39.2566   35.7057    6.0719 O   0  0  0  0  0  0  0  0  0  0  0  0
   43.1138   38.7215    6.4808 C   0  0  2  0  0  0  0  0  0  0  0  0
   43.0202   38.4013    7.9380 N   0  0  0  0  0  0  0  0  0  0  0  0
   34.5367   41.7214    4.4800 C   0  0  1  0  0  0  0  0  0  0  0  0
   35.3623   42.8071    4.0668 O   0  0  0  0  0  0  0  0  0  0  0  0
   32.8229   38.3433    8.1290 C   0  0  2  0  0  0  0  0  0  0  0  0
   31.5571   38.9064    7.6223 N   0  0  0  0  0  0  0  0  0  0  0  0
   39.4136   38.0634    5.3342 C   0  0  2  0  0  0  0  0  0  0  0  0
   40.7284   37.9920    6.0167 O   0  0  0  0  0  0  0  0  0  0  0  0
   44.1317   39.9299    6.2588 C   0  0  1  0  0  0  0  0  0  0  0  0
   44.4908   40.0623    4.8658 O   0  0  0  0  0  0  0  0  0  0  0  0
   33.2943   41.6032    3.5671 C   0  0  2  0  0  0  0  0  0  0  0  0
   32.5651   42.8124    3.5837 O   0  0  0  0  0  0  0  0  0  0  0  0
   33.8403   38.0166    6.9790 C   0  0  2  0  0  0  0  0  0  0  0  0
   38.6057   39.2718    5.7990 C   0  0  2  0  0  0  0  0  0  0  0  0
   37.7289   38.7972    6.8110 O   0  0  0  0  0  0  0  0  0  0  0  0
   43.5410   41.3077    6.7630 C   0  0  2  0  0  0  0  0  0  0  0  0
   43.4161   41.2732    8.1947 O   0  0  0  0  0  0  0  0  0  0  0  0
   32.4071   40.4292    4.0268 C   0  0  2  0  0  0  0  0  0  0  0  0
   33.2240   39.1954    4.0119 O   0  0  0  0  0  0  0  0  0  0  0  0
   35.1767   37.3756    7.6080 C   0  0  2  0  0  0  0  0  0  0  0  0
   36.1811   37.0060    6.5742 O   0  0  0  0  0  0  0  0  0  0  0  0
   37.7558   39.8994    4.7039 C   0  0  0  0  0  0  0  0  0  0  0  0
   42.1352   41.5684    6.0847 C   0  0  1  0  0  0  0  0  0  0  0  0
   41.2053   40.4016    6.2607 O   0  0  0  0  0  0  0  0  0  0  0  0
   31.1811   40.3057    3.0922 C   0  0  0  0  0  0  0  0  0  0  0  0
   30.2312   39.2365    3.4511 N   0  0  0  0  0  0  0  0  0  0  0  0
   34.8168   36.0808    8.3674 C   0  0  1  0  0  0  0  0  0  0  0  0
   36.0045   35.5095    8.9258 O   0  0  0  0  0  0  0  0  0  0  0  0
   41.4453   42.9011    6.5697 C   0  0  0  0  0  0  0  0  0  0  0  0
   40.1070   43.2102    5.9724 N   0  0  0  0  0  0  0  0  0  0  0  0
  1  2  1  1  0  0  0
  1  7  1  0  0  0  0
  1 30  1  0  0  0  0
  3  4  1  6  0  0  0
  3  9  1  0  0  0  0
  3 38  1  0  0  0  0
  5 10  1  0  0  0  0
  5 26  1  6  0  0  0
  5 32  1  0  0  0  0
  6 12  1  0  0  0  0
  6 35  1  0  0  0  0
  6 19  1  1  0  0  0
  7  8  1  1  0  0  0
  7 14  1  0  0  0  0
  8 33  1  0  0  0  0
  9 16  1  0  0  0  0
 10 11  1  1  0  0  0
 10 18  1  0  0  0  0
 12 13  1  1  0  0  0
 12 20  1  0  0  0  0
 14 15  1  6  0  0  0
 14 22  1  0  0  0  0
 16 17  1  6  0  0  0
 16 24  1  0  0  0  0
 18 19  1  1  0  0  0
 18 25  1  0  0  0  0
 20 21  1  6  0  0  0
 20 27  1  0  0  0  0
 22 23  1  1  0  0  0
 22 29  1  0  0  0  0
 24  2  1  1  0  0  0
 24 31  1  0  0  0  0
 25 26  1  1  0  0  0
 25 33  1  0  0  0  0
 27 28  1  1  0  0  0
 27 34  1  0  0  0  0
 29 30  1  0  0  0  0
 29 36  1  6  0  0  0
 31 32  1  6  0  0  0
 31 38  1  0  0  0  0
 34 35  1  0  0  0  0
 34 40  1  1  0  0  0
 36 37  1  0  0  0  0
 38 39  1  1  0  0  0
 40 41  1  0  0  0  0
M  END
>  <CHROM.1>
179.83271465,-173.48714897,-178.38938803,-179.77571207,37.12632091,39.22949524
6.14874318,3.08665831,0.10860056,2.50337827

>  <Name>
ligand

>  <RI>
0

>  <Rbt.Current_Directory>
/home/itssahil/PROJECTS/Mol_Feturizer/New_Systems/rnas/1ZZ5

>  <Rbt.Executable>
rbdock ($Id: //depot/dev/client3/rdock/2013.1/src/exe/rbdock.cxx#4 $)

>  <Rbt.Library>
libRbt.so (2013.1, Build901 2013/11/27)

>  <Rbt.Parameter_File>
/export/apps/rDock/src/rDock_2013.1_src/data/scripts/dock_solv.prm

>  <Rbt.Receptor>
prm/pocket_docking_4.prm

>  <SCORE>
-11.1622

>  <SCORE.INTER>
-8.54362

>  <SCORE.INTER.CONST>
1

>  <SCORE.INTER.POLAR>
0

>  <SCORE.INTER.ROT>
4

>  <SCORE.INTER.SOLV>
19.1511

>  <SCORE.INTER.VDW>
-18.3461

>  <SCORE.INTER.norm>
-0.208381

>  <SCORE.INTRA>
-2.61861

>  <SCORE.INTRA.DIHEDRAL>
-4.73702

>  <SCORE.INTRA.DIHEDRAL.0>
5.18357

>  <SCORE.INTRA.POLAR>
0

>  <SCORE.INTRA.POLAR.0>
0

>  <SCORE.INTRA.REPUL>
0

>  <SCORE.INTRA.REPUL.0>
0

>  <SCORE.INTRA.SOLV>
-0.905892

>  <SCORE.INTRA.SOLV.lig_0>
-109.973

>  <SCORE.INTRA.VDW>
0.202847

>  <SCORE.INTRA.VDW.0>
-1.68646

>  <SCORE.INTRA.norm>
-0.0638685

>  <SCORE.RESTR>
0

>  <SCORE.RESTR.CAVITY>
0

>  <SCORE.RESTR.norm>
0

>  <SCORE.SYSTEM>
0

>  <SCORE.SYSTEM.CONST>
0

>  <SCORE.SYSTEM.DIHEDRAL>
0

>  <SCORE.SYSTEM.SOLV>
0

>  <SCORE.SYSTEM.norm>
0

>  <SCORE.heavy>
41

>  <SCORE.norm>
-0.272249

>  <RMSD>
1.218

$$$$
ligand
 OpenBabel11021811423D
libRbt.so/2013.1/901 2013/11/27
 41 45  0  0  0  0  0  0  0  0999 V2000
   35.4575   39.6796    4.8178 C   0  0  2  0  0  0  0  0  0  0  0  0
   35.1244   39.5587    6.2145 O   0  0  0  0  0  0  0  0  0  0  0  0
   34.9498   36.2939    9.0830 C   0  0  2  0  0  0  0  0  0  0  0  0
   34.6384   34.9635    9.6665 N   0  0  0  0  0  0  0  0  0  0  0  0
   38.7136   37.8125    6.5527 C   0  0  1  0  0  0  0  0  0  0  0  0
   42.8172   39.7401    5.6206 C   0  0  1  0  0  0  0  0  0  0  0  0
   36.2955   40.9657    4.5501 C   0  0  2  0  0  0  0  0  0  0  0  0
   37.4908   41.0550    5.3940 N   0  0  0  0  0  0  0  0  0  0  0  0
   33.6258   36.9455    8.5726 C   0  0  0  0  0  0  0  0  0  0  0  0
   39.6609   37.4945    5.3732 C   0  0  2  0  0  0  0  0  0  0  0  0
   40.4676   36.3413    5.6336 O   0  0  0  0  0  0  0  0  0  0  0  0
   44.2098   39.3881    6.2981 C   0  0  2  0  0  0  0  0  0  0  0  0
   44.1209   39.1018    7.7626 N   0  0  0  0  0  0  0  0  0  0  0  0
   35.4149   42.2298    4.7422 C   0  0  1  0  0  0  0  0  0  0  0  0
   36.1778   43.4024    4.4701 O   0  0  0  0  0  0  0  0  0  0  0  0
   33.8915   38.3432    7.9419 C   0  0  2  0  0  0  0  0  0  0  0  0
   32.5964   38.8913    7.4967 N   0  0  0  0  0  0  0  0  0  0  0  0
   40.4911   38.7761    5.1876 C   0  0  2  0  0  0  0  0  0  0  0  0
   41.8069   38.6967    5.8672 O   0  0  0  0  0  0  0  0  0  0  0  0
   45.2500   40.5706    6.0423 C   0  0  1  0  0  0  0  0  0  0  0  0
   45.6010   40.6653    4.6442 O   0  0  0  0  0  0  0  0  0  0  0  0
   34.1824   42.1533    3.8117 C   0  0  2  0  0  0  0  0  0  0  0  0
   33.3855   43.3085    3.9683 O   0  0  0  0  0  0  0  0  0  0  0  0
   34.9274   38.2161    6.7692 C   0  0  2  0  0  0  0  0  0  0  0  0
   39.6151   39.8718    5.7886 C   0  0  2  0  0  0  0  0  0  0  0  0
   38.7654   39.2293    6.7285 O   0  0  0  0  0  0  0  0  0  0  0  0
   44.6907   41.9707    6.5201 C   0  0  2  0  0  0  0  0  0  0  0  0
   44.5759   41.9701    7.9531 O   0  0  0  0  0  0  0  0  0  0  0  0
   33.3629   40.8841    4.1187 C   0  0  2  0  0  0  0  0  0  0  0  0
   34.2487   39.7092    3.9615 O   0  0  0  0  0  0  0  0  0  0  0  0
   36.2974   37.5800    7.3269 C   0  0  2  0  0  0  0  0  0  0  0  0
   37.3224   37.3957    6.2643 O   0  0  0  0  0  0  0  0  0  0  0  0
   38.7322   40.5785    4.7705 C   0  0  0  0  0  0  0  0  0  0  0  0
   43.2853   42.2447    5.8463 C   0  0  1  0  0  0  0  0  0  0  0  0
   42.3336   41.1010    6.0546 O   0  0  0  0  0  0  0  0  0  0  0  0
   32.1471   40.8059    3.1661 C   0  0  0  0  0  0  0  0  0  0  0  0
   31.2279   39.6818    3.4226 N   0  0  0  0  0  0  0  0  0  0  0  0
   36.0108   36.1845    7.9213 C   0  0  1  0  0  0  0  0  0  0  0  0
   37.2283   35.6176    8.4162 O   0  0  0  0  0  0  0  0  0  0  0  0
   42.6257   43.6013    6.3067 C   0  0  0  0  0  0  0  0  0  0  0  0
   43.4089   44.8473    6.0285 N   0  0  0  0  0  0  0  0  0  0  0  0
  1  2  1  1  0  0  0
  1  7  1  0  0  0  0
  1 30  1  0  0  0  0
  3  4  1  6  0  0  0
  3  9  1  0  0  0  0
  3 38  1  0  0  0  0
  5 10  1  0  0  0  0
  5 26  1  6  0  0  0
  5 32  1  0  0  0  0
  6 12  1  0  0  0  0
  6 35  1  0  0  0  0
  6 19  1  1  0  0  0
  7  8  1  1  0  0  0
  7 14  1  0  0  0  0
  8 33  1  0  0  0  0
  9 16  1  0  0  0  0
 10 11  1  1  0  0  0
 10 18  1  0  0  0  0
 12 13  1  1  0  0  0
 12 20  1  0  0  0  0
 14 15  1  6  0  0  0
 14 22  1  0  0  0  0
 16 17  1  6  0  0  0
 16 24  1  0  0  0  0
 18 19  1  1  0  0  0
 18 25  1  0  0  0  0
 20 21  1  6  0  0  0
 20 27  1  0  0  0  0
 22 23  1  1  0  0  0
 22 29  1  0  0  0  0
 24  2  1  1  0  0  0
 24 31  1  0  0  0  0
 25 26  1  1  0  0  0
 25 33  1  0  0  0  0
 27 28  1  1  0  0  0
 27 34  1  0  0  0  0
 29 30  1  0  0  0  0
 29 36  1  6  0  0  0
 31 32  1  6  0  0  0
 31 38  1  0  0  0  0
 34 35  1  0  0  0  0
 34 40  1  1  0  0  0
 36 37  1  0  0  0  0
 38 39  1  1  0  0  0
 40 41  1  0  0  0  0
M  END
>  <CHROM.1>
170.34424264,-173.19447060,-175.88002040,59.61045066,38.24673422,39.71284415
6.01914360,2.99989099,0.11736740,2.62683221

>  <Name>
ligand

>  <RI>
0

>  <Rbt.Current_Directory>
/home/itssahil/PROJECTS/Mol_Feturizer/New_Systems/rnas/1ZZ5

>  <Rbt.Executable>
rbdock ($Id: //depot/dev/client3/rdock/2013.1/src/exe/rbdock.cxx#4 $)

>  <Rbt.Library>
libRbt.so (2013.1, Build901 2013/11/27)

>  <Rbt.Parameter_File>
/export/apps/rDock/src/rDock_2013.1_src/data/scripts/dock_solv.prm

>  <Rbt.Receptor>
prm/pocket_docking_3.prm

>  <SCORE>
-11.5303

>  <SCORE.INTER>
-8.98805

>  <SCORE.INTER.CONST>
1

>  <SCORE.INTER.POLAR>
0

>  <SCORE.INTER.ROT>
4

>  <SCORE.INTER.SOLV>
16.6509

>  <SCORE.INTER.VDW>
-17.809

>  <SCORE.INTER.norm>
-0.219221

>  <SCORE.INTRA>
-2.54227

>  <SCORE.INTRA.DIHEDRAL>
-4.22097

>  <SCORE.INTRA.DIHEDRAL.0>
5.18357

>  <SCORE.INTRA.POLAR>
0

>  <SCORE.INTRA.POLAR.0>
0

>  <SCORE.INTRA.REPUL>
0

>  <SCORE.INTRA.REPUL.0>
0

>  <SCORE.INTRA.SOLV>
-1.14882

>  <SCORE.INTRA.SOLV.lig_0>
-109.973

>  <SCORE.INTRA.VDW>
0.142623

>  <SCORE.INTRA.VDW.0>
-1.68646

>  <SCORE.INTRA.norm>
-0.0620067

>  <SCORE.RESTR>
0

>  <SCORE.RESTR.CAVITY>
0

>  <SCORE.RESTR.norm>
0

>  <SCORE.SYSTEM>
0

>  <SCORE.SYSTEM.CONST>
0

>  <SCORE.SYSTEM.DIHEDRAL>
0

>  <SCORE.SYSTEM.SOLV>
0

>  <SCORE.SYSTEM.norm>
0

>  <SCORE.heavy>
41

>  <SCORE.norm>
-0.281227

>  <RMSD>
1.236

$$$$
ligand
 OpenBabel11021811423D
libRbt.so/2013.1/901 2013/11/27
 41 45  0  0  0  0  0  0  0  0999 V2000
   35.3085   39.6321    4.7412 C   0  0  2  0  0  0  0  0  0  0  0  0
   34.9879   39.5199    6.1416 O   0  0  0  0  0  0  0  0  0  0  0  0
   34.7711   36.2623    9.0154 C   0  0  2  0  0  0  0  0  0  0  0  0
   34.4363   34.9397    9.6037 N   0  0  0  0  0  0  0  0  0  0  0  0
   38.5404   37.6939    6.4429 C   0  0  1  0  0  0  0  0  0  0  0  0
   42.6636   39.5469    5.4919 C   0  0  1  0  0  0  0  0  0  0  0  0
   36.1721   40.8988    4.4630 C   0  0  2  0  0  0  0  0  0  0  0  0
   37.3782   40.9620    5.2939 N   0  0  0  0  0  0  0  0  0  0  0  0
   33.4566   36.9430    8.5187 C   0  0  0  0  0  0  0  0  0  0  0  0
   39.4675   37.3537    5.2536 C   0  0  2  0  0  0  0  0  0  0  0  0
   40.2509   36.1829    5.5065 O   0  0  0  0  0  0  0  0  0  0  0  0
   44.0542   39.1727    6.1614 C   0  0  2  0  0  0  0  0  0  0  0  0
   43.9650   38.8635    7.6213 N   0  0  0  0  0  0  0  0  0  0  0  0
   35.3222   42.1825    4.6633 C   0  0  1  0  0  0  0  0  0  0  0  0
   36.1082   43.3375    4.3817 O   0  0  0  0  0  0  0  0  0  0  0  0
   33.7468   38.3339    7.8835 C   0  0  2  0  0  0  0  0  0  0  0  0
   32.4596   38.9105    7.4518 N   0  0  0  0  0  0  0  0  0  0  0  0
   40.3242   38.6162    5.0576 C   0  0  2  0  0  0  0  0  0  0  0  0
   41.6452   38.5078    5.7230 O   0  0  0  0  0  0  0  0  0  0  0  0
   45.1036   40.3507    5.9233 C   0  0  1  0  0  0  0  0  0  0  0  0
   45.4536   40.4651    4.5264 O   0  0  0  0  0  0  0  0  0  0  0  0
   34.0783   42.1329    3.7462 C   0  0  2  0  0  0  0  0  0  0  0  0
   33.3093   43.3059    3.9102 O   0  0  0  0  0  0  0  0  0  0  0  0
   34.7668   38.1826    6.6999 C   0  0  2  0  0  0  0  0  0  0  0  0
   39.4796   39.7317    5.6668 C   0  0  2  0  0  0  0  0  0  0  0  0
   38.6259   39.1093    6.6165 O   0  0  0  0  0  0  0  0  0  0  0  0
   44.5563   41.7474    6.4245 C   0  0  2  0  0  0  0  0  0  0  0  0
   44.4435   41.7245    7.8574 O   0  0  0  0  0  0  0  0  0  0  0  0
   33.2339   40.8826    4.0635 C   0  0  2  0  0  0  0  0  0  0  0  0
   34.0914   39.6881    3.8980 O   0  0  0  0  0  0  0  0  0  0  0  0
   36.1281   37.5163    7.2434 C   0  0  2  0  0  0  0  0  0  0  0  0
   37.1372   37.3081    6.1700 O   0  0  0  0  0  0  0  0  0  0  0  0
   38.6018   40.4572    4.6575 C   0  0  0  0  0  0  0  0  0  0  0  0
   43.1523   42.0436    5.7573 C   0  0  1  0  0  0  0  0  0  0  0  0
   42.1917   40.9044    5.9485 O   0  0  0  0  0  0  0  0  0  0  0  0
   32.0064   40.8309    3.1242 C   0  0  0  0  0  0  0  0  0  0  0  0
   31.0616   39.7321    3.3962 N   0  0  0  0  0  0  0  0  0  0  0  0
   35.8168   36.1281    7.8424 C   0  0  1  0  0  0  0  0  0  0  0  0
   37.0266   35.5345    8.3247 O   0  0  0  0  0  0  0  0  0  0  0  0
   42.5044   43.3979    6.2405 C   0  0  0  0  0  0  0  0  0  0  0  0
   43.2932   44.6428    5.9732 N   0  0  0  0  0  0  0  0  0  0  0  0
  1  2  1  1  0  0  0
  1  7  1  0  0  0  0
  1 30  1  0  0  0  0
  3  4  1  6  0  0  0
  3  9  1  0  0  0  0
  3 38  1  0  0  0  0
  5 10  1  0  0  0  0
  5 26  1  6  0  0  0
  5 32  1  0  0  0  0
  6 12  1  0  0  0  0
  6 35  1  0  0  0  0
  6 19  1  1  0  0  0
  7  8  1  1  0  0  0
  7 14  1  0  0  0  0
  8 33  1  0  0  0  0
  9 16  1  0  0  0  0
 10 11  1  1  0  0  0
 10 18  1  0  0  0  0
 12 13  1  1  0  0  0
 12 20  1  0  0  0  0
 14 15  1  6  0  0  0
 14 22  1  0  0  0  0
 16 17  1  6  0  0  0
 16 24  1  0  0  0  0
 18 19  1  1  0  0  0
 18 25  1  0  0  0  0
 20 21  1  6  0  0  0
 20 27  1  0  0  0  0
 22 23  1  1  0  0  0
 22 29  1  0  0  0  0
 24  2  1  1  0  0  0
 24 31  1  0  0  0  0
 25 26  1  1  0  0  0
 25 33  1  0  0  0  0
 27 28  1  1  0  0  0
 27 34  1  0  0  0  0
 29 30  1  0  0  0  0
 29 36  1  6  0  0  0
 31 32  1  6  0  0  0
 31 38  1  0  0  0  0
 34 35  1  0  0  0  0
 34 40  1  1  0  0  0
 36 37  1  0  0  0  0
 38 39  1  1  0  0  0
 40 41  1  0  0  0  0
M  END
>  <CHROM.1>
171.93129137,-173.81623675,-175.58147060,60.00046613,38.09913680,39.61009771
5.92993545,3.01583057,0.10285889,2.62773708

>  <Name>
ligand

>  <RI>
0

>  <Rbt.Current_Directory>
/home/itssahil/PROJECTS/Mol_Feturizer/New_Systems/rnas/1ZZ5

>  <Rbt.Executable>
rbdock ($Id: //depot/dev/client3/rdock/2013.1/src/exe/rbdock.cxx#4 $)

>  <Rbt.Library>
libRbt.so (2013.1, Build901 2013/11/27)

>  <Rbt.Parameter_File>
/export/apps/rDock/src/rDock_2013.1_src/data/scripts/dock_solv.prm

>  <Rbt.Receptor>
prm/pocket_docking_7.prm

>  <SCORE>
-11.562

>  <SCORE.INTER>
-8.96437

>  <SCORE.INTER.CONST>
1

>  <SCORE.INTER.POLAR>
0

>  <SCORE.INTER.ROT>
4

>  <SCORE.INTER.SOLV>
17.715

>  <SCORE.INTER.VDW>
-18.1479

>  <SCORE.INTER.norm>
-0.218643

>  <SCORE.INTRA>
-2.59766

>  <SCORE.INTRA.DIHEDRAL>
-4.38337

>  <SCORE.INTRA.DIHEDRAL.0>
5.18357

>  <SCORE.INTRA.POLAR>
0

>  <SCORE.INTRA.POLAR.0>
0

>  <SCORE.INTRA.REPUL>
0

>  <SCORE.INTRA.REPUL.0>
0

>  <SCORE.INTRA.SOLV>
-1.14358

>  <SCORE.INTRA.SOLV.lig_0>
-109.973

>  <SCORE.INTRA.VDW>
0.165814

>  <SCORE.INTRA.VDW.0>
-1.68646

>  <SCORE.INTRA.norm>
-0.0633576

>  <SCORE.RESTR>
0

>  <SCORE.RESTR.CAVITY>
0

>  <SCORE.RESTR.norm>
0

>  <SCORE.SYSTEM>
0

>  <SCORE.SYSTEM.CONST>
0

>  <SCORE.SYSTEM.DIHEDRAL>
0

>  <SCORE.SYSTEM.SOLV>
0

>  <SCORE.SYSTEM.norm>
0

>  <SCORE.heavy>
41

>  <SCORE.norm>
-0.282001

>  <RMSD>
1.247

$$$$
ligand
 OpenBabel11021811423D
libRbt.so/2013.1/901 2013/11/27
 41 45  0  0  0  0  0  0  0  0999 V2000
   34.5057   38.9909    4.9867 C   0  0  2  0  0  0  0  0  0  0  0  0
   34.1259   39.0994    6.3725 O   0  0  0  0  0  0  0  0  0  0  0  0
   33.4464   36.2919    9.6242 C   0  0  2  0  0  0  0  0  0  0  0  0
   32.9456   35.1019   10.3593 N   0  0  0  0  0  0  0  0  0  0  0  0
   37.4394   36.9622    7.0784 C   0  0  1  0  0  0  0  0  0  0  0  0
   41.7575   38.2575    6.1390 C   0  0  1  0  0  0  0  0  0  0  0  0
   35.5146   40.1107    4.5920 C   0  0  2  0  0  0  0  0  0  0  0  0
   36.6906   40.1546    5.4662 N   0  0  0  0  0  0  0  0  0  0  0  0
   32.2344   37.0368    8.9808 C   0  0  0  0  0  0  0  0  0  0  0  0
   38.3636   36.3712    5.9891 C   0  0  2  0  0  0  0  0  0  0  0  0
   39.0020   35.1675    6.4275 O   0  0  0  0  0  0  0  0  0  0  0  0
   43.0434   37.8991    6.9994 C   0  0  2  0  0  0  0  0  0  0  0  0
   42.7926   37.8291    8.4715 N   0  0  0  0  0  0  0  0  0  0  0  0
   34.8071   41.4926    4.5849 C   0  0  1  0  0  0  0  0  0  0  0  0
   35.7266   42.5100    4.1972 O   0  0  0  0  0  0  0  0  0  0  0  0
   32.7002   38.2928    8.1884 C   0  0  2  0  0  0  0  0  0  0  0  0
   31.5013   38.9408    7.6240 N   0  0  0  0  0  0  0  0  0  0  0  0
   39.3624   37.4984    5.6761 C   0  0  2  0  0  0  0  0  0  0  0  0
   40.6389   37.3392    6.4139 O   0  0  0  0  0  0  0  0  0  0  0  0
   44.2050   38.9512    6.7001 C   0  0  1  0  0  0  0  0  0  0  0  0
   44.6923   38.8215    5.3464 O   0  0  0  0  0  0  0  0  0  0  0  0
   33.5982   41.4547    3.6216 C   0  0  2  0  0  0  0  0  0  0  0  0
   32.9598   42.7141    3.5967 O   0  0  0  0  0  0  0  0  0  0  0  0
   33.7375   37.8788    7.0853 C   0  0  2  0  0  0  0  0  0  0  0  0
   38.6270   38.7681    6.0958 C   0  0  2  0  0  0  0  0  0  0  0  0
   37.6766   38.3710    7.0741 O   0  0  0  0  0  0  0  0  0  0  0  0
   43.7315   40.4431    6.9274 C   0  0  2  0  0  0  0  0  0  0  0  0
   43.4837   40.6525    8.3278 O   0  0  0  0  0  0  0  0  0  0  0  0
   32.6088   40.3542    4.0540 C   0  0  2  0  0  0  0  0  0  0  0  0
   33.3326   39.0640    4.0845 O   0  0  0  0  0  0  0  0  0  0  0  0
   34.9960   37.1494    7.7756 C   0  0  2  0  0  0  0  0  0  0  0  0
   36.0123   36.6950    6.7883 O   0  0  0  0  0  0  0  0  0  0  0  0
   37.8715   39.4429    4.9603 C   0  0  0  0  0  0  0  0  0  0  0  0
   42.4256   40.7260    6.0795 C   0  0  1  0  0  0  0  0  0  0  0  0
   41.3598   39.6988    6.3362 O   0  0  0  0  0  0  0  0  0  0  0  0
   31.4167   40.3096    3.0698 C   0  0  0  0  0  0  0  0  0  0  0  0
   30.5575   41.5079    3.0795 N   0  0  0  0  0  0  0  0  0  0  0  0
   34.5108   35.8935    8.5307 C   0  0  1  0  0  0  0  0  0  0  0  0
   35.6291   35.2436    9.1436 O   0  0  0  0  0  0  0  0  0  0  0  0
   41.8505   42.1801    6.2849 C   0  0  0  0  0  0  0  0  0  0  0  0
   42.7404   43.3102    5.8673 N   0  0  0  0  0  0  0  0  0  0  0  0
  1  2  1  1  0  0  0
  1  7  1  0  0  0  0
  1 30  1  0  0  0  0
  3  4  1  6  0  0  0
  3  9  1  0  0  0  0
  3 38  1  0  0  0  0
  5 10  1  0  0  0  0
  5 26  1  6  0  0  0
  5 32  1  0  0  0  0
  6 12  1  0  0  0  0
  6 35  1  0  0  0  0
  6 19  1  1  0  0  0
  7  8  1  1  0  0  0
  7 14  1  0  0  0  0
  8 33  1  0  0  0  0
  9 16  1  0  0  0  0
 10 11  1  1  0  0  0
 10 18  1  0  0  0  0
 12 13  1  1  0  0  0
 12 20  1  0  0  0  0
 14 15  1  6  0  0  0
 14 22  1  0  0  0  0
 16 17  1  6  0  0  0
 16 24  1  0  0  0  0
 18 19  1  1  0  0  0
 18 25  1  0  0  0  0
 20 21  1  6  0  0  0
 20 27  1  0  0  0  0
 22 23  1  1  0  0  0
 22 29  1  0  0  0  0
 24  2  1  1  0  0  0
 24 31  1  0  0  0  0
 25 26  1  1  0  0  0
 25 33  1  0  0  0  0
 27 28  1  1  0  0  0
 27 34  1  0  0  0  0
 29 30  1  0  0  0  0
 29 36  1  6  0  0  0
 31 32  1  6  0  0  0
 31 38  1  0  0  0  0
 34 35  1  0  0  0  0
 34 40  1  1  0  0  0
 36 37  1  0  0  0  0
 38 39  1  1  0  0  0
 40 41  1  0  0  0  0
M  END
>  <CHROM.1>
174.26755592,-178.46858408,-66.07656308,62.41130967,37.20977145,38.90613390
6.30998222,-3.12882889,0.07618785,2.49407142

>  <Name>
ligand

>  <RI>
0

>  <Rbt.Current_Directory>
/home/itssahil/PROJECTS/Mol_Feturizer/New_Systems/rnas/1ZZ5

>  <Rbt.Executable>
rbdock ($Id: //depot/dev/client3/rdock/2013.1/src/exe/rbdock.cxx#4 $)

>  <Rbt.Library>
libRbt.so (2013.1, Build901 2013/11/27)

>  <Rbt.Parameter_File>
/export/apps/rDock/src/rDock_2013.1_src/data/scripts/dock_solv.prm

>  <Rbt.Receptor>
prm/pocket_docking_3.prm

>  <SCORE>
-10.5866

>  <SCORE.INTER>
-8.64648

>  <SCORE.INTER.CONST>
1

>  <SCORE.INTER.POLAR>
0

>  <SCORE.INTER.ROT>
4

>  <SCORE.INTER.SOLV>
18.8349

>  <SCORE.INTER.VDW>
-18.3093

>  <SCORE.INTER.norm>
-0.21089

>  <SCORE.INTRA>
-1.94008

>  <SCORE.INTRA.DIHEDRAL>
-4.63032

>  <SCORE.INTRA.DIHEDRAL.0>
5.18357

>  <SCORE.INTRA.POLAR>
0

>  <SCORE.INTRA.POLAR.0>
0

>  <SCORE.INTRA.REPUL>
0

>  <SCORE.INTRA.REPUL.0>
0

>  <SCORE.INTRA.SOLV>
0.0431727

>  <SCORE.INTRA.SOLV.lig_0>
-109.973

>  <SCORE.INTRA.VDW>
0.353497

>  <SCORE.INTRA.VDW.0>
-1.68646

>  <SCORE.INTRA.norm>
-0.047319

>  <SCORE.RESTR>
0

>  <SCORE.RESTR.CAVITY>
0

>  <SCORE.RESTR.norm>
0

>  <SCORE.SYSTEM>
0

>  <SCORE.SYSTEM.CONST>
0

>  <SCORE.SYSTEM.DIHEDRAL>
0

>  <SCORE.SYSTEM.SOLV>
0

>  <SCORE.SYSTEM.norm>
0

>  <SCORE.heavy>
41

>  <SCORE.norm>
-0.258209

>  <RMSD>
1.321

$$$$
ligand
 OpenBabel11021811423D
libRbt.so/2013.1/901 2013/11/27
 41 45  0  0  0  0  0  0  0  0999 V2000
   34.4181   39.0922    4.9091 C   0  0  2  0  0  0  0  0  0  0  0  0
   34.0853   39.1923    6.3076 O   0  0  0  0  0  0  0  0  0  0  0  0
   33.6320   36.3754    9.5904 C   0  0  2  0  0  0  0  0  0  0  0  0
   33.2039   35.1705   10.3469 N   0  0  0  0  0  0  0  0  0  0  0  0
   37.5012   37.1854    6.8982 C   0  0  1  0  0  0  0  0  0  0  0  0
   41.7865   38.5161    5.6713 C   0  0  1  0  0  0  0  0  0  0  0  0
   35.3687   40.2476    4.4744 C   0  0  2  0  0  0  0  0  0  0  0  0
   36.5732   40.3400    5.3049 N   0  0  0  0  0  0  0  0  0  0  0  0
   32.3698   37.0710    8.9895 C   0  0  0  0  0  0  0  0  0  0  0  0
   38.4069   36.6251    5.7777 C   0  0  2  0  0  0  0  0  0  0  0  0
   39.1061   35.4484    6.1961 O   0  0  0  0  0  0  0  0  0  0  0  0
   43.0658   38.3224    6.5921 C   0  0  2  0  0  0  0  0  0  0  0  0
   42.8096   38.5464    8.0478 N   0  0  0  0  0  0  0  0  0  0  0  0
   34.6093   41.6017    4.4890 C   0  0  1  0  0  0  0  0  0  0  0  0
   35.4747   42.6516    4.0649 O   0  0  0  0  0  0  0  0  0  0  0  0
   32.7583   38.3402    8.1768 C   0  0  2  0  0  0  0  0  0  0  0  0
   31.5159   38.9398    7.6546 N   0  0  0  0  0  0  0  0  0  0  0  0
   39.3500   37.7879    5.4249 C   0  0  2  0  0  0  0  0  0  0  0  0
   40.6577   37.6805    6.1161 O   0  0  0  0  0  0  0  0  0  0  0  0
   44.2390   39.2839    6.0973 C   0  0  1  0  0  0  0  0  0  0  0  0
   44.7294   38.8852    4.7983 O   0  0  0  0  0  0  0  0  0  0  0  0
   33.3684   41.5137    3.5707 C   0  0  2  0  0  0  0  0  0  0  0  0
   32.6821   42.7479    3.5654 O   0  0  0  0  0  0  0  0  0  0  0  0
   33.7698   37.9610    7.0377 C   0  0  2  0  0  0  0  0  0  0  0  0
   38.5826   39.0307    5.8674 C   0  0  2  0  0  0  0  0  0  0  0  0
   37.6842   38.6021    6.8810 O   0  0  0  0  0  0  0  0  0  0  0  0
   43.7800   40.7957    6.0235 C   0  0  2  0  0  0  0  0  0  0  0  0
   43.5298   41.2795    7.3538 O   0  0  0  0  0  0  0  0  0  0  0  0
   32.4380   40.3785    4.0423 C   0  0  2  0  0  0  0  0  0  0  0  0
   33.2110   39.1167    4.0502 O   0  0  0  0  0  0  0  0  0  0  0  0
   35.0794   37.2828    7.6837 C   0  0  2  0  0  0  0  0  0  0  0  0
   36.0757   36.8630    6.6614 O   0  0  0  0  0  0  0  0  0  0  0  0
   37.7611   39.6714    4.7583 C   0  0  0  0  0  0  0  0  0  0  0  0
   42.4799   40.9180    5.1297 C   0  0  1  0  0  0  0  0  0  0  0  0
   41.4028   39.9715    5.5783 O   0  0  0  0  0  0  0  0  0  0  0  0
   31.2134   40.2843    3.1025 C   0  0  0  0  0  0  0  0  0  0  0  0
   30.3132   41.4516    3.1359 N   0  0  0  0  0  0  0  0  0  0  0  0
   34.6702   36.0129    8.4599 C   0  0  1  0  0  0  0  0  0  0  0  0
   35.8340   35.4085    9.0335 O   0  0  0  0  0  0  0  0  0  0  0  0
   41.9189   42.3894    5.0413 C   0  0  0  0  0  0  0  0  0  0  0  0
   40.6600   42.5726    4.2507 N   0  0  0  0  0  0  0  0  0  0  0  0
  1  2  1  1  0  0  0
  1  7  1  0  0  0  0
  1 30  1  0  0  0  0
  3  4  1  6  0  0  0
  3  9  1  0  0  0  0
  3 38  1  0  0  0  0
  5 10  1  0  0  0  0
  5 26  1  6  0  0  0
  5 32  1  0  0  0  0
  6 12  1  0  0  0  0
  6 35  1  0  0  0  0
  6 19  1  1  0  0  0
  7  8  1  1  0  0  0
  7 14  1  0  0  0  0
  8 33  1  0  0  0  0
  9 16  1  0  0  0  0
 10 11  1  1  0  0  0
 10 18  1  0  0  0  0
 12 13  1  1  0  0  0
 12 20  1  0  0  0  0
 14 15  1  6  0  0  0
 14 22  1  0  0  0  0
 16 17  1  6  0  0  0
 16 24  1  0  0  0  0
 18 19  1  1  0  0  0
 18 25  1  0  0  0  0
 20 21  1  6  0  0  0
 20 27  1  0  0  0  0
 22 23  1  1  0  0  0
 22 29  1  0  0  0  0
 24  2  1  1  0  0  0
 24 31  1  0  0  0  0
 25 26  1  1  0  0  0
 25 33  1  0  0  0  0
 27 28  1  1  0  0  0
 27 34  1  0  0  0  0
 29 30  1  0  0  0  0
 29 36  1  6  0  0  0
 31 32  1  6  0  0  0
 31 38  1  0  0  0  0
 34 35  1  0  0  0  0
 34 40  1  1  0  0  0
 36 37  1  0  0  0  0
 38 39  1  1  0  0  0
 40 41  1  0  0  0  0
M  END
>  <CHROM.1>
165.96600845,176.38894376,-65.83393483,-177.89722648,37.14876394,39.06770950
6.01978426,3.10124046,0.02931468,2.45746112

>  <Name>
ligand

>  <RI>
0

>  <Rbt.Current_Directory>
/home/itssahil/PROJECTS/Mol_Feturizer/New_Systems/rnas/1ZZ5

>  <Rbt.Executable>
rbdock ($Id: //depot/dev/client3/rdock/2013.1/src/exe/rbdock.cxx#4 $)

>  <Rbt.Library>
libRbt.so (2013.1, Build901 2013/11/27)

>  <Rbt.Parameter_File>
/export/apps/rDock/src/rDock_2013.1_src/data/scripts/dock_solv.prm

>  <Rbt.Receptor>
prm/pocket_docking_4.prm

>  <SCORE>
-10.9703

>  <SCORE.INTER>
-9.32962

>  <SCORE.INTER.CONST>
1

>  <SCORE.INTER.POLAR>
0

>  <SCORE.INTER.ROT>
4

>  <SCORE.INTER.SOLV>
20.5891

>  <SCORE.INTER.VDW>
-19.3494

>  <SCORE.INTER.norm>
-0.227552

>  <SCORE.INTRA>
-1.64071

>  <SCORE.INTRA.DIHEDRAL>
-3.83562

>  <SCORE.INTRA.DIHEDRAL.0>
5.18357

>  <SCORE.INTRA.POLAR>
0

>  <SCORE.INTRA.POLAR.0>
0

>  <SCORE.INTRA.REPUL>
0

>  <SCORE.INTRA.REPUL.0>
0

>  <SCORE.INTRA.SOLV>
0.257535

>  <SCORE.INTRA.SOLV.lig_0>
-109.973

>  <SCORE.INTRA.VDW>
0.148332

>  <SCORE.INTRA.VDW.0>
-1.68646

>  <SCORE.INTRA.norm>
-0.0400174

>  <SCORE.RESTR>
0

>  <SCORE.RESTR.CAVITY>
0

>  <SCORE.RESTR.norm>
0

>  <SCORE.SYSTEM>
0

>  <SCORE.SYSTEM.CONST>
0

>  <SCORE.SYSTEM.DIHEDRAL>
0

>  <SCORE.SYSTEM.SOLV>
0

>  <SCORE.SYSTEM.norm>
0

>  <SCORE.heavy>
41

>  <SCORE.norm>
-0.267569

>  <RMSD>
1.354

$$$$
ligand
 OpenBabel11021811423D
libRbt.so/2013.1/901 2013/11/27
 41 45  0  0  0  0  0  0  0  0999 V2000
   34.6805   39.1496    4.7832 C   0  0  2  0  0  0  0  0  0  0  0  0
   34.3710   39.1871    6.1901 O   0  0  0  0  0  0  0  0  0  0  0  0
   34.0600   36.2364    9.3704 C   0  0  2  0  0  0  0  0  0  0  0  0
   33.6808   34.9918   10.0876 N   0  0  0  0  0  0  0  0  0  0  0  0
   37.8535   37.2604    6.6436 C   0  0  1  0  0  0  0  0  0  0  0  0
   42.1166   38.6485    5.2947 C   0  0  1  0  0  0  0  0  0  0  0  0
   35.5893   40.3480    4.3763 C   0  0  2  0  0  0  0  0  0  0  0  0
   36.8059   40.4443    5.1885 N   0  0  0  0  0  0  0  0  0  0  0  0
   32.7674   36.9168    8.8187 C   0  0  0  0  0  0  0  0  0  0  0  0
   38.7538   36.7696    5.4867 C   0  0  2  0  0  0  0  0  0  0  0  0
   39.4942   35.5990    5.8475 O   0  0  0  0  0  0  0  0  0  0  0  0
   43.3970   38.5341    6.2272 C   0  0  2  0  0  0  0  0  0  0  0  0
   43.1489   38.9093    7.6529 N   0  0  0  0  0  0  0  0  0  0  0  0
   34.7918   41.6777    4.4560 C   0  0  1  0  0  0  0  0  0  0  0  0
   35.6187   42.7677    4.0572 O   0  0  0  0  0  0  0  0  0  0  0  0
   33.1042   38.2266    8.0485 C   0  0  2  0  0  0  0  0  0  0  0  0
   31.8355   38.8087    7.5715 N   0  0  0  0  0  0  0  0  0  0  0  0
   39.6564   37.9721    5.1621 C   0  0  2  0  0  0  0  0  0  0  0  0
   40.9794   37.8771    5.8256 O   0  0  0  0  0  0  0  0  0  0  0  0
   44.5799   39.4251    5.6335 C   0  0  1  0  0  0  0  0  0  0  0  0
   45.0605   38.8892    4.3810 O   0  0  0  0  0  0  0  0  0  0  0  0
   33.5370   41.5880    3.5570 C   0  0  2  0  0  0  0  0  0  0  0  0
   32.8157   42.8008    3.6108 O   0  0  0  0  0  0  0  0  0  0  0  0
   34.1046   37.9204    6.8781 C   0  0  2  0  0  0  0  0  0  0  0  0
   38.8621   39.1742    5.6652 C   0  0  2  0  0  0  0  0  0  0  0  0
   37.9955   38.6816    6.6773 O   0  0  0  0  0  0  0  0  0  0  0  0
   44.1392   40.9270    5.4063 C   0  0  2  0  0  0  0  0  0  0  0  0
   43.8999   41.5476    6.6807 O   0  0  0  0  0  0  0  0  0  0  0  0
   32.6485   40.4090    4.0011 C   0  0  2  0  0  0  0  0  0  0  0  0
   33.4574   39.1710    3.9472 O   0  0  0  0  0  0  0  0  0  0  0  0
   35.4450   37.2571    7.4746 C   0  0  2  0  0  0  0  0  0  0  0  0
   36.4336   36.9056    6.4196 O   0  0  0  0  0  0  0  0  0  0  0  0
   38.0021   39.8319    4.5959 C   0  0  0  0  0  0  0  0  0  0  0  0
   42.8372   40.9733    4.5080 C   0  0  1  0  0  0  0  0  0  0  0  0
   41.7503   40.0914    5.0540 O   0  0  0  0  0  0  0  0  0  0  0  0
   31.4098   40.3144    3.0800 C   0  0  0  0  0  0  0  0  0  0  0  0
   30.4879   39.2062    3.3901 N   0  0  0  0  0  0  0  0  0  0  0  0
   35.0869   35.9474    8.2088 C   0  0  1  0  0  0  0  0  0  0  0  0
   36.2780   35.3563    8.7383 O   0  0  0  0  0  0  0  0  0  0  0  0
   42.2939   42.4348    4.2706 C   0  0  0  0  0  0  0  0  0  0  0  0
   41.0209   42.5503    3.4899 N   0  0  0  0  0  0  0  0  0  0  0  0
  1  2  1  1  0  0  0
  1  7  1  0  0  0  0
  1 30  1  0  0  0  0
  3  4  1  6  0  0  0
  3  9  1  0  0  0  0
  3 38  1  0  0  0  0
  5 10  1  0  0  0  0
  5 26  1  6  0  0  0
  5 32  1  0  0  0  0
  6 12  1  0  0  0  0
  6 35  1  0  0  0  0
  6 19  1  1  0  0  0
  7  8  1  1  0  0  0
  7 14  1  0  0  0  0
  8 33  1  0  0  0  0
  9 16  1  0  0  0  0
 10 11  1  1  0  0  0
 10 18  1  0  0  0  0
 12 13  1  1  0  0  0
 12 20  1  0  0  0  0
 14 15  1  6  0  0  0
 14 22  1  0  0  0  0
 16 17  1  6  0  0  0
 16 24  1  0  0  0  0
 18 19  1  1  0  0  0
 18 25  1  0  0  0  0
 20 21  1  6  0  0  0
 20 27  1  0  0  0  0
 22 23  1  1  0  0  0
 22 29  1  0  0  0  0
 24  2  1  1  0  0  0
 24 31  1  0  0  0  0
 25 26  1  1  0  0  0
 25 33  1  0  0  0  0
 27 28  1  1  0  0  0
 27 34  1  0  0  0  0
 29 30  1  0  0  0  0
 29 36  1  6  0  0  0
 31 32  1  6  0  0  0
 31 38  1  0  0  0  0
 34 35  1  0  0  0  0
 34 40  1  1  0  0  0
 36 37  1  0  0  0  0
 38 39  1  1  0  0  0
 40 41  1  0  0  0  0
M  END
>  <CHROM.1>
158.99865198,173.94824057,179.04942047,-176.81658018,37.45914825,39.07340782
5.76555109,3.02739290,0.01905099,2.46817438

>  <Name>
ligand

>  <RI>
0

>  <Rbt.Current_Directory>
/home/itssahil/PROJECTS/Mol_Feturizer/New_Systems/rnas/1ZZ5

>  <Rbt.Executable>
rbdock ($Id: //depot/dev/client3/rdock/2013.1/src/exe/rbdock.cxx#4 $)

>  <Rbt.Library>
libRbt.so (2013.1, Build901 2013/11/27)

>  <Rbt.Parameter_File>
/export/apps/rDock/src/rDock_2013.1_src/data/scripts/dock_solv.prm

>  <Rbt.Receptor>
prm/pocket_docking_3.prm

>  <SCORE>
-12.2964

>  <SCORE.INTER>
-10.3556

>  <SCORE.INTER.CONST>
1

>  <SCORE.INTER.POLAR>
0

>  <SCORE.INTER.ROT>
4

>  <SCORE.INTER.SOLV>
23.5942

>  <SCORE.INTER.VDW>
-21.0352

>  <SCORE.INTER.norm>
-0.252577

>  <SCORE.INTRA>
-1.9408

>  <SCORE.INTRA.DIHEDRAL>
-2.80159

>  <SCORE.INTRA.DIHEDRAL.0>
5.18357

>  <SCORE.INTRA.POLAR>
0

>  <SCORE.INTRA.POLAR.0>
0

>  <SCORE.INTRA.REPUL>
0

>  <SCORE.INTRA.REPUL.0>
0

>  <SCORE.INTRA.SOLV>
-1.11266

>  <SCORE.INTRA.SOLV.lig_0>
-109.973

>  <SCORE.INTRA.VDW>
0.0163236

>  <SCORE.INTRA.VDW.0>
-1.68646

>  <SCORE.INTRA.norm>
-0.0473366

>  <SCORE.RESTR>
0

>  <SCORE.RESTR.CAVITY>
0

>  <SCORE.RESTR.norm>
0

>  <SCORE.SYSTEM>
0

>  <SCORE.SYSTEM.CONST>
0

>  <SCORE.SYSTEM.DIHEDRAL>
0

>  <SCORE.SYSTEM.SOLV>
0

>  <SCORE.SYSTEM.norm>
0

>  <SCORE.heavy>
41

>  <SCORE.norm>
-0.299913

>  <RMSD>
1.355

$$$$
ligand
 OpenBabel11021811423D
libRbt.so/2013.1/901 2013/11/27
 41 45  0  0  0  0  0  0  0  0999 V2000
   34.4361   38.9622    4.9351 C   0  0  2  0  0  0  0  0  0  0  0  0
   34.0785   39.0872    6.3254 O   0  0  0  0  0  0  0  0  0  0  0  0
   33.4694   36.3200    9.6253 C   0  0  2  0  0  0  0  0  0  0  0  0
   32.9879   35.1371   10.3844 N   0  0  0  0  0  0  0  0  0  0  0  0
   37.4160   36.9790    7.0051 C   0  0  1  0  0  0  0  0  0  0  0  0
   41.7074   38.2919    5.9833 C   0  0  1  0  0  0  0  0  0  0  0  0
   35.4316   40.0824    4.5088 C   0  0  2  0  0  0  0  0  0  0  0  0
   36.6215   40.1450    5.3628 N   0  0  0  0  0  0  0  0  0  0  0  0
   32.2425   37.0491    8.9919 C   0  0  0  0  0  0  0  0  0  0  0  0
   38.3257   36.3788    5.9088 C   0  0  2  0  0  0  0  0  0  0  0  0
   38.9784   35.1849    6.3527 O   0  0  0  0  0  0  0  0  0  0  0  0
   43.0193   37.9335    6.8034 C   0  0  2  0  0  0  0  0  0  0  0  0
   42.8114   37.8507    8.2815 N   0  0  0  0  0  0  0  0  0  0  0  0
   34.7157   41.4599    4.4948 C   0  0  1  0  0  0  0  0  0  0  0  0
   35.6226   42.4774    4.0784 O   0  0  0  0  0  0  0  0  0  0  0  0
   32.6876   38.2969    8.1752 C   0  0  2  0  0  0  0  0  0  0  0  0
   31.4757   38.9303    7.6220 N   0  0  0  0  0  0  0  0  0  0  0  0
   39.3123   37.5075    5.5642 C   0  0  2  0  0  0  0  0  0  0  0  0
   40.6018   37.3657    6.2830 O   0  0  0  0  0  0  0  0  0  0  0  0
   44.1665   38.9939    6.4791 C   0  0  1  0  0  0  0  0  0  0  0  0
   44.6153   38.8772    5.1110 O   0  0  0  0  0  0  0  0  0  0  0  0
   33.4914   41.4020    3.5522 C   0  0  2  0  0  0  0  0  0  0  0  0
   32.8451   42.6572    3.5210 O   0  0  0  0  0  0  0  0  0  0  0  0
   33.7092   37.8741    7.0608 C   0  0  2  0  0  0  0  0  0  0  0  0
   38.5763   38.7784    5.9789 C   0  0  2  0  0  0  0  0  0  0  0  0
   37.6445   38.3890    6.9780 O   0  0  0  0  0  0  0  0  0  0  0  0
   43.6924   40.4815    6.7318 C   0  0  2  0  0  0  0  0  0  0  0  0
   43.4840   40.6787    8.1404 O   0  0  0  0  0  0  0  0  0  0  0  0
   32.5159   40.3017    4.0156 C   0  0  2  0  0  0  0  0  0  0  0  0
   33.2479   39.0162    4.0515 O   0  0  0  0  0  0  0  0  0  0  0  0
   34.9832   37.1614    7.7399 C   0  0  2  0  0  0  0  0  0  0  0  0
   35.9859   36.6997    6.7423 O   0  0  0  0  0  0  0  0  0  0  0  0
   37.7982   39.4334    4.8471 C   0  0  0  0  0  0  0  0  0  0  0  0
   42.3613   40.7642    5.9241 C   0  0  1  0  0  0  0  0  0  0  0  0
   41.3084   39.7295    6.2032 O   0  0  0  0  0  0  0  0  0  0  0  0
   31.3081   40.2368    3.0518 C   0  0  0  0  0  0  0  0  0  0  0  0
   30.4573   41.4411    3.0397 N   0  0  0  0  0  0  0  0  0  0  0  0
   34.5181   35.9131    8.5198 C   0  0  1  0  0  0  0  0  0  0  0  0
   35.6502   35.2781    9.1228 O   0  0  0  0  0  0  0  0  0  0  0  0
   41.7851   42.2137    6.1575 C   0  0  0  0  0  0  0  0  0  0  0  0
   42.6834   43.3524    5.7836 N   0  0  0  0  0  0  0  0  0  0  0  0
  1  2  1  1  0  0  0
  1  7  1  0  0  0  0
  1 30  1  0  0  0  0
  3  4  1  6  0  0  0
  3  9  1  0  0  0  0
  3 38  1  0  0  0  0
  5 10  1  0  0  0  0
  5 26  1  6  0  0  0
  5 32  1  0  0  0  0
  6 12  1  0  0  0  0
  6 35  1  0  0  0  0
  6 19  1  1  0  0  0
  7  8  1  1  0  0  0
  7 14  1  0  0  0  0
  8 33  1  0  0  0  0
  9 16  1  0  0  0  0
 10 11  1  1  0  0  0
 10 18  1  0  0  0  0
 12 13  1  1  0  0  0
 12 20  1  0  0  0  0
 14 15  1  6  0  0  0
 14 22  1  0  0  0  0
 16 17  1  6  0  0  0
 16 24  1  0  0  0  0
 18 19  1  1  0  0  0
 18 25  1  0  0  0  0
 20 21  1  6  0  0  0
 20 27  1  0  0  0  0
 22 23  1  1  0  0  0
 22 29  1  0  0  0  0
 24  2  1  1  0  0  0
 24 31  1  0  0  0  0
 25 26  1  1  0  0  0
 25 33  1  0  0  0  0
 27 28  1  1  0  0  0
 27 34  1  0  0  0  0
 29 30  1  0  0  0  0
 29 36  1  6  0  0  0
 31 32  1  6  0  0  0
 31 38  1  0  0  0  0
 34 35  1  0  0  0  0
 34 40  1  1  0  0  0
 36 37  1  0  0  0  0
 38 39  1  1  0  0  0
 40 41  1  0  0  0  0
M  END
>  <CHROM.1>
174.64118698,-177.27768726,-64.90038002,59.60808782,37.16445179,38.90948465
6.22267618,-3.14041395,0.06879260,2.48333356

>  <Name>
ligand

>  <RI>
0

>  <Rbt.Current_Directory>
/home/itssahil/PROJECTS/Mol_Feturizer/New_Systems/rnas/1ZZ5

>  <Rbt.Executable>
rbdock ($Id: //depot/dev/client3/rdock/2013.1/src/exe/rbdock.cxx#4 $)

>  <Rbt.Library>
libRbt.so (2013.1, Build901 2013/11/27)

>  <Rbt.Parameter_File>
/export/apps/rDock/src/rDock_2013.1_src/data/scripts/dock_solv.prm

>  <Rbt.Receptor>
prm/pocket_docking_7.prm

>  <SCORE>
-10.6005

>  <SCORE.INTER>
-8.68626

>  <SCORE.INTER.CONST>
1

>  <SCORE.INTER.POLAR>
0

>  <SCORE.INTER.ROT>
4

>  <SCORE.INTER.SOLV>
19.1251

>  <SCORE.INTER.VDW>
-18.4325

>  <SCORE.INTER.norm>
-0.21186

>  <SCORE.INTRA>
-1.9142

>  <SCORE.INTRA.DIHEDRAL>
-4.68595

>  <SCORE.INTRA.DIHEDRAL.0>
5.18357

>  <SCORE.INTRA.POLAR>
0

>  <SCORE.INTRA.POLAR.0>
0

>  <SCORE.INTRA.REPUL>
0

>  <SCORE.INTRA.REPUL.0>
0

>  <SCORE.INTRA.SOLV>
0.118864

>  <SCORE.INTRA.SOLV.lig_0>
-109.973

>  <SCORE.INTRA.VDW>
0.369339

>  <SCORE.INTRA.VDW.0>
-1.68646

>  <SCORE.INTRA.norm>
-0.0466879

>  <SCORE.RESTR>
0

>  <SCORE.RESTR.CAVITY>
0

>  <SCORE.RESTR.norm>
0

>  <SCORE.SYSTEM>
0

>  <SCORE.SYSTEM.CONST>
0

>  <SCORE.SYSTEM.DIHEDRAL>
0

>  <SCORE.SYSTEM.SOLV>
0

>  <SCORE.SYSTEM.norm>
0

>  <SCORE.heavy>
41

>  <SCORE.norm>
-0.258548

>  <RMSD>
1.357

$$$$
ligand
 OpenBabel11021811423D
libRbt.so/2013.1/901 2013/11/27
 41 45  0  0  0  0  0  0  0  0999 V2000
   34.6910   39.1474    4.7719 C   0  0  2  0  0  0  0  0  0  0  0  0
   34.3802   39.1874    6.1784 O   0  0  0  0  0  0  0  0  0  0  0  0
   34.0687   36.2426    9.3641 C   0  0  2  0  0  0  0  0  0  0  0  0
   33.6899   34.9991   10.0834 N   0  0  0  0  0  0  0  0  0  0  0  0
   37.8639   37.2646    6.6388 C   0  0  1  0  0  0  0  0  0  0  0  0
   42.1275   38.6524    5.2902 C   0  0  1  0  0  0  0  0  0  0  0  0
   35.5991   40.3458    4.3635 C   0  0  2  0  0  0  0  0  0  0  0  0
   36.8150   40.4447    5.1766 N   0  0  0  0  0  0  0  0  0  0  0  0
   32.7761   36.9209    8.8099 C   0  0  0  0  0  0  0  0  0  0  0  0
   38.7657   36.7723    5.4838 C   0  0  2  0  0  0  0  0  0  0  0  0
   39.5067   35.6030    5.8475 O   0  0  0  0  0  0  0  0  0  0  0  0
   43.4042   38.5489    6.2290 C   0  0  2  0  0  0  0  0  0  0  0  0
   43.1492   38.9349    7.6506 N   0  0  0  0  0  0  0  0  0  0  0  0
   34.8005   41.6749    4.4398 C   0  0  1  0  0  0  0  0  0  0  0  0
   35.6268   42.7649    4.0396 O   0  0  0  0  0  0  0  0  0  0  0  0
   33.1124   38.2294    8.0374 C   0  0  2  0  0  0  0  0  0  0  0  0
   31.8437   38.8096    7.5581 N   0  0  0  0  0  0  0  0  0  0  0  0
   39.6676   37.9749    5.1577 C   0  0  2  0  0  0  0  0  0  0  0  0
   40.9900   37.8823    5.8226 O   0  0  0  0  0  0  0  0  0  0  0  0
   44.5873   39.4381    5.6331 C   0  0  1  0  0  0  0  0  0  0  0  0
   45.0746   38.8933    4.3870 O   0  0  0  0  0  0  0  0  0  0  0  0
   33.5466   41.5825    3.5398 C   0  0  2  0  0  0  0  0  0  0  0  0
   32.8241   42.7948    3.5906 O   0  0  0  0  0  0  0  0  0  0  0  0
   34.1142   37.9218    6.8686 C   0  0  2  0  0  0  0  0  0  0  0  0
   38.8718   39.1773    5.6576 C   0  0  2  0  0  0  0  0  0  0  0  0
   38.0047   38.6859    6.6699 O   0  0  0  0  0  0  0  0  0  0  0  0
   44.1437   40.9369    5.3918 C   0  0  2  0  0  0  0  0  0  0  0  0
   43.8975   41.5672    6.6601 O   0  0  0  0  0  0  0  0  0  0  0  0
   32.6587   40.4035    3.9854 C   0  0  2  0  0  0  0  0  0  0  0  0
   33.4686   39.1662    3.9347 O   0  0  0  0  0  0  0  0  0  0  0  0
   35.4547   37.2609    7.4677 C   0  0  2  0  0  0  0  0  0  0  0  0
   36.4445   36.9081    6.4143 O   0  0  0  0  0  0  0  0  0  0  0  0
   38.0122   39.8322    4.5863 C   0  0  0  0  0  0  0  0  0  0  0  0
   42.8454   40.9726    4.4877 C   0  0  1  0  0  0  0  0  0  0  0  0
   41.7585   40.0923    5.0363 O   0  0  0  0  0  0  0  0  0  0  0  0
   31.4209   40.3061    3.0633 C   0  0  0  0  0  0  0  0  0  0  0  0
   30.4897   39.2095    3.3868 N   0  0  0  0  0  0  0  0  0  0  0  0
   35.0970   35.9522    8.2040 C   0  0  1  0  0  0  0  0  0  0  0  0
   36.2881   35.3631    8.7358 O   0  0  0  0  0  0  0  0  0  0  0  0
   42.2994   42.4307    4.2362 C   0  0  0  0  0  0  0  0  0  0  0  0
   41.0154   42.5353    3.4722 N   0  0  0  0  0  0  0  0  0  0  0  0
  1  2  1  1  0  0  0
  1  7  1  0  0  0  0
  1 30  1  0  0  0  0
  3  4  1  6  0  0  0
  3  9  1  0  0  0  0
  3 38  1  0  0  0  0
  5 10  1  0  0  0  0
  5 26  1  6  0  0  0
  5 32  1  0  0  0  0
  6 12  1  0  0  0  0
  6 35  1  0  0  0  0
  6 19  1  1  0  0  0
  7  8  1  1  0  0  0
  7 14  1  0  0  0  0
  8 33  1  0  0  0  0
  9 16  1  0  0  0  0
 10 11  1  1  0  0  0
 10 18  1  0  0  0  0
 12 13  1  1  0  0  0
 12 20  1  0  0  0  0
 14 15  1  6  0  0  0
 14 22  1  0  0  0  0
 16 17  1  6  0  0  0
 16 24  1  0  0  0  0
 18 19  1  1  0  0  0
 18 25  1  0  0  0  0
 20 21  1  6  0  0  0
 20 27  1  0  0  0  0
 22 23  1  1  0  0  0
 22 29  1  0  0  0  0
 24  2  1  1  0  0  0
 24 31  1  0  0  0  0
 25 26  1  1  0  0  0
 25 33  1  0  0  0  0
 27 28  1  1  0  0  0
 27 34  1  0  0  0  0
 29 30  1  0  0  0  0
 29 36  1  6  0  0  0
 31 32  1  6  0  0  0
 31 38  1  0  0  0  0
 34 35  1  0  0  0  0
 34 40  1  1  0  0  0
 36 37  1  0  0  0  0
 38 39  1  1  0  0  0
 40 41  1  0  0  0  0
M  END
>  <CHROM.1>
158.92210278,173.58021704,179.88821127,-175.67234052,37.46756833,39.07592180
5.75566902,3.02690042,0.01985671,2.46584377

>  <Name>
ligand

>  <RI>
0

>  <Rbt.Current_Directory>
/home/itssahil/PROJECTS/Mol_Feturizer/New_Systems/rnas/1ZZ5

>  <Rbt.Executable>
rbdock ($Id: //depot/dev/client3/rdock/2013.1/src/exe/rbdock.cxx#4 $)

>  <Rbt.Library>
libRbt.so (2013.1, Build901 2013/11/27)

>  <Rbt.Parameter_File>
/export/apps/rDock/src/rDock_2013.1_src/data/scripts/dock_solv.prm

>  <Rbt.Receptor>
prm/pocket_docking_3.prm

>  <SCORE>
-12.2684

>  <SCORE.INTER>
-10.3734

>  <SCORE.INTER.CONST>
1

>  <SCORE.INTER.POLAR>
0

>  <SCORE.INTER.ROT>
4

>  <SCORE.INTER.SOLV>
23.6469

>  <SCORE.INTER.VDW>
-21.0646

>  <SCORE.INTER.norm>
-0.25301

>  <SCORE.INTRA>
-1.89495

>  <SCORE.INTRA.DIHEDRAL>
-2.74299

>  <SCORE.INTRA.DIHEDRAL.0>
5.18357

>  <SCORE.INTRA.POLAR>
0

>  <SCORE.INTRA.POLAR.0>
0

>  <SCORE.INTRA.REPUL>
0

>  <SCORE.INTRA.REPUL.0>
0

>  <SCORE.INTRA.SOLV>
-1.07719

>  <SCORE.INTRA.SOLV.lig_0>
-109.973

>  <SCORE.INTRA.VDW>
0.0151485

>  <SCORE.INTRA.VDW.0>
-1.68646

>  <SCORE.INTRA.norm>
-0.0462182

>  <SCORE.RESTR>
0

>  <SCORE.RESTR.CAVITY>
0

>  <SCORE.RESTR.norm>
0

>  <SCORE.SYSTEM>
0

>  <SCORE.SYSTEM.CONST>
0

>  <SCORE.SYSTEM.DIHEDRAL>
0

>  <SCORE.SYSTEM.SOLV>
0

>  <SCORE.SYSTEM.norm>
0

>  <SCORE.heavy>
41

>  <SCORE.norm>
-0.299228

>  <RMSD>
1.358

$$$$
ligand
 OpenBabel11021811423D
libRbt.so/2013.1/901 2013/11/27
 41 45  0  0  0  0  0  0  0  0999 V2000
   34.6625   39.1521    4.7783 C   0  0  2  0  0  0  0  0  0  0  0  0
   34.3501   39.1931    6.1845 O   0  0  0  0  0  0  0  0  0  0  0  0
   34.0460   36.2518    9.3741 C   0  0  2  0  0  0  0  0  0  0  0  0
   33.6710   35.0079   10.0948 N   0  0  0  0  0  0  0  0  0  0  0  0
   37.8403   37.2836    6.6513 C   0  0  1  0  0  0  0  0  0  0  0  0
   42.1074   38.6617    5.2876 C   0  0  1  0  0  0  0  0  0  0  0  0
   35.5667   40.3533    4.3692 C   0  0  2  0  0  0  0  0  0  0  0  0
   36.7813   40.4578    5.1834 N   0  0  0  0  0  0  0  0  0  0  0  0
   32.7515   36.9245    8.8176 C   0  0  0  0  0  0  0  0  0  0  0  0
   38.7450   36.7929    5.4979 C   0  0  2  0  0  0  0  0  0  0  0  0
   39.4900   35.6269    5.8641 O   0  0  0  0  0  0  0  0  0  0  0  0
   43.3964   38.5356    6.2068 C   0  0  2  0  0  0  0  0  0  0  0  0
   43.1700   38.9256    7.6321 N   0  0  0  0  0  0  0  0  0  0  0  0
   34.7631   41.6796    4.4427 C   0  0  1  0  0  0  0  0  0  0  0  0
   35.5859   42.7720    4.0418 O   0  0  0  0  0  0  0  0  0  0  0  0
   33.0839   38.2332    8.0436 C   0  0  2  0  0  0  0  0  0  0  0  0
   31.8136   38.8080    7.5621 N   0  0  0  0  0  0  0  0  0  0  0  0
   39.6429   37.9984    5.1710 C   0  0  2  0  0  0  0  0  0  0  0  0
   40.9650   37.9116    5.8374 O   0  0  0  0  0  0  0  0  0  0  0  0
   44.5856   39.4042    5.5928 C   0  0  1  0  0  0  0  0  0  0  0  0
   45.0441   38.8514    4.3393 O   0  0  0  0  0  0  0  0  0  0  0  0
   33.5105   41.5813    3.5416 C   0  0  2  0  0  0  0  0  0  0  0  0
   32.7836   42.7910    3.5899 O   0  0  0  0  0  0  0  0  0  0  0  0
   34.0880   37.9275    6.8762 C   0  0  2  0  0  0  0  0  0  0  0  0
   38.8422   39.1986    5.6684 C   0  0  2  0  0  0  0  0  0  0  0  0
   37.9758   38.7055    6.6804 O   0  0  0  0  0  0  0  0  0  0  0  0
   44.1647   40.9106    5.3585 C   0  0  2  0  0  0  0  0  0  0  0  0
   43.9490   41.5448    6.6304 O   0  0  0  0  0  0  0  0  0  0  0  0
   32.6264   40.3997    3.9879 C   0  0  2  0  0  0  0  0  0  0  0  0
   33.4409   39.1653    3.9398 O   0  0  0  0  0  0  0  0  0  0  0  0
   35.4302   37.2723    7.4776 C   0  0  2  0  0  0  0  0  0  0  0  0
   36.4224   36.9216    6.4258 O   0  0  0  0  0  0  0  0  0  0  0  0
   37.9814   39.8488    4.5952 C   0  0  0  0  0  0  0  0  0  0  0  0
   42.8535   40.9694    4.4743 C   0  0  1  0  0  0  0  0  0  0  0  0
   41.7599   40.1081    5.0395 O   0  0  0  0  0  0  0  0  0  0  0  0
   31.3900   40.2965    3.0647 C   0  0  0  0  0  0  0  0  0  0  0  0
   30.4647   39.1943    3.3862 N   0  0  0  0  0  0  0  0  0  0  0  0
   35.0765   35.9634    8.2155 C   0  0  1  0  0  0  0  0  0  0  0  0
   36.2692   35.3795    8.7494 O   0  0  0  0  0  0  0  0  0  0  0  0
   42.3293   42.4369    4.2313 C   0  0  0  0  0  0  0  0  0  0  0  0
   41.0398   42.5644    3.4801 N   0  0  0  0  0  0  0  0  0  0  0  0
  1  2  1  1  0  0  0
  1  7  1  0  0  0  0
  1 30  1  0  0  0  0
  3  4  1  6  0  0  0
  3  9  1  0  0  0  0
  3 38  1  0  0  0  0
  5 10  1  0  0  0  0
  5 26  1  6  0  0  0
  5 32  1  0  0  0  0
  6 12  1  0  0  0  0
  6 35  1  0  0  0  0
  6 19  1  1  0  0  0
  7  8  1  1  0  0  0
  7 14  1  0  0  0  0
  8 33  1  0  0  0  0
  9 16  1  0  0  0  0
 10 11  1  1  0  0  0
 10 18  1  0  0  0  0
 12 13  1  1  0  0  0
 12 20  1  0  0  0  0
 14 15  1  6  0  0  0
 14 22  1  0  0  0  0
 16 17  1  6  0  0  0
 16 24  1  0  0  0  0
 18 19  1  1  0  0  0
 18 25  1  0  0  0  0
 20 21  1  6  0  0  0
 20 27  1  0  0  0  0
 22 23  1  1  0  0  0
 22 29  1  0  0  0  0
 24  2  1  1  0  0  0
 24 31  1  0  0  0  0
 25 26  1  1  0  0  0
 25 33  1  0  0  0  0
 27 28  1  1  0  0  0
 27 34  1  0  0  0  0
 29 30  1  0  0  0  0
 29 36  1  6  0  0  0
 31 32  1  6  0  0  0
 31 38  1  0  0  0  0
 34 35  1  0  0  0  0
 34 40  1  1  0  0  0
 36 37  1  0  0  0  0
 38 39  1  1  0  0  0
 40 41  1  0  0  0  0
M  END
>  <CHROM.1>
157.58408338,175.24209999,179.70143237,-176.01585723,37.44965367,39.08022423
5.75649387,3.02650657,0.01805536,2.46329689

>  <Name>
ligand

>  <RI>
0

>  <Rbt.Current_Directory>
/home/itssahil/PROJECTS/Mol_Feturizer/New_Systems/rnas/1ZZ5

>  <Rbt.Executable>
rbdock ($Id: //depot/dev/client3/rdock/2013.1/src/exe/rbdock.cxx#4 $)

>  <Rbt.Library>
libRbt.so (2013.1, Build901 2013/11/27)

>  <Rbt.Parameter_File>
/export/apps/rDock/src/rDock_2013.1_src/data/scripts/dock_solv.prm

>  <Rbt.Receptor>
prm/pocket_docking_3.prm

>  <SCORE>
-12.2915

>  <SCORE.INTER>
-10.4156

>  <SCORE.INTER.CONST>
1

>  <SCORE.INTER.POLAR>
0

>  <SCORE.INTER.ROT>
4

>  <SCORE.INTER.SOLV>
23.6977

>  <SCORE.INTER.VDW>
-21.1096

>  <SCORE.INTER.norm>
-0.254039

>  <SCORE.INTRA>
-1.87594

>  <SCORE.INTRA.DIHEDRAL>
-2.61403

>  <SCORE.INTRA.DIHEDRAL.0>
5.18357

>  <SCORE.INTRA.POLAR>
0

>  <SCORE.INTRA.POLAR.0>
0

>  <SCORE.INTRA.REPUL>
0

>  <SCORE.INTRA.REPUL.0>
0

>  <SCORE.INTRA.SOLV>
-1.15602

>  <SCORE.INTRA.SOLV.lig_0>
-109.973

>  <SCORE.INTRA.VDW>
0.00908869

>  <SCORE.INTRA.VDW.0>
-1.68646

>  <SCORE.INTRA.norm>
-0.0457545

>  <SCORE.RESTR>
0

>  <SCORE.RESTR.CAVITY>
0

>  <SCORE.RESTR.norm>
0

>  <SCORE.SYSTEM>
0

>  <SCORE.SYSTEM.CONST>
0

>  <SCORE.SYSTEM.DIHEDRAL>
0

>  <SCORE.SYSTEM.SOLV>
0

>  <SCORE.SYSTEM.norm>
0

>  <SCORE.heavy>
41

>  <SCORE.norm>
-0.299794

>  <RMSD>
1.359

$$$$
ligand
 OpenBabel11021811423D
libRbt.so/2013.1/901 2013/11/27
 41 45  0  0  0  0  0  0  0  0999 V2000
   34.7368   39.1801    4.7516 C   0  0  2  0  0  0  0  0  0  0  0  0
   34.4555   39.2000    6.1647 O   0  0  0  0  0  0  0  0  0  0  0  0
   34.1851   36.2068    9.3088 C   0  0  2  0  0  0  0  0  0  0  0  0
   33.8107   34.9549   10.0159 N   0  0  0  0  0  0  0  0  0  0  0  0
   37.9316   37.2416    6.5217 C   0  0  1  0  0  0  0  0  0  0  0  0
   42.1808   38.6064    5.0991 C   0  0  1  0  0  0  0  0  0  0  0  0
   35.6464   40.3775    4.3436 C   0  0  2  0  0  0  0  0  0  0  0  0
   36.8796   40.4534    5.1326 N   0  0  0  0  0  0  0  0  0  0  0  0
   32.8871   36.9044    8.7925 C   0  0  0  0  0  0  0  0  0  0  0  0
   38.8050   36.7607    5.3404 C   0  0  2  0  0  0  0  0  0  0  0  0
   39.5435   35.5797    5.6699 O   0  0  0  0  0  0  0  0  0  0  0  0
   43.4981   38.4145    5.9651 C   0  0  2  0  0  0  0  0  0  0  0  0
   43.3274   38.7355    7.4151 N   0  0  0  0  0  0  0  0  0  0  0  0
   34.8608   41.7117    4.4577 C   0  0  1  0  0  0  0  0  0  0  0  0
   35.6879   42.8012    4.0579 O   0  0  0  0  0  0  0  0  0  0  0  0
   33.2184   38.2224    8.0342 C   0  0  2  0  0  0  0  0  0  0  0  0
   31.9450   38.8206    7.5908 N   0  0  0  0  0  0  0  0  0  0  0  0
   39.7102   37.9610    5.0149 C   0  0  2  0  0  0  0  0  0  0  0  0
   41.0453   37.8470    5.6505 O   0  0  0  0  0  0  0  0  0  0  0  0
   44.6802   39.2947    5.3539 C   0  0  1  0  0  0  0  0  0  0  0  0
   45.0860   38.7989    4.0591 O   0  0  0  0  0  0  0  0  0  0  0  0
   33.5878   41.6440    3.5827 C   0  0  2  0  0  0  0  0  0  0  0  0
   32.8769   42.8612    3.6679 O   0  0  0  0  0  0  0  0  0  0  0  0
   34.1932   37.9256    6.8400 C   0  0  2  0  0  0  0  0  0  0  0  0
   38.9351   39.1617    5.5504 C   0  0  2  0  0  0  0  0  0  0  0  0
   38.0850   38.6611    6.5725 O   0  0  0  0  0  0  0  0  0  0  0  0
   44.2771   40.8173    5.2098 C   0  0  2  0  0  0  0  0  0  0  0  0
   44.1159   41.3897    6.5186 O   0  0  0  0  0  0  0  0  0  0  0  0
   32.6993   40.4653    4.0277 C   0  0  2  0  0  0  0  0  0  0  0  0
   33.4976   39.2224    3.9404 O   0  0  0  0  0  0  0  0  0  0  0  0
   35.5401   37.2442    7.4004 C   0  0  2  0  0  0  0  0  0  0  0  0
   36.5049   36.9004    6.3211 O   0  0  0  0  0  0  0  0  0  0  0  0
   38.0591   39.8407    4.5079 C   0  0  0  0  0  0  0  0  0  0  0  0
   42.9377   40.9405    4.3762 C   0  0  1  0  0  0  0  0  0  0  0  0
   41.8496   40.0685    4.9357 O   0  0  0  0  0  0  0  0  0  0  0  0
   31.4420   40.3929    3.1302 C   0  0  0  0  0  0  0  0  0  0  0  0
   30.4904   39.3218    3.4789 N   0  0  0  0  0  0  0  0  0  0  0  0
   35.1866   35.9267    8.1230 C   0  0  1  0  0  0  0  0  0  0  0  0
   36.3835   35.3195    8.6205 O   0  0  0  0  0  0  0  0  0  0  0  0
   42.4304   42.4262    4.2252 C   0  0  0  0  0  0  0  0  0  0  0  0
   42.1217   43.1539    5.4974 N   0  0  0  0  0  0  0  0  0  0  0  0
  1  2  1  1  0  0  0
  1  7  1  0  0  0  0
  1 30  1  0  0  0  0
  3  4  1  6  0  0  0
  3  9  1  0  0  0  0
  3 38  1  0  0  0  0
  5 10  1  0  0  0  0
  5 26  1  6  0  0  0
  5 32  1  0  0  0  0
  6 12  1  0  0  0  0
  6 35  1  0  0  0  0
  6 19  1  1  0  0  0
  7  8  1  1  0  0  0
  7 14  1  0  0  0  0
  8 33  1  0  0  0  0
  9 16  1  0  0  0  0
 10 11  1  1  0  0  0
 10 18  1  0  0  0  0
 12 13  1  1  0  0  0
 12 20  1  0  0  0  0
 14 15  1  6  0  0  0
 14 22  1  0  0  0  0
 16 17  1  6  0  0  0
 16 24  1  0  0  0  0
 18 19  1  1  0  0  0
 18 25  1  0  0  0  0
 20 21  1  6  0  0  0
 20 27  1  0  0  0  0
 22 23  1  1  0  0  0
 22 29  1  0  0  0  0
 24  2  1  1  0  0  0
 24 31  1  0  0  0  0
 25 26  1  1  0  0  0
 25 33  1  0  0  0  0
 27 28  1  1  0  0  0
 27 34  1  0  0  0  0
 29 30  1  0  0  0  0
 29 36  1  6  0  0  0
 31 32  1  6  0  0  0
 31 38  1  0  0  0  0
 34 35  1  0  0  0  0
 34 40  1  1  0  0  0
 36 37  1  0  0  0  0
 38 39  1  1  0  0  0
 40 41  1  0  0  0  0
M  END
>  <CHROM.1>
158.34916620,176.77894126,-178.50779194,-60.10487557,37.56823970,39.07391717
5.72844935,3.02769314,0.00758357,2.51067783

>  <Name>
ligand

>  <RI>
0

>  <Rbt.Current_Directory>
/home/itssahil/PROJECTS/Mol_Feturizer/New_Systems/rnas/1ZZ5

>  <Rbt.Executable>
rbdock ($Id: //depot/dev/client3/rdock/2013.1/src/exe/rbdock.cxx#4 $)

>  <Rbt.Library>
libRbt.so (2013.1, Build901 2013/11/27)

>  <Rbt.Parameter_File>
/export/apps/rDock/src/rDock_2013.1_src/data/scripts/dock_solv.prm

>  <Rbt.Receptor>
prm/pocket_docking_7.prm

>  <SCORE>
-12.0266

>  <SCORE.INTER>
-10.5994

>  <SCORE.INTER.CONST>
1

>  <SCORE.INTER.POLAR>
0

>  <SCORE.INTER.ROT>
4

>  <SCORE.INTER.SOLV>
20.0651

>  <SCORE.INTER.VDW>
-20.0213

>  <SCORE.INTER.norm>
-0.258523

>  <SCORE.INTRA>
-1.42719

>  <SCORE.INTRA.DIHEDRAL>
-2.84174

>  <SCORE.INTRA.DIHEDRAL.0>
5.18357

>  <SCORE.INTRA.POLAR>
0

>  <SCORE.INTRA.POLAR.0>
0

>  <SCORE.INTRA.REPUL>
0

>  <SCORE.INTRA.REPUL.0>
0

>  <SCORE.INTRA.SOLV>
0.0611659

>  <SCORE.INTRA.SOLV.lig_0>
-109.973

>  <SCORE.INTRA.VDW>
-0.0369053

>  <SCORE.INTRA.VDW.0>
-1.68646

>  <SCORE.INTRA.norm>
-0.0348096

>  <SCORE.RESTR>
0

>  <SCORE.RESTR.CAVITY>
0

>  <SCORE.RESTR.norm>
0

>  <SCORE.SYSTEM>
0

>  <SCORE.SYSTEM.CONST>
0

>  <SCORE.SYSTEM.DIHEDRAL>
0

>  <SCORE.SYSTEM.SOLV>
0

>  <SCORE.SYSTEM.norm>
0

>  <SCORE.heavy>
41

>  <SCORE.norm>
-0.293332

>  <RMSD>
1.374

$$$$
ligand
 OpenBabel11021811423D
libRbt.so/2013.1/901 2013/11/27
 41 45  0  0  0  0  0  0  0  0999 V2000
   34.6698   39.1638    4.7560 C   0  0  2  0  0  0  0  0  0  0  0  0
   34.3632   39.2000    6.1635 O   0  0  0  0  0  0  0  0  0  0  0  0
   34.0614   36.2463    9.3420 C   0  0  2  0  0  0  0  0  0  0  0  0
   33.6848   35.0007   10.0590 N   0  0  0  0  0  0  0  0  0  0  0  0
   37.8483   37.2760    6.6082 C   0  0  1  0  0  0  0  0  0  0  0  0
   42.1080   38.6671    5.2501 C   0  0  1  0  0  0  0  0  0  0  0  0
   35.5766   40.3634    4.3482 C   0  0  2  0  0  0  0  0  0  0  0  0
   36.7949   40.4602    5.1580 N   0  0  0  0  0  0  0  0  0  0  0  0
   32.7671   36.9260    8.7935 C   0  0  0  0  0  0  0  0  0  0  0  0
   38.7467   36.7870    5.4491 C   0  0  2  0  0  0  0  0  0  0  0  0
   39.4889   35.6167    5.8073 O   0  0  0  0  0  0  0  0  0  0  0  0
   43.3952   38.5409    6.1718 C   0  0  2  0  0  0  0  0  0  0  0  0
   43.1598   38.9065    7.6021 N   0  0  0  0  0  0  0  0  0  0  0  0
   34.7781   41.6923    4.4306 C   0  0  1  0  0  0  0  0  0  0  0  0
   35.6032   42.7834    4.0310 O   0  0  0  0  0  0  0  0  0  0  0  0
   33.1010   38.2367    8.0237 C   0  0  2  0  0  0  0  0  0  0  0  0
   31.8309   38.8181    7.5498 N   0  0  0  0  0  0  0  0  0  0  0  0
   39.6476   37.9906    5.1236 C   0  0  2  0  0  0  0  0  0  0  0  0
   40.9720   37.8962    5.7843 O   0  0  0  0  0  0  0  0  0  0  0  0
   44.5769   39.4316    5.5753 C   0  0  1  0  0  0  0  0  0  0  0  0
   45.0456   38.9031    4.3152 O   0  0  0  0  0  0  0  0  0  0  0  0
   33.5216   41.6023    3.5341 C   0  0  2  0  0  0  0  0  0  0  0  0
   32.7992   42.8144    3.5905 O   0  0  0  0  0  0  0  0  0  0  0  0
   34.0994   37.9324    6.8510 C   0  0  2  0  0  0  0  0  0  0  0  0
   38.8532   39.1915    5.6293 C   0  0  2  0  0  0  0  0  0  0  0  0
   37.9891   38.6973    6.6428 O   0  0  0  0  0  0  0  0  0  0  0  0
   44.1404   40.9368    5.3625 C   0  0  2  0  0  0  0  0  0  0  0  0
   43.9135   41.5490    6.6432 O   0  0  0  0  0  0  0  0  0  0  0  0
   32.6350   40.4220    3.9791 C   0  0  2  0  0  0  0  0  0  0  0  0
   33.4449   39.1849    3.9225 O   0  0  0  0  0  0  0  0  0  0  0  0
   35.4416   37.2699    7.4442 C   0  0  2  0  0  0  0  0  0  0  0  0
   36.4283   36.9201    6.3869 O   0  0  0  0  0  0  0  0  0  0  0  0
   37.9904   39.8493    4.5624 C   0  0  0  0  0  0  0  0  0  0  0  0
   42.8316   40.9948    4.4748 C   0  0  1  0  0  0  0  0  0  0  0  0
   41.7456   40.1132    5.0229 O   0  0  0  0  0  0  0  0  0  0  0  0
   31.3945   40.3271    3.0605 C   0  0  0  0  0  0  0  0  0  0  0  0
   30.4234   39.2822    3.4337 N   0  0  0  0  0  0  0  0  0  0  0  0
   35.0862   35.9591    8.1780 C   0  0  1  0  0  0  0  0  0  0  0  0
   36.2789   35.3687    8.7046 O   0  0  0  0  0  0  0  0  0  0  0  0
   42.2922   42.4601    4.2524 C   0  0  0  0  0  0  0  0  0  0  0  0
   41.0094   42.5858    3.4897 N   0  0  0  0  0  0  0  0  0  0  0  0
  1  2  1  1  0  0  0
  1  7  1  0  0  0  0
  1 30  1  0  0  0  0
  3  4  1  6  0  0  0
  3  9  1  0  0  0  0
  3 38  1  0  0  0  0
  5 10  1  0  0  0  0
  5 26  1  6  0  0  0
  5 32  1  0  0  0  0
  6 12  1  0  0  0  0
  6 35  1  0  0  0  0
  6 19  1  1  0  0  0
  7  8  1  1  0  0  0
  7 14  1  0  0  0  0
  8 33  1  0  0  0  0
  9 16  1  0  0  0  0
 10 11  1  1  0  0  0
 10 18  1  0  0  0  0
 12 13  1  1  0  0  0
 12 20  1  0  0  0  0
 14 15  1  6  0  0  0
 14 22  1  0  0  0  0
 16 17  1  6  0  0  0
 16 24  1  0  0  0  0
 18 19  1  1  0  0  0
 18 25  1  0  0  0  0
 20 21  1  6  0  0  0
 20 27  1  0  0  0  0
 22 23  1  1  0  0  0
 22 29  1  0  0  0  0
 24  2  1  1  0  0  0
 24 31  1  0  0  0  0
 25 26  1  1  0  0  0
 25 33  1  0  0  0  0
 27 28  1  1  0  0  0
 27 34  1  0  0  0  0
 29 30  1  0  0  0  0
 29 36  1  6  0  0  0
 31 32  1  6  0  0  0
 31 38  1  0  0  0  0
 34 35  1  0  0  0  0
 34 40  1  1  0  0  0
 36 37  1  0  0  0  0
 38 39  1  1  0  0  0
 40 41  1  0  0  0  0
M  END
>  <CHROM.1>
158.88131663,174.56656697,-176.53732585,-176.46744599,37.45152453,39.08903734
5.73504951,3.02696559,0.01679006,2.47053773

>  <Name>
ligand

>  <RI>
0

>  <Rbt.Current_Directory>
/home/itssahil/PROJECTS/Mol_Feturizer/New_Systems/rnas/1ZZ5

>  <Rbt.Executable>
rbdock ($Id: //depot/dev/client3/rdock/2013.1/src/exe/rbdock.cxx#4 $)

>  <Rbt.Library>
libRbt.so (2013.1, Build901 2013/11/27)

>  <Rbt.Parameter_File>
/export/apps/rDock/src/rDock_2013.1_src/data/scripts/dock_solv.prm

>  <Rbt.Receptor>
prm/pocket_docking_3.prm

>  <SCORE>
-12.3013

>  <SCORE.INTER>
-10.3738

>  <SCORE.INTER.CONST>
1

>  <SCORE.INTER.POLAR>
0

>  <SCORE.INTER.ROT>
4

>  <SCORE.INTER.SOLV>
23.7069

>  <SCORE.INTER.VDW>
-21.0848

>  <SCORE.INTER.norm>
-0.253019

>  <SCORE.INTRA>
-1.92747

>  <SCORE.INTRA.DIHEDRAL>
-2.76847

>  <SCORE.INTRA.DIHEDRAL.0>
5.18357

>  <SCORE.INTRA.POLAR>
0

>  <SCORE.INTRA.POLAR.0>
0

>  <SCORE.INTRA.REPUL>
0

>  <SCORE.INTRA.REPUL.0>
0

>  <SCORE.INTRA.SOLV>
-1.11064

>  <SCORE.INTRA.SOLV.lig_0>
-109.973

>  <SCORE.INTRA.VDW>
0.0120801

>  <SCORE.INTRA.VDW.0>
-1.68646

>  <SCORE.INTRA.norm>
-0.0470116

>  <SCORE.RESTR>
0

>  <SCORE.RESTR.CAVITY>
0

>  <SCORE.RESTR.norm>
0

>  <SCORE.SYSTEM>
0

>  <SCORE.SYSTEM.CONST>
0

>  <SCORE.SYSTEM.DIHEDRAL>
0

>  <SCORE.SYSTEM.SOLV>
0

>  <SCORE.SYSTEM.norm>
0

>  <SCORE.heavy>
41

>  <SCORE.norm>
-0.300031

>  <RMSD>
1.379

$$$$
ligand
 OpenBabel11021811423D
libRbt.so/2013.1/901 2013/11/27
 41 45  0  0  0  0  0  0  0  0999 V2000
   34.4551   39.1702    4.8651 C   0  0  2  0  0  0  0  0  0  0  0  0
   34.1450   39.2456    6.2703 O   0  0  0  0  0  0  0  0  0  0  0  0
   33.8114   36.3789    9.5243 C   0  0  2  0  0  0  0  0  0  0  0  0
   33.4231   35.1556   10.2726 N   0  0  0  0  0  0  0  0  0  0  0  0
   37.6137   37.3069    6.7754 C   0  0  1  0  0  0  0  0  0  0  0  0
   41.9018   38.5793    5.3594 C   0  0  1  0  0  0  0  0  0  0  0  0
   35.3724   40.3515    4.4287 C   0  0  2  0  0  0  0  0  0  0  0  0
   36.5892   40.4600    5.2391 N   0  0  0  0  0  0  0  0  0  0  0  0
   32.5239   37.0541    8.9544 C   0  0  0  0  0  0  0  0  0  0  0  0
   38.5112   36.7806    5.6322 C   0  0  2  0  0  0  0  0  0  0  0  0
   39.2432   35.6144    6.0231 O   0  0  0  0  0  0  0  0  0  0  0  0
   43.2060   38.4139    6.2504 C   0  0  2  0  0  0  0  0  0  0  0  0
   43.0282   38.8293    7.6754 N   0  0  0  0  0  0  0  0  0  0  0  0
   34.5842   41.6883    4.4738 C   0  0  1  0  0  0  0  0  0  0  0  0
   35.4189   42.7621    4.0481 O   0  0  0  0  0  0  0  0  0  0  0  0
   32.8703   38.3414    8.1515 C   0  0  2  0  0  0  0  0  0  0  0  0
   31.6060   38.9201    7.6588 N   0  0  0  0  0  0  0  0  0  0  0  0
   39.4224   37.9681    5.2779 C   0  0  2  0  0  0  0  0  0  0  0  0
   40.7443   37.8809    5.9446 O   0  0  0  0  0  0  0  0  0  0  0  0
   44.4134   39.2280    5.5984 C   0  0  1  0  0  0  0  0  0  0  0  0
   44.8207   38.6430    4.3420 O   0  0  0  0  0  0  0  0  0  0  0  0
   33.3294   41.5845    3.5764 C   0  0  2  0  0  0  0  0  0  0  0  0
   32.6165   42.8033    3.5988 O   0  0  0  0  0  0  0  0  0  0  0  0
   33.8693   37.9987    6.9901 C   0  0  2  0  0  0  0  0  0  0  0  0
   38.6362   39.1881    5.7495 C   0  0  2  0  0  0  0  0  0  0  0  0
   37.7655   38.7274    6.7731 O   0  0  0  0  0  0  0  0  0  0  0  0
   44.0457   40.7469    5.3546 C   0  0  2  0  0  0  0  0  0  0  0  0
   43.8844   41.4040    6.6229 O   0  0  0  0  0  0  0  0  0  0  0  0
   32.4324   40.4234    4.0496 C   0  0  2  0  0  0  0  0  0  0  0  0
   33.2327   39.1789    4.0278 O   0  0  0  0  0  0  0  0  0  0  0  0
   35.2047   37.3415    7.6044 C   0  0  2  0  0  0  0  0  0  0  0  0
   36.1915   36.9564    6.5594 O   0  0  0  0  0  0  0  0  0  0  0  0
   37.7815   39.8244    4.6633 C   0  0  0  0  0  0  0  0  0  0  0  0
   42.7176   40.8462    4.4999 C   0  0  1  0  0  0  0  0  0  0  0  0
   41.6049   40.0350    5.1008 O   0  0  0  0  0  0  0  0  0  0  0  0
   31.1936   40.3140    3.1302 C   0  0  0  0  0  0  0  0  0  0  0  0
   30.2564   39.2297    3.4766 N   0  0  0  0  0  0  0  0  0  0  0  0
   34.8370   36.0533    8.3712 C   0  0  1  0  0  0  0  0  0  0  0  0
   36.0236   35.4676    8.9166 O   0  0  0  0  0  0  0  0  0  0  0  0
   42.2451   42.3301    4.2502 C   0  0  0  0  0  0  0  0  0  0  0  0
   40.9780   42.5000    3.4698 N   0  0  0  0  0  0  0  0  0  0  0  0
  1  2  1  1  0  0  0
  1  7  1  0  0  0  0
  1 30  1  0  0  0  0
  3  4  1  6  0  0  0
  3  9  1  0  0  0  0
  3 38  1  0  0  0  0
  5 10  1  0  0  0  0
  5 26  1  6  0  0  0
  5 32  1  0  0  0  0
  6 12  1  0  0  0  0
  6 35  1  0  0  0  0
  6 19  1  1  0  0  0
  7  8  1  1  0  0  0
  7 14  1  0  0  0  0
  8 33  1  0  0  0  0
  9 16  1  0  0  0  0
 10 11  1  1  0  0  0
 10 18  1  0  0  0  0
 12 13  1  1  0  0  0
 12 20  1  0  0  0  0
 14 15  1  6  0  0  0
 14 22  1  0  0  0  0
 16 17  1  6  0  0  0
 16 24  1  0  0  0  0
 18 19  1  1  0  0  0
 18 25  1  0  0  0  0
 20 21  1  6  0  0  0
 20 27  1  0  0  0  0
 22 23  1  1  0  0  0
 22 29  1  0  0  0  0
 24  2  1  1  0  0  0
 24 31  1  0  0  0  0
 25 26  1  1  0  0  0
 25 33  1  0  0  0  0
 27 28  1  1  0  0  0
 27 34  1  0  0  0  0
 29 30  1  0  0  0  0
 29 36  1  6  0  0  0
 31 32  1  6  0  0  0
 31 38  1  0  0  0  0
 34 35  1  0  0  0  0
 34 40  1  1  0  0  0
 36 37  1  0  0  0  0
 38 39  1  1  0  0  0
 40 41  1  0  0  0  0
M  END
>  <CHROM.1>
156.12587097,177.61760464,179.68872206,-178.84880401,37.25685532,39.07291941
5.83354585,3.03724756,0.00438656,2.44030026

>  <Name>
ligand

>  <RI>
0

>  <Rbt.Current_Directory>
/home/itssahil/PROJECTS/Mol_Feturizer/New_Systems/rnas/1ZZ5

>  <Rbt.Executable>
rbdock ($Id: //depot/dev/client3/rdock/2013.1/src/exe/rbdock.cxx#4 $)

>  <Rbt.Library>
libRbt.so (2013.1, Build901 2013/11/27)

>  <Rbt.Parameter_File>
/export/apps/rDock/src/rDock_2013.1_src/data/scripts/dock_solv.prm

>  <Rbt.Receptor>
prm/pocket_docking_3.prm

>  <SCORE>
-12.2869

>  <SCORE.INTER>
-10.4012

>  <SCORE.INTER.CONST>
1

>  <SCORE.INTER.POLAR>
0

>  <SCORE.INTER.ROT>
4

>  <SCORE.INTER.SOLV>
23.013

>  <SCORE.INTER.VDW>
-20.8718

>  <SCORE.INTER.norm>
-0.253688

>  <SCORE.INTRA>
-1.8857

>  <SCORE.INTRA.DIHEDRAL>
-2.48592

>  <SCORE.INTRA.DIHEDRAL.0>
5.18357

>  <SCORE.INTRA.POLAR>
0

>  <SCORE.INTRA.POLAR.0>
0

>  <SCORE.INTRA.REPUL>
0

>  <SCORE.INTRA.REPUL.0>
0

>  <SCORE.INTRA.SOLV>
-1.30026

>  <SCORE.INTRA.SOLV.lig_0>
-109.973

>  <SCORE.INTRA.VDW>
0.00739855

>  <SCORE.INTRA.VDW.0>
-1.68646

>  <SCORE.INTRA.norm>
-0.0459926

>  <SCORE.RESTR>
0

>  <SCORE.RESTR.CAVITY>
0

>  <SCORE.RESTR.norm>
0

>  <SCORE.SYSTEM>
0

>  <SCORE.SYSTEM.CONST>
0

>  <SCORE.SYSTEM.DIHEDRAL>
0

>  <SCORE.SYSTEM.SOLV>
0

>  <SCORE.SYSTEM.norm>
0

>  <SCORE.heavy>
41

>  <SCORE.norm>
-0.299681

>  <RMSD>
1.387

$$$$
ligand
 OpenBabel11021811423D
libRbt.so/2013.1/901 2013/11/27
 41 45  0  0  0  0  0  0  0  0999 V2000
   35.3112   39.6054    4.8239 C   0  0  2  0  0  0  0  0  0  0  0  0
   35.0505   39.5104    6.2379 O   0  0  0  0  0  0  0  0  0  0  0  0
   34.8828   36.2783    9.1437 C   0  0  2  0  0  0  0  0  0  0  0  0
   34.5425   34.9683    9.7564 N   0  0  0  0  0  0  0  0  0  0  0  0
   38.5676   37.5998    6.3958 C   0  0  1  0  0  0  0  0  0  0  0  0
   42.7577   39.1885    5.0596 C   0  0  1  0  0  0  0  0  0  0  0  0
   36.1920   40.8486    4.4980 C   0  0  2  0  0  0  0  0  0  0  0  0
   37.4351   40.8878    5.2741 N   0  0  0  0  0  0  0  0  0  0  0  0
   33.5644   36.9878    8.7003 C   0  0  0  0  0  0  0  0  0  0  0  0
   39.4324   37.2291    5.1693 C   0  0  2  0  0  0  0  0  0  0  0  0
   40.1978   36.0411    5.3963 O   0  0  0  0  0  0  0  0  0  0  0  0
   44.1181   38.8764    5.8174 C   0  0  2  0  0  0  0  0  0  0  0  0
   44.0182   38.9530    7.3071 N   0  0  0  0  0  0  0  0  0  0  0  0
   35.3832   42.1541    4.7257 C   0  0  1  0  0  0  0  0  0  0  0  0
   36.1837   43.2875    4.4006 O   0  0  0  0  0  0  0  0  0  0  0  0
   33.8597   38.3669    8.0422 C   0  0  2  0  0  0  0  0  0  0  0  0
   32.5689   38.9720    7.6634 N   0  0  0  0  0  0  0  0  0  0  0  0
   40.3099   38.4688    4.9258 C   0  0  2  0  0  0  0  0  0  0  0  0
   41.6562   38.3325    5.5329 O   0  0  0  0  0  0  0  0  0  0  0  0
   45.2624   39.8620    5.3027 C   0  0  1  0  0  0  0  0  0  0  0  0
   45.6059   39.5910    3.9260 O   0  0  0  0  0  0  0  0  0  0  0  0
   34.0989   42.1290    3.8650 C   0  0  2  0  0  0  0  0  0  0  0  0
   33.3666   43.3215    4.0538 O   0  0  0  0  0  0  0  0  0  0  0  0
   34.8221   38.1827    6.8158 C   0  0  2  0  0  0  0  0  0  0  0  0
   39.5205   39.6088    5.5632 C   0  0  2  0  0  0  0  0  0  0  0  0
   38.6951   39.0139    6.5546 O   0  0  0  0  0  0  0  0  0  0  0  0
   44.8428   41.3816    5.4306 C   0  0  2  0  0  0  0  0  0  0  0  0
   44.7438   41.7294    6.8219 O   0  0  0  0  0  0  0  0  0  0  0  0
   33.2395   40.9020    4.2290 C   0  0  2  0  0  0  0  0  0  0  0  0
   34.0595   39.6856    4.0350 O   0  0  0  0  0  0  0  0  0  0  0  0
   36.1897   37.4869    7.3037 C   0  0  2  0  0  0  0  0  0  0  0  0
   37.1448   37.2468    6.1883 O   0  0  0  0  0  0  0  0  0  0  0  0
   38.6166   40.3488    4.5881 C   0  0  0  0  0  0  0  0  0  0  0  0
   43.4624   41.6202    4.6945 C   0  0  1  0  0  0  0  0  0  0  0  0
   42.4094   40.6526    5.1550 O   0  0  0  0  0  0  0  0  0  0  0  0
   31.9706   40.8741    3.3454 C   0  0  0  0  0  0  0  0  0  0  0  0
   31.0638   39.7386    3.5955 N   0  0  0  0  0  0  0  0  0  0  0  0
   35.8718   36.1107    7.9266 C   0  0  1  0  0  0  0  0  0  0  0  0
   37.0871   35.4908    8.3595 O   0  0  0  0  0  0  0  0  0  0  0  0
   42.9388   43.1030    4.8145 C   0  0  0  0  0  0  0  0  0  0  0  0
   42.7320   43.6227    6.2040 N   0  0  0  0  0  0  0  0  0  0  0  0
  1  2  1  1  0  0  0
  1  7  1  0  0  0  0
  1 30  1  0  0  0  0
  3  4  1  6  0  0  0
  3  9  1  0  0  0  0
  3 38  1  0  0  0  0
  5 10  1  0  0  0  0
  5 26  1  6  0  0  0
  5 32  1  0  0  0  0
  6 12  1  0  0  0  0
  6 35  1  0  0  0  0
  6 19  1  1  0  0  0
  7  8  1  1  0  0  0
  7 14  1  0  0  0  0
  8 33  1  0  0  0  0
  9 16  1  0  0  0  0
 10 11  1  1  0  0  0
 10 18  1  0  0  0  0
 12 13  1  1  0  0  0
 12 20  1  0  0  0  0
 14 15  1  6  0  0  0
 14 22  1  0  0  0  0
 16 17  1  6  0  0  0
 16 24  1  0  0  0  0
 18 19  1  1  0  0  0
 18 25  1  0  0  0  0
 20 21  1  6  0  0  0
 20 27  1  0  0  0  0
 22 23  1  1  0  0  0
 22 29  1  0  0  0  0
 24  2  1  1  0  0  0
 24 31  1  0  0  0  0
 25 26  1  1  0  0  0
 25 33  1  0  0  0  0
 27 28  1  1  0  0  0
 27 34  1  0  0  0  0
 29 30  1  0  0  0  0
 29 36  1  6  0  0  0
 31 32  1  6  0  0  0
 31 38  1  0  0  0  0
 34 35  1  0  0  0  0
 34 40  1  1  0  0  0
 36 37  1  0  0  0  0
 38 39  1  1  0  0  0
 40 41  1  0  0  0  0
M  END
>  <CHROM.1>
160.50327168,-179.18801831,179.78676812,-58.18534399,38.16407776,39.47763689
5.78684787,3.01318846,0.01599720,2.59570771

>  <Name>
ligand

>  <RI>
0

>  <Rbt.Current_Directory>
/home/itssahil/PROJECTS/Mol_Feturizer/New_Systems/rnas/1ZZ5

>  <Rbt.Executable>
rbdock ($Id: //depot/dev/client3/rdock/2013.1/src/exe/rbdock.cxx#4 $)

>  <Rbt.Library>
libRbt.so (2013.1, Build901 2013/11/27)

>  <Rbt.Parameter_File>
/export/apps/rDock/src/rDock_2013.1_src/data/scripts/dock_solv.prm

>  <Rbt.Receptor>
prm/pocket_docking_3.prm

>  <SCORE>
-11.8081

>  <SCORE.INTER>
-10.2064

>  <SCORE.INTER.CONST>
1

>  <SCORE.INTER.POLAR>
0

>  <SCORE.INTER.ROT>
4

>  <SCORE.INTER.SOLV>
17.1388

>  <SCORE.INTER.VDW>
-18.7839

>  <SCORE.INTER.norm>
-0.248937

>  <SCORE.INTRA>
-1.60175

>  <SCORE.INTRA.DIHEDRAL>
-3.24143

>  <SCORE.INTRA.DIHEDRAL.0>
5.18357

>  <SCORE.INTRA.POLAR>
0

>  <SCORE.INTRA.POLAR.0>
0

>  <SCORE.INTRA.REPUL>
0

>  <SCORE.INTRA.REPUL.0>
0

>  <SCORE.INTRA.SOLV>
0.0492039

>  <SCORE.INTRA.SOLV.lig_0>
-109.973

>  <SCORE.INTRA.VDW>
-0.00563539

>  <SCORE.INTRA.VDW.0>
-1.68646

>  <SCORE.INTRA.norm>
-0.039067

>  <SCORE.RESTR>
0

>  <SCORE.RESTR.CAVITY>
0

>  <SCORE.RESTR.norm>
0

>  <SCORE.SYSTEM>
0

>  <SCORE.SYSTEM.CONST>
0

>  <SCORE.SYSTEM.DIHEDRAL>
0

>  <SCORE.SYSTEM.SOLV>
0

>  <SCORE.SYSTEM.norm>
0

>  <SCORE.heavy>
41

>  <SCORE.norm>
-0.288004

>  <RMSD>
1.390

$$$$
ligand
 OpenBabel11021811423D
libRbt.so/2013.1/901 2013/11/27
 41 45  0  0  0  0  0  0  0  0999 V2000
   34.6602   39.1686    4.7980 C   0  0  2  0  0  0  0  0  0  0  0  0
   34.3673   39.2077    6.2084 O   0  0  0  0  0  0  0  0  0  0  0  0
   34.0713   36.2576    9.3907 C   0  0  2  0  0  0  0  0  0  0  0  0
   33.6913   35.0154   10.1117 N   0  0  0  0  0  0  0  0  0  0  0  0
   37.8405   37.2553    6.6208 C   0  0  1  0  0  0  0  0  0  0  0  0
   42.0963   38.6180    5.2275 C   0  0  1  0  0  0  0  0  0  0  0  0
   35.5730   40.3605    4.3812 C   0  0  2  0  0  0  0  0  0  0  0  0
   36.7996   40.4475    5.1793 N   0  0  0  0  0  0  0  0  0  0  0  0
   32.7775   36.9478    8.8542 C   0  0  0  0  0  0  0  0  0  0  0  0
   38.7238   36.7585    5.4534 C   0  0  2  0  0  0  0  0  0  0  0  0
   39.4597   35.5823    5.8051 O   0  0  0  0  0  0  0  0  0  0  0  0
   43.3937   38.4723    6.1317 C   0  0  2  0  0  0  0  0  0  0  0  0
   43.1785   38.8237    7.5688 N   0  0  0  0  0  0  0  0  0  0  0  0
   34.7862   41.6960    4.4706 C   0  0  1  0  0  0  0  0  0  0  0  0
   35.6164   42.7801    4.0628 O   0  0  0  0  0  0  0  0  0  0  0  0
   33.1149   38.2554    8.0808 C   0  0  2  0  0  0  0  0  0  0  0  0
   31.8451   38.8471    7.6187 N   0  0  0  0  0  0  0  0  0  0  0  0
   39.6314   37.9545    5.1190 C   0  0  2  0  0  0  0  0  0  0  0  0
   40.9612   37.8495    5.7671 O   0  0  0  0  0  0  0  0  0  0  0  0
   44.5746   39.3610    5.5306 C   0  0  1  0  0  0  0  0  0  0  0  0
   45.0238   38.8431    4.2591 O   0  0  0  0  0  0  0  0  0  0  0  0
   33.5205   41.6160    3.5861 C   0  0  2  0  0  0  0  0  0  0  0  0
   32.8088   42.8340    3.6488 O   0  0  0  0  0  0  0  0  0  0  0  0
   34.0995   37.9426    6.8988 C   0  0  2  0  0  0  0  0  0  0  0  0
   38.8518   39.1621    5.6317 C   0  0  2  0  0  0  0  0  0  0  0  0
   37.9933   38.6753    6.6535 O   0  0  0  0  0  0  0  0  0  0  0  0
   44.1465   40.8716    5.3398 C   0  0  2  0  0  0  0  0  0  0  0  0
   43.9399   41.4711    6.6299 O   0  0  0  0  0  0  0  0  0  0  0  0
   32.6286   40.4432    4.0399 C   0  0  2  0  0  0  0  0  0  0  0  0
   33.4277   39.1994    3.9761 O   0  0  0  0  0  0  0  0  0  0  0  0
   35.4418   37.2692    7.4796 C   0  0  2  0  0  0  0  0  0  0  0  0
   36.4156   36.9110    6.4131 O   0  0  0  0  0  0  0  0  0  0  0  0
   37.9843   39.8267    4.5727 C   0  0  0  0  0  0  0  0  0  0  0  0
   42.8275   40.9489    4.4690 C   0  0  1  0  0  0  0  0  0  0  0  0
   41.7418   40.0691    5.0207 O   0  0  0  0  0  0  0  0  0  0  0  0
   31.3787   40.3582    3.1331 C   0  0  0  0  0  0  0  0  0  0  0  0
   30.4222   39.2947    3.4913 N   0  0  0  0  0  0  0  0  0  0  0  0
   35.0826   35.9617    8.2172 C   0  0  1  0  0  0  0  0  0  0  0  0
   36.2754   35.3616    8.7327 O   0  0  0  0  0  0  0  0  0  0  0  0
   42.2963   42.4204    4.2695 C   0  0  0  0  0  0  0  0  0  0  0  0
   41.0321   42.5676    3.4798 N   0  0  0  0  0  0  0  0  0  0  0  0
  1  2  1  1  0  0  0
  1  7  1  0  0  0  0
  1 30  1  0  0  0  0
  3  4  1  6  0  0  0
  3  9  1  0  0  0  0
  3 38  1  0  0  0  0
  5 10  1  0  0  0  0
  5 26  1  6  0  0  0
  5 32  1  0  0  0  0
  6 12  1  0  0  0  0
  6 35  1  0  0  0  0
  6 19  1  1  0  0  0
  7  8  1  1  0  0  0
  7 14  1  0  0  0  0
  8 33  1  0  0  0  0
  9 16  1  0  0  0  0
 10 11  1  1  0  0  0
 10 18  1  0  0  0  0
 12 13  1  1  0  0  0
 12 20  1  0  0  0  0
 14 15  1  6  0  0  0
 14 22  1  0  0  0  0
 16 17  1  6  0  0  0
 16 24  1  0  0  0  0
 18 19  1  1  0  0  0
 18 25  1  0  0  0  0
 20 21  1  6  0  0  0
 20 27  1  0  0  0  0
 22 23  1  1  0  0  0
 22 29  1  0  0  0  0
 24  2  1  1  0  0  0
 24 31  1  0  0  0  0
 25 26  1  1  0  0  0
 25 33  1  0  0  0  0
 27 28  1  1  0  0  0
 27 34  1  0  0  0  0
 29 30  1  0  0  0  0
 29 36  1  6  0  0  0
 31 32  1  6  0  0  0
 31 38  1  0  0  0  0
 34 35  1  0  0  0  0
 34 40  1  1  0  0  0
 36 37  1  0  0  0  0
 38 39  1  1  0  0  0
 40 41  1  0  0  0  0
M  END
>  <CHROM.1>
159.29938602,174.93010302,-178.30671922,-178.67981076,37.45056869,39.07270324
5.75474673,3.02787650,0.00615667,2.47109776

>  <Name>
ligand

>  <RI>
0

>  <Rbt.Current_Directory>
/home/itssahil/PROJECTS/Mol_Feturizer/New_Systems/rnas/1ZZ5

>  <Rbt.Executable>
rbdock ($Id: //depot/dev/client3/rdock/2013.1/src/exe/rbdock.cxx#4 $)

>  <Rbt.Library>
libRbt.so (2013.1, Build901 2013/11/27)

>  <Rbt.Parameter_File>
/export/apps/rDock/src/rDock_2013.1_src/data/scripts/dock_solv.prm

>  <Rbt.Receptor>
prm/pocket_docking_3.prm

>  <SCORE>
-12.2128

>  <SCORE.INTER>
-10.1757

>  <SCORE.INTER.CONST>
1

>  <SCORE.INTER.POLAR>
0

>  <SCORE.INTER.ROT>
4

>  <SCORE.INTER.SOLV>
23.3675

>  <SCORE.INTER.VDW>
-20.8396

>  <SCORE.INTER.norm>
-0.248188

>  <SCORE.INTRA>
-2.03708

>  <SCORE.INTRA.DIHEDRAL>
-2.92136

>  <SCORE.INTRA.DIHEDRAL.0>
5.18357

>  <SCORE.INTRA.POLAR>
0

>  <SCORE.INTRA.POLAR.0>
0

>  <SCORE.INTRA.REPUL>
0

>  <SCORE.INTRA.REPUL.0>
0

>  <SCORE.INTRA.SOLV>
-1.18469

>  <SCORE.INTRA.SOLV.lig_0>
-109.973

>  <SCORE.INTRA.VDW>
0.0159493

>  <SCORE.INTRA.VDW.0>
-1.68646

>  <SCORE.INTRA.norm>
-0.0496848

>  <SCORE.RESTR>
0

>  <SCORE.RESTR.CAVITY>
0

>  <SCORE.RESTR.norm>
0

>  <SCORE.SYSTEM>
0

>  <SCORE.SYSTEM.CONST>
0

>  <SCORE.SYSTEM.DIHEDRAL>
0

>  <SCORE.SYSTEM.SOLV>
0

>  <SCORE.SYSTEM.norm>
0

>  <SCORE.heavy>
41

>  <SCORE.norm>
-0.297873

>  <RMSD>
1.394

$$$$
ligand
 OpenBabel11021811423D
libRbt.so/2013.1/901 2013/11/27
 41 45  0  0  0  0  0  0  0  0999 V2000
   34.6790   39.1660    4.7630 C   0  0  2  0  0  0  0  0  0  0  0  0
   34.3764   39.1971    6.1715 O   0  0  0  0  0  0  0  0  0  0  0  0
   34.0795   36.2317    9.3394 C   0  0  2  0  0  0  0  0  0  0  0  0
   33.7033   34.9839   10.0527 N   0  0  0  0  0  0  0  0  0  0  0  0
   37.8602   37.2669    6.5991 C   0  0  1  0  0  0  0  0  0  0  0  0
   42.1216   38.6454    5.2251 C   0  0  1  0  0  0  0  0  0  0  0  0
   35.5863   40.3660    4.3573 C   0  0  2  0  0  0  0  0  0  0  0  0
   36.8069   40.4580    5.1640 N   0  0  0  0  0  0  0  0  0  0  0  0
   32.7846   36.9152    8.7972 C   0  0  0  0  0  0  0  0  0  0  0  0
   38.7546   36.7811    5.4356 C   0  0  2  0  0  0  0  0  0  0  0  0
   39.4963   35.6085    5.7873 O   0  0  0  0  0  0  0  0  0  0  0  0
   43.4117   38.5156    6.1421 C   0  0  2  0  0  0  0  0  0  0  0  0
   43.1851   38.8919    7.5710 N   0  0  0  0  0  0  0  0  0  0  0  0
   34.7898   41.6956    4.4470 C   0  0  1  0  0  0  0  0  0  0  0  0
   35.6152   42.7871    4.0493 O   0  0  0  0  0  0  0  0  0  0  0  0
   33.1181   38.2284    8.0315 C   0  0  2  0  0  0  0  0  0  0  0  0
   31.8474   38.8133    7.5634 N   0  0  0  0  0  0  0  0  0  0  0  0
   39.6562   37.9848    5.1122 C   0  0  2  0  0  0  0  0  0  0  0  0
   40.9823   37.8861    5.7688 O   0  0  0  0  0  0  0  0  0  0  0  0
   44.5974   39.3940    5.5351 C   0  0  1  0  0  0  0  0  0  0  0  0
   45.0569   38.8543    4.2764 O   0  0  0  0  0  0  0  0  0  0  0  0
   33.5306   41.6106    3.5537 C   0  0  2  0  0  0  0  0  0  0  0  0
   32.8101   42.8235    3.6168 O   0  0  0  0  0  0  0  0  0  0  0  0
   34.1128   37.9273    6.8549 C   0  0  2  0  0  0  0  0  0  0  0  0
   38.8649   39.1848    5.6247 C   0  0  2  0  0  0  0  0  0  0  0  0
   38.0030   38.6878    6.6387 O   0  0  0  0  0  0  0  0  0  0  0  0
   44.1708   40.9010    5.3147 C   0  0  2  0  0  0  0  0  0  0  0  0
   43.9537   41.5228    6.5925 O   0  0  0  0  0  0  0  0  0  0  0  0
   32.6438   40.4299    3.9966 C   0  0  2  0  0  0  0  0  0  0  0  0
   33.4518   39.1919    3.9330 O   0  0  0  0  0  0  0  0  0  0  0  0
   35.4558   37.2607    7.4418 C   0  0  2  0  0  0  0  0  0  0  0  0
   36.4391   36.9137    6.3804 O   0  0  0  0  0  0  0  0  0  0  0  0
   38.0000   39.8478    4.5628 C   0  0  0  0  0  0  0  0  0  0  0  0
   42.8587   40.9629    4.4321 C   0  0  1  0  0  0  0  0  0  0  0  0
   41.7687   40.0926    4.9902 O   0  0  0  0  0  0  0  0  0  0  0  0
   31.4006   40.3401    3.0811 C   0  0  0  0  0  0  0  0  0  0  0  0
   30.4969   39.2111    3.3691 N   0  0  0  0  0  0  0  0  0  0  0  0
   35.1006   35.9476    8.1715 C   0  0  1  0  0  0  0  0  0  0  0  0
   36.2941   35.3536    8.6925 O   0  0  0  0  0  0  0  0  0  0  0  0
   42.3290   42.4307    4.2028 C   0  0  0  0  0  0  0  0  0  0  0  0
   41.0287   42.5594    3.4707 N   0  0  0  0  0  0  0  0  0  0  0  0
  1  2  1  1  0  0  0
  1  7  1  0  0  0  0
  1 30  1  0  0  0  0
  3  4  1  6  0  0  0
  3  9  1  0  0  0  0
  3 38  1  0  0  0  0
  5 10  1  0  0  0  0
  5 26  1  6  0  0  0
  5 32  1  0  0  0  0
  6 12  1  0  0  0  0
  6 35  1  0  0  0  0
  6 19  1  1  0  0  0
  7  8  1  1  0  0  0
  7 14  1  0  0  0  0
  8 33  1  0  0  0  0
  9 16  1  0  0  0  0
 10 11  1  1  0  0  0
 10 18  1  0  0  0  0
 12 13  1  1  0  0  0
 12 20  1  0  0  0  0
 14 15  1  6  0  0  0
 14 22  1  0  0  0  0
 16 17  1  6  0  0  0
 16 24  1  0  0  0  0
 18 19  1  1  0  0  0
 18 25  1  0  0  0  0
 20 21  1  6  0  0  0
 20 27  1  0  0  0  0
 22 23  1  1  0  0  0
 22 29  1  0  0  0  0
 24  2  1  1  0  0  0
 24 31  1  0  0  0  0
 25 26  1  1  0  0  0
 25 33  1  0  0  0  0
 27 28  1  1  0  0  0
 27 34  1  0  0  0  0
 29 30  1  0  0  0  0
 29 36  1  6  0  0  0
 31 32  1  6  0  0  0
 31 38  1  0  0  0  0
 34 35  1  0  0  0  0
 34 40  1  1  0  0  0
 36 37  1  0  0  0  0
 38 39  1  1  0  0  0
 40 41  1  0  0  0  0
M  END
>  <CHROM.1>
158.17457428,174.63354409,177.60259030,-175.17704612,37.46819042,39.07693345
5.72528418,3.02542465,0.01229030,2.47186400

>  <Name>
ligand

>  <RI>
0

>  <Rbt.Current_Directory>
/home/itssahil/PROJECTS/Mol_Feturizer/New_Systems/rnas/1ZZ5

>  <Rbt.Executable>
rbdock ($Id: //depot/dev/client3/rdock/2013.1/src/exe/rbdock.cxx#4 $)

>  <Rbt.Library>
libRbt.so (2013.1, Build901 2013/11/27)

>  <Rbt.Parameter_File>
/export/apps/rDock/src/rDock_2013.1_src/data/scripts/dock_solv.prm

>  <Rbt.Receptor>
prm/pocket_docking_3.prm

>  <SCORE>
-12.2602

>  <SCORE.INTER>
-10.4102

>  <SCORE.INTER.CONST>
1

>  <SCORE.INTER.POLAR>
0

>  <SCORE.INTER.ROT>
4

>  <SCORE.INTER.SOLV>
23.8673

>  <SCORE.INTER.VDW>
-21.1625

>  <SCORE.INTER.norm>
-0.253906

>  <SCORE.INTRA>
-1.85008

>  <SCORE.INTRA.DIHEDRAL>
-2.64101

>  <SCORE.INTRA.DIHEDRAL.0>
5.18357

>  <SCORE.INTRA.POLAR>
0

>  <SCORE.INTRA.POLAR.0>
0

>  <SCORE.INTRA.REPUL>
0

>  <SCORE.INTRA.REPUL.0>
0

>  <SCORE.INTRA.SOLV>
-1.08228

>  <SCORE.INTRA.SOLV.lig_0>
-109.973

>  <SCORE.INTRA.VDW>
0.0115663

>  <SCORE.INTRA.VDW.0>
-1.68646

>  <SCORE.INTRA.norm>
-0.0451239

>  <SCORE.RESTR>
0

>  <SCORE.RESTR.CAVITY>
0

>  <SCORE.RESTR.norm>
0

>  <SCORE.SYSTEM>
0

>  <SCORE.SYSTEM.CONST>
0

>  <SCORE.SYSTEM.DIHEDRAL>
0

>  <SCORE.SYSTEM.SOLV>
0

>  <SCORE.SYSTEM.norm>
0

>  <SCORE.heavy>
41

>  <SCORE.norm>
-0.29903

>  <RMSD>
1.394

$$$$
ligand
 OpenBabel11021811423D
libRbt.so/2013.1/901 2013/11/27
 41 45  0  0  0  0  0  0  0  0999 V2000
   34.5159   39.1940    4.8353 C   0  0  2  0  0  0  0  0  0  0  0  0
   34.1898   39.2582    6.2374 O   0  0  0  0  0  0  0  0  0  0  0  0
   33.8569   36.3704    9.4728 C   0  0  2  0  0  0  0  0  0  0  0  0
   33.4758   35.1384   10.2105 N   0  0  0  0  0  0  0  0  0  0  0  0
   37.6767   37.3600    6.7701 C   0  0  1  0  0  0  0  0  0  0  0  0
   41.9670   38.6814    5.3996 C   0  0  1  0  0  0  0  0  0  0  0  0
   35.4231   40.3889    4.4149 C   0  0  2  0  0  0  0  0  0  0  0  0
   36.6297   40.5082    5.2390 N   0  0  0  0  0  0  0  0  0  0  0  0
   32.5673   37.0325    8.8925 C   0  0  0  0  0  0  0  0  0  0  0  0
   38.5930   36.8509    5.6339 C   0  0  2  0  0  0  0  0  0  0  0  0
   39.3352   35.6918    6.0268 O   0  0  0  0  0  0  0  0  0  0  0  0
   43.2617   38.5346    6.3075 C   0  0  2  0  0  0  0  0  0  0  0  0
   43.0629   38.9592    7.7271 N   0  0  0  0  0  0  0  0  0  0  0  0
   34.6179   41.7156    4.4584 C   0  0  1  0  0  0  0  0  0  0  0  0
   35.4437   42.8019    4.0473 O   0  0  0  0  0  0  0  0  0  0  0  0
   32.9062   38.3284    8.0999 C   0  0  2  0  0  0  0  0  0  0  0  0
   31.6403   38.8939    7.5966 N   0  0  0  0  0  0  0  0  0  0  0  0
   39.4931   38.0515    5.2957 C   0  0  2  0  0  0  0  0  0  0  0  0
   40.8087   37.9771    5.9762 O   0  0  0  0  0  0  0  0  0  0  0  0
   44.4695   39.3545    5.6639 C   0  0  1  0  0  0  0  0  0  0  0  0
   44.8973   38.7636    4.4170 O   0  0  0  0  0  0  0  0  0  0  0  0
   33.3742   41.6010    3.5469 C   0  0  2  0  0  0  0  0  0  0  0  0
   32.6460   42.8108    3.5679 O   0  0  0  0  0  0  0  0  0  0  0  0
   33.9219   38.0042    6.9477 C   0  0  2  0  0  0  0  0  0  0  0  0
   38.6867   39.2591    5.7651 C   0  0  2  0  0  0  0  0  0  0  0  0
   37.8109   38.7822    6.7768 O   0  0  0  0  0  0  0  0  0  0  0  0
   44.0914   40.8681    5.4038 C   0  0  2  0  0  0  0  0  0  0  0  0
   43.9089   41.5334    6.6650 O   0  0  0  0  0  0  0  0  0  0  0  0
   32.4867   40.4264    4.0043 C   0  0  2  0  0  0  0  0  0  0  0  0
   33.3026   39.1920    3.9849 O   0  0  0  0  0  0  0  0  0  0  0  0
   35.2587   37.3603    7.5730 C   0  0  2  0  0  0  0  0  0  0  0  0
   36.2614   36.9930    6.5369 O   0  0  0  0  0  0  0  0  0  0  0  0
   37.8359   39.8905    4.6729 C   0  0  0  0  0  0  0  0  0  0  0  0
   42.7728   40.9490    4.5325 C   0  0  1  0  0  0  0  0  0  0  0  0
   41.6602   40.1324    5.1262 O   0  0  0  0  0  0  0  0  0  0  0  0
   31.2594   40.3065    3.0710 C   0  0  0  0  0  0  0  0  0  0  0  0
   30.3181   41.4398    3.1336 N   0  0  0  0  0  0  0  0  0  0  0  0
   34.8988   36.0636    8.3292 C   0  0  1  0  0  0  0  0  0  0  0  0
   36.0867   35.4898    8.8844 O   0  0  0  0  0  0  0  0  0  0  0  0
   42.2902   42.4265    4.2656 C   0  0  0  0  0  0  0  0  0  0  0  0
   41.0136   42.5785    3.4972 N   0  0  0  0  0  0  0  0  0  0  0  0
  1  2  1  1  0  0  0
  1  7  1  0  0  0  0
  1 30  1  0  0  0  0
  3  4  1  6  0  0  0
  3  9  1  0  0  0  0
  3 38  1  0  0  0  0
  5 10  1  0  0  0  0
  5 26  1  6  0  0  0
  5 32  1  0  0  0  0
  6 12  1  0  0  0  0
  6 35  1  0  0  0  0
  6 19  1  1  0  0  0
  7  8  1  1  0  0  0
  7 14  1  0  0  0  0
  8 33  1  0  0  0  0
  9 16  1  0  0  0  0
 10 11  1  1  0  0  0
 10 18  1  0  0  0  0
 12 13  1  1  0  0  0
 12 20  1  0  0  0  0
 14 15  1  6  0  0  0
 14 22  1  0  0  0  0
 16 17  1  6  0  0  0
 16 24  1  0  0  0  0
 18 19  1  1  0  0  0
 18 25  1  0  0  0  0
 20 21  1  6  0  0  0
 20 27  1  0  0  0  0
 22 23  1  1  0  0  0
 22 29  1  0  0  0  0
 24  2  1  1  0  0  0
 24 31  1  0  0  0  0
 25 26  1  1  0  0  0
 25 33  1  0  0  0  0
 27 28  1  1  0  0  0
 27 34  1  0  0  0  0
 29 30  1  0  0  0  0
 29 36  1  6  0  0  0
 31 32  1  6  0  0  0
 31 38  1  0  0  0  0
 34 35  1  0  0  0  0
 34 40  1  1  0  0  0
 36 37  1  0  0  0  0
 38 39  1  1  0  0  0
 40 41  1  0  0  0  0
M  END
>  <CHROM.1>
155.49320992,177.39238721,-65.98540496,-177.42032420,37.30972684,39.17609210
5.82060944,3.06012547,0.00546610,2.45033652

>  <Name>
ligand

>  <RI>
0

>  <Rbt.Current_Directory>
/home/itssahil/PROJECTS/Mol_Feturizer/New_Systems/rnas/1ZZ5

>  <Rbt.Executable>
rbdock ($Id: //depot/dev/client3/rdock/2013.1/src/exe/rbdock.cxx#4 $)

>  <Rbt.Library>
libRbt.so (2013.1, Build901 2013/11/27)

>  <Rbt.Parameter_File>
/export/apps/rDock/src/rDock_2013.1_src/data/scripts/dock_solv.prm

>  <Rbt.Receptor>
prm/pocket_docking_3.prm

>  <SCORE>
-11.5637

>  <SCORE.INTER>
-10.533

>  <SCORE.INTER.CONST>
1

>  <SCORE.INTER.POLAR>
0

>  <SCORE.INTER.ROT>
4

>  <SCORE.INTER.SOLV>
22.5493

>  <SCORE.INTER.VDW>
-20.8051

>  <SCORE.INTER.norm>
-0.256903

>  <SCORE.INTRA>
-1.03069

>  <SCORE.INTRA.DIHEDRAL>
-2.22425

>  <SCORE.INTRA.DIHEDRAL.0>
5.18357

>  <SCORE.INTRA.POLAR>
0

>  <SCORE.INTRA.POLAR.0>
0

>  <SCORE.INTRA.REPUL>
0

>  <SCORE.INTRA.REPUL.0>
0

>  <SCORE.INTRA.SOLV>
-0.0738008

>  <SCORE.INTRA.SOLV.lig_0>
-109.973

>  <SCORE.INTRA.VDW>
0.11834

>  <SCORE.INTRA.VDW.0>
-1.68646

>  <SCORE.INTRA.norm>
-0.0251387

>  <SCORE.RESTR>
0

>  <SCORE.RESTR.CAVITY>
0

>  <SCORE.RESTR.norm>
0

>  <SCORE.SYSTEM>
0

>  <SCORE.SYSTEM.CONST>
0

>  <SCORE.SYSTEM.DIHEDRAL>
0

>  <SCORE.SYSTEM.SOLV>
0

>  <SCORE.SYSTEM.norm>
0

>  <SCORE.heavy>
41

>  <SCORE.norm>
-0.282042

>  <RMSD>
1.395

$$$$
ligand
 OpenBabel11021811423D
libRbt.so/2013.1/901 2013/11/27
 41 45  0  0  0  0  0  0  0  0999 V2000
   34.5111   38.9378    5.0145 C   0  0  2  0  0  0  0  0  0  0  0  0
   34.1177   39.0685    6.3946 O   0  0  0  0  0  0  0  0  0  0  0  0
   33.3803   36.3114    9.6767 C   0  0  2  0  0  0  0  0  0  0  0  0
   32.8618   35.1357   10.4225 N   0  0  0  0  0  0  0  0  0  0  0  0
   37.4055   36.9139    7.1648 C   0  0  1  0  0  0  0  0  0  0  0  0
   41.7954   38.0478    6.1438 C   0  0  1  0  0  0  0  0  0  0  0  0
   35.5335   40.0438    4.6154 C   0  0  2  0  0  0  0  0  0  0  0  0
   36.7005   40.0900    5.5015 N   0  0  0  0  0  0  0  0  0  0  0  0
   32.1815   37.0574    9.0103 C   0  0  0  0  0  0  0  0  0  0  0  0
   38.3361   36.3005    6.0936 C   0  0  2  0  0  0  0  0  0  0  0  0
   38.9598   35.0976    6.5551 O   0  0  0  0  0  0  0  0  0  0  0  0
   43.0358   37.7638    7.0940 C   0  0  2  0  0  0  0  0  0  0  0  0
   42.7470   37.9559    8.5481 N   0  0  0  0  0  0  0  0  0  0  0  0
   34.8377   41.4312    4.5819 C   0  0  1  0  0  0  0  0  0  0  0  0
   35.7698   42.4357    4.1903 O   0  0  0  0  0  0  0  0  0  0  0  0
   32.6661   38.2985    8.2059 C   0  0  2  0  0  0  0  0  0  0  0  0
   31.4787   38.9486    7.6199 N   0  0  0  0  0  0  0  0  0  0  0  0
   39.3476   37.4150    5.7759 C   0  0  2  0  0  0  0  0  0  0  0  0
   40.6149   37.2554    6.5295 O   0  0  0  0  0  0  0  0  0  0  0  0
   44.2681   38.6813    6.6635 C   0  0  1  0  0  0  0  0  0  0  0  0
   44.7775   38.2985    5.3670 O   0  0  0  0  0  0  0  0  0  0  0  0
   33.6387   41.3901    3.6064 C   0  0  2  0  0  0  0  0  0  0  0  0
   33.0113   42.6543    3.5576 O   0  0  0  0  0  0  0  0  0  0  0  0
   33.7115   37.8609    7.1197 C   0  0  2  0  0  0  0  0  0  0  0  0
   38.6185   38.6963    6.1704 C   0  0  2  0  0  0  0  0  0  0  0  0
   37.6545   38.3205    7.1438 O   0  0  0  0  0  0  0  0  0  0  0  0
   43.8848   40.2152    6.6247 C   0  0  2  0  0  0  0  0  0  0  0  0
   43.6183   40.6702    7.9620 O   0  0  0  0  0  0  0  0  0  0  0  0
   32.6357   40.3038    4.0431 C   0  0  2  0  0  0  0  0  0  0  0  0
   33.3483   39.0082    4.0989 O   0  0  0  0  0  0  0  0  0  0  0  0
   34.9565   37.1307    7.8332 C   0  0  2  0  0  0  0  0  0  0  0  0
   35.9794   36.6546    6.8632 O   0  0  0  0  0  0  0  0  0  0  0  0
   37.8807   39.3618    5.0179 C   0  0  0  0  0  0  0  0  0  0  0  0
   42.6194   40.4281    5.6986 C   0  0  1  0  0  0  0  0  0  0  0  0
   41.4851   39.5224    6.0861 O   0  0  0  0  0  0  0  0  0  0  0  0
   31.4537   40.2555    3.0469 C   0  0  0  0  0  0  0  0  0  0  0  0
   30.6156   41.4684    3.0177 N   0  0  0  0  0  0  0  0  0  0  0  0
   34.4528   35.8893    8.6001 C   0  0  1  0  0  0  0  0  0  0  0  0
   35.5591   35.2387    9.2338 O   0  0  0  0  0  0  0  0  0  0  0  0
   42.1328   41.9272    5.6410 C   0  0  0  0  0  0  0  0  0  0  0  0
   40.9952   42.2198    4.7115 N   0  0  0  0  0  0  0  0  0  0  0  0
  1  2  1  1  0  0  0
  1  7  1  0  0  0  0
  1 30  1  0  0  0  0
  3  4  1  6  0  0  0
  3  9  1  0  0  0  0
  3 38  1  0  0  0  0
  5 10  1  0  0  0  0
  5 26  1  6  0  0  0
  5 32  1  0  0  0  0
  6 12  1  0  0  0  0
  6 35  1  0  0  0  0
  6 19  1  1  0  0  0
  7  8  1  1  0  0  0
  7 14  1  0  0  0  0
  8 33  1  0  0  0  0
  9 16  1  0  0  0  0
 10 11  1  1  0  0  0
 10 18  1  0  0  0  0
 12 13  1  1  0  0  0
 12 20  1  0  0  0  0
 14 15  1  6  0  0  0
 14 22  1  0  0  0  0
 16 17  1  6  0  0  0
 16 24  1  0  0  0  0
 18 19  1  1  0  0  0
 18 25  1  0  0  0  0
 20 21  1  6  0  0  0
 20 27  1  0  0  0  0
 22 23  1  1  0  0  0
 22 29  1  0  0  0  0
 24  2  1  1  0  0  0
 24 31  1  0  0  0  0
 25 26  1  1  0  0  0
 25 33  1  0  0  0  0
 27 28  1  1  0  0  0
 27 34  1  0  0  0  0
 29 30  1  0  0  0  0
 29 36  1  6  0  0  0
 31 32  1  6  0  0  0
 31 38  1  0  0  0  0
 34 35  1  0  0  0  0
 34 40  1  1  0  0  0
 36 37  1  0  0  0  0
 38 39  1  1  0  0  0
 40 41  1  0  0  0  0
M  END
>  <CHROM.1>
166.83753929,178.41271853,-65.26096630,176.05030703,37.18501010,38.80183950
6.26710956,-3.11267398,0.04013651,2.44879167

>  <Name>
ligand

>  <RI>
0

>  <Rbt.Current_Directory>
/home/itssahil/PROJECTS/Mol_Feturizer/New_Systems/rnas/1ZZ5

>  <Rbt.Executable>
rbdock ($Id: //depot/dev/client3/rdock/2013.1/src/exe/rbdock.cxx#4 $)

>  <Rbt.Library>
libRbt.so (2013.1, Build901 2013/11/27)

>  <Rbt.Parameter_File>
/export/apps/rDock/src/rDock_2013.1_src/data/scripts/dock_solv.prm

>  <Rbt.Receptor>
prm/pocket_docking_3.prm

>  <SCORE>
-10.7328

>  <SCORE.INTER>
-8.94498

>  <SCORE.INTER.CONST>
1

>  <SCORE.INTER.POLAR>
0

>  <SCORE.INTER.ROT>
4

>  <SCORE.INTER.SOLV>
18.9399

>  <SCORE.INTER.VDW>
-18.5433

>  <SCORE.INTER.norm>
-0.21817

>  <SCORE.INTRA>
-1.7878

>  <SCORE.INTRA.DIHEDRAL>
-3.96356

>  <SCORE.INTRA.DIHEDRAL.0>
5.18357

>  <SCORE.INTRA.POLAR>
0

>  <SCORE.INTRA.POLAR.0>
0

>  <SCORE.INTRA.REPUL>
0

>  <SCORE.INTRA.REPUL.0>
0

>  <SCORE.INTRA.SOLV>
0.0493296

>  <SCORE.INTRA.SOLV.lig_0>
-109.973

>  <SCORE.INTRA.VDW>
0.169318

>  <SCORE.INTRA.VDW.0>
-1.68646

>  <SCORE.INTRA.norm>
-0.0436048

>  <SCORE.RESTR>
0

>  <SCORE.RESTR.CAVITY>
0

>  <SCORE.RESTR.norm>
0

>  <SCORE.SYSTEM>
0

>  <SCORE.SYSTEM.CONST>
0

>  <SCORE.SYSTEM.DIHEDRAL>
0

>  <SCORE.SYSTEM.SOLV>
0

>  <SCORE.SYSTEM.norm>
0

>  <SCORE.heavy>
41

>  <SCORE.norm>
-0.261775

>  <RMSD>
1.400

$$$$
ligand
 OpenBabel11021811423D
libRbt.so/2013.1/901 2013/11/27
 41 45  0  0  0  0  0  0  0  0999 V2000
   34.3796   39.1437    4.8337 C   0  0  2  0  0  0  0  0  0  0  0  0
   34.0943   39.2239    6.2439 O   0  0  0  0  0  0  0  0  0  0  0  0
   33.8000   36.3657    9.5092 C   0  0  2  0  0  0  0  0  0  0  0  0
   33.4174   35.1462   10.2666 N   0  0  0  0  0  0  0  0  0  0  0  0
   37.5597   37.2657    6.6932 C   0  0  1  0  0  0  0  0  0  0  0  0
   41.8246   38.5316    5.2156 C   0  0  1  0  0  0  0  0  0  0  0  0
   35.2962   40.3188    4.3790 C   0  0  2  0  0  0  0  0  0  0  0  0
   36.5274   40.4217    5.1681 N   0  0  0  0  0  0  0  0  0  0  0  0
   32.5069   37.0473    8.9601 C   0  0  0  0  0  0  0  0  0  0  0  0
   38.4343   36.7318    5.5358 C   0  0  2  0  0  0  0  0  0  0  0  0
   39.1660   35.5620    5.9165 O   0  0  0  0  0  0  0  0  0  0  0  0
   43.1493   38.3351    6.0692 C   0  0  2  0  0  0  0  0  0  0  0  0
   43.0076   38.7077    7.5100 N   0  0  0  0  0  0  0  0  0  0  0  0
   34.5168   41.6603    4.4349 C   0  0  1  0  0  0  0  0  0  0  0  0
   35.3503   42.7283    3.9926 O   0  0  0  0  0  0  0  0  0  0  0  0
   32.8469   38.3310    8.1486 C   0  0  2  0  0  0  0  0  0  0  0  0
   31.5777   38.9161    7.6766 N   0  0  0  0  0  0  0  0  0  0  0  0
   39.3462   37.9132    5.1633 C   0  0  2  0  0  0  0  0  0  0  0  0
   40.6788   37.8194    5.8074 O   0  0  0  0  0  0  0  0  0  0  0  0
   44.3437   39.1648    5.4130 C   0  0  1  0  0  0  0  0  0  0  0  0
   44.7182   38.6168    4.1299 O   0  0  0  0  0  0  0  0  0  0  0  0
   33.2461   41.5622    3.5595 C   0  0  2  0  0  0  0  0  0  0  0  0
   32.5408   42.7852    3.5916 O   0  0  0  0  0  0  0  0  0  0  0  0
   33.8237   37.9800    6.9709 C   0  0  2  0  0  0  0  0  0  0  0  0
   38.5754   39.1388    5.6459 C   0  0  2  0  0  0  0  0  0  0  0  0
   37.7198   38.6853    6.6853 O   0  0  0  0  0  0  0  0  0  0  0  0
   43.9762   40.6915    5.2242 C   0  0  2  0  0  0  0  0  0  0  0  0
   43.8483   41.3104    6.5153 O   0  0  0  0  0  0  0  0  0  0  0  0
   32.3506   40.4073    4.0505 C   0  0  2  0  0  0  0  0  0  0  0  0
   33.1430   39.1580    4.0176 O   0  0  0  0  0  0  0  0  0  0  0  0
   35.1656   37.3162    7.5635 C   0  0  2  0  0  0  0  0  0  0  0  0
   36.1319   36.9231    6.5025 O   0  0  0  0  0  0  0  0  0  0  0  0
   37.7058   39.7779    4.5732 C   0  0  0  0  0  0  0  0  0  0  0  0
   42.6282   40.8210    4.4055 C   0  0  1  0  0  0  0  0  0  0  0  0
   41.5272   39.9954    5.0084 O   0  0  0  0  0  0  0  0  0  0  0  0
   31.0955   40.3034    3.1528 C   0  0  0  0  0  0  0  0  0  0  0  0
   30.1342   39.2572    3.5472 N   0  0  0  0  0  0  0  0  0  0  0  0
   34.8036   36.0317    8.3393 C   0  0  1  0  0  0  0  0  0  0  0  0
   35.9960   35.4401    8.8654 O   0  0  0  0  0  0  0  0  0  0  0  0
   42.1556   42.3132    4.2123 C   0  0  0  0  0  0  0  0  0  0  0  0
   41.8804   43.0887    5.4638 N   0  0  0  0  0  0  0  0  0  0  0  0
  1  2  1  1  0  0  0
  1  7  1  0  0  0  0
  1 30  1  0  0  0  0
  3  4  1  6  0  0  0
  3  9  1  0  0  0  0
  3 38  1  0  0  0  0
  5 10  1  0  0  0  0
  5 26  1  6  0  0  0
  5 32  1  0  0  0  0
  6 12  1  0  0  0  0
  6 35  1  0  0  0  0
  6 19  1  1  0  0  0
  7  8  1  1  0  0  0
  7 14  1  0  0  0  0
  8 33  1  0  0  0  0
  9 16  1  0  0  0  0
 10 11  1  1  0  0  0
 10 18  1  0  0  0  0
 12 13  1  1  0  0  0
 12 20  1  0  0  0  0
 14 15  1  6  0  0  0
 14 22  1  0  0  0  0
 16 17  1  6  0  0  0
 16 24  1  0  0  0  0
 18 19  1  1  0  0  0
 18 25  1  0  0  0  0
 20 21  1  6  0  0  0
 20 27  1  0  0  0  0
 22 23  1  1  0  0  0
 22 29  1  0  0  0  0
 24  2  1  1  0  0  0
 24 31  1  0  0  0  0
 25 26  1  1  0  0  0
 25 33  1  0  0  0  0
 27 28  1  1  0  0  0
 27 34  1  0  0  0  0
 29 30  1  0  0  0  0
 29 36  1  6  0  0  0
 31 32  1  6  0  0  0
 31 38  1  0  0  0  0
 34 35  1  0  0  0  0
 34 40  1  1  0  0  0
 36 37  1  0  0  0  0
 38 39  1  1  0  0  0
 40 41  1  0  0  0  0
M  END
>  <CHROM.1>
157.32857268,178.61262802,-178.18773149,-60.24138338,37.21845541,39.05341324
5.81838142,3.03603827,0.00346652,2.46812112

>  <Name>
ligand

>  <RI>
0

>  <Rbt.Current_Directory>
/home/itssahil/PROJECTS/Mol_Feturizer/New_Systems/rnas/1ZZ5

>  <Rbt.Executable>
rbdock ($Id: //depot/dev/client3/rdock/2013.1/src/exe/rbdock.cxx#4 $)

>  <Rbt.Library>
libRbt.so (2013.1, Build901 2013/11/27)

>  <Rbt.Parameter_File>
/export/apps/rDock/src/rDock_2013.1_src/data/scripts/dock_solv.prm

>  <Rbt.Receptor>
prm/pocket_docking_5.prm

>  <SCORE>
-12.0868

>  <SCORE.INTER>
-10.7135

>  <SCORE.INTER.CONST>
1

>  <SCORE.INTER.POLAR>
0

>  <SCORE.INTER.ROT>
4

>  <SCORE.INTER.SOLV>
19.8626

>  <SCORE.INTER.VDW>
-20.0298

>  <SCORE.INTER.norm>
-0.261304

>  <SCORE.INTRA>
-1.3733

>  <SCORE.INTRA.DIHEDRAL>
-2.70398

>  <SCORE.INTRA.DIHEDRAL.0>
5.18357

>  <SCORE.INTRA.POLAR>
0

>  <SCORE.INTRA.POLAR.0>
0

>  <SCORE.INTRA.REPUL>
0

>  <SCORE.INTRA.REPUL.0>
0

>  <SCORE.INTRA.SOLV>
0.0478582

>  <SCORE.INTRA.SOLV.lig_0>
-109.973

>  <SCORE.INTRA.VDW>
-0.0452352

>  <SCORE.INTRA.VDW.0>
-1.68646

>  <SCORE.INTRA.norm>
-0.033495

>  <SCORE.RESTR>
0

>  <SCORE.RESTR.CAVITY>
0

>  <SCORE.RESTR.norm>
0

>  <SCORE.SYSTEM>
0

>  <SCORE.SYSTEM.CONST>
0

>  <SCORE.SYSTEM.DIHEDRAL>
0

>  <SCORE.SYSTEM.SOLV>
0

>  <SCORE.SYSTEM.norm>
0

>  <SCORE.heavy>
41

>  <SCORE.norm>
-0.294799

>  <RMSD>
1.403

$$$$
ligand
 OpenBabel11021811423D
libRbt.so/2013.1/901 2013/11/27
 41 45  0  0  0  0  0  0  0  0999 V2000
   34.4345   39.1798    4.8288 C   0  0  2  0  0  0  0  0  0  0  0  0
   34.1317   39.2443    6.2362 O   0  0  0  0  0  0  0  0  0  0  0  0
   33.8510   36.3569    9.4769 C   0  0  2  0  0  0  0  0  0  0  0  0
   33.4815   35.1252   10.2209 N   0  0  0  0  0  0  0  0  0  0  0  0
   37.6260   37.3443    6.7111 C   0  0  1  0  0  0  0  0  0  0  0  0
   41.8850   38.6941    5.2904 C   0  0  1  0  0  0  0  0  0  0  0  0
   35.3352   40.3742    4.3933 C   0  0  2  0  0  0  0  0  0  0  0  0
   36.5553   40.4929    5.1973 N   0  0  0  0  0  0  0  0  0  0  0  0
   32.5523   37.0197    8.9180 C   0  0  0  0  0  0  0  0  0  0  0  0
   38.5231   36.8346    5.5599 C   0  0  2  0  0  0  0  0  0  0  0  0
   39.2711   35.6752    5.9406 O   0  0  0  0  0  0  0  0  0  0  0  0
   43.1763   38.5972    6.2098 C   0  0  2  0  0  0  0  0  0  0  0  0
   42.9529   39.0299    7.6232 N   0  0  0  0  0  0  0  0  0  0  0  0
   34.5315   41.7013    4.4501 C   0  0  1  0  0  0  0  0  0  0  0  0
   35.3509   42.7871    4.0252 O   0  0  0  0  0  0  0  0  0  0  0  0
   32.8787   38.3152    8.1198 C   0  0  2  0  0  0  0  0  0  0  0  0
   31.6049   38.8814    7.6374 N   0  0  0  0  0  0  0  0  0  0  0  0
   39.4180   38.0347    5.2067 C   0  0  2  0  0  0  0  0  0  0  0  0
   40.7447   37.9597    5.8653 O   0  0  0  0  0  0  0  0  0  0  0  0
   44.3631   39.4480    5.5669 C   0  0  1  0  0  0  0  0  0  0  0  0
   44.8192   38.8580    4.3297 O   0  0  0  0  0  0  0  0  0  0  0  0
   33.2728   41.5873    3.5593 C   0  0  2  0  0  0  0  0  0  0  0  0
   32.5456   42.7974    3.5922 O   0  0  0  0  0  0  0  0  0  0  0  0
   33.8750   37.9904    6.9509 C   0  0  2  0  0  0  0  0  0  0  0  0
   38.6202   39.2428    5.6893 C   0  0  2  0  0  0  0  0  0  0  0  0
   37.7610   38.7665    6.7154 O   0  0  0  0  0  0  0  0  0  0  0  0
   43.9399   40.9462    5.2881 C   0  0  2  0  0  0  0  0  0  0  0  0
   43.7265   41.6183    6.5408 O   0  0  0  0  0  0  0  0  0  0  0  0
   32.3924   40.4131    4.0315 C   0  0  2  0  0  0  0  0  0  0  0  0
   33.2072   39.1783    3.9986 O   0  0  0  0  0  0  0  0  0  0  0  0
   35.2216   37.3459    7.5540 C   0  0  2  0  0  0  0  0  0  0  0  0
   36.2068   36.9780    6.5014 O   0  0  0  0  0  0  0  0  0  0  0  0
   37.7517   39.8745    4.6113 C   0  0  0  0  0  0  0  0  0  0  0  0
   42.6265   40.9768    4.4058 C   0  0  1  0  0  0  0  0  0  0  0  0
   41.5352   40.1318    4.9994 O   0  0  0  0  0  0  0  0  0  0  0  0
   31.1497   40.2938    3.1187 C   0  0  0  0  0  0  0  0  0  0  0  0
   30.1838   39.2533    3.5167 N   0  0  0  0  0  0  0  0  0  0  0  0
   34.8736   36.0495    8.3162 C   0  0  1  0  0  0  0  0  0  0  0  0
   36.0703   35.4751    8.8517 O   0  0  0  0  0  0  0  0  0  0  0  0
   42.1001   42.4357    4.1198 C   0  0  0  0  0  0  0  0  0  0  0  0
   40.8327   42.5400    3.3286 N   0  0  0  0  0  0  0  0  0  0  0  0
  1  2  1  1  0  0  0
  1  7  1  0  0  0  0
  1 30  1  0  0  0  0
  3  4  1  6  0  0  0
  3  9  1  0  0  0  0
  3 38  1  0  0  0  0
  5 10  1  0  0  0  0
  5 26  1  6  0  0  0
  5 32  1  0  0  0  0
  6 12  1  0  0  0  0
  6 35  1  0  0  0  0
  6 19  1  1  0  0  0
  7  8  1  1  0  0  0
  7 14  1  0  0  0  0
  8 33  1  0  0  0  0
  9 16  1  0  0  0  0
 10 11  1  1  0  0  0
 10 18  1  0  0  0  0
 12 13  1  1  0  0  0
 12 20  1  0  0  0  0
 14 15  1  6  0  0  0
 14 22  1  0  0  0  0
 16 17  1  6  0  0  0
 16 24  1  0  0  0  0
 18 19  1  1  0  0  0
 18 25  1  0  0  0  0
 20 21  1  6  0  0  0
 20 27  1  0  0  0  0
 22 23  1  1  0  0  0
 22 29  1  0  0  0  0
 24  2  1  1  0  0  0
 24 31  1  0  0  0  0
 25 26  1  1  0  0  0
 25 33  1  0  0  0  0
 27 28  1  1  0  0  0
 27 34  1  0  0  0  0
 29 30  1  0  0  0  0
 29 36  1  6  0  0  0
 31 32  1  6  0  0  0
 31 38  1  0  0  0  0
 34 35  1  0  0  0  0
 34 40  1  1  0  0  0
 36 37  1  0  0  0  0
 38 39  1  1  0  0  0
 40 41  1  0  0  0  0
M  END
>  <CHROM.1>
157.19690948,174.69443617,-176.52718531,-177.99232150,37.22811141,39.12503408
5.78330176,3.02055897,0.01062776,2.44470469

>  <Name>
ligand

>  <RI>
0

>  <Rbt.Current_Directory>
/home/itssahil/PROJECTS/Mol_Feturizer/New_Systems/rnas/1ZZ5

>  <Rbt.Executable>
rbdock ($Id: //depot/dev/client3/rdock/2013.1/src/exe/rbdock.cxx#4 $)

>  <Rbt.Library>
libRbt.so (2013.1, Build901 2013/11/27)

>  <Rbt.Parameter_File>
/export/apps/rDock/src/rDock_2013.1_src/data/scripts/dock_solv.prm

>  <Rbt.Receptor>
prm/pocket_docking_5.prm

>  <SCORE>
-12.4722

>  <SCORE.INTER>
-10.6197

>  <SCORE.INTER.CONST>
1

>  <SCORE.INTER.POLAR>
0

>  <SCORE.INTER.ROT>
4

>  <SCORE.INTER.SOLV>
24.02

>  <SCORE.INTER.VDW>
-21.3531

>  <SCORE.INTER.norm>
-0.259018

>  <SCORE.INTRA>
-1.85243

>  <SCORE.INTRA.DIHEDRAL>
-2.51507

>  <SCORE.INTRA.DIHEDRAL.0>
5.18357

>  <SCORE.INTRA.POLAR>
0

>  <SCORE.INTRA.POLAR.0>
0

>  <SCORE.INTRA.REPUL>
0

>  <SCORE.INTRA.REPUL.0>
0

>  <SCORE.INTRA.SOLV>
-1.212

>  <SCORE.INTRA.SOLV.lig_0>
-109.973

>  <SCORE.INTRA.VDW>
0.0111013

>  <SCORE.INTRA.VDW.0>
-1.68646

>  <SCORE.INTRA.norm>
-0.0451813

>  <SCORE.RESTR>
0

>  <SCORE.RESTR.CAVITY>
0

>  <SCORE.RESTR.norm>
0

>  <SCORE.SYSTEM>
0

>  <SCORE.SYSTEM.CONST>
0

>  <SCORE.SYSTEM.DIHEDRAL>
0

>  <SCORE.SYSTEM.SOLV>
0

>  <SCORE.SYSTEM.norm>
0

>  <SCORE.heavy>
41

>  <SCORE.norm>
-0.3042

>  <RMSD>
1.409

$$$$
ligand
 OpenBabel11021811423D
libRbt.so/2013.1/901 2013/11/27
 41 45  0  0  0  0  0  0  0  0999 V2000
   35.3086   39.6250    4.8009 C   0  0  2  0  0  0  0  0  0  0  0  0
   35.0503   39.5208    6.2147 O   0  0  0  0  0  0  0  0  0  0  0  0
   34.9161   36.2734    9.1050 C   0  0  2  0  0  0  0  0  0  0  0  0
   34.5888   34.9573    9.7118 N   0  0  0  0  0  0  0  0  0  0  0  0
   38.5854   37.6426    6.3598 C   0  0  1  0  0  0  0  0  0  0  0  0
   42.7548   39.2884    5.0387 C   0  0  1  0  0  0  0  0  0  0  0  0
   36.1773   40.8780    4.4800 C   0  0  2  0  0  0  0  0  0  0  0  0
   37.4208   40.9251    5.2551 N   0  0  0  0  0  0  0  0  0  0  0  0
   33.5907   36.9726    8.6665 C   0  0  0  0  0  0  0  0  0  0  0  0
   39.4524   37.2859    5.1306 C   0  0  2  0  0  0  0  0  0  0  0  0
   40.2291   36.1041    5.3512 O   0  0  0  0  0  0  0  0  0  0  0  0
   44.1373   38.9323    5.7345 C   0  0  2  0  0  0  0  0  0  0  0  0
   44.0843   38.9246    7.2285 N   0  0  0  0  0  0  0  0  0  0  0  0
   35.3566   42.1748    4.7148 C   0  0  1  0  0  0  0  0  0  0  0  0
   36.1460   43.3172    4.3944 O   0  0  0  0  0  0  0  0  0  0  0  0
   33.8723   38.3575    8.0147 C   0  0  2  0  0  0  0  0  0  0  0  0
   32.5754   38.9523    7.6401 N   0  0  0  0  0  0  0  0  0  0  0  0
   40.3179   38.5350    4.8922 C   0  0  2  0  0  0  0  0  0  0  0  0
   41.6660   38.4085    5.4973 O   0  0  0  0  0  0  0  0  0  0  0  0
   45.2679   39.9439    5.2405 C   0  0  1  0  0  0  0  0  0  0  0  0
   45.5673   39.7508    3.8405 O   0  0  0  0  0  0  0  0  0  0  0  0
   34.0717   42.1416    3.8553 C   0  0  2  0  0  0  0  0  0  0  0  0
   33.3284   43.3263    4.0506 O   0  0  0  0  0  0  0  0  0  0  0  0
   34.8351   38.1882    6.7864 C   0  0  2  0  0  0  0  0  0  0  0  0
   39.5185   39.6644    5.5358 C   0  0  2  0  0  0  0  0  0  0  0  0
   38.6997   39.0570    6.5252 O   0  0  0  0  0  0  0  0  0  0  0  0
   44.8572   41.4543    5.4672 C   0  0  2  0  0  0  0  0  0  0  0  0
   44.8028   41.7231    6.8783 O   0  0  0  0  0  0  0  0  0  0  0  0
   33.2242   40.9049    4.2144 C   0  0  2  0  0  0  0  0  0  0  0  0
   34.0554   39.6973    4.0136 O   0  0  0  0  0  0  0  0  0  0  0  0
   36.2096   37.5030    7.2696 C   0  0  2  0  0  0  0  0  0  0  0  0
   37.1657   37.2772    6.1520 O   0  0  0  0  0  0  0  0  0  0  0  0
   38.6066   40.4006    4.5653 C   0  0  0  0  0  0  0  0  0  0  0  0
   43.4551   41.7360    4.7894 C   0  0  1  0  0  0  0  0  0  0  0  0
   42.4141   40.7452    5.2275 O   0  0  0  0  0  0  0  0  0  0  0  0
   31.9546   40.8694    3.3319 C   0  0  0  0  0  0  0  0  0  0  0  0
   31.0463   39.7380    3.5950 N   0  0  0  0  0  0  0  0  0  0  0  0
   35.9053   36.1209    7.8861 C   0  0  1  0  0  0  0  0  0  0  0  0
   37.1268   35.5104    8.3148 O   0  0  0  0  0  0  0  0  0  0  0  0
   42.9400   43.2103    5.0094 C   0  0  0  0  0  0  0  0  0  0  0  0
   42.6858   43.6191    6.4277 N   0  0  0  0  0  0  0  0  0  0  0  0
  1  2  1  1  0  0  0
  1  7  1  0  0  0  0
  1 30  1  0  0  0  0
  3  4  1  6  0  0  0
  3  9  1  0  0  0  0
  3 38  1  0  0  0  0
  5 10  1  0  0  0  0
  5 26  1  6  0  0  0
  5 32  1  0  0  0  0
  6 12  1  0  0  0  0
  6 35  1  0  0  0  0
  6 19  1  1  0  0  0
  7  8  1  1  0  0  0
  7 14  1  0  0  0  0
  8 33  1  0  0  0  0
  9 16  1  0  0  0  0
 10 11  1  1  0  0  0
 10 18  1  0  0  0  0
 12 13  1  1  0  0  0
 12 20  1  0  0  0  0
 14 15  1  6  0  0  0
 14 22  1  0  0  0  0
 16 17  1  6  0  0  0
 16 24  1  0  0  0  0
 18 19  1  1  0  0  0
 18 25  1  0  0  0  0
 20 21  1  6  0  0  0
 20 27  1  0  0  0  0
 22 23  1  1  0  0  0
 22 29  1  0  0  0  0
 24  2  1  1  0  0  0
 24 31  1  0  0  0  0
 25 26  1  1  0  0  0
 25 33  1  0  0  0  0
 27 28  1  1  0  0  0
 27 34  1  0  0  0  0
 29 30  1  0  0  0  0
 29 36  1  6  0  0  0
 31 32  1  6  0  0  0
 31 38  1  0  0  0  0
 34 35  1  0  0  0  0
 34 40  1  1  0  0  0
 36 37  1  0  0  0  0
 38 39  1  1  0  0  0
 40 41  1  0  0  0  0
M  END
>  <CHROM.1>
161.25686251,-176.12138740,-179.11668840,-62.37048037,38.16873002,39.51198743
5.77633083,3.01190741,0.02230544,2.60314387

>  <Name>
ligand

>  <RI>
0

>  <Rbt.Current_Directory>
/home/itssahil/PROJECTS/Mol_Feturizer/New_Systems/rnas/1ZZ5

>  <Rbt.Executable>
rbdock ($Id: //depot/dev/client3/rdock/2013.1/src/exe/rbdock.cxx#4 $)

>  <Rbt.Library>
libRbt.so (2013.1, Build901 2013/11/27)

>  <Rbt.Parameter_File>
/export/apps/rDock/src/rDock_2013.1_src/data/scripts/dock_solv.prm

>  <Rbt.Receptor>
prm/pocket_docking_4.prm

>  <SCORE>
-11.7761

>  <SCORE.INTER>
-10.1137

>  <SCORE.INTER.CONST>
1

>  <SCORE.INTER.POLAR>
0

>  <SCORE.INTER.ROT>
4

>  <SCORE.INTER.SOLV>
17.1303

>  <SCORE.INTER.VDW>
-18.7192

>  <SCORE.INTER.norm>
-0.246676

>  <SCORE.INTRA>
-1.66234

>  <SCORE.INTRA.DIHEDRAL>
-3.27119

>  <SCORE.INTRA.DIHEDRAL.0>
5.18357

>  <SCORE.INTRA.POLAR>
0

>  <SCORE.INTRA.POLAR.0>
0

>  <SCORE.INTRA.REPUL>
0

>  <SCORE.INTRA.REPUL.0>
0

>  <SCORE.INTRA.SOLV>
0.016141

>  <SCORE.INTRA.SOLV.lig_0>
-109.973

>  <SCORE.INTRA.VDW>
-0.0348168

>  <SCORE.INTRA.VDW.0>
-1.68646

>  <SCORE.INTRA.norm>
-0.0405449

>  <SCORE.RESTR>
0

>  <SCORE.RESTR.CAVITY>
0

>  <SCORE.RESTR.norm>
0

>  <SCORE.SYSTEM>
0

>  <SCORE.SYSTEM.CONST>
0

>  <SCORE.SYSTEM.DIHEDRAL>
0

>  <SCORE.SYSTEM.SOLV>
0

>  <SCORE.SYSTEM.norm>
0

>  <SCORE.heavy>
41

>  <SCORE.norm>
-0.287221

>  <RMSD>
1.412

$$$$
ligand
 OpenBabel11021811423D
libRbt.so/2013.1/901 2013/11/27
 41 45  0  0  0  0  0  0  0  0999 V2000
   34.4796   39.1928    4.8428 C   0  0  2  0  0  0  0  0  0  0  0  0
   34.1570   39.2644    6.2454 O   0  0  0  0  0  0  0  0  0  0  0  0
   33.8114   36.3906    9.4920 C   0  0  2  0  0  0  0  0  0  0  0  0
   33.4235   35.1640   10.2350 N   0  0  0  0  0  0  0  0  0  0  0  0
   37.6320   37.3442    6.7774 C   0  0  1  0  0  0  0  0  0  0  0  0
   41.9257   38.6400    5.3986 C   0  0  1  0  0  0  0  0  0  0  0  0
   35.3941   40.3800    4.4161 C   0  0  2  0  0  0  0  0  0  0  0  0
   36.6032   40.4939    5.2372 N   0  0  0  0  0  0  0  0  0  0  0  0
   32.5252   37.0595    8.9121 C   0  0  0  0  0  0  0  0  0  0  0  0
   38.5423   36.8247    5.6411 C   0  0  2  0  0  0  0  0  0  0  0  0
   39.2774   35.6619    6.0366 O   0  0  0  0  0  0  0  0  0  0  0  0
   43.2193   38.4930    6.3081 C   0  0  2  0  0  0  0  0  0  0  0  0
   43.0193   38.9190    7.7270 N   0  0  0  0  0  0  0  0  0  0  0  0
   34.5981   41.7123    4.4565 C   0  0  1  0  0  0  0  0  0  0  0  0
   35.4304   42.7914    4.0397 O   0  0  0  0  0  0  0  0  0  0  0  0
   32.8712   38.3501    8.1141 C   0  0  2  0  0  0  0  0  0  0  0  0
   31.6080   38.9225    7.6114 N   0  0  0  0  0  0  0  0  0  0  0  0
   39.4499   38.0178    5.2965 C   0  0  2  0  0  0  0  0  0  0  0  0
   40.7664   37.9368    5.9745 O   0  0  0  0  0  0  0  0  0  0  0  0
   44.4285   39.3117    5.6651 C   0  0  1  0  0  0  0  0  0  0  0  0
   44.8572   38.7195    4.4192 O   0  0  0  0  0  0  0  0  0  0  0  0
   33.3516   41.6030    3.5481 C   0  0  2  0  0  0  0  0  0  0  0  0
   32.6318   42.8177    3.5663 O   0  0  0  0  0  0  0  0  0  0  0  0
   33.8821   38.0148    6.9608 C   0  0  2  0  0  0  0  0  0  0  0  0
   38.6528   39.2327    5.7633 C   0  0  2  0  0  0  0  0  0  0  0  0
   37.7759   38.7655    6.7786 O   0  0  0  0  0  0  0  0  0  0  0  0
   44.0516   40.8253    5.4034 C   0  0  2  0  0  0  0  0  0  0  0  0
   43.8681   41.4918    6.6639 O   0  0  0  0  0  0  0  0  0  0  0  0
   32.4571   40.4361    4.0118 C   0  0  2  0  0  0  0  0  0  0  0  0
   33.2644   39.1961    3.9950 O   0  0  0  0  0  0  0  0  0  0  0  0
   35.2158   37.3640    7.5856 C   0  0  2  0  0  0  0  0  0  0  0  0
   36.2137   36.9861    6.5486 O   0  0  0  0  0  0  0  0  0  0  0  0
   37.8039   39.8659    4.6706 C   0  0  0  0  0  0  0  0  0  0  0  0
   42.7340   40.9063    4.5306 C   0  0  1  0  0  0  0  0  0  0  0  0
   41.6203   40.0909    5.1237 O   0  0  0  0  0  0  0  0  0  0  0  0
   31.2269   40.3213    3.0816 C   0  0  0  0  0  0  0  0  0  0  0  0
   30.3014   41.4681    3.1309 N   0  0  0  0  0  0  0  0  0  0  0  0
   34.8487   36.0726    8.3473 C   0  0  1  0  0  0  0  0  0  0  0  0
   36.0338   35.4926    8.9020 O   0  0  0  0  0  0  0  0  0  0  0  0
   42.2527   42.3840    4.2620 C   0  0  0  0  0  0  0  0  0  0  0  0
   40.9673   42.5360    3.5083 N   0  0  0  0  0  0  0  0  0  0  0  0
  1  2  1  1  0  0  0
  1  7  1  0  0  0  0
  1 30  1  0  0  0  0
  3  4  1  6  0  0  0
  3  9  1  0  0  0  0
  3 38  1  0  0  0  0
  5 10  1  0  0  0  0
  5 26  1  6  0  0  0
  5 32  1  0  0  0  0
  6 12  1  0  0  0  0
  6 35  1  0  0  0  0
  6 19  1  1  0  0  0
  7  8  1  1  0  0  0
  7 14  1  0  0  0  0
  8 33  1  0  0  0  0
  9 16  1  0  0  0  0
 10 11  1  1  0  0  0
 10 18  1  0  0  0  0
 12 13  1  1  0  0  0
 12 20  1  0  0  0  0
 14 15  1  6  0  0  0
 14 22  1  0  0  0  0
 16 17  1  6  0  0  0
 16 24  1  0  0  0  0
 18 19  1  1  0  0  0
 18 25  1  0  0  0  0
 20 21  1  6  0  0  0
 20 27  1  0  0  0  0
 22 23  1  1  0  0  0
 22 29  1  0  0  0  0
 24  2  1  1  0  0  0
 24 31  1  0  0  0  0
 25 26  1  1  0  0  0
 25 33  1  0  0  0  0
 27 28  1  1  0  0  0
 27 34  1  0  0  0  0
 29 30  1  0  0  0  0
 29 36  1  6  0  0  0
 31 32  1  6  0  0  0
 31 38  1  0  0  0  0
 34 35  1  0  0  0  0
 34 40  1  1  0  0  0
 36 37  1  0  0  0  0
 38 39  1  1  0  0  0
 40 41  1  0  0  0  0
M  END
>  <CHROM.1>
155.97977804,177.05043091,-65.33134501,-176.61108795,37.27209749,39.16369098
5.82594006,3.06400519,0.00130538,2.44758723

>  <Name>
ligand

>  <RI>
0

>  <Rbt.Current_Directory>
/home/itssahil/PROJECTS/Mol_Feturizer/New_Systems/rnas/1ZZ5

>  <Rbt.Executable>
rbdock ($Id: //depot/dev/client3/rdock/2013.1/src/exe/rbdock.cxx#4 $)

>  <Rbt.Library>
libRbt.so (2013.1, Build901 2013/11/27)

>  <Rbt.Parameter_File>
/export/apps/rDock/src/rDock_2013.1_src/data/scripts/dock_solv.prm

>  <Rbt.Receptor>
prm/pocket_docking_3.prm

>  <SCORE>
-11.6351

>  <SCORE.INTER>
-10.5935

>  <SCORE.INTER.CONST>
1

>  <SCORE.INTER.POLAR>
0

>  <SCORE.INTER.ROT>
4

>  <SCORE.INTER.SOLV>
22.4429

>  <SCORE.INTER.VDW>
-20.81

>  <SCORE.INTER.norm>
-0.258378

>  <SCORE.INTRA>
-1.04164

>  <SCORE.INTRA.DIHEDRAL>
-2.31289

>  <SCORE.INTRA.DIHEDRAL.0>
5.18357

>  <SCORE.INTRA.POLAR>
0

>  <SCORE.INTRA.POLAR.0>
0

>  <SCORE.INTRA.REPUL>
0

>  <SCORE.INTRA.REPUL.0>
0

>  <SCORE.INTRA.SOLV>
-0.0267456

>  <SCORE.INTRA.SOLV.lig_0>
-109.973

>  <SCORE.INTRA.VDW>
0.128176

>  <SCORE.INTRA.VDW.0>
-1.68646

>  <SCORE.INTRA.norm>
-0.0254059

>  <SCORE.RESTR>
0

>  <SCORE.RESTR.CAVITY>
0

>  <SCORE.RESTR.norm>
0

>  <SCORE.SYSTEM>
0

>  <SCORE.SYSTEM.CONST>
0

>  <SCORE.SYSTEM.DIHEDRAL>
0

>  <SCORE.SYSTEM.SOLV>
0

>  <SCORE.SYSTEM.norm>
0

>  <SCORE.heavy>
41

>  <SCORE.norm>
-0.283784

>  <RMSD>
1.417

$$$$
ligand
 OpenBabel11021811423D
libRbt.so/2013.1/901 2013/11/27
 41 45  0  0  0  0  0  0  0  0999 V2000
   34.4640   39.2058    4.8068 C   0  0  2  0  0  0  0  0  0  0  0  0
   34.1704   39.2626    6.2165 O   0  0  0  0  0  0  0  0  0  0  0  0
   33.9408   36.3620    9.4493 C   0  0  2  0  0  0  0  0  0  0  0  0
   33.5887   35.1242   10.1918 N   0  0  0  0  0  0  0  0  0  0  0  0
   37.6865   37.3959    6.6609 C   0  0  1  0  0  0  0  0  0  0  0  0
   41.9237   38.7866    5.2111 C   0  0  1  0  0  0  0  0  0  0  0  0
   35.3498   40.4105    4.3691 C   0  0  2  0  0  0  0  0  0  0  0  0
   36.5743   40.5387    5.1651 N   0  0  0  0  0  0  0  0  0  0  0  0
   32.6318   37.0137    8.9017 C   0  0  0  0  0  0  0  0  0  0  0  0
   38.5806   36.8989    5.5018 C   0  0  2  0  0  0  0  0  0  0  0  0
   39.3427   35.7457    5.8734 O   0  0  0  0  0  0  0  0  0  0  0  0
   43.2165   38.7173    6.1309 C   0  0  2  0  0  0  0  0  0  0  0  0
   42.9882   39.1644    7.5391 N   0  0  0  0  0  0  0  0  0  0  0  0
   34.5334   41.7293    4.4359 C   0  0  1  0  0  0  0  0  0  0  0  0
   35.3391   42.8246    4.0090 O   0  0  0  0  0  0  0  0  0  0  0  0
   32.9398   38.3150    8.1056 C   0  0  2  0  0  0  0  0  0  0  0  0
   31.6571   38.8701    7.6340 N   0  0  0  0  0  0  0  0  0  0  0  0
   39.4612   38.1090    5.1464 C   0  0  2  0  0  0  0  0  0  0  0  0
   40.7930   38.0450    5.7956 O   0  0  0  0  0  0  0  0  0  0  0  0
   44.3922   39.5752    5.4771 C   0  0  1  0  0  0  0  0  0  0  0  0
   44.8552   38.9760    4.2469 O   0  0  0  0  0  0  0  0  0  0  0  0
   33.2698   41.6058    3.5535 C   0  0  2  0  0  0  0  0  0  0  0  0
   32.5309   42.8085    3.5955 O   0  0  0  0  0  0  0  0  0  0  0  0
   33.9311   38.0040    6.9288 C   0  0  2  0  0  0  0  0  0  0  0  0
   38.6548   39.3075    5.6386 C   0  0  2  0  0  0  0  0  0  0  0  0
   37.8075   38.8193    6.6690 O   0  0  0  0  0  0  0  0  0  0  0  0
   43.9500   41.0644    5.1803 C   0  0  2  0  0  0  0  0  0  0  0  0
   43.7286   41.7490    6.4248 O   0  0  0  0  0  0  0  0  0  0  0  0
   32.4043   40.4214    4.0278 C   0  0  2  0  0  0  0  0  0  0  0  0
   33.2311   39.1949    3.9852 O   0  0  0  0  0  0  0  0  0  0  0  0
   35.2882   37.3709    7.5204 C   0  0  2  0  0  0  0  0  0  0  0  0
   36.2696   37.0162    6.4598 O   0  0  0  0  0  0  0  0  0  0  0  0
   37.7726   39.9341    4.5687 C   0  0  0  0  0  0  0  0  0  0  0  0
   42.6360   41.0676    4.2984 C   0  0  1  0  0  0  0  0  0  0  0  0
   41.5557   40.2162    4.9028 O   0  0  0  0  0  0  0  0  0  0  0  0
   31.1566   40.2928    3.1232 C   0  0  0  0  0  0  0  0  0  0  0  0
   30.2161   39.2249    3.5098 N   0  0  0  0  0  0  0  0  0  0  0  0
   34.9584   36.0686    8.2806 C   0  0  1  0  0  0  0  0  0  0  0  0
   36.1644   35.5043    8.8059 O   0  0  0  0  0  0  0  0  0  0  0  0
   42.0910   42.5162    3.9949 C   0  0  0  0  0  0  0  0  0  0  0  0
   40.8369   42.5954    3.1799 N   0  0  0  0  0  0  0  0  0  0  0  0
  1  2  1  1  0  0  0
  1  7  1  0  0  0  0
  1 30  1  0  0  0  0
  3  4  1  6  0  0  0
  3  9  1  0  0  0  0
  3 38  1  0  0  0  0
  5 10  1  0  0  0  0
  5 26  1  6  0  0  0
  5 32  1  0  0  0  0
  6 12  1  0  0  0  0
  6 35  1  0  0  0  0
  6 19  1  1  0  0  0
  7  8  1  1  0  0  0
  7 14  1  0  0  0  0
  8 33  1  0  0  0  0
  9 16  1  0  0  0  0
 10 11  1  1  0  0  0
 10 18  1  0  0  0  0
 12 13  1  1  0  0  0
 12 20  1  0  0  0  0
 14 15  1  6  0  0  0
 14 22  1  0  0  0  0
 16 17  1  6  0  0  0
 16 24  1  0  0  0  0
 18 19  1  1  0  0  0
 18 25  1  0  0  0  0
 20 21  1  6  0  0  0
 20 27  1  0  0  0  0
 22 23  1  1  0  0  0
 22 29  1  0  0  0  0
 24  2  1  1  0  0  0
 24 31  1  0  0  0  0
 25 26  1  1  0  0  0
 25 33  1  0  0  0  0
 27 28  1  1  0  0  0
 27 34  1  0  0  0  0
 29 30  1  0  0  0  0
 29 36  1  6  0  0  0
 31 32  1  6  0  0  0
 31 38  1  0  0  0  0
 34 35  1  0  0  0  0
 34 40  1  1  0  0  0
 36 37  1  0  0  0  0
 38 39  1  1  0  0  0
 40 41  1  0  0  0  0
M  END
>  <CHROM.1>
156.86549094,173.92552196,-177.60901122,-179.16676627,37.26462603,39.17418616
5.73481348,3.00651170,0.01044184,2.44547037

>  <Name>
ligand

>  <RI>
0

>  <Rbt.Current_Directory>
/home/itssahil/PROJECTS/Mol_Feturizer/New_Systems/rnas/1ZZ5

>  <Rbt.Executable>
rbdock ($Id: //depot/dev/client3/rdock/2013.1/src/exe/rbdock.cxx#4 $)

>  <Rbt.Library>
libRbt.so (2013.1, Build901 2013/11/27)

>  <Rbt.Parameter_File>
/export/apps/rDock/src/rDock_2013.1_src/data/scripts/dock_solv.prm

>  <Rbt.Receptor>
prm/pocket_docking_4.prm

>  <SCORE>
-12.4034

>  <SCORE.INTER>
-10.5744

>  <SCORE.INTER.CONST>
1

>  <SCORE.INTER.POLAR>
0

>  <SCORE.INTER.ROT>
4

>  <SCORE.INTER.SOLV>
24.8686

>  <SCORE.INTER.VDW>
-21.6058

>  <SCORE.INTER.norm>
-0.257911

>  <SCORE.INTRA>
-1.82899

>  <SCORE.INTRA.DIHEDRAL>
-2.44811

>  <SCORE.INTRA.DIHEDRAL.0>
5.18357

>  <SCORE.INTRA.POLAR>
0

>  <SCORE.INTRA.POLAR.0>
0

>  <SCORE.INTRA.REPUL>
0

>  <SCORE.INTRA.REPUL.0>
0

>  <SCORE.INTRA.SOLV>
-1.23945

>  <SCORE.INTRA.SOLV.lig_0>
-109.973

>  <SCORE.INTRA.VDW>
0.0147851

>  <SCORE.INTRA.VDW.0>
-1.68646

>  <SCORE.INTRA.norm>
-0.0446096

>  <SCORE.RESTR>
0

>  <SCORE.RESTR.CAVITY>
0

>  <SCORE.RESTR.norm>
0

>  <SCORE.SYSTEM>
0

>  <SCORE.SYSTEM.CONST>
0

>  <SCORE.SYSTEM.DIHEDRAL>
0

>  <SCORE.SYSTEM.SOLV>
0

>  <SCORE.SYSTEM.norm>
0

>  <SCORE.heavy>
41

>  <SCORE.norm>
-0.302521

>  <RMSD>
1.425

$$$$
ligand
 OpenBabel11021811423D
libRbt.so/2013.1/901 2013/11/27
 41 45  0  0  0  0  0  0  0  0999 V2000
   34.6410   39.1821    4.7473 C   0  0  2  0  0  0  0  0  0  0  0  0
   34.3476   39.2141    6.1578 O   0  0  0  0  0  0  0  0  0  0  0  0
   34.1075   36.2555    9.3368 C   0  0  2  0  0  0  0  0  0  0  0  0
   33.7509   35.0056   10.0565 N   0  0  0  0  0  0  0  0  0  0  0  0
   37.8569   37.3267    6.5676 C   0  0  1  0  0  0  0  0  0  0  0  0
   42.0958   38.7396    5.1515 C   0  0  1  0  0  0  0  0  0  0  0  0
   35.5312   40.3914    4.3317 C   0  0  2  0  0  0  0  0  0  0  0  0
   36.7561   40.5005    5.1298 N   0  0  0  0  0  0  0  0  0  0  0  0
   32.8009   36.9218    8.8013 C   0  0  0  0  0  0  0  0  0  0  0  0
   38.7492   36.8479    5.3995 C   0  0  2  0  0  0  0  0  0  0  0  0
   39.5070   35.6853    5.7498 O   0  0  0  0  0  0  0  0  0  0  0  0
   43.3827   38.6608    6.0787 C   0  0  2  0  0  0  0  0  0  0  0  0
   43.1422   39.0800    7.4934 N   0  0  0  0  0  0  0  0  0  0  0  0
   34.7196   41.7117    4.4227 C   0  0  1  0  0  0  0  0  0  0  0  0
   35.5292   42.8117    4.0160 O   0  0  0  0  0  0  0  0  0  0  0  0
   33.1136   38.2365    8.0293 C   0  0  2  0  0  0  0  0  0  0  0  0
   31.8329   38.8047    7.5680 N   0  0  0  0  0  0  0  0  0  0  0  0
   39.6341   38.0611    5.0663 C   0  0  2  0  0  0  0  0  0  0  0  0
   40.9658   37.9803    5.7141 O   0  0  0  0  0  0  0  0  0  0  0  0
   44.5576   39.5378    5.4492 C   0  0  1  0  0  0  0  0  0  0  0  0
   45.0326   38.9645    4.2112 O   0  0  0  0  0  0  0  0  0  0  0  0
   33.4555   41.6090    3.5383 C   0  0  2  0  0  0  0  0  0  0  0  0
   32.7210   42.8134    3.6024 O   0  0  0  0  0  0  0  0  0  0  0  0
   34.1037   37.9434    6.8468 C   0  0  2  0  0  0  0  0  0  0  0  0
   38.8321   39.2533    5.5804 C   0  0  2  0  0  0  0  0  0  0  0  0
   37.9830   38.7493    6.6018 O   0  0  0  0  0  0  0  0  0  0  0  0
   44.1082   41.0296    5.1772 C   0  0  2  0  0  0  0  0  0  0  0  0
   43.8742   41.6894    6.4328 O   0  0  0  0  0  0  0  0  0  0  0  0
   32.5857   40.4192    3.9909 C   0  0  2  0  0  0  0  0  0  0  0  0
   33.4080   39.1907    3.9256 O   0  0  0  0  0  0  0  0  0  0  0  0
   35.4585   37.2947    7.4267 C   0  0  2  0  0  0  0  0  0  0  0  0
   36.4387   36.9560    6.3597 O   0  0  0  0  0  0  0  0  0  0  0  0
   37.9522   39.9026    4.5223 C   0  0  0  0  0  0  0  0  0  0  0  0
   42.8003   41.0415    4.2865 C   0  0  1  0  0  0  0  0  0  0  0  0
   41.7212   40.1724    4.8674 O   0  0  0  0  0  0  0  0  0  0  0  0
   31.3375   40.3118    3.0842 C   0  0  0  0  0  0  0  0  0  0  0  0
   30.4493   39.1731    3.3819 N   0  0  0  0  0  0  0  0  0  0  0  0
   35.1240   35.9798    8.1629 C   0  0  1  0  0  0  0  0  0  0  0  0
   36.3279   35.4017    8.6776 O   0  0  0  0  0  0  0  0  0  0  0  0
   42.2485   42.4922    4.0064 C   0  0  0  0  0  0  0  0  0  0  0  0
   40.9592   42.5763    3.2489 N   0  0  0  0  0  0  0  0  0  0  0  0
  1  2  1  1  0  0  0
  1  7  1  0  0  0  0
  1 30  1  0  0  0  0
  3  4  1  6  0  0  0
  3  9  1  0  0  0  0
  3 38  1  0  0  0  0
  5 10  1  0  0  0  0
  5 26  1  6  0  0  0
  5 32  1  0  0  0  0
  6 12  1  0  0  0  0
  6 35  1  0  0  0  0
  6 19  1  1  0  0  0
  7  8  1  1  0  0  0
  7 14  1  0  0  0  0
  8 33  1  0  0  0  0
  9 16  1  0  0  0  0
 10 11  1  1  0  0  0
 10 18  1  0  0  0  0
 12 13  1  1  0  0  0
 12 20  1  0  0  0  0
 14 15  1  6  0  0  0
 14 22  1  0  0  0  0
 16 17  1  6  0  0  0
 16 24  1  0  0  0  0
 18 19  1  1  0  0  0
 18 25  1  0  0  0  0
 20 21  1  6  0  0  0
 20 27  1  0  0  0  0
 22 23  1  1  0  0  0
 22 29  1  0  0  0  0
 24  2  1  1  0  0  0
 24 31  1  0  0  0  0
 25 26  1  1  0  0  0
 25 33  1  0  0  0  0
 27 28  1  1  0  0  0
 27 34  1  0  0  0  0
 29 30  1  0  0  0  0
 29 36  1  6  0  0  0
 31 32  1  6  0  0  0
 31 38  1  0  0  0  0
 34 35  1  0  0  0  0
 34 40  1  1  0  0  0
 36 37  1  0  0  0  0
 38 39  1  1  0  0  0
 40 41  1  0  0  0  0
M  END
>  <CHROM.1>
157.50061655,173.21136015,177.60428215,-175.92187938,37.43682918,39.12714195
5.67844578,3.00864370,0.01153833,2.46445090

>  <Name>
ligand

>  <RI>
0

>  <Rbt.Current_Directory>
/home/itssahil/PROJECTS/Mol_Feturizer/New_Systems/rnas/1ZZ5

>  <Rbt.Executable>
rbdock ($Id: //depot/dev/client3/rdock/2013.1/src/exe/rbdock.cxx#4 $)

>  <Rbt.Library>
libRbt.so (2013.1, Build901 2013/11/27)

>  <Rbt.Parameter_File>
/export/apps/rDock/src/rDock_2013.1_src/data/scripts/dock_solv.prm

>  <Rbt.Receptor>
prm/pocket_docking_5.prm

>  <SCORE>
-12.4496

>  <SCORE.INTER>
-10.6741

>  <SCORE.INTER.CONST>
1

>  <SCORE.INTER.POLAR>
0

>  <SCORE.INTER.ROT>
4

>  <SCORE.INTER.SOLV>
24.8839

>  <SCORE.INTER.VDW>
-21.6774

>  <SCORE.INTER.norm>
-0.260344

>  <SCORE.INTRA>
-1.77548

>  <SCORE.INTRA.DIHEDRAL>
-2.4657

>  <SCORE.INTRA.DIHEDRAL.0>
5.18357

>  <SCORE.INTRA.POLAR>
0

>  <SCORE.INTRA.POLAR.0>
0

>  <SCORE.INTRA.REPUL>
0

>  <SCORE.INTRA.REPUL.0>
0

>  <SCORE.INTRA.SOLV>
-1.11577

>  <SCORE.INTRA.SOLV.lig_0>
-109.973

>  <SCORE.INTRA.VDW>
0.0152536

>  <SCORE.INTRA.VDW.0>
-1.68646

>  <SCORE.INTRA.norm>
-0.0433045

>  <SCORE.RESTR>
0

>  <SCORE.RESTR.CAVITY>
0

>  <SCORE.RESTR.norm>
0

>  <SCORE.SYSTEM>
0

>  <SCORE.SYSTEM.CONST>
0

>  <SCORE.SYSTEM.DIHEDRAL>
0

>  <SCORE.SYSTEM.SOLV>
0

>  <SCORE.SYSTEM.norm>
0

>  <SCORE.heavy>
41

>  <SCORE.norm>
-0.303648

>  <RMSD>
1.427

$$$$
ligand
 OpenBabel11021811423D
libRbt.so/2013.1/901 2013/11/27
 41 45  0  0  0  0  0  0  0  0999 V2000
   34.7018   39.1424    4.7735 C   0  0  2  0  0  0  0  0  0  0  0  0
   34.4468   39.1672    6.1915 O   0  0  0  0  0  0  0  0  0  0  0  0
   34.2622   36.1883    9.3553 C   0  0  2  0  0  0  0  0  0  0  0  0
   33.9126   34.9368   10.0757 N   0  0  0  0  0  0  0  0  0  0  0  0
   37.9466   37.2423    6.4936 C   0  0  1  0  0  0  0  0  0  0  0  0
   42.1591   38.6266    4.9763 C   0  0  1  0  0  0  0  0  0  0  0  0
   35.5927   40.3459    4.3425 C   0  0  2  0  0  0  0  0  0  0  0  0
   36.8396   40.4370    5.1080 N   0  0  0  0  0  0  0  0  0  0  0  0
   32.9485   36.8714    8.8598 C   0  0  0  0  0  0  0  0  0  0  0  0
   38.8023   36.7631    5.2987 C   0  0  2  0  0  0  0  0  0  0  0  0
   39.5575   35.5905    5.6204 O   0  0  0  0  0  0  0  0  0  0  0  0
   43.5040   38.4201    5.7954 C   0  0  2  0  0  0  0  0  0  0  0  0
   43.3852   38.7326    7.2525 N   0  0  0  0  0  0  0  0  0  0  0  0
   34.7972   41.6735    4.4645 C   0  0  1  0  0  0  0  0  0  0  0  0
   35.6067   42.7683    4.0437 O   0  0  0  0  0  0  0  0  0  0  0  0
   33.2536   38.1884    8.0887 C   0  0  2  0  0  0  0  0  0  0  0  0
   31.9668   38.7726    7.6661 N   0  0  0  0  0  0  0  0  0  0  0  0
   39.6902   37.9698    4.9502 C   0  0  2  0  0  0  0  0  0  0  0  0
   41.0379   37.8712    5.5614 O   0  0  0  0  0  0  0  0  0  0  0  0
   44.6705   39.2964    5.1497 C   0  0  1  0  0  0  0  0  0  0  0  0
   45.0283   38.8065    3.8386 O   0  0  0  0  0  0  0  0  0  0  0  0
   33.5088   41.5896    3.6137 C   0  0  2  0  0  0  0  0  0  0  0  0
   32.7885   42.8008    3.7059 O   0  0  0  0  0  0  0  0  0  0  0  0
   34.2087   37.8941    6.8781 C   0  0  2  0  0  0  0  0  0  0  0  0
   38.9143   39.1662    5.4940 C   0  0  2  0  0  0  0  0  0  0  0  0
   38.0879   38.6633    6.5343 O   0  0  0  0  0  0  0  0  0  0  0  0
   44.2733   40.8226    5.0293 C   0  0  2  0  0  0  0  0  0  0  0  0
   44.1610   41.3873    6.3465 O   0  0  0  0  0  0  0  0  0  0  0  0
   32.6396   40.4053    4.0812 C   0  0  2  0  0  0  0  0  0  0  0  0
   33.4474   39.1692    3.9854 O   0  0  0  0  0  0  0  0  0  0  0  0
   35.5719   37.2278    7.4167 C   0  0  2  0  0  0  0  0  0  0  0  0
   36.5196   36.8871    6.3214 O   0  0  0  0  0  0  0  0  0  0  0  0
   38.0129   39.8318    4.4645 C   0  0  0  0  0  0  0  0  0  0  0  0
   42.9070   40.9603    4.2429 C   0  0  1  0  0  0  0  0  0  0  0  0
   41.8326   40.0920    4.8338 O   0  0  0  0  0  0  0  0  0  0  0  0
   31.3665   40.3168    3.2077 C   0  0  0  0  0  0  0  0  0  0  0  0
   30.4251   39.2475    3.5880 N   0  0  0  0  0  0  0  0  0  0  0  0
   35.2440   35.9111    8.1526 C   0  0  1  0  0  0  0  0  0  0  0  0
   36.4554   35.3173    8.6307 O   0  0  0  0  0  0  0  0  0  0  0  0
   42.4052   42.4504    4.1190 C   0  0  0  0  0  0  0  0  0  0  0  0
   42.1635   43.1778    5.4057 N   0  0  0  0  0  0  0  0  0  0  0  0
  1  2  1  1  0  0  0
  1  7  1  0  0  0  0
  1 30  1  0  0  0  0
  3  4  1  6  0  0  0
  3  9  1  0  0  0  0
  3 38  1  0  0  0  0
  5 10  1  0  0  0  0
  5 26  1  6  0  0  0
  5 32  1  0  0  0  0
  6 12  1  0  0  0  0
  6 35  1  0  0  0  0
  6 19  1  1  0  0  0
  7  8  1  1  0  0  0
  7 14  1  0  0  0  0
  8 33  1  0  0  0  0
  9 16  1  0  0  0  0
 10 11  1  1  0  0  0
 10 18  1  0  0  0  0
 12 13  1  1  0  0  0
 12 20  1  0  0  0  0
 14 15  1  6  0  0  0
 14 22  1  0  0  0  0
 16 17  1  6  0  0  0
 16 24  1  0  0  0  0
 18 19  1  1  0  0  0
 18 25  1  0  0  0  0
 20 21  1  6  0  0  0
 20 27  1  0  0  0  0
 22 23  1  1  0  0  0
 22 29  1  0  0  0  0
 24  2  1  1  0  0  0
 24 31  1  0  0  0  0
 25 26  1  1  0  0  0
 25 33  1  0  0  0  0
 27 28  1  1  0  0  0
 27 34  1  0  0  0  0
 29 30  1  0  0  0  0
 29 36  1  6  0  0  0
 31 32  1  6  0  0  0
 31 38  1  0  0  0  0
 34 35  1  0  0  0  0
 34 40  1  1  0  0  0
 36 37  1  0  0  0  0
 38 39  1  1  0  0  0
 40 41  1  0  0  0  0
M  END
>  <CHROM.1>
157.69355043,178.42999169,-177.92762646,-59.28168020,37.56090103,39.05877304
5.69606485,3.01184071,-0.00427521,2.50549533

>  <Name>
ligand

>  <RI>
0

>  <Rbt.Current_Directory>
/home/itssahil/PROJECTS/Mol_Feturizer/New_Systems/rnas/1ZZ5

>  <Rbt.Executable>
rbdock ($Id: //depot/dev/client3/rdock/2013.1/src/exe/rbdock.cxx#4 $)

>  <Rbt.Library>
libRbt.so (2013.1, Build901 2013/11/27)

>  <Rbt.Parameter_File>
/export/apps/rDock/src/rDock_2013.1_src/data/scripts/dock_solv.prm

>  <Rbt.Receptor>
prm/pocket_docking_3.prm

>  <SCORE>
-12.0972

>  <SCORE.INTER>
-10.7062

>  <SCORE.INTER.CONST>
1

>  <SCORE.INTER.POLAR>
0

>  <SCORE.INTER.ROT>
4

>  <SCORE.INTER.SOLV>
20.3222

>  <SCORE.INTER.VDW>
-20.1782

>  <SCORE.INTER.norm>
-0.261128

>  <SCORE.INTRA>
-1.39094

>  <SCORE.INTRA.DIHEDRAL>
-2.76082

>  <SCORE.INTRA.DIHEDRAL.0>
5.18357

>  <SCORE.INTRA.POLAR>
0

>  <SCORE.INTRA.POLAR.0>
0

>  <SCORE.INTRA.REPUL>
0

>  <SCORE.INTRA.REPUL.0>
0

>  <SCORE.INTRA.SOLV>
0.0543052

>  <SCORE.INTRA.SOLV.lig_0>
-109.973

>  <SCORE.INTRA.VDW>
-0.0376825

>  <SCORE.INTRA.VDW.0>
-1.68646

>  <SCORE.INTRA.norm>
-0.0339254

>  <SCORE.RESTR>
0

>  <SCORE.RESTR.CAVITY>
0

>  <SCORE.RESTR.norm>
0

>  <SCORE.SYSTEM>
0

>  <SCORE.SYSTEM.CONST>
0

>  <SCORE.SYSTEM.DIHEDRAL>
0

>  <SCORE.SYSTEM.SOLV>
0

>  <SCORE.SYSTEM.norm>
0

>  <SCORE.heavy>
41

>  <SCORE.norm>
-0.295053

>  <RMSD>
1.433

$$$$
ligand
 OpenBabel11021811423D
libRbt.so/2013.1/901 2013/11/27
 41 45  0  0  0  0  0  0  0  0999 V2000
   34.6776   39.1544    4.7507 C   0  0  2  0  0  0  0  0  0  0  0  0
   34.4012   39.1871    6.1646 O   0  0  0  0  0  0  0  0  0  0  0  0
   34.1915   36.2290    9.3463 C   0  0  2  0  0  0  0  0  0  0  0  0
   33.8404   34.9800   10.0702 N   0  0  0  0  0  0  0  0  0  0  0  0
   37.9103   37.2908    6.5324 C   0  0  1  0  0  0  0  0  0  0  0  0
   42.1341   38.6980    5.0695 C   0  0  1  0  0  0  0  0  0  0  0  0
   35.5658   40.3614    4.3245 C   0  0  2  0  0  0  0  0  0  0  0  0
   36.8004   40.4674    5.1078 N   0  0  0  0  0  0  0  0  0  0  0  0
   32.8803   36.8988    8.8264 C   0  0  0  0  0  0  0  0  0  0  0  0
   38.7873   36.8097    5.3537 C   0  0  2  0  0  0  0  0  0  0  0  0
   39.5463   35.6452    5.6949 O   0  0  0  0  0  0  0  0  0  0  0  0
   43.4749   38.4846    5.8933 C   0  0  2  0  0  0  0  0  0  0  0  0
   43.3486   38.7834    7.3526 N   0  0  0  0  0  0  0  0  0  0  0  0
   34.7587   41.6838    4.4252 C   0  0  1  0  0  0  0  0  0  0  0  0
   35.5663   42.7818    4.0088 O   0  0  0  0  0  0  0  0  0  0  0  0
   33.1871   38.2126    8.0507 C   0  0  2  0  0  0  0  0  0  0  0  0
   31.9024   38.7841    7.6048 N   0  0  0  0  0  0  0  0  0  0  0  0
   39.6713   38.0206    5.0099 C   0  0  2  0  0  0  0  0  0  0  0  0
   41.0104   37.9365    5.6418 O   0  0  0  0  0  0  0  0  0  0  0  0
   44.6442   39.3675    5.2617 C   0  0  1  0  0  0  0  0  0  0  0  0
   45.0089   38.8901    3.9479 O   0  0  0  0  0  0  0  0  0  0  0  0
   33.4839   41.5844    3.5559 C   0  0  2  0  0  0  0  0  0  0  0  0
   32.7533   42.7906    3.6289 O   0  0  0  0  0  0  0  0  0  0  0  0
   34.1623   37.9171    6.8565 C   0  0  2  0  0  0  0  0  0  0  0  0
   38.8785   39.2149    5.5336 C   0  0  2  0  0  0  0  0  0  0  0  0
   38.0405   38.7131    6.5651 O   0  0  0  0  0  0  0  0  0  0  0  0
   44.2466   40.8945    5.1536 C   0  0  2  0  0  0  0  0  0  0  0  0
   44.1273   41.4469    6.4754 O   0  0  0  0  0  0  0  0  0  0  0  0
   32.6166   40.3968    4.0189 C   0  0  2  0  0  0  0  0  0  0  0  0
   33.4349   39.1662    3.9438 O   0  0  0  0  0  0  0  0  0  0  0  0
   35.5223   37.2649    7.4201 C   0  0  2  0  0  0  0  0  0  0  0  0
   36.4887   36.9237    6.3414 O   0  0  0  0  0  0  0  0  0  0  0  0
   37.9877   39.8665    4.4861 C   0  0  0  0  0  0  0  0  0  0  0  0
   42.8842   41.0388    4.3617 C   0  0  1  0  0  0  0  0  0  0  0  0
   41.8074   40.1644    4.9390 O   0  0  0  0  0  0  0  0  0  0  0  0
   31.3573   40.2926    3.1272 C   0  0  0  0  0  0  0  0  0  0  0  0
   30.4417   41.4456    3.2075 N   0  0  0  0  0  0  0  0  0  0  0  0
   35.1932   35.9508    8.1603 C   0  0  1  0  0  0  0  0  0  0  0  0
   36.4017   35.3696    8.6605 O   0  0  0  0  0  0  0  0  0  0  0  0
   42.3821   42.5297    4.2491 C   0  0  0  0  0  0  0  0  0  0  0  0
   42.1294   43.2435    5.5414 N   0  0  0  0  0  0  0  0  0  0  0  0
  1  2  1  1  0  0  0
  1  7  1  0  0  0  0
  1 30  1  0  0  0  0
  3  4  1  6  0  0  0
  3  9  1  0  0  0  0
  3 38  1  0  0  0  0
  5 10  1  0  0  0  0
  5 26  1  6  0  0  0
  5 32  1  0  0  0  0
  6 12  1  0  0  0  0
  6 35  1  0  0  0  0
  6 19  1  1  0  0  0
  7  8  1  1  0  0  0
  7 14  1  0  0  0  0
  8 33  1  0  0  0  0
  9 16  1  0  0  0  0
 10 11  1  1  0  0  0
 10 18  1  0  0  0  0
 12 13  1  1  0  0  0
 12 20  1  0  0  0  0
 14 15  1  6  0  0  0
 14 22  1  0  0  0  0
 16 17  1  6  0  0  0
 16 24  1  0  0  0  0
 18 19  1  1  0  0  0
 18 25  1  0  0  0  0
 20 21  1  6  0  0  0
 20 27  1  0  0  0  0
 22 23  1  1  0  0  0
 22 29  1  0  0  0  0
 24  2  1  1  0  0  0
 24 31  1  0  0  0  0
 25 26  1  1  0  0  0
 25 33  1  0  0  0  0
 27 28  1  1  0  0  0
 27 34  1  0  0  0  0
 29 30  1  0  0  0  0
 29 36  1  6  0  0  0
 31 32  1  6  0  0  0
 31 38  1  0  0  0  0
 34 35  1  0  0  0  0
 34 40  1  1  0  0  0
 36 37  1  0  0  0  0
 38 39  1  1  0  0  0
 40 41  1  0  0  0  0
M  END
>  <CHROM.1>
157.79401991,179.54222202,-63.67658838,-59.46481597,37.52695962,39.14990104
5.71367402,3.04298182,0.00100573,2.50402606

>  <Name>
ligand

>  <RI>
0

>  <Rbt.Current_Directory>
/home/itssahil/PROJECTS/Mol_Feturizer/New_Systems/rnas/1ZZ5

>  <Rbt.Executable>
rbdock ($Id: //depot/dev/client3/rdock/2013.1/src/exe/rbdock.cxx#4 $)

>  <Rbt.Library>
libRbt.so (2013.1, Build901 2013/11/27)

>  <Rbt.Parameter_File>
/export/apps/rDock/src/rDock_2013.1_src/data/scripts/dock_solv.prm

>  <Rbt.Receptor>
prm/pocket_docking_7.prm

>  <SCORE>
-11.3917

>  <SCORE.INTER>
-10.7922

>  <SCORE.INTER.CONST>
1

>  <SCORE.INTER.POLAR>
0

>  <SCORE.INTER.ROT>
4

>  <SCORE.INTER.SOLV>
19.7228

>  <SCORE.INTER.VDW>
-20.0358

>  <SCORE.INTER.norm>
-0.263225

>  <SCORE.INTRA>
-0.599456

>  <SCORE.INTRA.DIHEDRAL>
-2.75588

>  <SCORE.INTRA.DIHEDRAL.0>
5.18357

>  <SCORE.INTRA.POLAR>
0

>  <SCORE.INTRA.POLAR.0>
0

>  <SCORE.INTRA.REPUL>
0

>  <SCORE.INTRA.REPUL.0>
0

>  <SCORE.INTRA.SOLV>
1.29855

>  <SCORE.INTRA.SOLV.lig_0>
-109.973

>  <SCORE.INTRA.VDW>
0.129205

>  <SCORE.INTRA.VDW.0>
-1.68646

>  <SCORE.INTRA.norm>
-0.0146209

>  <SCORE.RESTR>
0

>  <SCORE.RESTR.CAVITY>
0

>  <SCORE.RESTR.norm>
0

>  <SCORE.SYSTEM>
0

>  <SCORE.SYSTEM.CONST>
0

>  <SCORE.SYSTEM.DIHEDRAL>
0

>  <SCORE.SYSTEM.SOLV>
0

>  <SCORE.SYSTEM.norm>
0

>  <SCORE.heavy>
41

>  <SCORE.norm>
-0.277846

>  <RMSD>
1.436

$$$$
ligand
 OpenBabel11021811423D
libRbt.so/2013.1/901 2013/11/27
 41 45  0  0  0  0  0  0  0  0999 V2000
   34.7252   39.1715    4.7537 C   0  0  2  0  0  0  0  0  0  0  0  0
   34.4688   39.1902    6.1716 O   0  0  0  0  0  0  0  0  0  0  0  0
   34.2633   36.1957    9.3193 C   0  0  2  0  0  0  0  0  0  0  0  0
   33.9054   34.9426   10.0327 N   0  0  0  0  0  0  0  0  0  0  0  0
   37.9568   37.2428    6.4668 C   0  0  1  0  0  0  0  0  0  0  0  0
   42.1774   38.6158    4.9655 C   0  0  1  0  0  0  0  0  0  0  0  0
   35.6237   40.3718    4.3299 C   0  0  2  0  0  0  0  0  0  0  0  0
   36.8703   40.4514    5.0971 N   0  0  0  0  0  0  0  0  0  0  0  0
   32.9542   36.8893    8.8262 C   0  0  0  0  0  0  0  0  0  0  0  0
   38.8108   36.7648    5.2702 C   0  0  2  0  0  0  0  0  0  0  0  0
   39.5587   35.5861    5.5864 O   0  0  0  0  0  0  0  0  0  0  0  0
   43.5151   38.4135    5.7972 C   0  0  2  0  0  0  0  0  0  0  0  0
   43.3820   38.7271    7.2529 N   0  0  0  0  0  0  0  0  0  0  0  0
   34.8360   41.7035    4.4582 C   0  0  1  0  0  0  0  0  0  0  0  0
   35.6525   42.7957    4.0440 O   0  0  0  0  0  0  0  0  0  0  0  0
   33.2680   38.2086    8.0624 C   0  0  2  0  0  0  0  0  0  0  0  0
   31.9851   38.8027    7.6416 N   0  0  0  0  0  0  0  0  0  0  0  0
   39.7062   37.9680    4.9289 C   0  0  2  0  0  0  0  0  0  0  0  0
   41.0527   37.8581    5.5409 O   0  0  0  0  0  0  0  0  0  0  0  0
   44.6854   39.2921    5.1615 C   0  0  1  0  0  0  0  0  0  0  0  0
   45.0566   38.8019    3.8543 O   0  0  0  0  0  0  0  0  0  0  0  0
   33.5480   41.6319    3.6057 C   0  0  2  0  0  0  0  0  0  0  0  0
   32.8349   42.8468    3.7037 O   0  0  0  0  0  0  0  0  0  0  0  0
   34.2224   37.9150    6.8511 C   0  0  2  0  0  0  0  0  0  0  0  0
   38.9370   39.1662    5.4783 C   0  0  2  0  0  0  0  0  0  0  0  0
   38.1066   38.6627    6.5152 O   0  0  0  0  0  0  0  0  0  0  0  0
   44.2855   40.8171    5.0360 C   0  0  2  0  0  0  0  0  0  0  0  0
   44.1595   41.3829    6.3515 O   0  0  0  0  0  0  0  0  0  0  0  0
   32.6712   40.4503    4.0661 C   0  0  2  0  0  0  0  0  0  0  0  0
   33.4717   39.2100    3.9645 O   0  0  0  0  0  0  0  0  0  0  0  0
   35.5811   37.2377    7.3875 C   0  0  2  0  0  0  0  0  0  0  0  0
   36.5278   36.8971    6.2913 O   0  0  0  0  0  0  0  0  0  0  0  0
   38.0406   39.8426    4.4515 C   0  0  0  0  0  0  0  0  0  0  0  0
   42.9261   40.9507    4.2369 C   0  0  1  0  0  0  0  0  0  0  0  0
   41.8486   40.0802    4.8185 O   0  0  0  0  0  0  0  0  0  0  0  0
   31.3985   40.3741    3.1909 C   0  0  0  0  0  0  0  0  0  0  0  0
   30.4605   39.2948    3.5509 N   0  0  0  0  0  0  0  0  0  0  0  0
   35.2446   35.9190    8.1160 C   0  0  1  0  0  0  0  0  0  0  0  0
   36.4520   35.3155    8.5921 O   0  0  0  0  0  0  0  0  0  0  0  0
   42.4218   42.4394    4.1068 C   0  0  0  0  0  0  0  0  0  0  0  0
   42.1317   43.1556    5.3899 N   0  0  0  0  0  0  0  0  0  0  0  0
  1  2  1  1  0  0  0
  1  7  1  0  0  0  0
  1 30  1  0  0  0  0
  3  4  1  6  0  0  0
  3  9  1  0  0  0  0
  3 38  1  0  0  0  0
  5 10  1  0  0  0  0
  5 26  1  6  0  0  0
  5 32  1  0  0  0  0
  6 12  1  0  0  0  0
  6 35  1  0  0  0  0
  6 19  1  1  0  0  0
  7  8  1  1  0  0  0
  7 14  1  0  0  0  0
  8 33  1  0  0  0  0
  9 16  1  0  0  0  0
 10 11  1  1  0  0  0
 10 18  1  0  0  0  0
 12 13  1  1  0  0  0
 12 20  1  0  0  0  0
 14 15  1  6  0  0  0
 14 22  1  0  0  0  0
 16 17  1  6  0  0  0
 16 24  1  0  0  0  0
 18 19  1  1  0  0  0
 18 25  1  0  0  0  0
 20 21  1  6  0  0  0
 20 27  1  0  0  0  0
 22 23  1  1  0  0  0
 22 29  1  0  0  0  0
 24  2  1  1  0  0  0
 24 31  1  0  0  0  0
 25 26  1  1  0  0  0
 25 33  1  0  0  0  0
 27 28  1  1  0  0  0
 27 34  1  0  0  0  0
 29 30  1  0  0  0  0
 29 36  1  6  0  0  0
 31 32  1  6  0  0  0
 31 38  1  0  0  0  0
 34 35  1  0  0  0  0
 34 40  1  1  0  0  0
 36 37  1  0  0  0  0
 38 39  1  1  0  0  0
 40 41  1  0  0  0  0
M  END
>  <CHROM.1>
158.03690892,177.55057786,-178.86486026,-60.84191149,37.57753629,39.06975601
5.67924597,3.01602116,-0.00584506,2.51061548

>  <Name>
ligand

>  <RI>
0

>  <Rbt.Current_Directory>
/home/itssahil/PROJECTS/Mol_Feturizer/New_Systems/rnas/1ZZ5

>  <Rbt.Executable>
rbdock ($Id: //depot/dev/client3/rdock/2013.1/src/exe/rbdock.cxx#4 $)

>  <Rbt.Library>
libRbt.so (2013.1, Build901 2013/11/27)

>  <Rbt.Parameter_File>
/export/apps/rDock/src/rDock_2013.1_src/data/scripts/dock_solv.prm

>  <Rbt.Receptor>
prm/pocket_docking_3.prm

>  <SCORE>
-12.1176

>  <SCORE.INTER>
-10.6942

>  <SCORE.INTER.CONST>
1

>  <SCORE.INTER.POLAR>
0

>  <SCORE.INTER.ROT>
4

>  <SCORE.INTER.SOLV>
20.3093

>  <SCORE.INTER.VDW>
-20.1659

>  <SCORE.INTER.norm>
-0.260834

>  <SCORE.INTRA>
-1.42335

>  <SCORE.INTRA.DIHEDRAL>
-2.80934

>  <SCORE.INTRA.DIHEDRAL.0>
5.18357

>  <SCORE.INTRA.POLAR>
0

>  <SCORE.INTRA.POLAR.0>
0

>  <SCORE.INTRA.REPUL>
0

>  <SCORE.INTRA.REPUL.0>
0

>  <SCORE.INTRA.SOLV>
0.0512196

>  <SCORE.INTRA.SOLV.lig_0>
-109.973

>  <SCORE.INTRA.VDW>
-0.0442943

>  <SCORE.INTRA.VDW.0>
-1.68646

>  <SCORE.INTRA.norm>
-0.034716

>  <SCORE.RESTR>
0

>  <SCORE.RESTR.CAVITY>
0

>  <SCORE.RESTR.norm>
0

>  <SCORE.SYSTEM>
0

>  <SCORE.SYSTEM.CONST>
0

>  <SCORE.SYSTEM.DIHEDRAL>
0

>  <SCORE.SYSTEM.SOLV>
0

>  <SCORE.SYSTEM.norm>
0

>  <SCORE.heavy>
41

>  <SCORE.norm>
-0.29555

>  <RMSD>
1.443

$$$$
ligand
 OpenBabel11021811423D
libRbt.so/2013.1/901 2013/11/27
 41 45  0  0  0  0  0  0  0  0999 V2000
   34.7288   39.1704    4.7623 C   0  0  2  0  0  0  0  0  0  0  0  0
   34.4719   39.1868    6.1802 O   0  0  0  0  0  0  0  0  0  0  0  0
   34.2582   36.1862    9.3216 C   0  0  2  0  0  0  0  0  0  0  0  0
   33.8971   34.9324   10.0321 N   0  0  0  0  0  0  0  0  0  0  0  0
   37.9552   37.2306    6.4727 C   0  0  1  0  0  0  0  0  0  0  0  0
   42.1805   38.5937    4.9735 C   0  0  1  0  0  0  0  0  0  0  0  0
   35.6303   40.3695    4.3415 C   0  0  2  0  0  0  0  0  0  0  0  0
   36.8768   40.4446    5.1093 N   0  0  0  0  0  0  0  0  0  0  0  0
   32.9509   36.8839    8.8294 C   0  0  0  0  0  0  0  0  0  0  0  0
   38.8086   36.7531    5.2754 C   0  0  2  0  0  0  0  0  0  0  0  0
   39.5536   35.5719    5.5894 O   0  0  0  0  0  0  0  0  0  0  0  0
   43.5201   38.3777    5.7987 C   0  0  2  0  0  0  0  0  0  0  0  0
   43.3950   38.6842    7.2565 N   0  0  0  0  0  0  0  0  0  0  0  0
   34.8457   41.7027    4.4722 C   0  0  1  0  0  0  0  0  0  0  0  0
   35.6649   42.7939    4.0607 O   0  0  0  0  0  0  0  0  0  0  0  0
   33.2680   38.2039    8.0685 C   0  0  2  0  0  0  0  0  0  0  0  0
   31.9867   38.8020    7.6484 N   0  0  0  0  0  0  0  0  0  0  0  0
   39.7070   37.9549    4.9371 C   0  0  2  0  0  0  0  0  0  0  0  0
   41.0529   37.8406    5.5493 O   0  0  0  0  0  0  0  0  0  0  0  0
   44.6938   39.2517    5.1630 C   0  0  1  0  0  0  0  0  0  0  0  0
   45.0564   38.7662    3.8517 O   0  0  0  0  0  0  0  0  0  0  0  0
   33.5578   41.6359    3.6191 C   0  0  2  0  0  0  0  0  0  0  0  0
   32.8475   42.8523    3.7194 O   0  0  0  0  0  0  0  0  0  0  0  0
   34.2223   37.9107    6.8570 C   0  0  2  0  0  0  0  0  0  0  0  0
   38.9403   39.1537    5.4887 C   0  0  2  0  0  0  0  0  0  0  0  0
   38.1083   38.6500    6.5241 O   0  0  0  0  0  0  0  0  0  0  0  0
   44.3039   40.7801    5.0475 C   0  0  2  0  0  0  0  0  0  0  0  0
   44.1871   41.3395    6.3665 O   0  0  0  0  0  0  0  0  0  0  0  0
   32.6781   40.4555    4.0767 C   0  0  2  0  0  0  0  0  0  0  0  0
   33.4757   39.2134    3.9728 O   0  0  0  0  0  0  0  0  0  0  0  0
   35.5792   37.2291    7.3925 C   0  0  2  0  0  0  0  0  0  0  0  0
   36.5255   36.8886    6.2960 O   0  0  0  0  0  0  0  0  0  0  0  0
   38.0459   39.8343    4.4629 C   0  0  0  0  0  0  0  0  0  0  0  0
   42.9423   40.9274    4.2546 C   0  0  1  0  0  0  0  0  0  0  0  0
   41.8611   40.0611    4.8359 O   0  0  0  0  0  0  0  0  0  0  0  0
   31.4055   40.3840    3.2009 C   0  0  0  0  0  0  0  0  0  0  0  0
   30.4646   39.3066    3.5586 N   0  0  0  0  0  0  0  0  0  0  0  0
   35.2393   35.9097    8.1181 C   0  0  1  0  0  0  0  0  0  0  0  0
   36.4451   35.3023    8.5934 O   0  0  0  0  0  0  0  0  0  0  0  0
   42.4476   42.4201    4.1347 C   0  0  0  0  0  0  0  0  0  0  0  0
   42.1844   43.1369    5.4232 N   0  0  0  0  0  0  0  0  0  0  0  0
  1  2  1  1  0  0  0
  1  7  1  0  0  0  0
  1 30  1  0  0  0  0
  3  4  1  6  0  0  0
  3  9  1  0  0  0  0
  3 38  1  0  0  0  0
  5 10  1  0  0  0  0
  5 26  1  6  0  0  0
  5 32  1  0  0  0  0
  6 12  1  0  0  0  0
  6 35  1  0  0  0  0
  6 19  1  1  0  0  0
  7  8  1  1  0  0  0
  7 14  1  0  0  0  0
  8 33  1  0  0  0  0
  9 16  1  0  0  0  0
 10 11  1  1  0  0  0
 10 18  1  0  0  0  0
 12 13  1  1  0  0  0
 12 20  1  0  0  0  0
 14 15  1  6  0  0  0
 14 22  1  0  0  0  0
 16 17  1  6  0  0  0
 16 24  1  0  0  0  0
 18 19  1  1  0  0  0
 18 25  1  0  0  0  0
 20 21  1  6  0  0  0
 20 27  1  0  0  0  0
 22 23  1  1  0  0  0
 22 29  1  0  0  0  0
 24  2  1  1  0  0  0
 24 31  1  0  0  0  0
 25 26  1  1  0  0  0
 25 33  1  0  0  0  0
 27 28  1  1  0  0  0
 27 34  1  0  0  0  0
 29 30  1  0  0  0  0
 29 36  1  6  0  0  0
 31 32  1  6  0  0  0
 31 38  1  0  0  0  0
 34 35  1  0  0  0  0
 34 40  1  1  0  0  0
 36 37  1  0  0  0  0
 38 39  1  1  0  0  0
 40 41  1  0  0  0  0
M  END
>  <CHROM.1>
157.85503803,178.01943234,-178.83536022,-60.09001952,37.58341453,39.05774698
5.68829544,3.01875848,-0.00744880,2.51276280

>  <Name>
ligand

>  <RI>
0

>  <Rbt.Current_Directory>
/home/itssahil/PROJECTS/Mol_Feturizer/New_Systems/rnas/1ZZ5

>  <Rbt.Executable>
rbdock ($Id: //depot/dev/client3/rdock/2013.1/src/exe/rbdock.cxx#4 $)

>  <Rbt.Library>
libRbt.so (2013.1, Build901 2013/11/27)

>  <Rbt.Parameter_File>
/export/apps/rDock/src/rDock_2013.1_src/data/scripts/dock_solv.prm

>  <Rbt.Receptor>
prm/pocket_docking_3.prm

>  <SCORE>
-12.1037

>  <SCORE.INTER>
-10.6919

>  <SCORE.INTER.CONST>
1

>  <SCORE.INTER.POLAR>
0

>  <SCORE.INTER.ROT>
4

>  <SCORE.INTER.SOLV>
20.1861

>  <SCORE.INTER.VDW>
-20.1233

>  <SCORE.INTER.norm>
-0.260778

>  <SCORE.INTRA>
-1.41185

>  <SCORE.INTRA.DIHEDRAL>
-2.79211

>  <SCORE.INTRA.DIHEDRAL.0>
5.18357

>  <SCORE.INTRA.POLAR>
0

>  <SCORE.INTRA.POLAR.0>
0

>  <SCORE.INTRA.REPUL>
0

>  <SCORE.INTRA.REPUL.0>
0

>  <SCORE.INTRA.SOLV>
0.0509684

>  <SCORE.INTRA.SOLV.lig_0>
-109.973

>  <SCORE.INTRA.VDW>
-0.0412794

>  <SCORE.INTRA.VDW.0>
-1.68646

>  <SCORE.INTRA.norm>
-0.0344354

>  <SCORE.RESTR>
0

>  <SCORE.RESTR.CAVITY>
0

>  <SCORE.RESTR.norm>
0

>  <SCORE.SYSTEM>
0

>  <SCORE.SYSTEM.CONST>
0

>  <SCORE.SYSTEM.DIHEDRAL>
0

>  <SCORE.SYSTEM.SOLV>
0

>  <SCORE.SYSTEM.norm>
0

>  <SCORE.heavy>
41

>  <SCORE.norm>
-0.295213

>  <RMSD>
1.444

$$$$
ligand
 OpenBabel11021811423D
libRbt.so/2013.1/901 2013/11/27
 41 45  0  0  0  0  0  0  0  0999 V2000
   34.4468   39.1781    4.8241 C   0  0  2  0  0  0  0  0  0  0  0  0
   34.1511   39.2465    6.2328 O   0  0  0  0  0  0  0  0  0  0  0  0
   33.8477   36.3632    9.4750 C   0  0  2  0  0  0  0  0  0  0  0  0
   33.4659   35.1364   10.2209 N   0  0  0  0  0  0  0  0  0  0  0  0
   37.6228   37.3021    6.6926 C   0  0  1  0  0  0  0  0  0  0  0  0
   41.8973   38.5794    5.2407 C   0  0  1  0  0  0  0  0  0  0  0  0
   35.3608   40.3609    4.3845 C   0  0  2  0  0  0  0  0  0  0  0  0
   36.5859   40.4640    5.1831 N   0  0  0  0  0  0  0  0  0  0  0  0
   32.5552   37.0425    8.9218 C   0  0  0  0  0  0  0  0  0  0  0  0
   38.5083   36.7809    5.5375 C   0  0  2  0  0  0  0  0  0  0  0  0
   39.2431   35.6121    5.9150 O   0  0  0  0  0  0  0  0  0  0  0  0
   43.2198   38.3737    6.0955 C   0  0  2  0  0  0  0  0  0  0  0  0
   43.0804   38.7500    7.5355 N   0  0  0  0  0  0  0  0  0  0  0  0
   34.5744   41.6981    4.4446 C   0  0  1  0  0  0  0  0  0  0  0  0
   35.4057   42.7734    4.0160 O   0  0  0  0  0  0  0  0  0  0  0  0
   32.8946   38.3337    8.1220 C   0  0  2  0  0  0  0  0  0  0  0  0
   31.6260   38.9160    7.6452 N   0  0  0  0  0  0  0  0  0  0  0  0
   39.4170   37.9695    5.1802 C   0  0  2  0  0  0  0  0  0  0  0  0
   40.7454   37.8776    5.8330 O   0  0  0  0  0  0  0  0  0  0  0  0
   44.4213   39.1925    5.4385 C   0  0  1  0  0  0  0  0  0  0  0  0
   44.7922   38.6392    4.1566 O   0  0  0  0  0  0  0  0  0  0  0  0
   33.3104   41.6002    3.5594 C   0  0  2  0  0  0  0  0  0  0  0  0
   32.5989   42.8194    3.5954 O   0  0  0  0  0  0  0  0  0  0  0  0
   33.8815   37.9961    6.9488 C   0  0  2  0  0  0  0  0  0  0  0  0
   38.6367   39.1877    5.6661 C   0  0  2  0  0  0  0  0  0  0  0  0
   37.7760   38.7225    6.6961 O   0  0  0  0  0  0  0  0  0  0  0  0
   44.0663   40.7218    5.2467 C   0  0  2  0  0  0  0  0  0  0  0  0
   43.9426   41.3440    6.5367 O   0  0  0  0  0  0  0  0  0  0  0  0
   32.4172   40.4373    4.0356 C   0  0  2  0  0  0  0  0  0  0  0  0
   33.2160   39.1923    3.9993 O   0  0  0  0  0  0  0  0  0  0  0  0
   35.2224   37.3345    7.5461 C   0  0  2  0  0  0  0  0  0  0  0  0
   36.1982   36.9540    6.4892 O   0  0  0  0  0  0  0  0  0  0  0  0
   37.7716   39.8304    4.5919 C   0  0  0  0  0  0  0  0  0  0  0  0
   42.7199   40.8607    4.4269 C   0  0  1  0  0  0  0  0  0  0  0  0
   41.6119   40.0452    5.0307 O   0  0  0  0  0  0  0  0  0  0  0  0
   31.1690   40.3339    3.1283 C   0  0  0  0  0  0  0  0  0  0  0  0
   30.2212   39.2654    3.4947 N   0  0  0  0  0  0  0  0  0  0  0  0
   34.8613   36.0427    8.3099 C   0  0  1  0  0  0  0  0  0  0  0  0
   36.0529   35.4531    8.8402 O   0  0  0  0  0  0  0  0  0  0  0  0
   42.2595   42.3563    4.2308 C   0  0  0  0  0  0  0  0  0  0  0  0
   40.9595   42.5616    3.5159 N   0  0  0  0  0  0  0  0  0  0  0  0
  1  2  1  1  0  0  0
  1  7  1  0  0  0  0
  1 30  1  0  0  0  0
  3  4  1  6  0  0  0
  3  9  1  0  0  0  0
  3 38  1  0  0  0  0
  5 10  1  0  0  0  0
  5 26  1  6  0  0  0
  5 32  1  0  0  0  0
  6 12  1  0  0  0  0
  6 35  1  0  0  0  0
  6 19  1  1  0  0  0
  7  8  1  1  0  0  0
  7 14  1  0  0  0  0
  8 33  1  0  0  0  0
  9 16  1  0  0  0  0
 10 11  1  1  0  0  0
 10 18  1  0  0  0  0
 12 13  1  1  0  0  0
 12 20  1  0  0  0  0
 14 15  1  6  0  0  0
 14 22  1  0  0  0  0
 16 17  1  6  0  0  0
 16 24  1  0  0  0  0
 18 19  1  1  0  0  0
 18 25  1  0  0  0  0
 20 21  1  6  0  0  0
 20 27  1  0  0  0  0
 22 23  1  1  0  0  0
 22 29  1  0  0  0  0
 24  2  1  1  0  0  0
 24 31  1  0  0  0  0
 25 26  1  1  0  0  0
 25 33  1  0  0  0  0
 27 28  1  1  0  0  0
 27 34  1  0  0  0  0
 29 30  1  0  0  0  0
 29 36  1  6  0  0  0
 31 32  1  6  0  0  0
 31 38  1  0  0  0  0
 34 35  1  0  0  0  0
 34 40  1  1  0  0  0
 36 37  1  0  0  0  0
 38 39  1  1  0  0  0
 40 41  1  0  0  0  0
M  END
>  <CHROM.1>
156.20117765,179.24271643,-179.16826618,-177.36939212,37.26179184,39.07105931
5.77076668,3.03481307,-0.00365336,2.44881014

>  <Name>
ligand

>  <RI>
0

>  <Rbt.Current_Directory>
/home/itssahil/PROJECTS/Mol_Feturizer/New_Systems/rnas/1ZZ5

>  <Rbt.Executable>
rbdock ($Id: //depot/dev/client3/rdock/2013.1/src/exe/rbdock.cxx#4 $)

>  <Rbt.Library>
libRbt.so (2013.1, Build901 2013/11/27)

>  <Rbt.Parameter_File>
/export/apps/rDock/src/rDock_2013.1_src/data/scripts/dock_solv.prm

>  <Rbt.Receptor>
prm/pocket_docking_3.prm

>  <SCORE>
-12.3203

>  <SCORE.INTER>
-10.4419

>  <SCORE.INTER.CONST>
1

>  <SCORE.INTER.POLAR>
0

>  <SCORE.INTER.ROT>
4

>  <SCORE.INTER.SOLV>
23.3003

>  <SCORE.INTER.VDW>
-20.9947

>  <SCORE.INTER.norm>
-0.25468

>  <SCORE.INTRA>
-1.87841

>  <SCORE.INTRA.DIHEDRAL>
-2.50518

>  <SCORE.INTRA.DIHEDRAL.0>
5.18357

>  <SCORE.INTRA.POLAR>
0

>  <SCORE.INTRA.POLAR.0>
0

>  <SCORE.INTRA.REPUL>
0

>  <SCORE.INTRA.REPUL.0>
0

>  <SCORE.INTRA.SOLV>
-1.29313

>  <SCORE.INTRA.SOLV.lig_0>
-109.973

>  <SCORE.INTRA.VDW>
0.0207426

>  <SCORE.INTRA.VDW.0>
-1.68646

>  <SCORE.INTRA.norm>
-0.0458149

>  <SCORE.RESTR>
0

>  <SCORE.RESTR.CAVITY>
0

>  <SCORE.RESTR.norm>
0

>  <SCORE.SYSTEM>
0

>  <SCORE.SYSTEM.CONST>
0

>  <SCORE.SYSTEM.DIHEDRAL>
0

>  <SCORE.SYSTEM.SOLV>
0

>  <SCORE.SYSTEM.norm>
0

>  <SCORE.heavy>
41

>  <SCORE.norm>
-0.300494

>  <RMSD>
1.446

$$$$
ligand
 OpenBabel11021811423D
libRbt.so/2013.1/901 2013/11/27
 41 45  0  0  0  0  0  0  0  0999 V2000
   34.6816   39.1587    4.7603 C   0  0  2  0  0  0  0  0  0  0  0  0
   34.4261   39.1810    6.1783 O   0  0  0  0  0  0  0  0  0  0  0  0
   34.2313   36.1956    9.3353 C   0  0  2  0  0  0  0  0  0  0  0  0
   33.8775   34.9436   10.0527 N   0  0  0  0  0  0  0  0  0  0  0  0
   37.9199   37.2448    6.4774 C   0  0  1  0  0  0  0  0  0  0  0  0
   42.1385   38.6150    4.9612 C   0  0  1  0  0  0  0  0  0  0  0  0
   35.5763   40.3603    4.3324 C   0  0  2  0  0  0  0  0  0  0  0  0
   36.8232   40.4460    5.0986 N   0  0  0  0  0  0  0  0  0  0  0  0
   32.9198   36.8838    8.8408 C   0  0  0  0  0  0  0  0  0  0  0  0
   38.7746   36.7657    5.2817 C   0  0  2  0  0  0  0  0  0  0  0  0
   39.5262   35.5901    5.6010 O   0  0  0  0  0  0  0  0  0  0  0  0
   43.4789   38.4150    5.7891 C   0  0  2  0  0  0  0  0  0  0  0  0
   43.3530   38.7418    7.2424 N   0  0  0  0  0  0  0  0  0  0  0  0
   34.7848   41.6901    4.4570 C   0  0  1  0  0  0  0  0  0  0  0  0
   35.5978   42.7834    4.0390 O   0  0  0  0  0  0  0  0  0  0  0  0
   33.2292   38.2016    8.0728 C   0  0  2  0  0  0  0  0  0  0  0  0
   31.9444   38.7907    7.6510 N   0  0  0  0  0  0  0  0  0  0  0  0
   39.6663   37.9705    4.9363 C   0  0  2  0  0  0  0  0  0  0  0  0
   41.0134   37.8664    5.5477 O   0  0  0  0  0  0  0  0  0  0  0  0
   44.6497   39.2838    5.1409 C   0  0  1  0  0  0  0  0  0  0  0  0
   45.0137   38.7809    3.8365 O   0  0  0  0  0  0  0  0  0  0  0  0
   33.4965   41.6121    3.6056 C   0  0  2  0  0  0  0  0  0  0  0  0
   32.7798   42.8252    3.7003 O   0  0  0  0  0  0  0  0  0  0  0  0
   34.1839   37.9071    6.8619 C   0  0  2  0  0  0  0  0  0  0  0  0
   38.8939   39.1680    5.4825 C   0  0  2  0  0  0  0  0  0  0  0  0
   38.0656   38.6653    6.5213 O   0  0  0  0  0  0  0  0  0  0  0  0
   44.2548   40.8092    5.0037 C   0  0  2  0  0  0  0  0  0  0  0  0
   44.1363   41.3868    6.3148 O   0  0  0  0  0  0  0  0  0  0  0  0
   32.6235   40.4294    4.0701 C   0  0  2  0  0  0  0  0  0  0  0  0
   33.4276   39.1910    3.9718 O   0  0  0  0  0  0  0  0  0  0  0  0
   35.5449   37.2355    7.3996 C   0  0  2  0  0  0  0  0  0  0  0  0
   36.4919   36.8944    6.3038 O   0  0  0  0  0  0  0  0  0  0  0  0
   37.9949   39.8386    4.4541 C   0  0  0  0  0  0  0  0  0  0  0  0
   42.8926   40.9407    4.2090 C   0  0  1  0  0  0  0  0  0  0  0  0
   41.8144   40.0792    4.8027 O   0  0  0  0  0  0  0  0  0  0  0  0
   31.3504   40.3467    3.1959 C   0  0  0  0  0  0  0  0  0  0  0  0
   30.3980   39.2899    3.5835 N   0  0  0  0  0  0  0  0  0  0  0  0
   35.2127   35.9181    8.1323 C   0  0  1  0  0  0  0  0  0  0  0  0
   36.4221   35.3196    8.6095 O   0  0  0  0  0  0  0  0  0  0  0  0
   42.3931   42.4300    4.0681 C   0  0  0  0  0  0  0  0  0  0  0  0
   42.1271   43.1639    5.3464 N   0  0  0  0  0  0  0  0  0  0  0  0
  1  2  1  1  0  0  0
  1  7  1  0  0  0  0
  1 30  1  0  0  0  0
  3  4  1  6  0  0  0
  3  9  1  0  0  0  0
  3 38  1  0  0  0  0
  5 10  1  0  0  0  0
  5 26  1  6  0  0  0
  5 32  1  0  0  0  0
  6 12  1  0  0  0  0
  6 35  1  0  0  0  0
  6 19  1  1  0  0  0
  7  8  1  1  0  0  0
  7 14  1  0  0  0  0
  8 33  1  0  0  0  0
  9 16  1  0  0  0  0
 10 11  1  1  0  0  0
 10 18  1  0  0  0  0
 12 13  1  1  0  0  0
 12 20  1  0  0  0  0
 14 15  1  6  0  0  0
 14 22  1  0  0  0  0
 16 17  1  6  0  0  0
 16 24  1  0  0  0  0
 18 19  1  1  0  0  0
 18 25  1  0  0  0  0
 20 21  1  6  0  0  0
 20 27  1  0  0  0  0
 22 23  1  1  0  0  0
 22 29  1  0  0  0  0
 24  2  1  1  0  0  0
 24 31  1  0  0  0  0
 25 26  1  1  0  0  0
 25 33  1  0  0  0  0
 27 28  1  1  0  0  0
 27 34  1  0  0  0  0
 29 30  1  0  0  0  0
 29 36  1  6  0  0  0
 31 32  1  6  0  0  0
 31 38  1  0  0  0  0
 34 35  1  0  0  0  0
 34 40  1  1  0  0  0
 36 37  1  0  0  0  0
 38 39  1  1  0  0  0
 40 41  1  0  0  0  0
M  END
>  <CHROM.1>
157.41938932,177.86000464,-177.22253557,-60.11365880,37.53865550,39.06433469
5.67927848,3.01339064,-0.00713660,2.50671725

>  <Name>
ligand

>  <RI>
0

>  <Rbt.Current_Directory>
/home/itssahil/PROJECTS/Mol_Feturizer/New_Systems/rnas/1ZZ5

>  <Rbt.Executable>
rbdock ($Id: //depot/dev/client3/rdock/2013.1/src/exe/rbdock.cxx#4 $)

>  <Rbt.Library>
libRbt.so (2013.1, Build901 2013/11/27)

>  <Rbt.Parameter_File>
/export/apps/rDock/src/rDock_2013.1_src/data/scripts/dock_solv.prm

>  <Rbt.Receptor>
prm/pocket_docking_3.prm

>  <SCORE>
-12.0908

>  <SCORE.INTER>
-10.7304

>  <SCORE.INTER.CONST>
1

>  <SCORE.INTER.POLAR>
0

>  <SCORE.INTER.ROT>
4

>  <SCORE.INTER.SOLV>
20.4421

>  <SCORE.INTER.VDW>
-20.2343

>  <SCORE.INTER.norm>
-0.261717

>  <SCORE.INTRA>
-1.36045

>  <SCORE.INTRA.DIHEDRAL>
-2.69133

>  <SCORE.INTRA.DIHEDRAL.0>
5.18357

>  <SCORE.INTRA.POLAR>
0

>  <SCORE.INTRA.POLAR.0>
0

>  <SCORE.INTRA.REPUL>
0

>  <SCORE.INTRA.REPUL.0>
0

>  <SCORE.INTRA.SOLV>
0.0562703

>  <SCORE.INTRA.SOLV.lig_0>
-109.973

>  <SCORE.INTRA.VDW>
-0.0429233

>  <SCORE.INTRA.VDW.0>
-1.68646

>  <SCORE.INTRA.norm>
-0.0331818

>  <SCORE.RESTR>
0

>  <SCORE.RESTR.CAVITY>
0

>  <SCORE.RESTR.norm>
0

>  <SCORE.SYSTEM>
0

>  <SCORE.SYSTEM.CONST>
0

>  <SCORE.SYSTEM.DIHEDRAL>
0

>  <SCORE.SYSTEM.SOLV>
0

>  <SCORE.SYSTEM.norm>
0

>  <SCORE.heavy>
41

>  <SCORE.norm>
-0.294898

>  <RMSD>
1.451

$$$$
ligand
 OpenBabel11021811423D
libRbt.so/2013.1/901 2013/11/27
 41 45  0  0  0  0  0  0  0  0999 V2000
   34.7153   39.1316    4.7746 C   0  0  2  0  0  0  0  0  0  0  0  0
   34.4695   39.1549    6.1943 O   0  0  0  0  0  0  0  0  0  0  0  0
   34.3136   36.1738    9.3575 C   0  0  2  0  0  0  0  0  0  0  0  0
   33.9719   34.9210   10.0794 N   0  0  0  0  0  0  0  0  0  0  0  0
   37.9762   37.2389    6.4721 C   0  0  1  0  0  0  0  0  0  0  0  0
   42.1756   38.6329    4.9262 C   0  0  1  0  0  0  0  0  0  0  0  0
   35.6002   40.3376    4.3384 C   0  0  2  0  0  0  0  0  0  0  0  0
   36.8519   40.4315    5.0957 N   0  0  0  0  0  0  0  0  0  0  0  0
   32.9949   36.8538    8.8711 C   0  0  0  0  0  0  0  0  0  0  0  0
   38.8252   36.7625    5.2713 C   0  0  2  0  0  0  0  0  0  0  0  0
   39.5856   35.5918    5.5873 O   0  0  0  0  0  0  0  0  0  0  0  0
   43.5269   38.4277    5.7349 C   0  0  2  0  0  0  0  0  0  0  0  0
   43.4189   38.7400    7.1929 N   0  0  0  0  0  0  0  0  0  0  0  0
   34.8021   41.6631    4.4664 C   0  0  1  0  0  0  0  0  0  0  0  0
   35.6060   42.7602    4.0409 O   0  0  0  0  0  0  0  0  0  0  0  0
   33.2915   38.1720    8.0988 C   0  0  2  0  0  0  0  0  0  0  0  0
   32.0004   38.7531    7.6849 N   0  0  0  0  0  0  0  0  0  0  0  0
   39.7077   37.9718    4.9176 C   0  0  2  0  0  0  0  0  0  0  0  0
   41.0596   37.8763    5.5198 O   0  0  0  0  0  0  0  0  0  0  0  0
   44.6876   39.3052    5.0803 C   0  0  1  0  0  0  0  0  0  0  0  0
   45.0358   38.8157    3.7665 O   0  0  0  0  0  0  0  0  0  0  0  0
   33.5083   41.5764    3.6241 C   0  0  2  0  0  0  0  0  0  0  0  0
   32.7855   42.7856    3.7218 O   0  0  0  0  0  0  0  0  0  0  0  0
   34.2392   37.8808    6.8817 C   0  0  2  0  0  0  0  0  0  0  0  0
   38.9324   39.1658    5.4672 C   0  0  2  0  0  0  0  0  0  0  0  0
   38.1142   38.6602    6.5127 O   0  0  0  0  0  0  0  0  0  0  0  0
   44.2879   40.8310    4.9631 C   0  0  2  0  0  0  0  0  0  0  0  0
   44.1851   41.3956    6.2811 O   0  0  0  0  0  0  0  0  0  0  0  0
   32.6453   40.3895    4.0967 C   0  0  2  0  0  0  0  0  0  0  0  0
   33.4556   39.1556    3.9948 O   0  0  0  0  0  0  0  0  0  0  0  0
   35.6077   37.2178    7.4109 C   0  0  2  0  0  0  0  0  0  0  0  0
   36.5490   36.8801    6.3091 O   0  0  0  0  0  0  0  0  0  0  0  0
   38.0224   39.8297    4.4441 C   0  0  0  0  0  0  0  0  0  0  0  0
   42.9154   40.9674    4.1872 C   0  0  1  0  0  0  0  0  0  0  0  0
   41.8465   40.0979    4.7862 O   0  0  0  0  0  0  0  0  0  0  0  0
   31.3666   40.2982    3.2316 C   0  0  0  0  0  0  0  0  0  0  0  0
   30.4705   39.1753    3.5636 N   0  0  0  0  0  0  0  0  0  0  0  0
   35.2881   35.8998    8.1481 C   0  0  1  0  0  0  0  0  0  0  0  0
   36.5042   35.3089    8.6178 O   0  0  0  0  0  0  0  0  0  0  0  0
   42.4112   42.4569    4.0672 C   0  0  0  0  0  0  0  0  0  0  0  0
   42.1677   43.1803    5.3558 N   0  0  0  0  0  0  0  0  0  0  0  0
  1  2  1  1  0  0  0
  1  7  1  0  0  0  0
  1 30  1  0  0  0  0
  3  4  1  6  0  0  0
  3  9  1  0  0  0  0
  3 38  1  0  0  0  0
  5 10  1  0  0  0  0
  5 26  1  6  0  0  0
  5 32  1  0  0  0  0
  6 12  1  0  0  0  0
  6 35  1  0  0  0  0
  6 19  1  1  0  0  0
  7  8  1  1  0  0  0
  7 14  1  0  0  0  0
  8 33  1  0  0  0  0
  9 16  1  0  0  0  0
 10 11  1  1  0  0  0
 10 18  1  0  0  0  0
 12 13  1  1  0  0  0
 12 20  1  0  0  0  0
 14 15  1  6  0  0  0
 14 22  1  0  0  0  0
 16 17  1  6  0  0  0
 16 24  1  0  0  0  0
 18 19  1  1  0  0  0
 18 25  1  0  0  0  0
 20 21  1  6  0  0  0
 20 27  1  0  0  0  0
 22 23  1  1  0  0  0
 22 29  1  0  0  0  0
 24  2  1  1  0  0  0
 24 31  1  0  0  0  0
 25 26  1  1  0  0  0
 25 33  1  0  0  0  0
 27 28  1  1  0  0  0
 27 34  1  0  0  0  0
 29 30  1  0  0  0  0
 29 36  1  6  0  0  0
 31 32  1  6  0  0  0
 31 38  1  0  0  0  0
 34 35  1  0  0  0  0
 34 40  1  1  0  0  0
 36 37  1  0  0  0  0
 38 39  1  1  0  0  0
 40 41  1  0  0  0  0
M  END
>  <CHROM.1>
157.57530029,178.53233836,178.46246367,-59.77303106,37.58217079,39.05247792
5.67587410,3.00561405,-0.00782232,2.50517860

>  <Name>
ligand

>  <RI>
0

>  <Rbt.Current_Directory>
/home/itssahil/PROJECTS/Mol_Feturizer/New_Systems/rnas/1ZZ5

>  <Rbt.Executable>
rbdock ($Id: //depot/dev/client3/rdock/2013.1/src/exe/rbdock.cxx#4 $)

>  <Rbt.Library>
libRbt.so (2013.1, Build901 2013/11/27)

>  <Rbt.Parameter_File>
/export/apps/rDock/src/rDock_2013.1_src/data/scripts/dock_solv.prm

>  <Rbt.Receptor>
prm/pocket_docking_5.prm

>  <SCORE>
-12.1304

>  <SCORE.INTER>
-10.7455

>  <SCORE.INTER.CONST>
1

>  <SCORE.INTER.POLAR>
0

>  <SCORE.INTER.ROT>
4

>  <SCORE.INTER.SOLV>
20.5402

>  <SCORE.INTER.VDW>
-20.277

>  <SCORE.INTER.norm>
-0.262084

>  <SCORE.INTRA>
-1.38493

>  <SCORE.INTRA.DIHEDRAL>
-2.74955

>  <SCORE.INTRA.DIHEDRAL.0>
5.18357

>  <SCORE.INTRA.POLAR>
0

>  <SCORE.INTRA.POLAR.0>
0

>  <SCORE.INTRA.REPUL>
0

>  <SCORE.INTRA.REPUL.0>
0

>  <SCORE.INTRA.SOLV>
0.0591921

>  <SCORE.INTRA.SOLV.lig_0>
-109.973

>  <SCORE.INTRA.VDW>
-0.039755

>  <SCORE.INTRA.VDW.0>
-1.68646

>  <SCORE.INTRA.norm>
-0.0337788

>  <SCORE.RESTR>
0

>  <SCORE.RESTR.CAVITY>
0

>  <SCORE.RESTR.norm>
0

>  <SCORE.SYSTEM>
0

>  <SCORE.SYSTEM.CONST>
0

>  <SCORE.SYSTEM.DIHEDRAL>
0

>  <SCORE.SYSTEM.SOLV>
0

>  <SCORE.SYSTEM.norm>
0

>  <SCORE.heavy>
41

>  <SCORE.norm>
-0.295863

>  <RMSD>
1.457

$$$$
ligand
 OpenBabel11021811423D
libRbt.so/2013.1/901 2013/11/27
 41 45  0  0  0  0  0  0  0  0999 V2000
   34.4287   39.1618    4.8211 C   0  0  2  0  0  0  0  0  0  0  0  0
   34.1428   39.2366    6.2315 O   0  0  0  0  0  0  0  0  0  0  0  0
   33.8541   36.3667    9.4870 C   0  0  2  0  0  0  0  0  0  0  0  0
   33.4742   35.1438   10.2403 N   0  0  0  0  0  0  0  0  0  0  0  0
   37.6126   37.2848    6.6752 C   0  0  1  0  0  0  0  0  0  0  0  0
   41.8796   38.5477    5.1909 C   0  0  1  0  0  0  0  0  0  0  0  0
   35.3428   40.3405    4.3707 C   0  0  2  0  0  0  0  0  0  0  0  0
   36.5735   40.4435    5.1605 N   0  0  0  0  0  0  0  0  0  0  0  0
   32.5597   37.0472    8.9399 C   0  0  0  0  0  0  0  0  0  0  0  0
   38.4887   36.7568    5.5162 C   0  0  2  0  0  0  0  0  0  0  0  0
   39.2231   35.5875    5.8933 O   0  0  0  0  0  0  0  0  0  0  0  0
   43.2101   38.3317    6.0308 C   0  0  2  0  0  0  0  0  0  0  0  0
   43.0876   38.7020    7.4740 N   0  0  0  0  0  0  0  0  0  0  0  0
   34.5602   41.6800    4.4309 C   0  0  1  0  0  0  0  0  0  0  0  0
   35.3915   42.7514    3.9925 O   0  0  0  0  0  0  0  0  0  0  0  0
   32.8970   38.3344    8.1328 C   0  0  2  0  0  0  0  0  0  0  0  0
   31.6266   38.9182    7.6624 N   0  0  0  0  0  0  0  0  0  0  0  0
   39.3980   37.9416    5.1480 C   0  0  2  0  0  0  0  0  0  0  0  0
   40.7307   37.8487    5.7922 O   0  0  0  0  0  0  0  0  0  0  0  0
   44.4086   39.1478    5.3649 C   0  0  1  0  0  0  0  0  0  0  0  0
   44.7632   38.5986    4.0767 O   0  0  0  0  0  0  0  0  0  0  0  0
   33.2900   41.5819    3.5547 C   0  0  2  0  0  0  0  0  0  0  0  0
   32.5820   42.8032    3.5908 O   0  0  0  0  0  0  0  0  0  0  0  0
   33.8749   37.9897    6.9542 C   0  0  2  0  0  0  0  0  0  0  0  0
   38.6243   39.1638    5.6345 C   0  0  2  0  0  0  0  0  0  0  0  0
   37.7695   38.7048    6.6722 O   0  0  0  0  0  0  0  0  0  0  0  0
   44.0590   40.6796    5.1839 C   0  0  2  0  0  0  0  0  0  0  0  0
   43.9519   41.2965    6.4779 O   0  0  0  0  0  0  0  0  0  0  0  0
   32.3970   40.4233    4.0416 C   0  0  2  0  0  0  0  0  0  0  0  0
   33.1923   39.1760    4.0047 O   0  0  0  0  0  0  0  0  0  0  0  0
   35.2181   37.3269    7.5450 C   0  0  2  0  0  0  0  0  0  0  0  0
   36.1857   36.9396    6.4830 O   0  0  0  0  0  0  0  0  0  0  0  0
   37.7536   39.8045    4.5637 C   0  0  0  0  0  0  0  0  0  0  0  0
   42.7047   40.8288    4.3790 C   0  0  1  0  0  0  0  0  0  0  0  0
   41.5992   40.0158    4.9907 O   0  0  0  0  0  0  0  0  0  0  0  0
   31.1425   40.3196    3.1432 C   0  0  0  0  0  0  0  0  0  0  0  0
   30.2441   41.4878    3.1932 N   0  0  0  0  0  0  0  0  0  0  0  0
   34.8589   36.0390    8.3163 C   0  0  1  0  0  0  0  0  0  0  0  0
   36.0525   35.4483    8.8408 O   0  0  0  0  0  0  0  0  0  0  0  0
   42.2496   42.3275    4.1946 C   0  0  0  0  0  0  0  0  0  0  0  0
   42.0301   43.1131    5.4508 N   0  0  0  0  0  0  0  0  0  0  0  0
  1  2  1  1  0  0  0
  1  7  1  0  0  0  0
  1 30  1  0  0  0  0
  3  4  1  6  0  0  0
  3  9  1  0  0  0  0
  3 38  1  0  0  0  0
  5 10  1  0  0  0  0
  5 26  1  6  0  0  0
  5 32  1  0  0  0  0
  6 12  1  0  0  0  0
  6 35  1  0  0  0  0
  6 19  1  1  0  0  0
  7  8  1  1  0  0  0
  7 14  1  0  0  0  0
  8 33  1  0  0  0  0
  9 16  1  0  0  0  0
 10 11  1  1  0  0  0
 10 18  1  0  0  0  0
 12 13  1  1  0  0  0
 12 20  1  0  0  0  0
 14 15  1  6  0  0  0
 14 22  1  0  0  0  0
 16 17  1  6  0  0  0
 16 24  1  0  0  0  0
 18 19  1  1  0  0  0
 18 25  1  0  0  0  0
 20 21  1  6  0  0  0
 20 27  1  0  0  0  0
 22 23  1  1  0  0  0
 22 29  1  0  0  0  0
 24  2  1  1  0  0  0
 24 31  1  0  0  0  0
 25 26  1  1  0  0  0
 25 33  1  0  0  0  0
 27 28  1  1  0  0  0
 27 34  1  0  0  0  0
 29 30  1  0  0  0  0
 29 36  1  6  0  0  0
 31 32  1  6  0  0  0
 31 38  1  0  0  0  0
 34 35  1  0  0  0  0
 34 40  1  1  0  0  0
 36 37  1  0  0  0  0
 38 39  1  1  0  0  0
 40 41  1  0  0  0  0
M  END
>  <CHROM.1>
156.34141647,179.70516639,-64.04589657,-58.75742767,37.27804530,39.11894409
5.79127584,3.06131908,-0.01000838,2.47519542

>  <Name>
ligand

>  <RI>
0

>  <Rbt.Current_Directory>
/home/itssahil/PROJECTS/Mol_Feturizer/New_Systems/rnas/1ZZ5

>  <Rbt.Executable>
rbdock ($Id: //depot/dev/client3/rdock/2013.1/src/exe/rbdock.cxx#4 $)

>  <Rbt.Library>
libRbt.so (2013.1, Build901 2013/11/27)

>  <Rbt.Parameter_File>
/export/apps/rDock/src/rDock_2013.1_src/data/scripts/dock_solv.prm

>  <Rbt.Receptor>
prm/pocket_docking_3.prm

>  <SCORE>
-11.341

>  <SCORE.INTER>
-10.8632

>  <SCORE.INTER.CONST>
1

>  <SCORE.INTER.POLAR>
0

>  <SCORE.INTER.ROT>
4

>  <SCORE.INTER.SOLV>
19.2838

>  <SCORE.INTER.VDW>
-19.9367

>  <SCORE.INTER.norm>
-0.264957

>  <SCORE.INTRA>
-0.477767

>  <SCORE.INTRA.DIHEDRAL>
-2.49142

>  <SCORE.INTRA.DIHEDRAL.0>
5.18357

>  <SCORE.INTRA.POLAR>
0

>  <SCORE.INTRA.POLAR.0>
0

>  <SCORE.INTRA.REPUL>
0

>  <SCORE.INTRA.REPUL.0>
0

>  <SCORE.INTRA.SOLV>
1.28824

>  <SCORE.INTRA.SOLV.lig_0>
-109.973

>  <SCORE.INTRA.VDW>
0.123825

>  <SCORE.INTRA.VDW.0>
-1.68646

>  <SCORE.INTRA.norm>
-0.0116529

>  <SCORE.RESTR>
0

>  <SCORE.RESTR.CAVITY>
0

>  <SCORE.RESTR.norm>
0

>  <SCORE.SYSTEM>
0

>  <SCORE.SYSTEM.CONST>
0

>  <SCORE.SYSTEM.DIHEDRAL>
0

>  <SCORE.SYSTEM.SOLV>
0

>  <SCORE.SYSTEM.norm>
0

>  <SCORE.heavy>
41

>  <SCORE.norm>
-0.276609

>  <RMSD>
1.461

$$$$
ligand
 OpenBabel11021811423D
libRbt.so/2013.1/901 2013/11/27
 41 45  0  0  0  0  0  0  0  0999 V2000
   34.4385   39.1766    4.8192 C   0  0  2  0  0  0  0  0  0  0  0  0
   34.1320   39.2505    6.2253 O   0  0  0  0  0  0  0  0  0  0  0  0
   33.8569   36.3870    9.4876 C   0  0  2  0  0  0  0  0  0  0  0  0
   33.4913   35.1594   10.2403 N   0  0  0  0  0  0  0  0  0  0  0  0
   37.6339   37.3706    6.7233 C   0  0  1  0  0  0  0  0  0  0  0  0
   41.8913   38.7252    5.2996 C   0  0  1  0  0  0  0  0  0  0  0  0
   35.3348   40.3718    4.3767 C   0  0  2  0  0  0  0  0  0  0  0  0
   36.5524   40.5024    5.1826 N   0  0  0  0  0  0  0  0  0  0  0  0
   32.5565   37.0394    8.9204 C   0  0  0  0  0  0  0  0  0  0  0  0
   38.5362   36.8563    5.5783 C   0  0  2  0  0  0  0  0  0  0  0  0
   39.2887   35.7033    5.9697 O   0  0  0  0  0  0  0  0  0  0  0  0
   43.1841   38.6327    6.2173 C   0  0  2  0  0  0  0  0  0  0  0  0
   42.9633   39.0727    7.6288 N   0  0  0  0  0  0  0  0  0  0  0  0
   34.5247   41.6955    4.4212 C   0  0  1  0  0  0  0  0  0  0  0  0
   35.3402   42.7819    3.9900 O   0  0  0  0  0  0  0  0  0  0  0  0
   32.8788   38.3303    8.1131 C   0  0  2  0  0  0  0  0  0  0  0  0
   31.6035   38.8867    7.6233 N   0  0  0  0  0  0  0  0  0  0  0  0
   39.4264   38.0578    5.2179 C   0  0  2  0  0  0  0  0  0  0  0  0
   40.7518   37.9940    5.8803 O   0  0  0  0  0  0  0  0  0  0  0  0
   44.3700   39.4799    5.5680 C   0  0  1  0  0  0  0  0  0  0  0  0
   44.8238   38.8835    4.3330 O   0  0  0  0  0  0  0  0  0  0  0  0
   33.2688   41.5688    3.5284 C   0  0  2  0  0  0  0  0  0  0  0  0
   32.5359   42.7757    3.5502 O   0  0  0  0  0  0  0  0  0  0  0  0
   33.8794   38.0011    6.9491 C   0  0  2  0  0  0  0  0  0  0  0  0
   38.6218   39.2659    5.6892 C   0  0  2  0  0  0  0  0  0  0  0  0
   37.7623   38.7934    6.7169 O   0  0  0  0  0  0  0  0  0  0  0  0
   43.9467   40.9768    5.2823 C   0  0  2  0  0  0  0  0  0  0  0  0
   43.7356   41.6554    6.5319 O   0  0  0  0  0  0  0  0  0  0  0  0
   32.3927   40.3942    4.0075 C   0  0  2  0  0  0  0  0  0  0  0  0
   33.2133   39.1630    3.9861 O   0  0  0  0  0  0  0  0  0  0  0  0
   35.2276   37.3676    7.5604 C   0  0  2  0  0  0  0  0  0  0  0  0
   36.2170   36.9961    6.5131 O   0  0  0  0  0  0  0  0  0  0  0  0
   37.7530   39.8851    4.6043 C   0  0  0  0  0  0  0  0  0  0  0  0
   42.6318   41.0032    4.4021 C   0  0  1  0  0  0  0  0  0  0  0  0
   41.5414   40.1615    5.0019 O   0  0  0  0  0  0  0  0  0  0  0  0
   31.1528   40.2621    3.0927 C   0  0  0  0  0  0  0  0  0  0  0  0
   30.2080   41.3922    3.1595 N   0  0  0  0  0  0  0  0  0  0  0  0
   34.8838   36.0754    8.3318 C   0  0  1  0  0  0  0  0  0  0  0  0
   36.0818   35.5108    8.8745 O   0  0  0  0  0  0  0  0  0  0  0  0
   42.1052   42.4608    4.1095 C   0  0  0  0  0  0  0  0  0  0  0  0
   40.8631   42.5627    3.2788 N   0  0  0  0  0  0  0  0  0  0  0  0
  1  2  1  1  0  0  0
  1  7  1  0  0  0  0
  1 30  1  0  0  0  0
  3  4  1  6  0  0  0
  3  9  1  0  0  0  0
  3 38  1  0  0  0  0
  5 10  1  0  0  0  0
  5 26  1  6  0  0  0
  5 32  1  0  0  0  0
  6 12  1  0  0  0  0
  6 35  1  0  0  0  0
  6 19  1  1  0  0  0
  7  8  1  1  0  0  0
  7 14  1  0  0  0  0
  8 33  1  0  0  0  0
  9 16  1  0  0  0  0
 10 11  1  1  0  0  0
 10 18  1  0  0  0  0
 12 13  1  1  0  0  0
 12 20  1  0  0  0  0
 14 15  1  6  0  0  0
 14 22  1  0  0  0  0
 16 17  1  6  0  0  0
 16 24  1  0  0  0  0
 18 19  1  1  0  0  0
 18 25  1  0  0  0  0
 20 21  1  6  0  0  0
 20 27  1  0  0  0  0
 22 23  1  1  0  0  0
 22 29  1  0  0  0  0
 24  2  1  1  0  0  0
 24 31  1  0  0  0  0
 25 26  1  1  0  0  0
 25 33  1  0  0  0  0
 27 28  1  1  0  0  0
 27 34  1  0  0  0  0
 29 30  1  0  0  0  0
 29 36  1  6  0  0  0
 31 32  1  6  0  0  0
 31 38  1  0  0  0  0
 34 35  1  0  0  0  0
 34 40  1  1  0  0  0
 36 37  1  0  0  0  0
 38 39  1  1  0  0  0
 40 41  1  0  0  0  0
M  END
>  <CHROM.1>
156.96889826,175.15070133,-65.97172899,179.91498507,37.23351718,39.19243084
5.77092899,3.04441534,0.00228138,2.44256947

>  <Name>
ligand

>  <RI>
0

>  <Rbt.Current_Directory>
/home/itssahil/PROJECTS/Mol_Feturizer/New_Systems/rnas/1ZZ5

>  <Rbt.Executable>
rbdock ($Id: //depot/dev/client3/rdock/2013.1/src/exe/rbdock.cxx#4 $)

>  <Rbt.Library>
libRbt.so (2013.1, Build901 2013/11/27)

>  <Rbt.Parameter_File>
/export/apps/rDock/src/rDock_2013.1_src/data/scripts/dock_solv.prm

>  <Rbt.Receptor>
prm/pocket_docking_6.prm

>  <SCORE>
-11.8973

>  <SCORE.INTER>
-10.7746

>  <SCORE.INTER.CONST>
1

>  <SCORE.INTER.POLAR>
0

>  <SCORE.INTER.ROT>
4

>  <SCORE.INTER.SOLV>
23.5563

>  <SCORE.INTER.VDW>
-21.3018

>  <SCORE.INTER.norm>
-0.262794

>  <SCORE.INTRA>
-1.12272

>  <SCORE.INTRA.DIHEDRAL>
-2.42256

>  <SCORE.INTRA.DIHEDRAL.0>
5.18357

>  <SCORE.INTRA.POLAR>
0

>  <SCORE.INTRA.POLAR.0>
0

>  <SCORE.INTRA.REPUL>
0

>  <SCORE.INTRA.REPUL.0>
0

>  <SCORE.INTRA.SOLV>
-0.0767233

>  <SCORE.INTRA.SOLV.lig_0>
-109.973

>  <SCORE.INTRA.VDW>
0.126919

>  <SCORE.INTRA.VDW.0>
-1.68646

>  <SCORE.INTRA.norm>
-0.0273835

>  <SCORE.RESTR>
0

>  <SCORE.RESTR.CAVITY>
0

>  <SCORE.RESTR.norm>
0

>  <SCORE.SYSTEM>
0

>  <SCORE.SYSTEM.CONST>
0

>  <SCORE.SYSTEM.DIHEDRAL>
0

>  <SCORE.SYSTEM.SOLV>
0

>  <SCORE.SYSTEM.norm>
0

>  <SCORE.heavy>
41

>  <SCORE.norm>
-0.290178

>  <RMSD>
1.461

$$$$
ligand
 OpenBabel11021811423D
libRbt.so/2013.1/901 2013/11/27
 41 45  0  0  0  0  0  0  0  0999 V2000
   34.4311   39.1817    4.8190 C   0  0  2  0  0  0  0  0  0  0  0  0
   34.1416   39.2520    6.2289 O   0  0  0  0  0  0  0  0  0  0  0  0
   33.8633   36.3745    9.4785 C   0  0  2  0  0  0  0  0  0  0  0  0
   33.4891   35.1479   10.2287 N   0  0  0  0  0  0  0  0  0  0  0  0
   37.6222   37.3206    6.6767 C   0  0  1  0  0  0  0  0  0  0  0  0
   41.8824   38.6208    5.2100 C   0  0  1  0  0  0  0  0  0  0  0  0
   35.3389   40.3667    4.3727 C   0  0  2  0  0  0  0  0  0  0  0  0
   36.5673   40.4758    5.1654 N   0  0  0  0  0  0  0  0  0  0  0  0
   32.5659   37.0482    8.9299 C   0  0  0  0  0  0  0  0  0  0  0  0
   38.5041   36.8001    5.5187 C   0  0  2  0  0  0  0  0  0  0  0  0
   39.2447   35.6346    5.8952 O   0  0  0  0  0  0  0  0  0  0  0  0
   43.1904   38.4863    6.1007 C   0  0  2  0  0  0  0  0  0  0  0  0
   43.0062   38.9086    7.5229 N   0  0  0  0  0  0  0  0  0  0  0  0
   34.5481   41.7013    4.4337 C   0  0  1  0  0  0  0  0  0  0  0  0
   35.3738   42.7785    3.9990 O   0  0  0  0  0  0  0  0  0  0  0  0
   32.8971   38.3389    8.1258 C   0  0  2  0  0  0  0  0  0  0  0  0
   31.6243   38.9158    7.6537 N   0  0  0  0  0  0  0  0  0  0  0  0
   39.4070   37.9910    5.1546 C   0  0  2  0  0  0  0  0  0  0  0  0
   40.7388   37.9051    5.8015 O   0  0  0  0  0  0  0  0  0  0  0  0
   44.3816   39.3182    5.4415 C   0  0  1  0  0  0  0  0  0  0  0  0
   44.7986   38.7318    4.1889 O   0  0  0  0  0  0  0  0  0  0  0  0
   33.2804   41.5971    3.5546 C   0  0  2  0  0  0  0  0  0  0  0  0
   32.5649   42.8140    3.5913 O   0  0  0  0  0  0  0  0  0  0  0  0
   33.8797   38.0022    6.9488 C   0  0  2  0  0  0  0  0  0  0  0  0
   38.6248   39.2076    5.6416 C   0  0  2  0  0  0  0  0  0  0  0  0
   37.7705   38.7415    6.6765 O   0  0  0  0  0  0  0  0  0  0  0  0
   43.9854   40.8281    5.1872 C   0  0  2  0  0  0  0  0  0  0  0  0
   43.8131   41.4912    6.4509 O   0  0  0  0  0  0  0  0  0  0  0  0
   32.3935   40.4322    4.0373 C   0  0  2  0  0  0  0  0  0  0  0  0
   33.1964   39.1899    3.9999 O   0  0  0  0  0  0  0  0  0  0  0  0
   35.2257   37.3465    7.5412 C   0  0  2  0  0  0  0  0  0  0  0  0
   36.1979   36.9671    6.4807 O   0  0  0  0  0  0  0  0  0  0  0  0
   37.7525   39.8450    4.5701 C   0  0  0  0  0  0  0  0  0  0  0  0
   42.6547   40.8964    4.3333 C   0  0  1  0  0  0  0  0  0  0  0  0
   41.5580   40.0688    4.9413 O   0  0  0  0  0  0  0  0  0  0  0  0
   31.1415   40.3226    3.1360 C   0  0  0  0  0  0  0  0  0  0  0  0
   30.1926   39.2602    3.5170 N   0  0  0  0  0  0  0  0  0  0  0  0
   34.8725   36.0551    8.3094 C   0  0  1  0  0  0  0  0  0  0  0  0
   36.0686   35.4707    8.8354 O   0  0  0  0  0  0  0  0  0  0  0  0
   42.1543   42.3693    4.0735 C   0  0  0  0  0  0  0  0  0  0  0  0
   40.8773   42.5095    3.3034 N   0  0  0  0  0  0  0  0  0  0  0  0
  1  2  1  1  0  0  0
  1  7  1  0  0  0  0
  1 30  1  0  0  0  0
  3  4  1  6  0  0  0
  3  9  1  0  0  0  0
  3 38  1  0  0  0  0
  5 10  1  0  0  0  0
  5 26  1  6  0  0  0
  5 32  1  0  0  0  0
  6 12  1  0  0  0  0
  6 35  1  0  0  0  0
  6 19  1  1  0  0  0
  7  8  1  1  0  0  0
  7 14  1  0  0  0  0
  8 33  1  0  0  0  0
  9 16  1  0  0  0  0
 10 11  1  1  0  0  0
 10 18  1  0  0  0  0
 12 13  1  1  0  0  0
 12 20  1  0  0  0  0
 14 15  1  6  0  0  0
 14 22  1  0  0  0  0
 16 17  1  6  0  0  0
 16 24  1  0  0  0  0
 18 19  1  1  0  0  0
 18 25  1  0  0  0  0
 20 21  1  6  0  0  0
 20 27  1  0  0  0  0
 22 23  1  1  0  0  0
 22 29  1  0  0  0  0
 24  2  1  1  0  0  0
 24 31  1  0  0  0  0
 25 26  1  1  0  0  0
 25 33  1  0  0  0  0
 27 28  1  1  0  0  0
 27 34  1  0  0  0  0
 29 30  1  0  0  0  0
 29 36  1  6  0  0  0
 31 32  1  6  0  0  0
 31 38  1  0  0  0  0
 34 35  1  0  0  0  0
 34 40  1  1  0  0  0
 36 37  1  0  0  0  0
 38 39  1  1  0  0  0
 40 41  1  0  0  0  0
M  END
>  <CHROM.1>
156.82316833,176.06596379,-178.59215417,-178.34474743,37.23887399,39.09710757
5.74843305,3.02378930,-0.00311531,2.44323116

>  <Name>
ligand

>  <RI>
0

>  <Rbt.Current_Directory>
/home/itssahil/PROJECTS/Mol_Feturizer/New_Systems/rnas/1ZZ5

>  <Rbt.Executable>
rbdock ($Id: //depot/dev/client3/rdock/2013.1/src/exe/rbdock.cxx#4 $)

>  <Rbt.Library>
libRbt.so (2013.1, Build901 2013/11/27)

>  <Rbt.Parameter_File>
/export/apps/rDock/src/rDock_2013.1_src/data/scripts/dock_solv.prm

>  <Rbt.Receptor>
prm/pocket_docking_4.prm

>  <SCORE>
-12.4904

>  <SCORE.INTER>
-10.5973

>  <SCORE.INTER.CONST>
1

>  <SCORE.INTER.POLAR>
0

>  <SCORE.INTER.ROT>
4

>  <SCORE.INTER.SOLV>
24.0033

>  <SCORE.INTER.VDW>
-21.3326

>  <SCORE.INTER.norm>
-0.258471

>  <SCORE.INTRA>
-1.89314

>  <SCORE.INTRA.DIHEDRAL>
-2.55064

>  <SCORE.INTRA.DIHEDRAL.0>
5.18357

>  <SCORE.INTRA.POLAR>
0

>  <SCORE.INTRA.POLAR.0>
0

>  <SCORE.INTRA.REPUL>
0

>  <SCORE.INTRA.REPUL.0>
0

>  <SCORE.INTRA.SOLV>
-1.25352

>  <SCORE.INTRA.SOLV.lig_0>
-109.973

>  <SCORE.INTRA.VDW>
0.00893564

>  <SCORE.INTRA.VDW.0>
-1.68646

>  <SCORE.INTRA.norm>
-0.0461742

>  <SCORE.RESTR>
0

>  <SCORE.RESTR.CAVITY>
0

>  <SCORE.RESTR.norm>
0

>  <SCORE.SYSTEM>
0

>  <SCORE.SYSTEM.CONST>
0

>  <SCORE.SYSTEM.DIHEDRAL>
0

>  <SCORE.SYSTEM.SOLV>
0

>  <SCORE.SYSTEM.norm>
0

>  <SCORE.heavy>
41

>  <SCORE.norm>
-0.304645

>  <RMSD>
1.464

$$$$
ligand
 OpenBabel11021811423D
libRbt.so/2013.1/901 2013/11/27
 41 45  0  0  0  0  0  0  0  0999 V2000
   34.6755   39.1608    4.7585 C   0  0  2  0  0  0  0  0  0  0  0  0
   34.3996   39.1922    6.1725 O   0  0  0  0  0  0  0  0  0  0  0  0
   34.1979   36.2322    9.3529 C   0  0  2  0  0  0  0  0  0  0  0  0
   33.8499   34.9821   10.0764 N   0  0  0  0  0  0  0  0  0  0  0  0
   37.9132   37.3037    6.5381 C   0  0  1  0  0  0  0  0  0  0  0  0
   42.1368   38.7086    5.0649 C   0  0  1  0  0  0  0  0  0  0  0  0
   35.5609   40.3701    4.3325 C   0  0  2  0  0  0  0  0  0  0  0  0
   36.7956   40.4784    5.1154 N   0  0  0  0  0  0  0  0  0  0  0  0
   32.8849   36.8992    8.8339 C   0  0  0  0  0  0  0  0  0  0  0  0
   38.7908   36.8252    5.3589 C   0  0  2  0  0  0  0  0  0  0  0  0
   39.5526   35.6622    5.6993 O   0  0  0  0  0  0  0  0  0  0  0  0
   43.4536   38.5780    5.9431 C   0  0  2  0  0  0  0  0  0  0  0  0
   43.2718   38.9622    7.3763 N   0  0  0  0  0  0  0  0  0  0  0  0
   34.7508   41.6906    4.4341 C   0  0  1  0  0  0  0  0  0  0  0  0
   35.5557   42.7905    4.0179 O   0  0  0  0  0  0  0  0  0  0  0  0
   33.1885   38.2141    8.0586 C   0  0  2  0  0  0  0  0  0  0  0  0
   31.9023   38.7829    7.6134 N   0  0  0  0  0  0  0  0  0  0  0  0
   39.6719   38.0383    5.0153 C   0  0  2  0  0  0  0  0  0  0  0  0
   41.0114   37.9569    5.6467 O   0  0  0  0  0  0  0  0  0  0  0  0
   44.6239   39.4483    5.2961 C   0  0  1  0  0  0  0  0  0  0  0  0
   45.0428   38.9004    4.0268 O   0  0  0  0  0  0  0  0  0  0  0  0
   33.4759   41.5886    3.5653 C   0  0  2  0  0  0  0  0  0  0  0  0
   32.7426   42.7932    3.6390 O   0  0  0  0  0  0  0  0  0  0  0  0
   34.1639   37.9213    6.8639 C   0  0  2  0  0  0  0  0  0  0  0  0
   38.8766   39.2305    5.5399 C   0  0  2  0  0  0  0  0  0  0  0  0
   38.0401   38.7263    6.5714 O   0  0  0  0  0  0  0  0  0  0  0  0
   44.1969   40.9560    5.0811 C   0  0  2  0  0  0  0  0  0  0  0  0
   44.0212   41.5850    6.3616 O   0  0  0  0  0  0  0  0  0  0  0  0
   32.6115   40.3988    4.0280 C   0  0  2  0  0  0  0  0  0  0  0  0
   33.4325   39.1702    3.9521 O   0  0  0  0  0  0  0  0  0  0  0  0
   35.5255   37.2720    7.4267 C   0  0  2  0  0  0  0  0  0  0  0  0
   36.4923   36.9335    6.3475 O   0  0  0  0  0  0  0  0  0  0  0  0
   37.9839   39.8805    4.4930 C   0  0  0  0  0  0  0  0  0  0  0  0
   42.8590   41.0191    4.2382 C   0  0  1  0  0  0  0  0  0  0  0  0
   41.7829   40.1561    4.8335 O   0  0  0  0  0  0  0  0  0  0  0  0
   31.3521   40.2922    3.1367 C   0  0  0  0  0  0  0  0  0  0  0  0
   30.4205   39.2099    3.5042 N   0  0  0  0  0  0  0  0  0  0  0  0
   35.1997   35.9569    8.1664 C   0  0  1  0  0  0  0  0  0  0  0  0
   36.4098   35.3781    8.6659 O   0  0  0  0  0  0  0  0  0  0  0  0
   42.3286   42.4879    4.0176 C   0  0  0  0  0  0  0  0  0  0  0  0
   41.0092   42.6187    3.3209 N   0  0  0  0  0  0  0  0  0  0  0  0
  1  2  1  1  0  0  0
  1  7  1  0  0  0  0
  1 30  1  0  0  0  0
  3  4  1  6  0  0  0
  3  9  1  0  0  0  0
  3 38  1  0  0  0  0
  5 10  1  0  0  0  0
  5 26  1  6  0  0  0
  5 32  1  0  0  0  0
  6 12  1  0  0  0  0
  6 35  1  0  0  0  0
  6 19  1  1  0  0  0
  7  8  1  1  0  0  0
  7 14  1  0  0  0  0
  8 33  1  0  0  0  0
  9 16  1  0  0  0  0
 10 11  1  1  0  0  0
 10 18  1  0  0  0  0
 12 13  1  1  0  0  0
 12 20  1  0  0  0  0
 14 15  1  6  0  0  0
 14 22  1  0  0  0  0
 16 17  1  6  0  0  0
 16 24  1  0  0  0  0
 18 19  1  1  0  0  0
 18 25  1  0  0  0  0
 20 21  1  6  0  0  0
 20 27  1  0  0  0  0
 22 23  1  1  0  0  0
 22 29  1  0  0  0  0
 24  2  1  1  0  0  0
 24 31  1  0  0  0  0
 25 26  1  1  0  0  0
 25 33  1  0  0  0  0
 27 28  1  1  0  0  0
 27 34  1  0  0  0  0
 29 30  1  0  0  0  0
 29 36  1  6  0  0  0
 31 32  1  6  0  0  0
 31 38  1  0  0  0  0
 34 35  1  0  0  0  0
 34 40  1  1  0  0  0
 36 37  1  0  0  0  0
 38 39  1  1  0  0  0
 40 41  1  0  0  0  0
M  END
>  <CHROM.1>
157.07209685,175.74609441,-178.35706678,-175.35305827,37.49073509,39.09864288
5.66075440,3.00594440,-0.00032910,2.46868340

>  <Name>
ligand

>  <RI>
0

>  <Rbt.Current_Directory>
/home/itssahil/PROJECTS/Mol_Feturizer/New_Systems/rnas/1ZZ5

>  <Rbt.Executable>
rbdock ($Id: //depot/dev/client3/rdock/2013.1/src/exe/rbdock.cxx#4 $)

>  <Rbt.Library>
libRbt.so (2013.1, Build901 2013/11/27)

>  <Rbt.Parameter_File>
/export/apps/rDock/src/rDock_2013.1_src/data/scripts/dock_solv.prm

>  <Rbt.Receptor>
prm/pocket_docking_4.prm

>  <SCORE>
-12.4444

>  <SCORE.INTER>
-10.6115

>  <SCORE.INTER.CONST>
1

>  <SCORE.INTER.POLAR>
0

>  <SCORE.INTER.ROT>
4

>  <SCORE.INTER.SOLV>
24.5979

>  <SCORE.INTER.VDW>
-21.5403

>  <SCORE.INTER.norm>
-0.258818

>  <SCORE.INTRA>
-1.8329

>  <SCORE.INTRA.DIHEDRAL>
-2.51956

>  <SCORE.INTRA.DIHEDRAL.0>
5.18357

>  <SCORE.INTRA.POLAR>
0

>  <SCORE.INTRA.POLAR.0>
0

>  <SCORE.INTRA.REPUL>
0

>  <SCORE.INTRA.REPUL.0>
0

>  <SCORE.INTRA.SOLV>
-1.15789

>  <SCORE.INTRA.SOLV.lig_0>
-109.973

>  <SCORE.INTRA.VDW>
0.00582257

>  <SCORE.INTRA.VDW.0>
-1.68646

>  <SCORE.INTRA.norm>
-0.0447049

>  <SCORE.RESTR>
0

>  <SCORE.RESTR.CAVITY>
0

>  <SCORE.RESTR.norm>
0

>  <SCORE.SYSTEM>
0

>  <SCORE.SYSTEM.CONST>
0

>  <SCORE.SYSTEM.DIHEDRAL>
0

>  <SCORE.SYSTEM.SOLV>
0

>  <SCORE.SYSTEM.norm>
0

>  <SCORE.heavy>
41

>  <SCORE.norm>
-0.303523

>  <RMSD>
1.464

$$$$
ligand
 OpenBabel11021811423D
libRbt.so/2013.1/901 2013/11/27
 41 45  0  0  0  0  0  0  0  0999 V2000
   34.4009   39.1321    4.8384 C   0  0  2  0  0  0  0  0  0  0  0  0
   34.1334   39.2055    6.2525 O   0  0  0  0  0  0  0  0  0  0  0  0
   33.8572   36.3293    9.5034 C   0  0  2  0  0  0  0  0  0  0  0  0
   33.4746   35.1080   10.2580 N   0  0  0  0  0  0  0  0  0  0  0  0
   37.5890   37.2184    6.6472 C   0  0  1  0  0  0  0  0  0  0  0  0
   41.8476   38.4510    5.1181 C   0  0  1  0  0  0  0  0  0  0  0  0
   35.3208   40.3030    4.3798 C   0  0  2  0  0  0  0  0  0  0  0  0
   36.5623   40.3916    5.1544 N   0  0  0  0  0  0  0  0  0  0  0  0
   32.5627   37.0241    8.9745 C   0  0  0  0  0  0  0  0  0  0  0  0
   38.4453   36.6852    5.4758 C   0  0  2  0  0  0  0  0  0  0  0  0
   39.1727   35.5076    5.8404 O   0  0  0  0  0  0  0  0  0  0  0  0
   43.1845   38.2263    5.9453 C   0  0  2  0  0  0  0  0  0  0  0  0
   43.0762   38.5912    7.3910 N   0  0  0  0  0  0  0  0  0  0  0  0
   34.5524   41.6500    4.4536 C   0  0  1  0  0  0  0  0  0  0  0  0
   35.3886   42.7144    4.0077 O   0  0  0  0  0  0  0  0  0  0  0  0
   32.9026   38.3103    8.1668 C   0  0  2  0  0  0  0  0  0  0  0  0
   31.6323   38.9079    7.7140 N   0  0  0  0  0  0  0  0  0  0  0  0
   39.3616   37.8620    5.0995 C   0  0  2  0  0  0  0  0  0  0  0  0
   40.7012   37.7541    5.7266 O   0  0  0  0  0  0  0  0  0  0  0  0
   44.3803   39.0404    5.2722 C   0  0  1  0  0  0  0  0  0  0  0  0
   44.7214   38.4951    3.9786 O   0  0  0  0  0  0  0  0  0  0  0  0
   33.2704   41.5670    3.5931 C   0  0  2  0  0  0  0  0  0  0  0  0
   32.5749   42.7950    3.6415 O   0  0  0  0  0  0  0  0  0  0  0  0
   33.8622   37.9593    6.9751 C   0  0  2  0  0  0  0  0  0  0  0  0
   38.6061   39.0903    5.5991 C   0  0  2  0  0  0  0  0  0  0  0  0
   37.7599   38.6368    6.6461 O   0  0  0  0  0  0  0  0  0  0  0  0
   44.0353   40.5743    5.1005 C   0  0  2  0  0  0  0  0  0  0  0  0
   43.9421   41.1862    6.3979 O   0  0  0  0  0  0  0  0  0  0  0  0
   32.3721   40.4158    4.0879 C   0  0  2  0  0  0  0  0  0  0  0  0
   33.1545   39.1609    4.0376 O   0  0  0  0  0  0  0  0  0  0  0  0
   35.2061   37.2816    7.5470 C   0  0  2  0  0  0  0  0  0  0  0  0
   36.1564   36.8879    6.4719 O   0  0  0  0  0  0  0  0  0  0  0  0
   37.7284   39.7427    4.5411 C   0  0  0  0  0  0  0  0  0  0  0  0
   42.6745   40.7321    4.3082 C   0  0  1  0  0  0  0  0  0  0  0  0
   41.5712   39.9211    4.9263 O   0  0  0  0  0  0  0  0  0  0  0  0
   31.1055   40.3271    3.2051 C   0  0  0  0  0  0  0  0  0  0  0  0
   30.1526   39.2696    3.5898 N   0  0  0  0  0  0  0  0  0  0  0  0
   34.8439   35.9951    8.3193 C   0  0  1  0  0  0  0  0  0  0  0  0
   36.0381   35.3912    8.8270 O   0  0  0  0  0  0  0  0  0  0  0  0
   42.2238   42.2334    4.1340 C   0  0  0  0  0  0  0  0  0  0  0  0
   41.9434   42.9920    5.3946 N   0  0  0  0  0  0  0  0  0  0  0  0
  1  2  1  1  0  0  0
  1  7  1  0  0  0  0
  1 30  1  0  0  0  0
  3  4  1  6  0  0  0
  3  9  1  0  0  0  0
  3 38  1  0  0  0  0
  5 10  1  0  0  0  0
  5 26  1  6  0  0  0
  5 32  1  0  0  0  0
  6 12  1  0  0  0  0
  6 35  1  0  0  0  0
  6 19  1  1  0  0  0
  7  8  1  1  0  0  0
  7 14  1  0  0  0  0
  8 33  1  0  0  0  0
  9 16  1  0  0  0  0
 10 11  1  1  0  0  0
 10 18  1  0  0  0  0
 12 13  1  1  0  0  0
 12 20  1  0  0  0  0
 14 15  1  6  0  0  0
 14 22  1  0  0  0  0
 16 17  1  6  0  0  0
 16 24  1  0  0  0  0
 18 19  1  1  0  0  0
 18 25  1  0  0  0  0
 20 21  1  6  0  0  0
 20 27  1  0  0  0  0
 22 23  1  1  0  0  0
 22 29  1  0  0  0  0
 24  2  1  1  0  0  0
 24 31  1  0  0  0  0
 25 26  1  1  0  0  0
 25 33  1  0  0  0  0
 27 28  1  1  0  0  0
 27 34  1  0  0  0  0
 29 30  1  0  0  0  0
 29 36  1  6  0  0  0
 31 32  1  6  0  0  0
 31 38  1  0  0  0  0
 34 35  1  0  0  0  0
 34 40  1  1  0  0  0
 36 37  1  0  0  0  0
 38 39  1  1  0  0  0
 40 41  1  0  0  0  0
M  END
>  <CHROM.1>
156.75763817,179.31804996,-179.25291903,-62.11107957,37.25496151,39.00767056
5.78347637,3.03544375,-0.01288197,2.47322602

>  <Name>
ligand

>  <RI>
0

>  <Rbt.Current_Directory>
/home/itssahil/PROJECTS/Mol_Feturizer/New_Systems/rnas/1ZZ5

>  <Rbt.Executable>
rbdock ($Id: //depot/dev/client3/rdock/2013.1/src/exe/rbdock.cxx#4 $)

>  <Rbt.Library>
libRbt.so (2013.1, Build901 2013/11/27)

>  <Rbt.Parameter_File>
/export/apps/rDock/src/rDock_2013.1_src/data/scripts/dock_solv.prm

>  <Rbt.Receptor>
prm/pocket_docking_3.prm

>  <SCORE>
-12.047

>  <SCORE.INTER>
-10.7206

>  <SCORE.INTER.CONST>
1

>  <SCORE.INTER.POLAR>
0

>  <SCORE.INTER.ROT>
4

>  <SCORE.INTER.SOLV>
19.8518

>  <SCORE.INTER.VDW>
-20.031

>  <SCORE.INTER.norm>
-0.261477

>  <SCORE.INTRA>
-1.32649

>  <SCORE.INTRA.DIHEDRAL>
-2.60264

>  <SCORE.INTRA.DIHEDRAL.0>
5.18357

>  <SCORE.INTRA.POLAR>
0

>  <SCORE.INTRA.POLAR.0>
0

>  <SCORE.INTRA.REPUL>
0

>  <SCORE.INTRA.REPUL.0>
0

>  <SCORE.INTRA.SOLV>
0.0308139

>  <SCORE.INTRA.SOLV.lig_0>
-109.973

>  <SCORE.INTRA.VDW>
-0.0405776

>  <SCORE.INTRA.VDW.0>
-1.68646

>  <SCORE.INTRA.norm>
-0.0323534

>  <SCORE.RESTR>
0

>  <SCORE.RESTR.CAVITY>
0

>  <SCORE.RESTR.norm>
0

>  <SCORE.SYSTEM>
0

>  <SCORE.SYSTEM.CONST>
0

>  <SCORE.SYSTEM.DIHEDRAL>
0

>  <SCORE.SYSTEM.SOLV>
0

>  <SCORE.SYSTEM.norm>
0

>  <SCORE.heavy>
41

>  <SCORE.norm>
-0.29383

>  <RMSD>
1.467

$$$$
ligand
 OpenBabel11021811423D
libRbt.so/2013.1/901 2013/11/27
 41 45  0  0  0  0  0  0  0  0999 V2000
   34.2945   38.9989    4.8970 C   0  0  2  0  0  0  0  0  0  0  0  0
   34.0102   39.1179    6.3046 O   0  0  0  0  0  0  0  0  0  0  0  0
   33.6003   36.3384    9.6248 C   0  0  2  0  0  0  0  0  0  0  0  0
   33.1697   35.1498   10.4053 N   0  0  0  0  0  0  0  0  0  0  0  0
   37.3966   37.0366    6.8007 C   0  0  1  0  0  0  0  0  0  0  0  0
   41.6686   38.2578    5.4233 C   0  0  1  0  0  0  0  0  0  0  0  0
   35.2566   40.1285    4.4214 C   0  0  2  0  0  0  0  0  0  0  0  0
   36.4896   40.1993    5.2113 N   0  0  0  0  0  0  0  0  0  0  0  0
   32.3355   37.0584    9.0594 C   0  0  0  0  0  0  0  0  0  0  0  0
   38.2518   36.4466    5.6561 C   0  0  2  0  0  0  0  0  0  0  0  0
   38.9372   35.2572    6.0616 O   0  0  0  0  0  0  0  0  0  0  0  0
   42.9857   38.0056    6.2740 C   0  0  2  0  0  0  0  0  0  0  0  0
   42.8111   38.2117    7.7444 N   0  0  0  0  0  0  0  0  0  0  0  0
   34.5295   41.4999    4.4490 C   0  0  1  0  0  0  0  0  0  0  0  0
   35.4044   42.5260    3.9878 O   0  0  0  0  0  0  0  0  0  0  0  0
   32.7261   38.3117    8.2236 C   0  0  2  0  0  0  0  0  0  0  0  0
   31.4813   38.9360    7.7371 N   0  0  0  0  0  0  0  0  0  0  0  0
   39.2093   37.5843    5.2626 C   0  0  2  0  0  0  0  0  0  0  0  0
   40.5362   37.4519    5.9116 O   0  0  0  0  0  0  0  0  0  0  0  0
   44.1640   38.9369    5.7355 C   0  0  1  0  0  0  0  0  0  0  0  0
   44.5743   38.5457    4.4068 O   0  0  0  0  0  0  0  0  0  0  0  0
   33.2574   41.4336    3.5726 C   0  0  2  0  0  0  0  0  0  0  0  0
   32.5999   42.6834    3.5790 O   0  0  0  0  0  0  0  0  0  0  0  0
   33.6906   37.9001    7.0553 C   0  0  2  0  0  0  0  0  0  0  0  0
   38.4857   38.8480    5.7191 C   0  0  2  0  0  0  0  0  0  0  0  0
   37.6115   38.4485    6.7652 O   0  0  0  0  0  0  0  0  0  0  0  0
   43.7532   40.4640    5.7100 C   0  0  2  0  0  0  0  0  0  0  0  0
   43.5871   40.9317    7.0591 O   0  0  0  0  0  0  0  0  0  0  0  0
   32.3171   40.3241    4.0841 C   0  0  2  0  0  0  0  0  0  0  0  0
   33.0607   39.0448    4.0778 O   0  0  0  0  0  0  0  0  0  0  0  0
   35.0048   37.1967    7.6641 C   0  0  2  0  0  0  0  0  0  0  0  0
   35.9570   36.7458    6.6134 O   0  0  0  0  0  0  0  0  0  0  0  0
   37.6432   39.4989    4.6319 C   0  0  0  0  0  0  0  0  0  0  0  0
   42.4143   40.6450    4.8861 C   0  0  1  0  0  0  0  0  0  0  0  0
   41.3300   39.7265    5.3738 O   0  0  0  0  0  0  0  0  0  0  0  0
   31.0605   40.2511    3.1857 C   0  0  0  0  0  0  0  0  0  0  0  0
   30.0713   39.2321    3.5824 N   0  0  0  0  0  0  0  0  0  0  0  0
   34.5922   35.9428    8.4642 C   0  0  1  0  0  0  0  0  0  0  0  0
   35.7600   35.3161    9.0047 O   0  0  0  0  0  0  0  0  0  0  0  0
   41.8995   42.1354    4.8506 C   0  0  0  0  0  0  0  0  0  0  0  0
   42.8254   43.1422    4.2405 N   0  0  0  0  0  0  0  0  0  0  0  0
  1  2  1  1  0  0  0
  1  7  1  0  0  0  0
  1 30  1  0  0  0  0
  3  4  1  6  0  0  0
  3  9  1  0  0  0  0
  3 38  1  0  0  0  0
  5 10  1  0  0  0  0
  5 26  1  6  0  0  0
  5 32  1  0  0  0  0
  6 12  1  0  0  0  0
  6 35  1  0  0  0  0
  6 19  1  1  0  0  0
  7  8  1  1  0  0  0
  7 14  1  0  0  0  0
  8 33  1  0  0  0  0
  9 16  1  0  0  0  0
 10 11  1  1  0  0  0
 10 18  1  0  0  0  0
 12 13  1  1  0  0  0
 12 20  1  0  0  0  0
 14 15  1  6  0  0  0
 14 22  1  0  0  0  0
 16 17  1  6  0  0  0
 16 24  1  0  0  0  0
 18 19  1  1  0  0  0
 18 25  1  0  0  0  0
 20 21  1  6  0  0  0
 20 27  1  0  0  0  0
 22 23  1  1  0  0  0
 22 29  1  0  0  0  0
 24  2  1  1  0  0  0
 24 31  1  0  0  0  0
 25 26  1  1  0  0  0
 25 33  1  0  0  0  0
 27 28  1  1  0  0  0
 27 34  1  0  0  0  0
 29 30  1  0  0  0  0
 29 36  1  6  0  0  0
 31 32  1  6  0  0  0
 31 38  1  0  0  0  0
 34 35  1  0  0  0  0
 34 40  1  1  0  0  0
 36 37  1  0  0  0  0
 38 39  1  1  0  0  0
 40 41  1  0  0  0  0
M  END
>  <CHROM.1>
165.99084902,178.26095943,-179.37122183,60.18782519,37.11493718,38.88091275
5.93506746,3.05214609,0.00871927,2.45735208

>  <Name>
ligand

>  <RI>
0

>  <Rbt.Current_Directory>
/home/itssahil/PROJECTS/Mol_Feturizer/New_Systems/rnas/1ZZ5

>  <Rbt.Executable>
rbdock ($Id: //depot/dev/client3/rdock/2013.1/src/exe/rbdock.cxx#4 $)

>  <Rbt.Library>
libRbt.so (2013.1, Build901 2013/11/27)

>  <Rbt.Parameter_File>
/export/apps/rDock/src/rDock_2013.1_src/data/scripts/dock_solv.prm

>  <Rbt.Receptor>
prm/pocket_docking_4.prm

>  <SCORE>
-11.3462

>  <SCORE.INTER>
-8.879

>  <SCORE.INTER.CONST>
1

>  <SCORE.INTER.POLAR>
0

>  <SCORE.INTER.ROT>
4

>  <SCORE.INTER.SOLV>
23.5628

>  <SCORE.INTER.VDW>
-20.0403

>  <SCORE.INTER.norm>
-0.216561

>  <SCORE.INTRA>
-2.4672

>  <SCORE.INTRA.DIHEDRAL>
-4.01904

>  <SCORE.INTRA.DIHEDRAL.0>
5.18357

>  <SCORE.INTRA.POLAR>
0

>  <SCORE.INTRA.POLAR.0>
0

>  <SCORE.INTRA.REPUL>
0

>  <SCORE.INTRA.REPUL.0>
0

>  <SCORE.INTRA.SOLV>
-1.14235

>  <SCORE.INTRA.SOLV.lig_0>
-109.973

>  <SCORE.INTRA.VDW>
0.113491

>  <SCORE.INTRA.VDW.0>
-1.68646

>  <SCORE.INTRA.norm>
-0.0601757

>  <SCORE.RESTR>
0

>  <SCORE.RESTR.CAVITY>
0

>  <SCORE.RESTR.norm>
0

>  <SCORE.SYSTEM>
0

>  <SCORE.SYSTEM.CONST>
0

>  <SCORE.SYSTEM.DIHEDRAL>
0

>  <SCORE.SYSTEM.SOLV>
0

>  <SCORE.SYSTEM.norm>
0

>  <SCORE.heavy>
41

>  <SCORE.norm>
-0.276737

>  <RMSD>
1.469

$$$$
ligand
 OpenBabel11021811423D
libRbt.so/2013.1/901 2013/11/27
 41 45  0  0  0  0  0  0  0  0999 V2000
   34.6828   39.1608    4.7417 C   0  0  2  0  0  0  0  0  0  0  0  0
   34.4087   39.1949    6.1560 O   0  0  0  0  0  0  0  0  0  0  0  0
   34.2078   36.2404    9.3416 C   0  0  2  0  0  0  0  0  0  0  0  0
   33.8594   34.9918   10.0676 N   0  0  0  0  0  0  0  0  0  0  0  0
   37.9207   37.3032    6.5203 C   0  0  1  0  0  0  0  0  0  0  0  0
   42.1368   38.7255    5.0579 C   0  0  1  0  0  0  0  0  0  0  0  0
   35.5689   40.3684    4.3126 C   0  0  2  0  0  0  0  0  0  0  0  0
   36.8047   40.4767    5.0938 N   0  0  0  0  0  0  0  0  0  0  0  0
   32.8949   36.9079    8.8231 C   0  0  0  0  0  0  0  0  0  0  0  0
   38.7963   36.8217    5.3409 C   0  0  2  0  0  0  0  0  0  0  0  0
   39.5573   35.6586    5.6822 O   0  0  0  0  0  0  0  0  0  0  0  0
   43.4415   38.6262    5.9579 C   0  0  2  0  0  0  0  0  0  0  0  0
   43.2280   39.0111    7.3866 N   0  0  0  0  0  0  0  0  0  0  0  0
   34.7604   41.6899    4.4130 C   0  0  1  0  0  0  0  0  0  0  0  0
   35.5659   42.7884    3.9940 O   0  0  0  0  0  0  0  0  0  0  0  0
   33.1989   38.2212    8.0453 C   0  0  2  0  0  0  0  0  0  0  0  0
   31.9128   38.7906    7.6008 N   0  0  0  0  0  0  0  0  0  0  0  0
   39.6783   38.0334    4.9942 C   0  0  2  0  0  0  0  0  0  0  0  0
   41.0185   37.9515    5.6239 O   0  0  0  0  0  0  0  0  0  0  0  0
   44.6032   39.5196    5.3270 C   0  0  1  0  0  0  0  0  0  0  0  0
   45.0547   38.9768    4.0667 O   0  0  0  0  0  0  0  0  0  0  0  0
   33.4842   41.5879    3.5460 C   0  0  2  0  0  0  0  0  0  0  0  0
   32.7523   42.7934    3.6187 O   0  0  0  0  0  0  0  0  0  0  0  0
   34.1725   37.9254    6.8499 C   0  0  2  0  0  0  0  0  0  0  0  0
   38.8850   39.2273    5.5177 C   0  0  2  0  0  0  0  0  0  0  0  0
   38.0492   38.7257    6.5511 O   0  0  0  0  0  0  0  0  0  0  0  0
   44.1474   41.0169    5.0997 C   0  0  2  0  0  0  0  0  0  0  0  0
   43.9372   41.6462    6.3749 O   0  0  0  0  0  0  0  0  0  0  0  0
   32.6191   40.3998    4.0118 C   0  0  2  0  0  0  0  0  0  0  0  0
   33.4388   39.1702    3.9369 O   0  0  0  0  0  0  0  0  0  0  0  0
   35.5341   37.2755    7.4120 C   0  0  2  0  0  0  0  0  0  0  0  0
   36.4992   36.9342    6.3322 O   0  0  0  0  0  0  0  0  0  0  0  0
   37.9916   39.8765    4.4709 C   0  0  0  0  0  0  0  0  0  0  0  0
   42.8225   41.0484    4.2349 C   0  0  1  0  0  0  0  0  0  0  0  0
   41.7556   40.1643    4.8156 O   0  0  0  0  0  0  0  0  0  0  0  0
   31.3586   40.2930    3.1222 C   0  0  0  0  0  0  0  0  0  0  0  0
   30.4533   39.1788    3.4585 N   0  0  0  0  0  0  0  0  0  0  0  0
   35.2078   35.9620    8.1543 C   0  0  1  0  0  0  0  0  0  0  0  0
   36.4179   35.3828    8.6533 O   0  0  0  0  0  0  0  0  0  0  0  0
   42.2642   42.5047    4.0004 C   0  0  0  0  0  0  0  0  0  0  0  0
   40.9938   42.6090    3.2139 N   0  0  0  0  0  0  0  0  0  0  0  0
  1  2  1  1  0  0  0
  1  7  1  0  0  0  0
  1 30  1  0  0  0  0
  3  4  1  6  0  0  0
  3  9  1  0  0  0  0
  3 38  1  0  0  0  0
  5 10  1  0  0  0  0
  5 26  1  6  0  0  0
  5 32  1  0  0  0  0
  6 12  1  0  0  0  0
  6 35  1  0  0  0  0
  6 19  1  1  0  0  0
  7  8  1  1  0  0  0
  7 14  1  0  0  0  0
  8 33  1  0  0  0  0
  9 16  1  0  0  0  0
 10 11  1  1  0  0  0
 10 18  1  0  0  0  0
 12 13  1  1  0  0  0
 12 20  1  0  0  0  0
 14 15  1  6  0  0  0
 14 22  1  0  0  0  0
 16 17  1  6  0  0  0
 16 24  1  0  0  0  0
 18 19  1  1  0  0  0
 18 25  1  0  0  0  0
 20 21  1  6  0  0  0
 20 27  1  0  0  0  0
 22 23  1  1  0  0  0
 22 29  1  0  0  0  0
 24  2  1  1  0  0  0
 24 31  1  0  0  0  0
 25 26  1  1  0  0  0
 25 33  1  0  0  0  0
 27 28  1  1  0  0  0
 27 34  1  0  0  0  0
 29 30  1  0  0  0  0
 29 36  1  6  0  0  0
 31 32  1  6  0  0  0
 31 38  1  0  0  0  0
 34 35  1  0  0  0  0
 34 40  1  1  0  0  0
 36 37  1  0  0  0  0
 38 39  1  1  0  0  0
 40 41  1  0  0  0  0
M  END
>  <CHROM.1>
158.47799641,173.94679304,179.28506163,-178.71934715,37.48893771,39.10908832
5.64702716,3.00291112,0.00344610,2.46692543

>  <Name>
ligand

>  <RI>
0

>  <Rbt.Current_Directory>
/home/itssahil/PROJECTS/Mol_Feturizer/New_Systems/rnas/1ZZ5

>  <Rbt.Executable>
rbdock ($Id: //depot/dev/client3/rdock/2013.1/src/exe/rbdock.cxx#4 $)

>  <Rbt.Library>
libRbt.so (2013.1, Build901 2013/11/27)

>  <Rbt.Parameter_File>
/export/apps/rDock/src/rDock_2013.1_src/data/scripts/dock_solv.prm

>  <Rbt.Receptor>
prm/pocket_docking_7.prm

>  <SCORE>
-12.4525

>  <SCORE.INTER>
-10.5001

>  <SCORE.INTER.CONST>
1

>  <SCORE.INTER.POLAR>
0

>  <SCORE.INTER.ROT>
4

>  <SCORE.INTER.SOLV>
25.0774

>  <SCORE.INTER.VDW>
-21.6258

>  <SCORE.INTER.norm>
-0.256099

>  <SCORE.INTRA>
-1.95241

>  <SCORE.INTRA.DIHEDRAL>
-2.74167

>  <SCORE.INTRA.DIHEDRAL.0>
5.18357

>  <SCORE.INTRA.POLAR>
0

>  <SCORE.INTRA.POLAR.0>
0

>  <SCORE.INTRA.REPUL>
0

>  <SCORE.INTRA.REPUL.0>
0

>  <SCORE.INTRA.SOLV>
-1.19866

>  <SCORE.INTRA.SOLV.lig_0>
-109.973

>  <SCORE.INTRA.VDW>
0.0177593

>  <SCORE.INTRA.VDW.0>
-1.68646

>  <SCORE.INTRA.norm>
-0.0476197

>  <SCORE.RESTR>
0

>  <SCORE.RESTR.CAVITY>
0

>  <SCORE.RESTR.norm>
0

>  <SCORE.SYSTEM>
0

>  <SCORE.SYSTEM.CONST>
0

>  <SCORE.SYSTEM.DIHEDRAL>
0

>  <SCORE.SYSTEM.SOLV>
0

>  <SCORE.SYSTEM.norm>
0

>  <SCORE.heavy>
41

>  <SCORE.norm>
-0.303719

>  <RMSD>
1.469

$$$$
ligand
 OpenBabel11021811423D
libRbt.so/2013.1/901 2013/11/27
 41 45  0  0  0  0  0  0  0  0999 V2000
   34.4563   39.1943    4.8267 C   0  0  2  0  0  0  0  0  0  0  0  0
   34.1793   39.2465    6.2398 O   0  0  0  0  0  0  0  0  0  0  0  0
   33.9185   36.3262    9.4525 C   0  0  2  0  0  0  0  0  0  0  0  0
   33.5464   35.0908   10.1892 N   0  0  0  0  0  0  0  0  0  0  0  0
   37.6565   37.2969    6.6312 C   0  0  1  0  0  0  0  0  0  0  0  0
   41.9020   38.6264    5.1631 C   0  0  1  0  0  0  0  0  0  0  0  0
   35.3646   40.3821    4.3886 C   0  0  2  0  0  0  0  0  0  0  0  0
   36.6001   40.4760    5.1720 N   0  0  0  0  0  0  0  0  0  0  0  0
   32.6189   37.0118    8.9243 C   0  0  0  0  0  0  0  0  0  0  0  0
   38.5265   36.7890    5.4585 C   0  0  2  0  0  0  0  0  0  0  0  0
   39.2660   35.6159    5.8128 O   0  0  0  0  0  0  0  0  0  0  0  0
   43.2116   38.4869    6.0506 C   0  0  2  0  0  0  0  0  0  0  0  0
   43.0223   38.8722    7.4825 N   0  0  0  0  0  0  0  0  0  0  0  0
   34.5792   41.7185    4.4745 C   0  0  1  0  0  0  0  0  0  0  0  0
   35.4050   42.7986    4.0473 O   0  0  0  0  0  0  0  0  0  0  0  0
   32.9479   38.3121    8.1350 C   0  0  2  0  0  0  0  0  0  0  0  0
   31.6731   38.8999    7.6818 N   0  0  0  0  0  0  0  0  0  0  0  0
   39.4305   37.9816    5.1028 C   0  0  2  0  0  0  0  0  0  0  0  0
   40.7675   37.8821    5.7369 O   0  0  0  0  0  0  0  0  0  0  0  0
   44.3922   39.3495    5.4120 C   0  0  1  0  0  0  0  0  0  0  0  0
   44.8164   38.7990    4.1455 O   0  0  0  0  0  0  0  0  0  0  0  0
   33.3036   41.6308    3.6051 C   0  0  2  0  0  0  0  0  0  0  0  0
   32.5929   42.8496    3.6646 O   0  0  0  0  0  0  0  0  0  0  0  0
   33.9191   37.9880    6.9450 C   0  0  2  0  0  0  0  0  0  0  0  0
   38.6570   39.1942    5.6131 C   0  0  2  0  0  0  0  0  0  0  0  0
   37.8100   38.7171    6.6490 O   0  0  0  0  0  0  0  0  0  0  0  0
   43.9768   40.8600    5.1942 C   0  0  2  0  0  0  0  0  0  0  0  0
   43.7963   41.4900    6.4736 O   0  0  0  0  0  0  0  0  0  0  0  0
   32.4166   40.4626    4.0797 C   0  0  2  0  0  0  0  0  0  0  0  0
   33.2146   39.2180    4.0185 O   0  0  0  0  0  0  0  0  0  0  0  0
   35.2677   37.3196    7.5167 C   0  0  2  0  0  0  0  0  0  0  0  0
   36.2293   36.9511    6.4427 O   0  0  0  0  0  0  0  0  0  0  0  0
   37.7778   39.8492    4.5579 C   0  0  0  0  0  0  0  0  0  0  0  0
   42.6454   40.9321    4.3420 C   0  0  1  0  0  0  0  0  0  0  0  0
   41.5593   40.0763    4.9295 O   0  0  0  0  0  0  0  0  0  0  0  0
   31.1565   40.3696    3.1879 C   0  0  0  0  0  0  0  0  0  0  0  0
   30.2142   39.2960    3.5536 N   0  0  0  0  0  0  0  0  0  0  0  0
   34.9165   36.0190    8.2704 C   0  0  1  0  0  0  0  0  0  0  0  0
   36.1149   35.4233    8.7780 O   0  0  0  0  0  0  0  0  0  0  0  0
   42.1263   42.4045    4.1179 C   0  0  0  0  0  0  0  0  0  0  0  0
   40.8773   42.5505    3.3042 N   0  0  0  0  0  0  0  0  0  0  0  0
  1  2  1  1  0  0  0
  1  7  1  0  0  0  0
  1 30  1  0  0  0  0
  3  4  1  6  0  0  0
  3  9  1  0  0  0  0
  3 38  1  0  0  0  0
  5 10  1  0  0  0  0
  5 26  1  6  0  0  0
  5 32  1  0  0  0  0
  6 12  1  0  0  0  0
  6 35  1  0  0  0  0
  6 19  1  1  0  0  0
  7  8  1  1  0  0  0
  7 14  1  0  0  0  0
  8 33  1  0  0  0  0
  9 16  1  0  0  0  0
 10 11  1  1  0  0  0
 10 18  1  0  0  0  0
 12 13  1  1  0  0  0
 12 20  1  0  0  0  0
 14 15  1  6  0  0  0
 14 22  1  0  0  0  0
 16 17  1  6  0  0  0
 16 24  1  0  0  0  0
 18 19  1  1  0  0  0
 18 25  1  0  0  0  0
 20 21  1  6  0  0  0
 20 27  1  0  0  0  0
 22 23  1  1  0  0  0
 22 29  1  0  0  0  0
 24  2  1  1  0  0  0
 24 31  1  0  0  0  0
 25 26  1  1  0  0  0
 25 33  1  0  0  0  0
 27 28  1  1  0  0  0
 27 34  1  0  0  0  0
 29 30  1  0  0  0  0
 29 36  1  6  0  0  0
 31 32  1  6  0  0  0
 31 38  1  0  0  0  0
 34 35  1  0  0  0  0
 34 40  1  1  0  0  0
 36 37  1  0  0  0  0
 38 39  1  1  0  0  0
 40 41  1  0  0  0  0
M  END
>  <CHROM.1>
158.21686438,175.23549341,-179.23483883,179.27878675,37.26394187,39.09825191
5.74093988,3.02005383,-0.00685451,2.45869219

>  <Name>
ligand

>  <RI>
0

>  <Rbt.Current_Directory>
/home/itssahil/PROJECTS/Mol_Feturizer/New_Systems/rnas/1ZZ5

>  <Rbt.Executable>
rbdock ($Id: //depot/dev/client3/rdock/2013.1/src/exe/rbdock.cxx#4 $)

>  <Rbt.Library>
libRbt.so (2013.1, Build901 2013/11/27)

>  <Rbt.Parameter_File>
/export/apps/rDock/src/rDock_2013.1_src/data/scripts/dock_solv.prm

>  <Rbt.Receptor>
prm/pocket_docking_6.prm

>  <SCORE>
-12.3168

>  <SCORE.INTER>
-10.3139

>  <SCORE.INTER.CONST>
1

>  <SCORE.INTER.POLAR>
0

>  <SCORE.INTER.ROT>
4

>  <SCORE.INTER.SOLV>
24.197

>  <SCORE.INTER.VDW>
-21.2082

>  <SCORE.INTER.norm>
-0.251557

>  <SCORE.INTRA>
-2.00297

>  <SCORE.INTRA.DIHEDRAL>
-2.76342

>  <SCORE.INTRA.DIHEDRAL.0>
5.18357

>  <SCORE.INTRA.POLAR>
0

>  <SCORE.INTRA.POLAR.0>
0

>  <SCORE.INTRA.REPUL>
0

>  <SCORE.INTRA.REPUL.0>
0

>  <SCORE.INTRA.SOLV>
-1.27506

>  <SCORE.INTRA.SOLV.lig_0>
-109.973

>  <SCORE.INTRA.VDW>
0.0162644

>  <SCORE.INTRA.VDW.0>
-1.68646

>  <SCORE.INTRA.norm>
-0.048853

>  <SCORE.RESTR>
0

>  <SCORE.RESTR.CAVITY>
0

>  <SCORE.RESTR.norm>
0

>  <SCORE.SYSTEM>
0

>  <SCORE.SYSTEM.CONST>
0

>  <SCORE.SYSTEM.DIHEDRAL>
0

>  <SCORE.SYSTEM.SOLV>
0

>  <SCORE.SYSTEM.norm>
0

>  <SCORE.heavy>
41

>  <SCORE.norm>
-0.30041

>  <RMSD>
1.473

$$$$
ligand
 OpenBabel11021811423D
libRbt.so/2013.1/901 2013/11/27
 41 45  0  0  0  0  0  0  0  0999 V2000
   34.4337   39.1694    4.8220 C   0  0  2  0  0  0  0  0  0  0  0  0
   34.1322   39.2449    6.2291 O   0  0  0  0  0  0  0  0  0  0  0  0
   33.8557   36.3833    9.4929 C   0  0  2  0  0  0  0  0  0  0  0  0
   33.4875   35.1574   10.2471 N   0  0  0  0  0  0  0  0  0  0  0  0
   37.6277   37.3503    6.7159 C   0  0  1  0  0  0  0  0  0  0  0  0
   41.8854   38.6884    5.2790 C   0  0  1  0  0  0  0  0  0  0  0  0
   35.3335   40.3607    4.3762 C   0  0  2  0  0  0  0  0  0  0  0  0
   36.5543   40.4863    5.1781 N   0  0  0  0  0  0  0  0  0  0  0  0
   32.5563   37.0411    8.9300 C   0  0  0  0  0  0  0  0  0  0  0  0
   38.5239   36.8318    5.5680 C   0  0  2  0  0  0  0  0  0  0  0  0
   39.2728   35.6758    5.9571 O   0  0  0  0  0  0  0  0  0  0  0  0
   43.1817   38.5879    6.1910 C   0  0  2  0  0  0  0  0  0  0  0  0
   42.9686   39.0246    7.6047 N   0  0  0  0  0  0  0  0  0  0  0  0
   34.5292   41.6878    4.4231 C   0  0  1  0  0  0  0  0  0  0  0  0
   35.3478   42.7706    3.9889 O   0  0  0  0  0  0  0  0  0  0  0  0
   32.8813   38.3304    8.1212 C   0  0  2  0  0  0  0  0  0  0  0  0
   31.6068   38.8921    7.6356 N   0  0  0  0  0  0  0  0  0  0  0  0
   39.4181   38.0295    5.2043 C   0  0  2  0  0  0  0  0  0  0  0  0
   40.7454   37.9603    5.8623 O   0  0  0  0  0  0  0  0  0  0  0  0
   44.3684   39.4321    5.5393 C   0  0  1  0  0  0  0  0  0  0  0  0
   44.8145   38.8375    4.3006 O   0  0  0  0  0  0  0  0  0  0  0  0
   33.2698   41.5662    3.5345 C   0  0  2  0  0  0  0  0  0  0  0  0
   32.5421   42.7762    3.5585 O   0  0  0  0  0  0  0  0  0  0  0  0
   33.8767   37.9967    6.9540 C   0  0  2  0  0  0  0  0  0  0  0  0
   38.6201   39.2411    5.6781 C   0  0  2  0  0  0  0  0  0  0  0  0
   37.7621   38.7725    6.7087 O   0  0  0  0  0  0  0  0  0  0  0  0
   43.9501   40.9316    5.2597 C   0  0  2  0  0  0  0  0  0  0  0  0
   43.7471   41.6073    6.5122 O   0  0  0  0  0  0  0  0  0  0  0  0
   32.3903   40.3955    4.0168 C   0  0  2  0  0  0  0  0  0  0  0  0
   33.2056   39.1608    3.9930 O   0  0  0  0  0  0  0  0  0  0  0  0
   35.2241   37.3576    7.5610 C   0  0  2  0  0  0  0  0  0  0  0  0
   36.2085   36.9817    6.5105 O   0  0  0  0  0  0  0  0  0  0  0  0
   37.7504   39.8638    4.5959 C   0  0  0  0  0  0  0  0  0  0  0  0
   42.6317   40.9660    4.3852 C   0  0  1  0  0  0  0  0  0  0  0  0
   41.5402   40.1271    4.9870 O   0  0  0  0  0  0  0  0  0  0  0  0
   31.1468   40.2684    3.1061 C   0  0  0  0  0  0  0  0  0  0  0  0
   30.1888   41.3852    3.2031 N   0  0  0  0  0  0  0  0  0  0  0  0
   34.8774   36.0671    8.3338 C   0  0  1  0  0  0  0  0  0  0  0  0
   36.0748   35.4975    8.8727 O   0  0  0  0  0  0  0  0  0  0  0  0
   42.1099   42.4266    4.0991 C   0  0  0  0  0  0  0  0  0  0  0  0
   40.8507   42.5353    3.2954 N   0  0  0  0  0  0  0  0  0  0  0  0
  1  2  1  1  0  0  0
  1  7  1  0  0  0  0
  1 30  1  0  0  0  0
  3  4  1  6  0  0  0
  3  9  1  0  0  0  0
  3 38  1  0  0  0  0
  5 10  1  0  0  0  0
  5 26  1  6  0  0  0
  5 32  1  0  0  0  0
  6 12  1  0  0  0  0
  6 35  1  0  0  0  0
  6 19  1  1  0  0  0
  7  8  1  1  0  0  0
  7 14  1  0  0  0  0
  8 33  1  0  0  0  0
  9 16  1  0  0  0  0
 10 11  1  1  0  0  0
 10 18  1  0  0  0  0
 12 13  1  1  0  0  0
 12 20  1  0  0  0  0
 14 15  1  6  0  0  0
 14 22  1  0  0  0  0
 16 17  1  6  0  0  0
 16 24  1  0  0  0  0
 18 19  1  1  0  0  0
 18 25  1  0  0  0  0
 20 21  1  6  0  0  0
 20 27  1  0  0  0  0
 22 23  1  1  0  0  0
 22 29  1  0  0  0  0
 24  2  1  1  0  0  0
 24 31  1  0  0  0  0
 25 26  1  1  0  0  0
 25 33  1  0  0  0  0
 27 28  1  1  0  0  0
 27 34  1  0  0  0  0
 29 30  1  0  0  0  0
 29 36  1  6  0  0  0
 31 32  1  6  0  0  0
 31 38  1  0  0  0  0
 34 35  1  0  0  0  0
 34 40  1  1  0  0  0
 36 37  1  0  0  0  0
 38 39  1  1  0  0  0
 40 41  1  0  0  0  0
M  END
>  <CHROM.1>
157.07822713,175.26065943,-67.55976009,-178.98964432,37.23085281,39.17371775
5.76708338,3.04581453,-0.00258807,2.44329108

>  <Name>
ligand

>  <RI>
0

>  <Rbt.Current_Directory>
/home/itssahil/PROJECTS/Mol_Feturizer/New_Systems/rnas/1ZZ5

>  <Rbt.Executable>
rbdock ($Id: //depot/dev/client3/rdock/2013.1/src/exe/rbdock.cxx#4 $)

>  <Rbt.Library>
libRbt.so (2013.1, Build901 2013/11/27)

>  <Rbt.Parameter_File>
/export/apps/rDock/src/rDock_2013.1_src/data/scripts/dock_solv.prm

>  <Rbt.Receptor>
prm/pocket_docking_5.prm

>  <SCORE>
-11.901

>  <SCORE.INTER>
-10.7755

>  <SCORE.INTER.CONST>
1

>  <SCORE.INTER.POLAR>
0

>  <SCORE.INTER.ROT>
4

>  <SCORE.INTER.SOLV>
23.483

>  <SCORE.INTER.VDW>
-21.278

>  <SCORE.INTER.norm>
-0.262816

>  <SCORE.INTRA>
-1.12558

>  <SCORE.INTRA.DIHEDRAL>
-2.36911

>  <SCORE.INTRA.DIHEDRAL.0>
5.18357

>  <SCORE.INTRA.POLAR>
0

>  <SCORE.INTRA.POLAR.0>
0

>  <SCORE.INTRA.REPUL>
0

>  <SCORE.INTRA.REPUL.0>
0

>  <SCORE.INTRA.SOLV>
-0.0857687

>  <SCORE.INTRA.SOLV.lig_0>
-109.973

>  <SCORE.INTRA.VDW>
0.10186

>  <SCORE.INTRA.VDW.0>
-1.68646

>  <SCORE.INTRA.norm>
-0.0274532

>  <SCORE.RESTR>
0

>  <SCORE.RESTR.CAVITY>
0

>  <SCORE.RESTR.norm>
0

>  <SCORE.SYSTEM>
0

>  <SCORE.SYSTEM.CONST>
0

>  <SCORE.SYSTEM.DIHEDRAL>
0

>  <SCORE.SYSTEM.SOLV>
0

>  <SCORE.SYSTEM.norm>
0

>  <SCORE.heavy>
41

>  <SCORE.norm>
-0.290269

>  <RMSD>
1.478

$$$$
ligand
 OpenBabel11021811423D
libRbt.so/2013.1/901 2013/11/27
 41 45  0  0  0  0  0  0  0  0999 V2000
   34.3872   39.1175    4.8308 C   0  0  2  0  0  0  0  0  0  0  0  0
   34.0715   39.2144    6.2334 O   0  0  0  0  0  0  0  0  0  0  0  0
   33.7239   36.3975    9.5292 C   0  0  2  0  0  0  0  0  0  0  0  0
   33.3322   35.1857   10.2944 N   0  0  0  0  0  0  0  0  0  0  0  0
   37.5375   37.2827    6.7819 C   0  0  1  0  0  0  0  0  0  0  0  0
   41.8314   38.5334    5.3647 C   0  0  1  0  0  0  0  0  0  0  0  0
   35.3066   40.2919    4.3801 C   0  0  2  0  0  0  0  0  0  0  0  0
   36.5202   40.4123    5.1937 N   0  0  0  0  0  0  0  0  0  0  0  0
   32.4389   37.0642    8.9440 C   0  0  0  0  0  0  0  0  0  0  0  0
   38.4395   36.7389    5.6504 C   0  0  2  0  0  0  0  0  0  0  0  0
   39.1696   35.5786    6.0620 O   0  0  0  0  0  0  0  0  0  0  0  0
   43.1378   38.3607    6.2510 C   0  0  2  0  0  0  0  0  0  0  0  0
   42.9680   38.7792    7.6761 N   0  0  0  0  0  0  0  0  0  0  0  0
   34.5186   41.6294    4.4018 C   0  0  1  0  0  0  0  0  0  0  0  0
   35.3554   42.6964    3.9632 O   0  0  0  0  0  0  0  0  0  0  0  0
   32.7889   38.3392    8.1229 C   0  0  2  0  0  0  0  0  0  0  0  0
   31.5268   38.9105    7.6164 N   0  0  0  0  0  0  0  0  0  0  0  0
   39.3525   37.9207    5.2818 C   0  0  2  0  0  0  0  0  0  0  0  0
   40.6716   37.8433    5.9551 O   0  0  0  0  0  0  0  0  0  0  0  0
   44.3480   39.1661    5.5934 C   0  0  1  0  0  0  0  0  0  0  0  0
   44.7469   38.5768    4.3363 O   0  0  0  0  0  0  0  0  0  0  0  0
   33.2674   41.5123    3.5010 C   0  0  2  0  0  0  0  0  0  0  0  0
   32.5548   42.7314    3.5020 O   0  0  0  0  0  0  0  0  0  0  0  0
   33.7925   37.9786    6.9709 C   0  0  2  0  0  0  0  0  0  0  0  0
   38.5647   39.1479    5.7317 C   0  0  2  0  0  0  0  0  0  0  0  0
   37.6898   38.7030    6.7587 O   0  0  0  0  0  0  0  0  0  0  0  0
   43.9893   40.6870    5.3489 C   0  0  2  0  0  0  0  0  0  0  0  0
   43.8370   41.3469    6.6169 O   0  0  0  0  0  0  0  0  0  0  0  0
   32.3682   40.3586    3.9881 C   0  0  2  0  0  0  0  0  0  0  0  0
   33.1681   39.1138    3.9885 O   0  0  0  0  0  0  0  0  0  0  0  0
   35.1252   37.3305    7.6005 C   0  0  2  0  0  0  0  0  0  0  0  0
   36.1161   36.9293    6.5655 O   0  0  0  0  0  0  0  0  0  0  0  0
   37.7146   39.7678    4.6325 C   0  0  0  0  0  0  0  0  0  0  0  0
   42.6587   40.7938    4.4991 C   0  0  1  0  0  0  0  0  0  0  0  0
   41.5430   39.9907    5.1052 O   0  0  0  0  0  0  0  0  0  0  0  0
   31.1331   40.2356    3.0655 C   0  0  0  0  0  0  0  0  0  0  0  0
   30.2130   41.3873    3.1020 N   0  0  0  0  0  0  0  0  0  0  0  0
   34.7540   36.0541    8.3854 C   0  0  1  0  0  0  0  0  0  0  0  0
   35.9383   35.4765    8.9444 O   0  0  0  0  0  0  0  0  0  0  0  0
   42.1949   42.2804    4.2491 C   0  0  0  0  0  0  0  0  0  0  0  0
   40.9108   42.4570    3.4985 N   0  0  0  0  0  0  0  0  0  0  0  0
  1  2  1  1  0  0  0
  1  7  1  0  0  0  0
  1 30  1  0  0  0  0
  3  4  1  6  0  0  0
  3  9  1  0  0  0  0
  3 38  1  0  0  0  0
  5 10  1  0  0  0  0
  5 26  1  6  0  0  0
  5 32  1  0  0  0  0
  6 12  1  0  0  0  0
  6 35  1  0  0  0  0
  6 19  1  1  0  0  0
  7  8  1  1  0  0  0
  7 14  1  0  0  0  0
  8 33  1  0  0  0  0
  9 16  1  0  0  0  0
 10 11  1  1  0  0  0
 10 18  1  0  0  0  0
 12 13  1  1  0  0  0
 12 20  1  0  0  0  0
 14 15  1  6  0  0  0
 14 22  1  0  0  0  0
 16 17  1  6  0  0  0
 16 24  1  0  0  0  0
 18 19  1  1  0  0  0
 18 25  1  0  0  0  0
 20 21  1  6  0  0  0
 20 27  1  0  0  0  0
 22 23  1  1  0  0  0
 22 29  1  0  0  0  0
 24  2  1  1  0  0  0
 24 31  1  0  0  0  0
 25 26  1  1  0  0  0
 25 33  1  0  0  0  0
 27 28  1  1  0  0  0
 27 34  1  0  0  0  0
 29 30  1  0  0  0  0
 29 36  1  6  0  0  0
 31 32  1  6  0  0  0
 31 38  1  0  0  0  0
 34 35  1  0  0  0  0
 34 40  1  1  0  0  0
 36 37  1  0  0  0  0
 38 39  1  1  0  0  0
 40 41  1  0  0  0  0
M  END
>  <CHROM.1>
156.17677593,178.56865713,-65.46121410,-177.59146567,37.18754602,39.08682343
5.80843146,3.06819480,-0.00500030,2.43343785

>  <Name>
ligand

>  <RI>
0

>  <Rbt.Current_Directory>
/home/itssahil/PROJECTS/Mol_Feturizer/New_Systems/rnas/1ZZ5

>  <Rbt.Executable>
rbdock ($Id: //depot/dev/client3/rdock/2013.1/src/exe/rbdock.cxx#4 $)

>  <Rbt.Library>
libRbt.so (2013.1, Build901 2013/11/27)

>  <Rbt.Parameter_File>
/export/apps/rDock/src/rDock_2013.1_src/data/scripts/dock_solv.prm

>  <Rbt.Receptor>
prm/pocket_docking_3.prm

>  <SCORE>
-11.5644

>  <SCORE.INTER>
-10.4575

>  <SCORE.INTER.CONST>
1

>  <SCORE.INTER.POLAR>
0

>  <SCORE.INTER.ROT>
4

>  <SCORE.INTER.SOLV>
22.5373

>  <SCORE.INTER.VDW>
-20.7507

>  <SCORE.INTER.norm>
-0.25506

>  <SCORE.INTRA>
-1.10699

>  <SCORE.INTRA.DIHEDRAL>
-2.39235

>  <SCORE.INTRA.DIHEDRAL.0>
5.18357

>  <SCORE.INTRA.POLAR>
0

>  <SCORE.INTRA.POLAR.0>
0

>  <SCORE.INTRA.REPUL>
0

>  <SCORE.INTRA.REPUL.0>
0

>  <SCORE.INTRA.SOLV>
-0.0717895

>  <SCORE.INTRA.SOLV.lig_0>
-109.973

>  <SCORE.INTRA.VDW>
0.125077

>  <SCORE.INTRA.VDW.0>
-1.68646

>  <SCORE.INTRA.norm>
-0.0269998

>  <SCORE.RESTR>
0

>  <SCORE.RESTR.CAVITY>
0

>  <SCORE.RESTR.norm>
0

>  <SCORE.SYSTEM>
0

>  <SCORE.SYSTEM.CONST>
0

>  <SCORE.SYSTEM.DIHEDRAL>
0

>  <SCORE.SYSTEM.SOLV>
0

>  <SCORE.SYSTEM.norm>
0

>  <SCORE.heavy>
41

>  <SCORE.norm>
-0.28206

>  <RMSD>
1.489

$$$$
ligand
 OpenBabel11021811423D
libRbt.so/2013.1/901 2013/11/27
 41 45  0  0  0  0  0  0  0  0999 V2000
   34.6745   39.1645    4.7276 C   0  0  2  0  0  0  0  0  0  0  0  0
   34.4265   39.1865    6.1469 O   0  0  0  0  0  0  0  0  0  0  0  0
   34.2452   36.1999    9.3037 C   0  0  2  0  0  0  0  0  0  0  0  0
   33.8939   34.9480   10.0224 N   0  0  0  0  0  0  0  0  0  0  0  0
   37.9198   37.2466    6.4268 C   0  0  1  0  0  0  0  0  0  0  0  0
   42.1294   38.6218    4.8957 C   0  0  1  0  0  0  0  0  0  0  0  0
   35.5682   40.3655    4.2954 C   0  0  2  0  0  0  0  0  0  0  0  0
   36.8192   40.4495    5.0551 N   0  0  0  0  0  0  0  0  0  0  0  0
   32.9319   36.8897    8.8164 C   0  0  0  0  0  0  0  0  0  0  0  0
   38.7677   36.7670    5.2264 C   0  0  2  0  0  0  0  0  0  0  0  0
   39.5197   35.5906    5.5413 O   0  0  0  0  0  0  0  0  0  0  0  0
   43.4786   38.4031    5.7044 C   0  0  2  0  0  0  0  0  0  0  0  0
   43.3701   38.7032    7.1649 N   0  0  0  0  0  0  0  0  0  0  0  0
   34.7787   41.6960    4.4249 C   0  0  1  0  0  0  0  0  0  0  0  0
   35.5906   42.7886    4.0031 O   0  0  0  0  0  0  0  0  0  0  0  0
   33.2386   38.2075    8.0473 C   0  0  2  0  0  0  0  0  0  0  0  0
   31.9521   38.7981    7.6325 N   0  0  0  0  0  0  0  0  0  0  0  0
   39.6588   37.9711    4.8768 C   0  0  2  0  0  0  0  0  0  0  0  0
   41.0090   37.8654    5.4811 O   0  0  0  0  0  0  0  0  0  0  0  0
   44.6444   39.2807    5.0591 C   0  0  1  0  0  0  0  0  0  0  0  0
   44.9921   38.8010    3.7415 O   0  0  0  0  0  0  0  0  0  0  0  0
   33.4859   41.6197    3.5802 C   0  0  2  0  0  0  0  0  0  0  0  0
   32.7710   42.8335    3.6792 O   0  0  0  0  0  0  0  0  0  0  0  0
   34.1865   37.9126    6.8313 C   0  0  2  0  0  0  0  0  0  0  0  0
   38.8905   39.1692    5.4275 C   0  0  2  0  0  0  0  0  0  0  0  0
   38.0672   38.6669    6.4706 O   0  0  0  0  0  0  0  0  0  0  0  0
   44.2521   40.8093    4.9547 C   0  0  2  0  0  0  0  0  0  0  0  0
   44.1502   41.3629    6.2774 O   0  0  0  0  0  0  0  0  0  0  0  0
   32.6141   40.4376    4.0488 C   0  0  2  0  0  0  0  0  0  0  0  0
   33.4164   39.1985    3.9457 O   0  0  0  0  0  0  0  0  0  0  0  0
   35.5496   37.2393    7.3614 C   0  0  2  0  0  0  0  0  0  0  0  0
   36.4906   36.8977    6.2606 O   0  0  0  0  0  0  0  0  0  0  0  0
   37.9868   39.8412    4.4042 C   0  0  0  0  0  0  0  0  0  0  0  0
   42.8814   40.9590    4.1781 C   0  0  1  0  0  0  0  0  0  0  0  0
   41.8076   40.0895    4.7680 O   0  0  0  0  0  0  0  0  0  0  0  0
   31.3364   40.3566    3.1813 C   0  0  0  0  0  0  0  0  0  0  0  0
   30.3865   39.2984    3.5713 N   0  0  0  0  0  0  0  0  0  0  0  0
   35.2199   35.9219    8.0953 C   0  0  1  0  0  0  0  0  0  0  0  0
   36.4312   35.3220    8.5659 O   0  0  0  0  0  0  0  0  0  0  0  0
   42.3845   42.4520    4.0704 C   0  0  0  0  0  0  0  0  0  0  0  0
   42.1471   43.1668    5.3650 N   0  0  0  0  0  0  0  0  0  0  0  0
  1  2  1  1  0  0  0
  1  7  1  0  0  0  0
  1 30  1  0  0  0  0
  3  4  1  6  0  0  0
  3  9  1  0  0  0  0
  3 38  1  0  0  0  0
  5 10  1  0  0  0  0
  5 26  1  6  0  0  0
  5 32  1  0  0  0  0
  6 12  1  0  0  0  0
  6 35  1  0  0  0  0
  6 19  1  1  0  0  0
  7  8  1  1  0  0  0
  7 14  1  0  0  0  0
  8 33  1  0  0  0  0
  9 16  1  0  0  0  0
 10 11  1  1  0  0  0
 10 18  1  0  0  0  0
 12 13  1  1  0  0  0
 12 20  1  0  0  0  0
 14 15  1  6  0  0  0
 14 22  1  0  0  0  0
 16 17  1  6  0  0  0
 16 24  1  0  0  0  0
 18 19  1  1  0  0  0
 18 25  1  0  0  0  0
 20 21  1  6  0  0  0
 20 27  1  0  0  0  0
 22 23  1  1  0  0  0
 22 29  1  0  0  0  0
 24  2  1  1  0  0  0
 24 31  1  0  0  0  0
 25 26  1  1  0  0  0
 25 33  1  0  0  0  0
 27 28  1  1  0  0  0
 27 34  1  0  0  0  0
 29 30  1  0  0  0  0
 29 36  1  6  0  0  0
 31 32  1  6  0  0  0
 31 38  1  0  0  0  0
 34 35  1  0  0  0  0
 34 40  1  1  0  0  0
 36 37  1  0  0  0  0
 38 39  1  1  0  0  0
 40 41  1  0  0  0  0
M  END
>  <CHROM.1>
157.92429546,178.61613048,-177.37564138,-59.57197540,37.53700289,39.06771374
5.63921122,3.01291895,-0.00986295,2.50889016

>  <Name>
ligand

>  <RI>
0

>  <Rbt.Current_Directory>
/home/itssahil/PROJECTS/Mol_Feturizer/New_Systems/rnas/1ZZ5

>  <Rbt.Executable>
rbdock ($Id: //depot/dev/client3/rdock/2013.1/src/exe/rbdock.cxx#4 $)

>  <Rbt.Library>
libRbt.so (2013.1, Build901 2013/11/27)

>  <Rbt.Parameter_File>
/export/apps/rDock/src/rDock_2013.1_src/data/scripts/dock_solv.prm

>  <Rbt.Receptor>
prm/pocket_docking_4.prm

>  <SCORE>
-12.0867

>  <SCORE.INTER>
-10.6774

>  <SCORE.INTER.CONST>
1

>  <SCORE.INTER.POLAR>
0

>  <SCORE.INTER.ROT>
4

>  <SCORE.INTER.SOLV>
20.6257

>  <SCORE.INTER.VDW>
-20.2602

>  <SCORE.INTER.norm>
-0.260425

>  <SCORE.INTRA>
-1.40924

>  <SCORE.INTRA.DIHEDRAL>
-2.79407

>  <SCORE.INTRA.DIHEDRAL.0>
5.18357

>  <SCORE.INTRA.POLAR>
0

>  <SCORE.INTRA.POLAR.0>
0

>  <SCORE.INTRA.REPUL>
0

>  <SCORE.INTRA.REPUL.0>
0

>  <SCORE.INTRA.SOLV>
0.0546517

>  <SCORE.INTRA.SOLV.lig_0>
-109.973

>  <SCORE.INTRA.VDW>
-0.0395343

>  <SCORE.INTRA.VDW.0>
-1.68646

>  <SCORE.INTRA.norm>
-0.0343718

>  <SCORE.RESTR>
0

>  <SCORE.RESTR.CAVITY>
0

>  <SCORE.RESTR.norm>
0

>  <SCORE.SYSTEM>
0

>  <SCORE.SYSTEM.CONST>
0

>  <SCORE.SYSTEM.DIHEDRAL>
0

>  <SCORE.SYSTEM.SOLV>
0

>  <SCORE.SYSTEM.norm>
0

>  <SCORE.heavy>
41

>  <SCORE.norm>
-0.294796

>  <RMSD>
1.491

$$$$
ligand
 OpenBabel11021811423D
libRbt.so/2013.1/901 2013/11/27
 41 45  0  0  0  0  0  0  0  0999 V2000
   34.2818   38.9670    4.9186 C   0  0  2  0  0  0  0  0  0  0  0  0
   34.0131   39.0940    6.3286 O   0  0  0  0  0  0  0  0  0  0  0  0
   33.6276   36.3324    9.6667 C   0  0  2  0  0  0  0  0  0  0  0  0
   33.2006   35.1494   10.4575 N   0  0  0  0  0  0  0  0  0  0  0  0
   37.3961   37.0012    6.7986 C   0  0  1  0  0  0  0  0  0  0  0  0
   41.6535   38.2122    5.3820 C   0  0  1  0  0  0  0  0  0  0  0  0
   35.2434   40.0903    4.4272 C   0  0  2  0  0  0  0  0  0  0  0  0
   36.4850   40.1599    5.2034 N   0  0  0  0  0  0  0  0  0  0  0  0
   32.3597   37.0549    9.1113 C   0  0  0  0  0  0  0  0  0  0  0  0
   38.2366   36.4021    5.6478 C   0  0  2  0  0  0  0  0  0  0  0  0
   38.9214   35.2119    6.0518 O   0  0  0  0  0  0  0  0  0  0  0  0
   42.9810   37.9505    6.2135 C   0  0  2  0  0  0  0  0  0  0  0  0
   42.8242   38.1378    7.6883 N   0  0  0  0  0  0  0  0  0  0  0  0
   34.5222   41.4648    4.4559 C   0  0  1  0  0  0  0  0  0  0  0  0
   35.3963   42.4850    3.9802 O   0  0  0  0  0  0  0  0  0  0  0  0
   32.7465   38.3025    8.2651 C   0  0  2  0  0  0  0  0  0  0  0  0
   31.4991   38.9295    7.7889 N   0  0  0  0  0  0  0  0  0  0  0  0
   39.1944   37.5339    5.2385 C   0  0  2  0  0  0  0  0  0  0  0  0
   40.5277   37.3992    5.8738 O   0  0  0  0  0  0  0  0  0  0  0  0
   44.1521   38.8894    5.6725 C   0  0  1  0  0  0  0  0  0  0  0  0
   44.5464   38.5154    4.3341 O   0  0  0  0  0  0  0  0  0  0  0  0
   33.2405   41.3995    3.5935 C   0  0  2  0  0  0  0  0  0  0  0  0
   32.5882   42.6520    3.6007 O   0  0  0  0  0  0  0  0  0  0  0  0
   33.6966   37.8812    7.0887 C   0  0  2  0  0  0  0  0  0  0  0  0
   38.4809   38.8028    5.6965 C   0  0  2  0  0  0  0  0  0  0  0  0
   37.6164   38.4120    6.7539 O   0  0  0  0  0  0  0  0  0  0  0  0
   43.7398   40.4164    5.6712 C   0  0  2  0  0  0  0  0  0  0  0  0
   43.5898   40.8669    7.0280 O   0  0  0  0  0  0  0  0  0  0  0  0
   32.3012   40.2964    4.1205 C   0  0  2  0  0  0  0  0  0  0  0  0
   33.0395   39.0140    4.1124 O   0  0  0  0  0  0  0  0  0  0  0  0
   35.0145   37.1754    7.6868 C   0  0  2  0  0  0  0  0  0  0  0  0
   35.9535   36.7154    6.6281 O   0  0  0  0  0  0  0  0  0  0  0  0
   37.6295   39.4519    4.6152 C   0  0  0  0  0  0  0  0  0  0  0  0
   42.3909   40.6066    4.8660 C   0  0  1  0  0  0  0  0  0  0  0  0
   41.3132   39.6811    5.3552 O   0  0  0  0  0  0  0  0  0  0  0  0
   31.0347   40.2241    3.2360 C   0  0  0  0  0  0  0  0  0  0  0  0
   30.0146   39.2605    3.6887 N   0  0  0  0  0  0  0  0  0  0  0  0
   34.6054   35.9271    8.4974 C   0  0  1  0  0  0  0  0  0  0  0  0
   35.7763   35.2982    9.0284 O   0  0  0  0  0  0  0  0  0  0  0  0
   41.8746   42.0968    4.8555 C   0  0  0  0  0  0  0  0  0  0  0  0
   42.8135   43.1198    4.2938 N   0  0  0  0  0  0  0  0  0  0  0  0
  1  2  1  1  0  0  0
  1  7  1  0  0  0  0
  1 30  1  0  0  0  0
  3  4  1  6  0  0  0
  3  9  1  0  0  0  0
  3 38  1  0  0  0  0
  5 10  1  0  0  0  0
  5 26  1  6  0  0  0
  5 32  1  0  0  0  0
  6 12  1  0  0  0  0
  6 35  1  0  0  0  0
  6 19  1  1  0  0  0
  7  8  1  1  0  0  0
  7 14  1  0  0  0  0
  8 33  1  0  0  0  0
  9 16  1  0  0  0  0
 10 11  1  1  0  0  0
 10 18  1  0  0  0  0
 12 13  1  1  0  0  0
 12 20  1  0  0  0  0
 14 15  1  6  0  0  0
 14 22  1  0  0  0  0
 16 17  1  6  0  0  0
 16 24  1  0  0  0  0
 18 19  1  1  0  0  0
 18 25  1  0  0  0  0
 20 21  1  6  0  0  0
 20 27  1  0  0  0  0
 22 23  1  1  0  0  0
 22 29  1  0  0  0  0
 24  2  1  1  0  0  0
 24 31  1  0  0  0  0
 25 26  1  1  0  0  0
 25 33  1  0  0  0  0
 27 28  1  1  0  0  0
 27 34  1  0  0  0  0
 29 30  1  0  0  0  0
 29 36  1  6  0  0  0
 31 32  1  6  0  0  0
 31 38  1  0  0  0  0
 34 35  1  0  0  0  0
 34 40  1  1  0  0  0
 36 37  1  0  0  0  0
 38 39  1  1  0  0  0
 40 41  1  0  0  0  0
M  END
>  <CHROM.1>
166.86123498,178.55077297,-176.33020315,57.96965197,37.10920586,38.84835412
5.93976668,3.05094680,0.00110933,2.45621415

>  <Name>
ligand

>  <RI>
0

>  <Rbt.Current_Directory>
/home/itssahil/PROJECTS/Mol_Feturizer/New_Systems/rnas/1ZZ5

>  <Rbt.Executable>
rbdock ($Id: //depot/dev/client3/rdock/2013.1/src/exe/rbdock.cxx#4 $)

>  <Rbt.Library>
libRbt.so (2013.1, Build901 2013/11/27)

>  <Rbt.Parameter_File>
/export/apps/rDock/src/rDock_2013.1_src/data/scripts/dock_solv.prm

>  <Rbt.Receptor>
prm/pocket_docking_5.prm

>  <SCORE>
-11.2582

>  <SCORE.INTER>
-8.80611

>  <SCORE.INTER.CONST>
1

>  <SCORE.INTER.POLAR>
0

>  <SCORE.INTER.ROT>
4

>  <SCORE.INTER.SOLV>
23.2543

>  <SCORE.INTER.VDW>
-19.8888

>  <SCORE.INTER.norm>
-0.214783

>  <SCORE.INTRA>
-2.45211

>  <SCORE.INTRA.DIHEDRAL>
-4.06325

>  <SCORE.INTRA.DIHEDRAL.0>
5.18357

>  <SCORE.INTRA.POLAR>
0

>  <SCORE.INTRA.POLAR.0>
0

>  <SCORE.INTRA.REPUL>
0

>  <SCORE.INTRA.REPUL.0>
0

>  <SCORE.INTRA.SOLV>
-1.08453

>  <SCORE.INTRA.SOLV.lig_0>
-109.973

>  <SCORE.INTRA.VDW>
0.121783

>  <SCORE.INTRA.VDW.0>
-1.68646

>  <SCORE.INTRA.norm>
-0.0598075

>  <SCORE.RESTR>
0

>  <SCORE.RESTR.CAVITY>
0

>  <SCORE.RESTR.norm>
0

>  <SCORE.SYSTEM>
0

>  <SCORE.SYSTEM.CONST>
0

>  <SCORE.SYSTEM.DIHEDRAL>
0

>  <SCORE.SYSTEM.SOLV>
0

>  <SCORE.SYSTEM.norm>
0

>  <SCORE.heavy>
41

>  <SCORE.norm>
-0.274591

>  <RMSD>
1.502

$$$$
ligand
 OpenBabel11021811423D
libRbt.so/2013.1/901 2013/11/27
 41 45  0  0  0  0  0  0  0  0999 V2000
   34.7102   39.1219    4.7562 C   0  0  2  0  0  0  0  0  0  0  0  0
   34.4392   39.1597    6.1710 O   0  0  0  0  0  0  0  0  0  0  0  0
   34.3224   36.2253    9.3793 C   0  0  2  0  0  0  0  0  0  0  0  0
   34.0078   34.9738   10.1156 N   0  0  0  0  0  0  0  0  0  0  0  0
   37.9992   37.3607    6.5391 C   0  0  1  0  0  0  0  0  0  0  0  0
   42.1777   38.8662    5.0442 C   0  0  1  0  0  0  0  0  0  0  0  0
   35.5641   40.3484    4.3155 C   0  0  2  0  0  0  0  0  0  0  0  0
   36.7989   40.4940    5.0922 N   0  0  0  0  0  0  0  0  0  0  0  0
   32.9915   36.8553    8.8597 C   0  0  0  0  0  0  0  0  0  0  0  0
   38.8835   36.8927    5.3607 C   0  0  2  0  0  0  0  0  0  0  0  0
   39.6748   35.7519    5.7085 O   0  0  0  0  0  0  0  0  0  0  0  0
   43.4788   38.8312    5.9542 C   0  0  2  0  0  0  0  0  0  0  0  0
   43.2459   39.2557    7.3686 N   0  0  0  0  0  0  0  0  0  0  0  0
   34.7226   41.6497    4.4084 C   0  0  1  0  0  0  0  0  0  0  0  0
   35.4988   42.7650    3.9787 O   0  0  0  0  0  0  0  0  0  0  0  0
   33.2598   38.1699    8.0711 C   0  0  2  0  0  0  0  0  0  0  0  0
   31.9585   38.7032    7.6262 N   0  0  0  0  0  0  0  0  0  0  0  0
   39.7335   38.1237    5.0023 C   0  0  2  0  0  0  0  0  0  0  0  0
   41.0771   38.0807    5.6287 O   0  0  0  0  0  0  0  0  0  0  0  0
   44.6201   39.7351    5.3013 C   0  0  1  0  0  0  0  0  0  0  0  0
   45.0940   39.1646    4.0616 O   0  0  0  0  0  0  0  0  0  0  0  0
   33.4470   41.5087    3.5459 C   0  0  2  0  0  0  0  0  0  0  0  0
   32.6849   42.6957    3.6117 O   0  0  0  0  0  0  0  0  0  0  0  0
   34.2373   37.8899    6.8751 C   0  0  2  0  0  0  0  0  0  0  0  0
   38.9115   39.3010    5.5193 C   0  0  2  0  0  0  0  0  0  0  0  0
   38.0916   38.7862    6.5589 O   0  0  0  0  0  0  0  0  0  0  0  0
   44.1256   41.2115    5.0234 C   0  0  2  0  0  0  0  0  0  0  0  0
   43.8904   41.8753    6.2766 O   0  0  0  0  0  0  0  0  0  0  0  0
   32.6137   40.3026    4.0232 C   0  0  2  0  0  0  0  0  0  0  0  0
   33.4642   39.0936    3.9550 O   0  0  0  0  0  0  0  0  0  0  0  0
   35.6166   37.2791    7.4380 C   0  0  2  0  0  0  0  0  0  0  0  0
   36.5871   36.9542    6.3580 O   0  0  0  0  0  0  0  0  0  0  0  0
   37.9990   39.9194    4.4703 C   0  0  0  0  0  0  0  0  0  0  0  0
   42.8058   41.1793    4.1508 C   0  0  1  0  0  0  0  0  0  0  0  0
   41.7594   40.2857    4.7537 O   0  0  0  0  0  0  0  0  0  0  0  0
   31.3538   40.1571    3.1382 C   0  0  0  0  0  0  0  0  0  0  0  0
   30.3434   41.2161    3.3165 N   0  0  0  0  0  0  0  0  0  0  0  0
   35.3259   35.9634    8.1911 C   0  0  1  0  0  0  0  0  0  0  0  0
   36.5516   35.4189    8.6909 O   0  0  0  0  0  0  0  0  0  0  0  0
   42.2101   42.6117    3.8664 C   0  0  0  0  0  0  0  0  0  0  0  0
   40.8826   42.6521    3.1740 N   0  0  0  0  0  0  0  0  0  0  0  0
  1  2  1  1  0  0  0
  1  7  1  0  0  0  0
  1 30  1  0  0  0  0
  3  4  1  6  0  0  0
  3  9  1  0  0  0  0
  3 38  1  0  0  0  0
  5 10  1  0  0  0  0
  5 26  1  6  0  0  0
  5 32  1  0  0  0  0
  6 12  1  0  0  0  0
  6 35  1  0  0  0  0
  6 19  1  1  0  0  0
  7  8  1  1  0  0  0
  7 14  1  0  0  0  0
  8 33  1  0  0  0  0
  9 16  1  0  0  0  0
 10 11  1  1  0  0  0
 10 18  1  0  0  0  0
 12 13  1  1  0  0  0
 12 20  1  0  0  0  0
 14 15  1  6  0  0  0
 14 22  1  0  0  0  0
 16 17  1  6  0  0  0
 16 24  1  0  0  0  0
 18 19  1  1  0  0  0
 18 25  1  0  0  0  0
 20 21  1  6  0  0  0
 20 27  1  0  0  0  0
 22 23  1  1  0  0  0
 22 29  1  0  0  0  0
 24  2  1  1  0  0  0
 24 31  1  0  0  0  0
 25 26  1  1  0  0  0
 25 33  1  0  0  0  0
 27 28  1  1  0  0  0
 27 34  1  0  0  0  0
 29 30  1  0  0  0  0
 29 36  1  6  0  0  0
 31 32  1  6  0  0  0
 31 38  1  0  0  0  0
 34 35  1  0  0  0  0
 34 40  1  1  0  0  0
 36 37  1  0  0  0  0
 38 39  1  1  0  0  0
 40 41  1  0  0  0  0
M  END
>  <CHROM.1>
157.76378601,172.93657832,-69.71328191,-173.59586167,37.51498581,39.19813273
5.64097240,3.00567022,0.00094999,2.46389479

>  <Name>
ligand

>  <RI>
0

>  <Rbt.Current_Directory>
/home/itssahil/PROJECTS/Mol_Feturizer/New_Systems/rnas/1ZZ5

>  <Rbt.Executable>
rbdock ($Id: //depot/dev/client3/rdock/2013.1/src/exe/rbdock.cxx#4 $)

>  <Rbt.Library>
libRbt.so (2013.1, Build901 2013/11/27)

>  <Rbt.Parameter_File>
/export/apps/rDock/src/rDock_2013.1_src/data/scripts/dock_solv.prm

>  <Rbt.Receptor>
prm/pocket_docking_4.prm

>  <SCORE>
-11.8046

>  <SCORE.INTER>
-10.8509

>  <SCORE.INTER.CONST>
1

>  <SCORE.INTER.POLAR>
0

>  <SCORE.INTER.ROT>
4

>  <SCORE.INTER.SOLV>
24.5344

>  <SCORE.INTER.VDW>
-21.6788

>  <SCORE.INTER.norm>
-0.264657

>  <SCORE.INTRA>
-0.953603

>  <SCORE.INTRA.DIHEDRAL>
-2.10008

>  <SCORE.INTRA.DIHEDRAL.0>
5.18357

>  <SCORE.INTRA.POLAR>
0

>  <SCORE.INTRA.POLAR.0>
0

>  <SCORE.INTRA.REPUL>
0

>  <SCORE.INTRA.REPUL.0>
0

>  <SCORE.INTRA.SOLV>
0.0786528

>  <SCORE.INTRA.SOLV.lig_0>
-109.973

>  <SCORE.INTRA.VDW>
0.0571106

>  <SCORE.INTRA.VDW.0>
-1.68646

>  <SCORE.INTRA.norm>
-0.0232586

>  <SCORE.RESTR>
0

>  <SCORE.RESTR.CAVITY>
0

>  <SCORE.RESTR.norm>
0

>  <SCORE.SYSTEM>
0

>  <SCORE.SYSTEM.CONST>
0

>  <SCORE.SYSTEM.DIHEDRAL>
0

>  <SCORE.SYSTEM.SOLV>
0

>  <SCORE.SYSTEM.norm>
0

>  <SCORE.heavy>
41

>  <SCORE.norm>
-0.287916

>  <RMSD>
1.503

$$$$
ligand
 OpenBabel11021811423D
libRbt.so/2013.1/901 2013/11/27
 41 45  0  0  0  0  0  0  0  0999 V2000
   34.7098   39.1380    4.7540 C   0  0  2  0  0  0  0  0  0  0  0  0
   34.4246   39.1758    6.1660 O   0  0  0  0  0  0  0  0  0  0  0  0
   34.1731   36.2260    9.3524 C   0  0  2  0  0  0  0  0  0  0  0  0
   33.8083   34.9811   10.0766 N   0  0  0  0  0  0  0  0  0  0  0  0
   37.9174   37.2547    6.5602 C   0  0  1  0  0  0  0  0  0  0  0  0
   42.1606   38.6279    5.1214 C   0  0  1  0  0  0  0  0  0  0  0  0
   35.6095   40.3377    4.3310 C   0  0  2  0  0  0  0  0  0  0  0  0
   36.8398   40.4363    5.1220 N   0  0  0  0  0  0  0  0  0  0  0  0
   32.8701   36.9041    8.8228 C   0  0  0  0  0  0  0  0  0  0  0  0
   38.7983   36.7648    5.3882 C   0  0  2  0  0  0  0  0  0  0  0  0
   39.5467   35.5955    5.7366 O   0  0  0  0  0  0  0  0  0  0  0  0
   43.4805   38.4523    5.9868 C   0  0  2  0  0  0  0  0  0  0  0  0
   43.3131   38.7969    7.4318 N   0  0  0  0  0  0  0  0  0  0  0  0
   34.8114   41.6662    4.4238 C   0  0  1  0  0  0  0  0  0  0  0  0
   35.6296   42.7573    4.0103 O   0  0  0  0  0  0  0  0  0  0  0  0
   33.1914   38.2141    8.0463 C   0  0  2  0  0  0  0  0  0  0  0  0
   31.9138   38.7940    7.5910 N   0  0  0  0  0  0  0  0  0  0  0  0
   39.6933   37.9686    5.0476 C   0  0  2  0  0  0  0  0  0  0  0  0
   41.0277   37.8760    5.6882 O   0  0  0  0  0  0  0  0  0  0  0  0
   44.6596   39.3240    5.3580 C   0  0  1  0  0  0  0  0  0  0  0  0
   45.0628   38.8076    4.0706 O   0  0  0  0  0  0  0  0  0  0  0  0
   33.5414   41.5741    3.5466 C   0  0  2  0  0  0  0  0  0  0  0  0
   32.8192   42.7858    3.6124 O   0  0  0  0  0  0  0  0  0  0  0  0
   34.1720   37.9089    6.8590 C   0  0  2  0  0  0  0  0  0  0  0  0
   38.9060   39.1697    5.5637 C   0  0  2  0  0  0  0  0  0  0  0  0
   38.0577   38.6761    6.5908 O   0  0  0  0  0  0  0  0  0  0  0  0
   44.2538   40.8434    5.1901 C   0  0  2  0  0  0  0  0  0  0  0  0
   44.0952   41.4371    6.4896 O   0  0  0  0  0  0  0  0  0  0  0  0
   32.6626   40.3939    4.0065 C   0  0  2  0  0  0  0  0  0  0  0  0
   33.4724   39.1572    3.9392 O   0  0  0  0  0  0  0  0  0  0  0  0
   35.5236   37.2480    7.4326 C   0  0  2  0  0  0  0  0  0  0  0  0
   36.4944   36.8976    6.3609 O   0  0  0  0  0  0  0  0  0  0  0  0
   38.0266   39.8255    4.5092 C   0  0  0  0  0  0  0  0  0  0  0  0
   42.9119   40.9509    4.3581 C   0  0  1  0  0  0  0  0  0  0  0  0
   41.8267   40.0866    4.9348 O   0  0  0  0  0  0  0  0  0  0  0  0
   31.4083   40.2970    3.1069 C   0  0  0  0  0  0  0  0  0  0  0  0
   30.4829   41.4406    3.2057 N   0  0  0  0  0  0  0  0  0  0  0  0
   35.1802   35.9380    8.1734 C   0  0  1  0  0  0  0  0  0  0  0  0
   36.3813   35.3490    8.6826 O   0  0  0  0  0  0  0  0  0  0  0  0
   42.4020   42.4332    4.1841 C   0  0  0  0  0  0  0  0  0  0  0  0
   41.0805   42.6037    3.5001 N   0  0  0  0  0  0  0  0  0  0  0  0
  1  2  1  1  0  0  0
  1  7  1  0  0  0  0
  1 30  1  0  0  0  0
  3  4  1  6  0  0  0
  3  9  1  0  0  0  0
  3 38  1  0  0  0  0
  5 10  1  0  0  0  0
  5 26  1  6  0  0  0
  5 32  1  0  0  0  0
  6 12  1  0  0  0  0
  6 35  1  0  0  0  0
  6 19  1  1  0  0  0
  7  8  1  1  0  0  0
  7 14  1  0  0  0  0
  8 33  1  0  0  0  0
  9 16  1  0  0  0  0
 10 11  1  1  0  0  0
 10 18  1  0  0  0  0
 12 13  1  1  0  0  0
 12 20  1  0  0  0  0
 14 15  1  6  0  0  0
 14 22  1  0  0  0  0
 16 17  1  6  0  0  0
 16 24  1  0  0  0  0
 18 19  1  1  0  0  0
 18 25  1  0  0  0  0
 20 21  1  6  0  0  0
 20 27  1  0  0  0  0
 22 23  1  1  0  0  0
 22 29  1  0  0  0  0
 24  2  1  1  0  0  0
 24 31  1  0  0  0  0
 25 26  1  1  0  0  0
 25 33  1  0  0  0  0
 27 28  1  1  0  0  0
 27 34  1  0  0  0  0
 29 30  1  0  0  0  0
 29 36  1  6  0  0  0
 31 32  1  6  0  0  0
 31 38  1  0  0  0  0
 34 35  1  0  0  0  0
 34 40  1  1  0  0  0
 36 37  1  0  0  0  0
 38 39  1  1  0  0  0
 40 41  1  0  0  0  0
M  END
>  <CHROM.1>
157.78516505,177.29106019,-65.21293220,-175.35093947,37.51977381,39.10676502
5.68170356,3.04720098,-0.01058295,2.47641610

>  <Name>
ligand

>  <RI>
0

>  <Rbt.Current_Directory>
/home/itssahil/PROJECTS/Mol_Feturizer/New_Systems/rnas/1ZZ5

>  <Rbt.Executable>
rbdock ($Id: //depot/dev/client3/rdock/2013.1/src/exe/rbdock.cxx#4 $)

>  <Rbt.Library>
libRbt.so (2013.1, Build901 2013/11/27)

>  <Rbt.Parameter_File>
/export/apps/rDock/src/rDock_2013.1_src/data/scripts/dock_solv.prm

>  <Rbt.Receptor>
prm/pocket_docking_3.prm

>  <SCORE>
-11.6568

>  <SCORE.INTER>
-10.5148

>  <SCORE.INTER.CONST>
1

>  <SCORE.INTER.POLAR>
0

>  <SCORE.INTER.ROT>
4

>  <SCORE.INTER.SOLV>
23.2452

>  <SCORE.INTER.VDW>
-21.0249

>  <SCORE.INTER.norm>
-0.256459

>  <SCORE.INTRA>
-1.14202

>  <SCORE.INTRA.DIHEDRAL>
-2.60554

>  <SCORE.INTRA.DIHEDRAL.0>
5.18357

>  <SCORE.INTRA.POLAR>
0

>  <SCORE.INTRA.POLAR.0>
0

>  <SCORE.INTRA.REPUL>
0

>  <SCORE.INTRA.REPUL.0>
0

>  <SCORE.INTRA.SOLV>
0.0631314

>  <SCORE.INTRA.SOLV.lig_0>
-109.973

>  <SCORE.INTRA.VDW>
0.129186

>  <SCORE.INTRA.VDW.0>
-1.68646

>  <SCORE.INTRA.norm>
-0.0278541

>  <SCORE.RESTR>
0

>  <SCORE.RESTR.CAVITY>
0

>  <SCORE.RESTR.norm>
0

>  <SCORE.SYSTEM>
0

>  <SCORE.SYSTEM.CONST>
0

>  <SCORE.SYSTEM.DIHEDRAL>
0

>  <SCORE.SYSTEM.SOLV>
0

>  <SCORE.SYSTEM.norm>
0

>  <SCORE.heavy>
41

>  <SCORE.norm>
-0.284313

>  <RMSD>
1.504

$$$$
ligand
 OpenBabel11021811423D
libRbt.so/2013.1/901 2013/11/27
 41 45  0  0  0  0  0  0  0  0999 V2000
   34.7095   39.1136    4.7576 C   0  0  2  0  0  0  0  0  0  0  0  0
   34.4445   39.1526    6.1735 O   0  0  0  0  0  0  0  0  0  0  0  0
   34.3407   36.2205    9.3844 C   0  0  2  0  0  0  0  0  0  0  0  0
   34.0291   34.9697   10.1230 N   0  0  0  0  0  0  0  0  0  0  0  0
   38.0057   37.3533    6.5280 C   0  0  1  0  0  0  0  0  0  0  0  0
   42.1802   38.8506    5.0096 C   0  0  1  0  0  0  0  0  0  0  0  0
   35.5618   40.3396    4.3123 C   0  0  2  0  0  0  0  0  0  0  0  0
   36.7998   40.4856    5.0837 N   0  0  0  0  0  0  0  0  0  0  0  0
   33.0078   36.8504    8.8699 C   0  0  0  0  0  0  0  0  0  0  0  0
   38.8850   36.8843    5.3462 C   0  0  2  0  0  0  0  0  0  0  0  0
   39.6776   35.7436    5.6915 O   0  0  0  0  0  0  0  0  0  0  0  0
   43.4938   38.7951    5.9003 C   0  0  2  0  0  0  0  0  0  0  0  0
   43.2858   39.2112    7.3210 N   0  0  0  0  0  0  0  0  0  0  0  0
   34.7208   41.6411    4.4078 C   0  0  1  0  0  0  0  0  0  0  0  0
   35.4953   42.7560    3.9740 O   0  0  0  0  0  0  0  0  0  0  0  0
   33.2729   38.1644    8.0793 C   0  0  2  0  0  0  0  0  0  0  0  0
   31.9698   38.6975    7.6394 N   0  0  0  0  0  0  0  0  0  0  0  0
   39.7336   38.1149    4.9833 C   0  0  2  0  0  0  0  0  0  0  0  0
   41.0798   38.0722    5.6041 O   0  0  0  0  0  0  0  0  0  0  0  0
   44.6349   39.6920    5.2377 C   0  0  1  0  0  0  0  0  0  0  0  0
   45.0849   39.1261    3.9870 O   0  0  0  0  0  0  0  0  0  0  0  0
   33.4416   41.4997    3.5508 C   0  0  2  0  0  0  0  0  0  0  0  0
   32.6799   42.6868    3.6189 O   0  0  0  0  0  0  0  0  0  0  0  0
   34.2453   37.8833    6.8793 C   0  0  2  0  0  0  0  0  0  0  0  0
   38.9140   39.2927    5.5028 C   0  0  2  0  0  0  0  0  0  0  0  0
   38.0984   38.7788    6.5463 O   0  0  0  0  0  0  0  0  0  0  0  0
   44.1521   41.1755    4.9780 C   0  0  2  0  0  0  0  0  0  0  0  0
   43.9420   41.8322    6.2394 O   0  0  0  0  0  0  0  0  0  0  0  0
   32.6101   40.2941    4.0324 C   0  0  2  0  0  0  0  0  0  0  0  0
   33.4601   39.0849    3.9617 O   0  0  0  0  0  0  0  0  0  0  0  0
   35.6269   37.2727    7.4370 C   0  0  2  0  0  0  0  0  0  0  0  0
   36.5928   36.9469    6.3531 O   0  0  0  0  0  0  0  0  0  0  0  0
   37.9972   39.9105    4.4572 C   0  0  0  0  0  0  0  0  0  0  0  0
   42.8196   41.1638    4.1244 C   0  0  1  0  0  0  0  0  0  0  0  0
   41.7726   40.2765    4.7358 O   0  0  0  0  0  0  0  0  0  0  0  0
   31.3465   40.1481    3.1529 C   0  0  0  0  0  0  0  0  0  0  0  0
   30.3871   41.2633    3.2533 N   0  0  0  0  0  0  0  0  0  0  0  0
   35.3392   35.9576    8.1922 C   0  0  1  0  0  0  0  0  0  0  0  0
   36.5669   35.4133    8.6872 O   0  0  0  0  0  0  0  0  0  0  0  0
   42.2349   42.6044    3.8594 C   0  0  0  0  0  0  0  0  0  0  0  0
   40.8945   42.6637    3.1938 N   0  0  0  0  0  0  0  0  0  0  0  0
  1  2  1  1  0  0  0
  1  7  1  0  0  0  0
  1 30  1  0  0  0  0
  3  4  1  6  0  0  0
  3  9  1  0  0  0  0
  3 38  1  0  0  0  0
  5 10  1  0  0  0  0
  5 26  1  6  0  0  0
  5 32  1  0  0  0  0
  6 12  1  0  0  0  0
  6 35  1  0  0  0  0
  6 19  1  1  0  0  0
  7  8  1  1  0  0  0
  7 14  1  0  0  0  0
  8 33  1  0  0  0  0
  9 16  1  0  0  0  0
 10 11  1  1  0  0  0
 10 18  1  0  0  0  0
 12 13  1  1  0  0  0
 12 20  1  0  0  0  0
 14 15  1  6  0  0  0
 14 22  1  0  0  0  0
 16 17  1  6  0  0  0
 16 24  1  0  0  0  0
 18 19  1  1  0  0  0
 18 25  1  0  0  0  0
 20 21  1  6  0  0  0
 20 27  1  0  0  0  0
 22 23  1  1  0  0  0
 22 29  1  0  0  0  0
 24  2  1  1  0  0  0
 24 31  1  0  0  0  0
 25 26  1  1  0  0  0
 25 33  1  0  0  0  0
 27 28  1  1  0  0  0
 27 34  1  0  0  0  0
 29 30  1  0  0  0  0
 29 36  1  6  0  0  0
 31 32  1  6  0  0  0
 31 38  1  0  0  0  0
 34 35  1  0  0  0  0
 34 40  1  1  0  0  0
 36 37  1  0  0  0  0
 38 39  1  1  0  0  0
 40 41  1  0  0  0  0
M  END
>  <CHROM.1>
157.39136611,174.02436834,-64.96902891,-173.25663212,37.52411090,39.18720080
5.62843893,3.00559345,-0.00329615,2.46317903

>  <Name>
ligand

>  <RI>
0

>  <Rbt.Current_Directory>
/home/itssahil/PROJECTS/Mol_Feturizer/New_Systems/rnas/1ZZ5

>  <Rbt.Executable>
rbdock ($Id: //depot/dev/client3/rdock/2013.1/src/exe/rbdock.cxx#4 $)

>  <Rbt.Library>
libRbt.so (2013.1, Build901 2013/11/27)

>  <Rbt.Parameter_File>
/export/apps/rDock/src/rDock_2013.1_src/data/scripts/dock_solv.prm

>  <Rbt.Receptor>
prm/pocket_docking_6.prm

>  <SCORE>
-11.7968

>  <SCORE.INTER>
-10.8356

>  <SCORE.INTER.CONST>
1

>  <SCORE.INTER.POLAR>
0

>  <SCORE.INTER.ROT>
4

>  <SCORE.INTER.SOLV>
24.4261

>  <SCORE.INTER.VDW>
-21.6324

>  <SCORE.INTER.norm>
-0.264283

>  <SCORE.INTRA>
-0.961204

>  <SCORE.INTRA.DIHEDRAL>
-2.33395

>  <SCORE.INTRA.DIHEDRAL.0>
5.18357

>  <SCORE.INTRA.POLAR>
0

>  <SCORE.INTRA.POLAR.0>
0

>  <SCORE.INTRA.REPUL>
0

>  <SCORE.INTRA.REPUL.0>
0

>  <SCORE.INTRA.SOLV>
0.170987

>  <SCORE.INTRA.SOLV.lig_0>
-109.973

>  <SCORE.INTRA.VDW>
0.120276

>  <SCORE.INTRA.VDW.0>
-1.68646

>  <SCORE.INTRA.norm>
-0.023444

>  <SCORE.RESTR>
0

>  <SCORE.RESTR.CAVITY>
0

>  <SCORE.RESTR.norm>
0

>  <SCORE.SYSTEM>
0

>  <SCORE.SYSTEM.CONST>
0

>  <SCORE.SYSTEM.DIHEDRAL>
0

>  <SCORE.SYSTEM.SOLV>
0

>  <SCORE.SYSTEM.norm>
0

>  <SCORE.heavy>
41

>  <SCORE.norm>
-0.287727

>  <RMSD>
1.523

$$$$
ligand
 OpenBabel11021811423D
libRbt.so/2013.1/901 2013/11/27
 41 45  0  0  0  0  0  0  0  0999 V2000
   34.6659   39.1625    4.7440 C   0  0  2  0  0  0  0  0  0  0  0  0
   34.3890   39.1904    6.1579 O   0  0  0  0  0  0  0  0  0  0  0  0
   34.2042   36.2252    9.3346 C   0  0  2  0  0  0  0  0  0  0  0  0
   33.8637   34.9720   10.0563 N   0  0  0  0  0  0  0  0  0  0  0  0
   37.9142   37.3235    6.5230 C   0  0  1  0  0  0  0  0  0  0  0  0
   42.1285   38.7607    5.0567 C   0  0  1  0  0  0  0  0  0  0  0  0
   35.5438   40.3778    4.3200 C   0  0  2  0  0  0  0  0  0  0  0  0
   36.7774   40.4929    5.1037 N   0  0  0  0  0  0  0  0  0  0  0  0
   32.8874   36.8846    8.8157 C   0  0  0  0  0  0  0  0  0  0  0  0
   38.7954   36.8520    5.3437 C   0  0  2  0  0  0  0  0  0  0  0  0
   39.5643   35.6934    5.6830 O   0  0  0  0  0  0  0  0  0  0  0  0
   43.4325   38.6736    5.9590 C   0  0  2  0  0  0  0  0  0  0  0  0
   43.2186   39.0810    7.3814 N   0  0  0  0  0  0  0  0  0  0  0  0
   34.7254   41.6931    4.4229 C   0  0  1  0  0  0  0  0  0  0  0  0
   35.5236   42.7986    4.0085 O   0  0  0  0  0  0  0  0  0  0  0  0
   33.1831   38.2023    8.0422 C   0  0  2  0  0  0  0  0  0  0  0  0
   31.8936   38.7636    7.5971 N   0  0  0  0  0  0  0  0  0  0  0  0
   39.6691   38.0710    5.0021 C   0  0  2  0  0  0  0  0  0  0  0  0
   41.0087   37.9972    5.6340 O   0  0  0  0  0  0  0  0  0  0  0  0
   44.5958   39.5554    5.3150 C   0  0  1  0  0  0  0  0  0  0  0  0
   45.0473   38.9924    4.0636 O   0  0  0  0  0  0  0  0  0  0  0  0
   33.4516   41.5842    3.5533 C   0  0  2  0  0  0  0  0  0  0  0  0
   32.7107   42.7841    3.6282 O   0  0  0  0  0  0  0  0  0  0  0  0
   34.1609   37.9172    6.8477 C   0  0  2  0  0  0  0  0  0  0  0  0
   38.8660   39.2576    5.5277 C   0  0  2  0  0  0  0  0  0  0  0  0
   38.0322   38.7468    6.5582 O   0  0  0  0  0  0  0  0  0  0  0  0
   44.1423   41.0496    5.0641 C   0  0  2  0  0  0  0  0  0  0  0  0
   43.9322   41.6990    6.3292 O   0  0  0  0  0  0  0  0  0  0  0  0
   32.5944   40.3885    4.0141 C   0  0  2  0  0  0  0  0  0  0  0  0
   33.4232   39.1651    3.9370 O   0  0  0  0  0  0  0  0  0  0  0  0
   35.5263   37.2757    7.4103 C   0  0  2  0  0  0  0  0  0  0  0  0
   36.4958   36.9446    6.3312 O   0  0  0  0  0  0  0  0  0  0  0  0
   37.9698   39.9033    4.4812 C   0  0  0  0  0  0  0  0  0  0  0  0
   42.8180   41.0695    4.1980 C   0  0  1  0  0  0  0  0  0  0  0  0
   41.7494   40.1961    4.7917 O   0  0  0  0  0  0  0  0  0  0  0  0
   31.3362   40.2750    3.1220 C   0  0  0  0  0  0  0  0  0  0  0  0
   30.4047   41.4144    3.2135 N   0  0  0  0  0  0  0  0  0  0  0  0
   35.2084   35.9576    8.1482 C   0  0  1  0  0  0  0  0  0  0  0  0
   36.4218   35.3859    8.6477 O   0  0  0  0  0  0  0  0  0  0  0  0
   42.2619   42.5227    3.9405 C   0  0  0  0  0  0  0  0  0  0  0  0
   40.9549   42.6135    3.2147 N   0  0  0  0  0  0  0  0  0  0  0  0
  1  2  1  1  0  0  0
  1  7  1  0  0  0  0
  1 30  1  0  0  0  0
  3  4  1  6  0  0  0
  3  9  1  0  0  0  0
  3 38  1  0  0  0  0
  5 10  1  0  0  0  0
  5 26  1  6  0  0  0
  5 32  1  0  0  0  0
  6 12  1  0  0  0  0
  6 35  1  0  0  0  0
  6 19  1  1  0  0  0
  7  8  1  1  0  0  0
  7 14  1  0  0  0  0
  8 33  1  0  0  0  0
  9 16  1  0  0  0  0
 10 11  1  1  0  0  0
 10 18  1  0  0  0  0
 12 13  1  1  0  0  0
 12 20  1  0  0  0  0
 14 15  1  6  0  0  0
 14 22  1  0  0  0  0
 16 17  1  6  0  0  0
 16 24  1  0  0  0  0
 18 19  1  1  0  0  0
 18 25  1  0  0  0  0
 20 21  1  6  0  0  0
 20 27  1  0  0  0  0
 22 23  1  1  0  0  0
 22 29  1  0  0  0  0
 24  2  1  1  0  0  0
 24 31  1  0  0  0  0
 25 26  1  1  0  0  0
 25 33  1  0  0  0  0
 27 28  1  1  0  0  0
 27 34  1  0  0  0  0
 29 30  1  0  0  0  0
 29 36  1  6  0  0  0
 31 32  1  6  0  0  0
 31 38  1  0  0  0  0
 34 35  1  0  0  0  0
 34 40  1  1  0  0  0
 36 37  1  0  0  0  0
 38 39  1  1  0  0  0
 40 41  1  0  0  0  0
M  END
>  <CHROM.1>
157.30163065,173.95052850,-64.20935606,-175.58816186,37.47448680,39.17544083
5.63734956,3.02449486,-0.00805225,2.47343114

>  <Name>
ligand

>  <RI>
0

>  <Rbt.Current_Directory>
/home/itssahil/PROJECTS/Mol_Feturizer/New_Systems/rnas/1ZZ5

>  <Rbt.Executable>
rbdock ($Id: //depot/dev/client3/rdock/2013.1/src/exe/rbdock.cxx#4 $)

>  <Rbt.Library>
libRbt.so (2013.1, Build901 2013/11/27)

>  <Rbt.Parameter_File>
/export/apps/rDock/src/rDock_2013.1_src/data/scripts/dock_solv.prm

>  <Rbt.Receptor>
prm/pocket_docking_5.prm

>  <SCORE>
-11.8096

>  <SCORE.INTER>
-10.8034

>  <SCORE.INTER.CONST>
1

>  <SCORE.INTER.POLAR>
0

>  <SCORE.INTER.ROT>
4

>  <SCORE.INTER.SOLV>
24.5395

>  <SCORE.INTER.VDW>
-21.6488

>  <SCORE.INTER.norm>
-0.263498

>  <SCORE.INTRA>
-1.00613

>  <SCORE.INTRA.DIHEDRAL>
-2.42396

>  <SCORE.INTRA.DIHEDRAL.0>
5.18357

>  <SCORE.INTRA.POLAR>
0

>  <SCORE.INTRA.POLAR.0>
0

>  <SCORE.INTRA.REPUL>
0

>  <SCORE.INTRA.REPUL.0>
0

>  <SCORE.INTRA.SOLV>
0.10567

>  <SCORE.INTRA.SOLV.lig_0>
-109.973

>  <SCORE.INTRA.VDW>
0.153015

>  <SCORE.INTRA.VDW.0>
-1.68646

>  <SCORE.INTRA.norm>
-0.0245398

>  <SCORE.RESTR>
0

>  <SCORE.RESTR.CAVITY>
0

>  <SCORE.RESTR.norm>
0

>  <SCORE.SYSTEM>
0

>  <SCORE.SYSTEM.CONST>
0

>  <SCORE.SYSTEM.DIHEDRAL>
0

>  <SCORE.SYSTEM.SOLV>
0

>  <SCORE.SYSTEM.norm>
0

>  <SCORE.heavy>
41

>  <SCORE.norm>
-0.288038

>  <RMSD>
1.528

$$$$
ligand
 OpenBabel11021811423D
libRbt.so/2013.1/901 2013/11/27
 41 45  0  0  0  0  0  0  0  0999 V2000
   34.7015   39.1665    4.7534 C   0  0  2  0  0  0  0  0  0  0  0  0
   34.4377   39.1934    6.1698 O   0  0  0  0  0  0  0  0  0  0  0  0
   34.3188   36.2315    9.3526 C   0  0  2  0  0  0  0  0  0  0  0  0
   34.0004   34.9755   10.0795 N   0  0  0  0  0  0  0  0  0  0  0  0
   37.9885   37.3700    6.5044 C   0  0  1  0  0  0  0  0  0  0  0  0
   42.1732   38.8487    4.9909 C   0  0  1  0  0  0  0  0  0  0  0  0
   35.5606   40.3917    4.3192 C   0  0  2  0  0  0  0  0  0  0  0  0
   36.8000   40.5230    5.0910 N   0  0  0  0  0  0  0  0  0  0  0  0
   32.9893   36.8740    8.8452 C   0  0  0  0  0  0  0  0  0  0  0  0
   38.8642   36.9072    5.3176 C   0  0  2  0  0  0  0  0  0  0  0  0
   39.6503   35.7586    5.6514 O   0  0  0  0  0  0  0  0  0  0  0  0
   43.4902   38.7709    5.8751 C   0  0  2  0  0  0  0  0  0  0  0  0
   43.2938   39.1797    7.2996 N   0  0  0  0  0  0  0  0  0  0  0  0
   34.7273   41.6971    4.4277 C   0  0  1  0  0  0  0  0  0  0  0  0
   35.5081   42.8115    4.0040 O   0  0  0  0  0  0  0  0  0  0  0  0
   33.2616   38.1940    8.0669 C   0  0  2  0  0  0  0  0  0  0  0  0
   31.9613   38.7389    7.6331 N   0  0  0  0  0  0  0  0  0  0  0  0
   39.7198   38.1362    4.9659 C   0  0  2  0  0  0  0  0  0  0  0  0
   41.0662   38.0797    5.5852 O   0  0  0  0  0  0  0  0  0  0  0  0
   44.6392   39.6583    5.2133 C   0  0  1  0  0  0  0  0  0  0  0  0
   45.0764   39.0957    3.9567 O   0  0  0  0  0  0  0  0  0  0  0  0
   33.4468   41.5713    3.5703 C   0  0  2  0  0  0  0  0  0  0  0  0
   32.6921   42.7622    3.6503 O   0  0  0  0  0  0  0  0  0  0  0  0
   34.2315   37.9187    6.8636 C   0  0  2  0  0  0  0  0  0  0  0  0
   38.9074   39.3138    5.4972 C   0  0  2  0  0  0  0  0  0  0  0  0
   38.0895   38.7947    6.5363 O   0  0  0  0  0  0  0  0  0  0  0  0
   44.1734   41.1495    4.9661 C   0  0  2  0  0  0  0  0  0  0  0  0
   43.9771   41.7999    6.2329 O   0  0  0  0  0  0  0  0  0  0  0  0
   32.6086   40.3661    4.0411 C   0  0  2  0  0  0  0  0  0  0  0  0
   33.4514   39.1527    3.9581 O   0  0  0  0  0  0  0  0  0  0  0  0
   35.6099   37.2947    7.4144 C   0  0  2  0  0  0  0  0  0  0  0  0
   36.5731   36.9736    6.3267 O   0  0  0  0  0  0  0  0  0  0  0  0
   37.9936   39.9469    4.4582 C   0  0  0  0  0  0  0  0  0  0  0  0
   42.8369   41.1599    4.1187 C   0  0  1  0  0  0  0  0  0  0  0  0
   41.7820   40.2813    4.7288 O   0  0  0  0  0  0  0  0  0  0  0  0
   31.3435   40.2359    3.1611 C   0  0  0  0  0  0  0  0  0  0  0  0
   30.3626   41.3257    3.3177 N   0  0  0  0  0  0  0  0  0  0  0  0
   35.3150   35.9742    8.1573 C   0  0  1  0  0  0  0  0  0  0  0  0
   36.5398   35.4180    8.6461 O   0  0  0  0  0  0  0  0  0  0  0  0
   42.2688   42.6094    3.8664 C   0  0  0  0  0  0  0  0  0  0  0  0
   40.9397   42.6904    3.1806 N   0  0  0  0  0  0  0  0  0  0  0  0
  1  2  1  1  0  0  0
  1  7  1  0  0  0  0
  1 30  1  0  0  0  0
  3  4  1  6  0  0  0
  3  9  1  0  0  0  0
  3 38  1  0  0  0  0
  5 10  1  0  0  0  0
  5 26  1  6  0  0  0
  5 32  1  0  0  0  0
  6 12  1  0  0  0  0
  6 35  1  0  0  0  0
  6 19  1  1  0  0  0
  7  8  1  1  0  0  0
  7 14  1  0  0  0  0
  8 33  1  0  0  0  0
  9 16  1  0  0  0  0
 10 11  1  1  0  0  0
 10 18  1  0  0  0  0
 12 13  1  1  0  0  0
 12 20  1  0  0  0  0
 14 15  1  6  0  0  0
 14 22  1  0  0  0  0
 16 17  1  6  0  0  0
 16 24  1  0  0  0  0
 18 19  1  1  0  0  0
 18 25  1  0  0  0  0
 20 21  1  6  0  0  0
 20 27  1  0  0  0  0
 22 23  1  1  0  0  0
 22 29  1  0  0  0  0
 24  2  1  1  0  0  0
 24 31  1  0  0  0  0
 25 26  1  1  0  0  0
 25 33  1  0  0  0  0
 27 28  1  1  0  0  0
 27 34  1  0  0  0  0
 29 30  1  0  0  0  0
 29 36  1  6  0  0  0
 31 32  1  6  0  0  0
 31 38  1  0  0  0  0
 34 35  1  0  0  0  0
 34 40  1  1  0  0  0
 36 37  1  0  0  0  0
 38 39  1  1  0  0  0
 40 41  1  0  0  0  0
M  END
>  <CHROM.1>
156.89807570,174.42007340,-67.57958890,-174.53744315,37.52016617,39.21052388
5.61932296,3.00937089,-0.00954285,2.47197411

>  <Name>
ligand

>  <RI>
0

>  <Rbt.Current_Directory>
/home/itssahil/PROJECTS/Mol_Feturizer/New_Systems/rnas/1ZZ5

>  <Rbt.Executable>
rbdock ($Id: //depot/dev/client3/rdock/2013.1/src/exe/rbdock.cxx#4 $)

>  <Rbt.Library>
libRbt.so (2013.1, Build901 2013/11/27)

>  <Rbt.Parameter_File>
/export/apps/rDock/src/rDock_2013.1_src/data/scripts/dock_solv.prm

>  <Rbt.Receptor>
prm/pocket_docking_5.prm

>  <SCORE>
-11.8068

>  <SCORE.INTER>
-10.8252

>  <SCORE.INTER.CONST>
1

>  <SCORE.INTER.POLAR>
0

>  <SCORE.INTER.ROT>
4

>  <SCORE.INTER.SOLV>
24.7517

>  <SCORE.INTER.VDW>
-21.734

>  <SCORE.INTER.norm>
-0.264028

>  <SCORE.INTRA>
-0.981589

>  <SCORE.INTRA.DIHEDRAL>
-2.20483

>  <SCORE.INTRA.DIHEDRAL.0>
5.18357

>  <SCORE.INTRA.POLAR>
0

>  <SCORE.INTRA.POLAR.0>
0

>  <SCORE.INTRA.REPUL>
0

>  <SCORE.INTRA.REPUL.0>
0

>  <SCORE.INTRA.SOLV>
0.0464687

>  <SCORE.INTRA.SOLV.lig_0>
-109.973

>  <SCORE.INTRA.VDW>
0.0975938

>  <SCORE.INTRA.VDW.0>
-1.68646

>  <SCORE.INTRA.norm>
-0.0239412

>  <SCORE.RESTR>
0

>  <SCORE.RESTR.CAVITY>
0

>  <SCORE.RESTR.norm>
0

>  <SCORE.SYSTEM>
0

>  <SCORE.SYSTEM.CONST>
0

>  <SCORE.SYSTEM.DIHEDRAL>
0

>  <SCORE.SYSTEM.SOLV>
0

>  <SCORE.SYSTEM.norm>
0

>  <SCORE.heavy>
41

>  <SCORE.norm>
-0.28797

>  <RMSD>
1.536

$$$$
ligand
 OpenBabel11021811423D
libRbt.so/2013.1/901 2013/11/27
 41 45  0  0  0  0  0  0  0  0999 V2000
   34.2255   38.9686    4.9765 C   0  0  2  0  0  0  0  0  0  0  0  0
   33.9710   39.0791    6.3905 O   0  0  0  0  0  0  0  0  0  0  0  0
   33.6234   36.2788    9.7005 C   0  0  2  0  0  0  0  0  0  0  0  0
   33.2061   35.0862   10.4820 N   0  0  0  0  0  0  0  0  0  0  0  0
   37.3616   36.9863    6.8022 C   0  0  1  0  0  0  0  0  0  0  0  0
   41.6023   38.2209    5.3571 C   0  0  1  0  0  0  0  0  0  0  0  0
   35.1804   40.0989    4.4883 C   0  0  2  0  0  0  0  0  0  0  0  0
   36.4298   40.1616    5.2526 N   0  0  0  0  0  0  0  0  0  0  0  0
   32.3489   37.0057    9.1663 C   0  0  0  0  0  0  0  0  0  0  0  0
   38.1912   36.4017    5.6361 C   0  0  2  0  0  0  0  0  0  0  0  0
   38.8818   35.2080    6.0194 O   0  0  0  0  0  0  0  0  0  0  0  0
   42.9533   37.9069    6.1308 C   0  0  2  0  0  0  0  0  0  0  0  0
   42.8481   38.0299    7.6169 N   0  0  0  0  0  0  0  0  0  0  0  0
   34.4575   41.4719    4.5400 C   0  0  1  0  0  0  0  0  0  0  0  0
   35.3253   42.4988    4.0672 O   0  0  0  0  0  0  0  0  0  0  0  0
   32.7252   38.2635    8.3306 C   0  0  2  0  0  0  0  0  0  0  0  0
   31.4721   38.8939    7.8743 N   0  0  0  0  0  0  0  0  0  0  0  0
   39.1432   37.5396    5.2301 C   0  0  2  0  0  0  0  0  0  0  0  0
   40.4831   37.3998    5.8503 O   0  0  0  0  0  0  0  0  0  0  0  0
   44.1178   38.8555    5.5926 C   0  0  1  0  0  0  0  0  0  0  0  0
   44.4625   38.5372    4.2263 O   0  0  0  0  0  0  0  0  0  0  0  0
   33.1672   41.4145    3.6900 C   0  0  2  0  0  0  0  0  0  0  0  0
   32.5132   42.6658    3.7182 O   0  0  0  0  0  0  0  0  0  0  0  0
   33.6640   37.8571    7.1399 C   0  0  2  0  0  0  0  0  0  0  0  0
   38.4325   38.8021    5.7098 C   0  0  2  0  0  0  0  0  0  0  0  0
   37.5794   38.3979    6.7714 O   0  0  0  0  0  0  0  0  0  0  0  0
   43.7257   40.3856    5.6729 C   0  0  2  0  0  0  0  0  0  0  0  0
   43.6269   40.7767    7.0527 O   0  0  0  0  0  0  0  0  0  0  0  0
   32.2350   40.3039    4.2139 C   0  0  2  0  0  0  0  0  0  0  0  0
   32.9750   39.0229    4.1836 O   0  0  0  0  0  0  0  0  0  0  0  0
   34.9889   37.1466    7.7164 C   0  0  2  0  0  0  0  0  0  0  0  0
   35.9177   36.7002    6.6431 O   0  0  0  0  0  0  0  0  0  0  0  0
   37.5692   39.4621    4.6448 C   0  0  0  0  0  0  0  0  0  0  0  0
   42.3533   40.6273    4.9230 C   0  0  1  0  0  0  0  0  0  0  0  0
   41.2806   39.6933    5.4070 O   0  0  0  0  0  0  0  0  0  0  0  0
   30.9596   40.2399    3.3414 C   0  0  0  0  0  0  0  0  0  0  0  0
   31.1950   39.9348    1.9181 N   0  0  0  0  0  0  0  0  0  0  0  0
   34.5898   35.8885    8.5168 C   0  0  1  0  0  0  0  0  0  0  0  0
   35.7670   35.2554    9.0286 O   0  0  0  0  0  0  0  0  0  0  0  0
   41.8565   42.1223    4.9960 C   0  0  0  0  0  0  0  0  0  0  0  0
   42.7938   43.1595    4.4581 N   0  0  0  0  0  0  0  0  0  0  0  0
  1  2  1  1  0  0  0
  1  7  1  0  0  0  0
  1 30  1  0  0  0  0
  3  4  1  6  0  0  0
  3  9  1  0  0  0  0
  3 38  1  0  0  0  0
  5 10  1  0  0  0  0
  5 26  1  6  0  0  0
  5 32  1  0  0  0  0
  6 12  1  0  0  0  0
  6 35  1  0  0  0  0
  6 19  1  1  0  0  0
  7  8  1  1  0  0  0
  7 14  1  0  0  0  0
  8 33  1  0  0  0  0
  9 16  1  0  0  0  0
 10 11  1  1  0  0  0
 10 18  1  0  0  0  0
 12 13  1  1  0  0  0
 12 20  1  0  0  0  0
 14 15  1  6  0  0  0
 14 22  1  0  0  0  0
 16 17  1  6  0  0  0
 16 24  1  0  0  0  0
 18 19  1  1  0  0  0
 18 25  1  0  0  0  0
 20 21  1  6  0  0  0
 20 27  1  0  0  0  0
 22 23  1  1  0  0  0
 22 29  1  0  0  0  0
 24  2  1  1  0  0  0
 24 31  1  0  0  0  0
 25 26  1  1  0  0  0
 25 33  1  0  0  0  0
 27 28  1  1  0  0  0
 27 34  1  0  0  0  0
 29 30  1  0  0  0  0
 29 36  1  6  0  0  0
 31 32  1  6  0  0  0
 31 38  1  0  0  0  0
 34 35  1  0  0  0  0
 34 40  1  1  0  0  0
 36 37  1  0  0  0  0
 38 39  1  1  0  0  0
 40 41  1  0  0  0  0
M  END
>  <CHROM.1>
166.91044457,-179.01946672,60.73321180,57.52942993,37.10100660,38.85242916
5.92923435,3.06002504,0.00259260,2.44197822

>  <Name>
ligand

>  <RI>
0

>  <Rbt.Current_Directory>
/home/itssahil/PROJECTS/Mol_Feturizer/New_Systems/rnas/1ZZ5

>  <Rbt.Executable>
rbdock ($Id: //depot/dev/client3/rdock/2013.1/src/exe/rbdock.cxx#4 $)

>  <Rbt.Library>
libRbt.so (2013.1, Build901 2013/11/27)

>  <Rbt.Parameter_File>
/export/apps/rDock/src/rDock_2013.1_src/data/scripts/dock_solv.prm

>  <Rbt.Receptor>
prm/pocket_docking_5.prm

>  <SCORE>
-10.2161

>  <SCORE.INTER>
-8.37687

>  <SCORE.INTER.CONST>
1

>  <SCORE.INTER.POLAR>
0

>  <SCORE.INTER.ROT>
4

>  <SCORE.INTER.SOLV>
24.134

>  <SCORE.INTER.VDW>
-19.8959

>  <SCORE.INTER.norm>
-0.204314

>  <SCORE.INTRA>
-1.83919

>  <SCORE.INTRA.DIHEDRAL>
-4.11331

>  <SCORE.INTRA.DIHEDRAL.0>
5.18357

>  <SCORE.INTRA.POLAR>
0

>  <SCORE.INTRA.POLAR.0>
0

>  <SCORE.INTRA.REPUL>
0

>  <SCORE.INTRA.REPUL.0>
0

>  <SCORE.INTRA.SOLV>
0.270288

>  <SCORE.INTRA.SOLV.lig_0>
-109.973

>  <SCORE.INTRA.VDW>
0.0823255

>  <SCORE.INTRA.VDW.0>
-1.68646

>  <SCORE.INTRA.norm>
-0.0448582

>  <SCORE.RESTR>
0

>  <SCORE.RESTR.CAVITY>
0

>  <SCORE.RESTR.norm>
0

>  <SCORE.SYSTEM>
0

>  <SCORE.SYSTEM.CONST>
0

>  <SCORE.SYSTEM.DIHEDRAL>
0

>  <SCORE.SYSTEM.SOLV>
0

>  <SCORE.SYSTEM.norm>
0

>  <SCORE.heavy>
41

>  <SCORE.norm>
-0.249172

>  <RMSD>
1.540

$$$$
ligand
 OpenBabel11021811423D
libRbt.so/2013.1/901 2013/11/27
 41 45  0  0  0  0  0  0  0  0999 V2000
   34.2835   39.0175    4.9321 C   0  0  2  0  0  0  0  0  0  0  0  0
   34.0238   39.1126    6.3463 O   0  0  0  0  0  0  0  0  0  0  0  0
   33.6366   36.2748    9.6196 C   0  0  2  0  0  0  0  0  0  0  0  0
   33.2052   35.0764   10.3844 N   0  0  0  0  0  0  0  0  0  0  0  0
   37.3937   36.9845    6.7464 C   0  0  1  0  0  0  0  0  0  0  0  0
   41.6516   38.1986    5.3350 C   0  0  1  0  0  0  0  0  0  0  0  0
   35.2506   40.1451    4.4620 C   0  0  2  0  0  0  0  0  0  0  0  0
   36.4971   40.1870    5.2325 N   0  0  0  0  0  0  0  0  0  0  0  0
   32.3710   37.0197    9.0890 C   0  0  0  0  0  0  0  0  0  0  0  0
   38.2232   36.4070    5.5767 C   0  0  2  0  0  0  0  0  0  0  0  0
   38.9014   35.2025    5.9482 O   0  0  0  0  0  0  0  0  0  0  0  0
   42.9843   37.9001    6.1456 C   0  0  2  0  0  0  0  0  0  0  0  0
   42.8429   38.0448    7.6268 N   0  0  0  0  0  0  0  0  0  0  0  0
   34.5399   41.5238    4.5278 C   0  0  1  0  0  0  0  0  0  0  0  0
   35.4188   42.5486    4.0715 O   0  0  0  0  0  0  0  0  0  0  0  0
   32.7622   38.2843    8.2707 C   0  0  2  0  0  0  0  0  0  0  0  0
   31.5168   38.9316    7.8169 N   0  0  0  0  0  0  0  0  0  0  0  0
   39.1871   37.5413    5.1890 C   0  0  2  0  0  0  0  0  0  0  0  0
   40.5229   37.3816    5.8132 O   0  0  0  0  0  0  0  0  0  0  0  0
   44.1591   38.8440    5.6217 C   0  0  1  0  0  0  0  0  0  0  0  0
   44.5375   38.5065    4.2690 O   0  0  0  0  0  0  0  0  0  0  0  0
   33.2528   41.4885    3.6715 C   0  0  2  0  0  0  0  0  0  0  0  0
   32.6099   42.7452    3.7125 O   0  0  0  0  0  0  0  0  0  0  0  0
   33.7026   37.8843    7.0790 C   0  0  2  0  0  0  0  0  0  0  0  0
   38.4856   38.8040    5.6814 C   0  0  2  0  0  0  0  0  0  0  0  0
   37.6242   38.3944    6.7341 O   0  0  0  0  0  0  0  0  0  0  0  0
   43.7612   40.3740    5.6697 C   0  0  2  0  0  0  0  0  0  0  0  0
   43.6280   40.7853    7.0407 O   0  0  0  0  0  0  0  0  0  0  0  0
   32.3084   40.3800    4.1775 C   0  0  2  0  0  0  0  0  0  0  0  0
   33.0371   39.0928    4.1345 O   0  0  0  0  0  0  0  0  0  0  0  0
   35.0185   37.1548    7.6523 C   0  0  2  0  0  0  0  0  0  0  0  0
   35.9480   36.7134    6.5776 O   0  0  0  0  0  0  0  0  0  0  0  0
   37.6329   39.4850    4.6209 C   0  0  0  0  0  0  0  0  0  0  0  0
   42.4067   40.6005    4.8834 C   0  0  1  0  0  0  0  0  0  0  0  0
   41.3250   39.6707    5.3552 O   0  0  0  0  0  0  0  0  0  0  0  0
   31.0364   40.3382    3.2989 C   0  0  0  0  0  0  0  0  0  0  0  0
   31.2685   39.9867    1.8858 N   0  0  0  0  0  0  0  0  0  0  0  0
   34.6046   35.8905    8.4353 C   0  0  1  0  0  0  0  0  0  0  0  0
   35.7739   35.2406    8.9443 O   0  0  0  0  0  0  0  0  0  0  0  0
   41.9045   42.0951    4.9221 C   0  0  0  0  0  0  0  0  0  0  0  0
   42.8406   43.1237    4.3664 N   0  0  0  0  0  0  0  0  0  0  0  0
  1  2  1  1  0  0  0
  1  7  1  0  0  0  0
  1 30  1  0  0  0  0
  3  4  1  6  0  0  0
  3  9  1  0  0  0  0
  3 38  1  0  0  0  0
  5 10  1  0  0  0  0
  5 26  1  6  0  0  0
  5 32  1  0  0  0  0
  6 12  1  0  0  0  0
  6 35  1  0  0  0  0
  6 19  1  1  0  0  0
  7  8  1  1  0  0  0
  7 14  1  0  0  0  0
  8 33  1  0  0  0  0
  9 16  1  0  0  0  0
 10 11  1  1  0  0  0
 10 18  1  0  0  0  0
 12 13  1  1  0  0  0
 12 20  1  0  0  0  0
 14 15  1  6  0  0  0
 14 22  1  0  0  0  0
 16 17  1  6  0  0  0
 16 24  1  0  0  0  0
 18 19  1  1  0  0  0
 18 25  1  0  0  0  0
 20 21  1  6  0  0  0
 20 27  1  0  0  0  0
 22 23  1  1  0  0  0
 22 29  1  0  0  0  0
 24  2  1  1  0  0  0
 24 31  1  0  0  0  0
 25 26  1  1  0  0  0
 25 33  1  0  0  0  0
 27 28  1  1  0  0  0
 27 34  1  0  0  0  0
 29 30  1  0  0  0  0
 29 36  1  6  0  0  0
 31 32  1  6  0  0  0
 31 38  1  0  0  0  0
 34 35  1  0  0  0  0
 34 40  1  1  0  0  0
 36 37  1  0  0  0  0
 38 39  1  1  0  0  0
 40 41  1  0  0  0  0
M  END
>  <CHROM.1>
166.90536478,178.93857708,63.46168658,58.71484172,37.14687602,38.86774996
5.89009649,3.06514188,0.00019485,2.45246391

>  <Name>
ligand

>  <RI>
0

>  <Rbt.Current_Directory>
/home/itssahil/PROJECTS/Mol_Feturizer/New_Systems/rnas/1ZZ5

>  <Rbt.Executable>
rbdock ($Id: //depot/dev/client3/rdock/2013.1/src/exe/rbdock.cxx#4 $)

>  <Rbt.Library>
libRbt.so (2013.1, Build901 2013/11/27)

>  <Rbt.Parameter_File>
/export/apps/rDock/src/rDock_2013.1_src/data/scripts/dock_solv.prm

>  <Rbt.Receptor>
prm/pocket_docking_7.prm

>  <SCORE>
-10.2658

>  <SCORE.INTER>
-8.415

>  <SCORE.INTER.CONST>
1

>  <SCORE.INTER.POLAR>
0

>  <SCORE.INTER.ROT>
4

>  <SCORE.INTER.SOLV>
24.8392

>  <SCORE.INTER.VDW>
-20.1564

>  <SCORE.INTER.norm>
-0.205244

>  <SCORE.INTRA>
-1.85078

>  <SCORE.INTRA.DIHEDRAL>
-4.08859

>  <SCORE.INTRA.DIHEDRAL.0>
5.18357

>  <SCORE.INTRA.POLAR>
0

>  <SCORE.INTRA.POLAR.0>
0

>  <SCORE.INTRA.REPUL>
0

>  <SCORE.INTRA.REPUL.0>
0

>  <SCORE.INTRA.SOLV>
0.223144

>  <SCORE.INTRA.SOLV.lig_0>
-109.973

>  <SCORE.INTRA.VDW>
0.0819385

>  <SCORE.INTRA.VDW.0>
-1.68646

>  <SCORE.INTRA.norm>
-0.0451411

>  <SCORE.RESTR>
0

>  <SCORE.RESTR.CAVITY>
0

>  <SCORE.RESTR.norm>
0

>  <SCORE.SYSTEM>
0

>  <SCORE.SYSTEM.CONST>
0

>  <SCORE.SYSTEM.DIHEDRAL>
0

>  <SCORE.SYSTEM.SOLV>
0

>  <SCORE.SYSTEM.norm>
0

>  <SCORE.heavy>
41

>  <SCORE.norm>
-0.250385

>  <RMSD>
1.543

$$$$
ligand
 OpenBabel11021811423D
libRbt.so/2013.1/901 2013/11/27
 41 45  0  0  0  0  0  0  0  0999 V2000
   34.3198   39.0251    4.8823 C   0  0  2  0  0  0  0  0  0  0  0  0
   34.0339   39.1391    6.2901 O   0  0  0  0  0  0  0  0  0  0  0  0
   33.6423   36.3499    9.6044 C   0  0  2  0  0  0  0  0  0  0  0  0
   33.2199   35.1566   10.3822 N   0  0  0  0  0  0  0  0  0  0  0  0
   37.4349   37.0813    6.7837 C   0  0  1  0  0  0  0  0  0  0  0  0
   41.7034   38.3218    5.3985 C   0  0  1  0  0  0  0  0  0  0  0  0
   35.2740   40.1625    4.4096 C   0  0  2  0  0  0  0  0  0  0  0  0
   36.5060   40.2406    5.2003 N   0  0  0  0  0  0  0  0  0  0  0  0
   32.3726   37.0620    9.0398 C   0  0  0  0  0  0  0  0  0  0  0  0
   38.2949   36.4997    5.6383 C   0  0  2  0  0  0  0  0  0  0  0  0
   38.9886   35.3145    6.0417 O   0  0  0  0  0  0  0  0  0  0  0  0
   43.0307   38.0526    6.2280 C   0  0  2  0  0  0  0  0  0  0  0  0
   42.8792   38.2484    7.7023 N   0  0  0  0  0  0  0  0  0  0  0  0
   34.5370   41.5287    4.4397 C   0  0  1  0  0  0  0  0  0  0  0  0
   35.4047   42.5619    3.9810 O   0  0  0  0  0  0  0  0  0  0  0  0
   32.7547   38.3198    8.2067 C   0  0  2  0  0  0  0  0  0  0  0  0
   31.5057   38.9361    7.7208 N   0  0  0  0  0  0  0  0  0  0  0  0
   39.2444   37.6451    5.2476 C   0  0  2  0  0  0  0  0  0  0  0  0
   40.5719   37.5209    5.8970 O   0  0  0  0  0  0  0  0  0  0  0  0
   44.2085   38.9787    5.6796 C   0  0  1  0  0  0  0  0  0  0  0  0
   44.5963   38.5948    4.3421 O   0  0  0  0  0  0  0  0  0  0  0  0
   33.2658   41.4550    3.5625 C   0  0  2  0  0  0  0  0  0  0  0  0
   32.5993   42.7000    3.5711 O   0  0  0  0  0  0  0  0  0  0  0  0
   33.7227   37.9175    7.0381 C   0  0  2  0  0  0  0  0  0  0  0  0
   38.5115   38.9027    5.7064 C   0  0  2  0  0  0  0  0  0  0  0  0
   37.6397   38.4947    6.7512 O   0  0  0  0  0  0  0  0  0  0  0  0
   43.8095   40.5092    5.6719 C   0  0  2  0  0  0  0  0  0  0  0  0
   43.6667   40.9675    7.0269 O   0  0  0  0  0  0  0  0  0  0  0  0
   32.3333   40.3377    4.0712 C   0  0  2  0  0  0  0  0  0  0  0  0
   33.0861   39.0638    4.0626 O   0  0  0  0  0  0  0  0  0  0  0  0
   35.0416   37.2224    7.6461 C   0  0  2  0  0  0  0  0  0  0  0  0
   35.9975   36.7804    6.5950 O   0  0  0  0  0  0  0  0  0  0  0  0
   37.6649   39.5497    4.6201 C   0  0  0  0  0  0  0  0  0  0  0  0
   42.4602   40.7072    4.8690 C   0  0  1  0  0  0  0  0  0  0  0  0
   41.3758   39.7934    5.3654 O   0  0  0  0  0  0  0  0  0  0  0  0
   31.0776   40.2575    3.1720 C   0  0  0  0  0  0  0  0  0  0  0  0
   30.1860   41.4297    3.2437 N   0  0  0  0  0  0  0  0  0  0  0  0
   34.6376   35.9639    8.4434 C   0  0  1  0  0  0  0  0  0  0  0  0
   35.8096   35.3445    8.9832 O   0  0  0  0  0  0  0  0  0  0  0  0
   41.9569   42.2018    4.8525 C   0  0  0  0  0  0  0  0  0  0  0  0
   40.6869   42.4654    4.1035 N   0  0  0  0  0  0  0  0  0  0  0  0
  1  2  1  1  0  0  0
  1  7  1  0  0  0  0
  1 30  1  0  0  0  0
  3  4  1  6  0  0  0
  3  9  1  0  0  0  0
  3 38  1  0  0  0  0
  5 10  1  0  0  0  0
  5 26  1  6  0  0  0
  5 32  1  0  0  0  0
  6 12  1  0  0  0  0
  6 35  1  0  0  0  0
  6 19  1  1  0  0  0
  7  8  1  1  0  0  0
  7 14  1  0  0  0  0
  8 33  1  0  0  0  0
  9 16  1  0  0  0  0
 10 11  1  1  0  0  0
 10 18  1  0  0  0  0
 12 13  1  1  0  0  0
 12 20  1  0  0  0  0
 14 15  1  6  0  0  0
 14 22  1  0  0  0  0
 16 17  1  6  0  0  0
 16 24  1  0  0  0  0
 18 19  1  1  0  0  0
 18 25  1  0  0  0  0
 20 21  1  6  0  0  0
 20 27  1  0  0  0  0
 22 23  1  1  0  0  0
 22 29  1  0  0  0  0
 24  2  1  1  0  0  0
 24 31  1  0  0  0  0
 25 26  1  1  0  0  0
 25 33  1  0  0  0  0
 27 28  1  1  0  0  0
 27 34  1  0  0  0  0
 29 30  1  0  0  0  0
 29 36  1  6  0  0  0
 31 32  1  6  0  0  0
 31 38  1  0  0  0  0
 34 35  1  0  0  0  0
 34 40  1  1  0  0  0
 36 37  1  0  0  0  0
 38 39  1  1  0  0  0
 40 41  1  0  0  0  0
M  END
>  <CHROM.1>
165.11946615,179.70458826,-66.80851456,179.68798566,37.09830356,38.95136358
5.90480452,3.09669352,-0.00888622,2.45314634

>  <Name>
ligand

>  <RI>
0

>  <Rbt.Current_Directory>
/home/itssahil/PROJECTS/Mol_Feturizer/New_Systems/rnas/1ZZ5

>  <Rbt.Executable>
rbdock ($Id: //depot/dev/client3/rdock/2013.1/src/exe/rbdock.cxx#4 $)

>  <Rbt.Library>
libRbt.so (2013.1, Build901 2013/11/27)

>  <Rbt.Parameter_File>
/export/apps/rDock/src/rDock_2013.1_src/data/scripts/dock_solv.prm

>  <Rbt.Receptor>
prm/pocket_docking_5.prm

>  <SCORE>
-11.1129

>  <SCORE.INTER>
-9.42139

>  <SCORE.INTER.CONST>
1

>  <SCORE.INTER.POLAR>
0

>  <SCORE.INTER.ROT>
4

>  <SCORE.INTER.SOLV>
21.3448

>  <SCORE.INTER.VDW>
-19.6625

>  <SCORE.INTER.norm>
-0.22979

>  <SCORE.INTRA>
-1.69152

>  <SCORE.INTRA.DIHEDRAL>
-3.75594

>  <SCORE.INTRA.DIHEDRAL.0>
5.18357

>  <SCORE.INTRA.POLAR>
0

>  <SCORE.INTRA.POLAR.0>
0

>  <SCORE.INTRA.REPUL>
0

>  <SCORE.INTRA.REPUL.0>
0

>  <SCORE.INTRA.SOLV>
0.0608958

>  <SCORE.INTRA.SOLV.lig_0>
-109.973

>  <SCORE.INTRA.VDW>
0.156008

>  <SCORE.INTRA.VDW.0>
-1.68646

>  <SCORE.INTRA.norm>
-0.0412565

>  <SCORE.RESTR>
0

>  <SCORE.RESTR.CAVITY>
0

>  <SCORE.RESTR.norm>
0

>  <SCORE.SYSTEM>
0

>  <SCORE.SYSTEM.CONST>
0

>  <SCORE.SYSTEM.DIHEDRAL>
0

>  <SCORE.SYSTEM.SOLV>
0

>  <SCORE.SYSTEM.norm>
0

>  <SCORE.heavy>
41

>  <SCORE.norm>
-0.271046

>  <RMSD>
1.548

$$$$
ligand
 OpenBabel11021811423D
libRbt.so/2013.1/901 2013/11/27
 41 45  0  0  0  0  0  0  0  0999 V2000
   34.3266   39.0695    4.8356 C   0  0  2  0  0  0  0  0  0  0  0  0
   34.0474   39.1712    6.2457 O   0  0  0  0  0  0  0  0  0  0  0  0
   33.7388   36.3598    9.5500 C   0  0  2  0  0  0  0  0  0  0  0  0
   33.3478   35.1542   10.3252 N   0  0  0  0  0  0  0  0  0  0  0  0
   37.4960   37.1867    6.7084 C   0  0  1  0  0  0  0  0  0  0  0  0
   41.7758   38.3551    5.1739 C   0  0  1  0  0  0  0  0  0  0  0  0
   35.2524   40.2297    4.3619 C   0  0  2  0  0  0  0  0  0  0  0  0
   36.4875   40.3316    5.1450 N   0  0  0  0  0  0  0  0  0  0  0  0
   32.4501   37.0461    8.9967 C   0  0  0  0  0  0  0  0  0  0  0  0
   38.3612   36.6291    5.5550 C   0  0  2  0  0  0  0  0  0  0  0  0
   39.0834   35.4578    5.9487 O   0  0  0  0  0  0  0  0  0  0  0  0
   43.0715   38.2745    6.0887 C   0  0  2  0  0  0  0  0  0  0  0  0
   42.8757   38.8061    7.4722 N   0  0  0  0  0  0  0  0  0  0  0  0
   34.4857   41.5791    4.4027 C   0  0  1  0  0  0  0  0  0  0  0  0
   35.3275   42.6332    3.9430 O   0  0  0  0  0  0  0  0  0  0  0  0
   32.7990   38.3156    8.1668 C   0  0  2  0  0  0  0  0  0  0  0  0
   31.5336   38.9063    7.6916 N   0  0  0  0  0  0  0  0  0  0  0  0
   39.2827   37.7969    5.1634 C   0  0  2  0  0  0  0  0  0  0  0  0
   40.6168   37.6992    5.8037 O   0  0  0  0  0  0  0  0  0  0  0  0
   44.2803   39.0404    5.3832 C   0  0  1  0  0  0  0  0  0  0  0  0
   44.7049   38.3556    4.1842 O   0  0  0  0  0  0  0  0  0  0  0  0
   33.2108   41.4813    3.5333 C   0  0  2  0  0  0  0  0  0  0  0  0
   32.5172   42.7112    3.5517 O   0  0  0  0  0  0  0  0  0  0  0  0
   33.7680   37.9398    6.9903 C   0  0  2  0  0  0  0  0  0  0  0  0
   38.5252   39.0360    5.6323 C   0  0  2  0  0  0  0  0  0  0  0  0
   37.6694   38.6045    6.6809 O   0  0  0  0  0  0  0  0  0  0  0  0
   43.9051   40.5308    5.0096 C   0  0  2  0  0  0  0  0  0  0  0  0
   43.7259   41.2903    6.2168 O   0  0  0  0  0  0  0  0  0  0  0  0
   32.3065   40.3415    4.0430 C   0  0  2  0  0  0  0  0  0  0  0  0
   33.0870   39.0845    4.0240 O   0  0  0  0  0  0  0  0  0  0  0  0
   35.1058   37.2713    7.5867 C   0  0  2  0  0  0  0  0  0  0  0  0
   36.0644   36.8551    6.5276 O   0  0  0  0  0  0  0  0  0  0  0  0
   37.6576   39.6689    4.5544 C   0  0  0  0  0  0  0  0  0  0  0  0
   42.5855   40.5484    4.1362 C   0  0  1  0  0  0  0  0  0  0  0  0
   41.4720   39.7818    4.7916 O   0  0  0  0  0  0  0  0  0  0  0  0
   31.0471   40.2375    3.1515 C   0  0  0  0  0  0  0  0  0  0  0  0
   30.1672   41.4204    3.1783 N   0  0  0  0  0  0  0  0  0  0  0  0
   34.7348   36.0008    8.3810 C   0  0  1  0  0  0  0  0  0  0  0  0
   35.9236   35.4051    8.9106 O   0  0  0  0  0  0  0  0  0  0  0  0
   42.1059   42.0026    3.7587 C   0  0  0  0  0  0  0  0  0  0  0  0
   41.6508   42.8665    4.8945 N   0  0  0  0  0  0  0  0  0  0  0  0
  1  2  1  1  0  0  0
  1  7  1  0  0  0  0
  1 30  1  0  0  0  0
  3  4  1  6  0  0  0
  3  9  1  0  0  0  0
  3 38  1  0  0  0  0
  5 10  1  0  0  0  0
  5 26  1  6  0  0  0
  5 32  1  0  0  0  0
  6 12  1  0  0  0  0
  6 35  1  0  0  0  0
  6 19  1  1  0  0  0
  7  8  1  1  0  0  0
  7 14  1  0  0  0  0
  8 33  1  0  0  0  0
  9 16  1  0  0  0  0
 10 11  1  1  0  0  0
 10 18  1  0  0  0  0
 12 13  1  1  0  0  0
 12 20  1  0  0  0  0
 14 15  1  6  0  0  0
 14 22  1  0  0  0  0
 16 17  1  6  0  0  0
 16 24  1  0  0  0  0
 18 19  1  1  0  0  0
 18 25  1  0  0  0  0
 20 21  1  6  0  0  0
 20 27  1  0  0  0  0
 22 23  1  1  0  0  0
 22 29  1  0  0  0  0
 24  2  1  1  0  0  0
 24 31  1  0  0  0  0
 25 26  1  1  0  0  0
 25 33  1  0  0  0  0
 27 28  1  1  0  0  0
 27 34  1  0  0  0  0
 29 30  1  0  0  0  0
 29 36  1  6  0  0  0
 31 32  1  6  0  0  0
 31 38  1  0  0  0  0
 34 35  1  0  0  0  0
 34 40  1  1  0  0  0
 36 37  1  0  0  0  0
 38 39  1  1  0  0  0
 40 41  1  0  0  0  0
M  END
>  <CHROM.1>
155.28800047,173.59909895,-63.64857876,-66.06806278,37.15953705,39.01688126
5.76289597,3.05651983,-0.02700863,2.44998080

>  <Name>
ligand

>  <RI>
0

>  <Rbt.Current_Directory>
/home/itssahil/PROJECTS/Mol_Feturizer/New_Systems/rnas/1ZZ5

>  <Rbt.Executable>
rbdock ($Id: //depot/dev/client3/rdock/2013.1/src/exe/rbdock.cxx#4 $)

>  <Rbt.Library>
libRbt.so (2013.1, Build901 2013/11/27)

>  <Rbt.Parameter_File>
/export/apps/rDock/src/rDock_2013.1_src/data/scripts/dock_solv.prm

>  <Rbt.Receptor>
prm/pocket_docking_3.prm

>  <SCORE>
-11.3072

>  <SCORE.INTER>
-11.0165

>  <SCORE.INTER.CONST>
1

>  <SCORE.INTER.POLAR>
0

>  <SCORE.INTER.ROT>
4

>  <SCORE.INTER.SOLV>
19.6572

>  <SCORE.INTER.VDW>
-20.1634

>  <SCORE.INTER.norm>
-0.268694

>  <SCORE.INTRA>
-0.290756

>  <SCORE.INTRA.DIHEDRAL>
-1.98396

>  <SCORE.INTRA.DIHEDRAL.0>
5.18357

>  <SCORE.INTRA.POLAR>
0

>  <SCORE.INTRA.POLAR.0>
0

>  <SCORE.INTRA.REPUL>
0

>  <SCORE.INTRA.REPUL.0>
0

>  <SCORE.INTRA.SOLV>
1.29973

>  <SCORE.INTRA.SOLV.lig_0>
-109.973

>  <SCORE.INTRA.VDW>
0.0513604

>  <SCORE.INTRA.VDW.0>
-1.68646

>  <SCORE.INTRA.norm>
-0.0070916

>  <SCORE.RESTR>
0

>  <SCORE.RESTR.CAVITY>
0

>  <SCORE.RESTR.norm>
0

>  <SCORE.SYSTEM>
0

>  <SCORE.SYSTEM.CONST>
0

>  <SCORE.SYSTEM.DIHEDRAL>
0

>  <SCORE.SYSTEM.SOLV>
0

>  <SCORE.SYSTEM.norm>
0

>  <SCORE.heavy>
41

>  <SCORE.norm>
-0.275786

>  <RMSD>
1.568

$$$$
ligand
 OpenBabel11021811423D
libRbt.so/2013.1/901 2013/11/27
 41 45  0  0  0  0  0  0  0  0999 V2000
   34.2935   39.0187    4.8805 C   0  0  2  0  0  0  0  0  0  0  0  0
   34.0284   39.1291    6.2926 O   0  0  0  0  0  0  0  0  0  0  0  0
   33.7393   36.3368    9.6148 C   0  0  2  0  0  0  0  0  0  0  0  0
   33.3504   35.1371   10.4002 N   0  0  0  0  0  0  0  0  0  0  0  0
   37.4725   37.1317    6.7328 C   0  0  1  0  0  0  0  0  0  0  0  0
   41.7330   38.3141    5.1777 C   0  0  1  0  0  0  0  0  0  0  0  0
   35.2199   40.1722    4.3916 C   0  0  2  0  0  0  0  0  0  0  0  0
   36.4630   40.2727    5.1623 N   0  0  0  0  0  0  0  0  0  0  0  0
   32.4483   37.0260    9.0702 C   0  0  0  0  0  0  0  0  0  0  0  0
   38.3240   36.5641    5.5741 C   0  0  2  0  0  0  0  0  0  0  0  0
   39.0448   35.3917    5.9672 O   0  0  0  0  0  0  0  0  0  0  0  0
   43.0481   38.1820    6.0582 C   0  0  2  0  0  0  0  0  0  0  0  0
   42.8835   38.6364    7.4728 N   0  0  0  0  0  0  0  0  0  0  0  0
   34.4597   41.5252    4.4326 C   0  0  1  0  0  0  0  0  0  0  0  0
   35.3017   42.5731    3.9592 O   0  0  0  0  0  0  0  0  0  0  0  0
   32.7948   38.2895    8.2302 C   0  0  2  0  0  0  0  0  0  0  0  0
   31.5275   38.8832    7.7641 N   0  0  0  0  0  0  0  0  0  0  0  0
   39.2469   37.7256    5.1674 C   0  0  2  0  0  0  0  0  0  0  0  0
   40.5867   37.6254    5.7954 O   0  0  0  0  0  0  0  0  0  0  0  0
   44.2428   38.9848    5.3698 C   0  0  1  0  0  0  0  0  0  0  0  0
   44.6399   38.3670    4.1259 O   0  0  0  0  0  0  0  0  0  0  0  0
   33.1760   41.4285    3.5760 C   0  0  2  0  0  0  0  0  0  0  0  0
   32.4881   42.6616    3.5945 O   0  0  0  0  0  0  0  0  0  0  0  0
   33.7507   37.9030    7.0465 C   0  0  2  0  0  0  0  0  0  0  0  0
   38.4995   38.9706    5.6370 C   0  0  2  0  0  0  0  0  0  0  0  0
   37.6519   38.5485    6.6960 O   0  0  0  0  0  0  0  0  0  0  0  0
   43.8627   40.4939    5.0875 C   0  0  2  0  0  0  0  0  0  0  0  0
   43.7113   41.1856    6.3385 O   0  0  0  0  0  0  0  0  0  0  0  0
   32.2716   40.2955    4.1006 C   0  0  2  0  0  0  0  0  0  0  0  0
   33.0463   39.0350    4.0807 O   0  0  0  0  0  0  0  0  0  0  0  0
   35.0913   37.2317    7.6336 C   0  0  2  0  0  0  0  0  0  0  0  0
   36.0378   36.8055    6.5675 O   0  0  0  0  0  0  0  0  0  0  0  0
   37.6243   39.6016    4.5640 C   0  0  0  0  0  0  0  0  0  0  0  0
   42.5244   40.5609    4.2455 C   0  0  1  0  0  0  0  0  0  0  0  0
   41.4238   39.7601    4.8815 O   0  0  0  0  0  0  0  0  0  0  0  0
   31.0032   40.1924    3.2217 C   0  0  0  0  0  0  0  0  0  0  0  0
   30.0987   41.3544    3.2972 N   0  0  0  0  0  0  0  0  0  0  0  0
   34.7223   35.9671    8.4382 C   0  0  1  0  0  0  0  0  0  0  0  0
   35.9136   35.3689    8.9595 O   0  0  0  0  0  0  0  0  0  0  0  0
   42.0396   42.0341    3.9595 C   0  0  0  0  0  0  0  0  0  0  0  0
   41.6855   42.8600    5.1578 N   0  0  0  0  0  0  0  0  0  0  0  0
  1  2  1  1  0  0  0
  1  7  1  0  0  0  0
  1 30  1  0  0  0  0
  3  4  1  6  0  0  0
  3  9  1  0  0  0  0
  3 38  1  0  0  0  0
  5 10  1  0  0  0  0
  5 26  1  6  0  0  0
  5 32  1  0  0  0  0
  6 12  1  0  0  0  0
  6 35  1  0  0  0  0
  6 19  1  1  0  0  0
  7  8  1  1  0  0  0
  7 14  1  0  0  0  0
  8 33  1  0  0  0  0
  9 16  1  0  0  0  0
 10 11  1  1  0  0  0
 10 18  1  0  0  0  0
 12 13  1  1  0  0  0
 12 20  1  0  0  0  0
 14 15  1  6  0  0  0
 14 22  1  0  0  0  0
 16 17  1  6  0  0  0
 16 24  1  0  0  0  0
 18 19  1  1  0  0  0
 18 25  1  0  0  0  0
 20 21  1  6  0  0  0
 20 27  1  0  0  0  0
 22 23  1  1  0  0  0
 22 29  1  0  0  0  0
 24  2  1  1  0  0  0
 24 31  1  0  0  0  0
 25 26  1  1  0  0  0
 25 33  1  0  0  0  0
 27 28  1  1  0  0  0
 27 34  1  0  0  0  0
 29 30  1  0  0  0  0
 29 36  1  6  0  0  0
 31 32  1  6  0  0  0
 31 38  1  0  0  0  0
 34 35  1  0  0  0  0
 34 40  1  1  0  0  0
 36 37  1  0  0  0  0
 38 39  1  1  0  0  0
 40 41  1  0  0  0  0
M  END
>  <CHROM.1>
157.53494874,175.45425536,-66.25712429,-62.69649223,37.13253380,38.96967303
5.81213146,3.05862327,-0.02775305,2.45245849

>  <Name>
ligand

>  <RI>
0

>  <Rbt.Current_Directory>
/home/itssahil/PROJECTS/Mol_Feturizer/New_Systems/rnas/1ZZ5

>  <Rbt.Executable>
rbdock ($Id: //depot/dev/client3/rdock/2013.1/src/exe/rbdock.cxx#4 $)

>  <Rbt.Library>
libRbt.so (2013.1, Build901 2013/11/27)

>  <Rbt.Parameter_File>
/export/apps/rDock/src/rDock_2013.1_src/data/scripts/dock_solv.prm

>  <Rbt.Receptor>
prm/pocket_docking_6.prm

>  <SCORE>
-11.2815

>  <SCORE.INTER>
-10.7203

>  <SCORE.INTER.CONST>
1

>  <SCORE.INTER.POLAR>
0

>  <SCORE.INTER.ROT>
4

>  <SCORE.INTER.SOLV>
19.4001

>  <SCORE.INTER.VDW>
-19.8802

>  <SCORE.INTER.norm>
-0.26147

>  <SCORE.INTRA>
-0.561241

>  <SCORE.INTRA.DIHEDRAL>
-2.49091

>  <SCORE.INTRA.DIHEDRAL.0>
5.18357

>  <SCORE.INTRA.POLAR>
0

>  <SCORE.INTRA.POLAR.0>
0

>  <SCORE.INTRA.REPUL>
0

>  <SCORE.INTRA.REPUL.0>
0

>  <SCORE.INTRA.SOLV>
1.25255

>  <SCORE.INTRA.SOLV.lig_0>
-109.973

>  <SCORE.INTRA.VDW>
0.0579403

>  <SCORE.INTRA.VDW.0>
-1.68646

>  <SCORE.INTRA.norm>
-0.0136888

>  <SCORE.RESTR>
0

>  <SCORE.RESTR.CAVITY>
0

>  <SCORE.RESTR.norm>
0

>  <SCORE.SYSTEM>
0

>  <SCORE.SYSTEM.CONST>
0

>  <SCORE.SYSTEM.DIHEDRAL>
0

>  <SCORE.SYSTEM.SOLV>
0

>  <SCORE.SYSTEM.norm>
0

>  <SCORE.heavy>
41

>  <SCORE.norm>
-0.275159

>  <RMSD>
1.572

$$$$
ligand
 OpenBabel11021811423D
libRbt.so/2013.1/901 2013/11/27
 41 45  0  0  0  0  0  0  0  0999 V2000
   34.3919   39.2111    4.8484 C   0  0  2  0  0  0  0  0  0  0  0  0
   34.1532   39.2552    6.2688 O   0  0  0  0  0  0  0  0  0  0  0  0
   34.0177   36.3214    9.4770 C   0  0  2  0  0  0  0  0  0  0  0  0
   33.6816   35.0791   10.2192 N   0  0  0  0  0  0  0  0  0  0  0  0
   37.6643   37.3490    6.5579 C   0  0  1  0  0  0  0  0  0  0  0  0
   41.8647   38.6824    4.9392 C   0  0  1  0  0  0  0  0  0  0  0  0
   35.2727   40.4118    4.3899 C   0  0  2  0  0  0  0  0  0  0  0  0
   36.5280   40.5190    5.1395 N   0  0  0  0  0  0  0  0  0  0  0  0
   32.6955   36.9920    8.9870 C   0  0  0  0  0  0  0  0  0  0  0  0
   38.5082   36.8561    5.3601 C   0  0  2  0  0  0  0  0  0  0  0  0
   39.2720   35.6914    5.6898 O   0  0  0  0  0  0  0  0  0  0  0  0
   43.2134   38.5215    5.7622 C   0  0  2  0  0  0  0  0  0  0  0  0
   43.1064   38.9328    7.1955 N   0  0  0  0  0  0  0  0  0  0  0  0
   34.4731   41.7378    4.5021 C   0  0  1  0  0  0  0  0  0  0  0  0
   35.2731   42.8297    4.0563 O   0  0  0  0  0  0  0  0  0  0  0  0
   32.9861   38.2990    8.1936 C   0  0  2  0  0  0  0  0  0  0  0  0
   31.6921   38.8719    7.7776 N   0  0  0  0  0  0  0  0  0  0  0  0
   39.3869   38.0613    4.9840 C   0  0  2  0  0  0  0  0  0  0  0  0
   40.7419   37.9769    5.5809 O   0  0  0  0  0  0  0  0  0  0  0  0
   44.3820   39.3430    5.0516 C   0  0  1  0  0  0  0  0  0  0  0  0
   44.7277   38.7628    3.7746 O   0  0  0  0  0  0  0  0  0  0  0  0
   33.1753   41.6365    3.6676 C   0  0  2  0  0  0  0  0  0  0  0  0
   32.4511   42.8459    3.7508 O   0  0  0  0  0  0  0  0  0  0  0  0
   33.9284   37.9912    6.9763 C   0  0  2  0  0  0  0  0  0  0  0  0
   38.6123   39.2622    5.5196 C   0  0  2  0  0  0  0  0  0  0  0  0
   37.8001   38.7710    6.5765 O   0  0  0  0  0  0  0  0  0  0  0  0
   43.9951   40.8606    4.8305 C   0  0  2  0  0  0  0  0  0  0  0  0
   43.8955   41.5140    6.1071 O   0  0  0  0  0  0  0  0  0  0  0  0
   32.3166   40.4555    4.1621 C   0  0  2  0  0  0  0  0  0  0  0  0
   33.1284   39.2215    4.0747 O   0  0  0  0  0  0  0  0  0  0  0  0
   35.3005   37.3382    7.5086 C   0  0  2  0  0  0  0  0  0  0  0  0
   36.2369   36.9856    6.4073 O   0  0  0  0  0  0  0  0  0  0  0  0
   37.6963   39.9093    4.4912 C   0  0  0  0  0  0  0  0  0  0  0  0
   42.6247   40.9553    4.0449 C   0  0  1  0  0  0  0  0  0  0  0  0
   41.5480   40.1372    4.6997 O   0  0  0  0  0  0  0  0  0  0  0  0
   31.0338   40.3493    3.3048 C   0  0  0  0  0  0  0  0  0  0  0  0
   31.2624   40.0538    1.8784 N   0  0  0  0  0  0  0  0  0  0  0  0
   34.9867   36.0309    8.2670 C   0  0  1  0  0  0  0  0  0  0  0  0
   36.2060   35.4490    8.7394 O   0  0  0  0  0  0  0  0  0  0  0  0
   42.1329   42.4373    3.8233 C   0  0  0  0  0  0  0  0  0  0  0  0
   40.7905   42.6012    3.1796 N   0  0  0  0  0  0  0  0  0  0  0  0
  1  2  1  1  0  0  0
  1  7  1  0  0  0  0
  1 30  1  0  0  0  0
  3  4  1  6  0  0  0
  3  9  1  0  0  0  0
  3 38  1  0  0  0  0
  5 10  1  0  0  0  0
  5 26  1  6  0  0  0
  5 32  1  0  0  0  0
  6 12  1  0  0  0  0
  6 35  1  0  0  0  0
  6 19  1  1  0  0  0
  7  8  1  1  0  0  0
  7 14  1  0  0  0  0
  8 33  1  0  0  0  0
  9 16  1  0  0  0  0
 10 11  1  1  0  0  0
 10 18  1  0  0  0  0
 12 13  1  1  0  0  0
 12 20  1  0  0  0  0
 14 15  1  6  0  0  0
 14 22  1  0  0  0  0
 16 17  1  6  0  0  0
 16 24  1  0  0  0  0
 18 19  1  1  0  0  0
 18 25  1  0  0  0  0
 20 21  1  6  0  0  0
 20 27  1  0  0  0  0
 22 23  1  1  0  0  0
 22 29  1  0  0  0  0
 24  2  1  1  0  0  0
 24 31  1  0  0  0  0
 25 26  1  1  0  0  0
 25 33  1  0  0  0  0
 27 28  1  1  0  0  0
 27 34  1  0  0  0  0
 29 30  1  0  0  0  0
 29 36  1  6  0  0  0
 31 32  1  6  0  0  0
 31 38  1  0  0  0  0
 34 35  1  0  0  0  0
 34 40  1  1  0  0  0
 36 37  1  0  0  0  0
 38 39  1  1  0  0  0
 40 41  1  0  0  0  0
M  END
>  <CHROM.1>
155.11302424,177.50091572,63.18859057,-175.45905432,37.27078631,39.14113191
5.61850803,3.00676604,-0.02422796,2.43226719

>  <Name>
ligand

>  <RI>
0

>  <Rbt.Current_Directory>
/home/itssahil/PROJECTS/Mol_Feturizer/New_Systems/rnas/1ZZ5

>  <Rbt.Executable>
rbdock ($Id: //depot/dev/client3/rdock/2013.1/src/exe/rbdock.cxx#4 $)

>  <Rbt.Library>
libRbt.so (2013.1, Build901 2013/11/27)

>  <Rbt.Parameter_File>
/export/apps/rDock/src/rDock_2013.1_src/data/scripts/dock_solv.prm

>  <Rbt.Receptor>
prm/pocket_docking_6.prm

>  <SCORE>
-11.1373

>  <SCORE.INTER>
-10.0288

>  <SCORE.INTER.CONST>
1

>  <SCORE.INTER.POLAR>
0

>  <SCORE.INTER.ROT>
4

>  <SCORE.INTER.SOLV>
26.578

>  <SCORE.INTER.VDW>
-21.8119

>  <SCORE.INTER.norm>
-0.244605

>  <SCORE.INTRA>
-1.10851

>  <SCORE.INTRA.DIHEDRAL>
-2.20664

>  <SCORE.INTRA.DIHEDRAL.0>
5.18357

>  <SCORE.INTRA.POLAR>
0

>  <SCORE.INTRA.POLAR.0>
0

>  <SCORE.INTRA.REPUL>
0

>  <SCORE.INTRA.REPUL.0>
0

>  <SCORE.INTRA.SOLV>
0.0961939

>  <SCORE.INTRA.SOLV.lig_0>
-109.973

>  <SCORE.INTRA.VDW>
-0.0532905

>  <SCORE.INTRA.VDW.0>
-1.68646

>  <SCORE.INTRA.norm>
-0.0270369

>  <SCORE.RESTR>
0

>  <SCORE.RESTR.CAVITY>
0

>  <SCORE.RESTR.norm>
0

>  <SCORE.SYSTEM>
0

>  <SCORE.SYSTEM.CONST>
0

>  <SCORE.SYSTEM.DIHEDRAL>
0

>  <SCORE.SYSTEM.SOLV>
0

>  <SCORE.SYSTEM.norm>
0

>  <SCORE.heavy>
41

>  <SCORE.norm>
-0.271642

>  <RMSD>
1.611

$$$$
ligand
 OpenBabel11021811423D
libRbt.so/2013.1/901 2013/11/27
 41 45  0  0  0  0  0  0  0  0999 V2000
   34.2526   39.0529    4.9091 C   0  0  2  0  0  0  0  0  0  0  0  0
   34.0105   39.1471    6.3265 O   0  0  0  0  0  0  0  0  0  0  0  0
   33.7377   36.3131    9.6146 C   0  0  2  0  0  0  0  0  0  0  0  0
   33.3460   35.1076   10.3896 N   0  0  0  0  0  0  0  0  0  0  0  0
   37.4359   37.1019    6.6863 C   0  0  1  0  0  0  0  0  0  0  0  0
   41.6914   38.2303    5.0658 C   0  0  1  0  0  0  0  0  0  0  0  0
   35.1857   40.2016    4.4216 C   0  0  2  0  0  0  0  0  0  0  0  0
   36.4415   40.2763    5.1742 N   0  0  0  0  0  0  0  0  0  0  0  0
   32.4472   37.0254    9.0995 C   0  0  0  0  0  0  0  0  0  0  0  0
   38.2625   36.5400    5.5070 C   0  0  2  0  0  0  0  0  0  0  0  0
   38.9746   35.3536    5.8729 O   0  0  0  0  0  0  0  0  0  0  0  0
   43.0033   38.1315    5.9554 C   0  0  2  0  0  0  0  0  0  0  0  0
   42.8352   38.6444    7.3496 N   0  0  0  0  0  0  0  0  0  0  0  0
   34.4430   41.5631    4.4927 C   0  0  1  0  0  0  0  0  0  0  0  0
   35.2906   42.6070    4.0205 O   0  0  0  0  0  0  0  0  0  0  0  0
   32.7964   38.2960    8.2714 C   0  0  2  0  0  0  0  0  0  0  0  0
   31.5296   38.9115    7.8330 N   0  0  0  0  0  0  0  0  0  0  0  0
   39.1934   37.6956    5.1018 C   0  0  2  0  0  0  0  0  0  0  0  0
   40.5413   37.5704    5.7075 O   0  0  0  0  0  0  0  0  0  0  0  0
   44.2023   38.9023    5.2386 C   0  0  1  0  0  0  0  0  0  0  0  0
   44.6019   38.2327    4.0226 O   0  0  0  0  0  0  0  0  0  0  0  0
   33.1453   41.4937    3.6548 C   0  0  2  0  0  0  0  0  0  0  0  0
   32.4730   42.7348    3.7006 O   0  0  0  0  0  0  0  0  0  0  0  0
   33.7293   37.9142    7.0679 C   0  0  2  0  0  0  0  0  0  0  0  0
   38.4688   38.9431    5.5997 C   0  0  2  0  0  0  0  0  0  0  0  0
   37.6323   38.5168    6.6659 O   0  0  0  0  0  0  0  0  0  0  0  0
   43.8269   40.3993    4.8928 C   0  0  2  0  0  0  0  0  0  0  0  0
   43.6732   41.1425    6.1137 O   0  0  0  0  0  0  0  0  0  0  0  0
   32.2350   40.3648    4.1779 C   0  0  2  0  0  0  0  0  0  0  0  0
   32.9936   39.0953    4.1290 O   0  0  0  0  0  0  0  0  0  0  0  0
   35.0702   37.2186    7.6251 C   0  0  2  0  0  0  0  0  0  0  0  0
   35.9949   36.7956    6.5388 O   0  0  0  0  0  0  0  0  0  0  0  0
   37.5851   39.5994    4.5490 C   0  0  0  0  0  0  0  0  0  0  0  0
   42.4916   40.4347    4.0442 C   0  0  1  0  0  0  0  0  0  0  0  0
   41.3869   39.6636    4.7091 O   0  0  0  0  0  0  0  0  0  0  0  0
   30.9521   40.2892    3.3175 C   0  0  0  0  0  0  0  0  0  0  0  0
   29.9569   39.3003    3.7712 N   0  0  0  0  0  0  0  0  0  0  0  0
   34.6980   35.9477    8.4181 C   0  0  1  0  0  0  0  0  0  0  0  0
   35.8895   35.3279    8.9127 O   0  0  0  0  0  0  0  0  0  0  0  0
   42.0115   41.8961    3.6960 C   0  0  0  0  0  0  0  0  0  0  0  0
   41.6135   42.7571    4.8551 N   0  0  0  0  0  0  0  0  0  0  0  0
  1  2  1  1  0  0  0
  1  7  1  0  0  0  0
  1 30  1  0  0  0  0
  3  4  1  6  0  0  0
  3  9  1  0  0  0  0
  3 38  1  0  0  0  0
  5 10  1  0  0  0  0
  5 26  1  6  0  0  0
  5 32  1  0  0  0  0
  6 12  1  0  0  0  0
  6 35  1  0  0  0  0
  6 19  1  1  0  0  0
  7  8  1  1  0  0  0
  7 14  1  0  0  0  0
  8 33  1  0  0  0  0
  9 16  1  0  0  0  0
 10 11  1  1  0  0  0
 10 18  1  0  0  0  0
 12 13  1  1  0  0  0
 12 20  1  0  0  0  0
 14 15  1  6  0  0  0
 14 22  1  0  0  0  0
 16 17  1  6  0  0  0
 16 24  1  0  0  0  0
 18 19  1  1  0  0  0
 18 25  1  0  0  0  0
 20 21  1  6  0  0  0
 20 27  1  0  0  0  0
 22 23  1  1  0  0  0
 22 29  1  0  0  0  0
 24  2  1  1  0  0  0
 24 31  1  0  0  0  0
 25 26  1  1  0  0  0
 25 33  1  0  0  0  0
 27 28  1  1  0  0  0
 27 34  1  0  0  0  0
 29 30  1  0  0  0  0
 29 36  1  6  0  0  0
 31 32  1  6  0  0  0
 31 38  1  0  0  0  0
 34 35  1  0  0  0  0
 34 40  1  1  0  0  0
 36 37  1  0  0  0  0
 38 39  1  1  0  0  0
 40 41  1  0  0  0  0
M  END
>  <CHROM.1>
156.25857176,172.89746434,-176.29883372,-64.59519797,37.09778679,38.90153551
5.78180830,3.02674845,-0.04170936,2.45513784

>  <Name>
ligand

>  <RI>
0

>  <Rbt.Current_Directory>
/home/itssahil/PROJECTS/Mol_Feturizer/New_Systems/rnas/1ZZ5

>  <Rbt.Executable>
rbdock ($Id: //depot/dev/client3/rdock/2013.1/src/exe/rbdock.cxx#4 $)

>  <Rbt.Library>
libRbt.so (2013.1, Build901 2013/11/27)

>  <Rbt.Parameter_File>
/export/apps/rDock/src/rDock_2013.1_src/data/scripts/dock_solv.prm

>  <Rbt.Receptor>
prm/pocket_docking_3.prm

>  <SCORE>
-12.0359

>  <SCORE.INTER>
-10.8945

>  <SCORE.INTER.CONST>
1

>  <SCORE.INTER.POLAR>
0

>  <SCORE.INTER.ROT>
4

>  <SCORE.INTER.SOLV>
20.2783

>  <SCORE.INTER.VDW>
-20.2891

>  <SCORE.INTER.norm>
-0.265719

>  <SCORE.INTRA>
-1.14142

>  <SCORE.INTRA.DIHEDRAL>
-2.16735

>  <SCORE.INTRA.DIHEDRAL.0>
5.18357

>  <SCORE.INTRA.POLAR>
0

>  <SCORE.INTRA.POLAR.0>
0

>  <SCORE.INTRA.REPUL>
0

>  <SCORE.INTRA.REPUL.0>
0

>  <SCORE.INTRA.SOLV>
0.0684628

>  <SCORE.INTRA.SOLV.lig_0>
-109.973

>  <SCORE.INTRA.VDW>
-0.0919779

>  <SCORE.INTRA.VDW.0>
-1.68646

>  <SCORE.INTRA.norm>
-0.0278395

>  <SCORE.RESTR>
0

>  <SCORE.RESTR.CAVITY>
0

>  <SCORE.RESTR.norm>
0

>  <SCORE.SYSTEM>
0

>  <SCORE.SYSTEM.CONST>
0

>  <SCORE.SYSTEM.DIHEDRAL>
0

>  <SCORE.SYSTEM.SOLV>
0

>  <SCORE.SYSTEM.norm>
0

>  <SCORE.heavy>
41

>  <SCORE.norm>
-0.293559

>  <RMSD>
1.616

$$$$
ligand
 OpenBabel11021811423D
libRbt.so/2013.1/901 2013/11/27
 41 45  0  0  0  0  0  0  0  0999 V2000
   34.5382   39.0060    4.9429 C   0  0  2  0  0  0  0  0  0  0  0  0
   34.3476   39.0667    6.3700 O   0  0  0  0  0  0  0  0  0  0  0  0
   34.2028   36.1568    9.5994 C   0  0  2  0  0  0  0  0  0  0  0  0
   33.8430   34.9323   10.3599 N   0  0  0  0  0  0  0  0  0  0  0  0
   37.7896   37.0263    6.5574 C   0  0  1  0  0  0  0  0  0  0  0  0
   41.9663   38.2742    4.8600 C   0  0  1  0  0  0  0  0  0  0  0  0
   35.4496   40.1691    4.4485 C   0  0  2  0  0  0  0  0  0  0  0  0
   36.7318   40.2310    5.1565 N   0  0  0  0  0  0  0  0  0  0  0  0
   32.8924   36.8760    9.1481 C   0  0  0  0  0  0  0  0  0  0  0  0
   38.5743   36.4948    5.3362 C   0  0  2  0  0  0  0  0  0  0  0  0
   39.3026   35.3028    5.6484 O   0  0  0  0  0  0  0  0  0  0  0  0
   43.3176   38.1096    5.6780 C   0  0  2  0  0  0  0  0  0  0  0  0
   43.2036   38.4715    7.1239 N   0  0  0  0  0  0  0  0  0  0  0  0
   34.7061   41.5259    4.5780 C   0  0  1  0  0  0  0  0  0  0  0  0
   35.5330   42.5834    4.0997 O   0  0  0  0  0  0  0  0  0  0  0  0
   33.2076   38.1666    8.3375 C   0  0  2  0  0  0  0  0  0  0  0  0
   31.9239   38.7874    7.9598 N   0  0  0  0  0  0  0  0  0  0  0  0
   39.4864   37.6628    4.9242 C   0  0  2  0  0  0  0  0  0  0  0  0
   40.8559   37.5286    5.4775 O   0  0  0  0  0  0  0  0  0  0  0  0
   44.4718   38.9742    4.9954 C   0  0  1  0  0  0  0  0  0  0  0  0
   44.8273   38.4425    3.7001 O   0  0  0  0  0  0  0  0  0  0  0  0
   33.3790   41.4711    3.7866 C   0  0  2  0  0  0  0  0  0  0  0  0
   32.7053   42.7082    3.8855 O   0  0  0  0  0  0  0  0  0  0  0  0
   34.0970   37.8160    7.0923 C   0  0  2  0  0  0  0  0  0  0  0  0
   38.7770   38.8958    5.4769 C   0  0  2  0  0  0  0  0  0  0  0  0
   37.9811   38.4420    6.5627 O   0  0  0  0  0  0  0  0  0  0  0  0
   44.0586   40.4913    4.8243 C   0  0  2  0  0  0  0  0  0  0  0  0
   43.9478   41.1005    6.1216 O   0  0  0  0  0  0  0  0  0  0  0  0
   32.4915   40.3271    4.3161 C   0  0  2  0  0  0  0  0  0  0  0  0
   33.2515   39.0618    4.2103 O   0  0  0  0  0  0  0  0  0  0  0  0
   35.4594   37.1127    7.5841 C   0  0  2  0  0  0  0  0  0  0  0  0
   36.3451   36.7182    6.4554 O   0  0  0  0  0  0  0  0  0  0  0  0
   37.8538   39.5729    4.4746 C   0  0  0  0  0  0  0  0  0  0  0  0
   42.6867   40.5881    4.0415 C   0  0  1  0  0  0  0  0  0  0  0  0
   41.6244   39.7304    4.6684 O   0  0  0  0  0  0  0  0  0  0  0  0
   31.1784   40.2666    3.5014 C   0  0  0  0  0  0  0  0  0  0  0  0
   31.3493   39.9627    2.0687 N   0  0  0  0  0  0  0  0  0  0  0  0
   35.1198   35.8225    8.3605 C   0  0  1  0  0  0  0  0  0  0  0  0
   36.3304   35.1958    8.7970 O   0  0  0  0  0  0  0  0  0  0  0  0
   42.1694   42.0679    3.8686 C   0  0  0  0  0  0  0  0  0  0  0  0
   41.8360   42.8052    5.1290 N   0  0  0  0  0  0  0  0  0  0  0  0
  1  2  1  1  0  0  0
  1  7  1  0  0  0  0
  1 30  1  0  0  0  0
  3  4  1  6  0  0  0
  3  9  1  0  0  0  0
  3 38  1  0  0  0  0
  5 10  1  0  0  0  0
  5 26  1  6  0  0  0
  5 32  1  0  0  0  0
  6 12  1  0  0  0  0
  6 35  1  0  0  0  0
  6 19  1  1  0  0  0
  7  8  1  1  0  0  0
  7 14  1  0  0  0  0
  8 33  1  0  0  0  0
  9 16  1  0  0  0  0
 10 11  1  1  0  0  0
 10 18  1  0  0  0  0
 12 13  1  1  0  0  0
 12 20  1  0  0  0  0
 14 15  1  6  0  0  0
 14 22  1  0  0  0  0
 16 17  1  6  0  0  0
 16 24  1  0  0  0  0
 18 19  1  1  0  0  0
 18 25  1  0  0  0  0
 20 21  1  6  0  0  0
 20 27  1  0  0  0  0
 22 23  1  1  0  0  0
 22 29  1  0  0  0  0
 24  2  1  1  0  0  0
 24 31  1  0  0  0  0
 25 26  1  1  0  0  0
 25 33  1  0  0  0  0
 27 28  1  1  0  0  0
 27 34  1  0  0  0  0
 29 30  1  0  0  0  0
 29 36  1  6  0  0  0
 31 32  1  6  0  0  0
 31 38  1  0  0  0  0
 34 35  1  0  0  0  0
 34 40  1  1  0  0  0
 36 37  1  0  0  0  0
 38 39  1  1  0  0  0
 40 41  1  0  0  0  0
M  END
>  <CHROM.1>
160.04996049,174.44024159,62.86035792,-63.41621395,37.43274953,38.88241589
5.70920804,3.01883063,-0.04431428,2.45964454

>  <Name>
ligand

>  <RI>
0

>  <Rbt.Current_Directory>
/home/itssahil/PROJECTS/Mol_Feturizer/New_Systems/rnas/1ZZ5

>  <Rbt.Executable>
rbdock ($Id: //depot/dev/client3/rdock/2013.1/src/exe/rbdock.cxx#4 $)

>  <Rbt.Library>
libRbt.so (2013.1, Build901 2013/11/27)

>  <Rbt.Parameter_File>
/export/apps/rDock/src/rDock_2013.1_src/data/scripts/dock_solv.prm

>  <Rbt.Receptor>
prm/pocket_docking_8.prm

>  <SCORE>
-10.9813

>  <SCORE.INTER>
-10.0762

>  <SCORE.INTER.CONST>
1

>  <SCORE.INTER.POLAR>
0

>  <SCORE.INTER.ROT>
4

>  <SCORE.INTER.SOLV>
20.646

>  <SCORE.INTER.VDW>
-19.8661

>  <SCORE.INTER.norm>
-0.245762

>  <SCORE.INTRA>
-0.905054

>  <SCORE.INTRA.DIHEDRAL>
-2.95539

>  <SCORE.INTRA.DIHEDRAL.0>
5.18357

>  <SCORE.INTRA.POLAR>
0

>  <SCORE.INTRA.POLAR.0>
0

>  <SCORE.INTRA.REPUL>
0

>  <SCORE.INTRA.REPUL.0>
0

>  <SCORE.INTRA.SOLV>
1.40746

>  <SCORE.INTRA.SOLV.lig_0>
-109.973

>  <SCORE.INTRA.VDW>
-0.131088

>  <SCORE.INTRA.VDW.0>
-1.68646

>  <SCORE.INTRA.norm>
-0.0220745

>  <SCORE.RESTR>
0

>  <SCORE.RESTR.CAVITY>
0

>  <SCORE.RESTR.norm>
0

>  <SCORE.SYSTEM>
0

>  <SCORE.SYSTEM.CONST>
0

>  <SCORE.SYSTEM.DIHEDRAL>
0

>  <SCORE.SYSTEM.SOLV>
0

>  <SCORE.SYSTEM.norm>
0

>  <SCORE.heavy>
41

>  <SCORE.norm>
-0.267837

>  <RMSD>
1.617

$$$$
ligand
 OpenBabel11021811423D
libRbt.so/2013.1/901 2013/11/27
 41 45  0  0  0  0  0  0  0  0999 V2000
   34.2649   39.0231    4.8651 C   0  0  2  0  0  0  0  0  0  0  0  0
   34.0204   39.1343    6.2808 O   0  0  0  0  0  0  0  0  0  0  0  0
   33.7479   36.3406    9.6033 C   0  0  2  0  0  0  0  0  0  0  0  0
   33.3574   35.1439   10.3924 N   0  0  0  0  0  0  0  0  0  0  0  0
   37.4492   37.1005    6.6711 C   0  0  1  0  0  0  0  0  0  0  0  0
   41.7021   38.2311    5.0524 C   0  0  1  0  0  0  0  0  0  0  0  0
   35.1964   40.1676    4.3649 C   0  0  2  0  0  0  0  0  0  0  0  0
   36.4509   40.2540    5.1185 N   0  0  0  0  0  0  0  0  0  0  0  0
   32.4568   37.0439    9.0774 C   0  0  0  0  0  0  0  0  0  0  0  0
   38.2788   36.5258    5.5001 C   0  0  2  0  0  0  0  0  0  0  0  0
   38.9926   35.3453    5.8817 O   0  0  0  0  0  0  0  0  0  0  0  0
   43.0068   38.1612    5.9553 C   0  0  2  0  0  0  0  0  0  0  0  0
   42.8186   38.6883    7.3415 N   0  0  0  0  0  0  0  0  0  0  0  0
   34.4509   41.5284    4.4180 C   0  0  1  0  0  0  0  0  0  0  0  0
   35.2972   42.5680    3.9344 O   0  0  0  0  0  0  0  0  0  0  0  0
   32.8049   38.3048    8.2342 C   0  0  2  0  0  0  0  0  0  0  0  0
   31.5375   38.9124    7.7863 N   0  0  0  0  0  0  0  0  0  0  0  0
   39.2080   37.6782    5.0822 C   0  0  2  0  0  0  0  0  0  0  0  0
   40.5552   37.5631    5.6915 O   0  0  0  0  0  0  0  0  0  0  0  0
   44.2018   38.9398    5.2403 C   0  0  1  0  0  0  0  0  0  0  0  0
   44.6220   38.2613    4.0362 O   0  0  0  0  0  0  0  0  0  0  0  0
   33.1547   41.4461    3.5791 C   0  0  2  0  0  0  0  0  0  0  0  0
   32.4799   42.6863    3.6085 O   0  0  0  0  0  0  0  0  0  0  0  0
   33.7404   37.9101    7.0369 C   0  0  2  0  0  0  0  0  0  0  0  0
   38.4801   38.9302    5.5635 C   0  0  2  0  0  0  0  0  0  0  0  0
   37.6429   38.5155    6.6336 O   0  0  0  0  0  0  0  0  0  0  0  0
   43.8092   40.4273    4.8729 C   0  0  2  0  0  0  0  0  0  0  0  0
   43.6338   41.1828    6.0833 O   0  0  0  0  0  0  0  0  0  0  0  0
   32.2458   40.3219    4.1146 C   0  0  2  0  0  0  0  0  0  0  0  0
   33.0071   39.0534    4.0826 O   0  0  0  0  0  0  0  0  0  0  0  0
   35.0818   37.2241    7.6047 C   0  0  2  0  0  0  0  0  0  0  0  0
   36.0090   36.7895    6.5252 O   0  0  0  0  0  0  0  0  0  0  0  0
   37.5969   39.5717    4.5035 C   0  0  0  0  0  0  0  0  0  0  0  0
   42.4816   40.4340    4.0117 C   0  0  1  0  0  0  0  0  0  0  0  0
   41.3813   39.6556    4.6757 O   0  0  0  0  0  0  0  0  0  0  0  0
   30.9644   40.2332    3.2532 C   0  0  0  0  0  0  0  0  0  0  0  0
   29.9826   39.2286    3.7015 N   0  0  0  0  0  0  0  0  0  0  0  0
   34.7108   35.9623    8.4128 C   0  0  1  0  0  0  0  0  0  0  0  0
   35.9028   35.3510    8.9169 O   0  0  0  0  0  0  0  0  0  0  0  0
   41.9847   41.8843    3.6413 C   0  0  0  0  0  0  0  0  0  0  0  0
   41.5170   42.7361    4.7811 N   0  0  0  0  0  0  0  0  0  0  0  0
  1  2  1  1  0  0  0
  1  7  1  0  0  0  0
  1 30  1  0  0  0  0
  3  4  1  6  0  0  0
  3  9  1  0  0  0  0
  3 38  1  0  0  0  0
  5 10  1  0  0  0  0
  5 26  1  6  0  0  0
  5 32  1  0  0  0  0
  6 12  1  0  0  0  0
  6 35  1  0  0  0  0
  6 19  1  1  0  0  0
  7  8  1  1  0  0  0
  7 14  1  0  0  0  0
  8 33  1  0  0  0  0
  9 16  1  0  0  0  0
 10 11  1  1  0  0  0
 10 18  1  0  0  0  0
 12 13  1  1  0  0  0
 12 20  1  0  0  0  0
 14 15  1  6  0  0  0
 14 22  1  0  0  0  0
 16 17  1  6  0  0  0
 16 24  1  0  0  0  0
 18 19  1  1  0  0  0
 18 25  1  0  0  0  0
 20 21  1  6  0  0  0
 20 27  1  0  0  0  0
 22 23  1  1  0  0  0
 22 29  1  0  0  0  0
 24  2  1  1  0  0  0
 24 31  1  0  0  0  0
 25 26  1  1  0  0  0
 25 33  1  0  0  0  0
 27 28  1  1  0  0  0
 27 34  1  0  0  0  0
 29 30  1  0  0  0  0
 29 36  1  6  0  0  0
 31 32  1  6  0  0  0
 31 38  1  0  0  0  0
 34 35  1  0  0  0  0
 34 40  1  1  0  0  0
 36 37  1  0  0  0  0
 38 39  1  1  0  0  0
 40 41  1  0  0  0  0
M  END
>  <CHROM.1>
157.00661448,172.04607911,-177.49273710,-66.75029440,37.10209834,38.89464270
5.74840417,3.02538799,-0.03655937,2.44320148

>  <Name>
ligand

>  <RI>
0

>  <Rbt.Current_Directory>
/home/itssahil/PROJECTS/Mol_Feturizer/New_Systems/rnas/1ZZ5

>  <Rbt.Executable>
rbdock ($Id: //depot/dev/client3/rdock/2013.1/src/exe/rbdock.cxx#4 $)

>  <Rbt.Library>
libRbt.so (2013.1, Build901 2013/11/27)

>  <Rbt.Parameter_File>
/export/apps/rDock/src/rDock_2013.1_src/data/scripts/dock_solv.prm

>  <Rbt.Receptor>
prm/pocket_docking_3.prm

>  <SCORE>
-11.9242

>  <SCORE.INTER>
-10.768

>  <SCORE.INTER.CONST>
1

>  <SCORE.INTER.POLAR>
0

>  <SCORE.INTER.ROT>
4

>  <SCORE.INTER.SOLV>
20.4254

>  <SCORE.INTER.VDW>
-20.2538

>  <SCORE.INTER.norm>
-0.262635

>  <SCORE.INTRA>
-1.15612

>  <SCORE.INTRA.DIHEDRAL>
-2.17664

>  <SCORE.INTRA.DIHEDRAL.0>
5.18357

>  <SCORE.INTRA.POLAR>
0

>  <SCORE.INTRA.POLAR.0>
0

>  <SCORE.INTRA.REPUL>
0

>  <SCORE.INTRA.REPUL.0>
0

>  <SCORE.INTRA.SOLV>
0.0606723

>  <SCORE.INTRA.SOLV.lig_0>
-109.973

>  <SCORE.INTRA.VDW>
-0.0981408

>  <SCORE.INTRA.VDW.0>
-1.68646

>  <SCORE.INTRA.norm>
-0.0281981

>  <SCORE.RESTR>
0

>  <SCORE.RESTR.CAVITY>
0

>  <SCORE.RESTR.norm>
0

>  <SCORE.SYSTEM>
0

>  <SCORE.SYSTEM.CONST>
0

>  <SCORE.SYSTEM.DIHEDRAL>
0

>  <SCORE.SYSTEM.SOLV>
0

>  <SCORE.SYSTEM.norm>
0

>  <SCORE.heavy>
41

>  <SCORE.norm>
-0.290833

>  <RMSD>
1.625

$$$$
ligand
 OpenBabel11021811423D
libRbt.so/2013.1/901 2013/11/27
 41 45  0  0  0  0  0  0  0  0999 V2000
   34.2168   39.0448    4.9084 C   0  0  2  0  0  0  0  0  0  0  0  0
   33.9714   39.1462    6.3248 O   0  0  0  0  0  0  0  0  0  0  0  0
   33.6797   36.3278    9.6247 C   0  0  2  0  0  0  0  0  0  0  0  0
   33.2816   35.1271   10.4039 N   0  0  0  0  0  0  0  0  0  0  0  0
   37.3883   37.0901    6.7024 C   0  0  1  0  0  0  0  0  0  0  0  0
   41.6508   38.2021    5.0922 C   0  0  1  0  0  0  0  0  0  0  0  0
   35.1553   40.1879    4.4183 C   0  0  2  0  0  0  0  0  0  0  0  0
   36.4094   40.2613    5.1738 N   0  0  0  0  0  0  0  0  0  0  0  0
   32.3931   37.0425    9.1031 C   0  0  0  0  0  0  0  0  0  0  0  0
   38.2159   36.5199    5.5278 C   0  0  2  0  0  0  0  0  0  0  0  0
   38.9227   35.3325    5.9008 O   0  0  0  0  0  0  0  0  0  0  0  0
   42.9506   38.1324    6.0020 C   0  0  2  0  0  0  0  0  0  0  0  0
   42.7577   38.6691    7.3839 N   0  0  0  0  0  0  0  0  0  0  0  0
   34.4174   41.5524    4.4814 C   0  0  1  0  0  0  0  0  0  0  0  0
   35.2701   42.5911    4.0069 O   0  0  0  0  0  0  0  0  0  0  0  0
   32.7492   38.3081    8.2702 C   0  0  2  0  0  0  0  0  0  0  0  0
   31.4858   38.9264    7.8259 N   0  0  0  0  0  0  0  0  0  0  0  0
   39.1520   37.6703    5.1199 C   0  0  2  0  0  0  0  0  0  0  0  0
   40.4979   37.5429    5.7297 O   0  0  0  0  0  0  0  0  0  0  0  0
   44.1524   38.9016    5.2881 C   0  0  1  0  0  0  0  0  0  0  0  0
   44.5758   38.2137    4.0904 O   0  0  0  0  0  0  0  0  0  0  0  0
   33.1216   41.4841    3.6405 C   0  0  2  0  0  0  0  0  0  0  0  0
   32.4538   42.7278    3.6791 O   0  0  0  0  0  0  0  0  0  0  0  0
   33.6837   37.9176    7.0709 C   0  0  2  0  0  0  0  0  0  0  0  0
   38.4307   38.9226    5.6104 C   0  0  2  0  0  0  0  0  0  0  0  0
   37.5900   38.5041    6.6763 O   0  0  0  0  0  0  0  0  0  0  0  0
   43.7678   40.3883    4.9094 C   0  0  2  0  0  0  0  0  0  0  0  0
   43.5895   41.1522    6.1141 O   0  0  0  0  0  0  0  0  0  0  0  0
   32.2058   40.3608    4.1662 C   0  0  2  0  0  0  0  0  0  0  0  0
   32.9600   39.0884    4.1249 O   0  0  0  0  0  0  0  0  0  0  0  0
   35.0207   37.2196    7.6346 C   0  0  2  0  0  0  0  0  0  0  0  0
   35.9466   36.7884    6.5526 O   0  0  0  0  0  0  0  0  0  0  0  0
   37.5522   39.5775    4.5546 C   0  0  0  0  0  0  0  0  0  0  0  0
   42.4446   40.3950    4.0415 C   0  0  1  0  0  0  0  0  0  0  0  0
   41.3378   39.6255    4.7048 O   0  0  0  0  0  0  0  0  0  0  0  0
   30.9249   40.2861    3.3028 C   0  0  0  0  0  0  0  0  0  0  0  0
   29.9269   39.2996    3.7556 N   0  0  0  0  0  0  0  0  0  0  0  0
   34.6417   35.9535    8.4323 C   0  0  1  0  0  0  0  0  0  0  0  0
   35.8297   35.3316    8.9327 O   0  0  0  0  0  0  0  0  0  0  0  0
   41.9556   41.8450    3.6595 C   0  0  0  0  0  0  0  0  0  0  0  0
   41.5509   42.7297    4.7983 N   0  0  0  0  0  0  0  0  0  0  0  0
  1  2  1  1  0  0  0
  1  7  1  0  0  0  0
  1 30  1  0  0  0  0
  3  4  1  6  0  0  0
  3  9  1  0  0  0  0
  3 38  1  0  0  0  0
  5 10  1  0  0  0  0
  5 26  1  6  0  0  0
  5 32  1  0  0  0  0
  6 12  1  0  0  0  0
  6 35  1  0  0  0  0
  6 19  1  1  0  0  0
  7  8  1  1  0  0  0
  7 14  1  0  0  0  0
  8 33  1  0  0  0  0
  9 16  1  0  0  0  0
 10 11  1  1  0  0  0
 10 18  1  0  0  0  0
 12 13  1  1  0  0  0
 12 20  1  0  0  0  0
 14 15  1  6  0  0  0
 14 22  1  0  0  0  0
 16 17  1  6  0  0  0
 16 24  1  0  0  0  0
 18 19  1  1  0  0  0
 18 25  1  0  0  0  0
 20 21  1  6  0  0  0
 20 27  1  0  0  0  0
 22 23  1  1  0  0  0
 22 29  1  0  0  0  0
 24  2  1  1  0  0  0
 24 31  1  0  0  0  0
 25 26  1  1  0  0  0
 25 33  1  0  0  0  0
 27 28  1  1  0  0  0
 27 34  1  0  0  0  0
 29 30  1  0  0  0  0
 29 36  1  6  0  0  0
 31 32  1  6  0  0  0
 31 38  1  0  0  0  0
 34 35  1  0  0  0  0
 34 40  1  1  0  0  0
 36 37  1  0  0  0  0
 38 39  1  1  0  0  0
 40 41  1  0  0  0  0
M  END
>  <CHROM.1>
156.60476437,171.46921816,-176.50120770,-63.77969002,37.05337518,38.89283138
5.78768847,3.02851825,-0.04103651,2.45028390

>  <Name>
ligand

>  <RI>
0

>  <Rbt.Current_Directory>
/home/itssahil/PROJECTS/Mol_Feturizer/New_Systems/rnas/1ZZ5

>  <Rbt.Executable>
rbdock ($Id: //depot/dev/client3/rdock/2013.1/src/exe/rbdock.cxx#4 $)

>  <Rbt.Library>
libRbt.so (2013.1, Build901 2013/11/27)

>  <Rbt.Parameter_File>
/export/apps/rDock/src/rDock_2013.1_src/data/scripts/dock_solv.prm

>  <Rbt.Receptor>
prm/pocket_docking_3.prm

>  <SCORE>
-12.0211

>  <SCORE.INTER>
-10.9018

>  <SCORE.INTER.CONST>
1

>  <SCORE.INTER.POLAR>
0

>  <SCORE.INTER.ROT>
4

>  <SCORE.INTER.SOLV>
20.3882

>  <SCORE.INTER.VDW>
-20.3306

>  <SCORE.INTER.norm>
-0.265897

>  <SCORE.INTRA>
-1.11933

>  <SCORE.INTRA.DIHEDRAL>
-2.15413

>  <SCORE.INTRA.DIHEDRAL.0>
5.18357

>  <SCORE.INTRA.POLAR>
0

>  <SCORE.INTRA.POLAR.0>
0

>  <SCORE.INTRA.REPUL>
0

>  <SCORE.INTRA.REPUL.0>
0

>  <SCORE.INTRA.SOLV>
0.0824651

>  <SCORE.INTRA.SOLV.lig_0>
-109.973

>  <SCORE.INTRA.VDW>
-0.0834991

>  <SCORE.INTRA.VDW.0>
-1.68646

>  <SCORE.INTRA.norm>
-0.0273008

>  <SCORE.RESTR>
0

>  <SCORE.RESTR.CAVITY>
0

>  <SCORE.RESTR.norm>
0

>  <SCORE.SYSTEM>
0

>  <SCORE.SYSTEM.CONST>
0

>  <SCORE.SYSTEM.DIHEDRAL>
0

>  <SCORE.SYSTEM.SOLV>
0

>  <SCORE.SYSTEM.norm>
0

>  <SCORE.heavy>
41

>  <SCORE.norm>
-0.293198

>  <RMSD>
1.631

$$$$
ligand
 OpenBabel11021811423D
libRbt.so/2013.1/901 2013/11/27
 41 45  0  0  0  0  0  0  0  0999 V2000
   34.2659   39.0216    4.8990 C   0  0  2  0  0  0  0  0  0  0  0  0
   34.0254   39.1246    6.3161 O   0  0  0  0  0  0  0  0  0  0  0  0
   33.7660   36.3118    9.6235 C   0  0  2  0  0  0  0  0  0  0  0  0
   33.3793   35.1102   10.4070 N   0  0  0  0  0  0  0  0  0  0  0  0
   37.4578   37.0928    6.6848 C   0  0  1  0  0  0  0  0  0  0  0  0
   41.7051   38.2351    5.0584 C   0  0  1  0  0  0  0  0  0  0  0  0
   35.1946   40.1700    4.4026 C   0  0  2  0  0  0  0  0  0  0  0  0
   36.4512   40.2538    5.1530 N   0  0  0  0  0  0  0  0  0  0  0  0
   32.4726   37.0165    9.1053 C   0  0  0  0  0  0  0  0  0  0  0  0
   38.2846   36.5256    5.5082 C   0  0  2  0  0  0  0  0  0  0  0  0
   39.0010   35.3439    5.8810 O   0  0  0  0  0  0  0  0  0  0  0  0
   43.0165   38.1491    5.9501 C   0  0  2  0  0  0  0  0  0  0  0  0
   42.8415   38.6610    7.3437 N   0  0  0  0  0  0  0  0  0  0  0  0
   34.4476   41.5296    4.4656 C   0  0  1  0  0  0  0  0  0  0  0  0
   35.2913   42.5730    3.9853 O   0  0  0  0  0  0  0  0  0  0  0  0
   32.8166   38.2826    8.2683 C   0  0  2  0  0  0  0  0  0  0  0  0
   31.5473   38.8911    7.8275 N   0  0  0  0  0  0  0  0  0  0  0  0
   39.2112   37.6815    5.0940 C   0  0  2  0  0  0  0  0  0  0  0  0
   40.5603   37.5646    5.6988 O   0  0  0  0  0  0  0  0  0  0  0  0
   44.2093   38.9309    5.2347 C   0  0  1  0  0  0  0  0  0  0  0  0
   44.6170   38.2645    4.0196 O   0  0  0  0  0  0  0  0  0  0  0  0
   33.1490   41.4505    3.6300 C   0  0  2  0  0  0  0  0  0  0  0  0
   32.4729   42.6897    3.6684 O   0  0  0  0  0  0  0  0  0  0  0  0
   33.7491   37.8957    7.0661 C   0  0  2  0  0  0  0  0  0  0  0  0
   38.4833   38.9299    5.5846 C   0  0  2  0  0  0  0  0  0  0  0  0
   37.6496   38.5081    6.6547 O   0  0  0  0  0  0  0  0  0  0  0  0
   43.8202   40.4241    4.8877 C   0  0  2  0  0  0  0  0  0  0  0  0
   43.6576   41.1663    6.1080 O   0  0  0  0  0  0  0  0  0  0  0  0
   32.2431   40.3222    4.1618 C   0  0  2  0  0  0  0  0  0  0  0  0
   33.0057   39.0548    4.1204 O   0  0  0  0  0  0  0  0  0  0  0  0
   35.0930   37.2082    7.6261 C   0  0  2  0  0  0  0  0  0  0  0  0
   36.0176   36.7809    6.5414 O   0  0  0  0  0  0  0  0  0  0  0  0
   37.5962   39.5763    4.5307 C   0  0  0  0  0  0  0  0  0  0  0  0
   42.4860   40.4465    4.0371 C   0  0  1  0  0  0  0  0  0  0  0  0
   41.3876   39.6652    4.7007 O   0  0  0  0  0  0  0  0  0  0  0  0
   30.9593   40.2368    3.3037 C   0  0  0  0  0  0  0  0  0  0  0  0
   30.0383   41.3792    3.4478 N   0  0  0  0  0  0  0  0  0  0  0  0
   34.7259   35.9414    8.4281 C   0  0  1  0  0  0  0  0  0  0  0  0
   35.9201   35.3287    8.9252 O   0  0  0  0  0  0  0  0  0  0  0  0
   41.9926   41.9031    3.6874 C   0  0  0  0  0  0  0  0  0  0  0  0
   41.5883   42.7621    4.8459 N   0  0  0  0  0  0  0  0  0  0  0  0
  1  2  1  1  0  0  0
  1  7  1  0  0  0  0
  1 30  1  0  0  0  0
  3  4  1  6  0  0  0
  3  9  1  0  0  0  0
  3 38  1  0  0  0  0
  5 10  1  0  0  0  0
  5 26  1  6  0  0  0
  5 32  1  0  0  0  0
  6 12  1  0  0  0  0
  6 35  1  0  0  0  0
  6 19  1  1  0  0  0
  7  8  1  1  0  0  0
  7 14  1  0  0  0  0
  8 33  1  0  0  0  0
  9 16  1  0  0  0  0
 10 11  1  1  0  0  0
 10 18  1  0  0  0  0
 12 13  1  1  0  0  0
 12 20  1  0  0  0  0
 14 15  1  6  0  0  0
 14 22  1  0  0  0  0
 16 17  1  6  0  0  0
 16 24  1  0  0  0  0
 18 19  1  1  0  0  0
 18 25  1  0  0  0  0
 20 21  1  6  0  0  0
 20 27  1  0  0  0  0
 22 23  1  1  0  0  0
 22 29  1  0  0  0  0
 24  2  1  1  0  0  0
 24 31  1  0  0  0  0
 25 26  1  1  0  0  0
 25 33  1  0  0  0  0
 27 28  1  1  0  0  0
 27 34  1  0  0  0  0
 29 30  1  0  0  0  0
 29 36  1  6  0  0  0
 31 32  1  6  0  0  0
 31 38  1  0  0  0  0
 34 35  1  0  0  0  0
 34 40  1  1  0  0  0
 36 37  1  0  0  0  0
 38 39  1  1  0  0  0
 40 41  1  0  0  0  0
M  END
>  <CHROM.1>
156.86837299,172.64376576,-68.83888920,-64.43137569,37.11108105,38.94167801
5.76678102,3.04880768,-0.05034142,2.45525705

>  <Name>
ligand

>  <RI>
0

>  <Rbt.Current_Directory>
/home/itssahil/PROJECTS/Mol_Feturizer/New_Systems/rnas/1ZZ5

>  <Rbt.Executable>
rbdock ($Id: //depot/dev/client3/rdock/2013.1/src/exe/rbdock.cxx#4 $)

>  <Rbt.Library>
libRbt.so (2013.1, Build901 2013/11/27)

>  <Rbt.Parameter_File>
/export/apps/rDock/src/rDock_2013.1_src/data/scripts/dock_solv.prm

>  <Rbt.Receptor>
prm/pocket_docking_5.prm

>  <SCORE>
-11.3953

>  <SCORE.INTER>
-10.9645

>  <SCORE.INTER.CONST>
1

>  <SCORE.INTER.POLAR>
0

>  <SCORE.INTER.ROT>
4

>  <SCORE.INTER.SOLV>
19.8016

>  <SCORE.INTER.VDW>
-20.1768

>  <SCORE.INTER.norm>
-0.267426

>  <SCORE.INTRA>
-0.430809

>  <SCORE.INTRA.DIHEDRAL>
-2.03371

>  <SCORE.INTRA.DIHEDRAL.0>
5.18357

>  <SCORE.INTRA.POLAR>
0

>  <SCORE.INTRA.POLAR.0>
0

>  <SCORE.INTRA.REPUL>
0

>  <SCORE.INTRA.REPUL.0>
0

>  <SCORE.INTRA.SOLV>
1.2027

>  <SCORE.INTRA.SOLV.lig_0>
-109.973

>  <SCORE.INTRA.VDW>
-0.0153036

>  <SCORE.INTRA.VDW.0>
-1.68646

>  <SCORE.INTRA.norm>
-0.0105075

>  <SCORE.RESTR>
0

>  <SCORE.RESTR.CAVITY>
0

>  <SCORE.RESTR.norm>
0

>  <SCORE.SYSTEM>
0

>  <SCORE.SYSTEM.CONST>
0

>  <SCORE.SYSTEM.DIHEDRAL>
0

>  <SCORE.SYSTEM.SOLV>
0

>  <SCORE.SYSTEM.norm>
0

>  <SCORE.heavy>
41

>  <SCORE.norm>
-0.277933

>  <RMSD>
1.664

$$$$
ligand
 OpenBabel11021811423D
libRbt.so/2013.1/901 2013/11/27
 41 45  0  0  0  0  0  0  0  0999 V2000
   34.7729   38.6770    5.3165 C   0  0  2  0  0  0  0  0  0  0  0  0
   34.2498   38.8688    6.6455 O   0  0  0  0  0  0  0  0  0  0  0  0
   33.0081   36.2519    9.8902 C   0  0  2  0  0  0  0  0  0  0  0  0
   32.3427   35.1307   10.6025 N   0  0  0  0  0  0  0  0  0  0  0  0
   37.2985   36.5392    7.7962 C   0  0  1  0  0  0  0  0  0  0  0  0
   41.7695   37.5084    7.3279 C   0  0  1  0  0  0  0  0  0  0  0  0
   35.8988   39.7072    5.0025 C   0  0  2  0  0  0  0  0  0  0  0  0
   36.9699   39.7062    6.0034 N   0  0  0  0  0  0  0  0  0  0  0  0
   31.9332   37.0513    9.0880 C   0  0  0  0  0  0  0  0  0  0  0  0
   38.2927   35.8413    6.8400 C   0  0  2  0  0  0  0  0  0  0  0  0
   38.7883   34.6156    7.3883 O   0  0  0  0  0  0  0  0  0  0  0  0
   42.9456   37.0559    8.2944 C   0  0  2  0  0  0  0  0  0  0  0  0
   42.5594   36.9920    9.7372 N   0  0  0  0  0  0  0  0  0  0  0  0
   35.2995   41.1331    4.8685 C   0  0  1  0  0  0  0  0  0  0  0  0
   36.3285   42.0678    4.5547 O   0  0  0  0  0  0  0  0  0  0  0  0
   32.5752   38.2382    8.3125 C   0  0  2  0  0  0  0  0  0  0  0  0
   31.4974   38.9434    7.5935 N   0  0  0  0  0  0  0  0  0  0  0  0
   39.3999   36.8830    6.6056 C   0  0  2  0  0  0  0  0  0  0  0  0
   40.5712   36.6669    7.4894 O   0  0  0  0  0  0  0  0  0  0  0  0
   44.1979   38.0281    8.1144 C   0  0  1  0  0  0  0  0  0  0  0  0
   44.7950   37.8756    6.8079 O   0  0  0  0  0  0  0  0  0  0  0  0
   34.2061   41.1388    3.7753 C   0  0  2  0  0  0  0  0  0  0  0  0
   33.6684   42.4371    3.6356 O   0  0  0  0  0  0  0  0  0  0  0  0
   33.6960   37.7084    7.3495 C   0  0  2  0  0  0  0  0  0  0  0  0
   38.7173   38.2167    6.8959 C   0  0  2  0  0  0  0  0  0  0  0  0
   37.6371   37.9269    7.7720 O   0  0  0  0  0  0  0  0  0  0  0  0
   43.8080   39.5472    8.3191 C   0  0  2  0  0  0  0  0  0  0  0  0
   43.4501   39.7624    9.6946 O   0  0  0  0  0  0  0  0  0  0  0  0
   33.0968   40.1280    4.1282 C   0  0  2  0  0  0  0  0  0  0  0  0
   33.7163   38.7933    4.2843 O   0  0  0  0  0  0  0  0  0  0  0  0
   34.8129   36.9231    8.2030 C   0  0  2  0  0  0  0  0  0  0  0  0
   35.8970   36.3593    7.3541 O   0  0  0  0  0  0  0  0  0  0  0  0
   38.1446   38.8944    5.6597 C   0  0  0  0  0  0  0  0  0  0  0  0
   42.6057   39.9255    7.3622 C   0  0  1  0  0  0  0  0  0  0  0  0
   41.4541   38.9719    7.5087 O   0  0  0  0  0  0  0  0  0  0  0  0
   32.0219   40.1249    3.0163 C   0  0  0  0  0  0  0  0  0  0  0  0
   30.8506   39.2710    3.2867 N   0  0  0  0  0  0  0  0  0  0  0  0
   34.1558   35.7361    8.9393 C   0  0  1  0  0  0  0  0  0  0  0  0
   35.1482   35.0366    9.6973 O   0  0  0  0  0  0  0  0  0  0  0  0
   42.1142   41.4141    7.5355 C   0  0  0  0  0  0  0  0  0  0  0  0
   41.0207   41.8625    6.6155 N   0  0  0  0  0  0  0  0  0  0  0  0
  1  2  1  1  0  0  0
  1  7  1  0  0  0  0
  1 30  1  0  0  0  0
  3  4  1  6  0  0  0
  3  9  1  0  0  0  0
  3 38  1  0  0  0  0
  5 10  1  0  0  0  0
  5 26  1  6  0  0  0
  5 32  1  0  0  0  0
  6 12  1  0  0  0  0
  6 35  1  0  0  0  0
  6 19  1  1  0  0  0
  7  8  1  1  0  0  0
  7 14  1  0  0  0  0
  8 33  1  0  0  0  0
  9 16  1  0  0  0  0
 10 11  1  1  0  0  0
 10 18  1  0  0  0  0
 12 13  1  1  0  0  0
 12 20  1  0  0  0  0
 14 15  1  6  0  0  0
 14 22  1  0  0  0  0
 16 17  1  6  0  0  0
 16 24  1  0  0  0  0
 18 19  1  1  0  0  0
 18 25  1  0  0  0  0
 20 21  1  6  0  0  0
 20 27  1  0  0  0  0
 22 23  1  1  0  0  0
 22 29  1  0  0  0  0
 24  2  1  1  0  0  0
 24 31  1  0  0  0  0
 25 26  1  1  0  0  0
 25 33  1  0  0  0  0
 27 28  1  1  0  0  0
 27 34  1  0  0  0  0
 29 30  1  0  0  0  0
 29 36  1  6  0  0  0
 31 32  1  6  0  0  0
 31 38  1  0  0  0  0
 34 35  1  0  0  0  0
 34 40  1  1  0  0  0
 36 37  1  0  0  0  0
 38 39  1  1  0  0  0
 40 41  1  0  0  0  0
M  END
>  <CHROM.1>
175.25421860,-175.99605485,-175.54493348,177.20099509,37.23790457,38.39214323
6.95451515,-2.99988298,0.12286456,2.42739045

>  <Name>
ligand

>  <RI>
0

>  <Rbt.Current_Directory>
/home/itssahil/PROJECTS/Mol_Feturizer/New_Systems/rnas/1ZZ5

>  <Rbt.Executable>
rbdock ($Id: //depot/dev/client3/rdock/2013.1/src/exe/rbdock.cxx#4 $)

>  <Rbt.Library>
libRbt.so (2013.1, Build901 2013/11/27)

>  <Rbt.Parameter_File>
/export/apps/rDock/src/rDock_2013.1_src/data/scripts/dock_solv.prm

>  <Rbt.Receptor>
prm/pocket_docking_4.prm

>  <SCORE>
-10.6904

>  <SCORE.INTER>
-7.99368

>  <SCORE.INTER.CONST>
1

>  <SCORE.INTER.POLAR>
0

>  <SCORE.INTER.ROT>
4

>  <SCORE.INTER.SOLV>
18.8808

>  <SCORE.INTER.VDW>
-17.8894

>  <SCORE.INTER.norm>
-0.194968

>  <SCORE.INTRA>
-2.69672

>  <SCORE.INTRA.DIHEDRAL>
-4.65804

>  <SCORE.INTRA.DIHEDRAL.0>
5.18357

>  <SCORE.INTRA.POLAR>
0

>  <SCORE.INTRA.POLAR.0>
0

>  <SCORE.INTRA.REPUL>
0

>  <SCORE.INTRA.REPUL.0>
0

>  <SCORE.INTRA.SOLV>
-1.00878

>  <SCORE.INTRA.SOLV.lig_0>
-109.973

>  <SCORE.INTRA.VDW>
0.136691

>  <SCORE.INTRA.VDW.0>
-1.68646

>  <SCORE.INTRA.norm>
-0.0657737

>  <SCORE.RESTR>
0

>  <SCORE.RESTR.CAVITY>
0

>  <SCORE.RESTR.norm>
0

>  <SCORE.SYSTEM>
0

>  <SCORE.SYSTEM.CONST>
0

>  <SCORE.SYSTEM.DIHEDRAL>
0

>  <SCORE.SYSTEM.SOLV>
0

>  <SCORE.SYSTEM.norm>
0

>  <SCORE.heavy>
41

>  <SCORE.norm>
-0.260742

>  <RMSD>
1.719

$$$$
ligand
 OpenBabel11021811423D
libRbt.so/2013.1/901 2013/11/27
 41 45  0  0  0  0  0  0  0  0999 V2000
   34.7777   38.6916    5.3214 C   0  0  2  0  0  0  0  0  0  0  0  0
   34.2571   38.8757    6.6523 O   0  0  0  0  0  0  0  0  0  0  0  0
   33.0185   36.2403    9.8832 C   0  0  2  0  0  0  0  0  0  0  0  0
   32.3532   35.1154   10.5898 N   0  0  0  0  0  0  0  0  0  0  0  0
   37.3057   36.5367    7.7839 C   0  0  1  0  0  0  0  0  0  0  0  0
   41.7699   37.5165    7.3260 C   0  0  1  0  0  0  0  0  0  0  0  0
   35.9040   39.7227    5.0117 C   0  0  2  0  0  0  0  0  0  0  0  0
   36.9768   39.7147    6.0108 N   0  0  0  0  0  0  0  0  0  0  0  0
   31.9430   37.0455    9.0876 C   0  0  0  0  0  0  0  0  0  0  0  0
   38.2976   35.8437    6.8218 C   0  0  2  0  0  0  0  0  0  0  0  0
   38.7931   34.6143    7.3619 O   0  0  0  0  0  0  0  0  0  0  0  0
   42.9435   37.0662    8.2966 C   0  0  2  0  0  0  0  0  0  0  0  0
   42.5482   36.9870    9.7362 N   0  0  0  0  0  0  0  0  0  0  0  0
   35.3058   41.1499    4.8873 C   0  0  1  0  0  0  0  0  0  0  0  0
   36.3351   42.0856    4.5774 O   0  0  0  0  0  0  0  0  0  0  0  0
   32.5846   38.2366    8.3183 C   0  0  2  0  0  0  0  0  0  0  0  0
   31.5063   38.9470    7.6053 N   0  0  0  0  0  0  0  0  0  0  0  0
   39.4054   36.8859    6.5919 C   0  0  2  0  0  0  0  0  0  0  0  0
   40.5779   36.6634    7.4724 O   0  0  0  0  0  0  0  0  0  0  0  0
   44.1885   38.0505    8.1331 C   0  0  1  0  0  0  0  0  0  0  0  0
   44.7956   37.9140    6.8294 O   0  0  0  0  0  0  0  0  0  0  0  0
   34.2105   41.1631    3.7960 C   0  0  2  0  0  0  0  0  0  0  0  0
   33.6738   42.4627    3.6650 O   0  0  0  0  0  0  0  0  0  0  0  0
   33.7034   37.7116    7.3503 C   0  0  2  0  0  0  0  0  0  0  0  0
   38.7243   38.2183    6.8914 C   0  0  2  0  0  0  0  0  0  0  0  0
   37.6454   37.9242    7.7675 O   0  0  0  0  0  0  0  0  0  0  0  0
   43.7841   39.5645    8.3476 C   0  0  2  0  0  0  0  0  0  0  0  0
   43.4151   39.7652    9.7224 O   0  0  0  0  0  0  0  0  0  0  0  0
   33.1010   40.1512    4.1447 C   0  0  2  0  0  0  0  0  0  0  0  0
   33.7196   38.8150    4.2916 O   0  0  0  0  0  0  0  0  0  0  0  0
   34.8210   36.9203    8.1971 C   0  0  2  0  0  0  0  0  0  0  0  0
   35.9032   36.3607    7.3430 O   0  0  0  0  0  0  0  0  0  0  0  0
   38.1503   38.9040    5.6603 C   0  0  0  0  0  0  0  0  0  0  0  0
   42.5850   39.9404    7.3857 C   0  0  1  0  0  0  0  0  0  0  0  0
   41.4407   38.9757    7.5166 O   0  0  0  0  0  0  0  0  0  0  0  0
   32.0242   40.1558    3.0345 C   0  0  0  0  0  0  0  0  0  0  0  0
   30.8583   39.2918    3.2961 N   0  0  0  0  0  0  0  0  0  0  0  0
   34.1642   35.7294    8.9273 C   0  0  1  0  0  0  0  0  0  0  0  0
   35.1572   35.0245    9.6794 O   0  0  0  0  0  0  0  0  0  0  0  0
   42.0795   41.4231    7.5679 C   0  0  0  0  0  0  0  0  0  0  0  0
   41.5632   41.7854    8.9264 N   0  0  0  0  0  0  0  0  0  0  0  0
  1  2  1  1  0  0  0
  1  7  1  0  0  0  0
  1 30  1  0  0  0  0
  3  4  1  6  0  0  0
  3  9  1  0  0  0  0
  3 38  1  0  0  0  0
  5 10  1  0  0  0  0
  5 26  1  6  0  0  0
  5 32  1  0  0  0  0
  6 12  1  0  0  0  0
  6 35  1  0  0  0  0
  6 19  1  1  0  0  0
  7  8  1  1  0  0  0
  7 14  1  0  0  0  0
  8 33  1  0  0  0  0
  9 16  1  0  0  0  0
 10 11  1  1  0  0  0
 10 18  1  0  0  0  0
 12 13  1  1  0  0  0
 12 20  1  0  0  0  0
 14 15  1  6  0  0  0
 14 22  1  0  0  0  0
 16 17  1  6  0  0  0
 16 24  1  0  0  0  0
 18 19  1  1  0  0  0
 18 25  1  0  0  0  0
 20 21  1  6  0  0  0
 20 27  1  0  0  0  0
 22 23  1  1  0  0  0
 22 29  1  0  0  0  0
 24  2  1  1  0  0  0
 24 31  1  0  0  0  0
 25 26  1  1  0  0  0
 25 33  1  0  0  0  0
 27 28  1  1  0  0  0
 27 34  1  0  0  0  0
 29 30  1  0  0  0  0
 29 36  1  6  0  0  0
 31 32  1  6  0  0  0
 31 38  1  0  0  0  0
 34 35  1  0  0  0  0
 34 40  1  1  0  0  0
 36 37  1  0  0  0  0
 38 39  1  1  0  0  0
 40 41  1  0  0  0  0
M  END
>  <CHROM.1>
176.05733737,-176.62419209,-176.07026785,-60.29780327,37.25226648,38.39779315
7.01490223,-2.99329389,0.13837025,2.43723469

>  <Name>
ligand

>  <RI>
0

>  <Rbt.Current_Directory>
/home/itssahil/PROJECTS/Mol_Feturizer/New_Systems/rnas/1ZZ5

>  <Rbt.Executable>
rbdock ($Id: //depot/dev/client3/rdock/2013.1/src/exe/rbdock.cxx#4 $)

>  <Rbt.Library>
libRbt.so (2013.1, Build901 2013/11/27)

>  <Rbt.Parameter_File>
/export/apps/rDock/src/rDock_2013.1_src/data/scripts/dock_solv.prm

>  <Rbt.Receptor>
prm/pocket_docking_4.prm

>  <SCORE>
-10.1514

>  <SCORE.INTER>
-7.9508

>  <SCORE.INTER.CONST>
1

>  <SCORE.INTER.POLAR>
0

>  <SCORE.INTER.ROT>
4

>  <SCORE.INTER.SOLV>
18.7757

>  <SCORE.INTER.VDW>
-17.8258

>  <SCORE.INTER.norm>
-0.193922

>  <SCORE.INTRA>
-2.20063

>  <SCORE.INTRA.DIHEDRAL>
-4.76175

>  <SCORE.INTRA.DIHEDRAL.0>
5.18357

>  <SCORE.INTRA.POLAR>
0

>  <SCORE.INTRA.POLAR.0>
0

>  <SCORE.INTRA.REPUL>
0

>  <SCORE.INTRA.REPUL.0>
0

>  <SCORE.INTRA.SOLV>
0.113193

>  <SCORE.INTRA.SOLV.lig_0>
-109.973

>  <SCORE.INTRA.VDW>
0.123651

>  <SCORE.INTRA.VDW.0>
-1.68646

>  <SCORE.INTRA.norm>
-0.0536738

>  <SCORE.RESTR>
0

>  <SCORE.RESTR.CAVITY>
0

>  <SCORE.RESTR.norm>
0

>  <SCORE.SYSTEM>
0

>  <SCORE.SYSTEM.CONST>
0

>  <SCORE.SYSTEM.DIHEDRAL>
0

>  <SCORE.SYSTEM.SOLV>
0

>  <SCORE.SYSTEM.norm>
0

>  <SCORE.heavy>
41

>  <SCORE.norm>
-0.247596

>  <RMSD>
1.762

$$$$
ligand
 OpenBabel11021811423D
libRbt.so/2013.1/901 2013/11/27
 41 45  0  0  0  0  0  0  0  0999 V2000
   34.6040   39.3094    4.8765 C   0  0  2  0  0  0  0  0  0  0  0  0
   34.0980   39.4041    6.2224 O   0  0  0  0  0  0  0  0  0  0  0  0
   33.7307   36.6761    9.5900 C   0  0  2  0  0  0  0  0  0  0  0  0
   33.4200   35.4454   10.3620 N   0  0  0  0  0  0  0  0  0  0  0  0
   37.7034   38.0267    7.2946 C   0  0  1  0  0  0  0  0  0  0  0  0
   41.6292   40.2347    6.7207 C   0  0  1  0  0  0  0  0  0  0  0  0
   35.3970   40.5917    4.4835 C   0  0  2  0  0  0  0  0  0  0  0  0
   36.4646   40.9173    5.4339 N   0  0  0  0  0  0  0  0  0  0  0  0
   32.4509   37.1255    8.8166 C   0  0  0  0  0  0  0  0  0  0  0  0
   38.8133   37.5860    6.3129 C   0  0  2  0  0  0  0  0  0  0  0  0
   39.6418   36.5608    6.8709 O   0  0  0  0  0  0  0  0  0  0  0  0
   42.6100   40.1714    5.4733 C   0  0  2  0  0  0  0  0  0  0  0  0
   43.4855   38.9599    5.4463 N   0  0  0  0  0  0  0  0  0  0  0  0
   34.4299   41.7976    4.3387 C   0  0  1  0  0  0  0  0  0  0  0  0
   35.1555   42.9619    3.9529 O   0  0  0  0  0  0  0  0  0  0  0  0
   32.7189   38.4107    7.9808 C   0  0  2  0  0  0  0  0  0  0  0  0
   31.4648   38.7718    7.2932 N   0  0  0  0  0  0  0  0  0  0  0  0
   39.5881   38.8774    6.0001 C   0  0  2  0  0  0  0  0  0  0  0  0
   40.8059   39.0184    6.8347 O   0  0  0  0  0  0  0  0  0  0  0  0
   43.5101   41.4879    5.4255 C   0  0  1  0  0  0  0  0  0  0  0  0
   42.7127   42.6565    5.1332 O   0  0  0  0  0  0  0  0  0  0  0  0
   33.3362   41.4669    3.2970 C   0  0  2  0  0  0  0  0  0  0  0  0
   32.4626   42.5663    3.1471 O   0  0  0  0  0  0  0  0  0  0  0  0
   33.9049   38.1654    6.9821 C   0  0  2  0  0  0  0  0  0  0  0  0
   38.5813   39.9883    6.2853 C   0  0  2  0  0  0  0  0  0  0  0  0
   37.6529   39.4524    7.2174 O   0  0  0  0  0  0  0  0  0  0  0  0
   44.2853   41.7300    6.7827 C   0  0  2  0  0  0  0  0  0  0  0  0
   45.2676   40.6951    6.9574 O   0  0  0  0  0  0  0  0  0  0  0  0
   32.5554   40.2092    3.7276 C   0  0  2  0  0  0  0  0  0  0  0  0
   33.5181   39.0974    3.8910 O   0  0  0  0  0  0  0  0  0  0  0  0
   35.2232   37.7430    7.8044 C   0  0  2  0  0  0  0  0  0  0  0  0
   36.3874   37.4596    6.9222 O   0  0  0  0  0  0  0  0  0  0  0  0
   37.8016   40.4390    5.0588 C   0  0  0  0  0  0  0  0  0  0  0  0
   43.2621   41.7400    7.9899 C   0  0  1  0  0  0  0  0  0  0  0  0
   42.3893   40.5172    7.9922 O   0  0  0  0  0  0  0  0  0  0  0  0
   31.4812   39.8744    2.6666 C   0  0  0  0  0  0  0  0  0  0  0  0
   30.4009   40.8700    2.5402 N   0  0  0  0  0  0  0  0  0  0  0  0
   34.9393   36.4521    8.6017 C   0  0  1  0  0  0  0  0  0  0  0  0
   36.1111   36.0750    9.3321 O   0  0  0  0  0  0  0  0  0  0  0  0
   43.9552   41.9251    9.3944 C   0  0  0  0  0  0  0  0  0  0  0  0
   44.8077   40.7883    9.8681 N   0  0  0  0  0  0  0  0  0  0  0  0
  1  2  1  1  0  0  0
  1  7  1  0  0  0  0
  1 30  1  0  0  0  0
  3  4  1  6  0  0  0
  3  9  1  0  0  0  0
  3 38  1  0  0  0  0
  5 10  1  0  0  0  0
  5 26  1  6  0  0  0
  5 32  1  0  0  0  0
  6 12  1  0  0  0  0
  6 35  1  0  0  0  0
  6 19  1  1  0  0  0
  7  8  1  1  0  0  0
  7 14  1  0  0  0  0
  8 33  1  0  0  0  0
  9 16  1  0  0  0  0
 10 11  1  1  0  0  0
 10 18  1  0  0  0  0
 12 13  1  1  0  0  0
 12 20  1  0  0  0  0
 14 15  1  6  0  0  0
 14 22  1  0  0  0  0
 16 17  1  6  0  0  0
 16 24  1  0  0  0  0
 18 19  1  1  0  0  0
 18 25  1  0  0  0  0
 20 21  1  1  0  0  0
 20 27  1  0  0  0  0
 22 23  1  1  0  0  0
 22 29  1  0  0  0  0
 24  2  1  1  0  0  0
 24 31  1  0  0  0  0
 25 26  1  1  0  0  0
 25 33  1  0  0  0  0
 27 28  1  1  0  0  0
 27 34  1  0  0  0  0
 29 30  1  0  0  0  0
 29 36  1  6  0  0  0
 31 32  1  6  0  0  0
 31 38  1  0  0  0  0
 34 35  1  0  0  0  0
 34 40  1  1  0  0  0
 36 37  1  0  0  0  0
 38 39  1  1  0  0  0
 40 41  1  0  0  0  0
M  END
>  <CHROM.1>
-176.62052779,-81.23409528,-66.11713448,-68.11836211,37.40941603,39.57461450
6.36870412,-3.12664438,0.19799085,2.32798976

>  <Name>
ligand

>  <RI>
0

>  <Rbt.Current_Directory>
/home/itssahil/PROJECTS/Mol_Feturizer/New_Systems/rnas/1ZZ5

>  <Rbt.Executable>
rbdock ($Id: //depot/dev/client3/rdock/2013.1/src/exe/rbdock.cxx#4 $)

>  <Rbt.Library>
libRbt.so (2013.1, Build901 2013/11/27)

>  <Rbt.Parameter_File>
/export/apps/rDock/src/rDock_2013.1_src/data/scripts/dock_solv.prm

>  <Rbt.Receptor>
prm/pocket_docking_2.prm

>  <SCORE>
-7.77841

>  <SCORE.INTER>
-8.01836

>  <SCORE.INTER.CONST>
1

>  <SCORE.INTER.POLAR>
0

>  <SCORE.INTER.ROT>
4

>  <SCORE.INTER.SOLV>
15.7801

>  <SCORE.INTER.VDW>
-16.8723

>  <SCORE.INTER.norm>
-0.19557

>  <SCORE.INTRA>
-0.211341

>  <SCORE.INTRA.DIHEDRAL>
-2.56066

>  <SCORE.INTRA.DIHEDRAL.0>
5.18357

>  <SCORE.INTRA.POLAR>
0

>  <SCORE.INTRA.POLAR.0>
0

>  <SCORE.INTRA.REPUL>
0

>  <SCORE.INTRA.REPUL.0>
0

>  <SCORE.INTRA.SOLV>
1.35395

>  <SCORE.INTRA.SOLV.lig_0>
-109.973

>  <SCORE.INTRA.VDW>
0.392014

>  <SCORE.INTRA.VDW.0>
-1.68646

>  <SCORE.INTRA.norm>
-0.00515466

>  <SCORE.RESTR>
0.451284

>  <SCORE.RESTR.CAVITY>
0.451284

>  <SCORE.RESTR.norm>
0.0110069

>  <SCORE.SYSTEM>
0

>  <SCORE.SYSTEM.CONST>
0

>  <SCORE.SYSTEM.DIHEDRAL>
0

>  <SCORE.SYSTEM.SOLV>
0

>  <SCORE.SYSTEM.norm>
0

>  <SCORE.heavy>
41

>  <SCORE.norm>
-0.189717

>  <RMSD>
1.807

$$$$
ligand
 OpenBabel11021811423D
libRbt.so/2013.1/901 2013/11/27
 41 45  0  0  0  0  0  0  0  0999 V2000
   33.7782   38.4447    5.2355 C   0  0  2  0  0  0  0  0  0  0  0  0
   33.6139   38.7229    6.6398 O   0  0  0  0  0  0  0  0  0  0  0  0
   33.7533   36.3731   10.2972 C   0  0  2  0  0  0  0  0  0  0  0  0
   33.5014   35.2663   11.2558 N   0  0  0  0  0  0  0  0  0  0  0  0
   37.2007   36.9850    7.0391 C   0  0  1  0  0  0  0  0  0  0  0  0
   41.2157   38.3049    5.0752 C   0  0  1  0  0  0  0  0  0  0  0  0
   34.5902   39.5727    4.5313 C   0  0  2  0  0  0  0  0  0  0  0  0
   35.8790   39.8380    5.1776 N   0  0  0  0  0  0  0  0  0  0  0  0
   32.3839   36.9164    9.7797 C   0  0  0  0  0  0  0  0  0  0  0  0
   37.9966   36.3181    5.8938 C   0  0  2  0  0  0  0  0  0  0  0  0
   38.8176   35.2464    6.3691 O   0  0  0  0  0  0  0  0  0  0  0  0
   42.6181   38.2788    5.8200 C   0  0  2  0  0  0  0  0  0  0  0  0
   42.5574   38.7085    7.2506 N   0  0  0  0  0  0  0  0  0  0  0  0
   33.7512   40.8773    4.4658 C   0  0  1  0  0  0  0  0  0  0  0  0
   34.4872   41.8982    3.7971 O   0  0  0  0  0  0  0  0  0  0  0  0
   32.5855   38.0770    8.7626 C   0  0  2  0  0  0  0  0  0  0  0  0
   31.2517   38.5373    8.3326 N   0  0  0  0  0  0  0  0  0  0  0  0
   38.8108   37.4645    5.2701 C   0  0  2  0  0  0  0  0  0  0  0  0
   40.1978   37.5177    5.7925 O   0  0  0  0  0  0  0  0  0  0  0  0
   43.6673   39.1843    5.0294 C   0  0  1  0  0  0  0  0  0  0  0  0
   43.9891   38.6104    3.7434 O   0  0  0  0  0  0  0  0  0  0  0  0
   32.4153   40.6024    3.7374 C   0  0  2  0  0  0  0  0  0  0  0  0
   31.6541   41.7892    3.6586 O   0  0  0  0  0  0  0  0  0  0  0  0
   33.4719   37.5918    7.5613 C   0  0  2  0  0  0  0  0  0  0  0  0
   38.0238   38.7183    5.6408 C   0  0  2  0  0  0  0  0  0  0  0  0
   37.2869   38.3926    6.8108 O   0  0  0  0  0  0  0  0  0  0  0  0
   43.1362   40.6576    4.8083 C   0  0  2  0  0  0  0  0  0  0  0  0
   43.0526   41.3258    6.0783 O   0  0  0  0  0  0  0  0  0  0  0  0
   31.6264   39.5005    4.4724 C   0  0  2  0  0  0  0  0  0  0  0  0
   32.4757   38.2910    4.5461 O   0  0  0  0  0  0  0  0  0  0  0  0
   34.8927   37.0743    8.1146 C   0  0  2  0  0  0  0  0  0  0  0  0
   35.7811   36.5644    7.0353 O   0  0  0  0  0  0  0  0  0  0  0  0
   37.0320   39.1577    4.5737 C   0  0  0  0  0  0  0  0  0  0  0  0
   41.7201   40.6166    4.1031 C   0  0  1  0  0  0  0  0  0  0  0  0
   40.7589   39.7215    4.8325 O   0  0  0  0  0  0  0  0  0  0  0  0
   30.3045   39.2173    3.7216 C   0  0  0  0  0  0  0  0  0  0  0  0
   29.3200   40.3143    3.7609 N   0  0  0  0  0  0  0  0  0  0  0  0
   34.6662   35.9068    9.0986 C   0  0  1  0  0  0  0  0  0  0  0  0
   35.9288   35.4453    9.5900 O   0  0  0  0  0  0  0  0  0  0  0  0
   41.0879   42.0454    3.8881 C   0  0  0  0  0  0  0  0  0  0  0  0
   41.9222   43.0325    3.1311 N   0  0  0  0  0  0  0  0  0  0  0  0
  1  2  1  1  0  0  0
  1  7  1  0  0  0  0
  1 30  1  0  0  0  0
  3  4  1  1  0  0  0
  3  9  1  0  0  0  0
  3 38  1  0  0  0  0
  5 10  1  0  0  0  0
  5 26  1  6  0  0  0
  5 32  1  0  0  0  0
  6 12  1  0  0  0  0
  6 35  1  0  0  0  0
  6 19  1  1  0  0  0
  7  8  1  1  0  0  0
  7 14  1  0  0  0  0
  8 33  1  0  0  0  0
  9 16  1  0  0  0  0
 10 11  1  1  0  0  0
 10 18  1  0  0  0  0
 12 13  1  1  0  0  0
 12 20  1  0  0  0  0
 14 15  1  6  0  0  0
 14 22  1  0  0  0  0
 16 17  1  6  0  0  0
 16 24  1  0  0  0  0
 18 19  1  1  0  0  0
 18 25  1  0  0  0  0
 20 21  1  6  0  0  0
 20 27  1  0  0  0  0
 22 23  1  1  0  0  0
 22 29  1  0  0  0  0
 24  2  1  6  0  0  0
 24 31  1  0  0  0  0
 25 26  1  1  0  0  0
 25 33  1  0  0  0  0
 27 28  1  1  0  0  0
 27 34  1  0  0  0  0
 29 30  1  0  0  0  0
 29 36  1  6  0  0  0
 31 32  1  6  0  0  0
 31 38  1  0  0  0  0
 34 35  1  0  0  0  0
 34 40  1  1  0  0  0
 36 37  1  0  0  0  0
 38 39  1  1  0  0  0
 40 41  1  0  0  0  0
M  END
>  <CHROM.1>
164.19195433,177.89671502,-68.03487366,55.56566651,36.68545454,38.71503499
5.95671690,2.94892826,-0.02545185,2.33173954

>  <Name>
ligand

>  <RI>
0

>  <Rbt.Current_Directory>
/home/itssahil/PROJECTS/Mol_Feturizer/New_Systems/rnas/1ZZ5

>  <Rbt.Executable>
rbdock ($Id: //depot/dev/client3/rdock/2013.1/src/exe/rbdock.cxx#4 $)

>  <Rbt.Library>
libRbt.so (2013.1, Build901 2013/11/27)

>  <Rbt.Parameter_File>
/export/apps/rDock/src/rDock_2013.1_src/data/scripts/dock_solv.prm

>  <Rbt.Receptor>
prm/pocket_docking_4.prm

>  <SCORE>
-10.4397

>  <SCORE.INTER>
-8.95598

>  <SCORE.INTER.CONST>
1

>  <SCORE.INTER.POLAR>
0

>  <SCORE.INTER.ROT>
4

>  <SCORE.INTER.SOLV>
24.3015

>  <SCORE.INTER.VDW>
-20.3378

>  <SCORE.INTER.norm>
-0.218439

>  <SCORE.INTRA>
-1.4837

>  <SCORE.INTRA.DIHEDRAL>
-3.47045

>  <SCORE.INTRA.DIHEDRAL.0>
5.18357

>  <SCORE.INTRA.POLAR>
0

>  <SCORE.INTRA.POLAR.0>
0

>  <SCORE.INTRA.REPUL>
0

>  <SCORE.INTRA.REPUL.0>
0

>  <SCORE.INTRA.SOLV>
0.101652

>  <SCORE.INTRA.SOLV.lig_0>
-109.973

>  <SCORE.INTRA.VDW>
0.200698

>  <SCORE.INTRA.VDW.0>
-1.68646

>  <SCORE.INTRA.norm>
-0.0361878

>  <SCORE.RESTR>
0

>  <SCORE.RESTR.CAVITY>
0

>  <SCORE.RESTR.norm>
0

>  <SCORE.SYSTEM>
0

>  <SCORE.SYSTEM.CONST>
0

>  <SCORE.SYSTEM.DIHEDRAL>
0

>  <SCORE.SYSTEM.SOLV>
0

>  <SCORE.SYSTEM.norm>
0

>  <SCORE.heavy>
41

>  <SCORE.norm>
-0.254626

>  <RMSD>
1.923

$$$$
ligand
 OpenBabel11021811423D
libRbt.so/2013.1/901 2013/11/27
 41 45  0  0  0  0  0  0  0  0999 V2000
   34.7335   39.5302    4.8218 C   0  0  2  0  0  0  0  0  0  0  0  0
   34.3354   39.4861    6.2061 O   0  0  0  0  0  0  0  0  0  0  0  0
   34.1542   36.4124    9.2780 C   0  0  2  0  0  0  0  0  0  0  0  0
   33.8703   35.1104    9.9349 N   0  0  0  0  0  0  0  0  0  0  0  0
   37.9736   37.9319    6.8331 C   0  0  1  0  0  0  0  0  0  0  0  0
   41.8750   40.1351    6.2369 C   0  0  1  0  0  0  0  0  0  0  0  0
   35.5286   40.8328    4.5078 C   0  0  2  0  0  0  0  0  0  0  0  0
   36.6747   41.0320    5.3998 N   0  0  0  0  0  0  0  0  0  0  0  0
   32.8313   36.9679    8.6619 C   0  0  0  0  0  0  0  0  0  0  0  0
   38.9921   37.5808    5.7244 C   0  0  2  0  0  0  0  0  0  0  0  0
   39.8328   36.4852    6.1007 O   0  0  0  0  0  0  0  0  0  0  0  0
   42.3165   40.5518    4.7694 C   0  0  2  0  0  0  0  0  0  0  0  0
   43.0197   39.4706    4.0135 N   0  0  0  0  0  0  0  0  0  0  0  0
   34.5865   42.0652    4.5713 C   0  0  1  0  0  0  0  0  0  0  0  0
   35.3118   43.2510    4.2570 O   0  0  0  0  0  0  0  0  0  0  0  0
   33.0692   38.3318    7.9511 C   0  0  2  0  0  0  0  0  0  0  0  0
   31.7762   38.7896    7.4084 N   0  0  0  0  0  0  0  0  0  0  0  0
   39.7756   38.8840    5.4921 C   0  0  2  0  0  0  0  0  0  0  0  0
   41.0574   38.9096    6.2376 O   0  0  0  0  0  0  0  0  0  0  0  0
   43.2377   41.8531    4.8307 C   0  0  1  0  0  0  0  0  0  0  0  0
   42.4854   43.0066    5.2668 O   0  0  0  0  0  0  0  0  0  0  0  0
   33.4072   41.8714    3.5904 C   0  0  2  0  0  0  0  0  0  0  0  0
   32.5551   42.9968    3.6300 O   0  0  0  0  0  0  0  0  0  0  0  0
   34.1676   38.1754    6.8406 C   0  0  2  0  0  0  0  0  0  0  0  0
   38.8245   39.9756    5.9748 C   0  0  2  0  0  0  0  0  0  0  0  0
   37.9563   39.3581    6.9145 O   0  0  0  0  0  0  0  0  0  0  0  0
   44.4766   41.6620    5.7952 C   0  0  2  0  0  0  0  0  0  0  0  0
   45.3674   40.6839    5.2327 O   0  0  0  0  0  0  0  0  0  0  0  0
   32.6277   40.5890    3.9434 C   0  0  2  0  0  0  0  0  0  0  0  0
   33.5694   39.4481    3.9088 O   0  0  0  0  0  0  0  0  0  0  0  0
   35.5333   37.6406    7.5050 C   0  0  2  0  0  0  0  0  0  0  0  0
   36.6178   37.4339    6.5075 O   0  0  0  0  0  0  0  0  0  0  0  0
   37.9653   40.5727    4.8700 C   0  0  0  0  0  0  0  0  0  0  0  0
   43.9767   41.2065    7.2259 C   0  0  1  0  0  0  0  0  0  0  0  0
   43.0714   40.0101    7.1463 O   0  0  0  0  0  0  0  0  0  0  0  0
   31.4662   40.3929    2.9413 C   0  0  0  0  0  0  0  0  0  0  0  0
   30.6072   39.2241    3.2067 N   0  0  0  0  0  0  0  0  0  0  0  0
   35.2765   36.2755    8.1784 C   0  0  1  0  0  0  0  0  0  0  0  0
   36.4903   35.7986    8.7682 O   0  0  0  0  0  0  0  0  0  0  0  0
   45.1525   40.9413    8.2431 C   0  0  0  0  0  0  0  0  0  0  0  0
   45.9956   42.1251    8.6051 N   0  0  0  0  0  0  0  0  0  0  0  0
  1  2  1  1  0  0  0
  1  7  1  0  0  0  0
  1 30  1  0  0  0  0
  3  4  1  6  0  0  0
  3  9  1  0  0  0  0
  3 38  1  0  0  0  0
  5 10  1  0  0  0  0
  5 26  1  6  0  0  0
  5 32  1  0  0  0  0
  6 12  1  0  0  0  0
  6 35  1  0  0  0  0
  6 19  1  6  0  0  0
  7  8  1  1  0  0  0
  7 14  1  0  0  0  0
  8 33  1  0  0  0  0
  9 16  1  0  0  0  0
 10 11  1  1  0  0  0
 10 18  1  0  0  0  0
 12 13  1  1  0  0  0
 12 20  1  0  0  0  0
 14 15  1  6  0  0  0
 14 22  1  0  0  0  0
 16 17  1  6  0  0  0
 16 24  1  0  0  0  0
 18 19  1  1  0  0  0
 18 25  1  0  0  0  0
 20 21  1  1  0  0  0
 20 27  1  0  0  0  0
 22 23  1  1  0  0  0
 22 29  1  0  0  0  0
 24  2  1  1  0  0  0
 24 31  1  0  0  0  0
 25 26  1  1  0  0  0
 25 33  1  0  0  0  0
 27 28  1  6  0  0  0
 27 34  1  0  0  0  0
 29 30  1  0  0  0  0
 29 36  1  6  0  0  0
 31 32  1  6  0  0  0
 31 38  1  0  0  0  0
 34 35  1  0  0  0  0
 34 40  1  1  0  0  0
 36 37  1  0  0  0  0
 38 39  1  1  0  0  0
 40 41  1  0  0  0  0
M  END
>  <CHROM.1>
-174.04966160,-59.96325664,-177.59296109,63.91349191,37.64806779,39.59276798
6.03065209,3.04986016,0.13592717,2.44779302

>  <Name>
ligand

>  <RI>
0

>  <Rbt.Current_Directory>
/home/itssahil/PROJECTS/Mol_Feturizer/New_Systems/rnas/1ZZ5

>  <Rbt.Executable>
rbdock ($Id: //depot/dev/client3/rdock/2013.1/src/exe/rbdock.cxx#4 $)

>  <Rbt.Library>
libRbt.so (2013.1, Build901 2013/11/27)

>  <Rbt.Parameter_File>
/export/apps/rDock/src/rDock_2013.1_src/data/scripts/dock_solv.prm

>  <Rbt.Receptor>
prm/pocket_docking_3.prm

>  <SCORE>
-11.7027

>  <SCORE.INTER>
-9.39328

>  <SCORE.INTER.CONST>
1

>  <SCORE.INTER.POLAR>
0

>  <SCORE.INTER.ROT>
4

>  <SCORE.INTER.SOLV>
17.9426

>  <SCORE.INTER.VDW>
-18.5097

>  <SCORE.INTER.norm>
-0.229104

>  <SCORE.INTRA>
-2.30946

>  <SCORE.INTRA.DIHEDRAL>
-4.71129

>  <SCORE.INTRA.DIHEDRAL.0>
5.18357

>  <SCORE.INTRA.POLAR>
0

>  <SCORE.INTRA.POLAR.0>
0

>  <SCORE.INTRA.REPUL>
0

>  <SCORE.INTRA.REPUL.0>
0

>  <SCORE.INTRA.SOLV>
-0.882318

>  <SCORE.INTRA.SOLV.lig_0>
-109.973

>  <SCORE.INTRA.VDW>
0.487344

>  <SCORE.INTRA.VDW.0>
-1.68646

>  <SCORE.INTRA.norm>
-0.0563282

>  <SCORE.RESTR>
0

>  <SCORE.RESTR.CAVITY>
0

>  <SCORE.RESTR.norm>
0

>  <SCORE.SYSTEM>
0

>  <SCORE.SYSTEM.CONST>
0

>  <SCORE.SYSTEM.DIHEDRAL>
0

>  <SCORE.SYSTEM.SOLV>
0

>  <SCORE.SYSTEM.norm>
0

>  <SCORE.heavy>
41

>  <SCORE.norm>
-0.285433

>  <RMSD>
1.952

$$$$
ligand
 OpenBabel11021811423D
libRbt.so/2013.1/901 2013/11/27
 41 45  0  0  0  0  0  0  0  0999 V2000
   34.7491   39.5530    4.8193 C   0  0  2  0  0  0  0  0  0  0  0  0
   34.3488   39.5033    6.2027 O   0  0  0  0  0  0  0  0  0  0  0  0
   34.1572   36.4157    9.2600 C   0  0  2  0  0  0  0  0  0  0  0  0
   33.8699   35.1112    9.9105 N   0  0  0  0  0  0  0  0  0  0  0  0
   37.9832   37.9393    6.8279 C   0  0  1  0  0  0  0  0  0  0  0  0
   41.8979   40.1322    6.2336 C   0  0  1  0  0  0  0  0  0  0  0  0
   35.5471   40.8556    4.5124 C   0  0  2  0  0  0  0  0  0  0  0  0
   36.6923   41.0485    5.4071 N   0  0  0  0  0  0  0  0  0  0  0  0
   32.8363   36.9765    8.6445 C   0  0  0  0  0  0  0  0  0  0  0  0
   39.0027   37.5914    5.7192 C   0  0  2  0  0  0  0  0  0  0  0  0
   39.8408   36.4925    6.0917 O   0  0  0  0  0  0  0  0  0  0  0  0
   42.3421   40.5370    4.7636 C   0  0  2  0  0  0  0  0  0  0  0  0
   43.0353   39.4455    4.0133 N   0  0  0  0  0  0  0  0  0  0  0  0
   34.6073   42.0894    4.5803 C   0  0  1  0  0  0  0  0  0  0  0  0
   35.3353   43.2753    4.2725 O   0  0  0  0  0  0  0  0  0  0  0  0
   33.0778   38.3433    7.9404 C   0  0  2  0  0  0  0  0  0  0  0  0
   31.7865   38.8061    7.3979 N   0  0  0  0  0  0  0  0  0  0  0  0
   39.7890   38.8942    5.4941 C   0  0  2  0  0  0  0  0  0  0  0  0
   41.0697   38.9140    6.2416 O   0  0  0  0  0  0  0  0  0  0  0  0
   43.2747   41.8305    4.8172 C   0  0  1  0  0  0  0  0  0  0  0  0
   42.5327   42.9929    5.2474 O   0  0  0  0  0  0  0  0  0  0  0  0
   33.4291   41.9025    3.5967 C   0  0  2  0  0  0  0  0  0  0  0  0
   32.5790   43.0293    3.6402 O   0  0  0  0  0  0  0  0  0  0  0  0
   34.1776   38.1900    6.8308 C   0  0  2  0  0  0  0  0  0  0  0  0
   38.8393   39.9853    5.9804 C   0  0  2  0  0  0  0  0  0  0  0  0
   37.9685   39.3651    6.9159 O   0  0  0  0  0  0  0  0  0  0  0  0
   44.5125   41.6339    5.7819 C   0  0  2  0  0  0  0  0  0  0  0  0
   45.3943   40.6449    5.2243 O   0  0  0  0  0  0  0  0  0  0  0  0
   32.6467   40.6199    3.9426 C   0  0  2  0  0  0  0  0  0  0  0  0
   33.5863   39.4774    3.9041 O   0  0  0  0  0  0  0  0  0  0  0  0
   35.5413   37.6495    7.4948 C   0  0  2  0  0  0  0  0  0  0  0  0
   36.6270   37.4453    6.4980 O   0  0  0  0  0  0  0  0  0  0  0  0
   37.9828   40.5892    4.8771 C   0  0  0  0  0  0  0  0  0  0  0  0
   44.0096   41.1906    7.2154 C   0  0  1  0  0  0  0  0  0  0  0  0
   43.0939   40.0018    7.1430 O   0  0  0  0  0  0  0  0  0  0  0  0
   31.4863   40.4306    2.9379 C   0  0  0  0  0  0  0  0  0  0  0  0
   30.6149   39.2718    3.2060 N   0  0  0  0  0  0  0  0  0  0  0  0
   35.2809   36.2818    8.1615 C   0  0  1  0  0  0  0  0  0  0  0  0
   36.4929   35.7999    8.7509 O   0  0  0  0  0  0  0  0  0  0  0  0
   45.1837   40.9208    8.2333 C   0  0  0  0  0  0  0  0  0  0  0  0
   46.0359   42.0997    8.5901 N   0  0  0  0  0  0  0  0  0  0  0  0
  1  2  1  1  0  0  0
  1  7  1  0  0  0  0
  1 30  1  0  0  0  0
  3  4  1  6  0  0  0
  3  9  1  0  0  0  0
  3 38  1  0  0  0  0
  5 10  1  0  0  0  0
  5 26  1  6  0  0  0
  5 32  1  0  0  0  0
  6 12  1  0  0  0  0
  6 35  1  0  0  0  0
  6 19  1  6  0  0  0
  7  8  1  1  0  0  0
  7 14  1  0  0  0  0
  8 33  1  0  0  0  0
  9 16  1  0  0  0  0
 10 11  1  1  0  0  0
 10 18  1  0  0  0  0
 12 13  1  1  0  0  0
 12 20  1  0  0  0  0
 14 15  1  6  0  0  0
 14 22  1  0  0  0  0
 16 17  1  6  0  0  0
 16 24  1  0  0  0  0
 18 19  1  1  0  0  0
 18 25  1  0  0  0  0
 20 21  1  1  0  0  0
 20 27  1  0  0  0  0
 22 23  1  1  0  0  0
 22 29  1  0  0  0  0
 24  2  1  1  0  0  0
 24 31  1  0  0  0  0
 25 26  1  1  0  0  0
 25 33  1  0  0  0  0
 27 28  1  6  0  0  0
 27 34  1  0  0  0  0
 29 30  1  0  0  0  0
 29 36  1  6  0  0  0
 31 32  1  6  0  0  0
 31 38  1  0  0  0  0
 34 35  1  0  0  0  0
 34 40  1  1  0  0  0
 36 37  1  0  0  0  0
 38 39  1  1  0  0  0
 40 41  1  0  0  0  0
M  END
>  <CHROM.1>
-174.82718790,-59.80064929,-176.87924864,64.01393990,37.66555426,39.59949564
6.02560420,3.05211586,0.13274844,2.45120777

>  <Name>
ligand

>  <RI>
0

>  <Rbt.Current_Directory>
/home/itssahil/PROJECTS/Mol_Feturizer/New_Systems/rnas/1ZZ5

>  <Rbt.Executable>
rbdock ($Id: //depot/dev/client3/rdock/2013.1/src/exe/rbdock.cxx#4 $)

>  <Rbt.Library>
libRbt.so (2013.1, Build901 2013/11/27)

>  <Rbt.Parameter_File>
/export/apps/rDock/src/rDock_2013.1_src/data/scripts/dock_solv.prm

>  <Rbt.Receptor>
prm/pocket_docking_3.prm

>  <SCORE>
-11.7258

>  <SCORE.INTER>
-9.3968

>  <SCORE.INTER.CONST>
1

>  <SCORE.INTER.POLAR>
0

>  <SCORE.INTER.ROT>
4

>  <SCORE.INTER.SOLV>
17.8811

>  <SCORE.INTER.VDW>
-18.4916

>  <SCORE.INTER.norm>
-0.22919

>  <SCORE.INTRA>
-2.32895

>  <SCORE.INTRA.DIHEDRAL>
-4.73586

>  <SCORE.INTRA.DIHEDRAL.0>
5.18357

>  <SCORE.INTRA.POLAR>
0

>  <SCORE.INTRA.POLAR.0>
0

>  <SCORE.INTRA.REPUL>
0

>  <SCORE.INTRA.REPUL.0>
0

>  <SCORE.INTRA.SOLV>
-0.881942

>  <SCORE.INTRA.SOLV.lig_0>
-109.973

>  <SCORE.INTRA.VDW>
0.479951

>  <SCORE.INTRA.VDW.0>
-1.68646

>  <SCORE.INTRA.norm>
-0.0568037

>  <SCORE.RESTR>
0

>  <SCORE.RESTR.CAVITY>
0

>  <SCORE.RESTR.norm>
0

>  <SCORE.SYSTEM>
0

>  <SCORE.SYSTEM.CONST>
0

>  <SCORE.SYSTEM.DIHEDRAL>
0

>  <SCORE.SYSTEM.SOLV>
0

>  <SCORE.SYSTEM.norm>
0

>  <SCORE.heavy>
41

>  <SCORE.norm>
-0.285994

>  <RMSD>
1.956

$$$$
ligand
 OpenBabel11021811423D
libRbt.so/2013.1/901 2013/11/27
 41 45  0  0  0  0  0  0  0  0999 V2000
   34.7321   39.5835    4.8256 C   0  0  2  0  0  0  0  0  0  0  0  0
   34.3327   39.5265    6.2090 O   0  0  0  0  0  0  0  0  0  0  0  0
   34.1654   36.4281    9.2568 C   0  0  2  0  0  0  0  0  0  0  0  0
   33.8881   35.1195    9.9033 N   0  0  0  0  0  0  0  0  0  0  0  0
   37.9789   37.9880    6.8282 C   0  0  1  0  0  0  0  0  0  0  0  0
   41.8896   40.2032    6.2181 C   0  0  1  0  0  0  0  0  0  0  0  0
   35.5202   40.8930    4.5226 C   0  0  2  0  0  0  0  0  0  0  0  0
   36.6643   41.0917    5.4175 N   0  0  0  0  0  0  0  0  0  0  0  0
   32.8401   36.9808    8.6435 C   0  0  0  0  0  0  0  0  0  0  0  0
   39.0007   37.6512    5.7181 C   0  0  2  0  0  0  0  0  0  0  0  0
   39.8471   36.5575    6.0870 O   0  0  0  0  0  0  0  0  0  0  0  0
   42.3243   40.5922    4.7410 C   0  0  2  0  0  0  0  0  0  0  0  0
   43.0088   39.4913    3.9964 N   0  0  0  0  0  0  0  0  0  0  0  0
   34.5712   42.1195    4.5946 C   0  0  1  0  0  0  0  0  0  0  0  0
   35.2901   43.3118    4.2903 O   0  0  0  0  0  0  0  0  0  0  0  0
   33.0711   38.3516    7.9436 C   0  0  2  0  0  0  0  0  0  0  0  0
   31.7762   38.8063    7.4029 N   0  0  0  0  0  0  0  0  0  0  0  0
   39.7771   38.9605    5.4969 C   0  0  2  0  0  0  0  0  0  0  0  0
   41.0579   38.9877    6.2440 O   0  0  0  0  0  0  0  0  0  0  0  0
   43.2611   41.8834    4.7751 C   0  0  1  0  0  0  0  0  0  0  0  0
   42.5257   43.0522    5.1992 O   0  0  0  0  0  0  0  0  0  0  0  0
   33.3941   41.9268    3.6108 C   0  0  2  0  0  0  0  0  0  0  0  0
   32.5356   43.0470    3.6581 O   0  0  0  0  0  0  0  0  0  0  0  0
   34.1716   38.2100    6.8332 C   0  0  2  0  0  0  0  0  0  0  0  0
   38.8193   40.0430    5.9868 C   0  0  2  0  0  0  0  0  0  0  0  0
   37.9535   39.4134    6.9207 O   0  0  0  0  0  0  0  0  0  0  0  0
   44.5053   41.6924    5.7327 C   0  0  2  0  0  0  0  0  0  0  0  0
   45.3801   40.6954    5.1785 O   0  0  0  0  0  0  0  0  0  0  0  0
   32.6215   40.6372    3.9529 C   0  0  2  0  0  0  0  0  0  0  0  0
   33.5696   39.5020    3.9106 O   0  0  0  0  0  0  0  0  0  0  0  0
   35.5395   37.6777    7.4950 C   0  0  2  0  0  0  0  0  0  0  0  0
   36.6264   37.4849    6.4972 O   0  0  0  0  0  0  0  0  0  0  0  0
   37.9580   40.6438    4.8857 C   0  0  0  0  0  0  0  0  0  0  0  0
   44.0115   41.2648    7.1741 C   0  0  1  0  0  0  0  0  0  0  0  0
   43.0917   40.0781    7.1200 O   0  0  0  0  0  0  0  0  0  0  0  0
   31.4622   40.4423    2.9480 C   0  0  0  0  0  0  0  0  0  0  0  0
   30.5856   39.2899    3.2264 N   0  0  0  0  0  0  0  0  0  0  0  0
   35.2896   36.3061    8.1575 C   0  0  1  0  0  0  0  0  0  0  0  0
   36.5054   35.8315    8.7450 O   0  0  0  0  0  0  0  0  0  0  0  0
   45.1922   41.0014    8.1861 C   0  0  0  0  0  0  0  0  0  0  0  0
   46.0811   42.1689    8.4862 N   0  0  0  0  0  0  0  0  0  0  0  0
  1  2  1  1  0  0  0
  1  7  1  0  0  0  0
  1 30  1  0  0  0  0
  3  4  1  6  0  0  0
  3  9  1  0  0  0  0
  3 38  1  0  0  0  0
  5 10  1  0  0  0  0
  5 26  1  6  0  0  0
  5 32  1  0  0  0  0
  6 12  1  0  0  0  0
  6 35  1  0  0  0  0
  6 19  1  6  0  0  0
  7  8  1  1  0  0  0
  7 14  1  0  0  0  0
  8 33  1  0  0  0  0
  9 16  1  0  0  0  0
 10 11  1  1  0  0  0
 10 18  1  0  0  0  0
 12 13  1  1  0  0  0
 12 20  1  0  0  0  0
 14 15  1  6  0  0  0
 14 22  1  0  0  0  0
 16 17  1  6  0  0  0
 16 24  1  0  0  0  0
 18 19  1  1  0  0  0
 18 25  1  0  0  0  0
 20 21  1  1  0  0  0
 20 27  1  0  0  0  0
 22 23  1  1  0  0  0
 22 29  1  0  0  0  0
 24  2  1  1  0  0  0
 24 31  1  0  0  0  0
 25 26  1  1  0  0  0
 25 33  1  0  0  0  0
 27 28  1  6  0  0  0
 27 34  1  0  0  0  0
 29 30  1  0  0  0  0
 29 36  1  6  0  0  0
 31 32  1  6  0  0  0
 31 38  1  0  0  0  0
 34 35  1  0  0  0  0
 34 40  1  1  0  0  0
 36 37  1  0  0  0  0
 38 39  1  1  0  0  0
 40 41  1  0  0  0  0
M  END
>  <CHROM.1>
-176.01413634,-59.29601443,-175.85543579,61.84154689,37.65473470,39.64016590
6.01822181,3.04534777,0.13175795,2.45398132

>  <Name>
ligand

>  <RI>
0

>  <Rbt.Current_Directory>
/home/itssahil/PROJECTS/Mol_Feturizer/New_Systems/rnas/1ZZ5

>  <Rbt.Executable>
rbdock ($Id: //depot/dev/client3/rdock/2013.1/src/exe/rbdock.cxx#4 $)

>  <Rbt.Library>
libRbt.so (2013.1, Build901 2013/11/27)

>  <Rbt.Parameter_File>
/export/apps/rDock/src/rDock_2013.1_src/data/scripts/dock_solv.prm

>  <Rbt.Receptor>
prm/pocket_docking_3.prm

>  <SCORE>
-11.6945

>  <SCORE.INTER>
-9.34926

>  <SCORE.INTER.CONST>
1

>  <SCORE.INTER.POLAR>
0

>  <SCORE.INTER.ROT>
4

>  <SCORE.INTER.SOLV>
17.9058

>  <SCORE.INTER.VDW>
-18.4681

>  <SCORE.INTER.norm>
-0.228031

>  <SCORE.INTRA>
-2.34527

>  <SCORE.INTRA.DIHEDRAL>
-4.79908

>  <SCORE.INTRA.DIHEDRAL.0>
5.18357

>  <SCORE.INTRA.POLAR>
0

>  <SCORE.INTRA.POLAR.0>
0

>  <SCORE.INTRA.REPUL>
0

>  <SCORE.INTRA.REPUL.0>
0

>  <SCORE.INTRA.SOLV>
-0.833304

>  <SCORE.INTRA.SOLV.lig_0>
-109.973

>  <SCORE.INTRA.VDW>
0.470918

>  <SCORE.INTRA.VDW.0>
-1.68646

>  <SCORE.INTRA.norm>
-0.0572017

>  <SCORE.RESTR>
0

>  <SCORE.RESTR.CAVITY>
0

>  <SCORE.RESTR.norm>
0

>  <SCORE.SYSTEM>
0

>  <SCORE.SYSTEM.CONST>
0

>  <SCORE.SYSTEM.DIHEDRAL>
0

>  <SCORE.SYSTEM.SOLV>
0

>  <SCORE.SYSTEM.norm>
0

>  <SCORE.heavy>
41

>  <SCORE.norm>
-0.285233

>  <RMSD>
1.962

$$$$
ligand
 OpenBabel11021811423D
libRbt.so/2013.1/901 2013/11/27
 41 45  0  0  0  0  0  0  0  0999 V2000
   33.9825   39.0381    4.9858 C   0  0  2  0  0  0  0  0  0  0  0  0
   33.6496   39.2380    6.3735 O   0  0  0  0  0  0  0  0  0  0  0  0
   34.0731   36.9116   10.0240 C   0  0  2  0  0  0  0  0  0  0  0  0
   34.0236   35.7561   10.9566 N   0  0  0  0  0  0  0  0  0  0  0  0
   37.5087   38.4049    7.0505 C   0  0  1  0  0  0  0  0  0  0  0  0
   40.9182   41.0235    5.8435 C   0  0  1  0  0  0  0  0  0  0  0  0
   34.5495   40.3432    4.3511 C   0  0  2  0  0  0  0  0  0  0  0  0
   35.6832   40.8964    5.0981 N   0  0  0  0  0  0  0  0  0  0  0  0
   32.6567   37.1210    9.4013 C   0  0  0  0  0  0  0  0  0  0  0  0
   38.5268   37.9740    5.9699 C   0  0  2  0  0  0  0  0  0  0  0  0
   39.5436   37.1210    6.5057 O   0  0  0  0  0  0  0  0  0  0  0  0
   42.4468   41.1173    6.2641 C   0  0  2  0  0  0  0  0  0  0  0  0
   42.7245   40.6613    7.6605 N   0  0  0  0  0  0  0  0  0  0  0  0
   33.4280   41.4090    4.2230 C   0  0  1  0  0  0  0  0  0  0  0  0
   33.9445   42.5912    3.6175 O   0  0  0  0  0  0  0  0  0  0  0  0
   32.6490   38.3178    8.4065 C   0  0  2  0  0  0  0  0  0  0  0  0
   31.2802   38.4532    7.8736 N   0  0  0  0  0  0  0  0  0  0  0  0
   39.0853   39.2957    5.4157 C   0  0  2  0  0  0  0  0  0  0  0  0
   40.3746   39.6694    6.0463 O   0  0  0  0  0  0  0  0  0  0  0  0
   42.9701   42.6122    6.0712 C   0  0  1  0  0  0  0  0  0  0  0  0
   43.0107   42.9760    4.6738 O   0  0  0  0  0  0  0  0  0  0  0  0
   32.2573   40.8370    3.3905 C   0  0  2  0  0  0  0  0  0  0  0  0
   31.2405   41.8075    3.2550 O   0  0  0  0  0  0  0  0  0  0  0  0
   33.7151   38.0861    7.2777 C   0  0  2  0  0  0  0  0  0  0  0  0
   37.9931   40.3153    5.7265 C   0  0  2  0  0  0  0  0  0  0  0  0
   37.2698   39.7966    6.8336 O   0  0  0  0  0  0  0  0  0  0  0  0
   42.0733   43.6622    6.8423 C   0  0  2  0  0  0  0  0  0  0  0  0
   42.2264   43.4658    8.2581 O   0  0  0  0  0  0  0  0  0  0  0  0
   31.7041   39.5621    4.0578 C   0  0  2  0  0  0  0  0  0  0  0  0
   32.8120   38.5908    4.1951 O   0  0  0  0  0  0  0  0  0  0  0  0
   35.1724   37.9135    7.9402 C   0  0  2  0  0  0  0  0  0  0  0  0
   36.2371   37.6557    6.9333 O   0  0  0  0  0  0  0  0  0  0  0  0
   37.0088   40.5265    4.5854 C   0  0  0  0  0  0  0  0  0  0  0  0
   40.5595   43.4911    6.4141 C   0  0  1  0  0  0  0  0  0  0  0  0
   40.0966   42.0687    6.5553 O   0  0  0  0  0  0  0  0  0  0  0  0
   30.5507   38.9857    3.2039 C   0  0  0  0  0  0  0  0  0  0  0  0
   29.3556   39.8446    3.1130 N   0  0  0  0  0  0  0  0  0  0  0  0
   35.1601   36.7046    8.9001 C   0  0  1  0  0  0  0  0  0  0  0  0
   36.4556   36.5495    9.4886 O   0  0  0  0  0  0  0  0  0  0  0  0
   39.5812   44.4671    7.1742 C   0  0  0  0  0  0  0  0  0  0  0  0
   39.8878   45.9292    7.0671 N   0  0  0  0  0  0  0  0  0  0  0  0
  1  2  1  1  0  0  0
  1  7  1  0  0  0  0
  1 30  1  0  0  0  0
  3  4  1  1  0  0  0
  3  9  1  0  0  0  0
  3 38  1  0  0  0  0
  5 10  1  0  0  0  0
  5 26  1  6  0  0  0
  5 32  1  0  0  0  0
  6 12  1  0  0  0  0
  6 35  1  0  0  0  0
  6 19  1  1  0  0  0
  7  8  1  1  0  0  0
  7 14  1  0  0  0  0
  8 33  1  0  0  0  0
  9 16  1  0  0  0  0
 10 11  1  1  0  0  0
 10 18  1  0  0  0  0
 12 13  1  1  0  0  0
 12 20  1  0  0  0  0
 14 15  1  6  0  0  0
 14 22  1  0  0  0  0
 16 17  1  6  0  0  0
 16 24  1  0  0  0  0
 18 19  1  1  0  0  0
 18 25  1  0  0  0  0
 20 21  1  6  0  0  0
 20 27  1  0  0  0  0
 22 23  1  1  0  0  0
 22 29  1  0  0  0  0
 24  2  1  6  0  0  0
 24 31  1  0  0  0  0
 25 26  1  1  0  0  0
 25 33  1  0  0  0  0
 27 28  1  1  0  0  0
 27 34  1  0  0  0  0
 29 30  1  0  0  0  0
 29 36  1  6  0  0  0
 31 32  1  6  0  0  0
 31 38  1  0  0  0  0
 34 35  1  0  0  0  0
 34 40  1  1  0  0  0
 36 37  1  0  0  0  0
 38 39  1  1  0  0  0
 40 41  1  0  0  0  0
M  END
>  <CHROM.1>
-167.71347562,-165.19012242,-65.10184213,56.25865560,36.56685398,40.03915806
6.28437387,2.92106132,0.29404429,2.42306602

>  <Name>
ligand

>  <RI>
0

>  <Rbt.Current_Directory>
/home/itssahil/PROJECTS/Mol_Feturizer/New_Systems/rnas/1ZZ5

>  <Rbt.Executable>
rbdock ($Id: //depot/dev/client3/rdock/2013.1/src/exe/rbdock.cxx#4 $)

>  <Rbt.Library>
libRbt.so (2013.1, Build901 2013/11/27)

>  <Rbt.Parameter_File>
/export/apps/rDock/src/rDock_2013.1_src/data/scripts/dock_solv.prm

>  <Rbt.Receptor>
prm/pocket_docking_8.prm

>  <SCORE>
-9.80043

>  <SCORE.INTER>
-8.94664

>  <SCORE.INTER.CONST>
1

>  <SCORE.INTER.POLAR>
0

>  <SCORE.INTER.ROT>
4

>  <SCORE.INTER.SOLV>
17.2007

>  <SCORE.INTER.VDW>
-17.9647

>  <SCORE.INTER.norm>
-0.218211

>  <SCORE.INTRA>
-0.853783

>  <SCORE.INTRA.DIHEDRAL>
-3.08447

>  <SCORE.INTRA.DIHEDRAL.0>
5.18357

>  <SCORE.INTRA.POLAR>
0

>  <SCORE.INTRA.POLAR.0>
0

>  <SCORE.INTRA.REPUL>
0

>  <SCORE.INTRA.REPUL.0>
0

>  <SCORE.INTRA.SOLV>
0.199873

>  <SCORE.INTRA.SOLV.lig_0>
-109.973

>  <SCORE.INTRA.VDW>
0.588516

>  <SCORE.INTRA.VDW.0>
-1.68646

>  <SCORE.INTRA.norm>
-0.020824

>  <SCORE.RESTR>
0

>  <SCORE.RESTR.CAVITY>
0

>  <SCORE.RESTR.norm>
0

>  <SCORE.SYSTEM>
0

>  <SCORE.SYSTEM.CONST>
0

>  <SCORE.SYSTEM.DIHEDRAL>
0

>  <SCORE.SYSTEM.SOLV>
0

>  <SCORE.SYSTEM.norm>
0

>  <SCORE.heavy>
41

>  <SCORE.norm>
-0.239035

>  <RMSD>
1.963

$$$$
ligand
 OpenBabel11021811423D
libRbt.so/2013.1/901 2013/11/27
 41 45  0  0  0  0  0  0  0  0999 V2000
   34.7190   39.4687    4.8085 C   0  0  2  0  0  0  0  0  0  0  0  0
   34.2963   39.4601    6.1861 O   0  0  0  0  0  0  0  0  0  0  0  0
   34.1118   36.4794    9.3482 C   0  0  2  0  0  0  0  0  0  0  0  0
   33.8384   35.1933   10.0401 N   0  0  0  0  0  0  0  0  0  0  0  0
   37.9487   37.9912    6.9260 C   0  0  1  0  0  0  0  0  0  0  0  0
   41.8455   40.2274    6.2939 C   0  0  1  0  0  0  0  0  0  0  0  0
   35.4971   40.7751    4.4685 C   0  0  2  0  0  0  0  0  0  0  0  0
   36.6230   41.0220    5.3742 N   0  0  0  0  0  0  0  0  0  0  0  0
   32.7911   36.9919    8.6917 C   0  0  0  0  0  0  0  0  0  0  0  0
   38.9934   37.6244    5.8472 C   0  0  2  0  0  0  0  0  0  0  0  0
   39.8459   36.5561    6.2724 O   0  0  0  0  0  0  0  0  0  0  0  0
   42.2730   40.5793    4.8053 C   0  0  2  0  0  0  0  0  0  0  0  0
   42.9663   39.4646    4.0900 N   0  0  0  0  0  0  0  0  0  0  0  0
   34.5328   41.9918    4.4769 C   0  0  1  0  0  0  0  0  0  0  0  0
   35.2431   43.1802    4.1389 O   0  0  0  0  0  0  0  0  0  0  0  0
   33.0183   38.3374    7.9432 C   0  0  2  0  0  0  0  0  0  0  0  0
   31.7278   38.7552    7.3636 N   0  0  0  0  0  0  0  0  0  0  0  0
   39.7583   38.9337    5.5887 C   0  0  2  0  0  0  0  0  0  0  0  0
   41.0256   39.0052    6.3558 O   0  0  0  0  0  0  0  0  0  0  0  0
   43.1973   41.8797    4.8011 C   0  0  1  0  0  0  0  0  0  0  0  0
   42.4517   43.0528    5.1944 O   0  0  0  0  0  0  0  0  0  0  0  0
   33.3753   41.7469    3.4815 C   0  0  2  0  0  0  0  0  0  0  0  0
   32.5032   42.8576    3.4709 O   0  0  0  0  0  0  0  0  0  0  0  0
   34.1396   38.1667    6.8579 C   0  0  2  0  0  0  0  0  0  0  0  0
   38.7798   40.0224    6.0201 C   0  0  2  0  0  0  0  0  0  0  0  0
   37.9052   39.4186    6.9629 O   0  0  0  0  0  0  0  0  0  0  0  0
   44.4455   41.7275    5.7604 C   0  0  2  0  0  0  0  0  0  0  0  0
   45.3286   40.7238    5.2319 O   0  0  0  0  0  0  0  0  0  0  0  0
   32.6118   40.4622    3.8601 C   0  0  2  0  0  0  0  0  0  0  0  0
   33.5736   39.3378    3.8778 O   0  0  0  0  0  0  0  0  0  0  0  0
   35.5018   37.6770    7.5629 C   0  0  2  0  0  0  0  0  0  0  0  0
   36.6080   37.4592    6.5919 O   0  0  0  0  0  0  0  0  0  0  0  0
   37.9308   40.5699    4.8822 C   0  0  0  0  0  0  0  0  0  0  0  0
   43.9593   41.3355    7.2144 C   0  0  1  0  0  0  0  0  0  0  0  0
   43.0509   40.1390    7.1958 O   0  0  0  0  0  0  0  0  0  0  0  0
   31.4725   40.2146    2.8440 C   0  0  0  0  0  0  0  0  0  0  0  0
   30.3809   41.2052    2.8807 N   0  0  0  0  0  0  0  0  0  0  0  0
   35.2563   36.3289    8.2736 C   0  0  1  0  0  0  0  0  0  0  0  0
   36.4671   35.8921    8.8996 O   0  0  0  0  0  0  0  0  0  0  0  0
   45.1448   41.1117    8.2303 C   0  0  0  0  0  0  0  0  0  0  0  0
   45.9836   42.3120    8.5451 N   0  0  0  0  0  0  0  0  0  0  0  0
  1  2  1  1  0  0  0
  1  7  1  0  0  0  0
  1 30  1  0  0  0  0
  3  4  1  6  0  0  0
  3  9  1  0  0  0  0
  3 38  1  0  0  0  0
  5 10  1  0  0  0  0
  5 26  1  6  0  0  0
  5 32  1  0  0  0  0
  6 12  1  0  0  0  0
  6 35  1  0  0  0  0
  6 19  1  6  0  0  0
  7  8  1  1  0  0  0
  7 14  1  0  0  0  0
  8 33  1  0  0  0  0
  9 16  1  0  0  0  0
 10 11  1  1  0  0  0
 10 18  1  0  0  0  0
 12 13  1  1  0  0  0
 12 20  1  0  0  0  0
 14 15  1  6  0  0  0
 14 22  1  0  0  0  0
 16 17  1  6  0  0  0
 16 24  1  0  0  0  0
 18 19  1  1  0  0  0
 18 25  1  0  0  0  0
 20 21  1  1  0  0  0
 20 27  1  0  0  0  0
 22 23  1  1  0  0  0
 22 29  1  0  0  0  0
 24  2  1  1  0  0  0
 24 31  1  0  0  0  0
 25 26  1  1  0  0  0
 25 33  1  0  0  0  0
 27 28  1  6  0  0  0
 27 34  1  0  0  0  0
 29 30  1  0  0  0  0
 29 36  1  6  0  0  0
 31 32  1  6  0  0  0
 31 38  1  0  0  0  0
 34 35  1  0  0  0  0
 34 40  1  1  0  0  0
 36 37  1  0  0  0  0
 38 39  1  1  0  0  0
 40 41  1  0  0  0  0
M  END
>  <CHROM.1>
-176.18938396,-57.93139559,-67.33044218,64.63338307,37.61352573,39.65782459
6.03395301,3.06607456,0.13848404,2.42422742

>  <Name>
ligand

>  <RI>
0

>  <Rbt.Current_Directory>
/home/itssahil/PROJECTS/Mol_Feturizer/New_Systems/rnas/1ZZ5

>  <Rbt.Executable>
rbdock ($Id: //depot/dev/client3/rdock/2013.1/src/exe/rbdock.cxx#4 $)

>  <Rbt.Library>
libRbt.so (2013.1, Build901 2013/11/27)

>  <Rbt.Parameter_File>
/export/apps/rDock/src/rDock_2013.1_src/data/scripts/dock_solv.prm

>  <Rbt.Receptor>
prm/pocket_docking_3.prm

>  <SCORE>
-11.2743

>  <SCORE.INTER>
-9.69193

>  <SCORE.INTER.CONST>
1

>  <SCORE.INTER.POLAR>
0

>  <SCORE.INTER.ROT>
4

>  <SCORE.INTER.SOLV>
16.7756

>  <SCORE.INTER.VDW>
-18.3198

>  <SCORE.INTER.norm>
-0.236388

>  <SCORE.INTRA>
-1.58234

>  <SCORE.INTRA.DIHEDRAL>
-4.60006

>  <SCORE.INTRA.DIHEDRAL.0>
5.18357

>  <SCORE.INTRA.POLAR>
0

>  <SCORE.INTRA.POLAR.0>
0

>  <SCORE.INTRA.REPUL>
0

>  <SCORE.INTRA.REPUL.0>
0

>  <SCORE.INTRA.SOLV>
0.289543

>  <SCORE.INTRA.SOLV.lig_0>
-109.973

>  <SCORE.INTRA.VDW>
0.572916

>  <SCORE.INTRA.VDW.0>
-1.68646

>  <SCORE.INTRA.norm>
-0.0385937

>  <SCORE.RESTR>
0

>  <SCORE.RESTR.CAVITY>
0

>  <SCORE.RESTR.norm>
0

>  <SCORE.SYSTEM>
0

>  <SCORE.SYSTEM.CONST>
0

>  <SCORE.SYSTEM.DIHEDRAL>
0

>  <SCORE.SYSTEM.SOLV>
0

>  <SCORE.SYSTEM.norm>
0

>  <SCORE.heavy>
41

>  <SCORE.norm>
-0.274982

>  <RMSD>
1.968

$$$$
ligand
 OpenBabel11021811423D
libRbt.so/2013.1/901 2013/11/27
 41 45  0  0  0  0  0  0  0  0999 V2000
   34.7297   39.4713    4.8064 C   0  0  2  0  0  0  0  0  0  0  0  0
   34.3105   39.4610    6.1850 O   0  0  0  0  0  0  0  0  0  0  0  0
   34.1224   36.4733    9.3403 C   0  0  2  0  0  0  0  0  0  0  0  0
   33.8459   35.1866   10.0297 N   0  0  0  0  0  0  0  0  0  0  0  0
   37.9590   37.9760    6.9118 C   0  0  1  0  0  0  0  0  0  0  0  0
   41.8654   40.1966    6.2710 C   0  0  1  0  0  0  0  0  0  0  0  0
   35.5120   40.7755    4.4674 C   0  0  2  0  0  0  0  0  0  0  0  0
   36.6412   41.0158    5.3709 N   0  0  0  0  0  0  0  0  0  0  0  0
   32.8021   36.9926    8.6884 C   0  0  0  0  0  0  0  0  0  0  0  0
   38.9995   37.6078    5.8294 C   0  0  2  0  0  0  0  0  0  0  0  0
   39.8489   36.5351    6.2497 O   0  0  0  0  0  0  0  0  0  0  0  0
   42.2789   40.5529    4.7796 C   0  0  2  0  0  0  0  0  0  0  0  0
   42.9572   39.4373    4.0514 N   0  0  0  0  0  0  0  0  0  0  0  0
   34.5525   41.9960    4.4814 C   0  0  1  0  0  0  0  0  0  0  0  0
   35.2666   43.1824    4.1445 O   0  0  0  0  0  0  0  0  0  0  0  0
   33.0327   38.3391    7.9427 C   0  0  2  0  0  0  0  0  0  0  0  0
   31.7423   38.7633    7.3674 N   0  0  0  0  0  0  0  0  0  0  0  0
   39.7689   38.9147    5.5721 C   0  0  2  0  0  0  0  0  0  0  0  0
   41.0384   38.9793    6.3361 O   0  0  0  0  0  0  0  0  0  0  0  0
   43.2115   41.8474    4.7715 C   0  0  1  0  0  0  0  0  0  0  0  0
   42.4778   43.0234    5.1785 O   0  0  0  0  0  0  0  0  0  0  0  0
   33.3915   41.7581    3.4883 C   0  0  2  0  0  0  0  0  0  0  0  0
   32.5238   42.8722    3.4828 O   0  0  0  0  0  0  0  0  0  0  0  0
   34.1505   38.1666    6.8540 C   0  0  2  0  0  0  0  0  0  0  0  0
   38.7957   40.0061    6.0087 C   0  0  2  0  0  0  0  0  0  0  0  0
   37.9213   39.4035    6.9523 O   0  0  0  0  0  0  0  0  0  0  0  0
   44.4691   41.6826    5.7164 C   0  0  2  0  0  0  0  0  0  0  0  0
   45.3399   40.6759    5.1735 O   0  0  0  0  0  0  0  0  0  0  0  0
   32.6239   40.4755    3.8659 C   0  0  2  0  0  0  0  0  0  0  0  0
   33.5813   39.3473    3.8783 O   0  0  0  0  0  0  0  0  0  0  0  0
   35.5126   37.6699    7.5543 C   0  0  2  0  0  0  0  0  0  0  0  0
   36.6154   37.4501    6.5799 O   0  0  0  0  0  0  0  0  0  0  0  0
   37.9460   40.5597    4.8743 C   0  0  0  0  0  0  0  0  0  0  0  0
   43.9962   41.2867    7.1737 C   0  0  1  0  0  0  0  0  0  0  0  0
   43.0799   40.0961    7.1593 O   0  0  0  0  0  0  0  0  0  0  0  0
   31.4811   40.2349    2.8521 C   0  0  0  0  0  0  0  0  0  0  0  0
   30.6173   39.0781    3.1523 N   0  0  0  0  0  0  0  0  0  0  0  0
   35.2636   36.3210    8.2623 C   0  0  1  0  0  0  0  0  0  0  0  0
   36.4743   35.8779    8.8841 O   0  0  0  0  0  0  0  0  0  0  0  0
   45.1912   41.0504    8.1755 C   0  0  0  0  0  0  0  0  0  0  0  0
   44.8171   40.7250    9.5888 N   0  0  0  0  0  0  0  0  0  0  0  0
  1  2  1  1  0  0  0
  1  7  1  0  0  0  0
  1 30  1  0  0  0  0
  3  4  1  6  0  0  0
  3  9  1  0  0  0  0
  3 38  1  0  0  0  0
  5 10  1  0  0  0  0
  5 26  1  6  0  0  0
  5 32  1  0  0  0  0
  6 12  1  0  0  0  0
  6 35  1  0  0  0  0
  6 19  1  6  0  0  0
  7  8  1  1  0  0  0
  7 14  1  0  0  0  0
  8 33  1  0  0  0  0
  9 16  1  0  0  0  0
 10 11  1  1  0  0  0
 10 18  1  0  0  0  0
 12 13  1  1  0  0  0
 12 20  1  0  0  0  0
 14 15  1  6  0  0  0
 14 22  1  0  0  0  0
 16 17  1  6  0  0  0
 16 24  1  0  0  0  0
 18 19  1  1  0  0  0
 18 25  1  0  0  0  0
 20 21  1  1  0  0  0
 20 27  1  0  0  0  0
 22 23  1  1  0  0  0
 22 29  1  0  0  0  0
 24  2  1  1  0  0  0
 24 31  1  0  0  0  0
 25 26  1  1  0  0  0
 25 33  1  0  0  0  0
 27 28  1  6  0  0  0
 27 34  1  0  0  0  0
 29 30  1  0  0  0  0
 29 36  1  6  0  0  0
 31 32  1  6  0  0  0
 31 38  1  0  0  0  0
 34 35  1  0  0  0  0
 34 40  1  1  0  0  0
 36 37  1  0  0  0  0
 38 39  1  1  0  0  0
 40 41  1  0  0  0  0
M  END
>  <CHROM.1>
-176.41611807,-57.34353497,-176.42439168,177.66957357,37.60478224,39.55578388
6.05293984,3.07160879,0.14186650,2.39545156

>  <Name>
ligand

>  <RI>
0

>  <Rbt.Current_Directory>
/home/itssahil/PROJECTS/Mol_Feturizer/New_Systems/rnas/1ZZ5

>  <Rbt.Executable>
rbdock ($Id: //depot/dev/client3/rdock/2013.1/src/exe/rbdock.cxx#4 $)

>  <Rbt.Library>
libRbt.so (2013.1, Build901 2013/11/27)

>  <Rbt.Parameter_File>
/export/apps/rDock/src/rDock_2013.1_src/data/scripts/dock_solv.prm

>  <Rbt.Receptor>
prm/pocket_docking_3.prm

>  <SCORE>
-11.9783

>  <SCORE.INTER>
-9.45859

>  <SCORE.INTER.CONST>
1

>  <SCORE.INTER.POLAR>
0

>  <SCORE.INTER.ROT>
4

>  <SCORE.INTER.SOLV>
18.0521

>  <SCORE.INTER.VDW>
-18.5898

>  <SCORE.INTER.norm>
-0.230697

>  <SCORE.INTRA>
-2.5197

>  <SCORE.INTRA.DIHEDRAL>
-4.78241

>  <SCORE.INTRA.DIHEDRAL.0>
5.18357

>  <SCORE.INTRA.POLAR>
0

>  <SCORE.INTRA.POLAR.0>
0

>  <SCORE.INTRA.REPUL>
0

>  <SCORE.INTRA.REPUL.0>
0

>  <SCORE.INTRA.SOLV>
-1.22662

>  <SCORE.INTRA.SOLV.lig_0>
-109.973

>  <SCORE.INTRA.VDW>
0.484818

>  <SCORE.INTRA.VDW.0>
-1.68646

>  <SCORE.INTRA.norm>
-0.061456

>  <SCORE.RESTR>
0

>  <SCORE.RESTR.CAVITY>
0

>  <SCORE.RESTR.norm>
0

>  <SCORE.SYSTEM>
0

>  <SCORE.SYSTEM.CONST>
0

>  <SCORE.SYSTEM.DIHEDRAL>
0

>  <SCORE.SYSTEM.SOLV>
0

>  <SCORE.SYSTEM.norm>
0

>  <SCORE.heavy>
41

>  <SCORE.norm>
-0.292153

>  <RMSD>
1.975

$$$$
ligand
 OpenBabel11021811423D
libRbt.so/2013.1/901 2013/11/27
 41 45  0  0  0  0  0  0  0  0999 V2000
   34.7579   39.5061    4.8598 C   0  0  2  0  0  0  0  0  0  0  0  0
   34.3543   39.4745    6.2428 O   0  0  0  0  0  0  0  0  0  0  0  0
   34.1742   36.4317    9.3455 C   0  0  2  0  0  0  0  0  0  0  0  0
   33.8935   35.1353   10.0146 N   0  0  0  0  0  0  0  0  0  0  0  0
   37.9969   37.9435    6.9008 C   0  0  1  0  0  0  0  0  0  0  0  0
   41.9114   40.1437    6.2636 C   0  0  1  0  0  0  0  0  0  0  0  0
   35.5484   40.8090    4.5356 C   0  0  2  0  0  0  0  0  0  0  0  0
   36.6899   41.0227    5.4303 N   0  0  0  0  0  0  0  0  0  0  0  0
   32.8514   36.9747    8.7182 C   0  0  0  0  0  0  0  0  0  0  0  0
   39.0216   37.5857    5.8001 C   0  0  2  0  0  0  0  0  0  0  0  0
   39.8657   36.4979    6.1912 O   0  0  0  0  0  0  0  0  0  0  0  0
   42.3292   40.5214    4.7788 C   0  0  2  0  0  0  0  0  0  0  0  0
   43.0038   39.4144    4.0343 N   0  0  0  0  0  0  0  0  0  0  0  0
   34.6005   42.0377    4.5826 C   0  0  1  0  0  0  0  0  0  0  0  0
   35.3217   43.2235    4.2590 O   0  0  0  0  0  0  0  0  0  0  0  0
   33.0860   38.3323    7.9944 C   0  0  2  0  0  0  0  0  0  0  0  0
   31.7933   38.7786    7.4416 N   0  0  0  0  0  0  0  0  0  0  0  0
   39.8001   38.8900    5.5576 C   0  0  2  0  0  0  0  0  0  0  0  0
   41.0787   38.9292    6.3081 O   0  0  0  0  0  0  0  0  0  0  0  0
   43.2676   41.8117    4.7926 C   0  0  1  0  0  0  0  0  0  0  0  0
   42.5385   42.9844    5.2168 O   0  0  0  0  0  0  0  0  0  0  0  0
   33.4262   41.8284    3.5988 C   0  0  2  0  0  0  0  0  0  0  0  0
   32.5688   42.9503    3.6233 O   0  0  0  0  0  0  0  0  0  0  0  0
   34.1898   38.1696    6.8901 C   0  0  2  0  0  0  0  0  0  0  0  0
   38.8421   39.9821    6.0250 C   0  0  2  0  0  0  0  0  0  0  0  0
   37.9728   39.3704    6.9675 O   0  0  0  0  0  0  0  0  0  0  0  0
   44.5227   41.6263    5.7370 C   0  0  2  0  0  0  0  0  0  0  0  0
   45.3900   40.6243    5.1799 O   0  0  0  0  0  0  0  0  0  0  0  0
   32.6511   40.5461    3.9618 C   0  0  2  0  0  0  0  0  0  0  0  0
   33.5981   39.4093    3.9428 O   0  0  0  0  0  0  0  0  0  0  0  0
   35.5551   37.6479    7.5656 C   0  0  2  0  0  0  0  0  0  0  0  0
   36.6448   37.4359    6.5748 O   0  0  0  0  0  0  0  0  0  0  0  0
   37.9847   40.5639    4.9106 C   0  0  0  0  0  0  0  0  0  0  0  0
   44.0453   41.2097    7.1871 C   0  0  1  0  0  0  0  0  0  0  0  0
   43.1237   40.0237    7.1524 O   0  0  0  0  0  0  0  0  0  0  0  0
   31.4947   40.3343    2.9570 C   0  0  0  0  0  0  0  0  0  0  0  0
   30.6039   39.2003    3.2647 N   0  0  0  0  0  0  0  0  0  0  0  0
   35.3017   36.2887    8.2519 C   0  0  1  0  0  0  0  0  0  0  0  0
   36.5152   35.8235    8.8517 O   0  0  0  0  0  0  0  0  0  0  0  0
   45.2374   40.9523    8.1872 C   0  0  0  0  0  0  0  0  0  0  0  0
   44.8593   40.6150    9.5967 N   0  0  0  0  0  0  0  0  0  0  0  0
  1  2  1  1  0  0  0
  1  7  1  0  0  0  0
  1 30  1  0  0  0  0
  3  4  1  6  0  0  0
  3  9  1  0  0  0  0
  3 38  1  0  0  0  0
  5 10  1  0  0  0  0
  5 26  1  6  0  0  0
  5 32  1  0  0  0  0
  6 12  1  0  0  0  0
  6 35  1  0  0  0  0
  6 19  1  6  0  0  0
  7  8  1  1  0  0  0
  7 14  1  0  0  0  0
  8 33  1  0  0  0  0
  9 16  1  0  0  0  0
 10 11  1  1  0  0  0
 10 18  1  0  0  0  0
 12 13  1  1  0  0  0
 12 20  1  0  0  0  0
 14 15  1  6  0  0  0
 14 22  1  0  0  0  0
 16 17  1  6  0  0  0
 16 24  1  0  0  0  0
 18 19  1  1  0  0  0
 18 25  1  0  0  0  0
 20 21  1  1  0  0  0
 20 27  1  0  0  0  0
 22 23  1  1  0  0  0
 22 29  1  0  0  0  0
 24  2  1  1  0  0  0
 24 31  1  0  0  0  0
 25 26  1  1  0  0  0
 25 33  1  0  0  0  0
 27 28  1  6  0  0  0
 27 34  1  0  0  0  0
 29 30  1  0  0  0  0
 29 36  1  6  0  0  0
 31 32  1  6  0  0  0
 31 38  1  0  0  0  0
 34 35  1  0  0  0  0
 34 40  1  1  0  0  0
 36 37  1  0  0  0  0
 38 39  1  1  0  0  0
 40 41  1  0  0  0  0
M  END
>  <CHROM.1>
-175.96505108,-58.27673522,-174.97506151,177.29385803,37.64518775,39.54556125
6.08311367,3.07180174,0.12977999,2.41419901

>  <Name>
ligand

>  <RI>
0

>  <Rbt.Current_Directory>
/home/itssahil/PROJECTS/Mol_Feturizer/New_Systems/rnas/1ZZ5

>  <Rbt.Executable>
rbdock ($Id: //depot/dev/client3/rdock/2013.1/src/exe/rbdock.cxx#4 $)

>  <Rbt.Library>
libRbt.so (2013.1, Build901 2013/11/27)

>  <Rbt.Parameter_File>
/export/apps/rDock/src/rDock_2013.1_src/data/scripts/dock_solv.prm

>  <Rbt.Receptor>
prm/pocket_docking_3.prm

>  <SCORE>
-11.91

>  <SCORE.INTER>
-9.40743

>  <SCORE.INTER.CONST>
1

>  <SCORE.INTER.POLAR>
0

>  <SCORE.INTER.ROT>
4

>  <SCORE.INTER.SOLV>
17.5695

>  <SCORE.INTER.VDW>
-18.3948

>  <SCORE.INTER.norm>
-0.229449

>  <SCORE.INTRA>
-2.50258

>  <SCORE.INTRA.DIHEDRAL>
-4.73339

>  <SCORE.INTRA.DIHEDRAL.0>
5.18357

>  <SCORE.INTRA.POLAR>
0

>  <SCORE.INTRA.POLAR.0>
0

>  <SCORE.INTRA.REPUL>
0

>  <SCORE.INTRA.REPUL.0>
0

>  <SCORE.INTRA.SOLV>
-1.23601

>  <SCORE.INTRA.SOLV.lig_0>
-109.973

>  <SCORE.INTRA.VDW>
0.482125

>  <SCORE.INTRA.VDW.0>
-1.68646

>  <SCORE.INTRA.norm>
-0.0610384

>  <SCORE.RESTR>
0

>  <SCORE.RESTR.CAVITY>
0

>  <SCORE.RESTR.norm>
0

>  <SCORE.SYSTEM>
0

>  <SCORE.SYSTEM.CONST>
0

>  <SCORE.SYSTEM.DIHEDRAL>
0

>  <SCORE.SYSTEM.SOLV>
0

>  <SCORE.SYSTEM.norm>
0

>  <SCORE.heavy>
41

>  <SCORE.norm>
-0.290488

>  <RMSD>
1.978

$$$$
ligand
 OpenBabel11021811423D
libRbt.so/2013.1/901 2013/11/27
 41 45  0  0  0  0  0  0  0  0999 V2000
   34.7310   39.3964    4.7295 C   0  0  2  0  0  0  0  0  0  0  0  0
   34.3302   39.3950    6.1136 O   0  0  0  0  0  0  0  0  0  0  0  0
   34.2144   36.4357    9.2990 C   0  0  2  0  0  0  0  0  0  0  0  0
   33.9602   35.1529   10.0041 N   0  0  0  0  0  0  0  0  0  0  0  0
   38.0030   37.9541    6.8059 C   0  0  1  0  0  0  0  0  0  0  0  0
   41.8355   40.2380    6.1613 C   0  0  1  0  0  0  0  0  0  0  0  0
   35.4954   40.7052    4.3680 C   0  0  2  0  0  0  0  0  0  0  0  0
   36.6338   40.9656    5.2541 N   0  0  0  0  0  0  0  0  0  0  0  0
   32.8803   36.9354    8.6598 C   0  0  0  0  0  0  0  0  0  0  0  0
   39.0329   37.5862    5.7133 C   0  0  2  0  0  0  0  0  0  0  0  0
   39.8987   36.5263    6.1324 O   0  0  0  0  0  0  0  0  0  0  0  0
   42.2481   40.6578    4.6863 C   0  0  2  0  0  0  0  0  0  0  0  0
   42.9841   39.5968    3.9331 N   0  0  0  0  0  0  0  0  0  0  0  0
   34.5237   41.9159    4.3832 C   0  0  1  0  0  0  0  0  0  0  0  0
   35.2210   43.1063    4.0257 O   0  0  0  0  0  0  0  0  0  0  0  0
   33.0872   38.2769    7.8985 C   0  0  2  0  0  0  0  0  0  0  0  0
   31.7851   38.6825    7.3364 N   0  0  0  0  0  0  0  0  0  0  0  0
   39.7853   38.8983    5.4335 C   0  0  2  0  0  0  0  0  0  0  0  0
   41.0640   38.9831    6.1800 O   0  0  0  0  0  0  0  0  0  0  0  0
   43.1208   41.9928    4.7280 C   0  0  1  0  0  0  0  0  0  0  0  0
   42.3301   43.1215    5.1613 O   0  0  0  0  0  0  0  0  0  0  0  0
   33.3521   41.6568    3.4079 C   0  0  2  0  0  0  0  0  0  0  0  0
   32.4730   42.7619    3.4034 O   0  0  0  0  0  0  0  0  0  0  0  0
   34.1923   38.1054    6.7968 C   0  0  2  0  0  0  0  0  0  0  0  0
   38.8069   39.9840    5.8728 C   0  0  2  0  0  0  0  0  0  0  0  0
   37.9511   39.3815    6.8334 O   0  0  0  0  0  0  0  0  0  0  0  0
   44.3745   41.8562    5.6825 C   0  0  2  0  0  0  0  0  0  0  0  0
   45.2959   40.9069    5.1201 O   0  0  0  0  0  0  0  0  0  0  0  0
   32.6029   40.3701    3.8076 C   0  0  2  0  0  0  0  0  0  0  0  0
   33.5719   39.2518    3.8179 O   0  0  0  0  0  0  0  0  0  0  0  0
   35.5685   37.6293    7.4836 C   0  0  2  0  0  0  0  0  0  0  0  0
   36.6606   37.4114    6.4968 O   0  0  0  0  0  0  0  0  0  0  0  0
   37.9366   40.5180    4.7446 C   0  0  0  0  0  0  0  0  0  0  0  0
   43.9048   41.3952    7.1216 C   0  0  1  0  0  0  0  0  0  0  0  0
   43.0439   40.1654    7.0606 O   0  0  0  0  0  0  0  0  0  0  0  0
   31.4493   40.1082    2.8114 C   0  0  0  0  0  0  0  0  0  0  0  0
   30.3570   41.0979    2.8513 N   0  0  0  0  0  0  0  0  0  0  0  0
   35.3428   36.2847    8.2075 C   0  0  1  0  0  0  0  0  0  0  0  0
   36.5661   35.8600    8.8173 O   0  0  0  0  0  0  0  0  0  0  0  0
   45.0987   41.1827    8.1300 C   0  0  0  0  0  0  0  0  0  0  0  0
   45.9154   42.3953    8.4554 N   0  0  0  0  0  0  0  0  0  0  0  0
  1  2  1  1  0  0  0
  1  7  1  0  0  0  0
  1 30  1  0  0  0  0
  3  4  1  6  0  0  0
  3  9  1  0  0  0  0
  3 38  1  0  0  0  0
  5 10  1  0  0  0  0
  5 26  1  6  0  0  0
  5 32  1  0  0  0  0
  6 12  1  0  0  0  0
  6 35  1  0  0  0  0
  6 19  1  6  0  0  0
  7  8  1  1  0  0  0
  7 14  1  0  0  0  0
  8 33  1  0  0  0  0
  9 16  1  0  0  0  0
 10 11  1  1  0  0  0
 10 18  1  0  0  0  0
 12 13  1  1  0  0  0
 12 20  1  0  0  0  0
 14 15  1  6  0  0  0
 14 22  1  0  0  0  0
 16 17  1  6  0  0  0
 16 24  1  0  0  0  0
 18 19  1  1  0  0  0
 18 25  1  0  0  0  0
 20 21  1  1  0  0  0
 20 27  1  0  0  0  0
 22 23  1  1  0  0  0
 22 29  1  0  0  0  0
 24  2  1  1  0  0  0
 24 31  1  0  0  0  0
 25 26  1  1  0  0  0
 25 33  1  0  0  0  0
 27 28  1  6  0  0  0
 27 34  1  0  0  0  0
 29 30  1  0  0  0  0
 29 36  1  6  0  0  0
 31 32  1  6  0  0  0
 31 38  1  0  0  0  0
 34 35  1  0  0  0  0
 34 40  1  1  0  0  0
 36 37  1  0  0  0  0
 38 39  1  1  0  0  0
 40 41  1  0  0  0  0
M  END
>  <CHROM.1>
-172.57006809,-59.24226908,-66.89165434,62.87233247,37.62568839,39.63766834
5.94262315,3.05233343,0.14505846,2.42471020

>  <Name>
ligand

>  <RI>
0

>  <Rbt.Current_Directory>
/home/itssahil/PROJECTS/Mol_Feturizer/New_Systems/rnas/1ZZ5

>  <Rbt.Executable>
rbdock ($Id: //depot/dev/client3/rdock/2013.1/src/exe/rbdock.cxx#4 $)

>  <Rbt.Library>
libRbt.so (2013.1, Build901 2013/11/27)

>  <Rbt.Parameter_File>
/export/apps/rDock/src/rDock_2013.1_src/data/scripts/dock_solv.prm

>  <Rbt.Receptor>
prm/pocket_docking_3.prm

>  <SCORE>
-11.1534

>  <SCORE.INTER>
-9.64431

>  <SCORE.INTER.CONST>
1

>  <SCORE.INTER.POLAR>
0

>  <SCORE.INTER.ROT>
4

>  <SCORE.INTER.SOLV>
17.4901

>  <SCORE.INTER.VDW>
-18.5262

>  <SCORE.INTER.norm>
-0.235227

>  <SCORE.INTRA>
-1.50912

>  <SCORE.INTRA.DIHEDRAL>
-4.48715

>  <SCORE.INTRA.DIHEDRAL.0>
5.18357

>  <SCORE.INTRA.POLAR>
0

>  <SCORE.INTRA.POLAR.0>
0

>  <SCORE.INTRA.REPUL>
0

>  <SCORE.INTRA.REPUL.0>
0

>  <SCORE.INTRA.SOLV>
0.32787

>  <SCORE.INTRA.SOLV.lig_0>
-109.973

>  <SCORE.INTRA.VDW>
0.570525

>  <SCORE.INTRA.VDW.0>
-1.68646

>  <SCORE.INTRA.norm>
-0.0368077

>  <SCORE.RESTR>
0

>  <SCORE.RESTR.CAVITY>
0

>  <SCORE.RESTR.norm>
0

>  <SCORE.SYSTEM>
0

>  <SCORE.SYSTEM.CONST>
0

>  <SCORE.SYSTEM.DIHEDRAL>
0

>  <SCORE.SYSTEM.SOLV>
0

>  <SCORE.SYSTEM.norm>
0

>  <SCORE.heavy>
41

>  <SCORE.norm>
-0.272035

>  <RMSD>
2.001

$$$$
ligand
 OpenBabel11021811423D
libRbt.so/2013.1/901 2013/11/27
 41 45  0  0  0  0  0  0  0  0999 V2000
   34.7638   39.5641    4.8299 C   0  0  2  0  0  0  0  0  0  0  0  0
   34.3615   39.5104    6.2125 O   0  0  0  0  0  0  0  0  0  0  0  0
   34.1772   36.4167    9.2642 C   0  0  2  0  0  0  0  0  0  0  0  0
   33.8941   35.1100    9.9119 N   0  0  0  0  0  0  0  0  0  0  0  0
   38.0010   37.9599    6.8410 C   0  0  1  0  0  0  0  0  0  0  0  0
   41.9228   40.1591    6.2321 C   0  0  1  0  0  0  0  0  0  0  0  0
   35.5571   40.8704    4.5266 C   0  0  2  0  0  0  0  0  0  0  0  0
   36.7000   41.0663    5.4235 N   0  0  0  0  0  0  0  0  0  0  0  0
   32.8551   36.9733    8.6475 C   0  0  0  0  0  0  0  0  0  0  0  0
   39.0238   37.6180    5.7334 C   0  0  2  0  0  0  0  0  0  0  0  0
   39.8656   36.5219    6.1054 O   0  0  0  0  0  0  0  0  0  0  0  0
   42.3436   40.5524    4.7521 C   0  0  2  0  0  0  0  0  0  0  0  0
   43.0138   39.4512    3.9952 N   0  0  0  0  0  0  0  0  0  0  0  0
   34.6122   42.1004    4.5951 C   0  0  1  0  0  0  0  0  0  0  0  0
   35.3360   43.2897    4.2906 O   0  0  0  0  0  0  0  0  0  0  0  0
   33.0923   38.3423    7.9462 C   0  0  2  0  0  0  0  0  0  0  0  0
   31.8000   38.8008    7.4024 N   0  0  0  0  0  0  0  0  0  0  0  0
   39.8052   38.9243    5.5119 C   0  0  2  0  0  0  0  0  0  0  0  0
   41.0846   38.9480    6.2616 O   0  0  0  0  0  0  0  0  0  0  0  0
   43.2878   41.8382    4.7819 C   0  0  1  0  0  0  0  0  0  0  0  0
   42.5636   43.0091    5.2193 O   0  0  0  0  0  0  0  0  0  0  0  0
   33.4364   41.9104    3.6092 C   0  0  2  0  0  0  0  0  0  0  0  0
   32.5817   43.0337    3.6533 O   0  0  0  0  0  0  0  0  0  0  0  0
   34.1945   38.1953    6.8381 C   0  0  2  0  0  0  0  0  0  0  0  0
   38.8503   40.0108    5.9985 C   0  0  2  0  0  0  0  0  0  0  0  0
   37.9805   39.3855    6.9315 O   0  0  0  0  0  0  0  0  0  0  0  0
   44.5412   41.6360    5.7250 C   0  0  2  0  0  0  0  0  0  0  0  0
   45.4044   40.6367    5.1568 O   0  0  0  0  0  0  0  0  0  0  0  0
   32.6586   40.6241    3.9516 C   0  0  2  0  0  0  0  0  0  0  0  0
   33.6028   39.4854    3.9126 O   0  0  0  0  0  0  0  0  0  0  0  0
   35.5592   37.6591    7.5034 C   0  0  2  0  0  0  0  0  0  0  0  0
   36.6474   37.4611    6.5081 O   0  0  0  0  0  0  0  0  0  0  0  0
   37.9932   40.6132    4.8949 C   0  0  0  0  0  0  0  0  0  0  0  0
   44.0608   41.2045    7.1698 C   0  0  1  0  0  0  0  0  0  0  0  0
   43.1339   40.0232    7.1203 O   0  0  0  0  0  0  0  0  0  0  0  0
   31.5007   40.4319    2.9446 C   0  0  0  0  0  0  0  0  0  0  0  0
   30.5863   39.3174    3.2544 N   0  0  0  0  0  0  0  0  0  0  0  0
   35.3032   36.2893    8.1672 C   0  0  1  0  0  0  0  0  0  0  0  0
   36.5162   35.8112    8.7578 O   0  0  0  0  0  0  0  0  0  0  0  0
   45.2508   40.9300    8.1677 C   0  0  0  0  0  0  0  0  0  0  0  0
   44.8699   40.5274    9.5591 N   0  0  0  0  0  0  0  0  0  0  0  0
  1  2  1  1  0  0  0
  1  7  1  0  0  0  0
  1 30  1  0  0  0  0
  3  4  1  6  0  0  0
  3  9  1  0  0  0  0
  3 38  1  0  0  0  0
  5 10  1  0  0  0  0
  5 26  1  6  0  0  0
  5 32  1  0  0  0  0
  6 12  1  0  0  0  0
  6 35  1  0  0  0  0
  6 19  1  6  0  0  0
  7  8  1  1  0  0  0
  7 14  1  0  0  0  0
  8 33  1  0  0  0  0
  9 16  1  0  0  0  0
 10 11  1  1  0  0  0
 10 18  1  0  0  0  0
 12 13  1  1  0  0  0
 12 20  1  0  0  0  0
 14 15  1  6  0  0  0
 14 22  1  0  0  0  0
 16 17  1  6  0  0  0
 16 24  1  0  0  0  0
 18 19  1  1  0  0  0
 18 25  1  0  0  0  0
 20 21  1  1  0  0  0
 20 27  1  0  0  0  0
 22 23  1  1  0  0  0
 22 29  1  0  0  0  0
 24  2  1  1  0  0  0
 24 31  1  0  0  0  0
 25 26  1  1  0  0  0
 25 33  1  0  0  0  0
 27 28  1  6  0  0  0
 27 34  1  0  0  0  0
 29 30  1  0  0  0  0
 29 36  1  6  0  0  0
 31 32  1  6  0  0  0
 31 38  1  0  0  0  0
 34 35  1  0  0  0  0
 34 40  1  1  0  0  0
 36 37  1  0  0  0  0
 38 39  1  1  0  0  0
 40 41  1  0  0  0  0
M  END
>  <CHROM.1>
-176.20989056,-58.40010261,-173.40292570,179.51840219,37.65303147,39.57397262
6.04942229,3.07351076,0.12599000,2.43065732

>  <Name>
ligand

>  <RI>
0

>  <Rbt.Current_Directory>
/home/itssahil/PROJECTS/Mol_Feturizer/New_Systems/rnas/1ZZ5

>  <Rbt.Executable>
rbdock ($Id: //depot/dev/client3/rdock/2013.1/src/exe/rbdock.cxx#4 $)

>  <Rbt.Library>
libRbt.so (2013.1, Build901 2013/11/27)

>  <Rbt.Parameter_File>
/export/apps/rDock/src/rDock_2013.1_src/data/scripts/dock_solv.prm

>  <Rbt.Receptor>
prm/pocket_docking_3.prm

>  <SCORE>
-11.9178

>  <SCORE.INTER>
-9.43815

>  <SCORE.INTER.CONST>
1

>  <SCORE.INTER.POLAR>
0

>  <SCORE.INTER.ROT>
4

>  <SCORE.INTER.SOLV>
17.7359

>  <SCORE.INTER.VDW>
-18.4707

>  <SCORE.INTER.norm>
-0.230199

>  <SCORE.INTRA>
-2.47967

>  <SCORE.INTRA.DIHEDRAL>
-4.70879

>  <SCORE.INTRA.DIHEDRAL.0>
5.18357

>  <SCORE.INTRA.POLAR>
0

>  <SCORE.INTRA.POLAR.0>
0

>  <SCORE.INTRA.REPUL>
0

>  <SCORE.INTRA.REPUL.0>
0

>  <SCORE.INTRA.SOLV>
-1.20696

>  <SCORE.INTRA.SOLV.lig_0>
-109.973

>  <SCORE.INTRA.VDW>
0.478201

>  <SCORE.INTRA.VDW.0>
-1.68646

>  <SCORE.INTRA.norm>
-0.0604799

>  <SCORE.RESTR>
0

>  <SCORE.RESTR.CAVITY>
0

>  <SCORE.RESTR.norm>
0

>  <SCORE.SYSTEM>
0

>  <SCORE.SYSTEM.CONST>
0

>  <SCORE.SYSTEM.DIHEDRAL>
0

>  <SCORE.SYSTEM.SOLV>
0

>  <SCORE.SYSTEM.norm>
0

>  <SCORE.heavy>
41

>  <SCORE.norm>
-0.290679

>  <RMSD>
2.002

$$$$
ligand
 OpenBabel11021811423D
libRbt.so/2013.1/901 2013/11/27
 41 45  0  0  0  0  0  0  0  0999 V2000
   34.8001   39.5850    4.8119 C   0  0  2  0  0  0  0  0  0  0  0  0
   34.3957   39.5200    6.1935 O   0  0  0  0  0  0  0  0  0  0  0  0
   34.2053   36.4012    9.2191 C   0  0  2  0  0  0  0  0  0  0  0  0
   33.9206   35.0893    9.8555 N   0  0  0  0  0  0  0  0  0  0  0  0
   38.0335   37.9626    6.8145 C   0  0  1  0  0  0  0  0  0  0  0  0
   41.9656   40.1586    6.2157 C   0  0  1  0  0  0  0  0  0  0  0  0
   35.5945   40.8934    4.5207 C   0  0  2  0  0  0  0  0  0  0  0  0
   36.7362   41.0813    5.4209 N   0  0  0  0  0  0  0  0  0  0  0  0
   32.8844   36.9636    8.6051 C   0  0  0  0  0  0  0  0  0  0  0  0
   39.0578   37.6294    5.7056 C   0  0  2  0  0  0  0  0  0  0  0  0
   39.8985   36.5297    6.0698 O   0  0  0  0  0  0  0  0  0  0  0  0
   42.3564   40.5685    4.7320 C   0  0  2  0  0  0  0  0  0  0  0  0
   43.0006   39.4724    3.9457 N   0  0  0  0  0  0  0  0  0  0  0  0
   34.6501   42.1232    4.5979 C   0  0  1  0  0  0  0  0  0  0  0  0
   35.3748   43.3147    4.3044 O   0  0  0  0  0  0  0  0  0  0  0  0
   33.1233   38.3382    7.9155 C   0  0  2  0  0  0  0  0  0  0  0  0
   31.8321   38.8019    7.3735 N   0  0  0  0  0  0  0  0  0  0  0  0
   39.8401   38.9371    5.4961 C   0  0  2  0  0  0  0  0  0  0  0  0
   41.1184   38.9539    6.2479 O   0  0  0  0  0  0  0  0  0  0  0  0
   43.3115   41.8463    4.7576 C   0  0  1  0  0  0  0  0  0  0  0  0
   42.6068   43.0169    5.2266 O   0  0  0  0  0  0  0  0  0  0  0  0
   33.4756   41.9420    3.6087 C   0  0  2  0  0  0  0  0  0  0  0  0
   32.6215   43.0653    3.6609 O   0  0  0  0  0  0  0  0  0  0  0  0
   34.2271   38.1998    6.8079 C   0  0  2  0  0  0  0  0  0  0  0  0
   38.8850   40.0200    5.9903 C   0  0  2  0  0  0  0  0  0  0  0  0
   38.0135   39.3874    6.9168 O   0  0  0  0  0  0  0  0  0  0  0  0
   44.5840   41.6217    5.6697 C   0  0  2  0  0  0  0  0  0  0  0  0
   45.4261   40.6234    5.0691 O   0  0  0  0  0  0  0  0  0  0  0  0
   32.6967   40.6532    3.9393 C   0  0  2  0  0  0  0  0  0  0  0  0
   33.6404   39.5145    3.8923 O   0  0  0  0  0  0  0  0  0  0  0  0
   35.5906   37.6575    7.4707 C   0  0  2  0  0  0  0  0  0  0  0  0
   36.6801   37.4672    6.4754 O   0  0  0  0  0  0  0  0  0  0  0  0
   38.0299   40.6319    4.8905 C   0  0  0  0  0  0  0  0  0  0  0  0
   44.1324   41.1746    7.1190 C   0  0  1  0  0  0  0  0  0  0  0  0
   43.1950   40.0013    7.0747 O   0  0  0  0  0  0  0  0  0  0  0  0
   31.5402   40.4700    2.9290 C   0  0  0  0  0  0  0  0  0  0  0  0
   30.6653   39.3120    3.1894 N   0  0  0  0  0  0  0  0  0  0  0  0
   35.3329   36.2823    8.1228 C   0  0  1  0  0  0  0  0  0  0  0  0
   36.5448   35.7988    8.7112 O   0  0  0  0  0  0  0  0  0  0  0  0
   45.3421   40.8774    8.0862 C   0  0  0  0  0  0  0  0  0  0  0  0
   44.9914   40.5470    9.5044 N   0  0  0  0  0  0  0  0  0  0  0  0
  1  2  1  1  0  0  0
  1  7  1  0  0  0  0
  1 30  1  0  0  0  0
  3  4  1  6  0  0  0
  3  9  1  0  0  0  0
  3 38  1  0  0  0  0
  5 10  1  0  0  0  0
  5 26  1  6  0  0  0
  5 32  1  0  0  0  0
  6 12  1  0  0  0  0
  6 35  1  0  0  0  0
  6 19  1  6  0  0  0
  7  8  1  1  0  0  0
  7 14  1  0  0  0  0
  8 33  1  0  0  0  0
  9 16  1  0  0  0  0
 10 11  1  1  0  0  0
 10 18  1  0  0  0  0
 12 13  1  1  0  0  0
 12 20  1  0  0  0  0
 14 15  1  6  0  0  0
 14 22  1  0  0  0  0
 16 17  1  6  0  0  0
 16 24  1  0  0  0  0
 18 19  1  1  0  0  0
 18 25  1  0  0  0  0
 20 21  1  1  0  0  0
 20 27  1  0  0  0  0
 22 23  1  1  0  0  0
 22 29  1  0  0  0  0
 24  2  1  1  0  0  0
 24 31  1  0  0  0  0
 25 26  1  1  0  0  0
 25 33  1  0  0  0  0
 27 28  1  6  0  0  0
 27 34  1  0  0  0  0
 29 30  1  0  0  0  0
 29 36  1  6  0  0  0
 31 32  1  6  0  0  0
 31 38  1  0  0  0  0
 34 35  1  0  0  0  0
 34 40  1  1  0  0  0
 36 37  1  0  0  0  0
 38 39  1  1  0  0  0
 40 41  1  0  0  0  0
M  END
>  <CHROM.1>
-176.98871483,-56.72055059,-176.39045670,175.63287626,37.69178467,39.57938840
6.02141733,3.07223792,0.12344626,2.43772753

>  <Name>
ligand

>  <RI>
0

>  <Rbt.Current_Directory>
/home/itssahil/PROJECTS/Mol_Feturizer/New_Systems/rnas/1ZZ5

>  <Rbt.Executable>
rbdock ($Id: //depot/dev/client3/rdock/2013.1/src/exe/rbdock.cxx#4 $)

>  <Rbt.Library>
libRbt.so (2013.1, Build901 2013/11/27)

>  <Rbt.Parameter_File>
/export/apps/rDock/src/rDock_2013.1_src/data/scripts/dock_solv.prm

>  <Rbt.Receptor>
prm/pocket_docking_3.prm

>  <SCORE>
-11.9979

>  <SCORE.INTER>
-9.49479

>  <SCORE.INTER.CONST>
1

>  <SCORE.INTER.POLAR>
0

>  <SCORE.INTER.ROT>
4

>  <SCORE.INTER.SOLV>
18.0541

>  <SCORE.INTER.VDW>
-18.6146

>  <SCORE.INTER.norm>
-0.23158

>  <SCORE.INTRA>
-2.50312

>  <SCORE.INTRA.DIHEDRAL>
-4.73074

>  <SCORE.INTRA.DIHEDRAL.0>
5.18357

>  <SCORE.INTRA.POLAR>
0

>  <SCORE.INTRA.POLAR.0>
0

>  <SCORE.INTRA.REPUL>
0

>  <SCORE.INTRA.REPUL.0>
0

>  <SCORE.INTRA.SOLV>
-1.24529

>  <SCORE.INTRA.SOLV.lig_0>
-109.973

>  <SCORE.INTRA.VDW>
0.484891

>  <SCORE.INTRA.VDW.0>
-1.68646

>  <SCORE.INTRA.norm>
-0.0610518

>  <SCORE.RESTR>
0

>  <SCORE.RESTR.CAVITY>
0

>  <SCORE.RESTR.norm>
0

>  <SCORE.SYSTEM>
0

>  <SCORE.SYSTEM.CONST>
0

>  <SCORE.SYSTEM.DIHEDRAL>
0

>  <SCORE.SYSTEM.SOLV>
0

>  <SCORE.SYSTEM.norm>
0

>  <SCORE.heavy>
41

>  <SCORE.norm>
-0.292632

>  <RMSD>
2.017

$$$$
ligand
 OpenBabel11021811423D
libRbt.so/2013.1/901 2013/11/27
 41 45  0  0  0  0  0  0  0  0999 V2000
   34.7577   39.5725    4.8090 C   0  0  2  0  0  0  0  0  0  0  0  0
   34.3584   39.5162    6.1924 O   0  0  0  0  0  0  0  0  0  0  0  0
   34.1735   36.4151    9.2366 C   0  0  2  0  0  0  0  0  0  0  0  0
   33.8887   35.1074    9.8816 N   0  0  0  0  0  0  0  0  0  0  0  0
   37.9956   37.9553    6.8087 C   0  0  1  0  0  0  0  0  0  0  0  0
   41.9191   40.1480    6.2002 C   0  0  1  0  0  0  0  0  0  0  0  0
   35.5535   40.8776    4.5073 C   0  0  2  0  0  0  0  0  0  0  0  0
   36.6989   41.0685    5.4021 N   0  0  0  0  0  0  0  0  0  0  0  0
   32.8514   36.9765    8.6243 C   0  0  0  0  0  0  0  0  0  0  0  0
   39.0150   37.6137    5.6978 C   0  0  2  0  0  0  0  0  0  0  0  0
   39.8550   36.5146    6.0651 O   0  0  0  0  0  0  0  0  0  0  0  0
   42.3271   40.5562    4.7206 C   0  0  2  0  0  0  0  0  0  0  0  0
   42.9897   39.4623    3.9466 N   0  0  0  0  0  0  0  0  0  0  0  0
   34.6118   42.1097    4.5811 C   0  0  1  0  0  0  0  0  0  0  0  0
   35.3377   43.2981    4.2780 O   0  0  0  0  0  0  0  0  0  0  0  0
   33.0903   38.3467    7.9259 C   0  0  2  0  0  0  0  0  0  0  0  0
   31.7979   38.8098    7.3863 N   0  0  0  0  0  0  0  0  0  0  0  0
   39.7990   38.9187    5.4779 C   0  0  2  0  0  0  0  0  0  0  0  0
   41.0802   38.9373    6.2247 O   0  0  0  0  0  0  0  0  0  0  0  0
   43.2726   41.8409    4.7552 C   0  0  1  0  0  0  0  0  0  0  0  0
   42.5532   43.0078    5.2108 O   0  0  0  0  0  0  0  0  0  0  0  0
   33.4332   41.9251    3.5974 C   0  0  2  0  0  0  0  0  0  0  0  0
   32.5814   43.0504    3.6463 O   0  0  0  0  0  0  0  0  0  0  0  0
   34.1897   38.1999    6.8150 C   0  0  2  0  0  0  0  0  0  0  0  0
   38.8479   40.0062    5.9695 C   0  0  2  0  0  0  0  0  0  0  0  0
   37.9787   39.3807    6.9028 O   0  0  0  0  0  0  0  0  0  0  0  0
   44.5341   41.6282    5.6851 C   0  0  2  0  0  0  0  0  0  0  0  0
   45.3915   40.6342    5.0991 O   0  0  0  0  0  0  0  0  0  0  0  0
   32.6531   40.6398    3.9382 C   0  0  2  0  0  0  0  0  0  0  0  0
   33.5944   39.4990    3.8942 O   0  0  0  0  0  0  0  0  0  0  0  0
   35.5546   37.6587    7.4758 C   0  0  2  0  0  0  0  0  0  0  0  0
   36.6399   37.4606    6.4775 O   0  0  0  0  0  0  0  0  0  0  0  0
   37.9898   40.6135    4.8694 C   0  0  0  0  0  0  0  0  0  0  0  0
   44.0661   41.1824    7.1295 C   0  0  1  0  0  0  0  0  0  0  0  0
   43.1379   40.0022    7.0762 O   0  0  0  0  0  0  0  0  0  0  0  0
   31.4924   40.4530    2.9334 C   0  0  0  0  0  0  0  0  0  0  0  0
   30.6201   39.2944    3.1998 N   0  0  0  0  0  0  0  0  0  0  0  0
   35.2967   36.2878    8.1367 C   0  0  1  0  0  0  0  0  0  0  0  0
   36.5099   35.8052    8.7233 O   0  0  0  0  0  0  0  0  0  0  0  0
   45.2647   40.8968    8.1140 C   0  0  0  0  0  0  0  0  0  0  0  0
   44.8957   40.5013    9.5107 N   0  0  0  0  0  0  0  0  0  0  0  0
  1  2  1  1  0  0  0
  1  7  1  0  0  0  0
  1 30  1  0  0  0  0
  3  4  1  6  0  0  0
  3  9  1  0  0  0  0
  3 38  1  0  0  0  0
  5 10  1  0  0  0  0
  5 26  1  6  0  0  0
  5 32  1  0  0  0  0
  6 12  1  0  0  0  0
  6 35  1  0  0  0  0
  6 19  1  6  0  0  0
  7  8  1  1  0  0  0
  7 14  1  0  0  0  0
  8 33  1  0  0  0  0
  9 16  1  0  0  0  0
 10 11  1  1  0  0  0
 10 18  1  0  0  0  0
 12 13  1  1  0  0  0
 12 20  1  0  0  0  0
 14 15  1  6  0  0  0
 14 22  1  0  0  0  0
 16 17  1  6  0  0  0
 16 24  1  0  0  0  0
 18 19  1  1  0  0  0
 18 25  1  0  0  0  0
 20 21  1  1  0  0  0
 20 27  1  0  0  0  0
 22 23  1  1  0  0  0
 22 29  1  0  0  0  0
 24  2  1  1  0  0  0
 24 31  1  0  0  0  0
 25 26  1  1  0  0  0
 25 33  1  0  0  0  0
 27 28  1  6  0  0  0
 27 34  1  0  0  0  0
 29 30  1  0  0  0  0
 29 36  1  6  0  0  0
 31 32  1  6  0  0  0
 31 38  1  0  0  0  0
 34 35  1  0  0  0  0
 34 40  1  1  0  0  0
 36 37  1  0  0  0  0
 38 39  1  1  0  0  0
 40 41  1  0  0  0  0
M  END
>  <CHROM.1>
-176.00207162,-57.94652736,-176.67518204,178.58537880,37.64973706,39.57294889
6.02053910,3.07304478,0.12360583,2.43310620

>  <Name>
ligand

>  <RI>
0

>  <Rbt.Current_Directory>
/home/itssahil/PROJECTS/Mol_Feturizer/New_Systems/rnas/1ZZ5

>  <Rbt.Executable>
rbdock ($Id: //depot/dev/client3/rdock/2013.1/src/exe/rbdock.cxx#4 $)

>  <Rbt.Library>
libRbt.so (2013.1, Build901 2013/11/27)

>  <Rbt.Parameter_File>
/export/apps/rDock/src/rDock_2013.1_src/data/scripts/dock_solv.prm

>  <Rbt.Receptor>
prm/pocket_docking_3.prm

>  <SCORE>
-11.9935

>  <SCORE.INTER>
-9.46616

>  <SCORE.INTER.CONST>
1

>  <SCORE.INTER.POLAR>
0

>  <SCORE.INTER.ROT>
4

>  <SCORE.INTER.SOLV>
18.0498

>  <SCORE.INTER.VDW>
-18.594

>  <SCORE.INTER.norm>
-0.230882

>  <SCORE.INTRA>
-2.52732

>  <SCORE.INTRA.DIHEDRAL>
-4.80087

>  <SCORE.INTRA.DIHEDRAL.0>
5.18357

>  <SCORE.INTRA.POLAR>
0

>  <SCORE.INTRA.POLAR.0>
0

>  <SCORE.INTRA.REPUL>
0

>  <SCORE.INTRA.REPUL.0>
0

>  <SCORE.INTRA.SOLV>
-1.22219

>  <SCORE.INTRA.SOLV.lig_0>
-109.973

>  <SCORE.INTRA.VDW>
0.484206

>  <SCORE.INTRA.VDW.0>
-1.68646

>  <SCORE.INTRA.norm>
-0.0616421

>  <SCORE.RESTR>
0

>  <SCORE.RESTR.CAVITY>
0

>  <SCORE.RESTR.norm>
0

>  <SCORE.SYSTEM>
0

>  <SCORE.SYSTEM.CONST>
0

>  <SCORE.SYSTEM.DIHEDRAL>
0

>  <SCORE.SYSTEM.SOLV>
0

>  <SCORE.SYSTEM.norm>
0

>  <SCORE.heavy>
41

>  <SCORE.norm>
-0.292524

>  <RMSD>
2.017

$$$$
ligand
 OpenBabel11021811423D
libRbt.so/2013.1/901 2013/11/27
 41 45  0  0  0  0  0  0  0  0999 V2000
   34.7565   39.3797    4.7639 C   0  0  2  0  0  0  0  0  0  0  0  0
   34.3426   39.3788    6.1442 O   0  0  0  0  0  0  0  0  0  0  0  0
   34.1866   36.4178    9.3263 C   0  0  2  0  0  0  0  0  0  0  0  0
   33.9213   35.1355   10.0281 N   0  0  0  0  0  0  0  0  0  0  0  0
   38.0038   37.9246    6.8700 C   0  0  1  0  0  0  0  0  0  0  0  0
   41.8791   40.1758    6.2163 C   0  0  1  0  0  0  0  0  0  0  0  0
   35.5287   40.6860    4.4105 C   0  0  2  0  0  0  0  0  0  0  0  0
   36.6597   40.9419    5.3074 N   0  0  0  0  0  0  0  0  0  0  0  0
   32.8603   36.9226    8.6750 C   0  0  0  0  0  0  0  0  0  0  0  0
   39.0426   37.5539    5.7869 C   0  0  2  0  0  0  0  0  0  0  0  0
   39.9007   36.4907    6.2133 O   0  0  0  0  0  0  0  0  0  0  0  0
   42.2684   40.5604    4.7254 C   0  0  2  0  0  0  0  0  0  0  0  0
   42.9571   39.4674    3.9732 N   0  0  0  0  0  0  0  0  0  0  0  0
   34.5611   41.9001    4.4173 C   0  0  1  0  0  0  0  0  0  0  0  0
   35.2660   43.0883    4.0673 O   0  0  0  0  0  0  0  0  0  0  0  0
   33.0790   38.2639    7.9166 C   0  0  2  0  0  0  0  0  0  0  0  0
   31.7837   38.6744    7.3425 N   0  0  0  0  0  0  0  0  0  0  0  0
   39.8022   38.8635    5.5150 C   0  0  2  0  0  0  0  0  0  0  0  0
   41.0741   38.9434    6.2735 O   0  0  0  0  0  0  0  0  0  0  0  0
   43.1783   41.8710    4.7249 C   0  0  1  0  0  0  0  0  0  0  0  0
   42.4292   43.0281    5.1575 O   0  0  0  0  0  0  0  0  0  0  0  0
   33.3979   41.6457    3.4309 C   0  0  2  0  0  0  0  0  0  0  0  0
   32.5228   42.7539    3.4189 O   0  0  0  0  0  0  0  0  0  0  0  0
   34.1938   38.0892    6.8252 C   0  0  2  0  0  0  0  0  0  0  0  0
   38.8234   39.9523    5.9458 C   0  0  2  0  0  0  0  0  0  0  0  0
   37.9566   39.3522    6.8980 O   0  0  0  0  0  0  0  0  0  0  0  0
   44.4498   41.7148    5.6524 C   0  0  2  0  0  0  0  0  0  0  0  0
   45.3313   40.7313    5.0848 O   0  0  0  0  0  0  0  0  0  0  0  0
   32.6405   40.3614    3.8227 C   0  0  2  0  0  0  0  0  0  0  0  0
   33.6055   39.2398    3.8413 O   0  0  0  0  0  0  0  0  0  0  0  0
   35.5619   37.6079    7.5245 C   0  0  2  0  0  0  0  0  0  0  0  0
   36.6624   37.3869    6.5478 O   0  0  0  0  0  0  0  0  0  0  0  0
   37.9656   40.4901    4.8099 C   0  0  0  0  0  0  0  0  0  0  0  0
   44.0014   41.2900    7.1094 C   0  0  1  0  0  0  0  0  0  0  0  0
   43.1058   40.0839    7.0887 O   0  0  0  0  0  0  0  0  0  0  0  0
   31.4955   40.1042    2.8155 C   0  0  0  0  0  0  0  0  0  0  0  0
   30.3916   41.0804    2.8669 N   0  0  0  0  0  0  0  0  0  0  0  0
   35.3247   36.2637    8.2454 C   0  0  1  0  0  0  0  0  0  0  0  0
   36.5407   35.8342    8.8663 O   0  0  0  0  0  0  0  0  0  0  0  0
   45.2123   41.0605    8.0935 C   0  0  0  0  0  0  0  0  0  0  0  0
   44.8610   40.7101    9.5067 N   0  0  0  0  0  0  0  0  0  0  0  0
  1  2  1  1  0  0  0
  1  7  1  0  0  0  0
  1 30  1  0  0  0  0
  3  4  1  6  0  0  0
  3  9  1  0  0  0  0
  3 38  1  0  0  0  0
  5 10  1  0  0  0  0
  5 26  1  6  0  0  0
  5 32  1  0  0  0  0
  6 12  1  0  0  0  0
  6 35  1  0  0  0  0
  6 19  1  6  0  0  0
  7  8  1  1  0  0  0
  7 14  1  0  0  0  0
  8 33  1  0  0  0  0
  9 16  1  0  0  0  0
 10 11  1  1  0  0  0
 10 18  1  0  0  0  0
 12 13  1  1  0  0  0
 12 20  1  0  0  0  0
 14 15  1  6  0  0  0
 14 22  1  0  0  0  0
 16 17  1  6  0  0  0
 16 24  1  0  0  0  0
 18 19  1  1  0  0  0
 18 25  1  0  0  0  0
 20 21  1  1  0  0  0
 20 27  1  0  0  0  0
 22 23  1  1  0  0  0
 22 29  1  0  0  0  0
 24  2  1  1  0  0  0
 24 31  1  0  0  0  0
 25 26  1  1  0  0  0
 25 33  1  0  0  0  0
 27 28  1  6  0  0  0
 27 34  1  0  0  0  0
 29 30  1  0  0  0  0
 29 36  1  6  0  0  0
 31 32  1  6  0  0  0
 31 38  1  0  0  0  0
 34 35  1  0  0  0  0
 34 40  1  1  0  0  0
 36 37  1  0  0  0  0
 38 39  1  1  0  0  0
 40 41  1  0  0  0  0
M  END
>  <CHROM.1>
-175.18312033,-56.85674523,-68.21916459,177.59989754,37.62354708,39.55434177
5.99912100,3.08444779,0.13434626,2.39986605

>  <Name>
ligand

>  <RI>
0

>  <Rbt.Current_Directory>
/home/itssahil/PROJECTS/Mol_Feturizer/New_Systems/rnas/1ZZ5

>  <Rbt.Executable>
rbdock ($Id: //depot/dev/client3/rdock/2013.1/src/exe/rbdock.cxx#4 $)

>  <Rbt.Library>
libRbt.so (2013.1, Build901 2013/11/27)

>  <Rbt.Parameter_File>
/export/apps/rDock/src/rDock_2013.1_src/data/scripts/dock_solv.prm

>  <Rbt.Receptor>
prm/pocket_docking_3.prm

>  <SCORE>
-11.4404

>  <SCORE.INTER>
-9.68844

>  <SCORE.INTER.CONST>
1

>  <SCORE.INTER.POLAR>
0

>  <SCORE.INTER.ROT>
4

>  <SCORE.INTER.SOLV>
17.1794

>  <SCORE.INTER.VDW>
-18.4521

>  <SCORE.INTER.norm>
-0.236303

>  <SCORE.INTRA>
-1.75198

>  <SCORE.INTRA.DIHEDRAL>
-4.52266

>  <SCORE.INTRA.DIHEDRAL.0>
5.18357

>  <SCORE.INTRA.POLAR>
0

>  <SCORE.INTRA.POLAR.0>
0

>  <SCORE.INTRA.REPUL>
0

>  <SCORE.INTRA.REPUL.0>
0

>  <SCORE.INTRA.SOLV>
-0.074687

>  <SCORE.INTRA.SOLV.lig_0>
-109.973

>  <SCORE.INTRA.VDW>
0.546689

>  <SCORE.INTRA.VDW.0>
-1.68646

>  <SCORE.INTRA.norm>
-0.0427313

>  <SCORE.RESTR>
0

>  <SCORE.RESTR.CAVITY>
0

>  <SCORE.RESTR.norm>
0

>  <SCORE.SYSTEM>
0

>  <SCORE.SYSTEM.CONST>
0

>  <SCORE.SYSTEM.DIHEDRAL>
0

>  <SCORE.SYSTEM.SOLV>
0

>  <SCORE.SYSTEM.norm>
0

>  <SCORE.heavy>
41

>  <SCORE.norm>
-0.279035

>  <RMSD>
2.028

$$$$
ligand
 OpenBabel11021811423D
libRbt.so/2013.1/901 2013/11/27
 41 45  0  0  0  0  0  0  0  0999 V2000
   34.7866   39.5864    4.7709 C   0  0  2  0  0  0  0  0  0  0  0  0
   34.3887   39.5289    6.1547 O   0  0  0  0  0  0  0  0  0  0  0  0
   34.2107   36.4259    9.1973 C   0  0  2  0  0  0  0  0  0  0  0  0
   33.9281   35.1175    9.8419 N   0  0  0  0  0  0  0  0  0  0  0  0
   38.0284   37.9720    6.7664 C   0  0  1  0  0  0  0  0  0  0  0  0
   41.9275   40.1844    6.1911 C   0  0  1  0  0  0  0  0  0  0  0  0
   35.5805   40.8927    4.4691 C   0  0  2  0  0  0  0  0  0  0  0  0
   36.7266   41.0844    5.3628 N   0  0  0  0  0  0  0  0  0  0  0  0
   32.8873   36.9861    8.5867 C   0  0  0  0  0  0  0  0  0  0  0  0
   39.0471   37.6323    5.6543 C   0  0  2  0  0  0  0  0  0  0  0  0
   39.8888   36.5340    6.0201 O   0  0  0  0  0  0  0  0  0  0  0  0
   42.3180   40.6496    4.7237 C   0  0  2  0  0  0  0  0  0  0  0  0
   42.9956   39.5949    3.9092 N   0  0  0  0  0  0  0  0  0  0  0  0
   34.6373   42.1236    4.5445 C   0  0  1  0  0  0  0  0  0  0  0  0
   35.3615   43.3130    4.2413 O   0  0  0  0  0  0  0  0  0  0  0  0
   33.1238   38.3569    7.8889 C   0  0  2  0  0  0  0  0  0  0  0  0
   31.8303   38.8187    7.3508 N   0  0  0  0  0  0  0  0  0  0  0  0
   39.8294   38.9383    5.4343 C   0  0  2  0  0  0  0  0  0  0  0  0
   41.1113   38.9581    6.1798 O   0  0  0  0  0  0  0  0  0  0  0  0
   43.2399   41.9499    4.7959 C   0  0  1  0  0  0  0  0  0  0  0  0
   42.5021   43.0872    5.2951 O   0  0  0  0  0  0  0  0  0  0  0  0
   33.4580   41.9381    3.5619 C   0  0  2  0  0  0  0  0  0  0  0  0
   32.6049   43.0624    3.6124 O   0  0  0  0  0  0  0  0  0  0  0  0
   34.2222   38.2120    6.7768 C   0  0  2  0  0  0  0  0  0  0  0  0
   38.8774   40.0245    5.9274 C   0  0  2  0  0  0  0  0  0  0  0  0
   38.0099   39.3973    6.8614 O   0  0  0  0  0  0  0  0  0  0  0  0
   44.5113   41.7296    5.7105 C   0  0  2  0  0  0  0  0  0  0  0  0
   45.3829   40.7721    5.0862 O   0  0  0  0  0  0  0  0  0  0  0  0
   32.6798   40.6517    3.9029 C   0  0  2  0  0  0  0  0  0  0  0  0
   33.6224   39.5120    3.8573 O   0  0  0  0  0  0  0  0  0  0  0  0
   35.5885   37.6721    7.4358 C   0  0  2  0  0  0  0  0  0  0  0  0
   36.6730   37.4759    6.4363 O   0  0  0  0  0  0  0  0  0  0  0  0
   38.0174   40.6313    4.8285 C   0  0  0  0  0  0  0  0  0  0  0  0
   44.0612   41.2267    7.1419 C   0  0  1  0  0  0  0  0  0  0  0  0
   43.1545   40.0319    7.0544 O   0  0  0  0  0  0  0  0  0  0  0  0
   31.5183   40.4641    2.8991 C   0  0  0  0  0  0  0  0  0  0  0  0
   30.6343   39.3175    3.1788 N   0  0  0  0  0  0  0  0  0  0  0  0
   35.3329   36.3005    8.0963 C   0  0  1  0  0  0  0  0  0  0  0  0
   36.5472   35.8191    8.6813 O   0  0  0  0  0  0  0  0  0  0  0  0
   45.2714   40.9306    8.1089 C   0  0  0  0  0  0  0  0  0  0  0  0
   46.2273   39.8654    7.6676 N   0  0  0  0  0  0  0  0  0  0  0  0
  1  2  1  1  0  0  0
  1  7  1  0  0  0  0
  1 30  1  0  0  0  0
  3  4  1  6  0  0  0
  3  9  1  0  0  0  0
  3 38  1  0  0  0  0
  5 10  1  0  0  0  0
  5 26  1  6  0  0  0
  5 32  1  0  0  0  0
  6 12  1  0  0  0  0
  6 35  1  0  0  0  0
  6 19  1  6  0  0  0
  7  8  1  1  0  0  0
  7 14  1  0  0  0  0
  8 33  1  0  0  0  0
  9 16  1  0  0  0  0
 10 11  1  1  0  0  0
 10 18  1  0  0  0  0
 12 13  1  1  0  0  0
 12 20  1  0  0  0  0
 14 15  1  6  0  0  0
 14 22  1  0  0  0  0
 16 17  1  6  0  0  0
 16 24  1  0  0  0  0
 18 19  1  1  0  0  0
 18 25  1  0  0  0  0
 20 21  1  1  0  0  0
 20 27  1  0  0  0  0
 22 23  1  1  0  0  0
 22 29  1  0  0  0  0
 24  2  1  1  0  0  0
 24 31  1  0  0  0  0
 25 26  1  1  0  0  0
 25 33  1  0  0  0  0
 27 28  1  6  0  0  0
 27 34  1  0  0  0  0
 29 30  1  0  0  0  0
 29 36  1  6  0  0  0
 31 32  1  6  0  0  0
 31 38  1  0  0  0  0
 34 35  1  0  0  0  0
 34 40  1  1  0  0  0
 36 37  1  0  0  0  0
 38 39  1  1  0  0  0
 40 41  1  0  0  0  0
M  END
>  <CHROM.1>
-174.02258560,-57.60875735,-175.69597036,-61.15017954,37.70177500,39.58771950
5.94966382,3.06377358,0.10984317,2.45795829

>  <Name>
ligand

>  <RI>
0

>  <Rbt.Current_Directory>
/home/itssahil/PROJECTS/Mol_Feturizer/New_Systems/rnas/1ZZ5

>  <Rbt.Executable>
rbdock ($Id: //depot/dev/client3/rdock/2013.1/src/exe/rbdock.cxx#4 $)

>  <Rbt.Library>
libRbt.so (2013.1, Build901 2013/11/27)

>  <Rbt.Parameter_File>
/export/apps/rDock/src/rDock_2013.1_src/data/scripts/dock_solv.prm

>  <Rbt.Receptor>
prm/pocket_docking_3.prm

>  <SCORE>
-11.282

>  <SCORE.INTER>
-9.50964

>  <SCORE.INTER.CONST>
1

>  <SCORE.INTER.POLAR>
0

>  <SCORE.INTER.ROT>
4

>  <SCORE.INTER.SOLV>
18.273

>  <SCORE.INTER.VDW>
-18.6974

>  <SCORE.INTER.norm>
-0.231942

>  <SCORE.INTRA>
-1.77236

>  <SCORE.INTRA.DIHEDRAL>
-4.67471

>  <SCORE.INTRA.DIHEDRAL.0>
5.18357

>  <SCORE.INTRA.POLAR>
0

>  <SCORE.INTRA.POLAR.0>
0

>  <SCORE.INTRA.REPUL>
0

>  <SCORE.INTRA.REPUL.0>
0

>  <SCORE.INTRA.SOLV>
0.446507

>  <SCORE.INTRA.SOLV.lig_0>
-109.973

>  <SCORE.INTRA.VDW>
0.341739

>  <SCORE.INTRA.VDW.0>
-1.68646

>  <SCORE.INTRA.norm>
-0.0432284

>  <SCORE.RESTR>
0

>  <SCORE.RESTR.CAVITY>
0

>  <SCORE.RESTR.norm>
0

>  <SCORE.SYSTEM>
0

>  <SCORE.SYSTEM.CONST>
0

>  <SCORE.SYSTEM.DIHEDRAL>
0

>  <SCORE.SYSTEM.SOLV>
0

>  <SCORE.SYSTEM.norm>
0

>  <SCORE.heavy>
41

>  <SCORE.norm>
-0.275171

>  <RMSD>
2.059

$$$$
ligand
 OpenBabel11021811423D
libRbt.so/2013.1/901 2013/11/27
 41 45  0  0  0  0  0  0  0  0999 V2000
   34.7989   39.6108    4.7879 C   0  0  2  0  0  0  0  0  0  0  0  0
   34.3983   39.5345    6.1700 O   0  0  0  0  0  0  0  0  0  0  0  0
   34.2125   36.3899    9.1691 C   0  0  2  0  0  0  0  0  0  0  0  0
   33.9278   35.0729    9.7950 N   0  0  0  0  0  0  0  0  0  0  0  0
   38.0359   37.9670    6.7672 C   0  0  1  0  0  0  0  0  0  0  0  0
   41.9523   40.1750    6.2047 C   0  0  1  0  0  0  0  0  0  0  0  0
   35.5942   40.9206    4.5057 C   0  0  2  0  0  0  0  0  0  0  0  0
   36.7387   41.0993    5.4042 N   0  0  0  0  0  0  0  0  0  0  0  0
   32.8906   36.9592    8.5637 C   0  0  0  0  0  0  0  0  0  0  0  0
   39.0565   37.6421    5.6526 C   0  0  2  0  0  0  0  0  0  0  0  0
   39.8969   36.5383    6.0048 O   0  0  0  0  0  0  0  0  0  0  0  0
   42.3346   40.6365    4.7340 C   0  0  2  0  0  0  0  0  0  0  0  0
   42.9908   39.5740    3.9122 N   0  0  0  0  0  0  0  0  0  0  0  0
   34.6516   42.1510    4.5962 C   0  0  1  0  0  0  0  0  0  0  0  0
   35.3771   43.3440    4.3109 O   0  0  0  0  0  0  0  0  0  0  0  0
   33.1293   38.3394    7.8853 C   0  0  2  0  0  0  0  0  0  0  0  0
   31.8372   38.8095    7.3511 N   0  0  0  0  0  0  0  0  0  0  0  0
   39.8400   38.9505    5.4521 C   0  0  2  0  0  0  0  0  0  0  0  0
   41.1205   38.9592    6.2003 O   0  0  0  0  0  0  0  0  0  0  0  0
   43.2736   41.9248    4.7983 C   0  0  1  0  0  0  0  0  0  0  0  0
   42.5553   43.0710    5.3054 O   0  0  0  0  0  0  0  0  0  0  0  0
   33.4741   41.9798    3.6089 C   0  0  2  0  0  0  0  0  0  0  0  0
   32.6216   43.1038    3.6732 O   0  0  0  0  0  0  0  0  0  0  0  0
   34.2298   38.2092    6.7735 C   0  0  2  0  0  0  0  0  0  0  0  0
   38.8877   40.0303    5.9583 C   0  0  2  0  0  0  0  0  0  0  0  0
   38.0180   39.3909    6.8818 O   0  0  0  0  0  0  0  0  0  0  0  0
   44.5509   41.6876    5.7004 C   0  0  2  0  0  0  0  0  0  0  0  0
   45.4042   40.7195    5.0669 O   0  0  0  0  0  0  0  0  0  0  0  0
   32.6945   40.6893    3.9305 C   0  0  2  0  0  0  0  0  0  0  0  0
   33.6365   39.5498    3.8710 O   0  0  0  0  0  0  0  0  0  0  0  0
   35.5944   37.6594    7.4277 C   0  0  2  0  0  0  0  0  0  0  0  0
   36.6809   37.4763    6.4277 O   0  0  0  0  0  0  0  0  0  0  0  0
   38.0303   40.6528    4.8662 C   0  0  0  0  0  0  0  0  0  0  0  0
   44.1082   41.1892    7.1357 C   0  0  1  0  0  0  0  0  0  0  0  0
   43.1856   40.0061    7.0560 O   0  0  0  0  0  0  0  0  0  0  0  0
   31.5348   40.5163    2.9220 C   0  0  0  0  0  0  0  0  0  0  0  0
   30.6680   39.3486    3.1661 N   0  0  0  0  0  0  0  0  0  0  0  0
   35.3368   36.2790    8.0686 C   0  0  1  0  0  0  0  0  0  0  0  0
   36.5497   35.7888    8.6494 O   0  0  0  0  0  0  0  0  0  0  0  0
   45.3238   40.8768    8.0907 C   0  0  0  0  0  0  0  0  0  0  0  0
   46.2225   39.7534    7.6742 N   0  0  0  0  0  0  0  0  0  0  0  0
  1  2  1  1  0  0  0
  1  7  1  0  0  0  0
  1 30  1  0  0  0  0
  3  4  1  6  0  0  0
  3  9  1  0  0  0  0
  3 38  1  0  0  0  0
  5 10  1  0  0  0  0
  5 26  1  6  0  0  0
  5 32  1  0  0  0  0
  6 12  1  0  0  0  0
  6 35  1  0  0  0  0
  6 19  1  6  0  0  0
  7  8  1  1  0  0  0
  7 14  1  0  0  0  0
  8 33  1  0  0  0  0
  9 16  1  0  0  0  0
 10 11  1  1  0  0  0
 10 18  1  0  0  0  0
 12 13  1  1  0  0  0
 12 20  1  0  0  0  0
 14 15  1  6  0  0  0
 14 22  1  0  0  0  0
 16 17  1  6  0  0  0
 16 24  1  0  0  0  0
 18 19  1  1  0  0  0
 18 25  1  0  0  0  0
 20 21  1  1  0  0  0
 20 27  1  0  0  0  0
 22 23  1  1  0  0  0
 22 29  1  0  0  0  0
 24  2  1  1  0  0  0
 24 31  1  0  0  0  0
 25 26  1  1  0  0  0
 25 33  1  0  0  0  0
 27 28  1  6  0  0  0
 27 34  1  0  0  0  0
 29 30  1  0  0  0  0
 29 36  1  6  0  0  0
 31 32  1  6  0  0  0
 31 38  1  0  0  0  0
 34 35  1  0  0  0  0
 34 40  1  1  0  0  0
 36 37  1  0  0  0  0
 38 39  1  1  0  0  0
 40 41  1  0  0  0  0
M  END
>  <CHROM.1>
-175.41340621,-56.79116918,-177.03860352,-64.14101206,37.71694856,39.58307180
5.95747431,3.06540237,0.10531675,2.46918445

>  <Name>
ligand

>  <RI>
0

>  <Rbt.Current_Directory>
/home/itssahil/PROJECTS/Mol_Feturizer/New_Systems/rnas/1ZZ5

>  <Rbt.Executable>
rbdock ($Id: //depot/dev/client3/rdock/2013.1/src/exe/rbdock.cxx#4 $)

>  <Rbt.Library>
libRbt.so (2013.1, Build901 2013/11/27)

>  <Rbt.Parameter_File>
/export/apps/rDock/src/rDock_2013.1_src/data/scripts/dock_solv.prm

>  <Rbt.Receptor>
prm/pocket_docking_3.prm

>  <SCORE>
-11.3066

>  <SCORE.INTER>
-9.49379

>  <SCORE.INTER.CONST>
1

>  <SCORE.INTER.POLAR>
0

>  <SCORE.INTER.ROT>
4

>  <SCORE.INTER.SOLV>
18.2825

>  <SCORE.INTER.VDW>
-18.69

>  <SCORE.INTER.norm>
-0.231556

>  <SCORE.INTRA>
-1.81284

>  <SCORE.INTRA.DIHEDRAL>
-4.69746

>  <SCORE.INTRA.DIHEDRAL.0>
5.18357

>  <SCORE.INTRA.POLAR>
0

>  <SCORE.INTRA.POLAR.0>
0

>  <SCORE.INTRA.REPUL>
0

>  <SCORE.INTRA.REPUL.0>
0

>  <SCORE.INTRA.SOLV>
0.434721

>  <SCORE.INTRA.SOLV.lig_0>
-109.973

>  <SCORE.INTRA.VDW>
0.318534

>  <SCORE.INTRA.VDW.0>
-1.68646

>  <SCORE.INTRA.norm>
-0.0442155

>  <SCORE.RESTR>
0

>  <SCORE.RESTR.CAVITY>
0

>  <SCORE.RESTR.norm>
0

>  <SCORE.SYSTEM>
0

>  <SCORE.SYSTEM.CONST>
0

>  <SCORE.SYSTEM.DIHEDRAL>
0

>  <SCORE.SYSTEM.SOLV>
0

>  <SCORE.SYSTEM.norm>
0

>  <SCORE.heavy>
41

>  <SCORE.norm>
-0.275771

>  <RMSD>
2.065

$$$$
ligand
 OpenBabel11021811423D
libRbt.so/2013.1/901 2013/11/27
 41 45  0  0  0  0  0  0  0  0999 V2000
   34.5968   39.3259    4.8453 C   0  0  2  0  0  0  0  0  0  0  0  0
   34.1516   39.3624    6.2153 O   0  0  0  0  0  0  0  0  0  0  0  0
   33.8147   36.4612    9.4383 C   0  0  2  0  0  0  0  0  0  0  0  0
   33.4868   35.2009   10.1533 N   0  0  0  0  0  0  0  0  0  0  0  0
   37.7397   37.7892    7.0495 C   0  0  1  0  0  0  0  0  0  0  0  0
   41.9844   39.5086    6.0346 C   0  0  1  0  0  0  0  0  0  0  0  0
   35.4240   40.5976    4.4900 C   0  0  2  0  0  0  0  0  0  0  0  0
   36.5427   40.8271    5.4093 N   0  0  0  0  0  0  0  0  0  0  0  0
   32.5230   37.0028    8.7481 C   0  0  0  0  0  0  0  0  0  0  0  0
   38.7889   37.3636    5.9971 C   0  0  2  0  0  0  0  0  0  0  0  0
   39.5977   36.2772    6.4600 O   0  0  0  0  0  0  0  0  0  0  0  0
   41.7778   41.0472    6.3696 C   0  0  2  0  0  0  0  0  0  0  0  0
   40.4880   41.6130    5.8685 N   0  0  0  0  0  0  0  0  0  0  0  0
   34.5015   41.8458    4.4553 C   0  0  1  0  0  0  0  0  0  0  0  0
   35.2569   43.0019    4.1037 O   0  0  0  0  0  0  0  0  0  0  0  0
   32.8078   38.3228    7.9744 C   0  0  2  0  0  0  0  0  0  0  0  0
   31.5418   38.7703    7.3637 N   0  0  0  0  0  0  0  0  0  0  0  0
   39.6018   38.6404    5.7230 C   0  0  2  0  0  0  0  0  0  0  0  0
   40.8580   38.6867    6.5100 O   0  0  0  0  0  0  0  0  0  0  0  0
   42.9992   41.8954    5.7912 C   0  0  1  0  0  0  0  0  0  0  0  0
   44.2262   41.5887    6.4893 O   0  0  0  0  0  0  0  0  0  0  0  0
   33.3527   41.6174    3.4458 C   0  0  2  0  0  0  0  0  0  0  0  0
   32.5190   42.7561    3.3961 O   0  0  0  0  0  0  0  0  0  0  0  0
   33.9403   38.0903    6.9124 C   0  0  2  0  0  0  0  0  0  0  0  0
   38.6536   39.7706    6.1138 C   0  0  2  0  0  0  0  0  0  0  0  0
   37.7439   39.2178    7.0544 O   0  0  0  0  0  0  0  0  0  0  0  0
   43.2198   41.6454    4.2451 C   0  0  2  0  0  0  0  0  0  0  0  0
   42.1034   42.1816    3.5153 O   0  0  0  0  0  0  0  0  0  0  0  0
   32.5402   40.3678    3.8394 C   0  0  2  0  0  0  0  0  0  0  0  0
   33.4630   39.2125    3.8981 O   0  0  0  0  0  0  0  0  0  0  0  0
   35.2735   37.5714    7.6512 C   0  0  2  0  0  0  0  0  0  0  0  0
   36.3874   37.2949    6.7042 O   0  0  0  0  0  0  0  0  0  0  0  0
   37.8424   40.3205    4.9497 C   0  0  0  0  0  0  0  0  0  0  0  0
   43.3757   40.0949    3.9698 C   0  0  1  0  0  0  0  0  0  0  0  0
   42.2431   39.3058    4.5629 O   0  0  0  0  0  0  0  0  0  0  0  0
   31.4100   40.1357    2.8096 C   0  0  0  0  0  0  0  0  0  0  0  0
   30.5038   39.0156    3.1234 N   0  0  0  0  0  0  0  0  0  0  0  0
   34.9709   36.2485    8.3869 C   0  0  1  0  0  0  0  0  0  0  0  0
   36.1559   35.7857    9.0429 O   0  0  0  0  0  0  0  0  0  0  0  0
   43.5493   39.7463    2.4415 C   0  0  0  0  0  0  0  0  0  0  0  0
   43.8068   38.3075    2.1147 N   0  0  0  0  0  0  0  0  0  0  0  0
  1  2  1  1  0  0  0
  1  7  1  0  0  0  0
  1 30  1  0  0  0  0
  3  4  1  6  0  0  0
  3  9  1  0  0  0  0
  3 38  1  0  0  0  0
  5 10  1  0  0  0  0
  5 26  1  6  0  0  0
  5 32  1  0  0  0  0
  6 12  1  0  0  0  0
  6 35  1  0  0  0  0
  6 19  1  6  0  0  0
  7  8  1  1  0  0  0
  7 14  1  0  0  0  0
  8 33  1  0  0  0  0
  9 16  1  0  0  0  0
 10 11  1  1  0  0  0
 10 18  1  0  0  0  0
 12 13  1  6  0  0  0
 12 20  1  0  0  0  0
 14 15  1  6  0  0  0
 14 22  1  0  0  0  0
 16 17  1  6  0  0  0
 16 24  1  0  0  0  0
 18 19  1  1  0  0  0
 18 25  1  0  0  0  0
 20 21  1  1  0  0  0
 20 27  1  0  0  0  0
 22 23  1  1  0  0  0
 22 29  1  0  0  0  0
 24  2  1  1  0  0  0
 24 31  1  0  0  0  0
 25 26  1  1  0  0  0
 25 33  1  0  0  0  0
 27 28  1  6  0  0  0
 27 34  1  0  0  0  0
 29 30  1  0  0  0  0
 29 36  1  6  0  0  0
 31 32  1  6  0  0  0
 31 38  1  0  0  0  0
 34 35  1  0  0  0  0
 34 40  1  6  0  0  0
 36 37  1  0  0  0  0
 38 39  1  1  0  0  0
 40 41  1  0  0  0  0
M  END
>  <CHROM.1>
156.41612038,79.12604398,-176.22549726,175.50700117,37.23770546,39.36879116
5.68997058,2.92694150,0.01110342,2.36510444

>  <Name>
ligand

>  <RI>
0

>  <Rbt.Current_Directory>
/home/itssahil/PROJECTS/Mol_Feturizer/New_Systems/rnas/1ZZ5

>  <Rbt.Executable>
rbdock ($Id: //depot/dev/client3/rdock/2013.1/src/exe/rbdock.cxx#4 $)

>  <Rbt.Library>
libRbt.so (2013.1, Build901 2013/11/27)

>  <Rbt.Parameter_File>
/export/apps/rDock/src/rDock_2013.1_src/data/scripts/dock_solv.prm

>  <Rbt.Receptor>
prm/pocket_docking_5.prm

>  <SCORE>
-10.2686

>  <SCORE.INTER>
-11.6143

>  <SCORE.INTER.CONST>
1

>  <SCORE.INTER.POLAR>
0

>  <SCORE.INTER.ROT>
4

>  <SCORE.INTER.SOLV>
19.4802

>  <SCORE.INTER.VDW>
-20.5029

>  <SCORE.INTER.norm>
-0.283275

>  <SCORE.INTRA>
1.34568

>  <SCORE.INTRA.DIHEDRAL>
-0.818241

>  <SCORE.INTRA.DIHEDRAL.0>
5.18357

>  <SCORE.INTRA.POLAR>
0

>  <SCORE.INTRA.POLAR.0>
0

>  <SCORE.INTRA.REPUL>
0

>  <SCORE.INTRA.REPUL.0>
0

>  <SCORE.INTRA.SOLV>
1.61314

>  <SCORE.INTRA.SOLV.lig_0>
-109.973

>  <SCORE.INTRA.VDW>
0.948228

>  <SCORE.INTRA.VDW.0>
-1.68646

>  <SCORE.INTRA.norm>
0.0328215

>  <SCORE.RESTR>
0

>  <SCORE.RESTR.CAVITY>
0

>  <SCORE.RESTR.norm>
0

>  <SCORE.SYSTEM>
0

>  <SCORE.SYSTEM.CONST>
0

>  <SCORE.SYSTEM.DIHEDRAL>
0

>  <SCORE.SYSTEM.SOLV>
0

>  <SCORE.SYSTEM.norm>
0

>  <SCORE.heavy>
41

>  <SCORE.norm>
-0.250454

>  <RMSD>
2.076

$$$$
ligand
 OpenBabel11021811423D
libRbt.so/2013.1/901 2013/11/27
 41 45  0  0  0  0  0  0  0  0999 V2000
   34.1620   39.2121    4.7951 C   0  0  2  0  0  0  0  0  0  0  0  0
   33.8238   39.2972    6.1933 O   0  0  0  0  0  0  0  0  0  0  0  0
   33.8450   36.5384    9.5558 C   0  0  2  0  0  0  0  0  0  0  0  0
   33.6199   35.3023   10.3487 N   0  0  0  0  0  0  0  0  0  0  0  0
   37.5209   37.8830    6.8073 C   0  0  1  0  0  0  0  0  0  0  0  0
   41.3743   40.0604    5.7674 C   0  0  1  0  0  0  0  0  0  0  0  0
   34.9122   40.4926    4.3203 C   0  0  2  0  0  0  0  0  0  0  0  0
   36.0900   40.8009    5.1370 N   0  0  0  0  0  0  0  0  0  0  0  0
   32.4846   37.0047    8.9476 C   0  0  0  0  0  0  0  0  0  0  0  0
   38.4998   37.4440    5.6942 C   0  0  2  0  0  0  0  0  0  0  0  0
   39.3812   36.4073    6.1381 O   0  0  0  0  0  0  0  0  0  0  0  0
   41.7977   40.2238    4.2455 C   0  0  2  0  0  0  0  0  0  0  0  0
   42.4874   39.0277    3.6722 N   0  0  0  0  0  0  0  0  0  0  0  0
   33.9449   41.7068    4.3049 C   0  0  1  0  0  0  0  0  0  0  0  0
   34.6280   42.8696    3.8444 O   0  0  0  0  0  0  0  0  0  0  0  0
   32.6600   38.2963    8.0971 C   0  0  2  0  0  0  0  0  0  0  0  0
   31.3348   38.6733    7.5702 N   0  0  0  0  0  0  0  0  0  0  0  0
   39.2418   38.7328    5.3012 C   0  0  2  0  0  0  0  0  0  0  0  0
   40.5529   38.8567    5.9831 O   0  0  0  0  0  0  0  0  0  0  0  0
   42.7237   41.5121    4.0769 C   0  0  1  0  0  0  0  0  0  0  0  0
   41.9808   42.7262    4.3235 O   0  0  0  0  0  0  0  0  0  0  0  0
   32.7300   41.3945    3.4008 C   0  0  2  0  0  0  0  0  0  0  0  0
   31.8541   42.5016    3.3680 O   0  0  0  0  0  0  0  0  0  0  0  0
   33.7140   38.0524    6.9596 C   0  0  2  0  0  0  0  0  0  0  0  0
   38.2864   39.8481    5.7166 C   0  0  2  0  0  0  0  0  0  0  0  0
   37.4735   39.3096    6.7497 O   0  0  0  0  0  0  0  0  0  0  0  0
   43.9746   41.4782    5.0442 C   0  0  2  0  0  0  0  0  0  0  0  0
   44.8548   40.4152    4.6420 O   0  0  0  0  0  0  0  0  0  0  0  0
   31.9967   40.1383    3.9116 C   0  0  2  0  0  0  0  0  0  0  0  0
   32.9627   39.0179    3.9469 O   0  0  0  0  0  0  0  0  0  0  0  0
   35.1187   37.6122    7.6119 C   0  0  2  0  0  0  0  0  0  0  0  0
   36.1648   37.3291    6.5923 O   0  0  0  0  0  0  0  0  0  0  0  0
   37.3675   40.3166    4.5980 C   0  0  0  0  0  0  0  0  0  0  0  0
   43.4923   41.2708    6.5371 C   0  0  1  0  0  0  0  0  0  0  0  0
   42.5822   40.0828    6.6699 O   0  0  0  0  0  0  0  0  0  0  0  0
   30.7989   39.8218    2.9859 C   0  0  0  0  0  0  0  0  0  0  0  0
   30.0116   38.6362    3.3717 N   0  0  0  0  0  0  0  0  0  0  0  0
   34.9228   36.3155    8.4261 C   0  0  1  0  0  0  0  0  0  0  0  0
   36.1713   35.9227    9.0054 O   0  0  0  0  0  0  0  0  0  0  0  0
   44.6805   41.1730    7.5695 C   0  0  0  0  0  0  0  0  0  0  0  0
   45.5473   42.3876    7.6997 N   0  0  0  0  0  0  0  0  0  0  0  0
  1  2  1  1  0  0  0
  1  7  1  0  0  0  0
  1 30  1  0  0  0  0
  3  4  1  6  0  0  0
  3  9  1  0  0  0  0
  3 38  1  0  0  0  0
  5 10  1  0  0  0  0
  5 26  1  6  0  0  0
  5 32  1  0  0  0  0
  6 12  1  0  0  0  0
  6 35  1  0  0  0  0
  6 19  1  6  0  0  0
  7  8  1  1  0  0  0
  7 14  1  0  0  0  0
  8 33  1  0  0  0  0
  9 16  1  0  0  0  0
 10 11  1  1  0  0  0
 10 18  1  0  0  0  0
 12 13  1  1  0  0  0
 12 20  1  0  0  0  0
 14 15  1  6  0  0  0
 14 22  1  0  0  0  0
 16 17  1  6  0  0  0
 16 24  1  0  0  0  0
 18 19  1  1  0  0  0
 18 25  1  0  0  0  0
 20 21  1  1  0  0  0
 20 27  1  0  0  0  0
 22 23  1  1  0  0  0
 22 29  1  0  0  0  0
 24  2  1  1  0  0  0
 24 31  1  0  0  0  0
 25 26  1  1  0  0  0
 25 33  1  0  0  0  0
 27 28  1  6  0  0  0
 27 34  1  0  0  0  0
 29 30  1  0  0  0  0
 29 36  1  6  0  0  0
 31 32  1  6  0  0  0
 31 38  1  0  0  0  0
 34 35  1  0  0  0  0
 34 40  1  1  0  0  0
 36 37  1  0  0  0  0
 38 39  1  1  0  0  0
 40 41  1  0  0  0  0
M  END
>  <CHROM.1>
-177.39679460,-61.86022544,-179.93553245,62.83572900,37.14093470,39.42407722
5.84352487,3.00666772,0.10924284,2.34983556

>  <Name>
ligand

>  <RI>
0

>  <Rbt.Current_Directory>
/home/itssahil/PROJECTS/Mol_Feturizer/New_Systems/rnas/1ZZ5

>  <Rbt.Executable>
rbdock ($Id: //depot/dev/client3/rdock/2013.1/src/exe/rbdock.cxx#4 $)

>  <Rbt.Library>
libRbt.so (2013.1, Build901 2013/11/27)

>  <Rbt.Parameter_File>
/export/apps/rDock/src/rDock_2013.1_src/data/scripts/dock_solv.prm

>  <Rbt.Receptor>
prm/pocket_docking_4.prm

>  <SCORE>
-12.2434

>  <SCORE.INTER>
-9.80199

>  <SCORE.INTER.CONST>
1

>  <SCORE.INTER.POLAR>
0

>  <SCORE.INTER.ROT>
4

>  <SCORE.INTER.SOLV>
19.5048

>  <SCORE.INTER.VDW>
-19.3029

>  <SCORE.INTER.norm>
-0.239073

>  <SCORE.INTRA>
-2.44137

>  <SCORE.INTRA.DIHEDRAL>
-4.87662

>  <SCORE.INTRA.DIHEDRAL.0>
5.18357

>  <SCORE.INTRA.POLAR>
0

>  <SCORE.INTRA.POLAR.0>
0

>  <SCORE.INTRA.REPUL>
0

>  <SCORE.INTRA.REPUL.0>
0

>  <SCORE.INTRA.SOLV>
-0.89497

>  <SCORE.INTRA.SOLV.lig_0>
-109.973

>  <SCORE.INTRA.VDW>
0.444423

>  <SCORE.INTRA.VDW.0>
-1.68646

>  <SCORE.INTRA.norm>
-0.0595457

>  <SCORE.RESTR>
0

>  <SCORE.RESTR.CAVITY>
0

>  <SCORE.RESTR.norm>
0

>  <SCORE.SYSTEM>
0

>  <SCORE.SYSTEM.CONST>
0

>  <SCORE.SYSTEM.DIHEDRAL>
0

>  <SCORE.SYSTEM.SOLV>
0

>  <SCORE.SYSTEM.norm>
0

>  <SCORE.heavy>
41

>  <SCORE.norm>
-0.298619

>  <RMSD>
2.101

$$$$
ligand
 OpenBabel11021811423D
libRbt.so/2013.1/901 2013/11/27
 41 45  0  0  0  0  0  0  0  0999 V2000
   34.3685   39.3306    4.7792 C   0  0  2  0  0  0  0  0  0  0  0  0
   34.0341   39.3584    6.1806 O   0  0  0  0  0  0  0  0  0  0  0  0
   33.9596   36.4381    9.4031 C   0  0  2  0  0  0  0  0  0  0  0  0
   33.6915   35.1731   10.1346 N   0  0  0  0  0  0  0  0  0  0  0  0
   37.6794   37.7865    6.7161 C   0  0  1  0  0  0  0  0  0  0  0  0
   41.5941   39.8876    5.7996 C   0  0  1  0  0  0  0  0  0  0  0  0
   35.1631   40.6057    4.3665 C   0  0  2  0  0  0  0  0  0  0  0  0
   36.3514   40.8318    5.1947 N   0  0  0  0  0  0  0  0  0  0  0  0
   32.6162   36.9814    8.8216 C   0  0  0  0  0  0  0  0  0  0  0  0
   38.6417   37.3688    5.5806 C   0  0  2  0  0  0  0  0  0  0  0  0
   39.4863   36.2812    5.9710 O   0  0  0  0  0  0  0  0  0  0  0  0
   41.9338   40.2049    4.2810 C   0  0  2  0  0  0  0  0  0  0  0  0
   42.5450   39.0593    3.5402 N   0  0  0  0  0  0  0  0  0  0  0  0
   34.2391   41.8524    4.4130 C   0  0  1  0  0  0  0  0  0  0  0  0
   34.9626   43.0118    4.0088 O   0  0  0  0  0  0  0  0  0  0  0  0
   32.8366   38.3064    8.0354 C   0  0  2  0  0  0  0  0  0  0  0  0
   31.5253   38.7553    7.5305 N   0  0  0  0  0  0  0  0  0  0  0  0
   39.4284   38.6485    5.2500 C   0  0  2  0  0  0  0  0  0  0  0  0
   40.7435   38.6924    5.9342 O   0  0  0  0  0  0  0  0  0  0  0  0
   42.8947   41.4758    4.1959 C   0  0  1  0  0  0  0  0  0  0  0  0
   42.2121   42.6770    4.6178 O   0  0  0  0  0  0  0  0  0  0  0  0
   33.0137   41.6280    3.4972 C   0  0  2  0  0  0  0  0  0  0  0  0
   32.1772   42.7655    3.5210 O   0  0  0  0  0  0  0  0  0  0  0  0
   33.8809   38.0819    6.8849 C   0  0  2  0  0  0  0  0  0  0  0  0
   38.5132   39.7749    5.7219 C   0  0  2  0  0  0  0  0  0  0  0  0
   37.6822   39.2151    6.7290 O   0  0  0  0  0  0  0  0  0  0  0  0
   44.1977   41.2983    5.0745 C   0  0  2  0  0  0  0  0  0  0  0  0
   45.0138   40.2603    4.5061 O   0  0  0  0  0  0  0  0  0  0  0  0
   32.2367   40.3747    3.9472 C   0  0  2  0  0  0  0  0  0  0  0  0
   33.1627   39.2207    3.9251 O   0  0  0  0  0  0  0  0  0  0  0  0
   35.2695   37.5610    7.5117 C   0  0  2  0  0  0  0  0  0  0  0  0
   36.3045   37.2920    6.4771 O   0  0  0  0  0  0  0  0  0  0  0  0
   37.6108   40.3301    4.6297 C   0  0  0  0  0  0  0  0  0  0  0  0
   43.7959   40.9422    6.5632 C   0  0  1  0  0  0  0  0  0  0  0  0
   42.8526   39.7744    6.6228 O   0  0  0  0  0  0  0  0  0  0  0  0
   31.0281   40.1466    3.0097 C   0  0  0  0  0  0  0  0  0  0  0  0
   30.2002   38.9713    3.3377 N   0  0  0  0  0  0  0  0  0  0  0  0
   35.0284   36.2334    8.2615 C   0  0  1  0  0  0  0  0  0  0  0  0
   36.2626   35.7689    8.8179 O   0  0  0  0  0  0  0  0  0  0  0  0
   45.0379   40.6960    7.5035 C   0  0  0  0  0  0  0  0  0  0  0  0
   45.9506   41.8644    7.7159 N   0  0  0  0  0  0  0  0  0  0  0  0
  1  2  1  1  0  0  0
  1  7  1  0  0  0  0
  1 30  1  0  0  0  0
  3  4  1  6  0  0  0
  3  9  1  0  0  0  0
  3 38  1  0  0  0  0
  5 10  1  0  0  0  0
  5 26  1  6  0  0  0
  5 32  1  0  0  0  0
  6 12  1  0  0  0  0
  6 35  1  0  0  0  0
  6 19  1  6  0  0  0
  7  8  1  1  0  0  0
  7 14  1  0  0  0  0
  8 33  1  0  0  0  0
  9 16  1  0  0  0  0
 10 11  1  1  0  0  0
 10 18  1  0  0  0  0
 12 13  1  1  0  0  0
 12 20  1  0  0  0  0
 14 15  1  6  0  0  0
 14 22  1  0  0  0  0
 16 17  1  6  0  0  0
 16 24  1  0  0  0  0
 18 19  1  1  0  0  0
 18 25  1  0  0  0  0
 20 21  1  1  0  0  0
 20 27  1  0  0  0  0
 22 23  1  1  0  0  0
 22 29  1  0  0  0  0
 24  2  1  1  0  0  0
 24 31  1  0  0  0  0
 25 26  1  1  0  0  0
 25 33  1  0  0  0  0
 27 28  1  6  0  0  0
 27 34  1  0  0  0  0
 29 30  1  0  0  0  0
 29 36  1  6  0  0  0
 31 32  1  6  0  0  0
 31 38  1  0  0  0  0
 34 35  1  0  0  0  0
 34 40  1  1  0  0  0
 36 37  1  0  0  0  0
 38 39  1  1  0  0  0
 40 41  1  0  0  0  0
M  END
>  <CHROM.1>
-176.10021625,-57.81092359,-179.97349911,63.13034480,37.34500081,39.39517016
5.82131166,3.02612870,0.08333300,2.39884722

>  <Name>
ligand

>  <RI>
0

>  <Rbt.Current_Directory>
/home/itssahil/PROJECTS/Mol_Feturizer/New_Systems/rnas/1ZZ5

>  <Rbt.Executable>
rbdock ($Id: //depot/dev/client3/rdock/2013.1/src/exe/rbdock.cxx#4 $)

>  <Rbt.Library>
libRbt.so (2013.1, Build901 2013/11/27)

>  <Rbt.Parameter_File>
/export/apps/rDock/src/rDock_2013.1_src/data/scripts/dock_solv.prm

>  <Rbt.Receptor>
prm/pocket_docking_4.prm

>  <SCORE>
-12.3734

>  <SCORE.INTER>
-10.0165

>  <SCORE.INTER.CONST>
1

>  <SCORE.INTER.POLAR>
0

>  <SCORE.INTER.ROT>
4

>  <SCORE.INTER.SOLV>
19.0829

>  <SCORE.INTER.VDW>
-19.3053

>  <SCORE.INTER.norm>
-0.244306

>  <SCORE.INTRA>
-2.35683

>  <SCORE.INTRA.DIHEDRAL>
-4.82388

>  <SCORE.INTRA.DIHEDRAL.0>
5.18357

>  <SCORE.INTRA.POLAR>
0

>  <SCORE.INTRA.POLAR.0>
0

>  <SCORE.INTRA.REPUL>
0

>  <SCORE.INTRA.REPUL.0>
0

>  <SCORE.INTRA.SOLV>
-0.853385

>  <SCORE.INTRA.SOLV.lig_0>
-109.973

>  <SCORE.INTRA.VDW>
0.4818

>  <SCORE.INTRA.VDW.0>
-1.68646

>  <SCORE.INTRA.norm>
-0.0574838

>  <SCORE.RESTR>
0

>  <SCORE.RESTR.CAVITY>
0

>  <SCORE.RESTR.norm>
0

>  <SCORE.SYSTEM>
0

>  <SCORE.SYSTEM.CONST>
0

>  <SCORE.SYSTEM.DIHEDRAL>
0

>  <SCORE.SYSTEM.SOLV>
0

>  <SCORE.SYSTEM.norm>
0

>  <SCORE.heavy>
41

>  <SCORE.norm>
-0.301789

>  <RMSD>
2.108

$$$$
ligand
 OpenBabel11021811423D
libRbt.so/2013.1/901 2013/11/27
 41 45  0  0  0  0  0  0  0  0999 V2000
   34.2973   39.2101    4.8017 C   0  0  2  0  0  0  0  0  0  0  0  0
   33.9547   39.2926    6.1990 O   0  0  0  0  0  0  0  0  0  0  0  0
   33.9070   36.5118    9.5431 C   0  0  2  0  0  0  0  0  0  0  0  0
   33.6543   35.2752   10.3268 N   0  0  0  0  0  0  0  0  0  0  0  0
   37.6207   37.8022    6.8193 C   0  0  1  0  0  0  0  0  0  0  0  0
   41.4965   39.9335    5.8528 C   0  0  1  0  0  0  0  0  0  0  0  0
   35.0745   40.4787    4.3387 C   0  0  2  0  0  0  0  0  0  0  0  0
   36.2545   40.7585    5.1624 N   0  0  0  0  0  0  0  0  0  0  0  0
   32.5587   37.0088    8.9322 C   0  0  0  0  0  0  0  0  0  0  0  0
   38.5956   37.3514    5.7075 C   0  0  2  0  0  0  0  0  0  0  0  0
   39.4546   36.2948    6.1483 O   0  0  0  0  0  0  0  0  0  0  0  0
   41.8433   40.2151    4.3289 C   0  0  2  0  0  0  0  0  0  0  0  0
   42.4904   39.0642    3.6276 N   0  0  0  0  0  0  0  0  0  0  0  0
   34.1312   41.7118    4.3272 C   0  0  1  0  0  0  0  0  0  0  0  0
   34.8390   42.8640    3.8774 O   0  0  0  0  0  0  0  0  0  0  0  0
   32.7631   38.3022    8.0911 C   0  0  2  0  0  0  0  0  0  0  0  0
   31.4479   38.7085    7.5610 N   0  0  0  0  0  0  0  0  0  0  0  0
   39.3644   38.6280    5.3263 C   0  0  2  0  0  0  0  0  0  0  0  0
   40.6748   38.7216    6.0146 O   0  0  0  0  0  0  0  0  0  0  0  0
   42.7729   41.5069    4.2154 C   0  0  1  0  0  0  0  0  0  0  0  0
   42.0562   42.7021    4.5956 O   0  0  0  0  0  0  0  0  0  0  0  0
   32.9145   41.4293    3.4159 C   0  0  2  0  0  0  0  0  0  0  0  0
   32.0605   42.5536    3.3868 O   0  0  0  0  0  0  0  0  0  0  0  0
   33.8171   38.0452    6.9565 C   0  0  2  0  0  0  0  0  0  0  0  0
   38.4293   39.7590    5.7450 C   0  0  2  0  0  0  0  0  0  0  0  0
   37.6014   39.2298    6.7710 O   0  0  0  0  0  0  0  0  0  0  0  0
   44.0711   41.3880    5.1109 C   0  0  2  0  0  0  0  0  0  0  0  0
   44.9185   40.3549    4.5807 O   0  0  0  0  0  0  0  0  0  0  0  0
   32.1544   40.1843    3.9152 C   0  0  2  0  0  0  0  0  0  0  0  0
   33.0982   39.0451    3.9471 O   0  0  0  0  0  0  0  0  0  0  0  0
   35.2101   37.5732    7.6118 C   0  0  2  0  0  0  0  0  0  0  0  0
   36.2549   37.2764    6.5949 O   0  0  0  0  0  0  0  0  0  0  0  0
   37.5246   40.2529    4.6256 C   0  0  0  0  0  0  0  0  0  0  0  0
   43.6635   41.0653    6.6055 C   0  0  1  0  0  0  0  0  0  0  0  0
   42.7491   39.8762    6.6906 O   0  0  0  0  0  0  0  0  0  0  0  0
   30.9547   39.8976    2.9823 C   0  0  0  0  0  0  0  0  0  0  0  0
   30.1309   38.7371    3.3682 N   0  0  0  0  0  0  0  0  0  0  0  0
   34.9852   36.2753    8.4166 C   0  0  1  0  0  0  0  0  0  0  0  0
   36.2233   35.8542    8.9985 O   0  0  0  0  0  0  0  0  0  0  0  0
   44.9018   40.8780    7.5641 C   0  0  0  0  0  0  0  0  0  0  0  0
   44.5910   40.5590    8.9941 N   0  0  0  0  0  0  0  0  0  0  0  0
  1  2  1  1  0  0  0
  1  7  1  0  0  0  0
  1 30  1  0  0  0  0
  3  4  1  6  0  0  0
  3  9  1  0  0  0  0
  3 38  1  0  0  0  0
  5 10  1  0  0  0  0
  5 26  1  6  0  0  0
  5 32  1  0  0  0  0
  6 12  1  0  0  0  0
  6 35  1  0  0  0  0
  6 19  1  6  0  0  0
  7  8  1  1  0  0  0
  7 14  1  0  0  0  0
  8 33  1  0  0  0  0
  9 16  1  0  0  0  0
 10 11  1  1  0  0  0
 10 18  1  0  0  0  0
 12 13  1  1  0  0  0
 12 20  1  0  0  0  0
 14 15  1  6  0  0  0
 14 22  1  0  0  0  0
 16 17  1  6  0  0  0
 16 24  1  0  0  0  0
 18 19  1  1  0  0  0
 18 25  1  0  0  0  0
 20 21  1  1  0  0  0
 20 27  1  0  0  0  0
 22 23  1  1  0  0  0
 22 29  1  0  0  0  0
 24  2  1  1  0  0  0
 24 31  1  0  0  0  0
 25 26  1  1  0  0  0
 25 33  1  0  0  0  0
 27 28  1  6  0  0  0
 27 34  1  0  0  0  0
 29 30  1  0  0  0  0
 29 36  1  6  0  0  0
 31 32  1  6  0  0  0
 31 38  1  0  0  0  0
 34 35  1  0  0  0  0
 34 40  1  1  0  0  0
 36 37  1  0  0  0  0
 38 39  1  1  0  0  0
 40 41  1  0  0  0  0
M  END
>  <CHROM.1>
-174.98492295,-58.17809647,-179.06483441,-179.53159440,37.23250423,39.33821378
5.89567978,3.04369954,0.09926159,2.33734406

>  <Name>
ligand

>  <RI>
0

>  <Rbt.Current_Directory>
/home/itssahil/PROJECTS/Mol_Feturizer/New_Systems/rnas/1ZZ5

>  <Rbt.Executable>
rbdock ($Id: //depot/dev/client3/rdock/2013.1/src/exe/rbdock.cxx#4 $)

>  <Rbt.Library>
libRbt.so (2013.1, Build901 2013/11/27)

>  <Rbt.Parameter_File>
/export/apps/rDock/src/rDock_2013.1_src/data/scripts/dock_solv.prm

>  <Rbt.Receptor>
prm/pocket_docking_4.prm

>  <SCORE>
-12.4879

>  <SCORE.INTER>
-9.97325

>  <SCORE.INTER.CONST>
1

>  <SCORE.INTER.POLAR>
0

>  <SCORE.INTER.ROT>
4

>  <SCORE.INTER.SOLV>
19.0268

>  <SCORE.INTER.VDW>
-19.2578

>  <SCORE.INTER.norm>
-0.24325

>  <SCORE.INTRA>
-2.51464

>  <SCORE.INTRA.DIHEDRAL>
-4.8077

>  <SCORE.INTRA.DIHEDRAL.0>
5.18357

>  <SCORE.INTRA.POLAR>
0

>  <SCORE.INTRA.POLAR.0>
0

>  <SCORE.INTRA.REPUL>
0

>  <SCORE.INTRA.REPUL.0>
0

>  <SCORE.INTRA.SOLV>
-1.20811

>  <SCORE.INTRA.SOLV.lig_0>
-109.973

>  <SCORE.INTRA.VDW>
0.493267

>  <SCORE.INTRA.VDW.0>
-1.68646

>  <SCORE.INTRA.norm>
-0.0613326

>  <SCORE.RESTR>
0

>  <SCORE.RESTR.CAVITY>
0

>  <SCORE.RESTR.norm>
0

>  <SCORE.SYSTEM>
0

>  <SCORE.SYSTEM.CONST>
0

>  <SCORE.SYSTEM.DIHEDRAL>
0

>  <SCORE.SYSTEM.SOLV>
0

>  <SCORE.SYSTEM.norm>
0

>  <SCORE.heavy>
41

>  <SCORE.norm>
-0.304583

>  <RMSD>
2.123

$$$$
ligand
 OpenBabel11021811423D
libRbt.so/2013.1/901 2013/11/27
 41 45  0  0  0  0  0  0  0  0999 V2000
   34.5179   39.3453    4.7573 C   0  0  2  0  0  0  0  0  0  0  0  0
   34.1804   39.3525    6.1582 O   0  0  0  0  0  0  0  0  0  0  0  0
   34.0563   36.3757    9.3269 C   0  0  2  0  0  0  0  0  0  0  0  0
   33.7685   35.1016   10.0348 N   0  0  0  0  0  0  0  0  0  0  0  0
   37.8017   37.7196    6.6734 C   0  0  1  0  0  0  0  0  0  0  0  0
   41.7227   39.8029    5.8523 C   0  0  1  0  0  0  0  0  0  0  0  0
   35.3316   40.6163    4.3696 C   0  0  2  0  0  0  0  0  0  0  0  0
   36.5208   40.8105    5.2045 N   0  0  0  0  0  0  0  0  0  0  0  0
   32.7222   36.9485    8.7523 C   0  0  0  0  0  0  0  0  0  0  0  0
   38.7609   37.3089    5.5328 C   0  0  2  0  0  0  0  0  0  0  0  0
   39.5890   36.2025    5.9053 O   0  0  0  0  0  0  0  0  0  0  0  0
   42.0657   40.2085    4.3557 C   0  0  2  0  0  0  0  0  0  0  0  0
   42.6879   39.1113    3.5533 N   0  0  0  0  0  0  0  0  0  0  0  0
   34.4252   41.8750    4.4366 C   0  0  1  0  0  0  0  0  0  0  0  0
   35.1661   43.0312    4.0552 O   0  0  0  0  0  0  0  0  0  0  0  0
   32.9634   38.2842    7.9908 C   0  0  2  0  0  0  0  0  0  0  0  0
   31.6599   38.7607    7.4911 N   0  0  0  0  0  0  0  0  0  0  0  0
   39.5665   38.5831    5.2272 C   0  0  2  0  0  0  0  0  0  0  0  0
   40.8803   38.5960    5.9152 O   0  0  0  0  0  0  0  0  0  0  0  0
   43.0176   41.4890    4.3470 C   0  0  1  0  0  0  0  0  0  0  0  0
   42.3247   42.6593    4.8338 O   0  0  0  0  0  0  0  0  0  0  0  0
   33.1991   41.6846    3.5141 C   0  0  2  0  0  0  0  0  0  0  0  0
   32.3787   42.8333    3.5565 O   0  0  0  0  0  0  0  0  0  0  0  0
   34.0073   38.0658    6.8388 C   0  0  2  0  0  0  0  0  0  0  0  0
   38.6661   39.7136    5.7174 C   0  0  2  0  0  0  0  0  0  0  0  0
   37.8247   39.1475    6.7122 O   0  0  0  0  0  0  0  0  0  0  0  0
   44.3187   41.2709    5.2194 C   0  0  2  0  0  0  0  0  0  0  0  0
   45.1443   40.2727    4.5961 O   0  0  0  0  0  0  0  0  0  0  0  0
   32.4033   40.4345    3.9394 C   0  0  2  0  0  0  0  0  0  0  0  0
   33.3129   39.2681    3.8985 O   0  0  0  0  0  0  0  0  0  0  0  0
   35.3868   37.5140    7.4592 C   0  0  2  0  0  0  0  0  0  0  0  0
   36.4205   37.2490    6.4223 O   0  0  0  0  0  0  0  0  0  0  0  0
   37.7744   40.3013    4.6334 C   0  0  0  0  0  0  0  0  0  0  0  0
   43.9140   40.8277    6.6837 C   0  0  1  0  0  0  0  0  0  0  0  0
   42.9789   39.6518    6.6728 O   0  0  0  0  0  0  0  0  0  0  0  0
   31.1940   40.2406    2.9951 C   0  0  0  0  0  0  0  0  0  0  0  0
   30.3381   39.0823    3.3112 N   0  0  0  0  0  0  0  0  0  0  0  0
   35.1250   36.1766    8.1842 C   0  0  1  0  0  0  0  0  0  0  0  0
   36.3511   35.6845    8.7350 O   0  0  0  0  0  0  0  0  0  0  0  0
   45.1543   40.5371    7.6135 C   0  0  0  0  0  0  0  0  0  0  0  0
   44.8471   40.1633    9.0310 N   0  0  0  0  0  0  0  0  0  0  0  0
  1  2  1  1  0  0  0
  1  7  1  0  0  0  0
  1 30  1  0  0  0  0
  3  4  1  6  0  0  0
  3  9  1  0  0  0  0
  3 38  1  0  0  0  0
  5 10  1  0  0  0  0
  5 26  1  6  0  0  0
  5 32  1  0  0  0  0
  6 12  1  0  0  0  0
  6 35  1  0  0  0  0
  6 19  1  6  0  0  0
  7  8  1  1  0  0  0
  7 14  1  0  0  0  0
  8 33  1  0  0  0  0
  9 16  1  0  0  0  0
 10 11  1  1  0  0  0
 10 18  1  0  0  0  0
 12 13  1  1  0  0  0
 12 20  1  0  0  0  0
 14 15  1  6  0  0  0
 14 22  1  0  0  0  0
 16 17  1  6  0  0  0
 16 24  1  0  0  0  0
 18 19  1  1  0  0  0
 18 25  1  0  0  0  0
 20 21  1  1  0  0  0
 20 27  1  0  0  0  0
 22 23  1  1  0  0  0
 22 29  1  0  0  0  0
 24  2  1  1  0  0  0
 24 31  1  0  0  0  0
 25 26  1  1  0  0  0
 25 33  1  0  0  0  0
 27 28  1  6  0  0  0
 27 34  1  0  0  0  0
 29 30  1  0  0  0  0
 29 36  1  6  0  0  0
 31 32  1  6  0  0  0
 31 38  1  0  0  0  0
 34 35  1  0  0  0  0
 34 40  1  1  0  0  0
 36 37  1  0  0  0  0
 38 39  1  1  0  0  0
 40 41  1  0  0  0  0
M  END
>  <CHROM.1>
-173.48294340,-57.97308447,-179.16097727,177.72252334,37.45128582,39.33130784
5.85771537,3.06271993,0.08197544,2.39907242

>  <Name>
ligand

>  <RI>
0

>  <Rbt.Current_Directory>
/home/itssahil/PROJECTS/Mol_Feturizer/New_Systems/rnas/1ZZ5

>  <Rbt.Executable>
rbdock ($Id: //depot/dev/client3/rdock/2013.1/src/exe/rbdock.cxx#4 $)

>  <Rbt.Library>
libRbt.so (2013.1, Build901 2013/11/27)

>  <Rbt.Parameter_File>
/export/apps/rDock/src/rDock_2013.1_src/data/scripts/dock_solv.prm

>  <Rbt.Receptor>
prm/pocket_docking_4.prm

>  <SCORE>
-12.5607

>  <SCORE.INTER>
-10.0502

>  <SCORE.INTER.CONST>
1

>  <SCORE.INTER.POLAR>
0

>  <SCORE.INTER.ROT>
4

>  <SCORE.INTER.SOLV>
18.967

>  <SCORE.INTER.VDW>
-19.2891

>  <SCORE.INTER.norm>
-0.245126

>  <SCORE.INTRA>
-2.51052

>  <SCORE.INTRA.DIHEDRAL>
-4.69856

>  <SCORE.INTRA.DIHEDRAL.0>
5.18357

>  <SCORE.INTRA.POLAR>
0

>  <SCORE.INTRA.POLAR.0>
0

>  <SCORE.INTRA.REPUL>
0

>  <SCORE.INTRA.REPUL.0>
0

>  <SCORE.INTRA.SOLV>
-1.23552

>  <SCORE.INTRA.SOLV.lig_0>
-109.973

>  <SCORE.INTRA.VDW>
0.456517

>  <SCORE.INTRA.VDW.0>
-1.68646

>  <SCORE.INTRA.norm>
-0.0612322

>  <SCORE.RESTR>
0

>  <SCORE.RESTR.CAVITY>
0

>  <SCORE.RESTR.norm>
0

>  <SCORE.SYSTEM>
0

>  <SCORE.SYSTEM.CONST>
0

>  <SCORE.SYSTEM.DIHEDRAL>
0

>  <SCORE.SYSTEM.SOLV>
0

>  <SCORE.SYSTEM.norm>
0

>  <SCORE.heavy>
41

>  <SCORE.norm>
-0.306358

>  <RMSD>
2.133

$$$$
ligand
 OpenBabel11021811423D
libRbt.so/2013.1/901 2013/11/27
 41 45  0  0  0  0  0  0  0  0999 V2000
   34.3767   39.3098    4.7690 C   0  0  2  0  0  0  0  0  0  0  0  0
   34.0381   39.3339    6.1695 O   0  0  0  0  0  0  0  0  0  0  0  0
   33.9550   36.4053    9.3842 C   0  0  2  0  0  0  0  0  0  0  0  0
   33.6851   35.1383   10.1116 N   0  0  0  0  0  0  0  0  0  0  0  0
   37.6824   37.7621    6.7120 C   0  0  1  0  0  0  0  0  0  0  0  0
   41.6144   39.8526    5.7844 C   0  0  1  0  0  0  0  0  0  0  0  0
   35.1721   40.5863    4.3620 C   0  0  2  0  0  0  0  0  0  0  0  0
   36.3577   40.8107    5.1945 N   0  0  0  0  0  0  0  0  0  0  0  0
   32.6131   36.9496    8.8000 C   0  0  0  0  0  0  0  0  0  0  0  0
   38.6483   37.3477    5.5784 C   0  0  2  0  0  0  0  0  0  0  0  0
   39.4921   36.2594    5.9686 O   0  0  0  0  0  0  0  0  0  0  0  0
   41.9922   40.1118    4.2638 C   0  0  2  0  0  0  0  0  0  0  0  0
   42.6082   38.9344    3.5789 N   0  0  0  0  0  0  0  0  0  0  0  0
   34.2475   41.8326    4.4089 C   0  0  1  0  0  0  0  0  0  0  0  0
   34.9717   42.9933    4.0100 O   0  0  0  0  0  0  0  0  0  0  0  0
   32.8354   38.2766    8.0179 C   0  0  2  0  0  0  0  0  0  0  0  0
   31.5254   38.7263    7.5102 N   0  0  0  0  0  0  0  0  0  0  0  0
   39.4355   38.6286    5.2535 C   0  0  2  0  0  0  0  0  0  0  0  0
   40.7484   38.6713    5.9419 O   0  0  0  0  0  0  0  0  0  0  0  0
   42.9680   41.3694    4.1557 C   0  0  1  0  0  0  0  0  0  0  0  0
   42.2884   42.5916    4.5183 O   0  0  0  0  0  0  0  0  0  0  0  0
   33.0249   41.6100    3.4889 C   0  0  2  0  0  0  0  0  0  0  0  0
   32.1879   42.7471    3.5130 O   0  0  0  0  0  0  0  0  0  0  0  0
   33.8832   38.0556    6.8700 C   0  0  2  0  0  0  0  0  0  0  0  0
   38.5184   39.7534    5.7255 C   0  0  2  0  0  0  0  0  0  0  0  0
   37.6846   39.1906    6.7286 O   0  0  0  0  0  0  0  0  0  0  0  0
   44.2486   41.2112    5.0703 C   0  0  2  0  0  0  0  0  0  0  0  0
   45.0665   40.1456    4.5585 O   0  0  0  0  0  0  0  0  0  0  0  0
   32.2471   40.3552    3.9332 C   0  0  2  0  0  0  0  0  0  0  0  0
   33.1736   39.2017    3.9110 O   0  0  0  0  0  0  0  0  0  0  0  0
   35.2701   37.5336    7.4997 C   0  0  2  0  0  0  0  0  0  0  0  0
   36.3084   37.2676    6.4676 O   0  0  0  0  0  0  0  0  0  0  0  0
   37.6191   40.3110    4.6320 C   0  0  0  0  0  0  0  0  0  0  0  0
   43.8090   40.9128    6.5609 C   0  0  1  0  0  0  0  0  0  0  0  0
   42.8524   39.7570    6.6402 O   0  0  0  0  0  0  0  0  0  0  0  0
   31.0414   40.1291    2.9914 C   0  0  0  0  0  0  0  0  0  0  0  0
   30.1949   38.9710    3.3327 N   0  0  0  0  0  0  0  0  0  0  0  0
   35.0273   36.2040    8.2453 C   0  0  1  0  0  0  0  0  0  0  0  0
   36.2600   35.7385    8.8043 O   0  0  0  0  0  0  0  0  0  0  0  0
   45.0265   40.6886    7.5381 C   0  0  0  0  0  0  0  0  0  0  0  0
   44.6852   40.4151    8.9706 N   0  0  0  0  0  0  0  0  0  0  0  0
  1  2  1  1  0  0  0
  1  7  1  0  0  0  0
  1 30  1  0  0  0  0
  3  4  1  6  0  0  0
  3  9  1  0  0  0  0
  3 38  1  0  0  0  0
  5 10  1  0  0  0  0
  5 26  1  6  0  0  0
  5 32  1  0  0  0  0
  6 12  1  0  0  0  0
  6 35  1  0  0  0  0
  6 19  1  6  0  0  0
  7  8  1  1  0  0  0
  7 14  1  0  0  0  0
  8 33  1  0  0  0  0
  9 16  1  0  0  0  0
 10 11  1  1  0  0  0
 10 18  1  0  0  0  0
 12 13  1  1  0  0  0
 12 20  1  0  0  0  0
 14 15  1  6  0  0  0
 14 22  1  0  0  0  0
 16 17  1  6  0  0  0
 16 24  1  0  0  0  0
 18 19  1  1  0  0  0
 18 25  1  0  0  0  0
 20 21  1  1  0  0  0
 20 27  1  0  0  0  0
 22 23  1  1  0  0  0
 22 29  1  0  0  0  0
 24  2  1  1  0  0  0
 24 31  1  0  0  0  0
 25 26  1  1  0  0  0
 25 33  1  0  0  0  0
 27 28  1  6  0  0  0
 27 34  1  0  0  0  0
 29 30  1  0  0  0  0
 29 36  1  6  0  0  0
 31 32  1  6  0  0  0
 31 38  1  0  0  0  0
 34 35  1  0  0  0  0
 34 40  1  1  0  0  0
 36 37  1  0  0  0  0
 38 39  1  1  0  0  0
 40 41  1  0  0  0  0
M  END
>  <CHROM.1>
-177.68797574,-59.17952561,-178.60620942,179.38253402,37.32720971,39.32631651
5.84464856,3.05358233,0.07952146,2.37698192

>  <Name>
ligand

>  <RI>
0

>  <Rbt.Current_Directory>
/home/itssahil/PROJECTS/Mol_Feturizer/New_Systems/rnas/1ZZ5

>  <Rbt.Executable>
rbdock ($Id: //depot/dev/client3/rdock/2013.1/src/exe/rbdock.cxx#4 $)

>  <Rbt.Library>
libRbt.so (2013.1, Build901 2013/11/27)

>  <Rbt.Parameter_File>
/export/apps/rDock/src/rDock_2013.1_src/data/scripts/dock_solv.prm

>  <Rbt.Receptor>
prm/pocket_docking_4.prm

>  <SCORE>
-12.5393

>  <SCORE.INTER>
-9.92691

>  <SCORE.INTER.CONST>
1

>  <SCORE.INTER.POLAR>
0

>  <SCORE.INTER.ROT>
4

>  <SCORE.INTER.SOLV>
19.1443

>  <SCORE.INTER.VDW>
-19.266

>  <SCORE.INTER.norm>
-0.24212

>  <SCORE.INTRA>
-2.61239

>  <SCORE.INTRA.DIHEDRAL>
-4.90956

>  <SCORE.INTRA.DIHEDRAL.0>
5.18357

>  <SCORE.INTRA.POLAR>
0

>  <SCORE.INTRA.POLAR.0>
0

>  <SCORE.INTRA.REPUL>
0

>  <SCORE.INTRA.REPUL.0>
0

>  <SCORE.INTRA.SOLV>
-1.23652

>  <SCORE.INTRA.SOLV.lig_0>
-109.973

>  <SCORE.INTRA.VDW>
0.460652

>  <SCORE.INTRA.VDW.0>
-1.68646

>  <SCORE.INTRA.norm>
-0.0637167

>  <SCORE.RESTR>
0

>  <SCORE.RESTR.CAVITY>
0

>  <SCORE.RESTR.norm>
0

>  <SCORE.SYSTEM>
0

>  <SCORE.SYSTEM.CONST>
0

>  <SCORE.SYSTEM.DIHEDRAL>
0

>  <SCORE.SYSTEM.SOLV>
0

>  <SCORE.SYSTEM.norm>
0

>  <SCORE.heavy>
41

>  <SCORE.norm>
-0.305837

>  <RMSD>
2.140

$$$$
ligand
 OpenBabel11021811423D
libRbt.so/2013.1/901 2013/11/27
 41 45  0  0  0  0  0  0  0  0999 V2000
   33.9249   38.9506    5.0266 C   0  0  2  0  0  0  0  0  0  0  0  0
   33.5895   39.1973    6.4061 O   0  0  0  0  0  0  0  0  0  0  0  0
   34.0216   37.0027   10.1363 C   0  0  2  0  0  0  0  0  0  0  0  0
   33.9772   35.8804   11.1089 N   0  0  0  0  0  0  0  0  0  0  0  0
   37.4523   38.4091    7.1152 C   0  0  1  0  0  0  0  0  0  0  0  0
   40.9989   40.8670    5.5958 C   0  0  1  0  0  0  0  0  0  0  0  0
   34.4857   40.2357    4.3470 C   0  0  2  0  0  0  0  0  0  0  0  0
   35.6156   40.8208    5.0751 N   0  0  0  0  0  0  0  0  0  0  0  0
   32.6047   37.1826    9.5055 C   0  0  0  0  0  0  0  0  0  0  0  0
   38.4737   37.9459    6.0513 C   0  0  2  0  0  0  0  0  0  0  0  0
   39.4945   37.1176    6.6175 O   0  0  0  0  0  0  0  0  0  0  0  0
   41.7920   40.6098    4.2441 C   0  0  2  0  0  0  0  0  0  0  0  0
   42.7591   39.4718    4.3111 N   0  0  0  0  0  0  0  0  0  0  0  0
   33.3586   41.2904    4.1807 C   0  0  1  0  0  0  0  0  0  0  0  0
   33.8695   42.4533    3.5344 O   0  0  0  0  0  0  0  0  0  0  0  0
   32.5917   38.3437    8.4693 C   0  0  2  0  0  0  0  0  0  0  0  0
   31.2227   38.4531    7.9309 N   0  0  0  0  0  0  0  0  0  0  0  0
   39.0258   39.2504    5.4515 C   0  0  2  0  0  0  0  0  0  0  0  0
   40.3125   39.6528    6.0697 O   0  0  0  0  0  0  0  0  0  0  0  0
   42.5547   41.9400    3.8031 C   0  0  1  0  0  0  0  0  0  0  0  0
   41.6226   42.9759    3.4226 O   0  0  0  0  0  0  0  0  0  0  0  0
   32.1919   40.6833    3.3677 C   0  0  2  0  0  0  0  0  0  0  0  0
   31.1700   41.6430    3.1974 O   0  0  0  0  0  0  0  0  0  0  0  0
   33.6602   38.0782    7.3503 C   0  0  2  0  0  0  0  0  0  0  0  0
   37.9279   40.2744    5.7253 C   0  0  2  0  0  0  0  0  0  0  0  0
   37.2062   39.7910    6.8494 O   0  0  0  0  0  0  0  0  0  0  0  0
   43.4923   42.4976    4.9483 C   0  0  2  0  0  0  0  0  0  0  0  0
   44.5779   41.5794    5.1599 O   0  0  0  0  0  0  0  0  0  0  0  0
   31.6447   39.4296    4.0789 C   0  0  2  0  0  0  0  0  0  0  0  0
   32.7576   38.4697    4.2511 O   0  0  0  0  0  0  0  0  0  0  0  0
   35.1177   37.9367    8.0197 C   0  0  2  0  0  0  0  0  0  0  0  0
   36.1847   37.6494    7.0233 O   0  0  0  0  0  0  0  0  0  0  0  0
   36.9437   40.4401    4.5768 C   0  0  0  0  0  0  0  0  0  0  0  0
   42.6565   42.6920    6.2780 C   0  0  1  0  0  0  0  0  0  0  0  0
   41.9056   41.4458    6.6527 O   0  0  0  0  0  0  0  0  0  0  0  0
   30.4952   38.8176    3.2448 C   0  0  0  0  0  0  0  0  0  0  0  0
   29.2924   39.6627    3.1300 N   0  0  0  0  0  0  0  0  0  0  0  0
   35.1108   36.7622    9.0213 C   0  0  1  0  0  0  0  0  0  0  0  0
   36.4065   36.6347    9.6160 O   0  0  0  0  0  0  0  0  0  0  0  0
   43.5249   43.1987    7.4931 C   0  0  0  0  0  0  0  0  0  0  0  0
   44.1266   44.5632    7.3546 N   0  0  0  0  0  0  0  0  0  0  0  0
  1  2  1  1  0  0  0
  1  7  1  0  0  0  0
  1 30  1  0  0  0  0
  3  4  1  1  0  0  0
  3  9  1  0  0  0  0
  3 38  1  0  0  0  0
  5 10  1  0  0  0  0
  5 26  1  6  0  0  0
  5 32  1  0  0  0  0
  6 12  1  0  0  0  0
  6 35  1  0  0  0  0
  6 19  1  1  0  0  0
  7  8  1  1  0  0  0
  7 14  1  0  0  0  0
  8 33  1  0  0  0  0
  9 16  1  0  0  0  0
 10 11  1  1  0  0  0
 10 18  1  0  0  0  0
 12 13  1  1  0  0  0
 12 20  1  0  0  0  0
 14 15  1  6  0  0  0
 14 22  1  0  0  0  0
 16 17  1  6  0  0  0
 16 24  1  0  0  0  0
 18 19  1  1  0  0  0
 18 25  1  0  0  0  0
 20 21  1  1  0  0  0
 20 27  1  0  0  0  0
 22 23  1  1  0  0  0
 22 29  1  0  0  0  0
 24  2  1  6  0  0  0
 24 31  1  0  0  0  0
 25 26  1  1  0  0  0
 25 33  1  0  0  0  0
 27 28  1  1  0  0  0
 27 34  1  0  0  0  0
 29 30  1  0  0  0  0
 29 36  1  6  0  0  0
 31 32  1  6  0  0  0
 31 38  1  0  0  0  0
 34 35  1  0  0  0  0
 34 40  1  1  0  0  0
 36 37  1  0  0  0  0
 38 39  1  1  0  0  0
 40 41  1  0  0  0  0
M  END
>  <CHROM.1>
178.77346394,-79.30602013,-65.47585547,64.59309818,36.85588013,39.77235724
5.98411279,2.93545968,0.19688874,2.22994256

>  <Name>
ligand

>  <RI>
0

>  <Rbt.Current_Directory>
/home/itssahil/PROJECTS/Mol_Feturizer/New_Systems/rnas/1ZZ5

>  <Rbt.Executable>
rbdock ($Id: //depot/dev/client3/rdock/2013.1/src/exe/rbdock.cxx#4 $)

>  <Rbt.Library>
libRbt.so (2013.1, Build901 2013/11/27)

>  <Rbt.Parameter_File>
/export/apps/rDock/src/rDock_2013.1_src/data/scripts/dock_solv.prm

>  <Rbt.Receptor>
prm/pocket_docking_3.prm

>  <SCORE>
-12.1149

>  <SCORE.INTER>
-11.1192

>  <SCORE.INTER.CONST>
1

>  <SCORE.INTER.POLAR>
0

>  <SCORE.INTER.ROT>
4

>  <SCORE.INTER.SOLV>
15.6694

>  <SCORE.INTER.VDW>
-18.9026

>  <SCORE.INTER.norm>
-0.2712

>  <SCORE.INTRA>
-0.99567

>  <SCORE.INTRA.DIHEDRAL>
-3.12315

>  <SCORE.INTRA.DIHEDRAL.0>
5.18357

>  <SCORE.INTRA.POLAR>
0

>  <SCORE.INTRA.POLAR.0>
0

>  <SCORE.INTRA.REPUL>
0

>  <SCORE.INTRA.REPUL.0>
0

>  <SCORE.INTRA.SOLV>
0.102655

>  <SCORE.INTRA.SOLV.lig_0>
-109.973

>  <SCORE.INTRA.VDW>
0.514576

>  <SCORE.INTRA.VDW.0>
-1.68646

>  <SCORE.INTRA.norm>
-0.0242846

>  <SCORE.RESTR>
0

>  <SCORE.RESTR.CAVITY>
0

>  <SCORE.RESTR.norm>
0

>  <SCORE.SYSTEM>
0

>  <SCORE.SYSTEM.CONST>
0

>  <SCORE.SYSTEM.DIHEDRAL>
0

>  <SCORE.SYSTEM.SOLV>
0

>  <SCORE.SYSTEM.norm>
0

>  <SCORE.heavy>
41

>  <SCORE.norm>
-0.295485

>  <RMSD>
2.144

$$$$
ligand
 OpenBabel11021811423D
libRbt.so/2013.1/901 2013/11/27
 41 45  0  0  0  0  0  0  0  0999 V2000
   34.4880   39.3190    4.7272 C   0  0  2  0  0  0  0  0  0  0  0  0
   34.1567   39.3380    6.1295 O   0  0  0  0  0  0  0  0  0  0  0  0
   34.0334   36.3851    9.3206 C   0  0  2  0  0  0  0  0  0  0  0  0
   33.7431   35.1175   10.0390 N   0  0  0  0  0  0  0  0  0  0  0  0
   37.7730   37.6929    6.6410 C   0  0  1  0  0  0  0  0  0  0  0  0
   41.7234   39.7316    5.7415 C   0  0  1  0  0  0  0  0  0  0  0  0
   35.3055   40.5835    4.3266 C   0  0  2  0  0  0  0  0  0  0  0  0
   36.4992   40.7785    5.1549 N   0  0  0  0  0  0  0  0  0  0  0  0
   32.6994   36.9595    8.7476 C   0  0  0  0  0  0  0  0  0  0  0  0
   38.7253   37.2696    5.4992 C   0  0  2  0  0  0  0  0  0  0  0  0
   39.5502   36.1623    5.8763 O   0  0  0  0  0  0  0  0  0  0  0  0
   42.0273   40.0903    4.2246 C   0  0  2  0  0  0  0  0  0  0  0  0
   42.5934   38.9568    3.4311 N   0  0  0  0  0  0  0  0  0  0  0  0
   34.4050   41.8467    4.3883 C   0  0  1  0  0  0  0  0  0  0  0  0
   35.1493   42.9967    3.9952 O   0  0  0  0  0  0  0  0  0  0  0  0
   32.9430   38.2885    7.9752 C   0  0  2  0  0  0  0  0  0  0  0  0
   31.6394   38.7672    7.4777 N   0  0  0  0  0  0  0  0  0  0  0  0
   39.5352   38.5380    5.1808 C   0  0  2  0  0  0  0  0  0  0  0  0
   40.8520   38.5500    5.8629 O   0  0  0  0  0  0  0  0  0  0  0  0
   43.0118   41.3437    4.1518 C   0  0  1  0  0  0  0  0  0  0  0  0
   42.3665   42.5443    4.6304 O   0  0  0  0  0  0  0  0  0  0  0  0
   33.1740   41.6549    3.4726 C   0  0  2  0  0  0  0  0  0  0  0  0
   32.3589   42.8075    3.5101 O   0  0  0  0  0  0  0  0  0  0  0  0
   33.9809   38.0571    6.8204 C   0  0  2  0  0  0  0  0  0  0  0  0
   38.6419   39.6760    5.6665 C   0  0  2  0  0  0  0  0  0  0  0  0
   37.8024   39.1209    6.6692 O   0  0  0  0  0  0  0  0  0  0  0  0
   44.3348   41.1121    4.9870 C   0  0  2  0  0  0  0  0  0  0  0  0
   45.1128   40.0766    4.3633 O   0  0  0  0  0  0  0  0  0  0  0  0
   32.3746   40.4115    3.9105 C   0  0  2  0  0  0  0  0  0  0  0  0
   33.2789   39.2408    3.8743 O   0  0  0  0  0  0  0  0  0  0  0  0
   35.3607   37.5037    7.4388 C   0  0  2  0  0  0  0  0  0  0  0  0
   36.3887   37.2266    6.3994 O   0  0  0  0  0  0  0  0  0  0  0  0
   37.7481   40.2596    4.5821 C   0  0  0  0  0  0  0  0  0  0  0  0
   43.9673   40.7169    6.4746 C   0  0  1  0  0  0  0  0  0  0  0  0
   43.0017   39.5670    6.5245 O   0  0  0  0  0  0  0  0  0  0  0  0
   31.1603   40.2161    2.9730 C   0  0  0  0  0  0  0  0  0  0  0  0
   30.2278   39.1482    3.3782 N   0  0  0  0  0  0  0  0  0  0  0  0
   35.0962   36.1729    8.1747 C   0  0  1  0  0  0  0  0  0  0  0  0
   36.3225   35.6795    8.7238 O   0  0  0  0  0  0  0  0  0  0  0  0
   45.2296   40.4159    7.3709 C   0  0  0  0  0  0  0  0  0  0  0  0
   46.1650   41.5621    7.6051 N   0  0  0  0  0  0  0  0  0  0  0  0
  1  2  1  1  0  0  0
  1  7  1  0  0  0  0
  1 30  1  0  0  0  0
  3  4  1  6  0  0  0
  3  9  1  0  0  0  0
  3 38  1  0  0  0  0
  5 10  1  0  0  0  0
  5 26  1  6  0  0  0
  5 32  1  0  0  0  0
  6 12  1  0  0  0  0
  6 35  1  0  0  0  0
  6 19  1  6  0  0  0
  7  8  1  1  0  0  0
  7 14  1  0  0  0  0
  8 33  1  0  0  0  0
  9 16  1  0  0  0  0
 10 11  1  1  0  0  0
 10 18  1  0  0  0  0
 12 13  1  1  0  0  0
 12 20  1  0  0  0  0
 14 15  1  6  0  0  0
 14 22  1  0  0  0  0
 16 17  1  6  0  0  0
 16 24  1  0  0  0  0
 18 19  1  1  0  0  0
 18 25  1  0  0  0  0
 20 21  1  1  0  0  0
 20 27  1  0  0  0  0
 22 23  1  1  0  0  0
 22 29  1  0  0  0  0
 24  2  1  1  0  0  0
 24 31  1  0  0  0  0
 25 26  1  1  0  0  0
 25 33  1  0  0  0  0
 27 28  1  6  0  0  0
 27 34  1  0  0  0  0
 29 30  1  0  0  0  0
 29 36  1  6  0  0  0
 31 32  1  6  0  0  0
 31 38  1  0  0  0  0
 34 35  1  0  0  0  0
 34 40  1  1  0  0  0
 36 37  1  0  0  0  0
 38 39  1  1  0  0  0
 40 41  1  0  0  0  0
M  END
>  <CHROM.1>
-175.98535416,-55.94090842,-173.35887115,63.72533775,37.46271839,39.32058535
5.75853800,3.03674430,0.06637441,2.41032258

>  <Name>
ligand

>  <RI>
0

>  <Rbt.Current_Directory>
/home/itssahil/PROJECTS/Mol_Feturizer/New_Systems/rnas/1ZZ5

>  <Rbt.Executable>
rbdock ($Id: //depot/dev/client3/rdock/2013.1/src/exe/rbdock.cxx#4 $)

>  <Rbt.Library>
libRbt.so (2013.1, Build901 2013/11/27)

>  <Rbt.Parameter_File>
/export/apps/rDock/src/rDock_2013.1_src/data/scripts/dock_solv.prm

>  <Rbt.Receptor>
prm/pocket_docking_4.prm

>  <SCORE>
-12.3898

>  <SCORE.INTER>
-10.1407

>  <SCORE.INTER.CONST>
1

>  <SCORE.INTER.POLAR>
0

>  <SCORE.INTER.ROT>
4

>  <SCORE.INTER.SOLV>
19.1323

>  <SCORE.INTER.VDW>
-19.4046

>  <SCORE.INTER.norm>
-0.247334

>  <SCORE.INTRA>
-2.24905

>  <SCORE.INTRA.DIHEDRAL>
-4.59277

>  <SCORE.INTRA.DIHEDRAL.0>
5.18357

>  <SCORE.INTRA.POLAR>
0

>  <SCORE.INTRA.POLAR.0>
0

>  <SCORE.INTRA.REPUL>
0

>  <SCORE.INTRA.REPUL.0>
0

>  <SCORE.INTRA.SOLV>
-0.824159

>  <SCORE.INTRA.SOLV.lig_0>
-109.973

>  <SCORE.INTRA.VDW>
0.459413

>  <SCORE.INTRA.VDW.0>
-1.68646

>  <SCORE.INTRA.norm>
-0.0548549

>  <SCORE.RESTR>
0

>  <SCORE.RESTR.CAVITY>
0

>  <SCORE.RESTR.norm>
0

>  <SCORE.SYSTEM>
0

>  <SCORE.SYSTEM.CONST>
0

>  <SCORE.SYSTEM.DIHEDRAL>
0

>  <SCORE.SYSTEM.SOLV>
0

>  <SCORE.SYSTEM.norm>
0

>  <SCORE.heavy>
41

>  <SCORE.norm>
-0.302189

>  <RMSD>
2.150

$$$$
ligand
 OpenBabel11021811423D
libRbt.so/2013.1/901 2013/11/27
 41 45  0  0  0  0  0  0  0  0999 V2000
   34.3279   39.2538    4.7727 C   0  0  2  0  0  0  0  0  0  0  0  0
   33.9911   39.3118    6.1726 O   0  0  0  0  0  0  0  0  0  0  0  0
   33.9144   36.4627    9.4581 C   0  0  2  0  0  0  0  0  0  0  0  0
   33.6465   35.2137   10.2167 N   0  0  0  0  0  0  0  0  0  0  0  0
   37.6373   37.7565    6.7486 C   0  0  1  0  0  0  0  0  0  0  0  0
   41.5415   39.8507    5.8104 C   0  0  1  0  0  0  0  0  0  0  0  0
   35.1217   40.5205    4.3335 C   0  0  2  0  0  0  0  0  0  0  0  0
   36.3083   40.7661    5.1587 N   0  0  0  0  0  0  0  0  0  0  0  0
   32.5714   36.9915    8.8625 C   0  0  0  0  0  0  0  0  0  0  0  0
   38.6020   37.3152    5.6241 C   0  0  2  0  0  0  0  0  0  0  0  0
   39.4472   36.2374    6.0397 O   0  0  0  0  0  0  0  0  0  0  0  0
   41.8574   40.1764    4.2885 C   0  0  2  0  0  0  0  0  0  0  0  0
   42.4664   39.0382    3.5346 N   0  0  0  0  0  0  0  0  0  0  0  0
   34.1962   41.7669    4.3512 C   0  0  1  0  0  0  0  0  0  0  0  0
   34.9190   42.9180    3.9230 O   0  0  0  0  0  0  0  0  0  0  0  0
   32.7916   38.2992    8.0479 C   0  0  2  0  0  0  0  0  0  0  0  0
   31.4806   38.7353    7.5311 N   0  0  0  0  0  0  0  0  0  0  0  0
   39.3878   38.5884    5.2669 C   0  0  2  0  0  0  0  0  0  0  0  0
   40.7016   38.6488    5.9523 O   0  0  0  0  0  0  0  0  0  0  0  0
   42.8078   41.4546    4.1949 C   0  0  1  0  0  0  0  0  0  0  0  0
   42.1225   42.6491    4.6312 O   0  0  0  0  0  0  0  0  0  0  0  0
   32.9726   41.5210    3.4385 C   0  0  2  0  0  0  0  0  0  0  0  0
   32.1347   42.6577    3.4359 O   0  0  0  0  0  0  0  0  0  0  0  0
   33.8381   38.0509    6.9044 C   0  0  2  0  0  0  0  0  0  0  0  0
   38.4704   39.7236    5.7125 C   0  0  2  0  0  0  0  0  0  0  0  0
   37.6384   39.1850    6.7302 O   0  0  0  0  0  0  0  0  0  0  0  0
   44.1244   41.2832    5.0543 C   0  0  2  0  0  0  0  0  0  0  0  0
   44.9398   40.2534    4.4703 O   0  0  0  0  0  0  0  0  0  0  0  0
   32.1964   40.2769    3.9144 C   0  0  2  0  0  0  0  0  0  0  0  0
   33.1237   39.1238    3.9192 O   0  0  0  0  0  0  0  0  0  0  0  0
   35.2262   37.5455    7.5448 C   0  0  2  0  0  0  0  0  0  0  0  0
   36.2633   37.2552    6.5181 O   0  0  0  0  0  0  0  0  0  0  0  0
   37.5692   40.2537    4.6069 C   0  0  0  0  0  0  0  0  0  0  0  0
   43.7462   40.9184    6.5471 C   0  0  1  0  0  0  0  0  0  0  0  0
   42.8123   39.7435    6.6153 O   0  0  0  0  0  0  0  0  0  0  0  0
   30.9896   40.0269    2.9800 C   0  0  0  0  0  0  0  0  0  0  0  0
   30.1556   38.8651    3.3393 N   0  0  0  0  0  0  0  0  0  0  0  0
   34.9854   36.2344    8.3230 C   0  0  1  0  0  0  0  0  0  0  0  0
   36.2192   35.7836    8.8916 O   0  0  0  0  0  0  0  0  0  0  0  0
   45.0032   40.6776    7.4687 C   0  0  0  0  0  0  0  0  0  0  0  0
   44.7212   40.3641    8.9059 N   0  0  0  0  0  0  0  0  0  0  0  0
  1  2  1  1  0  0  0
  1  7  1  0  0  0  0
  1 30  1  0  0  0  0
  3  4  1  6  0  0  0
  3  9  1  0  0  0  0
  3 38  1  0  0  0  0
  5 10  1  0  0  0  0
  5 26  1  6  0  0  0
  5 32  1  0  0  0  0
  6 12  1  0  0  0  0
  6 35  1  0  0  0  0
  6 19  1  6  0  0  0
  7  8  1  1  0  0  0
  7 14  1  0  0  0  0
  8 33  1  0  0  0  0
  9 16  1  0  0  0  0
 10 11  1  1  0  0  0
 10 18  1  0  0  0  0
 12 13  1  1  0  0  0
 12 20  1  0  0  0  0
 14 15  1  6  0  0  0
 14 22  1  0  0  0  0
 16 17  1  6  0  0  0
 16 24  1  0  0  0  0
 18 19  1  1  0  0  0
 18 25  1  0  0  0  0
 20 21  1  1  0  0  0
 20 27  1  0  0  0  0
 22 23  1  1  0  0  0
 22 29  1  0  0  0  0
 24  2  1  1  0  0  0
 24 31  1  0  0  0  0
 25 26  1  1  0  0  0
 25 33  1  0  0  0  0
 27 28  1  6  0  0  0
 27 34  1  0  0  0  0
 29 30  1  0  0  0  0
 29 36  1  6  0  0  0
 31 32  1  6  0  0  0
 31 38  1  0  0  0  0
 34 35  1  0  0  0  0
 34 40  1  1  0  0  0
 36 37  1  0  0  0  0
 38 39  1  1  0  0  0
 40 41  1  0  0  0  0
M  END
>  <CHROM.1>
-175.12634496,-56.73616008,-179.45172417,178.40094495,37.26828776,39.31659792
5.85084663,3.04934219,0.08486764,2.35792401

>  <Name>
ligand

>  <RI>
0

>  <Rbt.Current_Directory>
/home/itssahil/PROJECTS/Mol_Feturizer/New_Systems/rnas/1ZZ5

>  <Rbt.Executable>
rbdock ($Id: //depot/dev/client3/rdock/2013.1/src/exe/rbdock.cxx#4 $)

>  <Rbt.Library>
libRbt.so (2013.1, Build901 2013/11/27)

>  <Rbt.Parameter_File>
/export/apps/rDock/src/rDock_2013.1_src/data/scripts/dock_solv.prm

>  <Rbt.Receptor>
prm/pocket_docking_4.prm

>  <SCORE>
-12.595

>  <SCORE.INTER>
-10.0683

>  <SCORE.INTER.CONST>
1

>  <SCORE.INTER.POLAR>
0

>  <SCORE.INTER.ROT>
4

>  <SCORE.INTER.SOLV>
19.1941

>  <SCORE.INTER.VDW>
-19.3769

>  <SCORE.INTER.norm>
-0.245567

>  <SCORE.INTRA>
-2.52673

>  <SCORE.INTRA.DIHEDRAL>
-4.76894

>  <SCORE.INTRA.DIHEDRAL.0>
5.18357

>  <SCORE.INTRA.POLAR>
0

>  <SCORE.INTRA.POLAR.0>
0

>  <SCORE.INTRA.REPUL>
0

>  <SCORE.INTRA.REPUL.0>
0

>  <SCORE.INTRA.SOLV>
-1.21861

>  <SCORE.INTRA.SOLV.lig_0>
-109.973

>  <SCORE.INTRA.VDW>
0.467043

>  <SCORE.INTRA.VDW.0>
-1.68646

>  <SCORE.INTRA.norm>
-0.0616277

>  <SCORE.RESTR>
0

>  <SCORE.RESTR.CAVITY>
0

>  <SCORE.RESTR.norm>
0

>  <SCORE.SYSTEM>
0

>  <SCORE.SYSTEM.CONST>
0

>  <SCORE.SYSTEM.DIHEDRAL>
0

>  <SCORE.SYSTEM.SOLV>
0

>  <SCORE.SYSTEM.norm>
0

>  <SCORE.heavy>
41

>  <SCORE.norm>
-0.307195

>  <RMSD>
2.155

$$$$
ligand
 OpenBabel11021811423D
libRbt.so/2013.1/901 2013/11/27
 41 45  0  0  0  0  0  0  0  0999 V2000
   33.8455   38.9735    5.1873 C   0  0  2  0  0  0  0  0  0  0  0  0
   33.5488   39.1669    6.5841 O   0  0  0  0  0  0  0  0  0  0  0  0
   34.1092   36.8431   10.2178 C   0  0  2  0  0  0  0  0  0  0  0  0
   34.1030   35.6860   11.1497 N   0  0  0  0  0  0  0  0  0  0  0  0
   37.4374   38.3903    7.1511 C   0  0  1  0  0  0  0  0  0  0  0  0
   40.9360   40.9141    5.5914 C   0  0  1  0  0  0  0  0  0  0  0  0
   34.3751   40.2875    4.5389 C   0  0  2  0  0  0  0  0  0  0  0  0
   35.5210   40.8566    5.2546 N   0  0  0  0  0  0  0  0  0  0  0  0
   32.6728   37.0322    9.6355 C   0  0  0  0  0  0  0  0  0  0  0  0
   38.4309   37.9757    6.0417 C   0  0  2  0  0  0  0  0  0  0  0  0
   39.4748   37.1372    6.5475 O   0  0  0  0  0  0  0  0  0  0  0  0
   41.7388   40.6540    4.2461 C   0  0  2  0  0  0  0  0  0  0  0  0
   42.7131   39.5230    4.3257 N   0  0  0  0  0  0  0  0  0  0  0  0
   33.2348   41.3368    4.4440 C   0  0  1  0  0  0  0  0  0  0  0  0
   33.7165   42.5271    3.8259 O   0  0  0  0  0  0  0  0  0  0  0  0
   32.6195   38.2299    8.6431 C   0  0  2  0  0  0  0  0  0  0  0  0
   31.2344   38.3456    8.1491 N   0  0  0  0  0  0  0  0  0  0  0  0
   38.9540   39.3062    5.4740 C   0  0  2  0  0  0  0  0  0  0  0  0
   40.2549   39.6982    6.0687 O   0  0  0  0  0  0  0  0  0  0  0  0
   42.4953   41.9865    3.8013 C   0  0  1  0  0  0  0  0  0  0  0  0
   41.5584   43.0138    3.4090 O   0  0  0  0  0  0  0  0  0  0  0  0
   32.0497   40.7484    3.6439 C   0  0  2  0  0  0  0  0  0  0  0  0
   31.0153   41.7038    3.5385 O   0  0  0  0  0  0  0  0  0  0  0  0
   33.6568   38.0152    7.4845 C   0  0  2  0  0  0  0  0  0  0  0  0
   37.8560   40.3091    5.8169 C   0  0  2  0  0  0  0  0  0  0  0  0
   37.1719   39.7786    6.9432 O   0  0  0  0  0  0  0  0  0  0  0  0
   43.4222   42.5574    4.9487 C   0  0  2  0  0  0  0  0  0  0  0  0
   44.5126   41.6479    5.1723 O   0  0  0  0  0  0  0  0  0  0  0  0
   31.5344   39.4647    4.3246 C   0  0  2  0  0  0  0  0  0  0  0  0
   32.6599   38.5098    4.4292 O   0  0  0  0  0  0  0  0  0  0  0  0
   35.1345   37.8634    8.1055 C   0  0  2  0  0  0  0  0  0  0  0  0
   36.1741   37.6225    7.0686 O   0  0  0  0  0  0  0  0  0  0  0  0
   36.8370   40.5069    4.7043 C   0  0  0  0  0  0  0  0  0  0  0  0
   42.5772   42.7543    6.2721 C   0  0  1  0  0  0  0  0  0  0  0  0
   41.8325   41.5054    6.6501 O   0  0  0  0  0  0  0  0  0  0  0  0
   30.3660   38.8723    3.5026 C   0  0  0  0  0  0  0  0  0  0  0  0
   30.7060   38.5033    2.1161 N   0  0  0  0  0  0  0  0  0  0  0  0
   35.1671   36.6535    9.0635 C   0  0  1  0  0  0  0  0  0  0  0  0
   36.4808   36.5169    9.6151 O   0  0  0  0  0  0  0  0  0  0  0  0
   43.4350   43.2742    7.4892 C   0  0  0  0  0  0  0  0  0  0  0  0
   42.6949   43.5071    8.7704 N   0  0  0  0  0  0  0  0  0  0  0  0
  1  2  1  1  0  0  0
  1  7  1  0  0  0  0
  1 30  1  0  0  0  0
  3  4  1  1  0  0  0
  3  9  1  0  0  0  0
  3 38  1  0  0  0  0
  5 10  1  0  0  0  0
  5 26  1  6  0  0  0
  5 32  1  0  0  0  0
  6 12  1  0  0  0  0
  6 35  1  0  0  0  0
  6 19  1  1  0  0  0
  7  8  1  1  0  0  0
  7 14  1  0  0  0  0
  8 33  1  0  0  0  0
  9 16  1  0  0  0  0
 10 11  1  1  0  0  0
 10 18  1  0  0  0  0
 12 13  1  1  0  0  0
 12 20  1  0  0  0  0
 14 15  1  6  0  0  0
 14 22  1  0  0  0  0
 16 17  1  6  0  0  0
 16 24  1  0  0  0  0
 18 19  1  1  0  0  0
 18 25  1  0  0  0  0
 20 21  1  1  0  0  0
 20 27  1  0  0  0  0
 22 23  1  1  0  0  0
 22 29  1  0  0  0  0
 24  2  1  6  0  0  0
 24 31  1  0  0  0  0
 25 26  1  1  0  0  0
 25 33  1  0  0  0  0
 27 28  1  1  0  0  0
 27 34  1  0  0  0  0
 29 30  1  0  0  0  0
 29 36  1  6  0  0  0
 31 32  1  6  0  0  0
 31 38  1  0  0  0  0
 34 35  1  0  0  0  0
 34 40  1  1  0  0  0
 36 37  1  0  0  0  0
 38 39  1  1  0  0  0
 40 41  1  0  0  0  0
M  END
>  <CHROM.1>
176.98045336,-81.17322861,60.08137535,178.94849316,36.80952059,39.72220415
6.08633274,2.92971043,0.20704461,2.20894679

>  <Name>
ligand

>  <RI>
0

>  <Rbt.Current_Directory>
/home/itssahil/PROJECTS/Mol_Feturizer/New_Systems/rnas/1ZZ5

>  <Rbt.Executable>
rbdock ($Id: //depot/dev/client3/rdock/2013.1/src/exe/rbdock.cxx#4 $)

>  <Rbt.Library>
libRbt.so (2013.1, Build901 2013/11/27)

>  <Rbt.Parameter_File>
/export/apps/rDock/src/rDock_2013.1_src/data/scripts/dock_solv.prm

>  <Rbt.Receptor>
prm/pocket_docking_3.prm

>  <SCORE>
-11.2474

>  <SCORE.INTER>
-10.0425

>  <SCORE.INTER.CONST>
1

>  <SCORE.INTER.POLAR>
0

>  <SCORE.INTER.ROT>
4

>  <SCORE.INTER.SOLV>
18.7233

>  <SCORE.INTER.VDW>
-19.2028

>  <SCORE.INTER.norm>
-0.24494

>  <SCORE.INTRA>
-1.20823

>  <SCORE.INTRA.DIHEDRAL>
-2.95256

>  <SCORE.INTRA.DIHEDRAL.0>
5.18357

>  <SCORE.INTRA.POLAR>
0

>  <SCORE.INTRA.POLAR.0>
0

>  <SCORE.INTRA.REPUL>
0

>  <SCORE.INTRA.REPUL.0>
0

>  <SCORE.INTRA.SOLV>
-0.0961008

>  <SCORE.INTRA.SOLV.lig_0>
-109.973

>  <SCORE.INTRA.VDW>
0.316103

>  <SCORE.INTRA.VDW.0>
-1.68646

>  <SCORE.INTRA.norm>
-0.0294689

>  <SCORE.RESTR>
0.00332465

>  <SCORE.RESTR.CAVITY>
0.00332465

>  <SCORE.RESTR.norm>
8.10891e-05

>  <SCORE.SYSTEM>
0

>  <SCORE.SYSTEM.CONST>
0

>  <SCORE.SYSTEM.DIHEDRAL>
0

>  <SCORE.SYSTEM.SOLV>
0

>  <SCORE.SYSTEM.norm>
0

>  <SCORE.heavy>
41

>  <SCORE.norm>
-0.274327

>  <RMSD>
2.158

$$$$
ligand
 OpenBabel11021811423D
libRbt.so/2013.1/901 2013/11/27
 41 45  0  0  0  0  0  0  0  0999 V2000
   35.3358   39.7799    4.8061 C   0  0  2  0  0  0  0  0  0  0  0  0
   34.9447   39.6398    6.1860 O   0  0  0  0  0  0  0  0  0  0  0  0
   34.7833   36.3612    9.0395 C   0  0  2  0  0  0  0  0  0  0  0  0
   34.5046   35.0166    9.6065 N   0  0  0  0  0  0  0  0  0  0  0  0
   38.5883   38.0526    6.6865 C   0  0  1  0  0  0  0  0  0  0  0  0
   42.4677   40.3068    6.2521 C   0  0  1  0  0  0  0  0  0  0  0  0
   36.1274   41.1025    4.5787 C   0  0  2  0  0  0  0  0  0  0  0  0
   37.2778   41.2418    5.4768 N   0  0  0  0  0  0  0  0  0  0  0  0
   33.4566   36.9555    8.4697 C   0  0  0  0  0  0  0  0  0  0  0  0
   39.6017   37.7805    5.5513 C   0  0  2  0  0  0  0  0  0  0  0  0
   40.4459   36.6631    5.8470 O   0  0  0  0  0  0  0  0  0  0  0  0
   42.8174   40.9122    4.8262 C   0  0  2  0  0  0  0  0  0  0  0  0
   43.4893   39.9482    3.9020 N   0  0  0  0  0  0  0  0  0  0  0  0
   35.1840   42.3259    4.7318 C   0  0  1  0  0  0  0  0  0  0  0  0
   35.9060   43.5319    4.4964 O   0  0  0  0  0  0  0  0  0  0  0  0
   33.6889   38.3657    7.8534 C   0  0  2  0  0  0  0  0  0  0  0  0
   32.3926   38.8575    7.3500 N   0  0  0  0  0  0  0  0  0  0  0  0
   40.3821   39.0980    5.4056 C   0  0  2  0  0  0  0  0  0  0  0  0
   41.6676   39.0745    6.1447 O   0  0  0  0  0  0  0  0  0  0  0  0
   43.7235   42.2141    4.9987 C   0  0  1  0  0  0  0  0  0  0  0  0
   42.9829   43.2887    5.6181 O   0  0  0  0  0  0  0  0  0  0  0  0
   34.0000   42.1982    3.7456 C   0  0  2  0  0  0  0  0  0  0  0  0
   33.1465   43.3167    3.8669 O   0  0  0  0  0  0  0  0  0  0  0  0
   34.7820   38.2882    6.7294 C   0  0  2  0  0  0  0  0  0  0  0  0
   39.4320   40.1520    5.9670 C   0  0  2  0  0  0  0  0  0  0  0  0
   38.5694   39.4697    6.8661 O   0  0  0  0  0  0  0  0  0  0  0  0
   45.0190   41.9292    5.8603 C   0  0  2  0  0  0  0  0  0  0  0  0
   45.8881   41.0472    5.1301 O   0  0  0  0  0  0  0  0  0  0  0  0
   33.2242   40.8931    4.0131 C   0  0  2  0  0  0  0  0  0  0  0  0
   34.1673   39.7589    3.8953 O   0  0  0  0  0  0  0  0  0  0  0  0
   36.1518   37.7112    7.3486 C   0  0  2  0  0  0  0  0  0  0  0  0
   37.2316   37.5757    6.3340 O   0  0  0  0  0  0  0  0  0  0  0  0
   38.5663   40.8224    4.9103 C   0  0  0  0  0  0  0  0  0  0  0  0
   44.6094   41.2887    7.2482 C   0  0  1  0  0  0  0  0  0  0  0  0
   43.7167   40.0935    7.0699 O   0  0  0  0  0  0  0  0  0  0  0  0
   32.0580   40.7644    3.0056 C   0  0  0  0  0  0  0  0  0  0  0  0
   31.2013   39.5792    3.1946 N   0  0  0  0  0  0  0  0  0  0  0  0
   35.9003   36.3026    7.9275 C   0  0  1  0  0  0  0  0  0  0  0  0
   37.1177   35.7883    8.4771 O   0  0  0  0  0  0  0  0  0  0  0  0
   45.8459   40.9225    8.1562 C   0  0  0  0  0  0  0  0  0  0  0  0
   46.8130   39.9287    7.5900 N   0  0  0  0  0  0  0  0  0  0  0  0
  1  2  1  1  0  0  0
  1  7  1  0  0  0  0
  1 30  1  0  0  0  0
  3  4  1  6  0  0  0
  3  9  1  0  0  0  0
  3 38  1  0  0  0  0
  5 10  1  0  0  0  0
  5 26  1  6  0  0  0
  5 32  1  0  0  0  0
  6 12  1  0  0  0  0
  6 35  1  0  0  0  0
  6 19  1  6  0  0  0
  7  8  1  1  0  0  0
  7 14  1  0  0  0  0
  8 33  1  0  0  0  0
  9 16  1  0  0  0  0
 10 11  1  1  0  0  0
 10 18  1  0  0  0  0
 12 13  1  6  0  0  0
 12 20  1  0  0  0  0
 14 15  1  6  0  0  0
 14 22  1  0  0  0  0
 16 17  1  6  0  0  0
 16 24  1  0  0  0  0
 18 19  1  1  0  0  0
 18 25  1  0  0  0  0
 20 21  1  1  0  0  0
 20 27  1  0  0  0  0
 22 23  1  1  0  0  0
 22 29  1  0  0  0  0
 24  2  1  1  0  0  0
 24 31  1  0  0  0  0
 25 26  1  1  0  0  0
 25 33  1  0  0  0  0
 27 28  1  6  0  0  0
 27 34  1  0  0  0  0
 29 30  1  0  0  0  0
 29 36  1  6  0  0  0
 31 32  1  6  0  0  0
 31 38  1  0  0  0  0
 34 35  1  0  0  0  0
 34 40  1  6  0  0  0
 36 37  1  0  0  0  0
 38 39  1  1  0  0  0
 40 41  1  0  0  0  0
M  END
>  <CHROM.1>
-172.58248390,-56.36129598,-177.54913363,-60.50923482,38.24963825,39.72416453
5.97340758,3.05728912,0.10986847,2.52092874

>  <Name>
ligand

>  <RI>
0

>  <Rbt.Current_Directory>
/home/itssahil/PROJECTS/Mol_Feturizer/New_Systems/rnas/1ZZ5

>  <Rbt.Executable>
rbdock ($Id: //depot/dev/client3/rdock/2013.1/src/exe/rbdock.cxx#4 $)

>  <Rbt.Library>
libRbt.so (2013.1, Build901 2013/11/27)

>  <Rbt.Parameter_File>
/export/apps/rDock/src/rDock_2013.1_src/data/scripts/dock_solv.prm

>  <Rbt.Receptor>
prm/pocket_docking_3.prm

>  <SCORE>
-11.15

>  <SCORE.INTER>
-9.44475

>  <SCORE.INTER.CONST>
1

>  <SCORE.INTER.POLAR>
0

>  <SCORE.INTER.ROT>
4

>  <SCORE.INTER.SOLV>
17.1479

>  <SCORE.INTER.VDW>
-18.2791

>  <SCORE.INTER.norm>
-0.23036

>  <SCORE.INTRA>
-1.70527

>  <SCORE.INTRA.DIHEDRAL>
-4.59668

>  <SCORE.INTRA.DIHEDRAL.0>
5.18357

>  <SCORE.INTRA.POLAR>
0

>  <SCORE.INTRA.POLAR.0>
0

>  <SCORE.INTRA.REPUL>
0

>  <SCORE.INTRA.REPUL.0>
0

>  <SCORE.INTRA.SOLV>
0.484757

>  <SCORE.INTRA.SOLV.lig_0>
-109.973

>  <SCORE.INTRA.VDW>
0.350688

>  <SCORE.INTRA.VDW.0>
-1.68646

>  <SCORE.INTRA.norm>
-0.041592

>  <SCORE.RESTR>
0

>  <SCORE.RESTR.CAVITY>
0

>  <SCORE.RESTR.norm>
0

>  <SCORE.SYSTEM>
0

>  <SCORE.SYSTEM.CONST>
0

>  <SCORE.SYSTEM.DIHEDRAL>
0

>  <SCORE.SYSTEM.SOLV>
0

>  <SCORE.SYSTEM.norm>
0

>  <SCORE.heavy>
41

>  <SCORE.norm>
-0.271952

>  <RMSD>
2.159

$$$$
ligand
 OpenBabel11021811423D
libRbt.so/2013.1/901 2013/11/27
 41 45  0  0  0  0  0  0  0  0999 V2000
   33.9076   38.7603    5.1868 C   0  0  2  0  0  0  0  0  0  0  0  0
   33.5737   39.0474    6.5589 O   0  0  0  0  0  0  0  0  0  0  0  0
   34.0711   36.9932   10.3603 C   0  0  2  0  0  0  0  0  0  0  0  0
   34.0556   35.9047   11.3712 N   0  0  0  0  0  0  0  0  0  0  0  0
   37.4560   38.3667    7.2730 C   0  0  1  0  0  0  0  0  0  0  0  0
   40.9416   40.8454    5.6497 C   0  0  1  0  0  0  0  0  0  0  0  0
   34.4373   40.0326    4.4601 C   0  0  2  0  0  0  0  0  0  0  0  0
   35.5579   40.6665    5.1611 N   0  0  0  0  0  0  0  0  0  0  0  0
   32.6476   37.1209    9.7316 C   0  0  0  0  0  0  0  0  0  0  0  0
   38.4819   37.8888    6.2200 C   0  0  2  0  0  0  0  0  0  0  0  0
   39.5229   37.1025    6.8088 O   0  0  0  0  0  0  0  0  0  0  0  0
   41.7068   40.5657    4.2864 C   0  0  2  0  0  0  0  0  0  0  0  0
   42.6913   39.4431    4.3585 N   0  0  0  0  0  0  0  0  0  0  0  0
   33.2871   41.0567    4.2637 C   0  0  1  0  0  0  0  0  0  0  0  0
   33.7697   42.2071    3.5748 O   0  0  0  0  0  0  0  0  0  0  0  0
   32.6046   38.2449    8.6560 C   0  0  2  0  0  0  0  0  0  0  0  0
   31.2310   38.3063    8.1218 N   0  0  0  0  0  0  0  0  0  0  0  0
   39.0029   39.1831    5.5724 C   0  0  2  0  0  0  0  0  0  0  0  0
   40.2836   39.6340    6.1691 O   0  0  0  0  0  0  0  0  0  0  0  0
   42.4400   41.8949    3.7952 C   0  0  1  0  0  0  0  0  0  0  0  0
   41.4845   42.9081    3.4115 O   0  0  0  0  0  0  0  0  0  0  0  0
   32.1297   40.3970    3.4789 C   0  0  2  0  0  0  0  0  0  0  0  0
   31.0866   41.3283    3.2812 O   0  0  0  0  0  0  0  0  0  0  0  0
   33.6730   37.9635    7.5408 C   0  0  2  0  0  0  0  0  0  0  0  0
   37.8846   40.1923    5.8169 C   0  0  2  0  0  0  0  0  0  0  0  0
   37.1790   39.7330    6.9610 O   0  0  0  0  0  0  0  0  0  0  0  0
   43.3957   42.4935    4.9042 C   0  0  2  0  0  0  0  0  0  0  0  0
   44.4989   41.5958    5.1126 O   0  0  0  0  0  0  0  0  0  0  0  0
   31.6130   39.1574    4.2360 C   0  0  2  0  0  0  0  0  0  0  0  0
   32.7471   38.2279    4.4350 O   0  0  0  0  0  0  0  0  0  0  0  0
   35.1365   37.8763    8.2064 C   0  0  2  0  0  0  0  0  0  0  0  0
   36.2046   37.5775    7.2146 O   0  0  0  0  0  0  0  0  0  0  0  0
   36.8915   40.2972    4.6688 C   0  0  0  0  0  0  0  0  0  0  0  0
   42.5881   42.7093    6.2479 C   0  0  1  0  0  0  0  0  0  0  0  0
   41.8641   41.4626    6.6705 O   0  0  0  0  0  0  0  0  0  0  0  0
   30.4729   38.4925    3.4301 C   0  0  0  0  0  0  0  0  0  0  0  0
   29.2567   39.3128    3.2811 N   0  0  0  0  0  0  0  0  0  0  0  0
   35.1597   36.7375    9.2481 C   0  0  1  0  0  0  0  0  0  0  0  0
   36.4608   36.6583    9.8395 O   0  0  0  0  0  0  0  0  0  0  0  0
   43.4770   43.2578    7.4295 C   0  0  0  0  0  0  0  0  0  0  0  0
   44.0707   44.6192    7.2359 N   0  0  0  0  0  0  0  0  0  0  0  0
  1  2  1  1  0  0  0
  1  7  1  0  0  0  0
  1 30  1  0  0  0  0
  3  4  1  1  0  0  0
  3  9  1  0  0  0  0
  3 38  1  0  0  0  0
  5 10  1  0  0  0  0
  5 26  1  6  0  0  0
  5 32  1  0  0  0  0
  6 12  1  0  0  0  0
  6 35  1  0  0  0  0
  6 19  1  1  0  0  0
  7  8  1  1  0  0  0
  7 14  1  0  0  0  0
  8 33  1  0  0  0  0
  9 16  1  0  0  0  0
 10 11  1  1  0  0  0
 10 18  1  0  0  0  0
 12 13  1  1  0  0  0
 12 20  1  0  0  0  0
 14 15  1  6  0  0  0
 14 22  1  0  0  0  0
 16 17  1  6  0  0  0
 16 24  1  0  0  0  0
 18 19  1  1  0  0  0
 18 25  1  0  0  0  0
 20 21  1  1  0  0  0
 20 27  1  0  0  0  0
 22 23  1  1  0  0  0
 22 29  1  0  0  0  0
 24  2  1  6  0  0  0
 24 31  1  0  0  0  0
 25 26  1  1  0  0  0
 25 33  1  0  0  0  0
 27 28  1  1  0  0  0
 27 34  1  0  0  0  0
 29 30  1  0  0  0  0
 29 36  1  6  0  0  0
 31 32  1  6  0  0  0
 31 38  1  0  0  0  0
 34 35  1  0  0  0  0
 34 40  1  1  0  0  0
 36 37  1  0  0  0  0
 38 39  1  1  0  0  0
 40 41  1  0  0  0  0
M  END
>  <CHROM.1>
178.77461263,-78.05261526,-64.87690244,63.80922028,36.82648317,39.67401112
6.09314280,2.91762445,0.20936847,2.19738018

>  <Name>
ligand

>  <RI>
0

>  <Rbt.Current_Directory>
/home/itssahil/PROJECTS/Mol_Feturizer/New_Systems/rnas/1ZZ5

>  <Rbt.Executable>
rbdock ($Id: //depot/dev/client3/rdock/2013.1/src/exe/rbdock.cxx#4 $)

>  <Rbt.Library>
libRbt.so (2013.1, Build901 2013/11/27)

>  <Rbt.Parameter_File>
/export/apps/rDock/src/rDock_2013.1_src/data/scripts/dock_solv.prm

>  <Rbt.Receptor>
prm/pocket_docking_3.prm

>  <SCORE>
-12.0683

>  <SCORE.INTER>
-10.9871

>  <SCORE.INTER.CONST>
1

>  <SCORE.INTER.POLAR>
0

>  <SCORE.INTER.ROT>
4

>  <SCORE.INTER.SOLV>
15.2037

>  <SCORE.INTER.VDW>
-18.6593

>  <SCORE.INTER.norm>
-0.267979

>  <SCORE.INTRA>
-1.08114

>  <SCORE.INTRA.DIHEDRAL>
-3.35761

>  <SCORE.INTRA.DIHEDRAL.0>
5.18357

>  <SCORE.INTRA.POLAR>
0

>  <SCORE.INTRA.POLAR.0>
0

>  <SCORE.INTRA.REPUL>
0

>  <SCORE.INTRA.REPUL.0>
0

>  <SCORE.INTRA.SOLV>
0.142943

>  <SCORE.INTRA.SOLV.lig_0>
-109.973

>  <SCORE.INTRA.VDW>
0.526192

>  <SCORE.INTRA.VDW.0>
-1.68646

>  <SCORE.INTRA.norm>
-0.0263693

>  <SCORE.RESTR>
0

>  <SCORE.RESTR.CAVITY>
0

>  <SCORE.RESTR.norm>
0

>  <SCORE.SYSTEM>
0

>  <SCORE.SYSTEM.CONST>
0

>  <SCORE.SYSTEM.DIHEDRAL>
0

>  <SCORE.SYSTEM.SOLV>
0

>  <SCORE.SYSTEM.norm>
0

>  <SCORE.heavy>
41

>  <SCORE.norm>
-0.294349

>  <RMSD>
2.162

$$$$
ligand
 OpenBabel11021811423D
libRbt.so/2013.1/901 2013/11/27
 41 45  0  0  0  0  0  0  0  0999 V2000
   34.3731   39.3141    4.7631 C   0  0  2  0  0  0  0  0  0  0  0  0
   34.0414   39.3448    6.1651 O   0  0  0  0  0  0  0  0  0  0  0  0
   33.9758   36.4318    9.3944 C   0  0  2  0  0  0  0  0  0  0  0  0
   33.7102   35.1683   10.1293 N   0  0  0  0  0  0  0  0  0  0  0  0
   37.6891   37.7776    6.6972 C   0  0  1  0  0  0  0  0  0  0  0  0
   41.6126   39.8684    5.7451 C   0  0  1  0  0  0  0  0  0  0  0  0
   35.1657   40.5890    4.3460 C   0  0  2  0  0  0  0  0  0  0  0  0
   36.3553   40.8181    5.1715 N   0  0  0  0  0  0  0  0  0  0  0  0
   32.6307   36.9725    8.8142 C   0  0  0  0  0  0  0  0  0  0  0  0
   38.6496   37.3582    5.5609 C   0  0  2  0  0  0  0  0  0  0  0  0
   39.4960   36.2723    5.9522 O   0  0  0  0  0  0  0  0  0  0  0  0
   41.9364   40.1604    4.2180 C   0  0  2  0  0  0  0  0  0  0  0  0
   42.5257   38.9977    3.4860 N   0  0  0  0  0  0  0  0  0  0  0  0
   34.2406   41.8350    4.3914 C   0  0  1  0  0  0  0  0  0  0  0  0
   34.9623   42.9942    3.9832 O   0  0  0  0  0  0  0  0  0  0  0  0
   32.8484   38.2959    8.0246 C   0  0  2  0  0  0  0  0  0  0  0  0
   31.5357   38.7424    7.5212 N   0  0  0  0  0  0  0  0  0  0  0  0
   39.4346   38.6380    5.2258 C   0  0  2  0  0  0  0  0  0  0  0  0
   40.7509   38.6847    5.9075 O   0  0  0  0  0  0  0  0  0  0  0  0
   42.9099   41.4192    4.1026 C   0  0  1  0  0  0  0  0  0  0  0  0
   42.2458   42.6337    4.5159 O   0  0  0  0  0  0  0  0  0  0  0  0
   33.0136   41.6073    3.4785 C   0  0  2  0  0  0  0  0  0  0  0  0
   32.1761   42.7441    3.5012 O   0  0  0  0  0  0  0  0  0  0  0  0
   33.8906   38.0698    6.8726 C   0  0  2  0  0  0  0  0  0  0  0  0
   38.5191   39.7645    5.6969 C   0  0  2  0  0  0  0  0  0  0  0  0
   37.6906   39.2062    6.7069 O   0  0  0  0  0  0  0  0  0  0  0  0
   44.2220   41.2398    4.9673 C   0  0  2  0  0  0  0  0  0  0  0  0
   45.0194   40.1849    4.4036 O   0  0  0  0  0  0  0  0  0  0  0  0
   32.2388   40.3543    3.9327 C   0  0  2  0  0  0  0  0  0  0  0  0
   33.1658   39.2012    3.9116 O   0  0  0  0  0  0  0  0  0  0  0  0
   35.2810   37.5517    7.4979 C   0  0  2  0  0  0  0  0  0  0  0  0
   36.3142   37.2812    6.4620 O   0  0  0  0  0  0  0  0  0  0  0  0
   37.6141   40.3163    4.6052 C   0  0  0  0  0  0  0  0  0  0  0  0
   43.8353   40.9093    6.4658 C   0  0  1  0  0  0  0  0  0  0  0  0
   42.8802   39.7529    6.5539 O   0  0  0  0  0  0  0  0  0  0  0  0
   31.0286   40.1229    2.9981 C   0  0  0  0  0  0  0  0  0  0  0  0
   30.2026   38.9475    3.3302 N   0  0  0  0  0  0  0  0  0  0  0  0
   35.0425   36.2256    8.2512 C   0  0  1  0  0  0  0  0  0  0  0  0
   36.2782   35.7634    8.8063 O   0  0  0  0  0  0  0  0  0  0  0  0
   45.0864   40.6627    7.3938 C   0  0  0  0  0  0  0  0  0  0  0  0
   44.7964   40.3720    8.8342 N   0  0  0  0  0  0  0  0  0  0  0  0
  1  2  1  1  0  0  0
  1  7  1  0  0  0  0
  1 30  1  0  0  0  0
  3  4  1  6  0  0  0
  3  9  1  0  0  0  0
  3 38  1  0  0  0  0
  5 10  1  0  0  0  0
  5 26  1  6  0  0  0
  5 32  1  0  0  0  0
  6 12  1  0  0  0  0
  6 35  1  0  0  0  0
  6 19  1  6  0  0  0
  7  8  1  1  0  0  0
  7 14  1  0  0  0  0
  8 33  1  0  0  0  0
  9 16  1  0  0  0  0
 10 11  1  1  0  0  0
 10 18  1  0  0  0  0
 12 13  1  1  0  0  0
 12 20  1  0  0  0  0
 14 15  1  6  0  0  0
 14 22  1  0  0  0  0
 16 17  1  6  0  0  0
 16 24  1  0  0  0  0
 18 19  1  1  0  0  0
 18 25  1  0  0  0  0
 20 21  1  1  0  0  0
 20 27  1  0  0  0  0
 22 23  1  1  0  0  0
 22 29  1  0  0  0  0
 24  2  1  1  0  0  0
 24 31  1  0  0  0  0
 25 26  1  1  0  0  0
 25 33  1  0  0  0  0
 27 28  1  6  0  0  0
 27 34  1  0  0  0  0
 29 30  1  0  0  0  0
 29 36  1  6  0  0  0
 31 32  1  6  0  0  0
 31 38  1  0  0  0  0
 34 35  1  0  0  0  0
 34 40  1  1  0  0  0
 36 37  1  0  0  0  0
 38 39  1  1  0  0  0
 40 41  1  0  0  0  0
M  END
>  <CHROM.1>
-177.40334648,-56.99929298,-179.98246104,178.78278892,37.32718398,39.33856637
5.81541078,3.04726279,0.07488273,2.37356938

>  <Name>
ligand

>  <RI>
0

>  <Rbt.Current_Directory>
/home/itssahil/PROJECTS/Mol_Feturizer/New_Systems/rnas/1ZZ5

>  <Rbt.Executable>
rbdock ($Id: //depot/dev/client3/rdock/2013.1/src/exe/rbdock.cxx#4 $)

>  <Rbt.Library>
libRbt.so (2013.1, Build901 2013/11/27)

>  <Rbt.Parameter_File>
/export/apps/rDock/src/rDock_2013.1_src/data/scripts/dock_solv.prm

>  <Rbt.Receptor>
prm/pocket_docking_4.prm

>  <SCORE>
-12.6137

>  <SCORE.INTER>
-10.0505

>  <SCORE.INTER.CONST>
1

>  <SCORE.INTER.POLAR>
0

>  <SCORE.INTER.ROT>
4

>  <SCORE.INTER.SOLV>
19.2766

>  <SCORE.INTER.VDW>
-19.3925

>  <SCORE.INTER.norm>
-0.245133

>  <SCORE.INTRA>
-2.56326

>  <SCORE.INTRA.DIHEDRAL>
-4.8647

>  <SCORE.INTRA.DIHEDRAL.0>
5.18357

>  <SCORE.INTRA.POLAR>
0

>  <SCORE.INTRA.POLAR.0>
0

>  <SCORE.INTRA.REPUL>
0

>  <SCORE.INTRA.REPUL.0>
0

>  <SCORE.INTRA.SOLV>
-1.22072

>  <SCORE.INTRA.SOLV.lig_0>
-109.973

>  <SCORE.INTRA.VDW>
0.479447

>  <SCORE.INTRA.VDW.0>
-1.68646

>  <SCORE.INTRA.norm>
-0.0625186

>  <SCORE.RESTR>
0

>  <SCORE.RESTR.CAVITY>
0

>  <SCORE.RESTR.norm>
0

>  <SCORE.SYSTEM>
0

>  <SCORE.SYSTEM.CONST>
0

>  <SCORE.SYSTEM.DIHEDRAL>
0

>  <SCORE.SYSTEM.SOLV>
0

>  <SCORE.SYSTEM.norm>
0

>  <SCORE.heavy>
41

>  <SCORE.norm>
-0.307652

>  <RMSD>
2.165

$$$$
ligand
 OpenBabel11021811423D
libRbt.so/2013.1/901 2013/11/27
 41 45  0  0  0  0  0  0  0  0999 V2000
   34.2708   39.2667    4.7471 C   0  0  2  0  0  0  0  0  0  0  0  0
   33.9360   39.3213    6.1476 O   0  0  0  0  0  0  0  0  0  0  0  0
   33.8848   36.4689    9.4307 C   0  0  2  0  0  0  0  0  0  0  0  0
   33.6269   35.2174   10.1887 N   0  0  0  0  0  0  0  0  0  0  0  0
   37.5939   37.7908    6.7159 C   0  0  1  0  0  0  0  0  0  0  0  0
   41.5119   39.8837    5.7181 C   0  0  1  0  0  0  0  0  0  0  0  0
   35.0550   40.5393    4.3076 C   0  0  2  0  0  0  0  0  0  0  0  0
   36.2413   40.7924    5.1309 N   0  0  0  0  0  0  0  0  0  0  0  0
   32.5371   36.9889    8.8380 C   0  0  0  0  0  0  0  0  0  0  0  0
   38.5597   37.3571    5.5894 C   0  0  2  0  0  0  0  0  0  0  0  0
   39.4130   36.2848    6.0025 O   0  0  0  0  0  0  0  0  0  0  0  0
   41.8656   40.1096    4.1864 C   0  0  2  0  0  0  0  0  0  0  0  0
   42.4729   38.9182    3.5182 N   0  0  0  0  0  0  0  0  0  0  0  0
   34.1209   41.7793    4.3279 C   0  0  1  0  0  0  0  0  0  0  0  0
   34.8350   42.9358    3.8995 O   0  0  0  0  0  0  0  0  0  0  0  0
   32.7468   38.2988    8.0241 C   0  0  2  0  0  0  0  0  0  0  0  0
   31.4320   38.7263    7.5100 N   0  0  0  0  0  0  0  0  0  0  0  0
   39.3360   38.6360    5.2320 C   0  0  2  0  0  0  0  0  0  0  0  0
   40.6506   38.7050    5.9151 O   0  0  0  0  0  0  0  0  0  0  0  0
   42.8374   41.3659    4.0352 C   0  0  1  0  0  0  0  0  0  0  0  0
   42.1614   42.5948    4.3812 O   0  0  0  0  0  0  0  0  0  0  0  0
   32.8975   41.5256    3.4171 C   0  0  2  0  0  0  0  0  0  0  0  0
   32.0518   42.6566    3.4170 O   0  0  0  0  0  0  0  0  0  0  0  0
   33.7930   38.0587    6.8786 C   0  0  2  0  0  0  0  0  0  0  0  0
   38.4116   39.7645    5.6801 C   0  0  2  0  0  0  0  0  0  0  0  0
   37.5850   39.2192    6.6988 O   0  0  0  0  0  0  0  0  0  0  0  0
   44.1323   41.2298    4.9331 C   0  0  2  0  0  0  0  0  0  0  0  0
   44.9441   40.1543    4.4324 O   0  0  0  0  0  0  0  0  0  0  0  0
   32.1307   40.2758    3.8933 C   0  0  2  0  0  0  0  0  0  0  0  0
   33.0661   39.1292    3.8955 O   0  0  0  0  0  0  0  0  0  0  0  0
   35.1858   37.5624    7.5161 C   0  0  2  0  0  0  0  0  0  0  0  0
   36.2230   37.2801    6.4874 O   0  0  0  0  0  0  0  0  0  0  0  0
   37.5048   40.2893    4.5765 C   0  0  0  0  0  0  0  0  0  0  0  0
   43.7164   40.9639    6.4366 C   0  0  1  0  0  0  0  0  0  0  0  0
   42.7632   39.8089    6.5564 O   0  0  0  0  0  0  0  0  0  0  0  0
   30.9241   40.0182    2.9608 C   0  0  0  0  0  0  0  0  0  0  0  0
   30.1028   38.8464    3.3166 N   0  0  0  0  0  0  0  0  0  0  0  0
   34.9554   36.2490    8.2936 C   0  0  1  0  0  0  0  0  0  0  0  0
   36.1932   35.8062    8.8597 O   0  0  0  0  0  0  0  0  0  0  0  0
   44.9493   40.7632    7.3995 C   0  0  0  0  0  0  0  0  0  0  0  0
   44.6318   40.5506    8.8477 N   0  0  0  0  0  0  0  0  0  0  0  0
  1  2  1  1  0  0  0
  1  7  1  0  0  0  0
  1 30  1  0  0  0  0
  3  4  1  6  0  0  0
  3  9  1  0  0  0  0
  3 38  1  0  0  0  0
  5 10  1  0  0  0  0
  5 26  1  6  0  0  0
  5 32  1  0  0  0  0
  6 12  1  0  0  0  0
  6 35  1  0  0  0  0
  6 19  1  6  0  0  0
  7  8  1  1  0  0  0
  7 14  1  0  0  0  0
  8 33  1  0  0  0  0
  9 16  1  0  0  0  0
 10 11  1  1  0  0  0
 10 18  1  0  0  0  0
 12 13  1  1  0  0  0
 12 20  1  0  0  0  0
 14 15  1  6  0  0  0
 14 22  1  0  0  0  0
 16 17  1  6  0  0  0
 16 24  1  0  0  0  0
 18 19  1  1  0  0  0
 18 25  1  0  0  0  0
 20 21  1  1  0  0  0
 20 27  1  0  0  0  0
 22 23  1  1  0  0  0
 22 29  1  0  0  0  0
 24  2  1  1  0  0  0
 24 31  1  0  0  0  0
 25 26  1  1  0  0  0
 25 33  1  0  0  0  0
 27 28  1  6  0  0  0
 27 34  1  0  0  0  0
 29 30  1  0  0  0  0
 29 36  1  6  0  0  0
 31 32  1  6  0  0  0
 31 38  1  0  0  0  0
 34 35  1  0  0  0  0
 34 40  1  1  0  0  0
 36 37  1  0  0  0  0
 38 39  1  1  0  0  0
 40 41  1  0  0  0  0
M  END
>  <CHROM.1>
-178.20648833,-58.25650270,-179.74712555,178.10376666,37.22630352,39.32733135
5.80457444,3.04478572,0.08037224,2.35327616

>  <Name>
ligand

>  <RI>
0

>  <Rbt.Current_Directory>
/home/itssahil/PROJECTS/Mol_Feturizer/New_Systems/rnas/1ZZ5

>  <Rbt.Executable>
rbdock ($Id: //depot/dev/client3/rdock/2013.1/src/exe/rbdock.cxx#4 $)

>  <Rbt.Library>
libRbt.so (2013.1, Build901 2013/11/27)

>  <Rbt.Parameter_File>
/export/apps/rDock/src/rDock_2013.1_src/data/scripts/dock_solv.prm

>  <Rbt.Receptor>
prm/pocket_docking_4.prm

>  <SCORE>
-12.5661

>  <SCORE.INTER>
-9.95609

>  <SCORE.INTER.CONST>
1

>  <SCORE.INTER.POLAR>
0

>  <SCORE.INTER.ROT>
4

>  <SCORE.INTER.SOLV>
19.5313

>  <SCORE.INTER.VDW>
-19.4145

>  <SCORE.INTER.norm>
-0.242832

>  <SCORE.INTRA>
-2.61068

>  <SCORE.INTRA.DIHEDRAL>
-4.90149

>  <SCORE.INTRA.DIHEDRAL.0>
5.18357

>  <SCORE.INTRA.POLAR>
0

>  <SCORE.INTRA.POLAR.0>
0

>  <SCORE.INTRA.REPUL>
0

>  <SCORE.INTRA.REPUL.0>
0

>  <SCORE.INTRA.SOLV>
-1.24621

>  <SCORE.INTRA.SOLV.lig_0>
-109.973

>  <SCORE.INTRA.VDW>
0.463166

>  <SCORE.INTRA.VDW.0>
-1.68646

>  <SCORE.INTRA.norm>
-0.0636751

>  <SCORE.RESTR>
0.000646601

>  <SCORE.RESTR.CAVITY>
0.000646601

>  <SCORE.RESTR.norm>
1.57708e-05

>  <SCORE.SYSTEM>
0

>  <SCORE.SYSTEM.CONST>
0

>  <SCORE.SYSTEM.DIHEDRAL>
0

>  <SCORE.SYSTEM.SOLV>
0

>  <SCORE.SYSTEM.norm>
0

>  <SCORE.heavy>
41

>  <SCORE.norm>
-0.306491

>  <RMSD>
2.174

$$$$
ligand
 OpenBabel11021811423D
libRbt.so/2013.1/901 2013/11/27
 41 45  0  0  0  0  0  0  0  0999 V2000
   34.2930   39.3293    4.7766 C   0  0  2  0  0  0  0  0  0  0  0  0
   33.9636   39.3467    6.1793 O   0  0  0  0  0  0  0  0  0  0  0  0
   33.9246   36.4082    9.3858 C   0  0  2  0  0  0  0  0  0  0  0  0
   33.6694   35.1371   10.1113 N   0  0  0  0  0  0  0  0  0  0  0  0
   37.6234   37.8016    6.6929 C   0  0  1  0  0  0  0  0  0  0  0  0
   41.5517   39.9061    5.7103 C   0  0  1  0  0  0  0  0  0  0  0  0
   35.0758   40.6131    4.3680 C   0  0  2  0  0  0  0  0  0  0  0  0
   36.2652   40.8443    5.1932 N   0  0  0  0  0  0  0  0  0  0  0  0
   32.5747   36.9438    8.8122 C   0  0  0  0  0  0  0  0  0  0  0  0
   38.5849   37.3979    5.5517 C   0  0  2  0  0  0  0  0  0  0  0  0
   39.4397   36.3151    5.9330 O   0  0  0  0  0  0  0  0  0  0  0  0
   41.8912   40.1431    4.1771 C   0  0  2  0  0  0  0  0  0  0  0  0
   42.4754   38.9509    3.4900 N   0  0  0  0  0  0  0  0  0  0  0  0
   34.1419   41.8520    4.4248 C   0  0  1  0  0  0  0  0  0  0  0  0
   34.8545   43.0195    4.0244 O   0  0  0  0  0  0  0  0  0  0  0  0
   32.7815   38.2748    8.0325 C   0  0  2  0  0  0  0  0  0  0  0  0
   31.4647   38.7158    7.5349 N   0  0  0  0  0  0  0  0  0  0  0  0
   39.3600   38.6859    5.2253 C   0  0  2  0  0  0  0  0  0  0  0  0
   40.6772   38.7367    5.9050 O   0  0  0  0  0  0  0  0  0  0  0  0
   42.8777   41.3882    4.0278 C   0  0  1  0  0  0  0  0  0  0  0  0
   42.2219   42.6222    4.3939 O   0  0  0  0  0  0  0  0  0  0  0  0
   32.9149   41.6227    3.5122 C   0  0  2  0  0  0  0  0  0  0  0  0
   32.0694   42.7532    3.5453 O   0  0  0  0  0  0  0  0  0  0  0  0
   33.8233   38.0652    6.8771 C   0  0  2  0  0  0  0  0  0  0  0  0
   38.4374   39.8021    5.7067 C   0  0  2  0  0  0  0  0  0  0  0  0
   37.6147   39.2300    6.7137 O   0  0  0  0  0  0  0  0  0  0  0  0
   44.1807   41.2259    4.9095 C   0  0  2  0  0  0  0  0  0  0  0  0
   44.9726   40.1451    4.3888 O   0  0  0  0  0  0  0  0  0  0  0  0
   32.1499   40.3606    3.9580 C   0  0  2  0  0  0  0  0  0  0  0  0
   33.0851   39.2143    3.9262 O   0  0  0  0  0  0  0  0  0  0  0  0
   35.2184   37.5521    7.4959 C   0  0  2  0  0  0  0  0  0  0  0  0
   36.2517   37.2972    6.4561 O   0  0  0  0  0  0  0  0  0  0  0  0
   37.5265   40.3559    4.6209 C   0  0  0  0  0  0  0  0  0  0  0  0
   43.7781   40.9499    6.4149 C   0  0  1  0  0  0  0  0  0  0  0  0
   42.8112   39.8062    6.5337 O   0  0  0  0  0  0  0  0  0  0  0  0
   30.9397   40.1279    3.0236 C   0  0  0  0  0  0  0  0  0  0  0  0
   30.1447   38.9231    3.3248 N   0  0  0  0  0  0  0  0  0  0  0  0
   34.9908   36.2185    8.2392 C   0  0  1  0  0  0  0  0  0  0  0  0
   36.2307   35.7609    8.7886 O   0  0  0  0  0  0  0  0  0  0  0  0
   45.0189   40.7232    7.3617 C   0  0  0  0  0  0  0  0  0  0  0  0
   44.7159   40.5185    8.8142 N   0  0  0  0  0  0  0  0  0  0  0  0
  1  2  1  1  0  0  0
  1  7  1  0  0  0  0
  1 30  1  0  0  0  0
  3  4  1  6  0  0  0
  3  9  1  0  0  0  0
  3 38  1  0  0  0  0
  5 10  1  0  0  0  0
  5 26  1  6  0  0  0
  5 32  1  0  0  0  0
  6 12  1  0  0  0  0
  6 35  1  0  0  0  0
  6 19  1  6  0  0  0
  7  8  1  1  0  0  0
  7 14  1  0  0  0  0
  8 33  1  0  0  0  0
  9 16  1  0  0  0  0
 10 11  1  1  0  0  0
 10 18  1  0  0  0  0
 12 13  1  1  0  0  0
 12 20  1  0  0  0  0
 14 15  1  6  0  0  0
 14 22  1  0  0  0  0
 16 17  1  6  0  0  0
 16 24  1  0  0  0  0
 18 19  1  1  0  0  0
 18 25  1  0  0  0  0
 20 21  1  1  0  0  0
 20 27  1  0  0  0  0
 22 23  1  1  0  0  0
 22 29  1  0  0  0  0
 24  2  1  1  0  0  0
 24 31  1  0  0  0  0
 25 26  1  1  0  0  0
 25 33  1  0  0  0  0
 27 28  1  6  0  0  0
 27 34  1  0  0  0  0
 29 30  1  0  0  0  0
 29 36  1  6  0  0  0
 31 32  1  6  0  0  0
 31 38  1  0  0  0  0
 34 35  1  0  0  0  0
 34 40  1  1  0  0  0
 36 37  1  0  0  0  0
 38 39  1  1  0  0  0
 40 41  1  0  0  0  0
M  END
>  <CHROM.1>
-179.65857053,-57.65019134,178.37873286,177.29607245,37.25885793,39.35074333
5.80996348,3.04152980,0.07253255,2.37747885

>  <Name>
ligand

>  <RI>
0

>  <Rbt.Current_Directory>
/home/itssahil/PROJECTS/Mol_Feturizer/New_Systems/rnas/1ZZ5

>  <Rbt.Executable>
rbdock ($Id: //depot/dev/client3/rdock/2013.1/src/exe/rbdock.cxx#4 $)

>  <Rbt.Library>
libRbt.so (2013.1, Build901 2013/11/27)

>  <Rbt.Parameter_File>
/export/apps/rDock/src/rDock_2013.1_src/data/scripts/dock_solv.prm

>  <Rbt.Receptor>
prm/pocket_docking_4.prm

>  <SCORE>
-12.5421

>  <SCORE.INTER>
-9.93936

>  <SCORE.INTER.CONST>
1

>  <SCORE.INTER.POLAR>
0

>  <SCORE.INTER.ROT>
4

>  <SCORE.INTER.SOLV>
19.5129

>  <SCORE.INTER.VDW>
-19.3972

>  <SCORE.INTER.norm>
-0.242424

>  <SCORE.INTRA>
-2.60271

>  <SCORE.INTRA.DIHEDRAL>
-4.88077

>  <SCORE.INTRA.DIHEDRAL.0>
5.18357

>  <SCORE.INTRA.POLAR>
0

>  <SCORE.INTRA.POLAR.0>
0

>  <SCORE.INTRA.REPUL>
0

>  <SCORE.INTRA.REPUL.0>
0

>  <SCORE.INTRA.SOLV>
-1.2383

>  <SCORE.INTRA.SOLV.lig_0>
-109.973

>  <SCORE.INTRA.VDW>
0.456826

>  <SCORE.INTRA.VDW.0>
-1.68646

>  <SCORE.INTRA.norm>
-0.0634807

>  <SCORE.RESTR>
0

>  <SCORE.RESTR.CAVITY>
0

>  <SCORE.RESTR.norm>
0

>  <SCORE.SYSTEM>
0

>  <SCORE.SYSTEM.CONST>
0

>  <SCORE.SYSTEM.DIHEDRAL>
0

>  <SCORE.SYSTEM.SOLV>
0

>  <SCORE.SYSTEM.norm>
0

>  <SCORE.heavy>
41

>  <SCORE.norm>
-0.305904

>  <RMSD>
2.176

$$$$
ligand
 OpenBabel11021811423D
libRbt.so/2013.1/901 2013/11/27
 41 45  0  0  0  0  0  0  0  0999 V2000
   33.8453   38.9312    5.1596 C   0  0  2  0  0  0  0  0  0  0  0  0
   33.5636   39.1208    6.5600 O   0  0  0  0  0  0  0  0  0  0  0  0
   34.1392   36.7762   10.1778 C   0  0  2  0  0  0  0  0  0  0  0  0
   34.1322   35.6150   11.1046 N   0  0  0  0  0  0  0  0  0  0  0  0
   37.4507   38.3094    7.0863 C   0  0  1  0  0  0  0  0  0  0  0  0
   40.9335   40.8355    5.5373 C   0  0  1  0  0  0  0  0  0  0  0  0
   34.3796   40.2437    4.5119 C   0  0  2  0  0  0  0  0  0  0  0  0
   35.5370   40.8001    5.2191 N   0  0  0  0  0  0  0  0  0  0  0  0
   32.6990   36.9798    9.6101 C   0  0  0  0  0  0  0  0  0  0  0  0
   38.4301   37.8915    5.9656 C   0  0  2  0  0  0  0  0  0  0  0  0
   39.4718   37.0422    6.4576 O   0  0  0  0  0  0  0  0  0  0  0  0
   41.7626   40.6141    4.2009 C   0  0  2  0  0  0  0  0  0  0  0  0
   42.7573   39.5008    4.2772 N   0  0  0  0  0  0  0  0  0  0  0  0
   33.2472   41.3028    4.4326 C   0  0  1  0  0  0  0  0  0  0  0  0
   33.7330   42.4919    3.8151 O   0  0  0  0  0  0  0  0  0  0  0  0
   32.6462   38.1823    8.6236 C   0  0  2  0  0  0  0  0  0  0  0  0
   31.2574   38.3117    8.1434 N   0  0  0  0  0  0  0  0  0  0  0  0
   38.9589   39.2201    5.3988 C   0  0  2  0  0  0  0  0  0  0  0  0
   40.2686   39.5987    5.9827 O   0  0  0  0  0  0  0  0  0  0  0  0
   42.4999   41.9684    3.7913 C   0  0  1  0  0  0  0  0  0  0  0  0
   41.5497   42.9842    3.4013 O   0  0  0  0  0  0  0  0  0  0  0  0
   32.0498   40.7279    3.6412 C   0  0  2  0  0  0  0  0  0  0  0  0
   31.0224   41.6923    3.5499 O   0  0  0  0  0  0  0  0  0  0  0  0
   33.6705   37.9642    7.4542 C   0  0  2  0  0  0  0  0  0  0  0  0
   37.8727   40.2306    5.7565 C   0  0  2  0  0  0  0  0  0  0  0  0
   37.1949   39.7008    6.8870 O   0  0  0  0  0  0  0  0  0  0  0  0
   43.3972   42.5371    4.9631 C   0  0  2  0  0  0  0  0  0  0  0  0
   44.5014   41.6448    5.1889 O   0  0  0  0  0  0  0  0  0  0  0  0
   31.5302   39.4455    4.3212 C   0  0  2  0  0  0  0  0  0  0  0  0
   32.6487   38.4808    4.4108 O   0  0  0  0  0  0  0  0  0  0  0  0
   35.1528   37.7974    8.0603 C   0  0  2  0  0  0  0  0  0  0  0  0
   36.1804   37.5525    7.0125 O   0  0  0  0  0  0  0  0  0  0  0  0
   36.8448   40.4419    4.6546 C   0  0  0  0  0  0  0  0  0  0  0  0
   42.5276   42.6948    6.2758 C   0  0  1  0  0  0  0  0  0  0  0  0
   41.8014   41.4255    6.6203 O   0  0  0  0  0  0  0  0  0  0  0  0
   30.3492   38.8665    3.5078 C   0  0  0  0  0  0  0  0  0  0  0  0
   30.6721   38.5036    2.1156 N   0  0  0  0  0  0  0  0  0  0  0  0
   35.1844   36.5829    9.0126 C   0  0  1  0  0  0  0  0  0  0  0  0
   36.5021   36.4330    9.5510 O   0  0  0  0  0  0  0  0  0  0  0  0
   43.3555   43.2099    7.5153 C   0  0  0  0  0  0  0  0  0  0  0  0
   44.4413   42.3044    8.0099 N   0  0  0  0  0  0  0  0  0  0  0  0
  1  2  1  1  0  0  0
  1  7  1  0  0  0  0
  1 30  1  0  0  0  0
  3  4  1  1  0  0  0
  3  9  1  0  0  0  0
  3 38  1  0  0  0  0
  5 10  1  0  0  0  0
  5 26  1  6  0  0  0
  5 32  1  0  0  0  0
  6 12  1  0  0  0  0
  6 35  1  0  0  0  0
  6 19  1  1  0  0  0
  7  8  1  1  0  0  0
  7 14  1  0  0  0  0
  8 33  1  0  0  0  0
  9 16  1  0  0  0  0
 10 11  1  1  0  0  0
 10 18  1  0  0  0  0
 12 13  1  1  0  0  0
 12 20  1  0  0  0  0
 14 15  1  6  0  0  0
 14 22  1  0  0  0  0
 16 17  1  6  0  0  0
 16 24  1  0  0  0  0
 18 19  1  1  0  0  0
 18 25  1  0  0  0  0
 20 21  1  1  0  0  0
 20 27  1  0  0  0  0
 22 23  1  1  0  0  0
 22 29  1  0  0  0  0
 24  2  1  6  0  0  0
 24 31  1  0  0  0  0
 25 26  1  1  0  0  0
 25 33  1  0  0  0  0
 27 28  1  1  0  0  0
 27 34  1  0  0  0  0
 29 30  1  0  0  0  0
 29 36  1  6  0  0  0
 31 32  1  6  0  0  0
 31 38  1  0  0  0  0
 34 35  1  0  0  0  0
 34 40  1  1  0  0  0
 36 37  1  0  0  0  0
 38 39  1  1  0  0  0
 40 41  1  0  0  0  0
M  END
>  <CHROM.1>
179.06099906,-83.58846643,59.95550524,-64.07655510,36.85548661,39.64327964
6.03809635,2.93634407,0.19130828,2.22372498

>  <Name>
ligand

>  <RI>
0

>  <Rbt.Current_Directory>
/home/itssahil/PROJECTS/Mol_Feturizer/New_Systems/rnas/1ZZ5

>  <Rbt.Executable>
rbdock ($Id: //depot/dev/client3/rdock/2013.1/src/exe/rbdock.cxx#4 $)

>  <Rbt.Library>
libRbt.so (2013.1, Build901 2013/11/27)

>  <Rbt.Parameter_File>
/export/apps/rDock/src/rDock_2013.1_src/data/scripts/dock_solv.prm

>  <Rbt.Receptor>
prm/pocket_docking_3.prm

>  <SCORE>
-10.6158

>  <SCORE.INTER>
-10.35

>  <SCORE.INTER.CONST>
1

>  <SCORE.INTER.POLAR>
0

>  <SCORE.INTER.ROT>
4

>  <SCORE.INTER.SOLV>
18.7906

>  <SCORE.INTER.VDW>
-19.4302

>  <SCORE.INTER.norm>
-0.25244

>  <SCORE.INTRA>
-0.273734

>  <SCORE.INTRA.DIHEDRAL>
-2.52375

>  <SCORE.INTRA.DIHEDRAL.0>
5.18357

>  <SCORE.INTRA.POLAR>
0

>  <SCORE.INTRA.POLAR.0>
0

>  <SCORE.INTRA.REPUL>
0

>  <SCORE.INTRA.REPUL.0>
0

>  <SCORE.INTRA.SOLV>
1.52796

>  <SCORE.INTRA.SOLV.lig_0>
-109.973

>  <SCORE.INTRA.VDW>
0.224161

>  <SCORE.INTRA.VDW.0>
-1.68646

>  <SCORE.INTRA.norm>
-0.00667643

>  <SCORE.RESTR>
0.00798152

>  <SCORE.RESTR.CAVITY>
0.00798152

>  <SCORE.RESTR.norm>
0.000194671

>  <SCORE.SYSTEM>
0

>  <SCORE.SYSTEM.CONST>
0

>  <SCORE.SYSTEM.DIHEDRAL>
0

>  <SCORE.SYSTEM.SOLV>
0

>  <SCORE.SYSTEM.norm>
0

>  <SCORE.heavy>
41

>  <SCORE.norm>
-0.258921

>  <RMSD>
2.179

$$$$
ligand
 OpenBabel11021811423D
libRbt.so/2013.1/901 2013/11/27
 41 45  0  0  0  0  0  0  0  0999 V2000
   34.1593   39.2135    4.8125 C   0  0  2  0  0  0  0  0  0  0  0  0
   33.8365   39.2952    6.2145 O   0  0  0  0  0  0  0  0  0  0  0  0
   33.8913   36.5274    9.5692 C   0  0  2  0  0  0  0  0  0  0  0  0
   33.6735   35.2895   10.3612 N   0  0  0  0  0  0  0  0  0  0  0  0
   37.5385   37.8755    6.7844 C   0  0  1  0  0  0  0  0  0  0  0  0
   41.3792   40.0552    5.7146 C   0  0  1  0  0  0  0  0  0  0  0  0
   34.9057   40.4944    4.3330 C   0  0  2  0  0  0  0  0  0  0  0  0
   36.0926   40.7994    5.1375 N   0  0  0  0  0  0  0  0  0  0  0  0
   32.5249   36.9968    8.9771 C   0  0  0  0  0  0  0  0  0  0  0  0
   38.5047   37.4384    5.6596 C   0  0  2  0  0  0  0  0  0  0  0  0
   39.3898   36.3997    6.0911 O   0  0  0  0  0  0  0  0  0  0  0  0
   41.7860   40.2311    4.1896 C   0  0  2  0  0  0  0  0  0  0  0  0
   42.4717   39.0408    3.5997 N   0  0  0  0  0  0  0  0  0  0  0  0
   33.9395   41.7097    4.3313 C   0  0  1  0  0  0  0  0  0  0  0  0
   34.6189   42.8731    3.8665 O   0  0  0  0  0  0  0  0  0  0  0  0
   32.6924   38.2904    8.1282 C   0  0  2  0  0  0  0  0  0  0  0  0
   31.3620   38.6702    7.6167 N   0  0  0  0  0  0  0  0  0  0  0  0
   39.2438   38.7276    5.2619 C   0  0  2  0  0  0  0  0  0  0  0  0
   40.5624   38.8482    5.9298 O   0  0  0  0  0  0  0  0  0  0  0  0
   42.7077   41.5224    4.0211 C   0  0  1  0  0  0  0  0  0  0  0  0
   41.9653   42.7332    4.2849 O   0  0  0  0  0  0  0  0  0  0  0  0
   32.7146   41.4011    3.4396 C   0  0  2  0  0  0  0  0  0  0  0  0
   31.8395   42.5092    3.4193 O   0  0  0  0  0  0  0  0  0  0  0  0
   33.7336   38.0485    6.9786 C   0  0  2  0  0  0  0  0  0  0  0  0
   38.2942   39.8427    5.6907 C   0  0  2  0  0  0  0  0  0  0  0  0
   37.4920   39.3024    6.7311 O   0  0  0  0  0  0  0  0  0  0  0  0
   43.9690   41.4835    4.9746 C   0  0  2  0  0  0  0  0  0  0  0  0
   44.8468   40.4253    4.5549 O   0  0  0  0  0  0  0  0  0  0  0  0
   31.9855   40.1443    3.9551 C   0  0  2  0  0  0  0  0  0  0  0  0
   32.9507   39.0228    3.9769 O   0  0  0  0  0  0  0  0  0  0  0  0
   35.1449   37.6051    7.6144 C   0  0  2  0  0  0  0  0  0  0  0  0
   36.1795   37.3236    6.5827 O   0  0  0  0  0  0  0  0  0  0  0  0
   37.3636   40.3152    4.5834 C   0  0  0  0  0  0  0  0  0  0  0  0
   43.5030   41.2637    6.4709 C   0  0  1  0  0  0  0  0  0  0  0  0
   42.5967   40.0729    6.6043 O   0  0  0  0  0  0  0  0  0  0  0  0
   30.7774   39.8316    3.0416 C   0  0  0  0  0  0  0  0  0  0  0  0
   29.6902   40.8267    3.0867 N   0  0  0  0  0  0  0  0  0  0  0  0
   34.9565   36.3064    8.4273 C   0  0  1  0  0  0  0  0  0  0  0  0
   36.2108   35.9107    8.9918 O   0  0  0  0  0  0  0  0  0  0  0  0
   44.7024   41.1603    7.4898 C   0  0  0  0  0  0  0  0  0  0  0  0
   44.3349   40.9767    8.9301 N   0  0  0  0  0  0  0  0  0  0  0  0
  1  2  1  1  0  0  0
  1  7  1  0  0  0  0
  1 30  1  0  0  0  0
  3  4  1  6  0  0  0
  3  9  1  0  0  0  0
  3 38  1  0  0  0  0
  5 10  1  0  0  0  0
  5 26  1  6  0  0  0
  5 32  1  0  0  0  0
  6 12  1  0  0  0  0
  6 35  1  0  0  0  0
  6 19  1  6  0  0  0
  7  8  1  1  0  0  0
  7 14  1  0  0  0  0
  8 33  1  0  0  0  0
  9 16  1  0  0  0  0
 10 11  1  1  0  0  0
 10 18  1  0  0  0  0
 12 13  1  1  0  0  0
 12 20  1  0  0  0  0
 14 15  1  6  0  0  0
 14 22  1  0  0  0  0
 16 17  1  6  0  0  0
 16 24  1  0  0  0  0
 18 19  1  1  0  0  0
 18 25  1  0  0  0  0
 20 21  1  1  0  0  0
 20 27  1  0  0  0  0
 22 23  1  1  0  0  0
 22 29  1  0  0  0  0
 24  2  1  1  0  0  0
 24 31  1  0  0  0  0
 25 26  1  1  0  0  0
 25 33  1  0  0  0  0
 27 28  1  6  0  0  0
 27 34  1  0  0  0  0
 29 30  1  0  0  0  0
 29 36  1  6  0  0  0
 31 32  1  6  0  0  0
 31 38  1  0  0  0  0
 34 35  1  0  0  0  0
 34 40  1  1  0  0  0
 36 37  1  0  0  0  0
 38 39  1  1  0  0  0
 40 41  1  0  0  0  0
M  END
>  <CHROM.1>
-177.04057587,-61.90918996,-67.02548935,178.92148851,37.11097048,39.44128172
5.85519076,3.04504387,0.08671698,2.34081454

>  <Name>
ligand

>  <RI>
0

>  <Rbt.Current_Directory>
/home/itssahil/PROJECTS/Mol_Feturizer/New_Systems/rnas/1ZZ5

>  <Rbt.Executable>
rbdock ($Id: //depot/dev/client3/rdock/2013.1/src/exe/rbdock.cxx#4 $)

>  <Rbt.Library>
libRbt.so (2013.1, Build901 2013/11/27)

>  <Rbt.Parameter_File>
/export/apps/rDock/src/rDock_2013.1_src/data/scripts/dock_solv.prm

>  <Rbt.Receptor>
prm/pocket_docking_4.prm

>  <SCORE>
-12.0402

>  <SCORE.INTER>
-10.1899

>  <SCORE.INTER.CONST>
1

>  <SCORE.INTER.POLAR>
0

>  <SCORE.INTER.ROT>
4

>  <SCORE.INTER.SOLV>
17.5808

>  <SCORE.INTER.VDW>
-18.9202

>  <SCORE.INTER.norm>
-0.248535

>  <SCORE.INTRA>
-1.85024

>  <SCORE.INTRA.DIHEDRAL>
-4.70523

>  <SCORE.INTRA.DIHEDRAL.0>
5.18357

>  <SCORE.INTRA.POLAR>
0

>  <SCORE.INTRA.POLAR.0>
0

>  <SCORE.INTRA.REPUL>
0

>  <SCORE.INTRA.REPUL.0>
0

>  <SCORE.INTRA.SOLV>
-0.0914419

>  <SCORE.INTRA.SOLV.lig_0>
-109.973

>  <SCORE.INTRA.VDW>
0.548095

>  <SCORE.INTRA.VDW.0>
-1.68646

>  <SCORE.INTRA.norm>
-0.0451279

>  <SCORE.RESTR>
0

>  <SCORE.RESTR.CAVITY>
0

>  <SCORE.RESTR.norm>
0

>  <SCORE.SYSTEM>
0

>  <SCORE.SYSTEM.CONST>
0

>  <SCORE.SYSTEM.DIHEDRAL>
0

>  <SCORE.SYSTEM.SOLV>
0

>  <SCORE.SYSTEM.norm>
0

>  <SCORE.heavy>
41

>  <SCORE.norm>
-0.293663

>  <RMSD>
2.181

$$$$
ligand
 OpenBabel11021811423D
libRbt.so/2013.1/901 2013/11/27
 41 45  0  0  0  0  0  0  0  0999 V2000
   34.2973   39.2003    4.7866 C   0  0  2  0  0  0  0  0  0  0  0  0
   33.9672   39.2711    6.1875 O   0  0  0  0  0  0  0  0  0  0  0  0
   33.9185   36.4548    9.5018 C   0  0  2  0  0  0  0  0  0  0  0  0
   33.6596   35.2124   10.2742 N   0  0  0  0  0  0  0  0  0  0  0  0
   37.6225   37.7365    6.7609 C   0  0  1  0  0  0  0  0  0  0  0  0
   41.5105   39.8399    5.7878 C   0  0  1  0  0  0  0  0  0  0  0  0
   35.0836   40.4658    4.3308 C   0  0  2  0  0  0  0  0  0  0  0  0
   36.2733   40.7245    5.1475 N   0  0  0  0  0  0  0  0  0  0  0  0
   32.5704   36.9721    8.9077 C   0  0  0  0  0  0  0  0  0  0  0  0
   38.5835   37.2879    5.6362 C   0  0  2  0  0  0  0  0  0  0  0  0
   39.4352   36.2178    6.0583 O   0  0  0  0  0  0  0  0  0  0  0  0
   41.8525   40.1349    4.2652 C   0  0  2  0  0  0  0  0  0  0  0  0
   42.4864   38.9862    3.5486 N   0  0  0  0  0  0  0  0  0  0  0  0
   34.1531   41.7085    4.3406 C   0  0  1  0  0  0  0  0  0  0  0  0
   34.8690   42.8582    3.8972 O   0  0  0  0  0  0  0  0  0  0  0  0
   32.7811   38.2724    8.0789 C   0  0  2  0  0  0  0  0  0  0  0  0
   31.4659   38.6980    7.5643 N   0  0  0  0  0  0  0  0  0  0  0  0
   39.3623   38.5606    5.2623 C   0  0  2  0  0  0  0  0  0  0  0  0
   40.6792   38.6333    5.9405 O   0  0  0  0  0  0  0  0  0  0  0  0
   42.7925   41.4198    4.1611 C   0  0  1  0  0  0  0  0  0  0  0  0
   42.0879   42.6170    4.5576 O   0  0  0  0  0  0  0  0  0  0  0  0
   32.9260   41.4484    3.4365 C   0  0  2  0  0  0  0  0  0  0  0  0
   32.0835   42.5816    3.4266 O   0  0  0  0  0  0  0  0  0  0  0  0
   33.8230   38.0170    6.9327 C   0  0  2  0  0  0  0  0  0  0  0  0
   38.4424   39.6965    5.7010 C   0  0  2  0  0  0  0  0  0  0  0  0
   37.6176   39.1648    6.7282 O   0  0  0  0  0  0  0  0  0  0  0  0
   44.0939   41.2804    5.0491 C   0  0  2  0  0  0  0  0  0  0  0  0
   44.9300   40.2459    4.5038 O   0  0  0  0  0  0  0  0  0  0  0  0
   32.1573   40.2060    3.9287 C   0  0  2  0  0  0  0  0  0  0  0  0
   33.0895   39.0568    3.9404 O   0  0  0  0  0  0  0  0  0  0  0  0
   35.2164   37.5237    7.5712 C   0  0  2  0  0  0  0  0  0  0  0  0
   36.2496   37.2273    6.5423 O   0  0  0  0  0  0  0  0  0  0  0  0
   37.5336   40.2118    4.5947 C   0  0  0  0  0  0  0  0  0  0  0  0
   43.6906   40.9451    6.5421 C   0  0  1  0  0  0  0  0  0  0  0  0
   42.7665   39.7629    6.6189 O   0  0  0  0  0  0  0  0  0  0  0  0
   30.9470   39.9416    3.0029 C   0  0  0  0  0  0  0  0  0  0  0  0
   30.1237   38.7760    3.3739 N   0  0  0  0  0  0  0  0  0  0  0  0
   34.9848   36.2195    8.3638 C   0  0  1  0  0  0  0  0  0  0  0  0
   36.2232   35.7795    8.9307 O   0  0  0  0  0  0  0  0  0  0  0  0
   44.9318   40.7370    7.4927 C   0  0  0  0  0  0  0  0  0  0  0  0
   45.8743   39.6340    7.1205 N   0  0  0  0  0  0  0  0  0  0  0  0
  1  2  1  1  0  0  0
  1  7  1  0  0  0  0
  1 30  1  0  0  0  0
  3  4  1  6  0  0  0
  3  9  1  0  0  0  0
  3 38  1  0  0  0  0
  5 10  1  0  0  0  0
  5 26  1  6  0  0  0
  5 32  1  0  0  0  0
  6 12  1  0  0  0  0
  6 35  1  0  0  0  0
  6 19  1  6  0  0  0
  7  8  1  1  0  0  0
  7 14  1  0  0  0  0
  8 33  1  0  0  0  0
  9 16  1  0  0  0  0
 10 11  1  1  0  0  0
 10 18  1  0  0  0  0
 12 13  1  1  0  0  0
 12 20  1  0  0  0  0
 14 15  1  6  0  0  0
 14 22  1  0  0  0  0
 16 17  1  6  0  0  0
 16 24  1  0  0  0  0
 18 19  1  1  0  0  0
 18 25  1  0  0  0  0
 20 21  1  1  0  0  0
 20 27  1  0  0  0  0
 22 23  1  1  0  0  0
 22 29  1  0  0  0  0
 24  2  1  1  0  0  0
 24 31  1  0  0  0  0
 25 26  1  1  0  0  0
 25 33  1  0  0  0  0
 27 28  1  6  0  0  0
 27 34  1  0  0  0  0
 29 30  1  0  0  0  0
 29 36  1  6  0  0  0
 31 32  1  6  0  0  0
 31 38  1  0  0  0  0
 34 35  1  0  0  0  0
 34 40  1  1  0  0  0
 36 37  1  0  0  0  0
 38 39  1  1  0  0  0
 40 41  1  0  0  0  0
M  END
>  <CHROM.1>
-174.82402398,-58.44085816,-179.75901195,-59.80830858,37.27247701,39.26874624
5.81590635,3.03878686,0.06726152,2.36783971

>  <Name>
ligand

>  <RI>
0

>  <Rbt.Current_Directory>
/home/itssahil/PROJECTS/Mol_Feturizer/New_Systems/rnas/1ZZ5

>  <Rbt.Executable>
rbdock ($Id: //depot/dev/client3/rdock/2013.1/src/exe/rbdock.cxx#4 $)

>  <Rbt.Library>
libRbt.so (2013.1, Build901 2013/11/27)

>  <Rbt.Parameter_File>
/export/apps/rDock/src/rDock_2013.1_src/data/scripts/dock_solv.prm

>  <Rbt.Receptor>
prm/pocket_docking_4.prm

>  <SCORE>
-11.8651

>  <SCORE.INTER>
-10.0484

>  <SCORE.INTER.CONST>
1

>  <SCORE.INTER.POLAR>
0

>  <SCORE.INTER.ROT>
4

>  <SCORE.INTER.SOLV>
19.2425

>  <SCORE.INTER.VDW>
-19.3798

>  <SCORE.INTER.norm>
-0.245084

>  <SCORE.INTRA>
-1.81667

>  <SCORE.INTRA.DIHEDRAL>
-4.80708

>  <SCORE.INTRA.DIHEDRAL.0>
5.18357

>  <SCORE.INTRA.POLAR>
0

>  <SCORE.INTRA.POLAR.0>
0

>  <SCORE.INTRA.REPUL>
0

>  <SCORE.INTRA.REPUL.0>
0

>  <SCORE.INTRA.SOLV>
0.427643

>  <SCORE.INTRA.SOLV.lig_0>
-109.973

>  <SCORE.INTRA.VDW>
0.37305

>  <SCORE.INTRA.VDW.0>
-1.68646

>  <SCORE.INTRA.norm>
-0.044309

>  <SCORE.RESTR>
0

>  <SCORE.RESTR.CAVITY>
0

>  <SCORE.RESTR.norm>
0

>  <SCORE.SYSTEM>
0

>  <SCORE.SYSTEM.CONST>
0

>  <SCORE.SYSTEM.DIHEDRAL>
0

>  <SCORE.SYSTEM.SOLV>
0

>  <SCORE.SYSTEM.norm>
0

>  <SCORE.heavy>
41

>  <SCORE.norm>
-0.289393

>  <RMSD>
2.192

$$$$
ligand
 OpenBabel11021811423D
libRbt.so/2013.1/901 2013/11/27
 41 45  0  0  0  0  0  0  0  0999 V2000
   34.3382   39.2944    4.7694 C   0  0  2  0  0  0  0  0  0  0  0  0
   33.9975   39.3427    6.1688 O   0  0  0  0  0  0  0  0  0  0  0  0
   33.9081   36.4700    9.4333 C   0  0  2  0  0  0  0  0  0  0  0  0
   33.6365   35.2158   10.1821 N   0  0  0  0  0  0  0  0  0  0  0  0
   37.6401   37.7788    6.7437 C   0  0  1  0  0  0  0  0  0  0  0  0
   41.5565   39.8686    5.8191 C   0  0  1  0  0  0  0  0  0  0  0  0
   35.1348   40.5633    4.3417 C   0  0  2  0  0  0  0  0  0  0  0  0
   36.3193   40.8014    5.1719 N   0  0  0  0  0  0  0  0  0  0  0  0
   32.5673   37.0048    8.8378 C   0  0  0  0  0  0  0  0  0  0  0  0
   38.6075   37.3444    5.6189 C   0  0  2  0  0  0  0  0  0  0  0  0
   39.4502   36.2626    6.0290 O   0  0  0  0  0  0  0  0  0  0  0  0
   41.8700   40.1932    4.2965 C   0  0  2  0  0  0  0  0  0  0  0  0
   42.4677   39.0510    3.5395 N   0  0  0  0  0  0  0  0  0  0  0  0
   34.2107   41.8106    4.3657 C   0  0  1  0  0  0  0  0  0  0  0  0
   34.9362   42.9640    3.9479 O   0  0  0  0  0  0  0  0  0  0  0  0
   32.7914   38.3180    8.0333 C   0  0  2  0  0  0  0  0  0  0  0  0
   31.4825   38.7595    7.5159 N   0  0  0  0  0  0  0  0  0  0  0  0
   39.3959   38.6192    5.2731 C   0  0  2  0  0  0  0  0  0  0  0  0
   40.7078   38.6731    5.9626 O   0  0  0  0  0  0  0  0  0  0  0  0
   42.8299   41.4641    4.2009 C   0  0  1  0  0  0  0  0  0  0  0  0
   42.1552   42.6635    4.6405 O   0  0  0  0  0  0  0  0  0  0  0  0
   32.9894   41.5728    3.4478 C   0  0  2  0  0  0  0  0  0  0  0  0
   32.1530   42.7106    3.4511 O   0  0  0  0  0  0  0  0  0  0  0  0
   33.8409   38.0768    6.8910 C   0  0  2  0  0  0  0  0  0  0  0  0
   38.4786   39.7523    5.7243 C   0  0  2  0  0  0  0  0  0  0  0  0
   37.6430   39.2074    6.7357 O   0  0  0  0  0  0  0  0  0  0  0  0
   44.1479   41.2818    5.0560 C   0  0  2  0  0  0  0  0  0  0  0  0
   44.9534   40.2463    4.4684 O   0  0  0  0  0  0  0  0  0  0  0  0
   32.2103   40.3263    3.9125 C   0  0  2  0  0  0  0  0  0  0  0  0
   33.1363   39.1721    3.9116 O   0  0  0  0  0  0  0  0  0  0  0  0
   35.2266   37.5650    7.5316 C   0  0  2  0  0  0  0  0  0  0  0  0
   36.2662   37.2808    6.5058 O   0  0  0  0  0  0  0  0  0  0  0  0
   37.5812   40.2915    4.6201 C   0  0  0  0  0  0  0  0  0  0  0  0
   43.7717   40.9185    6.5496 C   0  0  1  0  0  0  0  0  0  0  0  0
   42.8290   39.7508    6.6198 O   0  0  0  0  0  0  0  0  0  0  0  0
   31.0059   40.0845    2.9730 C   0  0  0  0  0  0  0  0  0  0  0  0
   30.1589   38.9323    3.3323 N   0  0  0  0  0  0  0  0  0  0  0  0
   34.9820   36.2486    8.2996 C   0  0  1  0  0  0  0  0  0  0  0  0
   36.2136   35.7922    8.8684 O   0  0  0  0  0  0  0  0  0  0  0  0
   45.0298   40.6672    7.4670 C   0  0  0  0  0  0  0  0  0  0  0  0
   45.9158   39.5238    7.0784 N   0  0  0  0  0  0  0  0  0  0  0  0
  1  2  1  1  0  0  0
  1  7  1  0  0  0  0
  1 30  1  0  0  0  0
  3  4  1  6  0  0  0
  3  9  1  0  0  0  0
  3 38  1  0  0  0  0
  5 10  1  0  0  0  0
  5 26  1  6  0  0  0
  5 32  1  0  0  0  0
  6 12  1  0  0  0  0
  6 35  1  0  0  0  0
  6 19  1  6  0  0  0
  7  8  1  1  0  0  0
  7 14  1  0  0  0  0
  8 33  1  0  0  0  0
  9 16  1  0  0  0  0
 10 11  1  1  0  0  0
 10 18  1  0  0  0  0
 12 13  1  1  0  0  0
 12 20  1  0  0  0  0
 14 15  1  6  0  0  0
 14 22  1  0  0  0  0
 16 17  1  6  0  0  0
 16 24  1  0  0  0  0
 18 19  1  1  0  0  0
 18 25  1  0  0  0  0
 20 21  1  1  0  0  0
 20 27  1  0  0  0  0
 22 23  1  1  0  0  0
 22 29  1  0  0  0  0
 24  2  1  1  0  0  0
 24 31  1  0  0  0  0
 25 26  1  1  0  0  0
 25 33  1  0  0  0  0
 27 28  1  6  0  0  0
 27 34  1  0  0  0  0
 29 30  1  0  0  0  0
 29 36  1  6  0  0  0
 31 32  1  6  0  0  0
 31 38  1  0  0  0  0
 34 35  1  0  0  0  0
 34 40  1  1  0  0  0
 36 37  1  0  0  0  0
 38 39  1  1  0  0  0
 40 41  1  0  0  0  0
M  END
>  <CHROM.1>
-175.83397299,-56.27595136,-178.64832894,-62.08441684,37.30628690,39.32084486
5.80490708,3.04558307,0.06235726,2.38393287

>  <Name>
ligand

>  <RI>
0

>  <Rbt.Current_Directory>
/home/itssahil/PROJECTS/Mol_Feturizer/New_Systems/rnas/1ZZ5

>  <Rbt.Executable>
rbdock ($Id: //depot/dev/client3/rdock/2013.1/src/exe/rbdock.cxx#4 $)

>  <Rbt.Library>
libRbt.so (2013.1, Build901 2013/11/27)

>  <Rbt.Parameter_File>
/export/apps/rDock/src/rDock_2013.1_src/data/scripts/dock_solv.prm

>  <Rbt.Receptor>
prm/pocket_docking_4.prm

>  <SCORE>
-11.9383

>  <SCORE.INTER>
-10.1032

>  <SCORE.INTER.CONST>
1

>  <SCORE.INTER.POLAR>
0

>  <SCORE.INTER.ROT>
4

>  <SCORE.INTER.SOLV>
19.0907

>  <SCORE.INTER.VDW>
-19.3657

>  <SCORE.INTER.norm>
-0.246419

>  <SCORE.INTRA>
-1.83506

>  <SCORE.INTRA.DIHEDRAL>
-4.7717

>  <SCORE.INTRA.DIHEDRAL.0>
5.18357

>  <SCORE.INTRA.POLAR>
0

>  <SCORE.INTRA.POLAR.0>
0

>  <SCORE.INTRA.REPUL>
0

>  <SCORE.INTRA.REPUL.0>
0

>  <SCORE.INTRA.SOLV>
0.443426

>  <SCORE.INTRA.SOLV.lig_0>
-109.973

>  <SCORE.INTRA.VDW>
0.329077

>  <SCORE.INTRA.VDW.0>
-1.68646

>  <SCORE.INTRA.norm>
-0.0447576

>  <SCORE.RESTR>
0

>  <SCORE.RESTR.CAVITY>
0

>  <SCORE.RESTR.norm>
0

>  <SCORE.SYSTEM>
0

>  <SCORE.SYSTEM.CONST>
0

>  <SCORE.SYSTEM.DIHEDRAL>
0

>  <SCORE.SYSTEM.SOLV>
0

>  <SCORE.SYSTEM.norm>
0

>  <SCORE.heavy>
41

>  <SCORE.norm>
-0.291177

>  <RMSD>
2.194

$$$$
ligand
 OpenBabel11021811423D
libRbt.so/2013.1/901 2013/11/27
 41 45  0  0  0  0  0  0  0  0999 V2000
   34.5305   39.3225    4.7408 C   0  0  2  0  0  0  0  0  0  0  0  0
   34.2007   39.3432    6.1434 O   0  0  0  0  0  0  0  0  0  0  0  0
   34.0397   36.3858    9.3286 C   0  0  2  0  0  0  0  0  0  0  0  0
   33.7326   35.1208   10.0448 N   0  0  0  0  0  0  0  0  0  0  0  0
   37.7945   37.6476    6.6484 C   0  0  1  0  0  0  0  0  0  0  0  0
   41.8020   39.6026    5.6908 C   0  0  1  0  0  0  0  0  0  0  0  0
   35.3649   40.5765    4.3421 C   0  0  2  0  0  0  0  0  0  0  0  0
   36.5619   40.7534    5.1697 N   0  0  0  0  0  0  0  0  0  0  0  0
   32.7132   36.9796    8.7580 C   0  0  0  0  0  0  0  0  0  0  0  0
   38.7400   37.2136    5.5049 C   0  0  2  0  0  0  0  0  0  0  0  0
   39.5499   36.0944    5.8790 O   0  0  0  0  0  0  0  0  0  0  0  0
   42.1479   39.8504    4.1607 C   0  0  2  0  0  0  0  0  0  0  0  0
   42.6857   38.6478    3.4541 N   0  0  0  0  0  0  0  0  0  0  0  0
   34.4819   41.8518    4.4071 C   0  0  1  0  0  0  0  0  0  0  0  0
   35.2415   42.9923    4.0157 O   0  0  0  0  0  0  0  0  0  0  0  0
   32.9744   38.3067    7.9881 C   0  0  2  0  0  0  0  0  0  0  0  0
   31.6770   38.8042    7.4928 N   0  0  0  0  0  0  0  0  0  0  0  0
   39.5669   38.4714    5.1883 C   0  0  2  0  0  0  0  0  0  0  0  0
   40.8844   38.4640    5.8693 O   0  0  0  0  0  0  0  0  0  0  0  0
   43.1803   41.0596    4.0285 C   0  0  1  0  0  0  0  0  0  0  0  0
   42.5720   42.3116    4.4150 O   0  0  0  0  0  0  0  0  0  0  0  0
   33.2475   41.6788    3.4921 C   0  0  2  0  0  0  0  0  0  0  0  0
   32.4484   42.8424    3.5327 O   0  0  0  0  0  0  0  0  0  0  0  0
   34.0079   38.0634    6.8319 C   0  0  2  0  0  0  0  0  0  0  0  0
   38.6897   39.6206    5.6772 C   0  0  2  0  0  0  0  0  0  0  0  0
   37.8436   39.0751    6.6794 O   0  0  0  0  0  0  0  0  0  0  0  0
   44.4776   40.8348    4.9049 C   0  0  2  0  0  0  0  0  0  0  0  0
   45.2275   39.7331    4.3659 O   0  0  0  0  0  0  0  0  0  0  0  0
   32.4316   40.4456    3.9283 C   0  0  2  0  0  0  0  0  0  0  0  0
   33.3197   39.2627    3.8889 O   0  0  0  0  0  0  0  0  0  0  0  0
   35.3806   37.4899    7.4479 C   0  0  2  0  0  0  0  0  0  0  0  0
   36.4037   37.2009    6.4070 O   0  0  0  0  0  0  0  0  0  0  0  0
   37.8031   40.2186    4.5948 C   0  0  0  0  0  0  0  0  0  0  0  0
   44.0672   40.5509    6.4067 C   0  0  1  0  0  0  0  0  0  0  0  0
   43.0581   39.4427    6.5099 O   0  0  0  0  0  0  0  0  0  0  0  0
   31.2139   40.2687    2.9914 C   0  0  0  0  0  0  0  0  0  0  0  0
   30.2957   39.1771    3.3650 N   0  0  0  0  0  0  0  0  0  0  0  0
   35.0985   36.1613    8.1814 C   0  0  1  0  0  0  0  0  0  0  0  0
   36.3184   35.6500    8.7284 O   0  0  0  0  0  0  0  0  0  0  0  0
   45.3000   40.2631    7.3473 C   0  0  0  0  0  0  0  0  0  0  0  0
   44.9906   40.0359    8.7950 N   0  0  0  0  0  0  0  0  0  0  0  0
  1  2  1  1  0  0  0
  1  7  1  0  0  0  0
  1 30  1  0  0  0  0
  3  4  1  6  0  0  0
  3  9  1  0  0  0  0
  3 38  1  0  0  0  0
  5 10  1  0  0  0  0
  5 26  1  6  0  0  0
  5 32  1  0  0  0  0
  6 12  1  0  0  0  0
  6 35  1  0  0  0  0
  6 19  1  6  0  0  0
  7  8  1  1  0  0  0
  7 14  1  0  0  0  0
  8 33  1  0  0  0  0
  9 16  1  0  0  0  0
 10 11  1  1  0  0  0
 10 18  1  0  0  0  0
 12 13  1  1  0  0  0
 12 20  1  0  0  0  0
 14 15  1  6  0  0  0
 14 22  1  0  0  0  0
 16 17  1  6  0  0  0
 16 24  1  0  0  0  0
 18 19  1  1  0  0  0
 18 25  1  0  0  0  0
 20 21  1  1  0  0  0
 20 27  1  0  0  0  0
 22 23  1  1  0  0  0
 22 29  1  0  0  0  0
 24  2  1  1  0  0  0
 24 31  1  0  0  0  0
 25 26  1  1  0  0  0
 25 33  1  0  0  0  0
 27 28  1  6  0  0  0
 27 34  1  0  0  0  0
 29 30  1  0  0  0  0
 29 36  1  6  0  0  0
 31 32  1  6  0  0  0
 31 38  1  0  0  0  0
 34 35  1  0  0  0  0
 34 40  1  1  0  0  0
 36 37  1  0  0  0  0
 38 39  1  1  0  0  0
 40 41  1  0  0  0  0
M  END
>  <CHROM.1>
-179.25414198,-57.46469203,-175.70748269,177.79825253,37.49033818,39.22125459
5.78037884,3.07160044,0.04517616,2.38475599

>  <Name>
ligand

>  <RI>
0

>  <Rbt.Current_Directory>
/home/itssahil/PROJECTS/Mol_Feturizer/New_Systems/rnas/1ZZ5

>  <Rbt.Executable>
rbdock ($Id: //depot/dev/client3/rdock/2013.1/src/exe/rbdock.cxx#4 $)

>  <Rbt.Library>
libRbt.so (2013.1, Build901 2013/11/27)

>  <Rbt.Parameter_File>
/export/apps/rDock/src/rDock_2013.1_src/data/scripts/dock_solv.prm

>  <Rbt.Receptor>
prm/pocket_docking_8.prm

>  <SCORE>
-12.61

>  <SCORE.INTER>
-10.0401

>  <SCORE.INTER.CONST>
1

>  <SCORE.INTER.POLAR>
0

>  <SCORE.INTER.ROT>
4

>  <SCORE.INTER.SOLV>
18.992

>  <SCORE.INTER.VDW>
-19.2907

>  <SCORE.INTER.norm>
-0.244881

>  <SCORE.INTRA>
-2.56991

>  <SCORE.INTRA.DIHEDRAL>
-4.82712

>  <SCORE.INTRA.DIHEDRAL.0>
5.18357

>  <SCORE.INTRA.POLAR>
0

>  <SCORE.INTRA.POLAR.0>
0

>  <SCORE.INTRA.REPUL>
0

>  <SCORE.INTRA.REPUL.0>
0

>  <SCORE.INTRA.SOLV>
-1.2304

>  <SCORE.INTRA.SOLV.lig_0>
-109.973

>  <SCORE.INTRA.VDW>
0.458853

>  <SCORE.INTRA.VDW.0>
-1.68646

>  <SCORE.INTRA.norm>
-0.0626806

>  <SCORE.RESTR>
0

>  <SCORE.RESTR.CAVITY>
0

>  <SCORE.RESTR.norm>
0

>  <SCORE.SYSTEM>
0

>  <SCORE.SYSTEM.CONST>
0

>  <SCORE.SYSTEM.DIHEDRAL>
0

>  <SCORE.SYSTEM.SOLV>
0

>  <SCORE.SYSTEM.norm>
0

>  <SCORE.heavy>
41

>  <SCORE.norm>
-0.307561

>  <RMSD>
2.200

$$$$
ligand
 OpenBabel11021811423D
libRbt.so/2013.1/901 2013/11/27
 41 45  0  0  0  0  0  0  0  0999 V2000
   34.3888   39.3122    4.7966 C   0  0  2  0  0  0  0  0  0  0  0  0
   34.0696   39.3234    6.2018 O   0  0  0  0  0  0  0  0  0  0  0  0
   34.0077   36.3602    9.3851 C   0  0  2  0  0  0  0  0  0  0  0  0
   33.7380   35.0873   10.1022 N   0  0  0  0  0  0  0  0  0  0  0  0
   37.7086   37.7181    6.6770 C   0  0  1  0  0  0  0  0  0  0  0  0
   41.6284   39.8036    5.7480 C   0  0  1  0  0  0  0  0  0  0  0  0
   35.1884   40.5871    4.3927 C   0  0  2  0  0  0  0  0  0  0  0  0
   36.3870   40.7933    5.2112 N   0  0  0  0  0  0  0  0  0  0  0  0
   32.6622   36.9210    8.8253 C   0  0  0  0  0  0  0  0  0  0  0  0
   38.6557   37.3090    5.5258 C   0  0  2  0  0  0  0  0  0  0  0  0
   39.4964   36.2101    5.8924 O   0  0  0  0  0  0  0  0  0  0  0  0
   41.9759   40.1246    4.2319 C   0  0  2  0  0  0  0  0  0  0  0  0
   42.5839   38.9784    3.4894 N   0  0  0  0  0  0  0  0  0  0  0  0
   34.2742   41.8397    4.4660 C   0  0  1  0  0  0  0  0  0  0  0  0
   35.0019   42.9993    4.0698 O   0  0  0  0  0  0  0  0  0  0  0  0
   32.8840   38.2549    8.0548 C   0  0  2  0  0  0  0  0  0  0  0  0
   31.5708   38.7201    7.5701 N   0  0  0  0  0  0  0  0  0  0  0  0
   39.4483   38.5874    5.2041 C   0  0  2  0  0  0  0  0  0  0  0  0
   40.7708   38.6125    5.8748 O   0  0  0  0  0  0  0  0  0  0  0  0
   42.9440   41.3906    4.1553 C   0  0  1  0  0  0  0  0  0  0  0  0
   42.2661   42.5939    4.5789 O   0  0  0  0  0  0  0  0  0  0  0  0
   33.0375   41.6366    3.5604 C   0  0  2  0  0  0  0  0  0  0  0  0
   32.2097   42.7797    3.6085 O   0  0  0  0  0  0  0  0  0  0  0  0
   33.9143   38.0386    6.8904 C   0  0  2  0  0  0  0  0  0  0  0  0
   38.5464   39.7138    5.7010 C   0  0  2  0  0  0  0  0  0  0  0  0
   37.7221   39.1463    6.7092 O   0  0  0  0  0  0  0  0  0  0  0  0
   44.2425   41.2028    5.0385 C   0  0  2  0  0  0  0  0  0  0  0  0
   45.0552   40.1625    4.4695 O   0  0  0  0  0  0  0  0  0  0  0  0
   32.2562   40.3829    4.0016 C   0  0  2  0  0  0  0  0  0  0  0  0
   33.1733   39.2227    3.9540 O   0  0  0  0  0  0  0  0  0  0  0  0
   35.3057   37.4992    7.4951 C   0  0  2  0  0  0  0  0  0  0  0  0
   36.3276   37.2368    6.4460 O   0  0  0  0  0  0  0  0  0  0  0  0
   37.6366   40.2903    4.6261 C   0  0  0  0  0  0  0  0  0  0  0  0
   43.8328   40.8435    6.5242 C   0  0  1  0  0  0  0  0  0  0  0  0
   42.8829   39.6806    6.5757 O   0  0  0  0  0  0  0  0  0  0  0  0
   31.0360   40.1764    3.0740 C   0  0  0  0  0  0  0  0  0  0  0  0
   30.1590   39.0497    3.4425 N   0  0  0  0  0  0  0  0  0  0  0  0
   35.0627   36.1633    8.2294 C   0  0  1  0  0  0  0  0  0  0  0  0
   36.2993   35.6823    8.7663 O   0  0  0  0  0  0  0  0  0  0  0  0
   45.0697   40.5871    7.4685 C   0  0  0  0  0  0  0  0  0  0  0  0
   45.9579   39.4386    7.1006 N   0  0  0  0  0  0  0  0  0  0  0  0
  1  2  1  1  0  0  0
  1  7  1  0  0  0  0
  1 30  1  0  0  0  0
  3  4  1  6  0  0  0
  3  9  1  0  0  0  0
  3 38  1  0  0  0  0
  5 10  1  0  0  0  0
  5 26  1  6  0  0  0
  5 32  1  0  0  0  0
  6 12  1  0  0  0  0
  6 35  1  0  0  0  0
  6 19  1  6  0  0  0
  7  8  1  1  0  0  0
  7 14  1  0  0  0  0
  8 33  1  0  0  0  0
  9 16  1  0  0  0  0
 10 11  1  1  0  0  0
 10 18  1  0  0  0  0
 12 13  1  1  0  0  0
 12 20  1  0  0  0  0
 14 15  1  6  0  0  0
 14 22  1  0  0  0  0
 16 17  1  6  0  0  0
 16 24  1  0  0  0  0
 18 19  1  1  0  0  0
 18 25  1  0  0  0  0
 20 21  1  1  0  0  0
 20 27  1  0  0  0  0
 22 23  1  1  0  0  0
 22 29  1  0  0  0  0
 24  2  1  1  0  0  0
 24 31  1  0  0  0  0
 25 26  1  1  0  0  0
 25 33  1  0  0  0  0
 27 28  1  6  0  0  0
 27 34  1  0  0  0  0
 29 30  1  0  0  0  0
 29 36  1  6  0  0  0
 31 32  1  6  0  0  0
 31 38  1  0  0  0  0
 34 35  1  0  0  0  0
 34 40  1  1  0  0  0
 36 37  1  0  0  0  0
 38 39  1  1  0  0  0
 40 41  1  0  0  0  0
M  END
>  <CHROM.1>
-176.06316313,-58.84692652,-176.54351704,-62.09727904,37.37550575,39.28666368
5.79989259,3.04501539,0.04902468,2.41097135

>  <Name>
ligand

>  <RI>
0

>  <Rbt.Current_Directory>
/home/itssahil/PROJECTS/Mol_Feturizer/New_Systems/rnas/1ZZ5

>  <Rbt.Executable>
rbdock ($Id: //depot/dev/client3/rdock/2013.1/src/exe/rbdock.cxx#4 $)

>  <Rbt.Library>
libRbt.so (2013.1, Build901 2013/11/27)

>  <Rbt.Parameter_File>
/export/apps/rDock/src/rDock_2013.1_src/data/scripts/dock_solv.prm

>  <Rbt.Receptor>
prm/pocket_docking_4.prm

>  <SCORE>
-11.778

>  <SCORE.INTER>
-9.92969

>  <SCORE.INTER.CONST>
1

>  <SCORE.INTER.POLAR>
0

>  <SCORE.INTER.ROT>
4

>  <SCORE.INTER.SOLV>
19.0691

>  <SCORE.INTER.VDW>
-19.2428

>  <SCORE.INTER.norm>
-0.242188

>  <SCORE.INTRA>
-1.84831

>  <SCORE.INTRA.DIHEDRAL>
-4.80415

>  <SCORE.INTRA.DIHEDRAL.0>
5.18357

>  <SCORE.INTRA.POLAR>
0

>  <SCORE.INTRA.POLAR.0>
0

>  <SCORE.INTRA.REPUL>
0

>  <SCORE.INTRA.REPUL.0>
0

>  <SCORE.INTRA.SOLV>
0.421535

>  <SCORE.INTRA.SOLV.lig_0>
-109.973

>  <SCORE.INTRA.VDW>
0.343

>  <SCORE.INTRA.VDW.0>
-1.68646

>  <SCORE.INTRA.norm>
-0.0450807

>  <SCORE.RESTR>
0

>  <SCORE.RESTR.CAVITY>
0

>  <SCORE.RESTR.norm>
0

>  <SCORE.SYSTEM>
0

>  <SCORE.SYSTEM.CONST>
0

>  <SCORE.SYSTEM.DIHEDRAL>
0

>  <SCORE.SYSTEM.SOLV>
0

>  <SCORE.SYSTEM.norm>
0

>  <SCORE.heavy>
41

>  <SCORE.norm>
-0.287268

>  <RMSD>
2.205

$$$$
ligand
 OpenBabel11021811423D
libRbt.so/2013.1/901 2013/11/27
 41 45  0  0  0  0  0  0  0  0999 V2000
   34.2669   39.1987    4.7899 C   0  0  2  0  0  0  0  0  0  0  0  0
   33.9358   39.2672    6.1907 O   0  0  0  0  0  0  0  0  0  0  0  0
   33.8649   36.4406    9.4958 C   0  0  2  0  0  0  0  0  0  0  0  0
   33.5968   35.1975   10.2639 N   0  0  0  0  0  0  0  0  0  0  0  0
   37.5803   37.7063    6.7628 C   0  0  1  0  0  0  0  0  0  0  0  0
   41.5305   39.7377    5.7132 C   0  0  1  0  0  0  0  0  0  0  0  0
   35.0622   40.4603    4.3390 C   0  0  2  0  0  0  0  0  0  0  0  0
   36.2527   40.7085    5.1577 N   0  0  0  0  0  0  0  0  0  0  0  0
   32.5209   36.9689    8.9020 C   0  0  0  0  0  0  0  0  0  0  0  0
   38.5393   37.2548    5.6376 C   0  0  2  0  0  0  0  0  0  0  0  0
   39.3834   36.1777    6.0571 O   0  0  0  0  0  0  0  0  0  0  0  0
   41.8828   39.9098    4.1742 C   0  0  2  0  0  0  0  0  0  0  0  0
   42.4604   38.6856    3.5398 N   0  0  0  0  0  0  0  0  0  0  0  0
   34.1400   41.7092    4.3518 C   0  0  1  0  0  0  0  0  0  0  0  0
   34.8641   42.8556    3.9129 O   0  0  0  0  0  0  0  0  0  0  0  0
   32.7412   38.2704    8.0776 C   0  0  2  0  0  0  0  0  0  0  0  0
   31.4294   38.7065    7.5631 N   0  0  0  0  0  0  0  0  0  0  0  0
   39.3270   38.5235    5.2686 C   0  0  2  0  0  0  0  0  0  0  0  0
   40.6437   38.5852    5.9483 O   0  0  0  0  0  0  0  0  0  0  0  0
   42.8821   41.1388    3.9822 C   0  0  1  0  0  0  0  0  0  0  0  0
   42.2354   42.3924    4.2938 O   0  0  0  0  0  0  0  0  0  0  0  0
   32.9121   41.4603    3.4457 C   0  0  2  0  0  0  0  0  0  0  0  0
   32.0773   42.5992    3.4387 O   0  0  0  0  0  0  0  0  0  0  0  0
   33.7825   38.0117    6.9317 C   0  0  2  0  0  0  0  0  0  0  0  0
   38.4143   39.6641    5.7101 C   0  0  2  0  0  0  0  0  0  0  0  0
   37.5850   39.1346    6.7347 O   0  0  0  0  0  0  0  0  0  0  0  0
   44.1773   41.0001    4.8792 C   0  0  2  0  0  0  0  0  0  0  0  0
   44.9626   39.8921    4.4080 O   0  0  0  0  0  0  0  0  0  0  0  0
   32.1346   40.2215    3.9331 C   0  0  2  0  0  0  0  0  0  0  0  0
   33.0590   39.0661    3.9421 O   0  0  0  0  0  0  0  0  0  0  0  0
   35.1719   37.5070    7.5700 C   0  0  2  0  0  0  0  0  0  0  0  0
   36.2041   37.2070    6.5412 O   0  0  0  0  0  0  0  0  0  0  0  0
   37.5102   40.1890    4.6045 C   0  0  0  0  0  0  0  0  0  0  0  0
   43.7618   40.7886    6.3914 C   0  0  1  0  0  0  0  0  0  0  0  0
   42.7833   39.6595    6.5490 O   0  0  0  0  0  0  0  0  0  0  0  0
   30.9235   39.9683    3.0053 C   0  0  0  0  0  0  0  0  0  0  0  0
   30.0994   38.7994    3.3642 N   0  0  0  0  0  0  0  0  0  0  0  0
   34.9308   36.2018    8.3581 C   0  0  1  0  0  0  0  0  0  0  0  0
   36.1656   35.7517    8.9248 O   0  0  0  0  0  0  0  0  0  0  0  0
   44.9939   40.5887    7.3555 C   0  0  0  0  0  0  0  0  0  0  0  0
   45.8488   39.3861    7.0983 N   0  0  0  0  0  0  0  0  0  0  0  0
  1  2  1  1  0  0  0
  1  7  1  0  0  0  0
  1 30  1  0  0  0  0
  3  4  1  6  0  0  0
  3  9  1  0  0  0  0
  3 38  1  0  0  0  0
  5 10  1  0  0  0  0
  5 26  1  6  0  0  0
  5 32  1  0  0  0  0
  6 12  1  0  0  0  0
  6 35  1  0  0  0  0
  6 19  1  6  0  0  0
  7  8  1  1  0  0  0
  7 14  1  0  0  0  0
  8 33  1  0  0  0  0
  9 16  1  0  0  0  0
 10 11  1  1  0  0  0
 10 18  1  0  0  0  0
 12 13  1  1  0  0  0
 12 20  1  0  0  0  0
 14 15  1  6  0  0  0
 14 22  1  0  0  0  0
 16 17  1  6  0  0  0
 16 24  1  0  0  0  0
 18 19  1  1  0  0  0
 18 25  1  0  0  0  0
 20 21  1  1  0  0  0
 20 27  1  0  0  0  0
 22 23  1  1  0  0  0
 22 29  1  0  0  0  0
 24  2  1  1  0  0  0
 24 31  1  0  0  0  0
 25 26  1  1  0  0  0
 25 33  1  0  0  0  0
 27 28  1  6  0  0  0
 27 34  1  0  0  0  0
 29 30  1  0  0  0  0
 29 36  1  6  0  0  0
 31 32  1  6  0  0  0
 31 38  1  0  0  0  0
 34 35  1  0  0  0  0
 34 40  1  1  0  0  0
 36 37  1  0  0  0  0
 38 39  1  1  0  0  0
 40 41  1  0  0  0  0
M  END
>  <CHROM.1>
-179.77258257,-58.05196554,179.68478581,-62.36156429,37.25993481,39.20183762
5.78689514,3.04690386,0.04629115,2.36163240

>  <Name>
ligand

>  <RI>
0

>  <Rbt.Current_Directory>
/home/itssahil/PROJECTS/Mol_Feturizer/New_Systems/rnas/1ZZ5

>  <Rbt.Executable>
rbdock ($Id: //depot/dev/client3/rdock/2013.1/src/exe/rbdock.cxx#4 $)

>  <Rbt.Library>
libRbt.so (2013.1, Build901 2013/11/27)

>  <Rbt.Parameter_File>
/export/apps/rDock/src/rDock_2013.1_src/data/scripts/dock_solv.prm

>  <Rbt.Receptor>
prm/pocket_docking_7.prm

>  <SCORE>
-11.8952

>  <SCORE.INTER>
-9.96621

>  <SCORE.INTER.CONST>
1

>  <SCORE.INTER.POLAR>
0

>  <SCORE.INTER.ROT>
4

>  <SCORE.INTER.SOLV>
19.3654

>  <SCORE.INTER.VDW>
-19.3659

>  <SCORE.INTER.norm>
-0.243078

>  <SCORE.INTRA>
-1.92899

>  <SCORE.INTRA.DIHEDRAL>
-4.90528

>  <SCORE.INTRA.DIHEDRAL.0>
5.18357

>  <SCORE.INTRA.POLAR>
0

>  <SCORE.INTRA.POLAR.0>
0

>  <SCORE.INTRA.REPUL>
0

>  <SCORE.INTRA.REPUL.0>
0

>  <SCORE.INTRA.SOLV>
0.414854

>  <SCORE.INTRA.SOLV.lig_0>
-109.973

>  <SCORE.INTRA.VDW>
0.316219

>  <SCORE.INTRA.VDW.0>
-1.68646

>  <SCORE.INTRA.norm>
-0.0470486

>  <SCORE.RESTR>
0

>  <SCORE.RESTR.CAVITY>
0

>  <SCORE.RESTR.norm>
0

>  <SCORE.SYSTEM>
0

>  <SCORE.SYSTEM.CONST>
0

>  <SCORE.SYSTEM.DIHEDRAL>
0

>  <SCORE.SYSTEM.SOLV>
0

>  <SCORE.SYSTEM.norm>
0

>  <SCORE.heavy>
41

>  <SCORE.norm>
-0.290127

>  <RMSD>
2.233

$$$$
ligand
 OpenBabel11021811423D
libRbt.so/2013.1/901 2013/11/27
 41 45  0  0  0  0  0  0  0  0999 V2000
   34.1967   39.1293    4.8363 C   0  0  2  0  0  0  0  0  0  0  0  0
   33.8887   39.2106    6.2417 O   0  0  0  0  0  0  0  0  0  0  0  0
   33.8828   36.4172    9.5755 C   0  0  2  0  0  0  0  0  0  0  0  0
   33.6320   35.1809   10.3603 N   0  0  0  0  0  0  0  0  0  0  0  0
   37.5477   37.6680    6.7685 C   0  0  1  0  0  0  0  0  0  0  0  0
   41.4997   39.6683    5.5823 C   0  0  1  0  0  0  0  0  0  0  0  0
   34.9799   40.3890    4.3596 C   0  0  2  0  0  0  0  0  0  0  0  0
   36.1829   40.6494    5.1559 N   0  0  0  0  0  0  0  0  0  0  0  0
   32.5272   36.9349    8.9989 C   0  0  0  0  0  0  0  0  0  0  0  0
   38.4896   37.2086    5.6321 C   0  0  2  0  0  0  0  0  0  0  0  0
   39.3443   36.1386    6.0482 O   0  0  0  0  0  0  0  0  0  0  0  0
   41.8329   39.7460    4.0315 C   0  0  2  0  0  0  0  0  0  0  0  0
   42.3771   38.4763    3.4600 N   0  0  0  0  0  0  0  0  0  0  0  0
   34.0536   41.6348    4.3754 C   0  0  1  0  0  0  0  0  0  0  0  0
   34.7662   42.7792    3.9131 O   0  0  0  0  0  0  0  0  0  0  0  0
   32.7292   38.2288    8.1580 C   0  0  2  0  0  0  0  0  0  0  0  0
   31.4074   38.6552    7.6610 N   0  0  0  0  0  0  0  0  0  0  0  0
   39.2665   38.4762    5.2374 C   0  0  2  0  0  0  0  0  0  0  0  0
   40.5940   38.5492    5.8945 O   0  0  0  0  0  0  0  0  0  0  0  0
   42.8530   40.9415    3.7566 C   0  0  1  0  0  0  0  0  0  0  0  0
   42.2356   42.2237    4.0050 O   0  0  0  0  0  0  0  0  0  0  0  0
   32.8117   41.3726    3.4923 C   0  0  2  0  0  0  0  0  0  0  0  0
   31.9728   42.5085    3.4878 O   0  0  0  0  0  0  0  0  0  0  0  0
   33.7522   37.9621    6.9976 C   0  0  2  0  0  0  0  0  0  0  0  0
   38.3572   39.6181    5.6826 C   0  0  2  0  0  0  0  0  0  0  0  0
   37.5468   39.0960    6.7261 O   0  0  0  0  0  0  0  0  0  0  0  0
   44.1583   40.8275    4.6425 C   0  0  2  0  0  0  0  0  0  0  0  0
   44.9148   39.6788    4.2246 O   0  0  0  0  0  0  0  0  0  0  0  0
   32.0469   40.1361    4.0049 C   0  0  2  0  0  0  0  0  0  0  0  0
   32.9754   38.9840    4.0100 O   0  0  0  0  0  0  0  0  0  0  0  0
   35.1538   37.4686    7.6176 C   0  0  2  0  0  0  0  0  0  0  0  0
   36.1699   37.1618    6.5749 O   0  0  0  0  0  0  0  0  0  0  0  0
   37.4329   40.1288    4.5870 C   0  0  0  0  0  0  0  0  0  0  0  0
   43.7608   40.7103    6.1698 C   0  0  1  0  0  0  0  0  0  0  0  0
   42.7627   39.6121    6.4044 O   0  0  0  0  0  0  0  0  0  0  0  0
   30.8214   39.8695    3.0999 C   0  0  0  0  0  0  0  0  0  0  0  0
   29.7717   40.9035    3.1547 N   0  0  0  0  0  0  0  0  0  0  0  0
   34.9305   36.1706    8.4226 C   0  0  1  0  0  0  0  0  0  0  0  0
   36.1762   35.7304    8.9732 O   0  0  0  0  0  0  0  0  0  0  0  0
   45.0026   40.5403    7.1271 C   0  0  0  0  0  0  0  0  0  0  0  0
   45.9683   41.6843    7.1698 N   0  0  0  0  0  0  0  0  0  0  0  0
  1  2  1  1  0  0  0
  1  7  1  0  0  0  0
  1 30  1  0  0  0  0
  3  4  1  6  0  0  0
  3  9  1  0  0  0  0
  3 38  1  0  0  0  0
  5 10  1  0  0  0  0
  5 26  1  6  0  0  0
  5 32  1  0  0  0  0
  6 12  1  0  0  0  0
  6 35  1  0  0  0  0
  6 19  1  6  0  0  0
  7  8  1  1  0  0  0
  7 14  1  0  0  0  0
  8 33  1  0  0  0  0
  9 16  1  0  0  0  0
 10 11  1  1  0  0  0
 10 18  1  0  0  0  0
 12 13  1  1  0  0  0
 12 20  1  0  0  0  0
 14 15  1  6  0  0  0
 14 22  1  0  0  0  0
 16 17  1  6  0  0  0
 16 24  1  0  0  0  0
 18 19  1  1  0  0  0
 18 25  1  0  0  0  0
 20 21  1  1  0  0  0
 20 27  1  0  0  0  0
 22 23  1  1  0  0  0
 22 29  1  0  0  0  0
 24  2  1  1  0  0  0
 24 31  1  0  0  0  0
 25 26  1  1  0  0  0
 25 33  1  0  0  0  0
 27 28  1  6  0  0  0
 27 34  1  0  0  0  0
 29 30  1  0  0  0  0
 29 36  1  6  0  0  0
 31 32  1  6  0  0  0
 31 38  1  0  0  0  0
 34 35  1  0  0  0  0
 34 40  1  1  0  0  0
 36 37  1  0  0  0  0
 38 39  1  1  0  0  0
 40 41  1  0  0  0  0
M  END
>  <CHROM.1>
177.23825095,-58.07191616,-66.61973139,63.58477418,37.21433758,39.23683361
5.76234519,3.03505679,0.03481634,2.36048034

>  <Name>
ligand

>  <RI>
0

>  <Rbt.Current_Directory>
/home/itssahil/PROJECTS/Mol_Feturizer/New_Systems/rnas/1ZZ5

>  <Rbt.Executable>
rbdock ($Id: //depot/dev/client3/rdock/2013.1/src/exe/rbdock.cxx#4 $)

>  <Rbt.Library>
libRbt.so (2013.1, Build901 2013/11/27)

>  <Rbt.Parameter_File>
/export/apps/rDock/src/rDock_2013.1_src/data/scripts/dock_solv.prm

>  <Rbt.Receptor>
prm/pocket_docking_5.prm

>  <SCORE>
-11.9708

>  <SCORE.INTER>
-10.3059

>  <SCORE.INTER.CONST>
1

>  <SCORE.INTER.POLAR>
0

>  <SCORE.INTER.ROT>
4

>  <SCORE.INTER.SOLV>
17.7064

>  <SCORE.INTER.VDW>
-19.0394

>  <SCORE.INTER.norm>
-0.251364

>  <SCORE.INTRA>
-1.66486

>  <SCORE.INTRA.DIHEDRAL>
-4.69894

>  <SCORE.INTRA.DIHEDRAL.0>
5.18357

>  <SCORE.INTRA.POLAR>
0

>  <SCORE.INTRA.POLAR.0>
0

>  <SCORE.INTRA.REPUL>
0

>  <SCORE.INTRA.REPUL.0>
0

>  <SCORE.INTRA.SOLV>
0.310534

>  <SCORE.INTRA.SOLV.lig_0>
-109.973

>  <SCORE.INTRA.VDW>
0.529345

>  <SCORE.INTRA.VDW.0>
-1.68646

>  <SCORE.INTRA.norm>
-0.0406063

>  <SCORE.RESTR>
0

>  <SCORE.RESTR.CAVITY>
0

>  <SCORE.RESTR.norm>
0

>  <SCORE.SYSTEM>
0

>  <SCORE.SYSTEM.CONST>
0

>  <SCORE.SYSTEM.DIHEDRAL>
0

>  <SCORE.SYSTEM.SOLV>
0

>  <SCORE.SYSTEM.norm>
0

>  <SCORE.heavy>
41

>  <SCORE.norm>
-0.29197

>  <RMSD>
2.237

$$$$
ligand
 OpenBabel11021811423D
libRbt.so/2013.1/901 2013/11/27
 41 45  0  0  0  0  0  0  0  0999 V2000
   34.2691   39.3476    4.8295 C   0  0  2  0  0  0  0  0  0  0  0  0
   33.9731   39.3830    6.2393 O   0  0  0  0  0  0  0  0  0  0  0  0
   33.8516   36.4521    9.4507 C   0  0  2  0  0  0  0  0  0  0  0  0
   33.5461   35.1966   10.1839 N   0  0  0  0  0  0  0  0  0  0  0  0
   37.5568   37.6466    6.6722 C   0  0  1  0  0  0  0  0  0  0  0  0
   41.5717   39.5345    5.5884 C   0  0  1  0  0  0  0  0  0  0  0  0
   35.1092   40.5880    4.4012 C   0  0  2  0  0  0  0  0  0  0  0  0
   36.3277   40.7562    5.1988 N   0  0  0  0  0  0  0  0  0  0  0  0
   32.5193   37.0582    8.9070 C   0  0  0  0  0  0  0  0  0  0  0  0
   38.4693   37.1921    5.5101 C   0  0  2  0  0  0  0  0  0  0  0  0
   39.2741   36.0657    5.8736 O   0  0  0  0  0  0  0  0  0  0  0  0
   41.9401   39.6980    4.0523 C   0  0  2  0  0  0  0  0  0  0  0  0
   42.4710   38.4535    3.4164 N   0  0  0  0  0  0  0  0  0  0  0  0
   34.2437   41.8747    4.4771 C   0  0  1  0  0  0  0  0  0  0  0  0
   35.0078   43.0026    4.0588 O   0  0  0  0  0  0  0  0  0  0  0  0
   32.7784   38.3760    8.1207 C   0  0  2  0  0  0  0  0  0  0  0  0
   31.4758   38.8859    7.6524 N   0  0  0  0  0  0  0  0  0  0  0  0
   39.3039   38.4370    5.1641 C   0  0  2  0  0  0  0  0  0  0  0  0
   40.6370   38.4183    5.8136 O   0  0  0  0  0  0  0  0  0  0  0  0
   42.9900   40.8857    3.8713 C   0  0  1  0  0  0  0  0  0  0  0  0
   42.3933   42.1636    4.1841 O   0  0  0  0  0  0  0  0  0  0  0  0
   32.9859   41.7102    3.5930 C   0  0  2  0  0  0  0  0  0  0  0  0
   32.2023   42.8839    3.6434 O   0  0  0  0  0  0  0  0  0  0  0  0
   33.7811   38.1111    6.9422 C   0  0  2  0  0  0  0  0  0  0  0  0
   38.4528   39.6008    5.6645 C   0  0  2  0  0  0  0  0  0  0  0  0
   37.6241   39.0735    6.6908 O   0  0  0  0  0  0  0  0  0  0  0  0
   44.2730   40.6907    4.7754 C   0  0  2  0  0  0  0  0  0  0  0  0
   45.0151   39.5532    4.3043 O   0  0  0  0  0  0  0  0  0  0  0  0
   32.1655   40.4906    4.0581 C   0  0  2  0  0  0  0  0  0  0  0  0
   33.0377   39.2964    4.0070 O   0  0  0  0  0  0  0  0  0  0  0  0
   35.1608   37.5251    7.5300 C   0  0  2  0  0  0  0  0  0  0  0  0
   36.1552   37.2154    6.4675 O   0  0  0  0  0  0  0  0  0  0  0  0
   37.5480   40.2016    4.5987 C   0  0  0  0  0  0  0  0  0  0  0  0
   43.8400   40.4905    6.2843 C   0  0  1  0  0  0  0  0  0  0  0  0
   42.8151   39.4019    6.4314 O   0  0  0  0  0  0  0  0  0  0  0  0
   30.9237   40.3218    3.1519 C   0  0  0  0  0  0  0  0  0  0  0  0
   30.0199   39.2214    3.5346 N   0  0  0  0  0  0  0  0  0  0  0  0
   34.8799   36.2058    8.2805 C   0  0  1  0  0  0  0  0  0  0  0  0
   36.1061   35.6834    8.8023 O   0  0  0  0  0  0  0  0  0  0  0  0
   45.0569   40.2367    7.2548 C   0  0  0  0  0  0  0  0  0  0  0  0
   44.7229   40.0557    8.7036 N   0  0  0  0  0  0  0  0  0  0  0  0
  1  2  1  1  0  0  0
  1  7  1  0  0  0  0
  1 30  1  0  0  0  0
  3  4  1  6  0  0  0
  3  9  1  0  0  0  0
  3 38  1  0  0  0  0
  5 10  1  0  0  0  0
  5 26  1  6  0  0  0
  5 32  1  0  0  0  0
  6 12  1  0  0  0  0
  6 35  1  0  0  0  0
  6 19  1  6  0  0  0
  7  8  1  1  0  0  0
  7 14  1  0  0  0  0
  8 33  1  0  0  0  0
  9 16  1  0  0  0  0
 10 11  1  1  0  0  0
 10 18  1  0  0  0  0
 12 13  1  1  0  0  0
 12 20  1  0  0  0  0
 14 15  1  6  0  0  0
 14 22  1  0  0  0  0
 16 17  1  6  0  0  0
 16 24  1  0  0  0  0
 18 19  1  1  0  0  0
 18 25  1  0  0  0  0
 20 21  1  1  0  0  0
 20 27  1  0  0  0  0
 22 23  1  1  0  0  0
 22 29  1  0  0  0  0
 24  2  1  1  0  0  0
 24 31  1  0  0  0  0
 25 26  1  1  0  0  0
 25 33  1  0  0  0  0
 27 28  1  6  0  0  0
 27 34  1  0  0  0  0
 29 30  1  0  0  0  0
 29 36  1  6  0  0  0
 31 32  1  6  0  0  0
 31 38  1  0  0  0  0
 34 35  1  0  0  0  0
 34 40  1  1  0  0  0
 36 37  1  0  0  0  0
 38 39  1  1  0  0  0
 40 41  1  0  0  0  0
M  END
>  <CHROM.1>
179.85048612,-60.22729520,-177.27458487,179.24631731,37.25628405,39.21040209
5.80512511,3.06707910,0.01993263,2.37465078

>  <Name>
ligand

>  <RI>
0

>  <Rbt.Current_Directory>
/home/itssahil/PROJECTS/Mol_Feturizer/New_Systems/rnas/1ZZ5

>  <Rbt.Executable>
rbdock ($Id: //depot/dev/client3/rdock/2013.1/src/exe/rbdock.cxx#4 $)

>  <Rbt.Library>
libRbt.so (2013.1, Build901 2013/11/27)

>  <Rbt.Parameter_File>
/export/apps/rDock/src/rDock_2013.1_src/data/scripts/dock_solv.prm

>  <Rbt.Receptor>
prm/pocket_docking_6.prm

>  <SCORE>
-12.6518

>  <SCORE.INTER>
-10.001

>  <SCORE.INTER.CONST>
1

>  <SCORE.INTER.POLAR>
0

>  <SCORE.INTER.ROT>
4

>  <SCORE.INTER.SOLV>
18.8442

>  <SCORE.INTER.VDW>
-19.2154

>  <SCORE.INTER.norm>
-0.243928

>  <SCORE.INTRA>
-2.65077

>  <SCORE.INTRA.DIHEDRAL>
-4.91774

>  <SCORE.INTRA.DIHEDRAL.0>
5.18357

>  <SCORE.INTRA.POLAR>
0

>  <SCORE.INTRA.POLAR.0>
0

>  <SCORE.INTRA.REPUL>
0

>  <SCORE.INTRA.REPUL.0>
0

>  <SCORE.INTRA.SOLV>
-1.2502

>  <SCORE.INTRA.SOLV.lig_0>
-109.973

>  <SCORE.INTRA.VDW>
0.433203

>  <SCORE.INTRA.VDW.0>
-1.68646

>  <SCORE.INTRA.norm>
-0.0646528

>  <SCORE.RESTR>
0

>  <SCORE.RESTR.CAVITY>
0

>  <SCORE.RESTR.norm>
0

>  <SCORE.SYSTEM>
0

>  <SCORE.SYSTEM.CONST>
0

>  <SCORE.SYSTEM.DIHEDRAL>
0

>  <SCORE.SYSTEM.SOLV>
0

>  <SCORE.SYSTEM.norm>
0

>  <SCORE.heavy>
41

>  <SCORE.norm>
-0.308581

>  <RMSD>
2.253

$$$$
ligand
 OpenBabel11021811423D
libRbt.so/2013.1/901 2013/11/27
 41 45  0  0  0  0  0  0  0  0999 V2000
   34.3860   39.2824    4.7647 C   0  0  2  0  0  0  0  0  0  0  0  0
   34.0768   39.3150    6.1718 O   0  0  0  0  0  0  0  0  0  0  0  0
   33.9349   36.3796    9.3782 C   0  0  2  0  0  0  0  0  0  0  0  0
   33.6266   35.1221   10.1069 N   0  0  0  0  0  0  0  0  0  0  0  0
   37.6618   37.5894    6.6356 C   0  0  1  0  0  0  0  0  0  0  0  0
   41.6718   39.5020    5.6094 C   0  0  1  0  0  0  0  0  0  0  0  0
   35.2260   40.5260    4.3458 C   0  0  2  0  0  0  0  0  0  0  0  0
   36.4365   40.6970    5.1549 N   0  0  0  0  0  0  0  0  0  0  0  0
   32.6057   36.9821    8.8229 C   0  0  0  0  0  0  0  0  0  0  0  0
   38.5865   37.1393    5.4815 C   0  0  2  0  0  0  0  0  0  0  0  0
   39.3914   36.0150    5.8510 O   0  0  0  0  0  0  0  0  0  0  0  0
   42.0045   39.7341    4.0740 C   0  0  2  0  0  0  0  0  0  0  0  0
   42.5263   38.5214    3.3725 N   0  0  0  0  0  0  0  0  0  0  0  0
   34.3558   41.8098    4.4153 C   0  0  1  0  0  0  0  0  0  0  0  0
   35.1201   42.9407    4.0056 O   0  0  0  0  0  0  0  0  0  0  0  0
   32.8679   38.3017    8.0407 C   0  0  2  0  0  0  0  0  0  0  0  0
   31.5681   38.8081    7.5610 N   0  0  0  0  0  0  0  0  0  0  0  0
   39.4203   38.3873    5.1448 C   0  0  2  0  0  0  0  0  0  0  0  0
   40.7474   38.3720    5.8066 O   0  0  0  0  0  0  0  0  0  0  0  0
   43.0448   40.9342    3.9213 C   0  0  1  0  0  0  0  0  0  0  0  0
   42.4497   42.1940    4.3029 O   0  0  0  0  0  0  0  0  0  0  0  0
   33.1067   41.6425    3.5194 C   0  0  2  0  0  0  0  0  0  0  0  0
   32.3190   42.8137    3.5641 O   0  0  0  0  0  0  0  0  0  0  0  0
   33.8823   38.0415    6.8713 C   0  0  2  0  0  0  0  0  0  0  0  0
   38.5609   39.5477    5.6388 C   0  0  2  0  0  0  0  0  0  0  0  0
   37.7244   39.0165    6.6567 O   0  0  0  0  0  0  0  0  0  0  0  0
   44.3488   40.7069    4.7870 C   0  0  2  0  0  0  0  0  0  0  0  0
   45.0850   39.5950    4.2502 O   0  0  0  0  0  0  0  0  0  0  0  0
   32.2859   40.4197    3.9754 C   0  0  2  0  0  0  0  0  0  0  0  0
   33.1624   39.2284    3.9308 O   0  0  0  0  0  0  0  0  0  0  0  0
   35.2584   37.4592    7.4711 C   0  0  2  0  0  0  0  0  0  0  0  0
   36.2636   37.1540    6.4174 O   0  0  0  0  0  0  0  0  0  0  0  0
   37.6641   40.1470    4.5655 C   0  0  0  0  0  0  0  0  0  0  0  0
   43.9510   40.4390    6.2950 C   0  0  1  0  0  0  0  0  0  0  0  0
   42.9346   39.3395    6.4176 O   0  0  0  0  0  0  0  0  0  0  0  0
   31.0532   40.2482    3.0574 C   0  0  0  0  0  0  0  0  0  0  0  0
   30.1331   39.1643    3.4484 N   0  0  0  0  0  0  0  0  0  0  0  0
   34.9748   36.1380    8.2172 C   0  0  1  0  0  0  0  0  0  0  0  0
   36.1977   35.6188    8.7497 O   0  0  0  0  0  0  0  0  0  0  0  0
   45.1908   40.1498    7.2260 C   0  0  0  0  0  0  0  0  0  0  0  0
   44.8911   39.9101    8.6738 N   0  0  0  0  0  0  0  0  0  0  0  0
  1  2  1  1  0  0  0
  1  7  1  0  0  0  0
  1 30  1  0  0  0  0
  3  4  1  6  0  0  0
  3  9  1  0  0  0  0
  3 38  1  0  0  0  0
  5 10  1  0  0  0  0
  5 26  1  6  0  0  0
  5 32  1  0  0  0  0
  6 12  1  0  0  0  0
  6 35  1  0  0  0  0
  6 19  1  6  0  0  0
  7  8  1  1  0  0  0
  7 14  1  0  0  0  0
  8 33  1  0  0  0  0
  9 16  1  0  0  0  0
 10 11  1  1  0  0  0
 10 18  1  0  0  0  0
 12 13  1  1  0  0  0
 12 20  1  0  0  0  0
 14 15  1  6  0  0  0
 14 22  1  0  0  0  0
 16 17  1  6  0  0  0
 16 24  1  0  0  0  0
 18 19  1  1  0  0  0
 18 25  1  0  0  0  0
 20 21  1  1  0  0  0
 20 27  1  0  0  0  0
 22 23  1  1  0  0  0
 22 29  1  0  0  0  0
 24  2  1  1  0  0  0
 24 31  1  0  0  0  0
 25 26  1  1  0  0  0
 25 33  1  0  0  0  0
 27 28  1  6  0  0  0
 27 34  1  0  0  0  0
 29 30  1  0  0  0  0
 29 36  1  6  0  0  0
 31 32  1  6  0  0  0
 31 38  1  0  0  0  0
 34 35  1  0  0  0  0
 34 40  1  1  0  0  0
 36 37  1  0  0  0  0
 38 39  1  1  0  0  0
 40 41  1  0  0  0  0
M  END
>  <CHROM.1>
-179.14483107,-57.81654608,-175.92982233,178.98308619,37.35932911,39.16043561
5.76423179,3.06883578,0.02890211,2.37844591

>  <Name>
ligand

>  <RI>
0

>  <Rbt.Current_Directory>
/home/itssahil/PROJECTS/Mol_Feturizer/New_Systems/rnas/1ZZ5

>  <Rbt.Executable>
rbdock ($Id: //depot/dev/client3/rdock/2013.1/src/exe/rbdock.cxx#4 $)

>  <Rbt.Library>
libRbt.so (2013.1, Build901 2013/11/27)

>  <Rbt.Parameter_File>
/export/apps/rDock/src/rDock_2013.1_src/data/scripts/dock_solv.prm

>  <Rbt.Receptor>
prm/pocket_docking_7.prm

>  <SCORE>
-12.5897

>  <SCORE.INTER>
-10.0081

>  <SCORE.INTER.CONST>
1

>  <SCORE.INTER.POLAR>
0

>  <SCORE.INTER.ROT>
4

>  <SCORE.INTER.SOLV>
19.2217

>  <SCORE.INTER.VDW>
-19.3459

>  <SCORE.INTER.norm>
-0.244099

>  <SCORE.INTRA>
-2.58163

>  <SCORE.INTRA.DIHEDRAL>
-4.8566

>  <SCORE.INTRA.DIHEDRAL.0>
5.18357

>  <SCORE.INTRA.POLAR>
0

>  <SCORE.INTRA.POLAR.0>
0

>  <SCORE.INTRA.REPUL>
0

>  <SCORE.INTRA.REPUL.0>
0

>  <SCORE.INTRA.SOLV>
-1.22054

>  <SCORE.INTRA.SOLV.lig_0>
-109.973

>  <SCORE.INTRA.VDW>
0.456943

>  <SCORE.INTRA.VDW.0>
-1.68646

>  <SCORE.INTRA.norm>
-0.0629665

>  <SCORE.RESTR>
0

>  <SCORE.RESTR.CAVITY>
0

>  <SCORE.RESTR.norm>
0

>  <SCORE.SYSTEM>
0

>  <SCORE.SYSTEM.CONST>
0

>  <SCORE.SYSTEM.DIHEDRAL>
0

>  <SCORE.SYSTEM.SOLV>
0

>  <SCORE.SYSTEM.norm>
0

>  <SCORE.heavy>
41

>  <SCORE.norm>
-0.307066

>  <RMSD>
2.255

$$$$
ligand
 OpenBabel11021811423D
libRbt.so/2013.1/901 2013/11/27
 41 45  0  0  0  0  0  0  0  0999 V2000
   34.1299   39.0483    4.8525 C   0  0  2  0  0  0  0  0  0  0  0  0
   33.8218   39.1532    6.2563 O   0  0  0  0  0  0  0  0  0  0  0  0
   33.8667   36.4292    9.6468 C   0  0  2  0  0  0  0  0  0  0  0  0
   33.6377   35.2052   10.4571 N   0  0  0  0  0  0  0  0  0  0  0  0
   37.5071   37.6845    6.8102 C   0  0  1  0  0  0  0  0  0  0  0  0
   41.4478   39.6932    5.5341 C   0  0  1  0  0  0  0  0  0  0  0  0
   34.8910   40.3112    4.3491 C   0  0  2  0  0  0  0  0  0  0  0  0
   36.0901   40.6084    5.1384 N   0  0  0  0  0  0  0  0  0  0  0  0
   32.5019   36.9117    9.0614 C   0  0  0  0  0  0  0  0  0  0  0  0
   38.4557   37.2180    5.6822 C   0  0  2  0  0  0  0  0  0  0  0  0
   39.3290   36.1715    6.1191 O   0  0  0  0  0  0  0  0  0  0  0  0
   41.7470   39.6996    3.9744 C   0  0  2  0  0  0  0  0  0  0  0  0
   42.2644   38.3999    3.4470 N   0  0  0  0  0  0  0  0  0  0  0  0
   33.9435   41.5410    4.3404 C   0  0  1  0  0  0  0  0  0  0  0  0
   34.6360   42.6876    3.8538 O   0  0  0  0  0  0  0  0  0  0  0  0
   32.6809   38.1913    8.1939 C   0  0  2  0  0  0  0  0  0  0  0  0
   31.3516   38.5848    7.6899 N   0  0  0  0  0  0  0  0  0  0  0  0
   39.2104   38.4903    5.2606 C   0  0  2  0  0  0  0  0  0  0  0  0
   40.5371   38.5995    5.9144 O   0  0  0  0  0  0  0  0  0  0  0  0
   42.7738   40.8698    3.6254 C   0  0  1  0  0  0  0  0  0  0  0  0
   42.1762   42.1688    3.8312 O   0  0  0  0  0  0  0  0  0  0  0  0
   32.7055   41.2395    3.4644 C   0  0  2  0  0  0  0  0  0  0  0  0
   31.8472   42.3606    3.4377 O   0  0  0  0  0  0  0  0  0  0  0  0
   33.7073   37.9184    7.0379 C   0  0  2  0  0  0  0  0  0  0  0  0
   38.2821   39.6254    5.6834 C   0  0  2  0  0  0  0  0  0  0  0  0
   37.4818   39.1111    6.7384 O   0  0  0  0  0  0  0  0  0  0  0  0
   44.0972   40.7788    4.4868 C   0  0  2  0  0  0  0  0  0  0  0  0
   44.8315   39.6041    4.1028 O   0  0  0  0  0  0  0  0  0  0  0  0
   31.9623   40.0009    4.0033 C   0  0  2  0  0  0  0  0  0  0  0  0
   32.9105   38.8652    4.0309 O   0  0  0  0  0  0  0  0  0  0  0  0
   35.1177   37.4618    7.6662 C   0  0  2  0  0  0  0  0  0  0  0  0
   36.1380   37.1510    6.6286 O   0  0  0  0  0  0  0  0  0  0  0  0
   37.3482   40.0976    4.5787 C   0  0  0  0  0  0  0  0  0  0  0  0
   43.7327   40.7326    6.0260 C   0  0  1  0  0  0  0  0  0  0  0  0
   42.7282   39.6575    6.3300 O   0  0  0  0  0  0  0  0  0  0  0  0
   30.7409   39.6949    3.1055 C   0  0  0  0  0  0  0  0  0  0  0  0
   29.6564   40.6918    3.1706 N   0  0  0  0  0  0  0  0  0  0  0  0
   34.9174   36.1769    8.4979 C   0  0  1  0  0  0  0  0  0  0  0  0
   36.1709   35.7695    9.0558 O   0  0  0  0  0  0  0  0  0  0  0  0
   44.9936   40.5894    6.9624 C   0  0  0  0  0  0  0  0  0  0  0  0
   45.9821   41.7139    6.9200 N   0  0  0  0  0  0  0  0  0  0  0  0
  1  2  1  1  0  0  0
  1  7  1  0  0  0  0
  1 30  1  0  0  0  0
  3  4  1  6  0  0  0
  3  9  1  0  0  0  0
  3 38  1  0  0  0  0
  5 10  1  0  0  0  0
  5 26  1  6  0  0  0
  5 32  1  0  0  0  0
  6 12  1  0  0  0  0
  6 35  1  0  0  0  0
  6 19  1  6  0  0  0
  7  8  1  1  0  0  0
  7 14  1  0  0  0  0
  8 33  1  0  0  0  0
  9 16  1  0  0  0  0
 10 11  1  1  0  0  0
 10 18  1  0  0  0  0
 12 13  1  1  0  0  0
 12 20  1  0  0  0  0
 14 15  1  6  0  0  0
 14 22  1  0  0  0  0
 16 17  1  6  0  0  0
 16 24  1  0  0  0  0
 18 19  1  1  0  0  0
 18 25  1  0  0  0  0
 20 21  1  1  0  0  0
 20 27  1  0  0  0  0
 22 23  1  1  0  0  0
 22 29  1  0  0  0  0
 24  2  1  1  0  0  0
 24 31  1  0  0  0  0
 25 26  1  1  0  0  0
 25 33  1  0  0  0  0
 27 28  1  6  0  0  0
 27 34  1  0  0  0  0
 29 30  1  0  0  0  0
 29 36  1  6  0  0  0
 31 32  1  6  0  0  0
 31 38  1  0  0  0  0
 34 35  1  0  0  0  0
 34 40  1  1  0  0  0
 36 37  1  0  0  0  0
 38 39  1  1  0  0  0
 40 41  1  0  0  0  0
M  END
>  <CHROM.1>
174.51154262,-56.24453654,-68.33871480,62.76862355,37.15514122,39.19893609
5.74613497,3.02199190,0.03395016,2.33594976

>  <Name>
ligand

>  <RI>
0

>  <Rbt.Current_Directory>
/home/itssahil/PROJECTS/Mol_Feturizer/New_Systems/rnas/1ZZ5

>  <Rbt.Executable>
rbdock ($Id: //depot/dev/client3/rdock/2013.1/src/exe/rbdock.cxx#4 $)

>  <Rbt.Library>
libRbt.so (2013.1, Build901 2013/11/27)

>  <Rbt.Parameter_File>
/export/apps/rDock/src/rDock_2013.1_src/data/scripts/dock_solv.prm

>  <Rbt.Receptor>
prm/pocket_docking_5.prm

>  <SCORE>
-11.9308

>  <SCORE.INTER>
-10.3773

>  <SCORE.INTER.CONST>
1

>  <SCORE.INTER.POLAR>
0

>  <SCORE.INTER.ROT>
4

>  <SCORE.INTER.SOLV>
17.5351

>  <SCORE.INTER.VDW>
-19.0299

>  <SCORE.INTER.norm>
-0.253104

>  <SCORE.INTRA>
-1.55358

>  <SCORE.INTRA.DIHEDRAL>
-4.46617

>  <SCORE.INTRA.DIHEDRAL.0>
5.18357

>  <SCORE.INTRA.POLAR>
0

>  <SCORE.INTRA.POLAR.0>
0

>  <SCORE.INTRA.REPUL>
0

>  <SCORE.INTRA.REPUL.0>
0

>  <SCORE.INTRA.SOLV>
0.318819

>  <SCORE.INTRA.SOLV.lig_0>
-109.973

>  <SCORE.INTRA.VDW>
0.520101

>  <SCORE.INTRA.VDW.0>
-1.68646

>  <SCORE.INTRA.norm>
-0.0378921

>  <SCORE.RESTR>
0

>  <SCORE.RESTR.CAVITY>
0

>  <SCORE.RESTR.norm>
0

>  <SCORE.SYSTEM>
0

>  <SCORE.SYSTEM.CONST>
0

>  <SCORE.SYSTEM.DIHEDRAL>
0

>  <SCORE.SYSTEM.SOLV>
0

>  <SCORE.SYSTEM.norm>
0

>  <SCORE.heavy>
41

>  <SCORE.norm>
-0.290996

>  <RMSD>
2.267

$$$$
ligand
 OpenBabel11021811423D
libRbt.so/2013.1/901 2013/11/27
 41 45  0  0  0  0  0  0  0  0999 V2000
   34.2505   39.1732    4.7857 C   0  0  2  0  0  0  0  0  0  0  0  0
   33.9370   39.2512    6.1900 O   0  0  0  0  0  0  0  0  0  0  0  0
   33.8837   36.4416    9.5098 C   0  0  2  0  0  0  0  0  0  0  0  0
   33.6150   35.2044   10.2874 N   0  0  0  0  0  0  0  0  0  0  0  0
   37.5756   37.6641    6.7259 C   0  0  1  0  0  0  0  0  0  0  0  0
   41.5507   39.6313    5.5772 C   0  0  1  0  0  0  0  0  0  0  0  0
   35.0503   40.4262    4.3189 C   0  0  2  0  0  0  0  0  0  0  0  0
   36.2525   40.6688    5.1219 N   0  0  0  0  0  0  0  0  0  0  0  0
   32.5368   36.9776    8.9297 C   0  0  0  0  0  0  0  0  0  0  0  0
   38.5174   37.1995    5.5915 C   0  0  2  0  0  0  0  0  0  0  0  0
   39.3579   36.1177    6.0062 O   0  0  0  0  0  0  0  0  0  0  0  0
   41.8812   39.7353    4.0273 C   0  0  2  0  0  0  0  0  0  0  0  0
   42.4129   38.4719    3.4306 N   0  0  0  0  0  0  0  0  0  0  0  0
   34.1382   41.6824    4.3366 C   0  0  1  0  0  0  0  0  0  0  0  0
   34.8660   42.8208    3.8832 O   0  0  0  0  0  0  0  0  0  0  0  0
   32.7574   38.2733    8.0962 C   0  0  2  0  0  0  0  0  0  0  0  0
   31.4429   38.7172    7.5953 N   0  0  0  0  0  0  0  0  0  0  0  0
   39.3106   38.4600    5.2067 C   0  0  2  0  0  0  0  0  0  0  0  0
   40.6358   38.5145    5.8702 O   0  0  0  0  0  0  0  0  0  0  0  0
   42.9113   40.9268    3.7727 C   0  0  1  0  0  0  0  0  0  0  0  0
   42.3059   42.2094    4.0467 O   0  0  0  0  0  0  0  0  0  0  0  0
   32.8975   41.4389    3.4465 C   0  0  2  0  0  0  0  0  0  0  0  0
   32.0717   42.5843    3.4439 O   0  0  0  0  0  0  0  0  0  0  0  0
   33.7827   38.0006    6.9391 C   0  0  2  0  0  0  0  0  0  0  0  0
   38.4124   39.6100    5.6534 C   0  0  2  0  0  0  0  0  0  0  0  0
   37.5913   39.0922    6.6906 O   0  0  0  0  0  0  0  0  0  0  0  0
   44.2174   40.7845    4.6533 C   0  0  2  0  0  0  0  0  0  0  0  0
   44.9628   39.6373    4.2119 O   0  0  0  0  0  0  0  0  0  0  0  0
   32.1162   40.2087    3.9495 C   0  0  2  0  0  0  0  0  0  0  0  0
   33.0315   39.0460    3.9531 O   0  0  0  0  0  0  0  0  0  0  0  0
   35.1757   37.4880    7.5631 C   0  0  2  0  0  0  0  0  0  0  0  0
   36.1930   37.1747    6.5234 O   0  0  0  0  0  0  0  0  0  0  0  0
   37.4990   40.1367    4.5562 C   0  0  0  0  0  0  0  0  0  0  0  0
   43.8222   40.6420    6.1790 C   0  0  1  0  0  0  0  0  0  0  0  0
   42.8150   39.5484    6.3951 O   0  0  0  0  0  0  0  0  0  0  0  0
   30.8920   39.9606    3.0376 C   0  0  0  0  0  0  0  0  0  0  0  0
   29.8409   40.9919    3.1142 N   0  0  0  0  0  0  0  0  0  0  0  0
   34.9338   36.1887    8.3606 C   0  0  1  0  0  0  0  0  0  0  0  0
   36.1718   35.7315    8.9146 O   0  0  0  0  0  0  0  0  0  0  0  0
   45.0645   40.4429    7.1300 C   0  0  0  0  0  0  0  0  0  0  0  0
   44.7671   40.3246    8.5932 N   0  0  0  0  0  0  0  0  0  0  0  0
  1  2  1  1  0  0  0
  1  7  1  0  0  0  0
  1 30  1  0  0  0  0
  3  4  1  6  0  0  0
  3  9  1  0  0  0  0
  3 38  1  0  0  0  0
  5 10  1  0  0  0  0
  5 26  1  6  0  0  0
  5 32  1  0  0  0  0
  6 12  1  0  0  0  0
  6 35  1  0  0  0  0
  6 19  1  6  0  0  0
  7  8  1  1  0  0  0
  7 14  1  0  0  0  0
  8 33  1  0  0  0  0
  9 16  1  0  0  0  0
 10 11  1  1  0  0  0
 10 18  1  0  0  0  0
 12 13  1  1  0  0  0
 12 20  1  0  0  0  0
 14 15  1  6  0  0  0
 14 22  1  0  0  0  0
 16 17  1  6  0  0  0
 16 24  1  0  0  0  0
 18 19  1  1  0  0  0
 18 25  1  0  0  0  0
 20 21  1  1  0  0  0
 20 27  1  0  0  0  0
 22 23  1  1  0  0  0
 22 29  1  0  0  0  0
 24  2  1  1  0  0  0
 24 31  1  0  0  0  0
 25 26  1  1  0  0  0
 25 33  1  0  0  0  0
 27 28  1  6  0  0  0
 27 34  1  0  0  0  0
 29 30  1  0  0  0  0
 29 36  1  6  0  0  0
 31 32  1  6  0  0  0
 31 38  1  0  0  0  0
 34 35  1  0  0  0  0
 34 40  1  1  0  0  0
 36 37  1  0  0  0  0
 38 39  1  1  0  0  0
 40 41  1  0  0  0  0
M  END
>  <CHROM.1>
177.79780854,-57.58759884,-67.85927171,178.96545672,37.23116862,39.21565657
5.76207812,3.06888080,0.03012379,2.34428355

>  <Name>
ligand

>  <RI>
0

>  <Rbt.Current_Directory>
/home/itssahil/PROJECTS/Mol_Feturizer/New_Systems/rnas/1ZZ5

>  <Rbt.Executable>
rbdock ($Id: //depot/dev/client3/rdock/2013.1/src/exe/rbdock.cxx#4 $)

>  <Rbt.Library>
libRbt.so (2013.1, Build901 2013/11/27)

>  <Rbt.Parameter_File>
/export/apps/rDock/src/rDock_2013.1_src/data/scripts/dock_solv.prm

>  <Rbt.Receptor>
prm/pocket_docking_8.prm

>  <SCORE>
-12.203

>  <SCORE.INTER>
-10.3538

>  <SCORE.INTER.CONST>
1

>  <SCORE.INTER.POLAR>
0

>  <SCORE.INTER.ROT>
4

>  <SCORE.INTER.SOLV>
17.9632

>  <SCORE.INTER.VDW>
-19.157

>  <SCORE.INTER.norm>
-0.252532

>  <SCORE.INTRA>
-1.84912

>  <SCORE.INTRA.DIHEDRAL>
-4.67038

>  <SCORE.INTRA.DIHEDRAL.0>
5.18357

>  <SCORE.INTRA.POLAR>
0

>  <SCORE.INTRA.POLAR.0>
0

>  <SCORE.INTRA.REPUL>
0

>  <SCORE.INTRA.REPUL.0>
0

>  <SCORE.INTRA.SOLV>
-0.0733135

>  <SCORE.INTRA.SOLV.lig_0>
-109.973

>  <SCORE.INTRA.VDW>
0.522723

>  <SCORE.INTRA.VDW.0>
-1.68646

>  <SCORE.INTRA.norm>
-0.0451005

>  <SCORE.RESTR>
0

>  <SCORE.RESTR.CAVITY>
0

>  <SCORE.RESTR.norm>
0

>  <SCORE.SYSTEM>
0

>  <SCORE.SYSTEM.CONST>
0

>  <SCORE.SYSTEM.DIHEDRAL>
0

>  <SCORE.SYSTEM.SOLV>
0

>  <SCORE.SYSTEM.norm>
0

>  <SCORE.heavy>
41

>  <SCORE.norm>
-0.297633

>  <RMSD>
2.273

$$$$
ligand
 OpenBabel11021811423D
libRbt.so/2013.1/901 2013/11/27
 41 45  0  0  0  0  0  0  0  0999 V2000
   36.3955   39.9357    4.9243 C   0  0  2  0  0  0  0  0  0  0  0  0
   36.2343   39.6821    6.3336 O   0  0  0  0  0  0  0  0  0  0  0  0
   36.2388   36.1426    8.8614 C   0  0  2  0  0  0  0  0  0  0  0  0
   35.9291   34.7726    9.3455 N   0  0  0  0  0  0  0  0  0  0  0  0
   39.7339   37.7579    6.0242 C   0  0  1  0  0  0  0  0  0  0  0  0
   43.7882   39.5982    4.7641 C   0  0  1  0  0  0  0  0  0  0  0  0
   37.2639   41.2058    4.6785 C   0  0  2  0  0  0  0  0  0  0  0  0
   38.5590   41.1542    5.3635 N   0  0  0  0  0  0  0  0  0  0  0  0
   34.8998   36.9007    8.5959 C   0  0  0  0  0  0  0  0  0  0  0  0
   40.5062   37.5263    4.7053 C   0  0  2  0  0  0  0  0  0  0  0  0
   41.2733   36.3185    4.7420 O   0  0  0  0  0  0  0  0  0  0  0  0
   45.2463   39.0804    5.1219 C   0  0  2  0  0  0  0  0  0  0  0  0
   45.3870   38.5712    6.5204 N   0  0  0  0  0  0  0  0  0  0  0  0
   36.4867   42.4791    5.1088 C   0  0  1  0  0  0  0  0  0  0  0  0
   37.2738   43.6401    4.8572 O   0  0  0  0  0  0  0  0  0  0  0  0
   35.1621   38.3446    8.0779 C   0  0  2  0  0  0  0  0  0  0  0  0
   33.8541   38.9916    7.8627 N   0  0  0  0  0  0  0  0  0  0  0  0
   41.3770   38.7836    4.5410 C   0  0  2  0  0  0  0  0  0  0  0  0
   42.7612   38.5765    5.0314 O   0  0  0  0  0  0  0  0  0  0  0  0
   46.3112   40.2395    4.8608 C   0  0  1  0  0  0  0  0  0  0  0  0
   46.4256   40.5371    3.4518 O   0  0  0  0  0  0  0  0  0  0  0  0
   35.1447   42.5543    4.3445 C   0  0  2  0  0  0  0  0  0  0  0  0
   34.4398   43.7195    4.7181 O   0  0  0  0  0  0  0  0  0  0  0  0
   36.0336   38.2981    6.7731 C   0  0  2  0  0  0  0  0  0  0  0  0
   40.6463   39.8460    5.3573 C   0  0  2  0  0  0  0  0  0  0  0  0
   39.8868   39.1447    6.3317 O   0  0  0  0  0  0  0  0  0  0  0  0
   45.9447   41.5709    5.6318 C   0  0  2  0  0  0  0  0  0  0  0  0
   46.0754   41.3497    7.0461 O   0  0  0  0  0  0  0  0  0  0  0  0
   34.3004   41.2959    4.6284 C   0  0  2  0  0  0  0  0  0  0  0  0
   35.0922   40.1075    4.2407 O   0  0  0  0  0  0  0  0  0  0  0  0
   37.4250   37.5485    7.0808 C   0  0  2  0  0  0  0  0  0  0  0  0
   38.2964   37.4339    5.8802 O   0  0  0  0  0  0  0  0  0  0  0  0
   39.6835   40.6936    4.5387 C   0  0  0  0  0  0  0  0  0  0  0  0
   44.4690   42.0119    5.2682 C   0  0  1  0  0  0  0  0  0  0  0  0
   43.4859   40.8944    5.4731 O   0  0  0  0  0  0  0  0  0  0  0  0
   32.9721   41.3710    3.8400 C   0  0  0  0  0  0  0  0  0  0  0  0
   32.1045   40.1859    3.9698 N   0  0  0  0  0  0  0  0  0  0  0  0
   37.1376   36.1115    7.5658 C   0  0  1  0  0  0  0  0  0  0  0  0
   38.3740   35.4438    7.8384 O   0  0  0  0  0  0  0  0  0  0  0  0
   43.9979   43.3077    6.0338 C   0  0  0  0  0  0  0  0  0  0  0  0
   42.5851   43.7432    5.7932 N   0  0  0  0  0  0  0  0  0  0  0  0
  1  2  1  1  0  0  0
  1  7  1  0  0  0  0
  1 30  1  0  0  0  0
  3  4  1  6  0  0  0
  3  9  1  0  0  0  0
  3 38  1  0  0  0  0
  5 10  1  0  0  0  0
  5 26  1  6  0  0  0
  5 32  1  0  0  0  0
  6 12  1  0  0  0  0
  6 35  1  0  0  0  0
  6 19  1  1  0  0  0
  7  8  1  1  0  0  0
  7 14  1  0  0  0  0
  8 33  1  0  0  0  0
  9 16  1  0  0  0  0
 10 11  1  1  0  0  0
 10 18  1  0  0  0  0
 12 13  1  1  0  0  0
 12 20  1  0  0  0  0
 14 15  1  6  0  0  0
 14 22  1  0  0  0  0
 16 17  1  6  0  0  0
 16 24  1  0  0  0  0
 18 19  1  1  0  0  0
 18 25  1  0  0  0  0
 20 21  1  6  0  0  0
 20 27  1  0  0  0  0
 22 23  1  1  0  0  0
 22 29  1  0  0  0  0
 24  2  1  1  0  0  0
 24 31  1  0  0  0  0
 25 26  1  1  0  0  0
 25 33  1  0  0  0  0
 27 28  1  1  0  0  0
 27 34  1  0  0  0  0
 29 30  1  0  0  0  0
 29 36  1  6  0  0  0
 31 32  1  6  0  0  0
 31 38  1  0  0  0  0
 34 35  1  0  0  0  0
 34 40  1  1  0  0  0
 36 37  1  0  0  0  0
 38 39  1  1  0  0  0
 40 41  1  0  0  0  0
M  END
>  <CHROM.1>
170.57137920,-169.29208184,176.78578611,-176.91275347,39.27170652,39.68836763
5.75016776,3.01322075,-0.02618621,2.72013867

>  <Name>
ligand

>  <RI>
0

>  <Rbt.Current_Directory>
/home/itssahil/PROJECTS/Mol_Feturizer/New_Systems/rnas/1ZZ5

>  <Rbt.Executable>
rbdock ($Id: //depot/dev/client3/rdock/2013.1/src/exe/rbdock.cxx#4 $)

>  <Rbt.Library>
libRbt.so (2013.1, Build901 2013/11/27)

>  <Rbt.Parameter_File>
/export/apps/rDock/src/rDock_2013.1_src/data/scripts/dock_solv.prm

>  <Rbt.Receptor>
prm/pocket_docking_6.prm

>  <SCORE>
-10.484

>  <SCORE.INTER>
-8.02384

>  <SCORE.INTER.CONST>
1

>  <SCORE.INTER.POLAR>
0

>  <SCORE.INTER.ROT>
4

>  <SCORE.INTER.SOLV>
16.488

>  <SCORE.INTER.VDW>
-17.1119

>  <SCORE.INTER.norm>
-0.195703

>  <SCORE.INTRA>
-2.46017

>  <SCORE.INTRA.DIHEDRAL>
-3.92245

>  <SCORE.INTRA.DIHEDRAL.0>
5.18357

>  <SCORE.INTRA.POLAR>
0

>  <SCORE.INTRA.POLAR.0>
0

>  <SCORE.INTRA.REPUL>
0

>  <SCORE.INTRA.REPUL.0>
0

>  <SCORE.INTRA.SOLV>
-1.14884

>  <SCORE.INTRA.SOLV.lig_0>
-109.973

>  <SCORE.INTRA.VDW>
0.0754738

>  <SCORE.INTRA.VDW.0>
-1.68646

>  <SCORE.INTRA.norm>
-0.0600041

>  <SCORE.RESTR>
0

>  <SCORE.RESTR.CAVITY>
0

>  <SCORE.RESTR.norm>
0

>  <SCORE.SYSTEM>
0

>  <SCORE.SYSTEM.CONST>
0

>  <SCORE.SYSTEM.DIHEDRAL>
0

>  <SCORE.SYSTEM.SOLV>
0

>  <SCORE.SYSTEM.norm>
0

>  <SCORE.heavy>
41

>  <SCORE.norm>
-0.255708

>  <RMSD>
2.276

$$$$
ligand
 OpenBabel11021811423D
libRbt.so/2013.1/901 2013/11/27
 41 45  0  0  0  0  0  0  0  0999 V2000
   34.2335   39.1935    4.8357 C   0  0  2  0  0  0  0  0  0  0  0  0
   33.9486   39.2711    6.2461 O   0  0  0  0  0  0  0  0  0  0  0  0
   33.8874   36.4444    9.5512 C   0  0  2  0  0  0  0  0  0  0  0  0
   33.6025   35.2098   10.3271 N   0  0  0  0  0  0  0  0  0  0  0  0
   37.5556   37.5905    6.7043 C   0  0  1  0  0  0  0  0  0  0  0  0
   41.5401   39.4870    5.5246 C   0  0  1  0  0  0  0  0  0  0  0  0
   35.0555   40.4289    4.3605 C   0  0  2  0  0  0  0  0  0  0  0  0
   36.2784   40.6367    5.1419 N   0  0  0  0  0  0  0  0  0  0  0  0
   32.5436   37.0173    8.9996 C   0  0  0  0  0  0  0  0  0  0  0  0
   38.4639   37.1091    5.5497 C   0  0  2  0  0  0  0  0  0  0  0  0
   39.2847   36.0043    5.9426 O   0  0  0  0  0  0  0  0  0  0  0  0
   41.8433   39.6426    3.9735 C   0  0  2  0  0  0  0  0  0  0  0  0
   42.3514   38.3962    3.3230 N   0  0  0  0  0  0  0  0  0  0  0  0
   34.1758   41.7074    4.4023 C   0  0  1  0  0  0  0  0  0  0  0  0
   34.9232   42.8298    3.9413 O   0  0  0  0  0  0  0  0  0  0  0  0
   32.7810   38.3119    8.1691 C   0  0  2  0  0  0  0  0  0  0  0  0
   31.4688   38.7915    7.6956 N   0  0  0  0  0  0  0  0  0  0  0  0
   39.2811   38.3516    5.1567 C   0  0  2  0  0  0  0  0  0  0  0  0
   40.6196   38.3692    5.7952 O   0  0  0  0  0  0  0  0  0  0  0  0
   42.8804   40.8327    3.7418 C   0  0  1  0  0  0  0  0  0  0  0  0
   42.2929   42.1104    4.0720 O   0  0  0  0  0  0  0  0  0  0  0  0
   32.9128   41.5001    3.5347 C   0  0  2  0  0  0  0  0  0  0  0  0
   32.1160   42.6658    3.5538 O   0  0  0  0  0  0  0  0  0  0  0  0
   33.7771   38.0204    6.9913 C   0  0  2  0  0  0  0  0  0  0  0  0
   38.4206   39.5212    5.6266 C   0  0  2  0  0  0  0  0  0  0  0  0
   37.6065   39.0179    6.6763 O   0  0  0  0  0  0  0  0  0  0  0  0
   44.2009   40.6472    4.5924 C   0  0  2  0  0  0  0  0  0  0  0  0
   44.9266   39.5094    4.0972 O   0  0  0  0  0  0  0  0  0  0  0  0
   32.1105   40.2869    4.0458 C   0  0  2  0  0  0  0  0  0  0  0  0
   32.9962   39.1017    4.0258 O   0  0  0  0  0  0  0  0  0  0  0  0
   35.1683   37.4696    7.5859 C   0  0  2  0  0  0  0  0  0  0  0  0
   36.1576   37.1370    6.5255 O   0  0  0  0  0  0  0  0  0  0  0  0
   37.5003   40.0768    4.5497 C   0  0  0  0  0  0  0  0  0  0  0  0
   43.8321   40.4545    6.1193 C   0  0  1  0  0  0  0  0  0  0  0  0
   42.8182   39.3634    6.3155 O   0  0  0  0  0  0  0  0  0  0  0  0
   30.8635   40.0748    3.1560 C   0  0  0  0  0  0  0  0  0  0  0  0
   29.9819   38.9695    3.5748 N   0  0  0  0  0  0  0  0  0  0  0  0
   34.9089   36.1721    8.3809 C   0  0  1  0  0  0  0  0  0  0  0  0
   36.1453   35.6809    8.9089 O   0  0  0  0  0  0  0  0  0  0  0  0
   45.0895   40.2104    7.0394 C   0  0  0  0  0  0  0  0  0  0  0  0
   44.8174   40.0396    8.5024 N   0  0  0  0  0  0  0  0  0  0  0  0
  1  2  1  1  0  0  0
  1  7  1  0  0  0  0
  1 30  1  0  0  0  0
  3  4  1  6  0  0  0
  3  9  1  0  0  0  0
  3 38  1  0  0  0  0
  5 10  1  0  0  0  0
  5 26  1  6  0  0  0
  5 32  1  0  0  0  0
  6 12  1  0  0  0  0
  6 35  1  0  0  0  0
  6 19  1  6  0  0  0
  7  8  1  1  0  0  0
  7 14  1  0  0  0  0
  8 33  1  0  0  0  0
  9 16  1  0  0  0  0
 10 11  1  1  0  0  0
 10 18  1  0  0  0  0
 12 13  1  1  0  0  0
 12 20  1  0  0  0  0
 14 15  1  6  0  0  0
 14 22  1  0  0  0  0
 16 17  1  6  0  0  0
 16 24  1  0  0  0  0
 18 19  1  1  0  0  0
 18 25  1  0  0  0  0
 20 21  1  1  0  0  0
 20 27  1  0  0  0  0
 22 23  1  1  0  0  0
 22 29  1  0  0  0  0
 24  2  1  1  0  0  0
 24 31  1  0  0  0  0
 25 26  1  1  0  0  0
 25 33  1  0  0  0  0
 27 28  1  6  0  0  0
 27 34  1  0  0  0  0
 29 30  1  0  0  0  0
 29 36  1  6  0  0  0
 31 32  1  6  0  0  0
 31 38  1  0  0  0  0
 34 35  1  0  0  0  0
 34 40  1  1  0  0  0
 36 37  1  0  0  0  0
 38 39  1  1  0  0  0
 40 41  1  0  0  0  0
M  END
>  <CHROM.1>
179.75988654,-57.68831132,-177.78609979,179.12544180,37.22897721,39.11939136
5.77714521,3.05058526,0.01873256,2.34319314

>  <Name>
ligand

>  <RI>
0

>  <Rbt.Current_Directory>
/home/itssahil/PROJECTS/Mol_Feturizer/New_Systems/rnas/1ZZ5

>  <Rbt.Executable>
rbdock ($Id: //depot/dev/client3/rdock/2013.1/src/exe/rbdock.cxx#4 $)

>  <Rbt.Library>
libRbt.so (2013.1, Build901 2013/11/27)

>  <Rbt.Parameter_File>
/export/apps/rDock/src/rDock_2013.1_src/data/scripts/dock_solv.prm

>  <Rbt.Receptor>
prm/pocket_docking_6.prm

>  <SCORE>
-12.6699

>  <SCORE.INTER>
-10.0567

>  <SCORE.INTER.CONST>
1

>  <SCORE.INTER.POLAR>
0

>  <SCORE.INTER.ROT>
4

>  <SCORE.INTER.SOLV>
19.1927

>  <SCORE.INTER.VDW>
-19.3687

>  <SCORE.INTER.norm>
-0.245285

>  <SCORE.INTRA>
-2.61324

>  <SCORE.INTRA.DIHEDRAL>
-4.9003

>  <SCORE.INTRA.DIHEDRAL.0>
5.18357

>  <SCORE.INTRA.POLAR>
0

>  <SCORE.INTRA.POLAR.0>
0

>  <SCORE.INTRA.REPUL>
0

>  <SCORE.INTRA.REPUL.0>
0

>  <SCORE.INTRA.SOLV>
-1.22575

>  <SCORE.INTRA.SOLV.lig_0>
-109.973

>  <SCORE.INTRA.VDW>
0.449784

>  <SCORE.INTRA.VDW.0>
-1.68646

>  <SCORE.INTRA.norm>
-0.0637376

>  <SCORE.RESTR>
0

>  <SCORE.RESTR.CAVITY>
0

>  <SCORE.RESTR.norm>
0

>  <SCORE.SYSTEM>
0

>  <SCORE.SYSTEM.CONST>
0

>  <SCORE.SYSTEM.DIHEDRAL>
0

>  <SCORE.SYSTEM.SOLV>
0

>  <SCORE.SYSTEM.norm>
0

>  <SCORE.heavy>
41

>  <SCORE.norm>
-0.309023

>  <RMSD>
2.290

$$$$
ligand
 OpenBabel11021811423D
libRbt.so/2013.1/901 2013/11/27
 41 45  0  0  0  0  0  0  0  0999 V2000
   34.2142   39.2321    4.8397 C   0  0  2  0  0  0  0  0  0  0  0  0
   33.9321   39.2922    6.2515 O   0  0  0  0  0  0  0  0  0  0  0  0
   33.8815   36.4256    9.5223 C   0  0  2  0  0  0  0  0  0  0  0  0
   33.5998   35.1814   10.2837 N   0  0  0  0  0  0  0  0  0  0  0  0
   37.5423   37.6109    6.6817 C   0  0  1  0  0  0  0  0  0  0  0  0
   41.5297   39.5163    5.5004 C   0  0  1  0  0  0  0  0  0  0  0  0
   35.0337   40.4742    4.3778 C   0  0  2  0  0  0  0  0  0  0  0  0
   36.2579   40.6741    5.1590 N   0  0  0  0  0  0  0  0  0  0  0  0
   32.5359   37.0034    8.9805 C   0  0  0  0  0  0  0  0  0  0  0  0
   38.4488   37.1447    5.5195 C   0  0  2  0  0  0  0  0  0  0  0  0
   39.2718   36.0362    5.8972 O   0  0  0  0  0  0  0  0  0  0  0  0
   41.8473   39.6528    3.9504 C   0  0  2  0  0  0  0  0  0  0  0  0
   42.3573   38.3974    3.3191 N   0  0  0  0  0  0  0  0  0  0  0  0
   34.1524   41.7510    4.4368 C   0  0  1  0  0  0  0  0  0  0  0  0
   34.8974   42.8799    3.9879 O   0  0  0  0  0  0  0  0  0  0  0  0
   32.7698   38.3083    8.1651 C   0  0  2  0  0  0  0  0  0  0  0  0
   31.4561   38.7919    7.7003 N   0  0  0  0  0  0  0  0  0  0  0  0
   39.2635   38.3929    5.1399 C   0  0  2  0  0  0  0  0  0  0  0  0
   40.6033   38.4044    5.7757 O   0  0  0  0  0  0  0  0  0  0  0  0
   42.8902   40.8370    3.7142 C   0  0  1  0  0  0  0  0  0  0  0  0
   42.3037   42.1203    4.0241 O   0  0  0  0  0  0  0  0  0  0  0  0
   32.8878   41.5526    3.5694 C   0  0  2  0  0  0  0  0  0  0  0  0
   32.0896   42.7170    3.6044 O   0  0  0  0  0  0  0  0  0  0  0  0
   33.7638   38.0324    6.9818 C   0  0  2  0  0  0  0  0  0  0  0  0
   38.4025   39.5556    5.6257 C   0  0  2  0  0  0  0  0  0  0  0  0
   37.5913   39.0386    6.6710 O   0  0  0  0  0  0  0  0  0  0  0  0
   44.2023   40.6575    4.5788 C   0  0  2  0  0  0  0  0  0  0  0  0
   44.9289   39.5118    4.1035 O   0  0  0  0  0  0  0  0  0  0  0  0
   32.0881   40.3323    4.0675 C   0  0  2  0  0  0  0  0  0  0  0  0
   32.9753   39.1485    4.0313 O   0  0  0  0  0  0  0  0  0  0  0  0
   35.1569   37.4762    7.5669 C   0  0  2  0  0  0  0  0  0  0  0  0
   36.1445   37.1578    6.5004 O   0  0  0  0  0  0  0  0  0  0  0  0
   37.4792   40.1231    4.5576 C   0  0  0  0  0  0  0  0  0  0  0  0
   43.8193   40.4838    6.1044 C   0  0  1  0  0  0  0  0  0  0  0  0
   42.8002   39.3981    6.3042 O   0  0  0  0  0  0  0  0  0  0  0  0
   30.8395   40.1293    3.1778 C   0  0  0  0  0  0  0  0  0  0  0  0
   31.1265   39.8426    1.7602 N   0  0  0  0  0  0  0  0  0  0  0  0
   34.9009   36.1688    8.3466 C   0  0  1  0  0  0  0  0  0  0  0  0
   36.1390   35.6728    8.8660 O   0  0  0  0  0  0  0  0  0  0  0  0
   45.0676   40.2467    7.0387 C   0  0  0  0  0  0  0  0  0  0  0  0
   44.7822   40.0983    8.5015 N   0  0  0  0  0  0  0  0  0  0  0  0
  1  2  1  1  0  0  0
  1  7  1  0  0  0  0
  1 30  1  0  0  0  0
  3  4  1  6  0  0  0
  3  9  1  0  0  0  0
  3 38  1  0  0  0  0
  5 10  1  0  0  0  0
  5 26  1  6  0  0  0
  5 32  1  0  0  0  0
  6 12  1  0  0  0  0
  6 35  1  0  0  0  0
  6 19  1  6  0  0  0
  7  8  1  1  0  0  0
  7 14  1  0  0  0  0
  8 33  1  0  0  0  0
  9 16  1  0  0  0  0
 10 11  1  1  0  0  0
 10 18  1  0  0  0  0
 12 13  1  1  0  0  0
 12 20  1  0  0  0  0
 14 15  1  6  0  0  0
 14 22  1  0  0  0  0
 16 17  1  6  0  0  0
 16 24  1  0  0  0  0
 18 19  1  1  0  0  0
 18 25  1  0  0  0  0
 20 21  1  1  0  0  0
 20 27  1  0  0  0  0
 22 23  1  1  0  0  0
 22 29  1  0  0  0  0
 24  2  1  1  0  0  0
 24 31  1  0  0  0  0
 25 26  1  1  0  0  0
 25 33  1  0  0  0  0
 27 28  1  6  0  0  0
 27 34  1  0  0  0  0
 29 30  1  0  0  0  0
 29 36  1  6  0  0  0
 31 32  1  6  0  0  0
 31 38  1  0  0  0  0
 34 35  1  0  0  0  0
 34 40  1  1  0  0  0
 36 37  1  0  0  0  0
 38 39  1  1  0  0  0
 40 41  1  0  0  0  0
M  END
>  <CHROM.1>
178.82472210,-58.51742477,62.09514260,178.92990563,37.24364893,39.16362005
5.72705947,3.06350433,0.02126573,2.32774269

>  <Name>
ligand

>  <RI>
0

>  <Rbt.Current_Directory>
/home/itssahil/PROJECTS/Mol_Feturizer/New_Systems/rnas/1ZZ5

>  <Rbt.Executable>
rbdock ($Id: //depot/dev/client3/rdock/2013.1/src/exe/rbdock.cxx#4 $)

>  <Rbt.Library>
libRbt.so (2013.1, Build901 2013/11/27)

>  <Rbt.Parameter_File>
/export/apps/rDock/src/rDock_2013.1_src/data/scripts/dock_solv.prm

>  <Rbt.Receptor>
prm/pocket_docking_6.prm

>  <SCORE>
-11.6537

>  <SCORE.INTER>
-9.63817

>  <SCORE.INTER.CONST>
1

>  <SCORE.INTER.POLAR>
0

>  <SCORE.INTER.ROT>
4

>  <SCORE.INTER.SOLV>
20.5379

>  <SCORE.INTER.VDW>
-19.5381

>  <SCORE.INTER.norm>
-0.235077

>  <SCORE.INTRA>
-2.01557

>  <SCORE.INTRA.DIHEDRAL>
-4.90909

>  <SCORE.INTRA.DIHEDRAL.0>
5.18357

>  <SCORE.INTRA.POLAR>
0

>  <SCORE.INTRA.POLAR.0>
0

>  <SCORE.INTRA.REPUL>
0

>  <SCORE.INTRA.REPUL.0>
0

>  <SCORE.INTRA.SOLV>
0.109204

>  <SCORE.INTRA.SOLV.lig_0>
-109.973

>  <SCORE.INTRA.VDW>
0.384374

>  <SCORE.INTRA.VDW.0>
-1.68646

>  <SCORE.INTRA.norm>
-0.0491602

>  <SCORE.RESTR>
0

>  <SCORE.RESTR.CAVITY>
0

>  <SCORE.RESTR.norm>
0

>  <SCORE.SYSTEM>
0

>  <SCORE.SYSTEM.CONST>
0

>  <SCORE.SYSTEM.DIHEDRAL>
0

>  <SCORE.SYSTEM.SOLV>
0

>  <SCORE.SYSTEM.norm>
0

>  <SCORE.heavy>
41

>  <SCORE.norm>
-0.284238

>  <RMSD>
2.306

$$$$
ligand
 OpenBabel11021811423D
libRbt.so/2013.1/901 2013/11/27
 41 45  0  0  0  0  0  0  0  0999 V2000
   34.2644   39.1758    4.7972 C   0  0  2  0  0  0  0  0  0  0  0  0
   33.9447   39.2536    6.2002 O   0  0  0  0  0  0  0  0  0  0  0  0
   33.8793   36.4440    9.5198 C   0  0  2  0  0  0  0  0  0  0  0  0
   33.6083   35.2067   10.2962 N   0  0  0  0  0  0  0  0  0  0  0  0
   37.5823   37.6695    6.7520 C   0  0  1  0  0  0  0  0  0  0  0  0
   41.5615   39.6389    5.6189 C   0  0  1  0  0  0  0  0  0  0  0  0
   35.0652   40.4295    4.3338 C   0  0  2  0  0  0  0  0  0  0  0  0
   36.2637   40.6731    5.1421 N   0  0  0  0  0  0  0  0  0  0  0  0
   32.5345   36.9789    8.9338 C   0  0  0  0  0  0  0  0  0  0  0  0
   38.5294   37.2056    5.6217 C   0  0  2  0  0  0  0  0  0  0  0  0
   39.3690   36.1246    6.0401 O   0  0  0  0  0  0  0  0  0  0  0  0
   41.8745   39.7597    4.0666 C   0  0  2  0  0  0  0  0  0  0  0  0
   42.3940   38.5013    3.4491 N   0  0  0  0  0  0  0  0  0  0  0  0
   34.1520   41.6849    4.3475 C   0  0  1  0  0  0  0  0  0  0  0  0
   34.8808   42.8239    3.8973 O   0  0  0  0  0  0  0  0  0  0  0  0
   32.7577   38.2747    8.1012 C   0  0  2  0  0  0  0  0  0  0  0  0
   31.4450   38.7176    7.5946 N   0  0  0  0  0  0  0  0  0  0  0  0
   39.3232   38.4668    5.2403 C   0  0  2  0  0  0  0  0  0  0  0  0
   40.6455   38.5225    5.9095 O   0  0  0  0  0  0  0  0  0  0  0  0
   42.9065   40.9500    3.8138 C   0  0  1  0  0  0  0  0  0  0  0  0
   42.3096   42.2317    4.1098 O   0  0  0  0  0  0  0  0  0  0  0  0
   32.9154   41.4403    3.4521 C   0  0  2  0  0  0  0  0  0  0  0  0
   32.0886   42.5851    3.4458 O   0  0  0  0  0  0  0  0  0  0  0  0
   33.7882   38.0029    6.9486 C   0  0  2  0  0  0  0  0  0  0  0  0
   38.4221   39.6161    5.6830 C   0  0  2  0  0  0  0  0  0  0  0  0
   37.5969   39.0976    6.7166 O   0  0  0  0  0  0  0  0  0  0  0  0
   44.2221   40.7922    4.6775 C   0  0  2  0  0  0  0  0  0  0  0  0
   44.9575   39.6472    4.2141 O   0  0  0  0  0  0  0  0  0  0  0  0
   32.1329   40.2095    3.9517 C   0  0  2  0  0  0  0  0  0  0  0  0
   33.0491   39.0476    3.9594 O   0  0  0  0  0  0  0  0  0  0  0  0
   35.1789   37.4915    7.5787 C   0  0  2  0  0  0  0  0  0  0  0  0
   36.2009   37.1790    6.5435 O   0  0  0  0  0  0  0  0  0  0  0  0
   37.5131   40.1420    4.5818 C   0  0  0  0  0  0  0  0  0  0  0  0
   43.8440   40.6334    6.2059 C   0  0  1  0  0  0  0  0  0  0  0  0
   42.8348   39.5414    6.4210 O   0  0  0  0  0  0  0  0  0  0  0  0
   30.9129   39.9603    3.0345 C   0  0  0  0  0  0  0  0  0  0  0  0
   29.8694   41.0006    3.0920 N   0  0  0  0  0  0  0  0  0  0  0  0
   34.9346   36.1920    8.3752 C   0  0  1  0  0  0  0  0  0  0  0  0
   36.1706   35.7359    8.9346 O   0  0  0  0  0  0  0  0  0  0  0  0
   45.0964   40.4182    7.1400 C   0  0  0  0  0  0  0  0  0  0  0  0
   45.9215   39.1973    6.8719 N   0  0  0  0  0  0  0  0  0  0  0  0
  1  2  1  1  0  0  0
  1  7  1  0  0  0  0
  1 30  1  0  0  0  0
  3  4  1  6  0  0  0
  3  9  1  0  0  0  0
  3 38  1  0  0  0  0
  5 10  1  0  0  0  0
  5 26  1  6  0  0  0
  5 32  1  0  0  0  0
  6 12  1  0  0  0  0
  6 35  1  0  0  0  0
  6 19  1  6  0  0  0
  7  8  1  1  0  0  0
  7 14  1  0  0  0  0
  8 33  1  0  0  0  0
  9 16  1  0  0  0  0
 10 11  1  1  0  0  0
 10 18  1  0  0  0  0
 12 13  1  1  0  0  0
 12 20  1  0  0  0  0
 14 15  1  6  0  0  0
 14 22  1  0  0  0  0
 16 17  1  6  0  0  0
 16 24  1  0  0  0  0
 18 19  1  1  0  0  0
 18 25  1  0  0  0  0
 20 21  1  1  0  0  0
 20 27  1  0  0  0  0
 22 23  1  1  0  0  0
 22 29  1  0  0  0  0
 24  2  1  1  0  0  0
 24 31  1  0  0  0  0
 25 26  1  1  0  0  0
 25 33  1  0  0  0  0
 27 28  1  6  0  0  0
 27 34  1  0  0  0  0
 29 30  1  0  0  0  0
 29 36  1  6  0  0  0
 31 32  1  6  0  0  0
 31 38  1  0  0  0  0
 34 35  1  0  0  0  0
 34 40  1  1  0  0  0
 36 37  1  0  0  0  0
 38 39  1  1  0  0  0
 40 41  1  0  0  0  0
M  END
>  <CHROM.1>
177.70537629,-56.37614423,-67.02010292,-61.09323204,37.26737382,39.19306396
5.73803259,3.06772406,0.01210708,2.36081976

>  <Name>
ligand

>  <RI>
0

>  <Rbt.Current_Directory>
/home/itssahil/PROJECTS/Mol_Feturizer/New_Systems/rnas/1ZZ5

>  <Rbt.Executable>
rbdock ($Id: //depot/dev/client3/rdock/2013.1/src/exe/rbdock.cxx#4 $)

>  <Rbt.Library>
libRbt.so (2013.1, Build901 2013/11/27)

>  <Rbt.Parameter_File>
/export/apps/rDock/src/rDock_2013.1_src/data/scripts/dock_solv.prm

>  <Rbt.Receptor>
prm/pocket_docking_7.prm

>  <SCORE>
-11.5379

>  <SCORE.INTER>
-10.4201

>  <SCORE.INTER.CONST>
1

>  <SCORE.INTER.POLAR>
0

>  <SCORE.INTER.ROT>
4

>  <SCORE.INTER.SOLV>
17.8201

>  <SCORE.INTER.VDW>
-19.1534

>  <SCORE.INTER.norm>
-0.254148

>  <SCORE.INTRA>
-1.11783

>  <SCORE.INTRA.DIHEDRAL>
-4.67683

>  <SCORE.INTRA.DIHEDRAL.0>
5.18357

>  <SCORE.INTRA.POLAR>
0

>  <SCORE.INTRA.POLAR.0>
0

>  <SCORE.INTRA.REPUL>
0

>  <SCORE.INTRA.REPUL.0>
0

>  <SCORE.INTRA.SOLV>
1.61179

>  <SCORE.INTRA.SOLV.lig_0>
-109.973

>  <SCORE.INTRA.VDW>
0.414692

>  <SCORE.INTRA.VDW.0>
-1.68646

>  <SCORE.INTRA.norm>
-0.0272641

>  <SCORE.RESTR>
0

>  <SCORE.RESTR.CAVITY>
0

>  <SCORE.RESTR.norm>
0

>  <SCORE.SYSTEM>
0

>  <SCORE.SYSTEM.CONST>
0

>  <SCORE.SYSTEM.DIHEDRAL>
0

>  <SCORE.SYSTEM.SOLV>
0

>  <SCORE.SYSTEM.norm>
0

>  <SCORE.heavy>
41

>  <SCORE.norm>
-0.281412

>  <RMSD>
2.320

$$$$
ligand
 OpenBabel11021811423D
libRbt.so/2013.1/901 2013/11/27
 41 45  0  0  0  0  0  0  0  0999 V2000
   33.7928   38.8605    5.1810 C   0  0  2  0  0  0  0  0  0  0  0  0
   33.4544   39.1431    6.5529 O   0  0  0  0  0  0  0  0  0  0  0  0
   34.0954   37.1596   10.3703 C   0  0  2  0  0  0  0  0  0  0  0  0
   34.1484   36.0825   11.3922 N   0  0  0  0  0  0  0  0  0  0  0  0
   37.3740   38.6861    7.2406 C   0  0  1  0  0  0  0  0  0  0  0  0
   40.7729   41.2620    5.4808 C   0  0  1  0  0  0  0  0  0  0  0  0
   34.2452   40.1526    4.4370 C   0  0  2  0  0  0  0  0  0  0  0  0
   35.3345   40.8550    5.1221 N   0  0  0  0  0  0  0  0  0  0  0  0
   32.6620   37.2015    9.7525 C   0  0  0  0  0  0  0  0  0  0  0  0
   38.4165   38.2548    6.1837 C   0  0  2  0  0  0  0  0  0  0  0  0
   39.5043   37.5337    6.7714 O   0  0  0  0  0  0  0  0  0  0  0  0
   41.6114   40.8564    4.1945 C   0  0  2  0  0  0  0  0  0  0  0  0
   42.6169   39.7769    4.4369 N   0  0  0  0  0  0  0  0  0  0  0  0
   33.0384   41.1092    4.2402 C   0  0  1  0  0  0  0  0  0  0  0  0
   33.4509   42.2774    3.5357 O   0  0  0  0  0  0  0  0  0  0  0  0
   32.5481   38.3101    8.6661 C   0  0  2  0  0  0  0  0  0  0  0  0
   31.1690   38.2897    8.1431 N   0  0  0  0  0  0  0  0  0  0  0  0
   38.8597   39.5692    5.5188 C   0  0  2  0  0  0  0  0  0  0  0  0
   40.1181   40.0966    6.0999 O   0  0  0  0  0  0  0  0  0  0  0  0
   42.3373   42.1440    3.5938 C   0  0  1  0  0  0  0  0  0  0  0  0
   41.3790   43.0814    3.0556 O   0  0  0  0  0  0  0  0  0  0  0  0
   31.9132   40.3782    3.4719 C   0  0  2  0  0  0  0  0  0  0  0  0
   30.8185   41.2481    3.2739 O   0  0  0  0  0  0  0  0  0  0  0  0
   33.6216   38.0768    7.5447 C   0  0  2  0  0  0  0  0  0  0  0  0
   37.6891   40.5174    5.7626 C   0  0  2  0  0  0  0  0  0  0  0  0
   37.0191   40.0317    6.9173 O   0  0  0  0  0  0  0  0  0  0  0  0
   43.2224   42.8876    4.6733 C   0  0  2  0  0  0  0  0  0  0  0  0
   44.3343   42.0500    5.0317 O   0  0  0  0  0  0  0  0  0  0  0  0
   31.4722   39.1199    4.2459 C   0  0  2  0  0  0  0  0  0  0  0  0
   32.6576   38.2569    4.4445 O   0  0  0  0  0  0  0  0  0  0  0  0
   35.0929   38.0778    8.1987 C   0  0  2  0  0  0  0  0  0  0  0  0
   36.1680   37.8282    7.2007 O   0  0  0  0  0  0  0  0  0  0  0  0
   36.6825   40.5550    4.6221 C   0  0  0  0  0  0  0  0  0  0  0  0
   42.3441   43.2264    5.9453 C   0  0  1  0  0  0  0  0  0  0  0  0
   41.6289   42.0135    6.4692 O   0  0  0  0  0  0  0  0  0  0  0  0
   30.3643   38.3844    3.4564 C   0  0  0  0  0  0  0  0  0  0  0  0
   29.0769   39.0991    3.3797 N   0  0  0  0  0  0  0  0  0  0  0  0
   35.1876   36.9529    9.2515 C   0  0  1  0  0  0  0  0  0  0  0  0
   36.4957   36.9522    9.8325 O   0  0  0  0  0  0  0  0  0  0  0  0
   43.1601   43.9263    7.0993 C   0  0  0  0  0  0  0  0  0  0  0  0
   42.3901   44.2832    8.3334 N   0  0  0  0  0  0  0  0  0  0  0  0
  1  2  1  1  0  0  0
  1  7  1  0  0  0  0
  1 30  1  0  0  0  0
  3  4  1  1  0  0  0
  3  9  1  0  0  0  0
  3 38  1  0  0  0  0
  5 10  1  0  0  0  0
  5 26  1  6  0  0  0
  5 32  1  0  0  0  0
  6 12  1  0  0  0  0
  6 35  1  0  0  0  0
  6 19  1  1  0  0  0
  7  8  1  1  0  0  0
  7 14  1  0  0  0  0
  8 33  1  0  0  0  0
  9 16  1  0  0  0  0
 10 11  1  1  0  0  0
 10 18  1  0  0  0  0
 12 13  1  1  0  0  0
 12 20  1  0  0  0  0
 14 15  1  6  0  0  0
 14 22  1  0  0  0  0
 16 17  1  6  0  0  0
 16 24  1  0  0  0  0
 18 19  1  1  0  0  0
 18 25  1  0  0  0  0
 20 21  1  1  0  0  0
 20 27  1  0  0  0  0
 22 23  1  1  0  0  0
 22 29  1  0  0  0  0
 24  2  1  6  0  0  0
 24 31  1  0  0  0  0
 25 26  1  1  0  0  0
 25 33  1  0  0  0  0
 27 28  1  1  0  0  0
 27 34  1  0  0  0  0
 29 30  1  0  0  0  0
 29 36  1  6  0  0  0
 31 32  1  6  0  0  0
 31 38  1  0  0  0  0
 34 35  1  0  0  0  0
 34 40  1  1  0  0  0
 36 37  1  0  0  0  0
 38 39  1  1  0  0  0
 40 41  1  0  0  0  0
M  END
>  <CHROM.1>
172.91053916,-79.68667540,-68.42866159,179.68464709,36.66331541,39.87797252
6.06550760,2.90318813,0.23488993,2.16474380

>  <Name>
ligand

>  <RI>
0

>  <Rbt.Current_Directory>
/home/itssahil/PROJECTS/Mol_Feturizer/New_Systems/rnas/1ZZ5

>  <Rbt.Executable>
rbdock ($Id: //depot/dev/client3/rdock/2013.1/src/exe/rbdock.cxx#4 $)

>  <Rbt.Library>
libRbt.so (2013.1, Build901 2013/11/27)

>  <Rbt.Parameter_File>
/export/apps/rDock/src/rDock_2013.1_src/data/scripts/dock_solv.prm

>  <Rbt.Receptor>
prm/pocket_docking_4.prm

>  <SCORE>
-13.3111

>  <SCORE.INTER>
-12.1923

>  <SCORE.INTER.CONST>
1

>  <SCORE.INTER.POLAR>
0

>  <SCORE.INTER.ROT>
4

>  <SCORE.INTER.SOLV>
16.2691

>  <SCORE.INTER.VDW>
-19.8179

>  <SCORE.INTER.norm>
-0.297373

>  <SCORE.INTRA>
-1.1188

>  <SCORE.INTRA.DIHEDRAL>
-2.7464

>  <SCORE.INTRA.DIHEDRAL.0>
5.18357

>  <SCORE.INTRA.POLAR>
0

>  <SCORE.INTRA.POLAR.0>
0

>  <SCORE.INTRA.REPUL>
0

>  <SCORE.INTRA.REPUL.0>
0

>  <SCORE.INTRA.SOLV>
-0.310643

>  <SCORE.INTRA.SOLV.lig_0>
-109.973

>  <SCORE.INTRA.VDW>
0.409721

>  <SCORE.INTRA.VDW.0>
-1.68646

>  <SCORE.INTRA.norm>
-0.0272878

>  <SCORE.RESTR>
0

>  <SCORE.RESTR.CAVITY>
0

>  <SCORE.RESTR.norm>
0

>  <SCORE.SYSTEM>
0

>  <SCORE.SYSTEM.CONST>
0

>  <SCORE.SYSTEM.DIHEDRAL>
0

>  <SCORE.SYSTEM.SOLV>
0

>  <SCORE.SYSTEM.norm>
0

>  <SCORE.heavy>
41

>  <SCORE.norm>
-0.324661

>  <RMSD>
2.328

$$$$
ligand
 OpenBabel11021811423D
libRbt.so/2013.1/901 2013/11/27
 41 45  0  0  0  0  0  0  0  0999 V2000
   34.0629   39.1252    4.8272 C   0  0  2  0  0  0  0  0  0  0  0  0
   33.7861   39.2206    6.2382 O   0  0  0  0  0  0  0  0  0  0  0  0
   33.8613   36.4623    9.6002 C   0  0  2  0  0  0  0  0  0  0  0  0
   33.6310   35.2338   10.4033 N   0  0  0  0  0  0  0  0  0  0  0  0
   37.4597   37.6916    6.6993 C   0  0  1  0  0  0  0  0  0  0  0  0
   41.4026   39.6538    5.3592 C   0  0  1  0  0  0  0  0  0  0  0  0
   34.8323   40.3816    4.3200 C   0  0  2  0  0  0  0  0  0  0  0  0
   36.0521   40.6529    5.0865 N   0  0  0  0  0  0  0  0  0  0  0  0
   32.4919   36.9709    9.0487 C   0  0  0  0  0  0  0  0  0  0  0  0
   38.3771   37.2223    5.5470 C   0  0  2  0  0  0  0  0  0  0  0  0
   39.2435   36.1586    5.9550 O   0  0  0  0  0  0  0  0  0  0  0  0
   41.7512   39.6074    3.8105 C   0  0  2  0  0  0  0  0  0  0  0  0
   42.2889   38.2924    3.3452 N   0  0  0  0  0  0  0  0  0  0  0  0
   33.9035   41.6255    4.3434 C   0  0  1  0  0  0  0  0  0  0  0  0
   34.6029   42.7665    3.8535 O   0  0  0  0  0  0  0  0  0  0  0  0
   32.6720   38.2564    8.1900 C   0  0  2  0  0  0  0  0  0  0  0  0
   31.3384   38.6747    7.7183 N   0  0  0  0  0  0  0  0  0  0  0  0
   39.1419   38.4874    5.1218 C   0  0  2  0  0  0  0  0  0  0  0  0
   40.4836   38.5702    5.7483 O   0  0  0  0  0  0  0  0  0  0  0  0
   42.7850   40.7691    3.4537 C   0  0  1  0  0  0  0  0  0  0  0  0
   42.1773   42.0719    3.5952 O   0  0  0  0  0  0  0  0  0  0  0  0
   32.6429   41.3513    3.4911 C   0  0  2  0  0  0  0  0  0  0  0  0
   31.8013   42.4853    3.4935 O   0  0  0  0  0  0  0  0  0  0  0  0
   33.6695   37.9798    7.0099 C   0  0  2  0  0  0  0  0  0  0  0  0
   38.2400   39.6319    5.5753 C   0  0  2  0  0  0  0  0  0  0  0  0
   37.4544   39.1191    6.6420 O   0  0  0  0  0  0  0  0  0  0  0  0
   44.0807   40.7133    4.3591 C   0  0  2  0  0  0  0  0  0  0  0  0
   44.8303   39.5291    4.0395 O   0  0  0  0  0  0  0  0  0  0  0  0
   31.8926   40.1186    4.0335 C   0  0  2  0  0  0  0  0  0  0  0  0
   32.8239   38.9686    4.0299 O   0  0  0  0  0  0  0  0  0  0  0  0
   35.0858   37.4959    7.6036 C   0  0  2  0  0  0  0  0  0  0  0  0
   36.0791   37.1804    6.5417 O   0  0  0  0  0  0  0  0  0  0  0  0
   37.2903   40.1291    4.4954 C   0  0  0  0  0  0  0  0  0  0  0  0
   43.6676   40.7190    5.8867 C   0  0  1  0  0  0  0  0  0  0  0  0
   42.6572   39.6510    6.1959 O   0  0  0  0  0  0  0  0  0  0  0  0
   30.6480   39.8398    3.1590 C   0  0  0  0  0  0  0  0  0  0  0  0
   29.6048   40.8805    3.2129 N   0  0  0  0  0  0  0  0  0  0  0  0
   34.8836   36.2059    8.4269 C   0  0  1  0  0  0  0  0  0  0  0  0
   36.1423   35.7742    8.9541 O   0  0  0  0  0  0  0  0  0  0  0  0
   44.8987   40.6134    6.8669 C   0  0  0  0  0  0  0  0  0  0  0  0
   45.8765   41.7474    6.8277 N   0  0  0  0  0  0  0  0  0  0  0  0
  1  2  1  1  0  0  0
  1  7  1  0  0  0  0
  1 30  1  0  0  0  0
  3  4  1  6  0  0  0
  3  9  1  0  0  0  0
  3 38  1  0  0  0  0
  5 10  1  0  0  0  0
  5 26  1  6  0  0  0
  5 32  1  0  0  0  0
  6 12  1  0  0  0  0
  6 35  1  0  0  0  0
  6 19  1  1  0  0  0
  7  8  1  1  0  0  0
  7 14  1  0  0  0  0
  8 33  1  0  0  0  0
  9 16  1  0  0  0  0
 10 11  1  1  0  0  0
 10 18  1  0  0  0  0
 12 13  1  1  0  0  0
 12 20  1  0  0  0  0
 14 15  1  6  0  0  0
 14 22  1  0  0  0  0
 16 17  1  6  0  0  0
 16 24  1  0  0  0  0
 18 19  1  1  0  0  0
 18 25  1  0  0  0  0
 20 21  1  1  0  0  0
 20 27  1  0  0  0  0
 22 23  1  1  0  0  0
 22 29  1  0  0  0  0
 24  2  1  1  0  0  0
 24 31  1  0  0  0  0
 25 26  1  1  0  0  0
 25 33  1  0  0  0  0
 27 28  1  6  0  0  0
 27 34  1  0  0  0  0
 29 30  1  0  0  0  0
 29 36  1  6  0  0  0
 31 32  1  6  0  0  0
 31 38  1  0  0  0  0
 34 35  1  0  0  0  0
 34 40  1  1  0  0  0
 36 37  1  0  0  0  0
 38 39  1  1  0  0  0
 40 41  1  0  0  0  0
M  END
>  <CHROM.1>
174.49842545,-60.33950687,-65.86398064,63.43862236,37.11266649,39.22605174
5.67613325,3.02178646,0.01409857,2.34682220

>  <Name>
ligand

>  <RI>
0

>  <Rbt.Current_Directory>
/home/itssahil/PROJECTS/Mol_Feturizer/New_Systems/rnas/1ZZ5

>  <Rbt.Executable>
rbdock ($Id: //depot/dev/client3/rdock/2013.1/src/exe/rbdock.cxx#4 $)

>  <Rbt.Library>
libRbt.so (2013.1, Build901 2013/11/27)

>  <Rbt.Parameter_File>
/export/apps/rDock/src/rDock_2013.1_src/data/scripts/dock_solv.prm

>  <Rbt.Receptor>
prm/pocket_docking_5.prm

>  <SCORE>
-11.9541

>  <SCORE.INTER>
-10.3062

>  <SCORE.INTER.CONST>
1

>  <SCORE.INTER.POLAR>
0

>  <SCORE.INTER.ROT>
4

>  <SCORE.INTER.SOLV>
18.0061

>  <SCORE.INTER.VDW>
-19.1395

>  <SCORE.INTER.norm>
-0.25137

>  <SCORE.INTRA>
-1.64788

>  <SCORE.INTRA.DIHEDRAL>
-4.64378

>  <SCORE.INTRA.DIHEDRAL.0>
5.18357

>  <SCORE.INTRA.POLAR>
0

>  <SCORE.INTRA.POLAR.0>
0

>  <SCORE.INTRA.REPUL>
0

>  <SCORE.INTRA.REPUL.0>
0

>  <SCORE.INTRA.SOLV>
0.300531

>  <SCORE.INTRA.SOLV.lig_0>
-109.973

>  <SCORE.INTRA.VDW>
0.523742

>  <SCORE.INTRA.VDW.0>
-1.68646

>  <SCORE.INTRA.norm>
-0.0401922

>  <SCORE.RESTR>
0

>  <SCORE.RESTR.CAVITY>
0

>  <SCORE.RESTR.norm>
0

>  <SCORE.SYSTEM>
0

>  <SCORE.SYSTEM.CONST>
0

>  <SCORE.SYSTEM.DIHEDRAL>
0

>  <SCORE.SYSTEM.SOLV>
0

>  <SCORE.SYSTEM.norm>
0

>  <SCORE.heavy>
41

>  <SCORE.norm>
-0.291562

>  <RMSD>
2.328

$$$$
ligand
 OpenBabel11021811423D
libRbt.so/2013.1/901 2013/11/27
 41 45  0  0  0  0  0  0  0  0999 V2000
   33.7592   38.8347    5.1942 C   0  0  2  0  0  0  0  0  0  0  0  0
   33.4424   39.1006    6.5745 O   0  0  0  0  0  0  0  0  0  0  0  0
   34.1265   37.0617   10.3551 C   0  0  2  0  0  0  0  0  0  0  0  0
   34.1877   35.9706   11.3615 N   0  0  0  0  0  0  0  0  0  0  0  0
   37.3687   38.6113    7.1990 C   0  0  1  0  0  0  0  0  0  0  0  0
   40.7569   41.1914    5.4254 C   0  0  1  0  0  0  0  0  0  0  0  0
   34.2087   40.1340    4.4612 C   0  0  2  0  0  0  0  0  0  0  0  0
   35.3120   40.8206    5.1398 N   0  0  0  0  0  0  0  0  0  0  0  0
   32.6846   37.1205    9.7588 C   0  0  0  0  0  0  0  0  0  0  0  0
   38.3932   38.1883    6.1213 C   0  0  2  0  0  0  0  0  0  0  0  0
   39.4849   37.4529    6.6834 O   0  0  0  0  0  0  0  0  0  0  0  0
   41.5581   40.8025    4.1105 C   0  0  2  0  0  0  0  0  0  0  0  0
   42.5569   39.7075    4.3058 N   0  0  0  0  0  0  0  0  0  0  0  0
   33.0049   41.1003    4.2949 C   0  0  1  0  0  0  0  0  0  0  0  0
   33.4143   42.2754    3.6003 O   0  0  0  0  0  0  0  0  0  0  0  0
   32.5617   38.2443    8.6893 C   0  0  2  0  0  0  0  0  0  0  0  0
   31.1751   38.2391    8.1861 N   0  0  0  0  0  0  0  0  0  0  0  0
   38.8347   39.5089    5.4678 C   0  0  2  0  0  0  0  0  0  0  0  0
   40.1045   40.0210    6.0376 O   0  0  0  0  0  0  0  0  0  0  0  0
   42.2835   42.0939    3.5173 C   0  0  1  0  0  0  0  0  0  0  0  0
   41.3228   43.0525    3.0222 O   0  0  0  0  0  0  0  0  0  0  0  0
   31.8643   40.3864    3.5332 C   0  0  2  0  0  0  0  0  0  0  0  0
   30.7722   41.2653    3.3629 O   0  0  0  0  0  0  0  0  0  0  0  0
   33.6174   38.0199    7.5494 C   0  0  2  0  0  0  0  0  0  0  0  0
   37.6735   40.4606    5.7414 C   0  0  2  0  0  0  0  0  0  0  0  0
   37.0174   39.9632    6.8991 O   0  0  0  0  0  0  0  0  0  0  0  0
   43.2039   42.8059    4.5884 C   0  0  2  0  0  0  0  0  0  0  0  0
   44.3147   41.9491    4.9019 O   0  0  0  0  0  0  0  0  0  0  0  0
   31.4270   39.1203    4.2965 C   0  0  2  0  0  0  0  0  0  0  0  0
   32.6099   38.2477    4.4662 O   0  0  0  0  0  0  0  0  0  0  0  0
   35.0981   38.0034    8.1818 C   0  0  2  0  0  0  0  0  0  0  0  0
   36.1571   37.7611    7.1651 O   0  0  0  0  0  0  0  0  0  0  0  0
   36.6507   40.5195    4.6163 C   0  0  0  0  0  0  0  0  0  0  0  0
   42.3617   43.1287    5.8888 C   0  0  1  0  0  0  0  0  0  0  0  0
   41.6460   41.9133    6.4065 O   0  0  0  0  0  0  0  0  0  0  0  0
   30.3034   38.4020    3.5133 C   0  0  0  0  0  0  0  0  0  0  0  0
   29.0138   39.1164    3.4810 N   0  0  0  0  0  0  0  0  0  0  0  0
   35.2012   36.8638    9.2179 C   0  0  1  0  0  0  0  0  0  0  0  0
   36.5175   36.8476    9.7797 O   0  0  0  0  0  0  0  0  0  0  0  0
   43.2144   43.7962    7.0354 C   0  0  0  0  0  0  0  0  0  0  0  0
   43.8519   45.1113    6.7076 N   0  0  0  0  0  0  0  0  0  0  0  0
  1  2  1  1  0  0  0
  1  7  1  0  0  0  0
  1 30  1  0  0  0  0
  3  4  1  1  0  0  0
  3  9  1  0  0  0  0
  3 38  1  0  0  0  0
  5 10  1  0  0  0  0
  5 26  1  6  0  0  0
  5 32  1  0  0  0  0
  6 12  1  0  0  0  0
  6 35  1  0  0  0  0
  6 19  1  1  0  0  0
  7  8  1  1  0  0  0
  7 14  1  0  0  0  0
  8 33  1  0  0  0  0
  9 16  1  0  0  0  0
 10 11  1  1  0  0  0
 10 18  1  0  0  0  0
 12 13  1  1  0  0  0
 12 20  1  0  0  0  0
 14 15  1  6  0  0  0
 14 22  1  0  0  0  0
 16 17  1  6  0  0  0
 16 24  1  0  0  0  0
 18 19  1  1  0  0  0
 18 25  1  0  0  0  0
 20 21  1  1  0  0  0
 20 27  1  0  0  0  0
 22 23  1  1  0  0  0
 22 29  1  0  0  0  0
 24  2  1  6  0  0  0
 24 31  1  0  0  0  0
 25 26  1  1  0  0  0
 25 33  1  0  0  0  0
 27 28  1  1  0  0  0
 27 34  1  0  0  0  0
 29 30  1  0  0  0  0
 29 36  1  6  0  0  0
 31 32  1  6  0  0  0
 31 38  1  0  0  0  0
 34 35  1  0  0  0  0
 34 40  1  1  0  0  0
 36 37  1  0  0  0  0
 38 39  1  1  0  0  0
 40 41  1  0  0  0  0
M  END
>  <CHROM.1>
172.95063242,-78.92834461,-69.24426850,60.73076110,36.68217241,39.84472498
6.00990761,2.87072155,0.21771246,2.20481332

>  <Name>
ligand

>  <RI>
0

>  <Rbt.Current_Directory>
/home/itssahil/PROJECTS/Mol_Feturizer/New_Systems/rnas/1ZZ5

>  <Rbt.Executable>
rbdock ($Id: //depot/dev/client3/rdock/2013.1/src/exe/rbdock.cxx#4 $)

>  <Rbt.Library>
libRbt.so (2013.1, Build901 2013/11/27)

>  <Rbt.Parameter_File>
/export/apps/rDock/src/rDock_2013.1_src/data/scripts/dock_solv.prm

>  <Rbt.Receptor>
prm/pocket_docking_5.prm

>  <SCORE>
-13.2636

>  <SCORE.INTER>
-12.2964

>  <SCORE.INTER.CONST>
1

>  <SCORE.INTER.POLAR>
0

>  <SCORE.INTER.ROT>
4

>  <SCORE.INTER.SOLV>
16.6582

>  <SCORE.INTER.VDW>
-20.017

>  <SCORE.INTER.norm>
-0.299911

>  <SCORE.INTRA>
-0.967258

>  <SCORE.INTRA.DIHEDRAL>
-2.81751

>  <SCORE.INTRA.DIHEDRAL.0>
5.18357

>  <SCORE.INTRA.POLAR>
0

>  <SCORE.INTRA.POLAR.0>
0

>  <SCORE.INTRA.REPUL>
0

>  <SCORE.INTRA.REPUL.0>
0

>  <SCORE.INTRA.SOLV>
0.0879151

>  <SCORE.INTRA.SOLV.lig_0>
-109.973

>  <SCORE.INTRA.VDW>
0.39754

>  <SCORE.INTRA.VDW.0>
-1.68646

>  <SCORE.INTRA.norm>
-0.0235917

>  <SCORE.RESTR>
0

>  <SCORE.RESTR.CAVITY>
0

>  <SCORE.RESTR.norm>
0

>  <SCORE.SYSTEM>
0

>  <SCORE.SYSTEM.CONST>
0

>  <SCORE.SYSTEM.DIHEDRAL>
0

>  <SCORE.SYSTEM.SOLV>
0

>  <SCORE.SYSTEM.norm>
0

>  <SCORE.heavy>
41

>  <SCORE.norm>
-0.323503

>  <RMSD>
2.343

$$$$
ligand
 OpenBabel11021811423D
libRbt.so/2013.1/901 2013/11/27
 41 45  0  0  0  0  0  0  0  0999 V2000
   33.7501   38.8410    5.1867 C   0  0  2  0  0  0  0  0  0  0  0  0
   33.4293   39.1117    6.5652 O   0  0  0  0  0  0  0  0  0  0  0  0
   34.1017   37.0854   10.3547 C   0  0  2  0  0  0  0  0  0  0  0  0
   34.1596   35.9976   11.3649 N   0  0  0  0  0  0  0  0  0  0  0  0
   37.3537   38.6232    7.2028 C   0  0  1  0  0  0  0  0  0  0  0  0
   40.7449   41.1996    5.4339 C   0  0  1  0  0  0  0  0  0  0  0  0
   34.2021   40.1378    4.4507 C   0  0  2  0  0  0  0  0  0  0  0  0
   35.3037   40.8263    5.1301 N   0  0  0  0  0  0  0  0  0  0  0  0
   32.6615   37.1426    9.7540 C   0  0  0  0  0  0  0  0  0  0  0  0
   38.3811   38.1962    6.1296 C   0  0  2  0  0  0  0  0  0  0  0  0
   39.4709   37.4623    6.6973 O   0  0  0  0  0  0  0  0  0  0  0  0
   41.5579   40.8106    4.1262 C   0  0  2  0  0  0  0  0  0  0  0  0
   42.5602   39.7208    4.3325 N   0  0  0  0  0  0  0  0  0  0  0  0
   32.9992   41.1039    4.2776 C   0  0  1  0  0  0  0  0  0  0  0  0
   33.4110   42.2765    3.5802 O   0  0  0  0  0  0  0  0  0  0  0  0
   32.5422   38.2628    8.6803 C   0  0  2  0  0  0  0  0  0  0  0  0
   31.1570   38.2564    8.1731 N   0  0  0  0  0  0  0  0  0  0  0  0
   38.8250   39.5145    5.4729 C   0  0  2  0  0  0  0  0  0  0  0  0
   40.0933   40.0281    6.0447 O   0  0  0  0  0  0  0  0  0  0  0  0
   42.2817   42.1036    3.5347 C   0  0  1  0  0  0  0  0  0  0  0  0
   41.3204   43.0562    3.0295 O   0  0  0  0  0  0  0  0  0  0  0  0
   31.8605   40.3878    3.5150 C   0  0  2  0  0  0  0  0  0  0  0  0
   30.7692   41.2664    3.3385 O   0  0  0  0  0  0  0  0  0  0  0  0
   33.6012   38.0342    7.5442 C   0  0  2  0  0  0  0  0  0  0  0  0
   37.6633   40.4675    5.7399 C   0  0  2  0  0  0  0  0  0  0  0  0
   37.0036   39.9742    6.8973 O   0  0  0  0  0  0  0  0  0  0  0  0
   43.1906   42.8231    4.6107 C   0  0  2  0  0  0  0  0  0  0  0  0
   44.3030   41.9724    4.9351 O   0  0  0  0  0  0  0  0  0  0  0  0
   31.4205   39.1244    4.2813 C   0  0  2  0  0  0  0  0  0  0  0  0
   32.6027   38.2520    4.4574 O   0  0  0  0  0  0  0  0  0  0  0  0
   35.0799   38.0194    8.1810 C   0  0  2  0  0  0  0  0  0  0  0  0
   36.1418   37.7733    7.1682 O   0  0  0  0  0  0  0  0  0  0  0  0
   36.6439   40.5230    4.6116 C   0  0  0  0  0  0  0  0  0  0  0  0
   42.3371   43.1458    5.9036 C   0  0  1  0  0  0  0  0  0  0  0  0
   41.6231   41.9287    6.4195 O   0  0  0  0  0  0  0  0  0  0  0  0
   30.2990   38.4039    3.4973 C   0  0  0  0  0  0  0  0  0  0  0  0
   29.0052   39.1108    3.4725 N   0  0  0  0  0  0  0  0  0  0  0  0
   35.1796   36.8833    9.2212 C   0  0  1  0  0  0  0  0  0  0  0  0
   36.4943   36.8685    9.7870 O   0  0  0  0  0  0  0  0  0  0  0  0
   43.1780   43.8207    7.0546 C   0  0  0  0  0  0  0  0  0  0  0  0
   43.7716   45.1603    6.7440 N   0  0  0  0  0  0  0  0  0  0  0  0
  1  2  1  1  0  0  0
  1  7  1  0  0  0  0
  1 30  1  0  0  0  0
  3  4  1  1  0  0  0
  3  9  1  0  0  0  0
  3 38  1  0  0  0  0
  5 10  1  0  0  0  0
  5 26  1  6  0  0  0
  5 32  1  0  0  0  0
  6 12  1  0  0  0  0
  6 35  1  0  0  0  0
  6 19  1  1  0  0  0
  7  8  1  1  0  0  0
  7 14  1  0  0  0  0
  8 33  1  0  0  0  0
  9 16  1  0  0  0  0
 10 11  1  1  0  0  0
 10 18  1  0  0  0  0
 12 13  1  1  0  0  0
 12 20  1  0  0  0  0
 14 15  1  6  0  0  0
 14 22  1  0  0  0  0
 16 17  1  6  0  0  0
 16 24  1  0  0  0  0
 18 19  1  1  0  0  0
 18 25  1  0  0  0  0
 20 21  1  1  0  0  0
 20 27  1  0  0  0  0
 22 23  1  1  0  0  0
 22 29  1  0  0  0  0
 24  2  1  6  0  0  0
 24 31  1  0  0  0  0
 25 26  1  1  0  0  0
 25 33  1  0  0  0  0
 27 28  1  1  0  0  0
 27 34  1  0  0  0  0
 29 30  1  0  0  0  0
 29 36  1  6  0  0  0
 31 32  1  6  0  0  0
 31 38  1  0  0  0  0
 34 35  1  0  0  0  0
 34 40  1  1  0  0  0
 36 37  1  0  0  0  0
 38 39  1  1  0  0  0
 40 41  1  0  0  0  0
M  END
>  <CHROM.1>
173.20854800,-79.37828951,-69.94601106,62.81765286,36.66799249,39.85646375
6.01148284,2.87297633,0.22063568,2.20216973

>  <Name>
ligand

>  <RI>
0

>  <Rbt.Current_Directory>
/home/itssahil/PROJECTS/Mol_Feturizer/New_Systems/rnas/1ZZ5

>  <Rbt.Executable>
rbdock ($Id: //depot/dev/client3/rdock/2013.1/src/exe/rbdock.cxx#4 $)

>  <Rbt.Library>
libRbt.so (2013.1, Build901 2013/11/27)

>  <Rbt.Parameter_File>
/export/apps/rDock/src/rDock_2013.1_src/data/scripts/dock_solv.prm

>  <Rbt.Receptor>
prm/pocket_docking_4.prm

>  <SCORE>
-13.2668

>  <SCORE.INTER>
-12.3224

>  <SCORE.INTER.CONST>
1

>  <SCORE.INTER.POLAR>
0

>  <SCORE.INTER.ROT>
4

>  <SCORE.INTER.SOLV>
16.7266

>  <SCORE.INTER.VDW>
-20.0572

>  <SCORE.INTER.norm>
-0.300547

>  <SCORE.INTRA>
-0.944405

>  <SCORE.INTRA.DIHEDRAL>
-2.69658

>  <SCORE.INTRA.DIHEDRAL.0>
5.18357

>  <SCORE.INTRA.POLAR>
0

>  <SCORE.INTRA.POLAR.0>
0

>  <SCORE.INTRA.REPUL>
0

>  <SCORE.INTRA.REPUL.0>
0

>  <SCORE.INTRA.SOLV>
0.0270399

>  <SCORE.INTRA.SOLV.lig_0>
-109.973

>  <SCORE.INTRA.VDW>
0.390368

>  <SCORE.INTRA.VDW.0>
-1.68646

>  <SCORE.INTRA.norm>
-0.0230343

>  <SCORE.RESTR>
0

>  <SCORE.RESTR.CAVITY>
0

>  <SCORE.RESTR.norm>
0

>  <SCORE.SYSTEM>
0

>  <SCORE.SYSTEM.CONST>
0

>  <SCORE.SYSTEM.DIHEDRAL>
0

>  <SCORE.SYSTEM.SOLV>
0

>  <SCORE.SYSTEM.norm>
0

>  <SCORE.heavy>
41

>  <SCORE.norm>
-0.323581

>  <RMSD>
2.344

$$$$
ligand
 OpenBabel11021811423D
libRbt.so/2013.1/901 2013/11/27
 41 45  0  0  0  0  0  0  0  0999 V2000
   33.7698   38.8511    5.1664 C   0  0  2  0  0  0  0  0  0  0  0  0
   33.4241   39.1364    6.5359 O   0  0  0  0  0  0  0  0  0  0  0  0
   34.0509   37.1638   10.3613 C   0  0  2  0  0  0  0  0  0  0  0  0
   34.1013   36.0894   11.3861 N   0  0  0  0  0  0  0  0  0  0  0  0
   37.3413   38.6899    7.2438 C   0  0  1  0  0  0  0  0  0  0  0  0
   40.7566   41.2532    5.4794 C   0  0  1  0  0  0  0  0  0  0  0  0
   34.2230   40.1424    4.4214 C   0  0  2  0  0  0  0  0  0  0  0  0
   35.3073   40.8489    5.1100 N   0  0  0  0  0  0  0  0  0  0  0  0
   32.6204   37.2010    9.7364 C   0  0  0  0  0  0  0  0  0  0  0  0
   38.3899   38.2583    6.1931 C   0  0  2  0  0  0  0  0  0  0  0  0
   39.4764   37.5410    6.7879 O   0  0  0  0  0  0  0  0  0  0  0  0
   41.5325   40.8333    4.1590 C   0  0  2  0  0  0  0  0  0  0  0  0
   42.5107   39.7197    4.3540 N   0  0  0  0  0  0  0  0  0  0  0  0
   33.0150   41.0958    4.2164 C   0  0  1  0  0  0  0  0  0  0  0  0
   33.4283   42.2631    3.5109 O   0  0  0  0  0  0  0  0  0  0  0  0
   32.5093   38.3066    8.6467 C   0  0  2  0  0  0  0  0  0  0  0  0
   31.1329   38.2818    8.1171 N   0  0  0  0  0  0  0  0  0  0  0  0
   38.8334   39.5719    5.5270 C   0  0  2  0  0  0  0  0  0  0  0  0
   40.0878   40.1036    6.1130 O   0  0  0  0  0  0  0  0  0  0  0  0
   42.2770   42.1025    3.5422 C   0  0  1  0  0  0  0  0  0  0  0  0
   41.3302   43.0756    3.0486 O   0  0  0  0  0  0  0  0  0  0  0  0
   31.8951   40.3604    3.4444 C   0  0  2  0  0  0  0  0  0  0  0  0
   30.7995   41.2273    3.2389 O   0  0  0  0  0  0  0  0  0  0  0  0
   33.5888   38.0729    7.5312 C   0  0  2  0  0  0  0  0  0  0  0  0
   37.6595   40.5182    5.7628 C   0  0  2  0  0  0  0  0  0  0  0  0
   36.9850   40.0338    6.9155 O   0  0  0  0  0  0  0  0  0  0  0  0
   43.2257   42.8068    4.5936 C   0  0  2  0  0  0  0  0  0  0  0  0
   44.3224   41.9303    4.9026 O   0  0  0  0  0  0  0  0  0  0  0  0
   31.4532   39.1030    4.2193 C   0  0  2  0  0  0  0  0  0  0  0  0
   32.6396   38.2431    4.4259 O   0  0  0  0  0  0  0  0  0  0  0  0
   35.0569   38.0788    8.1923 C   0  0  2  0  0  0  0  0  0  0  0  0
   36.1374   37.8292    7.2002 O   0  0  0  0  0  0  0  0  0  0  0  0
   36.6584   40.5507    4.6173 C   0  0  0  0  0  0  0  0  0  0  0  0
   42.4072   43.1614    5.9008 C   0  0  1  0  0  0  0  0  0  0  0  0
   41.6730   41.9671    6.4410 O   0  0  0  0  0  0  0  0  0  0  0  0
   30.3508   38.3630    3.4263 C   0  0  0  0  0  0  0  0  0  0  0  0
   29.0605   39.0721    3.3464 N   0  0  0  0  0  0  0  0  0  0  0  0
   35.1490   36.9568    9.2484 C   0  0  1  0  0  0  0  0  0  0  0  0
   36.4543   36.9604    9.8357 O   0  0  0  0  0  0  0  0  0  0  0  0
   43.2883   43.8234    7.0290 C   0  0  0  0  0  0  0  0  0  0  0  0
   43.9385   45.1275    6.6828 N   0  0  0  0  0  0  0  0  0  0  0  0
  1  2  1  1  0  0  0
  1  7  1  0  0  0  0
  1 30  1  0  0  0  0
  3  4  1  1  0  0  0
  3  9  1  0  0  0  0
  3 38  1  0  0  0  0
  5 10  1  0  0  0  0
  5 26  1  6  0  0  0
  5 32  1  0  0  0  0
  6 12  1  0  0  0  0
  6 35  1  0  0  0  0
  6 19  1  1  0  0  0
  7  8  1  1  0  0  0
  7 14  1  0  0  0  0
  8 33  1  0  0  0  0
  9 16  1  0  0  0  0
 10 11  1  1  0  0  0
 10 18  1  0  0  0  0
 12 13  1  1  0  0  0
 12 20  1  0  0  0  0
 14 15  1  6  0  0  0
 14 22  1  0  0  0  0
 16 17  1  6  0  0  0
 16 24  1  0  0  0  0
 18 19  1  1  0  0  0
 18 25  1  0  0  0  0
 20 21  1  1  0  0  0
 20 27  1  0  0  0  0
 22 23  1  1  0  0  0
 22 29  1  0  0  0  0
 24  2  1  6  0  0  0
 24 31  1  0  0  0  0
 25 26  1  1  0  0  0
 25 33  1  0  0  0  0
 27 28  1  1  0  0  0
 27 34  1  0  0  0  0
 29 30  1  0  0  0  0
 29 36  1  6  0  0  0
 31 32  1  6  0  0  0
 31 38  1  0  0  0  0
 34 35  1  0  0  0  0
 34 40  1  1  0  0  0
 36 37  1  0  0  0  0
 38 39  1  1  0  0  0
 40 41  1  0  0  0  0
M  END
>  <CHROM.1>
171.77390745,-76.06785295,-68.67047257,61.28003403,36.67757325,39.88130406
6.00458716,2.88221815,0.22875546,2.18093485

>  <Name>
ligand

>  <RI>
0

>  <Rbt.Current_Directory>
/home/itssahil/PROJECTS/Mol_Feturizer/New_Systems/rnas/1ZZ5

>  <Rbt.Executable>
rbdock ($Id: //depot/dev/client3/rdock/2013.1/src/exe/rbdock.cxx#4 $)

>  <Rbt.Library>
libRbt.so (2013.1, Build901 2013/11/27)

>  <Rbt.Parameter_File>
/export/apps/rDock/src/rDock_2013.1_src/data/scripts/dock_solv.prm

>  <Rbt.Receptor>
prm/pocket_docking_4.prm

>  <SCORE>
-13.2361

>  <SCORE.INTER>
-12.121

>  <SCORE.INTER.CONST>
1

>  <SCORE.INTER.POLAR>
0

>  <SCORE.INTER.ROT>
4

>  <SCORE.INTER.SOLV>
16.7271

>  <SCORE.INTER.VDW>
-19.9231

>  <SCORE.INTER.norm>
-0.295635

>  <SCORE.INTRA>
-1.11503

>  <SCORE.INTRA.DIHEDRAL>
-3.18222

>  <SCORE.INTRA.DIHEDRAL.0>
5.18357

>  <SCORE.INTRA.POLAR>
0

>  <SCORE.INTRA.POLAR.0>
0

>  <SCORE.INTRA.REPUL>
0

>  <SCORE.INTRA.REPUL.0>
0

>  <SCORE.INTRA.SOLV>
0.114336

>  <SCORE.INTRA.SOLV.lig_0>
-109.973

>  <SCORE.INTRA.VDW>
0.418908

>  <SCORE.INTRA.VDW.0>
-1.68646

>  <SCORE.INTRA.norm>
-0.027196

>  <SCORE.RESTR>
0

>  <SCORE.RESTR.CAVITY>
0

>  <SCORE.RESTR.norm>
0

>  <SCORE.SYSTEM>
0

>  <SCORE.SYSTEM.CONST>
0

>  <SCORE.SYSTEM.DIHEDRAL>
0

>  <SCORE.SYSTEM.SOLV>
0

>  <SCORE.SYSTEM.norm>
0

>  <SCORE.heavy>
41

>  <SCORE.norm>
-0.322831

>  <RMSD>
2.348

$$$$
ligand
 OpenBabel11021811423D
libRbt.so/2013.1/901 2013/11/27
 41 45  0  0  0  0  0  0  0  0999 V2000
   33.7718   38.8274    5.1809 C   0  0  2  0  0  0  0  0  0  0  0  0
   33.4566   39.0835    6.5635 O   0  0  0  0  0  0  0  0  0  0  0  0
   34.1503   37.0207   10.3293 C   0  0  2  0  0  0  0  0  0  0  0  0
   34.2151   35.9230   11.3283 N   0  0  0  0  0  0  0  0  0  0  0  0
   37.3848   38.5974    7.1786 C   0  0  1  0  0  0  0  0  0  0  0  0
   40.7609   41.2008    5.4225 C   0  0  1  0  0  0  0  0  0  0  0  0
   34.2177   40.1324    4.4559 C   0  0  2  0  0  0  0  0  0  0  0  0
   35.3207   40.8165    5.1374 N   0  0  0  0  0  0  0  0  0  0  0  0
   32.7073   37.0807    9.7356 C   0  0  0  0  0  0  0  0  0  0  0  0
   38.4083   38.1834    6.0966 C   0  0  2  0  0  0  0  0  0  0  0  0
   39.5023   37.4464    6.6521 O   0  0  0  0  0  0  0  0  0  0  0  0
   41.5786   40.8281    4.1131 C   0  0  2  0  0  0  0  0  0  0  0  0
   42.5878   39.7433    4.3120 N   0  0  0  0  0  0  0  0  0  0  0  0
   33.0119   41.0976    4.2979 C   0  0  1  0  0  0  0  0  0  0  0  0
   33.4180   42.2781    3.6105 O   0  0  0  0  0  0  0  0  0  0  0  0
   32.5807   38.2114    8.6738 C   0  0  2  0  0  0  0  0  0  0  0  0
   31.1934   38.2070    8.1727 N   0  0  0  0  0  0  0  0  0  0  0  0
   38.8464   39.5092    5.4512 C   0  0  2  0  0  0  0  0  0  0  0  0
   40.1161   40.0199    6.0225 O   0  0  0  0  0  0  0  0  0  0  0  0
   42.2947   42.1307    3.5335 C   0  0  1  0  0  0  0  0  0  0  0  0
   41.3278   43.0810    3.0345 O   0  0  0  0  0  0  0  0  0  0  0  0
   31.8714   40.3866    3.5332 C   0  0  2  0  0  0  0  0  0  0  0  0
   30.7774   41.2646    3.3704 O   0  0  0  0  0  0  0  0  0  0  0  0
   33.6351   37.9966    7.5308 C   0  0  2  0  0  0  0  0  0  0  0  0
   37.6838   40.4569    5.7330 C   0  0  2  0  0  0  0  0  0  0  0  0
   37.0304   39.9506    6.8883 O   0  0  0  0  0  0  0  0  0  0  0  0
   43.1970   42.8473    4.6169 C   0  0  2  0  0  0  0  0  0  0  0  0
   44.3146   42.0014    4.9361 O   0  0  0  0  0  0  0  0  0  0  0  0
   31.4376   39.1147    4.2887 C   0  0  2  0  0  0  0  0  0  0  0  0
   32.6224   38.2431    4.4507 O   0  0  0  0  0  0  0  0  0  0  0  0
   35.1168   37.9787    8.1608 C   0  0  2  0  0  0  0  0  0  0  0  0
   36.1746   37.7452    7.1409 O   0  0  0  0  0  0  0  0  0  0  0  0
   36.6593   40.5215    4.6098 C   0  0  0  0  0  0  0  0  0  0  0  0
   42.3393   43.1536    5.9110 C   0  0  1  0  0  0  0  0  0  0  0  0
   41.6326   41.9275    6.4156 O   0  0  0  0  0  0  0  0  0  0  0  0
   30.3141   38.3995    3.5025 C   0  0  0  0  0  0  0  0  0  0  0  0
   29.0269   39.1178    3.4661 N   0  0  0  0  0  0  0  0  0  0  0  0
   35.2236   36.8324    9.1891 C   0  0  1  0  0  0  0  0  0  0  0  0
   36.5408   36.8148    9.7488 O   0  0  0  0  0  0  0  0  0  0  0  0
   43.1737   43.8245    7.0690 C   0  0  0  0  0  0  0  0  0  0  0  0
   44.3290   43.0320    7.5987 N   0  0  0  0  0  0  0  0  0  0  0  0
  1  2  1  1  0  0  0
  1  7  1  0  0  0  0
  1 30  1  0  0  0  0
  3  4  1  1  0  0  0
  3  9  1  0  0  0  0
  3 38  1  0  0  0  0
  5 10  1  0  0  0  0
  5 26  1  6  0  0  0
  5 32  1  0  0  0  0
  6 12  1  0  0  0  0
  6 35  1  0  0  0  0
  6 19  1  1  0  0  0
  7  8  1  1  0  0  0
  7 14  1  0  0  0  0
  8 33  1  0  0  0  0
  9 16  1  0  0  0  0
 10 11  1  1  0  0  0
 10 18  1  0  0  0  0
 12 13  1  1  0  0  0
 12 20  1  0  0  0  0
 14 15  1  6  0  0  0
 14 22  1  0  0  0  0
 16 17  1  6  0  0  0
 16 24  1  0  0  0  0
 18 19  1  1  0  0  0
 18 25  1  0  0  0  0
 20 21  1  1  0  0  0
 20 27  1  0  0  0  0
 22 23  1  1  0  0  0
 22 29  1  0  0  0  0
 24  2  1  6  0  0  0
 24 31  1  0  0  0  0
 25 26  1  1  0  0  0
 25 33  1  0  0  0  0
 27 28  1  1  0  0  0
 27 34  1  0  0  0  0
 29 30  1  0  0  0  0
 29 36  1  6  0  0  0
 31 32  1  6  0  0  0
 31 38  1  0  0  0  0
 34 35  1  0  0  0  0
 34 40  1  1  0  0  0
 36 37  1  0  0  0  0
 38 39  1  1  0  0  0
 40 41  1  0  0  0  0
M  END
>  <CHROM.1>
173.34547509,-79.87520187,-68.69078393,-60.41222344,36.70380820,39.79201071
6.02501798,2.90021984,0.21202577,2.18993007

>  <Name>
ligand

>  <RI>
0

>  <Rbt.Current_Directory>
/home/itssahil/PROJECTS/Mol_Feturizer/New_Systems/rnas/1ZZ5

>  <Rbt.Executable>
rbdock ($Id: //depot/dev/client3/rdock/2013.1/src/exe/rbdock.cxx#4 $)

>  <Rbt.Library>
libRbt.so (2013.1, Build901 2013/11/27)

>  <Rbt.Parameter_File>
/export/apps/rDock/src/rDock_2013.1_src/data/scripts/dock_solv.prm

>  <Rbt.Receptor>
prm/pocket_docking_7.prm

>  <SCORE>
-12.6968

>  <SCORE.INTER>
-12.282

>  <SCORE.INTER.CONST>
1

>  <SCORE.INTER.POLAR>
0

>  <SCORE.INTER.ROT>
4

>  <SCORE.INTER.SOLV>
16.3301

>  <SCORE.INTER.VDW>
-19.898

>  <SCORE.INTER.norm>
-0.29956

>  <SCORE.INTRA>
-0.414791

>  <SCORE.INTRA.DIHEDRAL>
-2.72892

>  <SCORE.INTRA.DIHEDRAL.0>
5.18357

>  <SCORE.INTRA.POLAR>
0

>  <SCORE.INTRA.POLAR.0>
0

>  <SCORE.INTRA.REPUL>
0

>  <SCORE.INTRA.REPUL.0>
0

>  <SCORE.INTRA.SOLV>
1.32936

>  <SCORE.INTRA.SOLV.lig_0>
-109.973

>  <SCORE.INTRA.VDW>
0.284988

>  <SCORE.INTRA.VDW.0>
-1.68646

>  <SCORE.INTRA.norm>
-0.0101168

>  <SCORE.RESTR>
0

>  <SCORE.RESTR.CAVITY>
0

>  <SCORE.RESTR.norm>
0

>  <SCORE.SYSTEM>
0

>  <SCORE.SYSTEM.CONST>
0

>  <SCORE.SYSTEM.DIHEDRAL>
0

>  <SCORE.SYSTEM.SOLV>
0

>  <SCORE.SYSTEM.norm>
0

>  <SCORE.heavy>
41

>  <SCORE.norm>
-0.309677

>  <RMSD>
2.353

$$$$
ligand
 OpenBabel11021811423D
libRbt.so/2013.1/901 2013/11/27
 41 45  0  0  0  0  0  0  0  0999 V2000
   33.7299   38.7148    5.1471 C   0  0  2  0  0  0  0  0  0  0  0  0
   33.4902   38.9657    6.5458 O   0  0  0  0  0  0  0  0  0  0  0  0
   33.9345   36.6813   10.2202 C   0  0  2  0  0  0  0  0  0  0  0  0
   33.8478   35.5506   11.1801 N   0  0  0  0  0  0  0  0  0  0  0  0
   37.3054   37.8471    7.0340 C   0  0  1  0  0  0  0  0  0  0  0  0
   40.9211   40.0773    5.4224 C   0  0  1  0  0  0  0  0  0  0  0  0
   34.3596   39.9598    4.4536 C   0  0  2  0  0  0  0  0  0  0  0  0
   35.5718   40.4367    5.1261 N   0  0  0  0  0  0  0  0  0  0  0  0
   32.5061   36.9888    9.6697 C   0  0  0  0  0  0  0  0  0  0  0  0
   38.2263   37.3182    5.9105 C   0  0  2  0  0  0  0  0  0  0  0  0
   39.2025   36.3986    6.4104 O   0  0  0  0  0  0  0  0  0  0  0  0
   41.2682   40.0450    3.8730 C   0  0  2  0  0  0  0  0  0  0  0  0
   42.0198   38.8270    3.4412 N   0  0  0  0  0  0  0  0  0  0  0  0
   33.3178   41.1073    4.3615 C   0  0  1  0  0  0  0  0  0  0  0  0
   33.8895   42.2342    3.7025 O   0  0  0  0  0  0  0  0  0  0  0  0
   32.5355   38.1640    8.6498 C   0  0  2  0  0  0  0  0  0  0  0  0
   31.1539   38.3958    8.1880 N   0  0  0  0  0  0  0  0  0  0  0  0
   38.8533   38.5819    5.2974 C   0  0  2  0  0  0  0  0  0  0  0  0
   40.2002   38.8656    5.8494 O   0  0  0  0  0  0  0  0  0  0  0  0
   42.0890   41.3540    3.4752 C   0  0  1  0  0  0  0  0  0  0  0  0
   41.2695   42.5387    3.5841 O   0  0  0  0  0  0  0  0  0  0  0  0
   32.0626   40.6129    3.6061 C   0  0  2  0  0  0  0  0  0  0  0  0
   31.1174   41.6569    3.5032 O   0  0  0  0  0  0  0  0  0  0  0  0
   33.5169   37.8291    7.4712 C   0  0  2  0  0  0  0  0  0  0  0  0
   37.8614   39.6891    5.6429 C   0  0  2  0  0  0  0  0  0  0  0  0
   37.1625   39.2489    6.7987 O   0  0  0  0  0  0  0  0  0  0  0  0
   43.3779   41.5453    4.3717 C   0  0  2  0  0  0  0  0  0  0  0  0
   44.3166   40.4963    4.0803 O   0  0  0  0  0  0  0  0  0  0  0  0
   31.4507   39.3975    4.3308 C   0  0  2  0  0  0  0  0  0  0  0  0
   32.4866   38.3456    4.4306 O   0  0  0  0  0  0  0  0  0  0  0  0
   34.9909   37.5557    8.0584 C   0  0  2  0  0  0  0  0  0  0  0  0
   35.9755   37.1972    7.0020 O   0  0  0  0  0  0  0  0  0  0  0  0
   36.8348   39.9551    4.5517 C   0  0  0  0  0  0  0  0  0  0  0  0
   42.9741   41.5259    5.9017 C   0  0  1  0  0  0  0  0  0  0  0  0
   42.1603   40.3117    6.2491 O   0  0  0  0  0  0  0  0  0  0  0  0
   30.2111   38.8971    3.5532 C   0  0  0  0  0  0  0  0  0  0  0  0
   30.4744   38.4865    2.1617 N   0  0  0  0  0  0  0  0  0  0  0  0
   34.9387   36.3694    9.0448 C   0  0  1  0  0  0  0  0  0  0  0  0
   36.2489   36.1247    9.5664 O   0  0  0  0  0  0  0  0  0  0  0  0
   44.2080   41.6594    6.8749 C   0  0  0  0  0  0  0  0  0  0  0  0
   43.8963   41.6946    8.3395 N   0  0  0  0  0  0  0  0  0  0  0  0
  1  2  1  1  0  0  0
  1  7  1  0  0  0  0
  1 30  1  0  0  0  0
  3  4  1  1  0  0  0
  3  9  1  0  0  0  0
  3 38  1  0  0  0  0
  5 10  1  0  0  0  0
  5 26  1  6  0  0  0
  5 32  1  0  0  0  0
  6 12  1  0  0  0  0
  6 35  1  0  0  0  0
  6 19  1  1  0  0  0
  7  8  1  1  0  0  0
  7 14  1  0  0  0  0
  8 33  1  0  0  0  0
  9 16  1  0  0  0  0
 10 11  1  1  0  0  0
 10 18  1  0  0  0  0
 12 13  1  1  0  0  0
 12 20  1  0  0  0  0
 14 15  1  6  0  0  0
 14 22  1  0  0  0  0
 16 17  1  6  0  0  0
 16 24  1  0  0  0  0
 18 19  1  1  0  0  0
 18 25  1  0  0  0  0
 20 21  1  1  0  0  0
 20 27  1  0  0  0  0
 22 23  1  1  0  0  0
 22 29  1  0  0  0  0
 24  2  1  6  0  0  0
 24 31  1  0  0  0  0
 25 26  1  1  0  0  0
 25 33  1  0  0  0  0
 27 28  1  1  0  0  0
 27 34  1  0  0  0  0
 29 30  1  0  0  0  0
 29 36  1  6  0  0  0
 31 32  1  6  0  0  0
 31 38  1  0  0  0  0
 34 35  1  0  0  0  0
 34 40  1  1  0  0  0
 36 37  1  0  0  0  0
 38 39  1  1  0  0  0
 40 41  1  0  0  0  0
M  END
>  <CHROM.1>
-177.01134322,-64.07106699,59.21924228,178.03009149,36.75407477,39.21846925
5.91769825,2.95239648,0.11554900,2.18195635

>  <Name>
ligand

>  <RI>
0

>  <Rbt.Current_Directory>
/home/itssahil/PROJECTS/Mol_Feturizer/New_Systems/rnas/1ZZ5

>  <Rbt.Executable>
rbdock ($Id: //depot/dev/client3/rdock/2013.1/src/exe/rbdock.cxx#4 $)

>  <Rbt.Library>
libRbt.so (2013.1, Build901 2013/11/27)

>  <Rbt.Parameter_File>
/export/apps/rDock/src/rDock_2013.1_src/data/scripts/dock_solv.prm

>  <Rbt.Receptor>
prm/pocket_docking_6.prm

>  <SCORE>
-11.7146

>  <SCORE.INTER>
-9.7532

>  <SCORE.INTER.CONST>
1

>  <SCORE.INTER.POLAR>
0

>  <SCORE.INTER.ROT>
4

>  <SCORE.INTER.SOLV>
19.0446

>  <SCORE.INTER.VDW>
-19.117

>  <SCORE.INTER.norm>
-0.237883

>  <SCORE.INTRA>
-1.96136

>  <SCORE.INTRA.DIHEDRAL>
-4.80574

>  <SCORE.INTRA.DIHEDRAL.0>
5.18357

>  <SCORE.INTRA.POLAR>
0

>  <SCORE.INTRA.POLAR.0>
0

>  <SCORE.INTRA.REPUL>
0

>  <SCORE.INTRA.REPUL.0>
0

>  <SCORE.INTRA.SOLV>
0.0853528

>  <SCORE.INTRA.SOLV.lig_0>
-109.973

>  <SCORE.INTRA.VDW>
0.398833

>  <SCORE.INTRA.VDW.0>
-1.68646

>  <SCORE.INTRA.norm>
-0.0478381

>  <SCORE.RESTR>
0

>  <SCORE.RESTR.CAVITY>
0

>  <SCORE.RESTR.norm>
0

>  <SCORE.SYSTEM>
0

>  <SCORE.SYSTEM.CONST>
0

>  <SCORE.SYSTEM.DIHEDRAL>
0

>  <SCORE.SYSTEM.SOLV>
0

>  <SCORE.SYSTEM.norm>
0

>  <SCORE.heavy>
41

>  <SCORE.norm>
-0.285721

>  <RMSD>
2.360

$$$$
ligand
 OpenBabel11021811423D
libRbt.so/2013.1/901 2013/11/27
 41 45  0  0  0  0  0  0  0  0999 V2000
   34.3939   39.2275    4.7830 C   0  0  2  0  0  0  0  0  0  0  0  0
   34.1137   39.2783    6.1956 O   0  0  0  0  0  0  0  0  0  0  0  0
   33.9846   36.3748    9.4315 C   0  0  2  0  0  0  0  0  0  0  0  0
   33.6690   35.1297   10.1780 N   0  0  0  0  0  0  0  0  0  0  0  0
   37.6764   37.4934    6.6041 C   0  0  1  0  0  0  0  0  0  0  0  0
   41.7537   39.2419    5.3585 C   0  0  1  0  0  0  0  0  0  0  0  0
   35.2472   40.4521    4.3358 C   0  0  2  0  0  0  0  0  0  0  0  0
   36.4765   40.6089    5.1190 N   0  0  0  0  0  0  0  0  0  0  0  0
   32.6554   36.9959    8.8973 C   0  0  0  0  0  0  0  0  0  0  0  0
   38.5696   37.0165    5.4360 C   0  0  2  0  0  0  0  0  0  0  0  0
   39.3619   35.8814    5.7999 O   0  0  0  0  0  0  0  0  0  0  0  0
   42.0584   39.2682    3.8001 C   0  0  2  0  0  0  0  0  0  0  0  0
   42.4735   37.9470    3.2371 N   0  0  0  0  0  0  0  0  0  0  0  0
   34.4013   41.7518    4.4107 C   0  0  1  0  0  0  0  0  0  0  0  0
   35.1770   42.8651    3.9751 O   0  0  0  0  0  0  0  0  0  0  0  0
   32.9250   38.3036    8.0977 C   0  0  2  0  0  0  0  0  0  0  0  0
   31.6250   38.8286    7.6392 N   0  0  0  0  0  0  0  0  0  0  0  0
   39.4183   38.2465    5.0711 C   0  0  2  0  0  0  0  0  0  0  0  0
   40.7580   38.2135    5.7065 O   0  0  0  0  0  0  0  0  0  0  0  0
   43.1758   40.3629    3.4859 C   0  0  1  0  0  0  0  0  0  0  0  0
   42.6820   41.6988    3.7272 O   0  0  0  0  0  0  0  0  0  0  0  0
   33.1317   41.5986    3.5414 C   0  0  2  0  0  0  0  0  0  0  0  0
   32.3658   42.7840    3.5908 O   0  0  0  0  0  0  0  0  0  0  0  0
   33.9109   38.0148    6.9107 C   0  0  2  0  0  0  0  0  0  0  0  0
   38.5896   39.4263    5.5712 C   0  0  2  0  0  0  0  0  0  0  0  0
   37.7646   38.9192    6.6105 O   0  0  0  0  0  0  0  0  0  0  0  0
   44.4846   40.1434    4.3463 C   0  0  2  0  0  0  0  0  0  0  0  0
   45.1252   38.9255    3.9306 O   0  0  0  0  0  0  0  0  0  0  0  0
   32.2988   40.3948    4.0251 C   0  0  2  0  0  0  0  0  0  0  0  0
   33.1531   39.1877    3.9742 O   0  0  0  0  0  0  0  0  0  0  0  0
   35.2883   37.4135    7.4884 C   0  0  2  0  0  0  0  0  0  0  0  0
   36.2666   37.0810    6.4178 O   0  0  0  0  0  0  0  0  0  0  0  0
   37.6822   40.0318    4.5104 C   0  0  0  0  0  0  0  0  0  0  0  0
   44.1117   40.0832    5.8831 C   0  0  1  0  0  0  0  0  0  0  0  0
   43.0243   39.0829    6.1551 O   0  0  0  0  0  0  0  0  0  0  0  0
   31.0450   40.2370    3.1335 C   0  0  0  0  0  0  0  0  0  0  0  0
   30.1493   39.1283    3.5113 N   0  0  0  0  0  0  0  0  0  0  0  0
   34.9965   36.1043    8.2524 C   0  0  1  0  0  0  0  0  0  0  0  0
   36.2206   35.5683    8.7653 O   0  0  0  0  0  0  0  0  0  0  0  0
   45.3539   39.8145    6.8171 C   0  0  0  0  0  0  0  0  0  0  0  0
   46.3983   40.8874    6.8562 N   0  0  0  0  0  0  0  0  0  0  0  0
  1  2  1  1  0  0  0
  1  7  1  0  0  0  0
  1 30  1  0  0  0  0
  3  4  1  6  0  0  0
  3  9  1  0  0  0  0
  3 38  1  0  0  0  0
  5 10  1  0  0  0  0
  5 26  1  6  0  0  0
  5 32  1  0  0  0  0
  6 12  1  0  0  0  0
  6 35  1  0  0  0  0
  6 19  1  6  0  0  0
  7  8  1  1  0  0  0
  7 14  1  0  0  0  0
  8 33  1  0  0  0  0
  9 16  1  0  0  0  0
 10 11  1  1  0  0  0
 10 18  1  0  0  0  0
 12 13  1  1  0  0  0
 12 20  1  0  0  0  0
 14 15  1  6  0  0  0
 14 22  1  0  0  0  0
 16 17  1  6  0  0  0
 16 24  1  0  0  0  0
 18 19  1  1  0  0  0
 18 25  1  0  0  0  0
 20 21  1  1  0  0  0
 20 27  1  0  0  0  0
 22 23  1  1  0  0  0
 22 29  1  0  0  0  0
 24  2  1  1  0  0  0
 24 31  1  0  0  0  0
 25 26  1  1  0  0  0
 25 33  1  0  0  0  0
 27 28  1  6  0  0  0
 27 34  1  0  0  0  0
 29 30  1  0  0  0  0
 29 36  1  6  0  0  0
 31 32  1  6  0  0  0
 31 38  1  0  0  0  0
 34 35  1  0  0  0  0
 34 40  1  1  0  0  0
 36 37  1  0  0  0  0
 38 39  1  1  0  0  0
 40 41  1  0  0  0  0
M  END
>  <CHROM.1>
173.80428104,-57.65149701,-178.95501966,65.49774979,37.43848938,39.02977347
5.63909193,3.04906610,-0.02060279,2.38071701

>  <Name>
ligand

>  <RI>
0

>  <Rbt.Current_Directory>
/home/itssahil/PROJECTS/Mol_Feturizer/New_Systems/rnas/1ZZ5

>  <Rbt.Executable>
rbdock ($Id: //depot/dev/client3/rdock/2013.1/src/exe/rbdock.cxx#4 $)

>  <Rbt.Library>
libRbt.so (2013.1, Build901 2013/11/27)

>  <Rbt.Parameter_File>
/export/apps/rDock/src/rDock_2013.1_src/data/scripts/dock_solv.prm

>  <Rbt.Receptor>
prm/pocket_docking_5.prm

>  <SCORE>
-12.4278

>  <SCORE.INTER>
-10.0805

>  <SCORE.INTER.CONST>
1

>  <SCORE.INTER.POLAR>
0

>  <SCORE.INTER.ROT>
4

>  <SCORE.INTER.SOLV>
19.1948

>  <SCORE.INTER.VDW>
-19.3853

>  <SCORE.INTER.norm>
-0.245865

>  <SCORE.INTRA>
-2.34733

>  <SCORE.INTRA.DIHEDRAL>
-4.63922

>  <SCORE.INTRA.DIHEDRAL.0>
5.18357

>  <SCORE.INTRA.POLAR>
0

>  <SCORE.INTRA.POLAR.0>
0

>  <SCORE.INTRA.REPUL>
0

>  <SCORE.INTRA.REPUL.0>
0

>  <SCORE.INTRA.SOLV>
-0.904012

>  <SCORE.INTRA.SOLV.lig_0>
-109.973

>  <SCORE.INTRA.VDW>
0.424287

>  <SCORE.INTRA.VDW.0>
-1.68646

>  <SCORE.INTRA.norm>
-0.0572519

>  <SCORE.RESTR>
0

>  <SCORE.RESTR.CAVITY>
0

>  <SCORE.RESTR.norm>
0

>  <SCORE.SYSTEM>
0

>  <SCORE.SYSTEM.CONST>
0

>  <SCORE.SYSTEM.DIHEDRAL>
0

>  <SCORE.SYSTEM.SOLV>
0

>  <SCORE.SYSTEM.norm>
0

>  <SCORE.heavy>
41

>  <SCORE.norm>
-0.303117

>  <RMSD>
2.362

$$$$
ligand
 OpenBabel11021811423D
libRbt.so/2013.1/901 2013/11/27
 41 45  0  0  0  0  0  0  0  0999 V2000
   33.7507   38.8319    5.1880 C   0  0  2  0  0  0  0  0  0  0  0  0
   33.4306   39.1036    6.5665 O   0  0  0  0  0  0  0  0  0  0  0  0
   34.1064   37.0810   10.3573 C   0  0  2  0  0  0  0  0  0  0  0  0
   34.1656   35.9941   11.3684 N   0  0  0  0  0  0  0  0  0  0  0  0
   37.3556   38.6182    7.2021 C   0  0  1  0  0  0  0  0  0  0  0  0
   40.7379   41.2025    5.4364 C   0  0  1  0  0  0  0  0  0  0  0  0
   34.2014   40.1283    4.4506 C   0  0  2  0  0  0  0  0  0  0  0  0
   35.3029   40.8181    5.1288 N   0  0  0  0  0  0  0  0  0  0  0  0
   32.6659   37.1367    9.7574 C   0  0  0  0  0  0  0  0  0  0  0  0
   38.3826   38.1909    6.1287 C   0  0  2  0  0  0  0  0  0  0  0  0
   39.4733   37.4582    6.6964 O   0  0  0  0  0  0  0  0  0  0  0  0
   41.5506   40.8257    4.1250 C   0  0  2  0  0  0  0  0  0  0  0  0
   42.5591   39.7401    4.3230 N   0  0  0  0  0  0  0  0  0  0  0  0
   32.9978   41.0935    4.2774 C   0  0  1  0  0  0  0  0  0  0  0  0
   33.4084   42.2658    3.5787 O   0  0  0  0  0  0  0  0  0  0  0  0
   32.5452   38.2560    8.6828 C   0  0  2  0  0  0  0  0  0  0  0  0
   31.1597   38.2482    8.1764 N   0  0  0  0  0  0  0  0  0  0  0  0
   38.8253   39.5088    5.4706 C   0  0  2  0  0  0  0  0  0  0  0  0
   40.0936   40.0238    6.0412 O   0  0  0  0  0  0  0  0  0  0  0  0
   42.2665   42.1261    3.5400 C   0  0  1  0  0  0  0  0  0  0  0  0
   41.2992   43.0765    3.0422 O   0  0  0  0  0  0  0  0  0  0  0  0
   31.8592   40.3760    3.5161 C   0  0  2  0  0  0  0  0  0  0  0  0
   30.7672   41.2539    3.3395 O   0  0  0  0  0  0  0  0  0  0  0  0
   33.6036   38.0271    7.5463 C   0  0  2  0  0  0  0  0  0  0  0  0
   37.6632   40.4613    5.7375 C   0  0  2  0  0  0  0  0  0  0  0  0
   37.0045   39.9686    6.8957 O   0  0  0  0  0  0  0  0  0  0  0  0
   43.1734   42.8440    4.6188 C   0  0  2  0  0  0  0  0  0  0  0  0
   44.2909   41.9973    4.9362 O   0  0  0  0  0  0  0  0  0  0  0  0
   31.4204   39.1131    4.2837 C   0  0  2  0  0  0  0  0  0  0  0  0
   32.6032   38.2415    4.4598 O   0  0  0  0  0  0  0  0  0  0  0  0
   35.0828   38.0138    8.1822 C   0  0  2  0  0  0  0  0  0  0  0  0
   36.1442   37.7675    7.1690 O   0  0  0  0  0  0  0  0  0  0  0  0
   36.6430   40.5152    4.6097 C   0  0  0  0  0  0  0  0  0  0  0  0
   42.3204   43.1542    5.9151 C   0  0  1  0  0  0  0  0  0  0  0  0
   41.6139   41.9302    6.4249 O   0  0  0  0  0  0  0  0  0  0  0  0
   30.2988   38.3911    3.5010 C   0  0  0  0  0  0  0  0  0  0  0  0
   29.0022   39.0930    3.4836 N   0  0  0  0  0  0  0  0  0  0  0  0
   35.1838   36.8786    9.2234 C   0  0  1  0  0  0  0  0  0  0  0  0
   36.4988   36.8651    9.7884 O   0  0  0  0  0  0  0  0  0  0  0  0
   43.1597   43.8267    7.0688 C   0  0  0  0  0  0  0  0  0  0  0  0
   44.2894   43.0163    7.6257 N   0  0  0  0  0  0  0  0  0  0  0  0
  1  2  1  1  0  0  0
  1  7  1  0  0  0  0
  1 30  1  0  0  0  0
  3  4  1  1  0  0  0
  3  9  1  0  0  0  0
  3 38  1  0  0  0  0
  5 10  1  0  0  0  0
  5 26  1  6  0  0  0
  5 32  1  0  0  0  0
  6 12  1  0  0  0  0
  6 35  1  0  0  0  0
  6 19  1  1  0  0  0
  7  8  1  1  0  0  0
  7 14  1  0  0  0  0
  8 33  1  0  0  0  0
  9 16  1  0  0  0  0
 10 11  1  1  0  0  0
 10 18  1  0  0  0  0
 12 13  1  1  0  0  0
 12 20  1  0  0  0  0
 14 15  1  6  0  0  0
 14 22  1  0  0  0  0
 16 17  1  6  0  0  0
 16 24  1  0  0  0  0
 18 19  1  1  0  0  0
 18 25  1  0  0  0  0
 20 21  1  1  0  0  0
 20 27  1  0  0  0  0
 22 23  1  1  0  0  0
 22 29  1  0  0  0  0
 24  2  1  6  0  0  0
 24 31  1  0  0  0  0
 25 26  1  1  0  0  0
 25 33  1  0  0  0  0
 27 28  1  1  0  0  0
 27 34  1  0  0  0  0
 29 30  1  0  0  0  0
 29 36  1  6  0  0  0
 31 32  1  6  0  0  0
 31 38  1  0  0  0  0
 34 35  1  0  0  0  0
 34 40  1  1  0  0  0
 36 37  1  0  0  0  0
 38 39  1  1  0  0  0
 40 41  1  0  0  0  0
M  END
>  <CHROM.1>
173.74897691,-79.53102770,-70.32280382,-62.25495016,36.67826423,39.80246580
6.03474020,2.90394011,0.21358662,2.17847819

>  <Name>
ligand

>  <RI>
0

>  <Rbt.Current_Directory>
/home/itssahil/PROJECTS/Mol_Feturizer/New_Systems/rnas/1ZZ5

>  <Rbt.Executable>
rbdock ($Id: //depot/dev/client3/rdock/2013.1/src/exe/rbdock.cxx#4 $)

>  <Rbt.Library>
libRbt.so (2013.1, Build901 2013/11/27)

>  <Rbt.Parameter_File>
/export/apps/rDock/src/rDock_2013.1_src/data/scripts/dock_solv.prm

>  <Rbt.Receptor>
prm/pocket_docking_6.prm

>  <SCORE>
-12.7175

>  <SCORE.INTER>
-12.2803

>  <SCORE.INTER.CONST>
1

>  <SCORE.INTER.POLAR>
0

>  <SCORE.INTER.ROT>
4

>  <SCORE.INTER.SOLV>
16.3786

>  <SCORE.INTER.VDW>
-19.9131

>  <SCORE.INTER.norm>
-0.299519

>  <SCORE.INTRA>
-0.437245

>  <SCORE.INTRA.DIHEDRAL>
-2.6795

>  <SCORE.INTRA.DIHEDRAL.0>
5.18357

>  <SCORE.INTRA.POLAR>
0

>  <SCORE.INTRA.POLAR.0>
0

>  <SCORE.INTRA.REPUL>
0

>  <SCORE.INTRA.REPUL.0>
0

>  <SCORE.INTRA.SOLV>
1.28805

>  <SCORE.INTRA.SOLV.lig_0>
-109.973

>  <SCORE.INTRA.VDW>
0.25848

>  <SCORE.INTRA.VDW.0>
-1.68646

>  <SCORE.INTRA.norm>
-0.0106645

>  <SCORE.RESTR>
0

>  <SCORE.RESTR.CAVITY>
0

>  <SCORE.RESTR.norm>
0

>  <SCORE.SYSTEM>
0

>  <SCORE.SYSTEM.CONST>
0

>  <SCORE.SYSTEM.DIHEDRAL>
0

>  <SCORE.SYSTEM.SOLV>
0

>  <SCORE.SYSTEM.norm>
0

>  <SCORE.heavy>
41

>  <SCORE.norm>
-0.310184

>  <RMSD>
2.364

$$$$
ligand
 OpenBabel11021811423D
libRbt.so/2013.1/901 2013/11/27
 41 45  0  0  0  0  0  0  0  0999 V2000
   34.3027   39.1684    4.8460 C   0  0  2  0  0  0  0  0  0  0  0  0
   34.0278   39.2370    6.2589 O   0  0  0  0  0  0  0  0  0  0  0  0
   33.9350   36.3789    9.5361 C   0  0  2  0  0  0  0  0  0  0  0  0
   33.6323   35.1421   10.3015 N   0  0  0  0  0  0  0  0  0  0  0  0
   37.6062   37.4863    6.6776 C   0  0  1  0  0  0  0  0  0  0  0  0
   41.6556   39.2639    5.4092 C   0  0  1  0  0  0  0  0  0  0  0  0
   35.1443   40.3932    4.3779 C   0  0  2  0  0  0  0  0  0  0  0  0
   36.3755   40.5708    5.1535 N   0  0  0  0  0  0  0  0  0  0  0  0
   32.5987   36.9818    8.9987 C   0  0  0  0  0  0  0  0  0  0  0  0
   38.4984   37.0000    5.5126 C   0  0  2  0  0  0  0  0  0  0  0  0
   39.3012   35.8764    5.8893 O   0  0  0  0  0  0  0  0  0  0  0  0
   41.9627   39.2934    3.8514 C   0  0  2  0  0  0  0  0  0  0  0  0
   42.4030   37.9791    3.2912 N   0  0  0  0  0  0  0  0  0  0  0  0
   34.2884   41.6871    4.4378 C   0  0  1  0  0  0  0  0  0  0  0  0
   35.0535   42.8003    3.9833 O   0  0  0  0  0  0  0  0  0  0  0  0
   32.8546   38.2801    8.1795 C   0  0  2  0  0  0  0  0  0  0  0  0
   31.5486   38.7883    7.7191 N   0  0  0  0  0  0  0  0  0  0  0  0
   39.3358   38.2312    5.1268 C   0  0  2  0  0  0  0  0  0  0  0  0
   40.6783   38.2179    5.7569 O   0  0  0  0  0  0  0  0  0  0  0  0
   43.0604   40.4079    3.5375 C   0  0  1  0  0  0  0  0  0  0  0  0
   42.5417   41.7349    3.7758 O   0  0  0  0  0  0  0  0  0  0  0  0
   33.0166   41.5116    3.5762 C   0  0  2  0  0  0  0  0  0  0  0  0
   32.2414   42.6915    3.6120 O   0  0  0  0  0  0  0  0  0  0  0  0
   33.8380   37.9823    6.9926 C   0  0  2  0  0  0  0  0  0  0  0  0
   38.4998   39.4115    5.6136 C   0  0  2  0  0  0  0  0  0  0  0  0
   37.6831   38.9127    6.6635 O   0  0  0  0  0  0  0  0  0  0  0  0
   44.3714   40.2137    4.4007 C   0  0  2  0  0  0  0  0  0  0  0  0
   45.0350   39.0072    3.9880 O   0  0  0  0  0  0  0  0  0  0  0  0
   32.1952   40.3083    4.0803 C   0  0  2  0  0  0  0  0  0  0  0  0
   33.0589   39.1074    4.0430 O   0  0  0  0  0  0  0  0  0  0  0  0
   35.2225   37.4002    7.5730 C   0  0  2  0  0  0  0  0  0  0  0  0
   36.1990   37.0602    6.5031 O   0  0  0  0  0  0  0  0  0  0  0  0
   37.5833   39.9947    4.5482 C   0  0  0  0  0  0  0  0  0  0  0  0
   43.9968   40.1490    5.9369 C   0  0  1  0  0  0  0  0  0  0  0  0
   42.9274   39.1294    6.2084 O   0  0  0  0  0  0  0  0  0  0  0  0
   30.9391   40.1279    3.1964 C   0  0  0  0  0  0  0  0  0  0  0  0
   29.9399   41.2064    3.3090 N   0  0  0  0  0  0  0  0  0  0  0  0
   34.9442   36.0997    8.3567 C   0  0  1  0  0  0  0  0  0  0  0  0
   36.1746   35.5807    8.8720 O   0  0  0  0  0  0  0  0  0  0  0  0
   45.2419   39.9047    6.8736 C   0  0  0  0  0  0  0  0  0  0  0  0
   46.2871   40.9775    6.8805 N   0  0  0  0  0  0  0  0  0  0  0  0
  1  2  1  1  0  0  0
  1  7  1  0  0  0  0
  1 30  1  0  0  0  0
  3  4  1  6  0  0  0
  3  9  1  0  0  0  0
  3 38  1  0  0  0  0
  5 10  1  0  0  0  0
  5 26  1  6  0  0  0
  5 32  1  0  0  0  0
  6 12  1  0  0  0  0
  6 35  1  0  0  0  0
  6 19  1  6  0  0  0
  7  8  1  1  0  0  0
  7 14  1  0  0  0  0
  8 33  1  0  0  0  0
  9 16  1  0  0  0  0
 10 11  1  1  0  0  0
 10 18  1  0  0  0  0
 12 13  1  1  0  0  0
 12 20  1  0  0  0  0
 14 15  1  6  0  0  0
 14 22  1  0  0  0  0
 16 17  1  6  0  0  0
 16 24  1  0  0  0  0
 18 19  1  1  0  0  0
 18 25  1  0  0  0  0
 20 21  1  1  0  0  0
 20 27  1  0  0  0  0
 22 23  1  1  0  0  0
 22 29  1  0  0  0  0
 24  2  1  1  0  0  0
 24 31  1  0  0  0  0
 25 26  1  1  0  0  0
 25 33  1  0  0  0  0
 27 28  1  6  0  0  0
 27 34  1  0  0  0  0
 29 30  1  0  0  0  0
 29 36  1  6  0  0  0
 31 32  1  6  0  0  0
 31 38  1  0  0  0  0
 34 35  1  0  0  0  0
 34 40  1  1  0  0  0
 36 37  1  0  0  0  0
 38 39  1  1  0  0  0
 40 41  1  0  0  0  0
M  END
>  <CHROM.1>
174.94882452,-58.11526919,-67.49623118,63.66939153,37.34679131,39.07041839
5.69430010,3.06128864,-0.02633152,2.37747888

>  <Name>
ligand

>  <RI>
0

>  <Rbt.Current_Directory>
/home/itssahil/PROJECTS/Mol_Feturizer/New_Systems/rnas/1ZZ5

>  <Rbt.Executable>
rbdock ($Id: //depot/dev/client3/rdock/2013.1/src/exe/rbdock.cxx#4 $)

>  <Rbt.Library>
libRbt.so (2013.1, Build901 2013/11/27)

>  <Rbt.Parameter_File>
/export/apps/rDock/src/rDock_2013.1_src/data/scripts/dock_solv.prm

>  <Rbt.Receptor>
prm/pocket_docking_5.prm

>  <SCORE>
-11.9371

>  <SCORE.INTER>
-10.3152

>  <SCORE.INTER.CONST>
1

>  <SCORE.INTER.POLAR>
0

>  <SCORE.INTER.ROT>
4

>  <SCORE.INTER.SOLV>
17.9296

>  <SCORE.INTER.VDW>
-19.12

>  <SCORE.INTER.norm>
-0.251591

>  <SCORE.INTRA>
-1.6219

>  <SCORE.INTRA.DIHEDRAL>
-4.56755

>  <SCORE.INTRA.DIHEDRAL.0>
5.18357

>  <SCORE.INTRA.POLAR>
0

>  <SCORE.INTRA.POLAR.0>
0

>  <SCORE.INTRA.REPUL>
0

>  <SCORE.INTRA.REPUL.0>
0

>  <SCORE.INTRA.SOLV>
0.285626

>  <SCORE.INTRA.SOLV.lig_0>
-109.973

>  <SCORE.INTRA.VDW>
0.51906

>  <SCORE.INTRA.VDW.0>
-1.68646

>  <SCORE.INTRA.norm>
-0.0395586

>  <SCORE.RESTR>
0

>  <SCORE.RESTR.CAVITY>
0

>  <SCORE.RESTR.norm>
0

>  <SCORE.SYSTEM>
0

>  <SCORE.SYSTEM.CONST>
0

>  <SCORE.SYSTEM.DIHEDRAL>
0

>  <SCORE.SYSTEM.SOLV>
0

>  <SCORE.SYSTEM.norm>
0

>  <SCORE.heavy>
41

>  <SCORE.norm>
-0.29115

>  <RMSD>
2.369

$$$$
ligand
 OpenBabel11021811423D
libRbt.so/2013.1/901 2013/11/27
 41 45  0  0  0  0  0  0  0  0999 V2000
   34.2988   39.3163    4.8226 C   0  0  2  0  0  0  0  0  0  0  0  0
   34.0233   39.3601    6.2364 O   0  0  0  0  0  0  0  0  0  0  0  0
   33.8758   36.4360    9.4528 C   0  0  2  0  0  0  0  0  0  0  0  0
   33.5503   35.1889   10.1917 N   0  0  0  0  0  0  0  0  0  0  0  0
   37.5697   37.5382    6.6218 C   0  0  1  0  0  0  0  0  0  0  0  0
   41.6563   39.2622    5.3840 C   0  0  1  0  0  0  0  0  0  0  0  0
   35.1624   40.5356    4.3812 C   0  0  2  0  0  0  0  0  0  0  0  0
   36.3956   40.6752    5.1616 N   0  0  0  0  0  0  0  0  0  0  0  0
   32.5510   37.0734    8.9269 C   0  0  0  0  0  0  0  0  0  0  0  0
   38.4548   37.0608    5.4477 C   0  0  2  0  0  0  0  0  0  0  0  0
   39.2372   35.9156    5.8015 O   0  0  0  0  0  0  0  0  0  0  0  0
   41.9908   39.2786    3.8316 C   0  0  2  0  0  0  0  0  0  0  0  0
   42.4182   37.9542    3.2854 N   0  0  0  0  0  0  0  0  0  0  0  0
   34.3294   41.8429    4.4674 C   0  0  1  0  0  0  0  0  0  0  0  0
   35.1145   42.9516    4.0371 O   0  0  0  0  0  0  0  0  0  0  0  0
   32.8308   38.3839    8.1354 C   0  0  2  0  0  0  0  0  0  0  0  0
   31.5346   38.9246    7.6845 N   0  0  0  0  0  0  0  0  0  0  0  0
   39.3143   38.2849    5.0886 C   0  0  2  0  0  0  0  0  0  0  0  0
   40.6554   38.2347    5.7197 O   0  0  0  0  0  0  0  0  0  0  0  0
   43.1126   40.3727    3.5315 C   0  0  1  0  0  0  0  0  0  0  0  0
   42.6125   41.7095    3.7545 O   0  0  0  0  0  0  0  0  0  0  0  0
   33.0558   41.7079    3.6011 C   0  0  2  0  0  0  0  0  0  0  0  0
   32.3015   42.9003    3.6608 O   0  0  0  0  0  0  0  0  0  0  0  0
   33.8104   38.0938    6.9435 C   0  0  2  0  0  0  0  0  0  0  0  0
   38.4985   39.4693    5.5993 C   0  0  2  0  0  0  0  0  0  0  0  0
   37.6717   38.9631    6.6377 O   0  0  0  0  0  0  0  0  0  0  0  0
   44.4049   40.1607    4.4183 C   0  0  2  0  0  0  0  0  0  0  0  0
   45.0549   38.9410    4.0230 O   0  0  0  0  0  0  0  0  0  0  0  0
   32.2127   40.5089    4.0790 C   0  0  2  0  0  0  0  0  0  0  0  0
   33.0552   39.2940    4.0173 O   0  0  0  0  0  0  0  0  0  0  0  0
   35.1836   37.4753    7.5129 C   0  0  2  0  0  0  0  0  0  0  0  0
   36.1555   37.1407    6.4370 O   0  0  0  0  0  0  0  0  0  0  0  0
   37.5938   40.0907    4.5454 C   0  0  0  0  0  0  0  0  0  0  0  0
   44.0028   40.1101    5.9480 C   0  0  1  0  0  0  0  0  0  0  0  0
   42.9116   39.1101    6.2058 O   0  0  0  0  0  0  0  0  0  0  0  0
   30.9549   40.3693    3.1902 C   0  0  0  0  0  0  0  0  0  0  0  0
   30.0453   39.2721    3.5685 N   0  0  0  0  0  0  0  0  0  0  0  0
   34.8815   36.1638    8.2688 C   0  0  1  0  0  0  0  0  0  0  0  0
   36.1019   35.6125    8.7743 O   0  0  0  0  0  0  0  0  0  0  0  0
   45.2272   39.8494    6.9074 C   0  0  0  0  0  0  0  0  0  0  0  0
   44.9314   39.8521    8.3756 N   0  0  0  0  0  0  0  0  0  0  0  0
  1  2  1  1  0  0  0
  1  7  1  0  0  0  0
  1 30  1  0  0  0  0
  3  4  1  6  0  0  0
  3  9  1  0  0  0  0
  3 38  1  0  0  0  0
  5 10  1  0  0  0  0
  5 26  1  6  0  0  0
  5 32  1  0  0  0  0
  6 12  1  0  0  0  0
  6 35  1  0  0  0  0
  6 19  1  6  0  0  0
  7  8  1  1  0  0  0
  7 14  1  0  0  0  0
  8 33  1  0  0  0  0
  9 16  1  0  0  0  0
 10 11  1  1  0  0  0
 10 18  1  0  0  0  0
 12 13  1  1  0  0  0
 12 20  1  0  0  0  0
 14 15  1  6  0  0  0
 14 22  1  0  0  0  0
 16 17  1  6  0  0  0
 16 24  1  0  0  0  0
 18 19  1  1  0  0  0
 18 25  1  0  0  0  0
 20 21  1  1  0  0  0
 20 27  1  0  0  0  0
 22 23  1  1  0  0  0
 22 29  1  0  0  0  0
 24  2  1  1  0  0  0
 24 31  1  0  0  0  0
 25 26  1  1  0  0  0
 25 33  1  0  0  0  0
 27 28  1  6  0  0  0
 27 34  1  0  0  0  0
 29 30  1  0  0  0  0
 29 36  1  6  0  0  0
 31 32  1  6  0  0  0
 31 38  1  0  0  0  0
 34 35  1  0  0  0  0
 34 40  1  1  0  0  0
 36 37  1  0  0  0  0
 38 39  1  1  0  0  0
 40 41  1  0  0  0  0
M  END
>  <CHROM.1>
174.29993460,-59.45033442,-178.58552558,177.25858440,37.31163314,39.06332056
5.71432203,3.07509627,-0.02574241,2.36586093

>  <Name>
ligand

>  <RI>
0

>  <Rbt.Current_Directory>
/home/itssahil/PROJECTS/Mol_Feturizer/New_Systems/rnas/1ZZ5

>  <Rbt.Executable>
rbdock ($Id: //depot/dev/client3/rdock/2013.1/src/exe/rbdock.cxx#4 $)

>  <Rbt.Library>
libRbt.so (2013.1, Build901 2013/11/27)

>  <Rbt.Parameter_File>
/export/apps/rDock/src/rDock_2013.1_src/data/scripts/dock_solv.prm

>  <Rbt.Receptor>
prm/pocket_docking_7.prm

>  <SCORE>
-12.644

>  <SCORE.INTER>
-10.0457

>  <SCORE.INTER.CONST>
1

>  <SCORE.INTER.POLAR>
0

>  <SCORE.INTER.ROT>
4

>  <SCORE.INTER.SOLV>
18.8541

>  <SCORE.INTER.VDW>
-19.2485

>  <SCORE.INTER.norm>
-0.245017

>  <SCORE.INTRA>
-2.5983

>  <SCORE.INTRA.DIHEDRAL>
-4.75093

>  <SCORE.INTRA.DIHEDRAL.0>
5.18357

>  <SCORE.INTRA.POLAR>
0

>  <SCORE.INTRA.POLAR.0>
0

>  <SCORE.INTRA.REPUL>
0

>  <SCORE.INTRA.REPUL.0>
0

>  <SCORE.INTRA.SOLV>
-1.28066

>  <SCORE.INTRA.SOLV.lig_0>
-109.973

>  <SCORE.INTRA.VDW>
0.417499

>  <SCORE.INTRA.VDW.0>
-1.68646

>  <SCORE.INTRA.norm>
-0.0633731

>  <SCORE.RESTR>
0

>  <SCORE.RESTR.CAVITY>
0

>  <SCORE.RESTR.norm>
0

>  <SCORE.SYSTEM>
0

>  <SCORE.SYSTEM.CONST>
0

>  <SCORE.SYSTEM.DIHEDRAL>
0

>  <SCORE.SYSTEM.SOLV>
0

>  <SCORE.SYSTEM.norm>
0

>  <SCORE.heavy>
41

>  <SCORE.norm>
-0.30839

>  <RMSD>
2.369

$$$$
ligand
 OpenBabel11021811423D
libRbt.so/2013.1/901 2013/11/27
 41 45  0  0  0  0  0  0  0  0999 V2000
   33.6311   38.8809    5.0914 C   0  0  2  0  0  0  0  0  0  0  0  0
   33.3624   39.0789    6.4932 O   0  0  0  0  0  0  0  0  0  0  0  0
   34.1100   36.8235   10.1363 C   0  0  2  0  0  0  0  0  0  0  0  0
   34.1749   35.6784   11.0806 N   0  0  0  0  0  0  0  0  0  0  0  0
   37.2927   38.4678    6.9676 C   0  0  1  0  0  0  0  0  0  0  0  0
   40.6707   41.0830    5.2526 C   0  0  1  0  0  0  0  0  0  0  0  0
   34.0898   40.2075    4.4151 C   0  0  2  0  0  0  0  0  0  0  0  0
   35.2293   40.8313    5.0945 N   0  0  0  0  0  0  0  0  0  0  0  0
   32.6527   36.9470    9.5894 C   0  0  0  0  0  0  0  0  0  0  0  0
   38.2738   38.0806    5.8374 C   0  0  2  0  0  0  0  0  0  0  0  0
   39.3637   37.2914    6.3250 O   0  0  0  0  0  0  0  0  0  0  0  0
   41.4549   40.7782    3.9057 C   0  0  2  0  0  0  0  0  0  0  0  0
   42.4558   39.6735    4.0189 N   0  0  0  0  0  0  0  0  0  0  0  0
   32.9054   41.2083    4.3384 C   0  0  1  0  0  0  0  0  0  0  0  0
   33.3221   42.4098    3.6950 O   0  0  0  0  0  0  0  0  0  0  0  0
   32.5251   38.1295    8.5857 C   0  0  2  0  0  0  0  0  0  0  0  0
   31.1243   38.1829    8.1266 N   0  0  0  0  0  0  0  0  0  0  0  0
   38.7274   39.4244    5.2418 C   0  0  2  0  0  0  0  0  0  0  0  0
   40.0258   39.8761    5.7981 O   0  0  0  0  0  0  0  0  0  0  0  0
   42.1730   42.1048    3.3858 C   0  0  1  0  0  0  0  0  0  0  0  0
   41.2063   43.0921    2.9644 O   0  0  0  0  0  0  0  0  0  0  0  0
   31.7255   40.5627    3.5757 C   0  0  2  0  0  0  0  0  0  0  0  0
   30.6504   41.4740    3.4867 O   0  0  0  0  0  0  0  0  0  0  0  0
   33.5404   37.9433    7.4030 C   0  0  2  0  0  0  0  0  0  0  0  0
   37.5984   40.3859    5.6020 C   0  0  2  0  0  0  0  0  0  0  0  0
   36.9654   39.8415    6.7514 O   0  0  0  0  0  0  0  0  0  0  0  0
   43.1072   42.7484    4.4879 C   0  0  2  0  0  0  0  0  0  0  0  0
   44.2217   41.8741    4.7325 O   0  0  0  0  0  0  0  0  0  0  0  0
   31.2806   39.2674    4.2836 C   0  0  2  0  0  0  0  0  0  0  0  0
   32.4466   38.3603    4.3694 O   0  0  0  0  0  0  0  0  0  0  0  0
   35.0385   37.8592    7.9871 C   0  0  2  0  0  0  0  0  0  0  0  0
   36.0603   37.6483    6.9262 O   0  0  0  0  0  0  0  0  0  0  0  0
   36.5441   40.5287    4.5141 C   0  0  0  0  0  0  0  0  0  0  0  0
   42.2818   42.9881    5.8166 C   0  0  1  0  0  0  0  0  0  0  0  0
   41.5724   41.7422    6.2658 O   0  0  0  0  0  0  0  0  0  0  0  0
   30.1169   38.6181    3.4987 C   0  0  0  0  0  0  0  0  0  0  0  0
   30.4167   38.3039    2.0896 N   0  0  0  0  0  0  0  0  0  0  0  0
   35.1449   36.6632    8.9571 C   0  0  1  0  0  0  0  0  0  0  0  0
   36.4767   36.5867    9.4759 O   0  0  0  0  0  0  0  0  0  0  0  0
   43.1492   43.5825    6.9921 C   0  0  0  0  0  0  0  0  0  0  0  0
   43.8614   44.8686    6.7057 N   0  0  0  0  0  0  0  0  0  0  0  0
  1  2  1  1  0  0  0
  1  7  1  0  0  0  0
  1 30  1  0  0  0  0
  3  4  1  1  0  0  0
  3  9  1  0  0  0  0
  3 38  1  0  0  0  0
  5 10  1  0  0  0  0
  5 26  1  6  0  0  0
  5 32  1  0  0  0  0
  6 12  1  0  0  0  0
  6 35  1  0  0  0  0
  6 19  1  1  0  0  0
  7  8  1  1  0  0  0
  7 14  1  0  0  0  0
  8 33  1  0  0  0  0
  9 16  1  0  0  0  0
 10 11  1  1  0  0  0
 10 18  1  0  0  0  0
 12 13  1  1  0  0  0
 12 20  1  0  0  0  0
 14 15  1  6  0  0  0
 14 22  1  0  0  0  0
 16 17  1  6  0  0  0
 16 24  1  0  0  0  0
 18 19  1  1  0  0  0
 18 25  1  0  0  0  0
 20 21  1  1  0  0  0
 20 27  1  0  0  0  0
 22 23  1  1  0  0  0
 22 29  1  0  0  0  0
 24  2  1  6  0  0  0
 24 31  1  0  0  0  0
 25 26  1  1  0  0  0
 25 33  1  0  0  0  0
 27 28  1  1  0  0  0
 27 34  1  0  0  0  0
 29 30  1  0  0  0  0
 29 36  1  6  0  0  0
 31 32  1  6  0  0  0
 31 38  1  0  0  0  0
 34 35  1  0  0  0  0
 34 40  1  1  0  0  0
 36 37  1  0  0  0  0
 38 39  1  1  0  0  0
 40 41  1  0  0  0  0
M  END
>  <CHROM.1>
174.53266392,-80.83455036,57.37497003,56.55850703,36.63078347,39.76904042
5.84982153,2.86096881,0.21264632,2.22991259

>  <Name>
ligand

>  <RI>
0

>  <Rbt.Current_Directory>
/home/itssahil/PROJECTS/Mol_Feturizer/New_Systems/rnas/1ZZ5

>  <Rbt.Executable>
rbdock ($Id: //depot/dev/client3/rdock/2013.1/src/exe/rbdock.cxx#4 $)

>  <Rbt.Library>
libRbt.so (2013.1, Build901 2013/11/27)

>  <Rbt.Parameter_File>
/export/apps/rDock/src/rDock_2013.1_src/data/scripts/dock_solv.prm

>  <Rbt.Receptor>
prm/pocket_docking_4.prm

>  <SCORE>
-12.48

>  <SCORE.INTER>
-11.5876

>  <SCORE.INTER.CONST>
1

>  <SCORE.INTER.POLAR>
0

>  <SCORE.INTER.ROT>
4

>  <SCORE.INTER.SOLV>
20.514

>  <SCORE.INTER.VDW>
-20.8297

>  <SCORE.INTER.norm>
-0.282625

>  <SCORE.INTRA>
-0.892392

>  <SCORE.INTRA.DIHEDRAL>
-2.84066

>  <SCORE.INTRA.DIHEDRAL.0>
5.18357

>  <SCORE.INTRA.POLAR>
0

>  <SCORE.INTRA.POLAR.0>
0

>  <SCORE.INTRA.REPUL>
0

>  <SCORE.INTRA.REPUL.0>
0

>  <SCORE.INTRA.SOLV>
0.441806

>  <SCORE.INTRA.SOLV.lig_0>
-109.973

>  <SCORE.INTRA.VDW>
0.307034

>  <SCORE.INTRA.VDW.0>
-1.68646

>  <SCORE.INTRA.norm>
-0.0217657

>  <SCORE.RESTR>
0

>  <SCORE.RESTR.CAVITY>
0

>  <SCORE.RESTR.norm>
0

>  <SCORE.SYSTEM>
0

>  <SCORE.SYSTEM.CONST>
0

>  <SCORE.SYSTEM.DIHEDRAL>
0

>  <SCORE.SYSTEM.SOLV>
0

>  <SCORE.SYSTEM.norm>
0

>  <SCORE.heavy>
41

>  <SCORE.norm>
-0.30439

>  <RMSD>
2.401

$$$$
ligand
 OpenBabel11021811423D
libRbt.so/2013.1/901 2013/11/27
 41 45  0  0  0  0  0  0  0  0999 V2000
   33.6186   38.8733    5.0949 C   0  0  2  0  0  0  0  0  0  0  0  0
   33.3571   39.0795    6.4969 O   0  0  0  0  0  0  0  0  0  0  0  0
   34.1168   36.8419   10.1484 C   0  0  2  0  0  0  0  0  0  0  0  0
   34.1835   35.7017   11.0986 N   0  0  0  0  0  0  0  0  0  0  0  0
   37.2881   38.4616    6.9557 C   0  0  1  0  0  0  0  0  0  0  0  0
   40.6433   41.0833    5.2399 C   0  0  1  0  0  0  0  0  0  0  0  0
   34.0771   40.1952    4.4093 C   0  0  2  0  0  0  0  0  0  0  0  0
   35.2213   40.8199    5.0799 N   0  0  0  0  0  0  0  0  0  0  0  0
   32.6571   36.9659    9.6079 C   0  0  0  0  0  0  0  0  0  0  0  0
   38.2628   38.0660    5.8229 C   0  0  2  0  0  0  0  0  0  0  0  0
   39.3532   37.2768    6.3095 O   0  0  0  0  0  0  0  0  0  0  0  0
   41.4397   40.8121    3.8929 C   0  0  2  0  0  0  0  0  0  0  0  0
   42.4608   39.7251    3.9961 N   0  0  0  0  0  0  0  0  0  0  0  0
   32.8947   41.1984    4.3329 C   0  0  1  0  0  0  0  0  0  0  0  0
   33.3112   42.3954    3.6811 O   0  0  0  0  0  0  0  0  0  0  0  0
   32.5275   38.1434    8.5985 C   0  0  2  0  0  0  0  0  0  0  0  0
   31.1246   38.1976    8.1458 N   0  0  0  0  0  0  0  0  0  0  0  0
   38.7168   39.4054    5.2179 C   0  0  2  0  0  0  0  0  0  0  0  0
   40.0189   39.8570    5.7656 O   0  0  0  0  0  0  0  0  0  0  0  0
   42.1349   42.1590    3.3949 C   0  0  1  0  0  0  0  0  0  0  0  0
   41.1517   43.1336    2.9823 O   0  0  0  0  0  0  0  0  0  0  0  0
   31.7096   40.5515    3.5794 C   0  0  2  0  0  0  0  0  0  0  0  0
   30.6362   41.4649    3.4907 O   0  0  0  0  0  0  0  0  0  0  0  0
   33.5367   37.9484    7.4119 C   0  0  2  0  0  0  0  0  0  0  0  0
   37.5917   40.3716    5.5784 C   0  0  2  0  0  0  0  0  0  0  0  0
   36.9630   39.8349    6.7337 O   0  0  0  0  0  0  0  0  0  0  0  0
   43.0514   42.8049    4.5104 C   0  0  2  0  0  0  0  0  0  0  0  0
   44.1812   41.9486    4.7487 O   0  0  0  0  0  0  0  0  0  0  0  0
   31.2651   39.2611    4.2963 C   0  0  2  0  0  0  0  0  0  0  0  0
   32.4293   38.3517    4.3814 O   0  0  0  0  0  0  0  0  0  0  0  0
   35.0374   37.8638    7.9892 C   0  0  2  0  0  0  0  0  0  0  0  0
   36.0536   37.6448    6.9247 O   0  0  0  0  0  0  0  0  0  0  0  0
   36.5326   40.5111    4.4948 C   0  0  0  0  0  0  0  0  0  0  0  0
   42.2152   43.0106    5.8382 C   0  0  1  0  0  0  0  0  0  0  0  0
   41.5275   41.7454    6.2666 O   0  0  0  0  0  0  0  0  0  0  0  0
   30.0961   38.6104    3.5205 C   0  0  0  0  0  0  0  0  0  0  0  0
   30.3898   38.2839    2.1129 N   0  0  0  0  0  0  0  0  0  0  0  0
   35.1457   36.6727    8.9651 C   0  0  1  0  0  0  0  0  0  0  0  0
   36.4798   36.5959    9.4779 O   0  0  0  0  0  0  0  0  0  0  0  0
   43.0656   43.6051    7.0260 C   0  0  0  0  0  0  0  0  0  0  0  0
   43.6589   44.9620    6.8024 N   0  0  0  0  0  0  0  0  0  0  0  0
  1  2  1  1  0  0  0
  1  7  1  0  0  0  0
  1 30  1  0  0  0  0
  3  4  1  1  0  0  0
  3  9  1  0  0  0  0
  3 38  1  0  0  0  0
  5 10  1  0  0  0  0
  5 26  1  6  0  0  0
  5 32  1  0  0  0  0
  6 12  1  0  0  0  0
  6 35  1  0  0  0  0
  6 19  1  1  0  0  0
  7  8  1  1  0  0  0
  7 14  1  0  0  0  0
  8 33  1  0  0  0  0
  9 16  1  0  0  0  0
 10 11  1  1  0  0  0
 10 18  1  0  0  0  0
 12 13  1  1  0  0  0
 12 20  1  0  0  0  0
 14 15  1  6  0  0  0
 14 22  1  0  0  0  0
 16 17  1  6  0  0  0
 16 24  1  0  0  0  0
 18 19  1  1  0  0  0
 18 25  1  0  0  0  0
 20 21  1  1  0  0  0
 20 27  1  0  0  0  0
 22 23  1  1  0  0  0
 22 29  1  0  0  0  0
 24  2  1  6  0  0  0
 24 31  1  0  0  0  0
 25 26  1  1  0  0  0
 25 33  1  0  0  0  0
 27 28  1  1  0  0  0
 27 34  1  0  0  0  0
 29 30  1  0  0  0  0
 29 36  1  6  0  0  0
 31 32  1  6  0  0  0
 31 38  1  0  0  0  0
 34 35  1  0  0  0  0
 34 40  1  1  0  0  0
 36 37  1  0  0  0  0
 38 39  1  1  0  0  0
 40 41  1  0  0  0  0
M  END
>  <CHROM.1>
176.46230943,-82.22056022,57.56587327,61.56526014,36.61015758,39.77720415
5.85351515,2.85834426,0.21638074,2.22983764

>  <Name>
ligand

>  <RI>
0

>  <Rbt.Current_Directory>
/home/itssahil/PROJECTS/Mol_Feturizer/New_Systems/rnas/1ZZ5

>  <Rbt.Executable>
rbdock ($Id: //depot/dev/client3/rdock/2013.1/src/exe/rbdock.cxx#4 $)

>  <Rbt.Library>
libRbt.so (2013.1, Build901 2013/11/27)

>  <Rbt.Parameter_File>
/export/apps/rDock/src/rDock_2013.1_src/data/scripts/dock_solv.prm

>  <Rbt.Receptor>
prm/pocket_docking_4.prm

>  <SCORE>
-12.5042

>  <SCORE.INTER>
-11.636

>  <SCORE.INTER.CONST>
1

>  <SCORE.INTER.POLAR>
0

>  <SCORE.INTER.ROT>
4

>  <SCORE.INTER.SOLV>
20.6307

>  <SCORE.INTER.VDW>
-20.9009

>  <SCORE.INTER.norm>
-0.283805

>  <SCORE.INTRA>
-0.86824

>  <SCORE.INTRA.DIHEDRAL>
-2.74072

>  <SCORE.INTRA.DIHEDRAL.0>
5.18357

>  <SCORE.INTRA.POLAR>
0

>  <SCORE.INTRA.POLAR.0>
0

>  <SCORE.INTRA.REPUL>
0

>  <SCORE.INTRA.REPUL.0>
0

>  <SCORE.INTRA.SOLV>
0.329978

>  <SCORE.INTRA.SOLV.lig_0>
-109.973

>  <SCORE.INTRA.VDW>
0.337131

>  <SCORE.INTRA.VDW.0>
-1.68646

>  <SCORE.INTRA.norm>
-0.0211766

>  <SCORE.RESTR>
0

>  <SCORE.RESTR.CAVITY>
0

>  <SCORE.RESTR.norm>
0

>  <SCORE.SYSTEM>
0

>  <SCORE.SYSTEM.CONST>
0

>  <SCORE.SYSTEM.DIHEDRAL>
0

>  <SCORE.SYSTEM.SOLV>
0

>  <SCORE.SYSTEM.norm>
0

>  <SCORE.heavy>
41

>  <SCORE.norm>
-0.304982

>  <RMSD>
2.416

$$$$
ligand
 OpenBabel11021811423D
libRbt.so/2013.1/901 2013/11/27
 41 45  0  0  0  0  0  0  0  0999 V2000
   34.8485   39.4156    4.7677 C   0  0  2  0  0  0  0  0  0  0  0  0
   34.4629   39.3915    6.1560 O   0  0  0  0  0  0  0  0  0  0  0  0
   34.1569   36.3302    9.2304 C   0  0  2  0  0  0  0  0  0  0  0  0
   33.8139   35.0442    9.8906 N   0  0  0  0  0  0  0  0  0  0  0  0
   38.0235   37.6542    6.7463 C   0  0  1  0  0  0  0  0  0  0  0  0
   42.2707   37.6942    5.5722 C   0  0  1  0  0  0  0  0  0  0  0  0
   35.7056   40.6762    4.4452 C   0  0  2  0  0  0  0  0  0  0  0  0
   36.8695   40.8166    5.3255 N   0  0  0  0  0  0  0  0  0  0  0  0
   32.8578   36.9524    8.6277 C   0  0  0  0  0  0  0  0  0  0  0  0
   39.0116   37.2520    5.6274 C   0  0  2  0  0  0  0  0  0  0  0  0
   39.7993   36.1150    5.9955 O   0  0  0  0  0  0  0  0  0  0  0  0
   43.5435   37.7441    6.5206 C   0  0  2  0  0  0  0  0  0  0  0  0
   44.0000   39.1273    6.8570 N   0  0  0  0  0  0  0  0  0  0  0  0
   34.8281   41.9549    4.5180 C   0  0  1  0  0  0  0  0  0  0  0  0
   35.6095   43.1024    4.1960 O   0  0  0  0  0  0  0  0  0  0  0  0
   33.1574   38.3026    7.9141 C   0  0  2  0  0  0  0  0  0  0  0  0
   31.8840   38.8258    7.3845 N   0  0  0  0  0  0  0  0  0  0  0  0
   39.8579   38.5137    5.3868 C   0  0  2  0  0  0  0  0  0  0  0  0
   41.1469   38.4740    6.1192 O   0  0  0  0  0  0  0  0  0  0  0  0
   44.7433   36.9265    5.8592 C   0  0  1  0  0  0  0  0  0  0  0  0
   44.4490   35.5131    5.8103 O   0  0  0  0  0  0  0  0  0  0  0  0
   33.6305   41.8216    3.5492 C   0  0  2  0  0  0  0  0  0  0  0  0
   32.8372   42.9888    3.5972 O   0  0  0  0  0  0  0  0  0  0  0  0
   34.2351   38.0908    6.7925 C   0  0  2  0  0  0  0  0  0  0  0  0
   38.9685   39.6521    5.8788 C   0  0  2  0  0  0  0  0  0  0  0  0
   38.0797   39.0794    6.8275 O   0  0  0  0  0  0  0  0  0  0  0  0
   45.0701   37.4269    4.3948 C   0  0  2  0  0  0  0  0  0  0  0  0
   45.6074   38.7588    4.4590 O   0  0  0  0  0  0  0  0  0  0  0  0
   32.7905   40.5803    3.9105 C   0  0  2  0  0  0  0  0  0  0  0  0
   33.6726   39.3930    3.8666 O   0  0  0  0  0  0  0  0  0  0  0  0
   35.5786   37.4871    7.4431 C   0  0  2  0  0  0  0  0  0  0  0  0
   36.6410   37.2258    6.4347 O   0  0  0  0  0  0  0  0  0  0  0  0
   38.1295   40.2924    4.7827 C   0  0  0  0  0  0  0  0  0  0  0  0
   43.7571   37.3951    3.5121 C   0  0  1  0  0  0  0  0  0  0  0  0
   42.6231   38.1275    4.1714 O   0  0  0  0  0  0  0  0  0  0  0  0
   31.6104   40.4437    2.9204 C   0  0  0  0  0  0  0  0  0  0  0  0
   30.6758   39.3422    3.2156 N   0  0  0  0  0  0  0  0  0  0  0  0
   35.2595   36.1367    8.1195 C   0  0  1  0  0  0  0  0  0  0  0  0
   36.4535   35.5986    8.6970 O   0  0  0  0  0  0  0  0  0  0  0  0
   43.9782   37.9282    2.0443 C   0  0  0  0  0  0  0  0  0  0  0  0
   44.3183   39.3807    1.9107 N   0  0  0  0  0  0  0  0  0  0  0  0
  1  2  1  1  0  0  0
  1  7  1  0  0  0  0
  1 30  1  0  0  0  0
  3  4  1  6  0  0  0
  3  9  1  0  0  0  0
  3 38  1  0  0  0  0
  5 10  1  0  0  0  0
  5 26  1  6  0  0  0
  5 32  1  0  0  0  0
  6 12  1  0  0  0  0
  6 35  1  0  0  0  0
  6 19  1  1  0  0  0
  7  8  1  1  0  0  0
  7 14  1  0  0  0  0
  8 33  1  0  0  0  0
  9 16  1  0  0  0  0
 10 11  1  1  0  0  0
 10 18  1  0  0  0  0
 12 13  1  6  0  0  0
 12 20  1  0  0  0  0
 14 15  1  6  0  0  0
 14 22  1  0  0  0  0
 16 17  1  6  0  0  0
 16 24  1  0  0  0  0
 18 19  1  1  0  0  0
 18 25  1  0  0  0  0
 20 21  1  6  0  0  0
 20 27  1  0  0  0  0
 22 23  1  1  0  0  0
 22 29  1  0  0  0  0
 24  2  1  1  0  0  0
 24 31  1  0  0  0  0
 25 26  1  1  0  0  0
 25 33  1  0  0  0  0
 27 28  1  1  0  0  0
 27 34  1  0  0  0  0
 29 30  1  0  0  0  0
 29 36  1  6  0  0  0
 31 32  1  6  0  0  0
 31 38  1  0  0  0  0
 34 35  1  0  0  0  0
 34 40  1  6  0  0  0
 36 37  1  0  0  0  0
 38 39  1  1  0  0  0
 40 41  1  0  0  0  0
M  END
>  <CHROM.1>
79.72225260,-178.35627591,-176.03488830,-66.11042096,37.80410362,38.61508109
5.58745785,-3.09075367,-0.16621262,2.35910629

>  <Name>
ligand

>  <RI>
0

>  <Rbt.Current_Directory>
/home/itssahil/PROJECTS/Mol_Feturizer/New_Systems/rnas/1ZZ5

>  <Rbt.Executable>
rbdock ($Id: //depot/dev/client3/rdock/2013.1/src/exe/rbdock.cxx#4 $)

>  <Rbt.Library>
libRbt.so (2013.1, Build901 2013/11/27)

>  <Rbt.Parameter_File>
/export/apps/rDock/src/rDock_2013.1_src/data/scripts/dock_solv.prm

>  <Rbt.Receptor>
prm/pocket_docking_5.prm

>  <SCORE>
-10.3067

>  <SCORE.INTER>
-9.07175

>  <SCORE.INTER.CONST>
1

>  <SCORE.INTER.POLAR>
0

>  <SCORE.INTER.ROT>
4

>  <SCORE.INTER.SOLV>
20.3657

>  <SCORE.INTER.VDW>
-19.1031

>  <SCORE.INTER.norm>
-0.221262

>  <SCORE.INTRA>
-1.23494

>  <SCORE.INTRA.DIHEDRAL>
-3.00575

>  <SCORE.INTRA.DIHEDRAL.0>
5.18357

>  <SCORE.INTRA.POLAR>
0

>  <SCORE.INTRA.POLAR.0>
0

>  <SCORE.INTRA.REPUL>
0

>  <SCORE.INTRA.REPUL.0>
0

>  <SCORE.INTRA.SOLV>
0.178962

>  <SCORE.INTRA.SOLV.lig_0>
-109.973

>  <SCORE.INTRA.VDW>
0.178458

>  <SCORE.INTRA.VDW.0>
-1.68646

>  <SCORE.INTRA.norm>
-0.0301204

>  <SCORE.RESTR>
0

>  <SCORE.RESTR.CAVITY>
0

>  <SCORE.RESTR.norm>
0

>  <SCORE.SYSTEM>
0

>  <SCORE.SYSTEM.CONST>
0

>  <SCORE.SYSTEM.DIHEDRAL>
0

>  <SCORE.SYSTEM.SOLV>
0

>  <SCORE.SYSTEM.norm>
0

>  <SCORE.heavy>
41

>  <SCORE.norm>
-0.251382

>  <RMSD>
2.433

$$$$
ligand
 OpenBabel11021811423D
libRbt.so/2013.1/901 2013/11/27
 41 45  0  0  0  0  0  0  0  0999 V2000
   34.4078   39.1782    4.8206 C   0  0  2  0  0  0  0  0  0  0  0  0
   34.1352   39.2411    6.2342 O   0  0  0  0  0  0  0  0  0  0  0  0
   33.9604   36.3551    9.4836 C   0  0  2  0  0  0  0  0  0  0  0  0
   33.6222   35.1201   10.2370 N   0  0  0  0  0  0  0  0  0  0  0  0
   37.6617   37.3839    6.6345 C   0  0  1  0  0  0  0  0  0  0  0  0
   41.7639   39.0502    5.3740 C   0  0  1  0  0  0  0  0  0  0  0  0
   35.2843   40.3828    4.3640 C   0  0  2  0  0  0  0  0  0  0  0  0
   36.5202   40.5173    5.1409 N   0  0  0  0  0  0  0  0  0  0  0  0
   32.6419   37.0015    8.9526 C   0  0  0  0  0  0  0  0  0  0  0  0
   38.5394   36.8834    5.4645 C   0  0  2  0  0  0  0  0  0  0  0  0
   39.3094   35.7336    5.8300 O   0  0  0  0  0  0  0  0  0  0  0  0
   42.0200   39.1217    3.8083 C   0  0  2  0  0  0  0  0  0  0  0  0
   42.3829   37.8104    3.1888 N   0  0  0  0  0  0  0  0  0  0  0  0
   34.4660   41.7002    4.4369 C   0  0  1  0  0  0  0  0  0  0  0  0
   35.2628   42.7952    3.9929 O   0  0  0  0  0  0  0  0  0  0  0  0
   32.9351   38.2997    8.1459 C   0  0  2  0  0  0  0  0  0  0  0  0
   31.6442   38.8498    7.6910 N   0  0  0  0  0  0  0  0  0  0  0  0
   39.4119   38.0937    5.0903 C   0  0  2  0  0  0  0  0  0  0  0  0
   40.7534   38.0356    5.7198 O   0  0  0  0  0  0  0  0  0  0  0  0
   43.1548   40.1984    3.4944 C   0  0  1  0  0  0  0  0  0  0  0  0
   42.7034   41.5372    3.7955 O   0  0  0  0  0  0  0  0  0  0  0  0
   33.1896   41.5698    3.5741 C   0  0  2  0  0  0  0  0  0  0  0  0
   32.4488   42.7711    3.6216 O   0  0  0  0  0  0  0  0  0  0  0  0
   33.9093   37.9852    6.9558 C   0  0  2  0  0  0  0  0  0  0  0  0
   38.6103   39.2928    5.5889 C   0  0  2  0  0  0  0  0  0  0  0  0
   37.7796   38.8076    6.6342 O   0  0  0  0  0  0  0  0  0  0  0  0
   44.4839   39.9176    4.3044 C   0  0  2  0  0  0  0  0  0  0  0  0
   45.0795   38.6990    3.8282 O   0  0  0  0  0  0  0  0  0  0  0  0
   32.3340   40.3858    4.0668 C   0  0  2  0  0  0  0  0  0  0  0  0
   33.1627   39.1608    4.0175 O   0  0  0  0  0  0  0  0  0  0  0  0
   35.2765   37.3579    7.5300 C   0  0  2  0  0  0  0  0  0  0  0  0
   36.2428   37.0003    6.4565 O   0  0  0  0  0  0  0  0  0  0  0  0
   37.7108   39.9125    4.5295 C   0  0  0  0  0  0  0  0  0  0  0  0
   44.1582   39.8147    5.8496 C   0  0  1  0  0  0  0  0  0  0  0  0
   43.0544   38.8330    6.1234 O   0  0  0  0  0  0  0  0  0  0  0  0
   31.0731   40.2503    3.1817 C   0  0  0  0  0  0  0  0  0  0  0  0
   30.1642   39.1521    3.5586 N   0  0  0  0  0  0  0  0  0  0  0  0
   34.9610   36.0584    8.3011 C   0  0  1  0  0  0  0  0  0  0  0  0
   36.1760   35.4992    8.8109 O   0  0  0  0  0  0  0  0  0  0  0  0
   45.4218   39.4840    6.7335 C   0  0  0  0  0  0  0  0  0  0  0  0
   45.1871   39.3671    8.2082 N   0  0  0  0  0  0  0  0  0  0  0  0
  1  2  1  1  0  0  0
  1  7  1  0  0  0  0
  1 30  1  0  0  0  0
  3  4  1  6  0  0  0
  3  9  1  0  0  0  0
  3 38  1  0  0  0  0
  5 10  1  0  0  0  0
  5 26  1  6  0  0  0
  5 32  1  0  0  0  0
  6 12  1  0  0  0  0
  6 35  1  0  0  0  0
  6 19  1  6  0  0  0
  7  8  1  1  0  0  0
  7 14  1  0  0  0  0
  8 33  1  0  0  0  0
  9 16  1  0  0  0  0
 10 11  1  1  0  0  0
 10 18  1  0  0  0  0
 12 13  1  1  0  0  0
 12 20  1  0  0  0  0
 14 15  1  6  0  0  0
 14 22  1  0  0  0  0
 16 17  1  6  0  0  0
 16 24  1  0  0  0  0
 18 19  1  1  0  0  0
 18 25  1  0  0  0  0
 20 21  1  1  0  0  0
 20 27  1  0  0  0  0
 22 23  1  1  0  0  0
 22 29  1  0  0  0  0
 24  2  1  1  0  0  0
 24 31  1  0  0  0  0
 25 26  1  1  0  0  0
 25 33  1  0  0  0  0
 27 28  1  6  0  0  0
 27 34  1  0  0  0  0
 29 30  1  0  0  0  0
 29 36  1  6  0  0  0
 31 32  1  6  0  0  0
 31 38  1  0  0  0  0
 34 35  1  0  0  0  0
 34 40  1  1  0  0  0
 36 37  1  0  0  0  0
 38 39  1  1  0  0  0
 40 41  1  0  0  0  0
M  END
>  <CHROM.1>
174.47850288,-55.36199045,-179.65077537,-179.81619411,37.41559113,38.89761868
5.69206359,3.07884513,-0.03992610,2.35546659

>  <Name>
ligand

>  <RI>
0

>  <Rbt.Current_Directory>
/home/itssahil/PROJECTS/Mol_Feturizer/New_Systems/rnas/1ZZ5

>  <Rbt.Executable>
rbdock ($Id: //depot/dev/client3/rdock/2013.1/src/exe/rbdock.cxx#4 $)

>  <Rbt.Library>
libRbt.so (2013.1, Build901 2013/11/27)

>  <Rbt.Parameter_File>
/export/apps/rDock/src/rDock_2013.1_src/data/scripts/dock_solv.prm

>  <Rbt.Receptor>
prm/pocket_docking_5.prm

>  <SCORE>
-12.6474

>  <SCORE.INTER>
-10.1414

>  <SCORE.INTER.CONST>
1

>  <SCORE.INTER.POLAR>
0

>  <SCORE.INTER.ROT>
4

>  <SCORE.INTER.SOLV>
18.9202

>  <SCORE.INTER.VDW>
-19.3343

>  <SCORE.INTER.norm>
-0.247352

>  <SCORE.INTRA>
-2.506

>  <SCORE.INTRA.DIHEDRAL>
-4.69776

>  <SCORE.INTRA.DIHEDRAL.0>
5.18357

>  <SCORE.INTRA.POLAR>
0

>  <SCORE.INTRA.POLAR.0>
0

>  <SCORE.INTRA.REPUL>
0

>  <SCORE.INTRA.REPUL.0>
0

>  <SCORE.INTRA.SOLV>
-1.18258

>  <SCORE.INTRA.SOLV.lig_0>
-109.973

>  <SCORE.INTRA.VDW>
0.434166

>  <SCORE.INTRA.VDW.0>
-1.68646

>  <SCORE.INTRA.norm>
-0.061122

>  <SCORE.RESTR>
0

>  <SCORE.RESTR.CAVITY>
0

>  <SCORE.RESTR.norm>
0

>  <SCORE.SYSTEM>
0

>  <SCORE.SYSTEM.CONST>
0

>  <SCORE.SYSTEM.DIHEDRAL>
0

>  <SCORE.SYSTEM.SOLV>
0

>  <SCORE.SYSTEM.norm>
0

>  <SCORE.heavy>
41

>  <SCORE.norm>
-0.308474

>  <RMSD>
2.439

$$$$
ligand
 OpenBabel11021811423D
libRbt.so/2013.1/901 2013/11/27
 41 45  0  0  0  0  0  0  0  0999 V2000
   33.5587   38.8527    5.1126 C   0  0  2  0  0  0  0  0  0  0  0  0
   33.3464   39.0285    6.5270 O   0  0  0  0  0  0  0  0  0  0  0  0
   34.2102   36.7018   10.0989 C   0  0  2  0  0  0  0  0  0  0  0  0
   34.2994   35.5395   11.0201 N   0  0  0  0  0  0  0  0  0  0  0  0
   37.2854   38.3703    6.8379 C   0  0  1  0  0  0  0  0  0  0  0  0
   40.5729   41.0387    5.1181 C   0  0  1  0  0  0  0  0  0  0  0  0
   34.0049   40.1864    4.4421 C   0  0  2  0  0  0  0  0  0  0  0  0
   35.1763   40.7868    5.0875 N   0  0  0  0  0  0  0  0  0  0  0  0
   32.7342   36.8493    9.6112 C   0  0  0  0  0  0  0  0  0  0  0  0
   38.2179   37.9934    5.6640 C   0  0  2  0  0  0  0  0  0  0  0  0
   39.3175   37.1850    6.0953 O   0  0  0  0  0  0  0  0  0  0  0  0
   41.4307   40.8401    3.7964 C   0  0  2  0  0  0  0  0  0  0  0  0
   42.4960   39.7976    3.9112 N   0  0  0  0  0  0  0  0  0  0  0  0
   32.8291   41.2001    4.4287 C   0  0  1  0  0  0  0  0  0  0  0  0
   33.2333   42.4086    3.7905 O   0  0  0  0  0  0  0  0  0  0  0  0
   32.5805   38.0506    8.6337 C   0  0  2  0  0  0  0  0  0  0  0  0
   31.1636   38.1260    8.2303 N   0  0  0  0  0  0  0  0  0  0  0  0
   38.6624   39.3429    5.0746 C   0  0  2  0  0  0  0  0  0  0  0  0
   39.9860   39.7718    5.5879 O   0  0  0  0  0  0  0  0  0  0  0  0
   42.0816   42.2299    3.3600 C   0  0  1  0  0  0  0  0  0  0  0  0
   41.0709   43.1703    2.9346 O   0  0  0  0  0  0  0  0  0  0  0  0
   31.6138   40.5798    3.7013 C   0  0  2  0  0  0  0  0  0  0  0  0
   30.5458   41.5031    3.6699 O   0  0  0  0  0  0  0  0  0  0  0  0
   33.5473   37.8753    7.4095 C   0  0  2  0  0  0  0  0  0  0  0  0
   37.5584   40.3091    5.4949 C   0  0  2  0  0  0  0  0  0  0  0  0
   36.9645   39.7508    6.6584 O   0  0  0  0  0  0  0  0  0  0  0  0
   42.9251   42.8858    4.5262 C   0  0  2  0  0  0  0  0  0  0  0  0
   44.0832   42.0748    4.7860 O   0  0  0  0  0  0  0  0  0  0  0  0
   31.1829   39.2766    4.4034 C   0  0  2  0  0  0  0  0  0  0  0  0
   32.3417   38.3567    4.4282 O   0  0  0  0  0  0  0  0  0  0  0  0
   35.0659   37.7660    7.9335 C   0  0  2  0  0  0  0  0  0  0  0  0
   36.0437   37.5639    6.8303 O   0  0  0  0  0  0  0  0  0  0  0  0
   36.4644   40.4815    4.4514 C   0  0  0  0  0  0  0  0  0  0  0  0
   42.0312   43.0176    5.8254 C   0  0  1  0  0  0  0  0  0  0  0  0
   41.3867   41.7117    6.1946 O   0  0  0  0  0  0  0  0  0  0  0  0
   29.9830   38.6529    3.6532 C   0  0  0  0  0  0  0  0  0  0  0  0
   30.2308   38.3436    2.2329 N   0  0  0  0  0  0  0  0  0  0  0  0
   35.1971   36.5521    8.8778 C   0  0  1  0  0  0  0  0  0  0  0  0
   36.5470   36.4533    9.3431 O   0  0  0  0  0  0  0  0  0  0  0  0
   42.8084   43.6172    7.0599 C   0  0  0  0  0  0  0  0  0  0  0  0
   43.9812   42.8265    7.5526 N   0  0  0  0  0  0  0  0  0  0  0  0
  1  2  1  1  0  0  0
  1  7  1  0  0  0  0
  1 30  1  0  0  0  0
  3  4  1  1  0  0  0
  3  9  1  0  0  0  0
  3 38  1  0  0  0  0
  5 10  1  0  0  0  0
  5 26  1  6  0  0  0
  5 32  1  0  0  0  0
  6 12  1  0  0  0  0
  6 35  1  0  0  0  0
  6 19  1  1  0  0  0
  7  8  1  1  0  0  0
  7 14  1  0  0  0  0
  8 33  1  0  0  0  0
  9 16  1  0  0  0  0
 10 11  1  1  0  0  0
 10 18  1  0  0  0  0
 12 13  1  1  0  0  0
 12 20  1  0  0  0  0
 14 15  1  6  0  0  0
 14 22  1  0  0  0  0
 16 17  1  6  0  0  0
 16 24  1  0  0  0  0
 18 19  1  1  0  0  0
 18 25  1  0  0  0  0
 20 21  1  1  0  0  0
 20 27  1  0  0  0  0
 22 23  1  1  0  0  0
 22 29  1  0  0  0  0
 24  2  1  6  0  0  0
 24 31  1  0  0  0  0
 25 26  1  1  0  0  0
 25 33  1  0  0  0  0
 27 28  1  1  0  0  0
 27 34  1  0  0  0  0
 29 30  1  0  0  0  0
 29 36  1  6  0  0  0
 31 32  1  6  0  0  0
 31 38  1  0  0  0  0
 34 35  1  0  0  0  0
 34 40  1  1  0  0  0
 36 37  1  0  0  0  0
 38 39  1  1  0  0  0
 40 41  1  0  0  0  0
M  END
>  <CHROM.1>
179.42834991,-88.12846294,58.17127909,-61.61138327,36.57629719,39.69573284
5.85238913,2.87090833,0.19665891,2.24315338

>  <Name>
ligand

>  <RI>
0

>  <Rbt.Current_Directory>
/home/itssahil/PROJECTS/Mol_Feturizer/New_Systems/rnas/1ZZ5

>  <Rbt.Executable>
rbdock ($Id: //depot/dev/client3/rdock/2013.1/src/exe/rbdock.cxx#4 $)

>  <Rbt.Library>
libRbt.so (2013.1, Build901 2013/11/27)

>  <Rbt.Parameter_File>
/export/apps/rDock/src/rDock_2013.1_src/data/scripts/dock_solv.prm

>  <Rbt.Receptor>
prm/pocket_docking_4.prm

>  <SCORE>
-11.986

>  <SCORE.INTER>
-12.1165

>  <SCORE.INTER.CONST>
1

>  <SCORE.INTER.POLAR>
0

>  <SCORE.INTER.ROT>
4

>  <SCORE.INTER.SOLV>
20.2293

>  <SCORE.INTER.VDW>
-21.0874

>  <SCORE.INTER.norm>
-0.295524

>  <SCORE.INTRA>
0.130528

>  <SCORE.INTRA.DIHEDRAL>
-1.7548

>  <SCORE.INTRA.DIHEDRAL.0>
5.18357

>  <SCORE.INTRA.POLAR>
0

>  <SCORE.INTRA.POLAR.0>
0

>  <SCORE.INTRA.REPUL>
0

>  <SCORE.INTRA.REPUL.0>
0

>  <SCORE.INTRA.SOLV>
1.52616

>  <SCORE.INTRA.SOLV.lig_0>
-109.973

>  <SCORE.INTRA.VDW>
0.244845

>  <SCORE.INTRA.VDW.0>
-1.68646

>  <SCORE.INTRA.norm>
0.00318361

>  <SCORE.RESTR>
0

>  <SCORE.RESTR.CAVITY>
0

>  <SCORE.RESTR.norm>
0

>  <SCORE.SYSTEM>
0

>  <SCORE.SYSTEM.CONST>
0

>  <SCORE.SYSTEM.DIHEDRAL>
0

>  <SCORE.SYSTEM.SOLV>
0

>  <SCORE.SYSTEM.norm>
0

>  <SCORE.heavy>
41

>  <SCORE.norm>
-0.292341

>  <RMSD>
2.479

$$$$
ligand
 OpenBabel11021811423D
libRbt.so/2013.1/901 2013/11/27
 41 45  0  0  0  0  0  0  0  0999 V2000
   34.7368   38.7781    5.2514 C   0  0  2  0  0  0  0  0  0  0  0  0
   34.2217   38.9556    6.5854 O   0  0  0  0  0  0  0  0  0  0  0  0
   33.0848   36.3062    9.8421 C   0  0  2  0  0  0  0  0  0  0  0  0
   32.4576   35.1672   10.5608 N   0  0  0  0  0  0  0  0  0  0  0  0
   37.3449   36.7118    7.7062 C   0  0  1  0  0  0  0  0  0  0  0  0
   41.7414   37.8671    7.2631 C   0  0  1  0  0  0  0  0  0  0  0  0
   35.8306   39.8390    4.9264 C   0  0  2  0  0  0  0  0  0  0  0  0
   36.9111   39.8679    5.9168 N   0  0  0  0  0  0  0  0  0  0  0  0
   31.9803   37.0753    9.0504 C   0  0  0  0  0  0  0  0  0  0  0  0
   38.3486   36.0415    6.7403 C   0  0  2  0  0  0  0  0  0  0  0  0
   38.8834   34.8301    7.2837 O   0  0  0  0  0  0  0  0  0  0  0  0
   42.4791   37.7514    5.8615 C   0  0  2  0  0  0  0  0  0  0  0  0
   42.9313   36.3675    5.5223 N   0  0  0  0  0  0  0  0  0  0  0  0
   35.1907   41.2478    4.7983 C   0  0  1  0  0  0  0  0  0  0  0  0
   36.1903   42.2105    4.4744 O   0  0  0  0  0  0  0  0  0  0  0  0
   32.5815   38.2794    8.2688 C   0  0  2  0  0  0  0  0  0  0  0  0
   31.4776   38.9542    7.5603 N   0  0  0  0  0  0  0  0  0  0  0  0
   39.4242   37.1134    6.4951 C   0  0  2  0  0  0  0  0  0  0  0  0
   40.6095   36.9300    7.3674 O   0  0  0  0  0  0  0  0  0  0  0  0
   43.7229   38.7499    5.8208 C   0  0  1  0  0  0  0  0  0  0  0  0
   43.2883   40.1276    5.8290 O   0  0  0  0  0  0  0  0  0  0  0  0
   34.0869   41.2228    3.7158 C   0  0  2  0  0  0  0  0  0  0  0  0
   33.5121   42.5057    3.5814 O   0  0  0  0  0  0  0  0  0  0  0  0
   33.7071   37.7805    7.2948 C   0  0  2  0  0  0  0  0  0  0  0  0
   38.7077   38.4277    6.7921 C   0  0  2  0  0  0  0  0  0  0  0  0
   37.6446   38.1083    7.6787 O   0  0  0  0  0  0  0  0  0  0  0  0
   44.7101   38.5228    7.0354 C   0  0  2  0  0  0  0  0  0  0  0  0
   45.3440   37.2401    6.8962 O   0  0  0  0  0  0  0  0  0  0  0  0
   33.0096   40.1818    4.0796 C   0  0  2  0  0  0  0  0  0  0  0  0
   33.6673   38.8648    4.2296 O   0  0  0  0  0  0  0  0  0  0  0  0
   34.8536   37.0268    8.1374 C   0  0  2  0  0  0  0  0  0  0  0  0
   35.9446   36.4930    7.2778 O   0  0  0  0  0  0  0  0  0  0  0  0
   38.1044   39.0889    5.5616 C   0  0  0  0  0  0  0  0  0  0  0  0
   43.9109   38.6070    8.3986 C   0  0  1  0  0  0  0  0  0  0  0  0
   42.7152   37.6973    8.4020 O   0  0  0  0  0  0  0  0  0  0  0  0
   31.9244   40.1486    2.9783 C   0  0  0  0  0  0  0  0  0  0  0  0
   30.8015   39.2294    3.2397 N   0  0  0  0  0  0  0  0  0  0  0  0
   34.2370   35.8222    8.8800 C   0  0  1  0  0  0  0  0  0  0  0  0
   35.2557   35.1507    9.6282 O   0  0  0  0  0  0  0  0  0  0  0  0
   44.8096   38.3408    9.6670 C   0  0  0  0  0  0  0  0  0  0  0  0
   44.1429   38.5047   10.9982 N   0  0  0  0  0  0  0  0  0  0  0  0
  1  2  1  1  0  0  0
  1  7  1  0  0  0  0
  1 30  1  0  0  0  0
  3  4  1  6  0  0  0
  3  9  1  0  0  0  0
  3 38  1  0  0  0  0
  5 10  1  0  0  0  0
  5 26  1  6  0  0  0
  5 32  1  0  0  0  0
  6 12  1  0  0  0  0
  6 35  1  0  0  0  0
  6 19  1  6  0  0  0
  7  8  1  1  0  0  0
  7 14  1  0  0  0  0
  8 33  1  0  0  0  0
  9 16  1  0  0  0  0
 10 11  1  1  0  0  0
 10 18  1  0  0  0  0
 12 13  1  1  0  0  0
 12 20  1  0  0  0  0
 14 15  1  6  0  0  0
 14 22  1  0  0  0  0
 16 17  1  6  0  0  0
 16 24  1  0  0  0  0
 18 19  1  1  0  0  0
 18 25  1  0  0  0  0
 20 21  1  1  0  0  0
 20 27  1  0  0  0  0
 22 23  1  1  0  0  0
 22 29  1  0  0  0  0
 24  2  1  1  0  0  0
 24 31  1  0  0  0  0
 25 26  1  1  0  0  0
 25 33  1  0  0  0  0
 27 28  1  6  0  0  0
 27 34  1  0  0  0  0
 29 30  1  0  0  0  0
 29 36  1  6  0  0  0
 31 32  1  6  0  0  0
 31 38  1  0  0  0  0
 34 35  1  0  0  0  0
 34 40  1  1  0  0  0
 36 37  1  0  0  0  0
 38 39  1  1  0  0  0
 40 41  1  0  0  0  0
M  END
>  <CHROM.1>
179.80912457,-66.39491958,-177.45257786,175.59789359,37.45437684,38.24848927
6.76601309,-2.97458582,0.03101953,2.31179358

>  <Name>
ligand

>  <RI>
0

>  <Rbt.Current_Directory>
/home/itssahil/PROJECTS/Mol_Feturizer/New_Systems/rnas/1ZZ5

>  <Rbt.Executable>
rbdock ($Id: //depot/dev/client3/rdock/2013.1/src/exe/rbdock.cxx#4 $)

>  <Rbt.Library>
libRbt.so (2013.1, Build901 2013/11/27)

>  <Rbt.Parameter_File>
/export/apps/rDock/src/rDock_2013.1_src/data/scripts/dock_solv.prm

>  <Rbt.Receptor>
prm/pocket_docking_6.prm

>  <SCORE>
-10.823

>  <SCORE.INTER>
-8.23677

>  <SCORE.INTER.CONST>
1

>  <SCORE.INTER.POLAR>
0

>  <SCORE.INTER.ROT>
4

>  <SCORE.INTER.SOLV>
19.0535

>  <SCORE.INTER.VDW>
-18.109

>  <SCORE.INTER.norm>
-0.200897

>  <SCORE.INTRA>
-2.58626

>  <SCORE.INTRA.DIHEDRAL>
-4.65368

>  <SCORE.INTRA.DIHEDRAL.0>
5.18357

>  <SCORE.INTRA.POLAR>
0

>  <SCORE.INTRA.POLAR.0>
0

>  <SCORE.INTRA.REPUL>
0

>  <SCORE.INTRA.REPUL.0>
0

>  <SCORE.INTRA.SOLV>
-1.36046

>  <SCORE.INTRA.SOLV.lig_0>
-109.973

>  <SCORE.INTRA.VDW>
0.420806

>  <SCORE.INTRA.VDW.0>
-1.68646

>  <SCORE.INTRA.norm>
-0.0630796

>  <SCORE.RESTR>
0

>  <SCORE.RESTR.CAVITY>
0

>  <SCORE.RESTR.norm>
0

>  <SCORE.SYSTEM>
0

>  <SCORE.SYSTEM.CONST>
0

>  <SCORE.SYSTEM.DIHEDRAL>
0

>  <SCORE.SYSTEM.SOLV>
0

>  <SCORE.SYSTEM.norm>
0

>  <SCORE.heavy>
41

>  <SCORE.norm>
-0.263976

>  <RMSD>
2.527

$$$$
ligand
 OpenBabel11021811423D
libRbt.so/2013.1/901 2013/11/27
 41 45  0  0  0  0  0  0  0  0999 V2000
   34.3440   39.2471    4.7985 C   0  0  2  0  0  0  0  0  0  0  0  0
   33.9900   39.3281    6.1930 O   0  0  0  0  0  0  0  0  0  0  0  0
   33.9163   36.5442    9.5340 C   0  0  2  0  0  0  0  0  0  0  0  0
   33.6577   35.3067   10.3145 N   0  0  0  0  0  0  0  0  0  0  0  0
   37.6514   37.8386    6.8418 C   0  0  1  0  0  0  0  0  0  0  0  0
   40.7438   38.8717    7.5314 C   0  0  1  0  0  0  0  0  0  0  0  0
   35.1244   40.5164    4.3430 C   0  0  2  0  0  0  0  0  0  0  0  0
   36.2975   40.7959    5.1766 N   0  0  0  0  0  0  0  0  0  0  0  0
   32.5728   37.0411    8.9127 C   0  0  0  0  0  0  0  0  0  0  0  0
   38.6356   37.3892    5.7376 C   0  0  2  0  0  0  0  0  0  0  0  0
   39.4914   36.3326    6.1843 O   0  0  0  0  0  0  0  0  0  0  0  0
   40.2417   40.2940    8.0285 C   0  0  2  0  0  0  0  0  0  0  0  0
   40.9692   41.4467    7.4145 N   0  0  0  0  0  0  0  0  0  0  0  0
   34.1807   41.7490    4.3250 C   0  0  1  0  0  0  0  0  0  0  0  0
   34.8917   42.9020    3.8821 O   0  0  0  0  0  0  0  0  0  0  0  0
   32.7834   38.3354    8.0745 C   0  0  2  0  0  0  0  0  0  0  0  0
   31.4724   38.7417    7.5340 N   0  0  0  0  0  0  0  0  0  0  0  0
   39.4069   38.6665    5.3638 C   0  0  2  0  0  0  0  0  0  0  0  0
   40.7116   38.7601    6.0628 O   0  0  0  0  0  0  0  0  0  0  0  0
   40.3433   40.3780    9.6186 C   0  0  1  0  0  0  0  0  0  0  0  0
   39.4047   39.4802   10.2509 O   0  0  0  0  0  0  0  0  0  0  0  0
   32.9716   41.4669    3.4035 C   0  0  2  0  0  0  0  0  0  0  0  0
   32.1174   42.5909    3.3685 O   0  0  0  0  0  0  0  0  0  0  0  0
   33.8468   38.0799    6.9482 C   0  0  2  0  0  0  0  0  0  0  0  0
   38.4679   39.7968    5.7760 C   0  0  2  0  0  0  0  0  0  0  0  0
   37.6319   39.2663    6.7947 O   0  0  0  0  0  0  0  0  0  0  0  0
   41.7974   40.0418   10.1420 C   0  0  2  0  0  0  0  0  0  0  0  0
   42.7020   41.0776    9.7235 O   0  0  0  0  0  0  0  0  0  0  0  0
   32.2080   40.2212    3.8954 C   0  0  2  0  0  0  0  0  0  0  0  0
   33.1519   39.0823    3.9340 O   0  0  0  0  0  0  0  0  0  0  0  0
   35.2345   37.6079    7.6145 C   0  0  2  0  0  0  0  0  0  0  0  0
   36.2877   37.3125    6.6058 O   0  0  0  0  0  0  0  0  0  0  0  0
   37.5722   40.2913    4.6497 C   0  0  0  0  0  0  0  0  0  0  0  0
   42.2576   38.6360    9.5797 C   0  0  1  0  0  0  0  0  0  0  0  0
   42.1098   38.5562    8.0868 O   0  0  0  0  0  0  0  0  0  0  0  0
   31.0161   39.9348    2.9526 C   0  0  0  0  0  0  0  0  0  0  0  0
   30.1645   38.8001    3.3544 N   0  0  0  0  0  0  0  0  0  0  0  0
   35.0037   36.3091    8.4161 C   0  0  1  0  0  0  0  0  0  0  0  0
   36.2371   35.8881    9.0077 O   0  0  0  0  0  0  0  0  0  0  0  0
   43.7223   38.2402   10.0105 C   0  0  0  0  0  0  0  0  0  0  0  0
   43.9854   38.1750   11.4836 N   0  0  0  0  0  0  0  0  0  0  0  0
  1  2  1  1  0  0  0
  1  7  1  0  0  0  0
  1 30  1  0  0  0  0
  3  4  1  6  0  0  0
  3  9  1  0  0  0  0
  3 38  1  0  0  0  0
  5 10  1  0  0  0  0
  5 26  1  6  0  0  0
  5 32  1  0  0  0  0
  6 12  1  0  0  0  0
  6 35  1  0  0  0  0
  6 19  1  6  0  0  0
  7  8  1  1  0  0  0
  7 14  1  0  0  0  0
  8 33  1  0  0  0  0
  9 16  1  0  0  0  0
 10 11  1  1  0  0  0
 10 18  1  0  0  0  0
 12 13  1  6  0  0  0
 12 20  1  0  0  0  0
 14 15  1  6  0  0  0
 14 22  1  0  0  0  0
 16 17  1  6  0  0  0
 16 24  1  0  0  0  0
 18 19  1  1  0  0  0
 18 25  1  0  0  0  0
 20 21  1  1  0  0  0
 20 27  1  0  0  0  0
 22 23  1  1  0  0  0
 22 29  1  0  0  0  0
 24  2  1  1  0  0  0
 24 31  1  0  0  0  0
 25 26  1  1  0  0  0
 25 33  1  0  0  0  0
 27 28  1  6  0  0  0
 27 34  1  0  0  0  0
 29 30  1  0  0  0  0
 29 36  1  6  0  0  0
 31 32  1  6  0  0  0
 31 38  1  0  0  0  0
 34 35  1  0  0  0  0
 34 40  1  6  0  0  0
 36 37  1  0  0  0  0
 38 39  1  1  0  0  0
 40 41  1  0  0  0  0
M  END
>  <CHROM.1>
-63.78134762,-71.32987397,-177.19982167,58.10839580,36.83697519,39.06371159
6.86766574,-2.78341459,0.25418293,2.31913184

>  <Name>
ligand

>  <RI>
0

>  <Rbt.Current_Directory>
/home/itssahil/PROJECTS/Mol_Feturizer/New_Systems/rnas/1ZZ5

>  <Rbt.Executable>
rbdock ($Id: //depot/dev/client3/rdock/2013.1/src/exe/rbdock.cxx#4 $)

>  <Rbt.Library>
libRbt.so (2013.1, Build901 2013/11/27)

>  <Rbt.Parameter_File>
/export/apps/rDock/src/rDock_2013.1_src/data/scripts/dock_solv.prm

>  <Rbt.Receptor>
prm/pocket_docking_4.prm

>  <SCORE>
-8.62928

>  <SCORE.INTER>
-7.37938

>  <SCORE.INTER.CONST>
1

>  <SCORE.INTER.POLAR>
0

>  <SCORE.INTER.ROT>
4

>  <SCORE.INTER.SOLV>
19.5371

>  <SCORE.INTER.VDW>
-17.6986

>  <SCORE.INTER.norm>
-0.179985

>  <SCORE.INTRA>
-1.2499

>  <SCORE.INTRA.DIHEDRAL>
-4.2345

>  <SCORE.INTRA.DIHEDRAL.0>
5.18357

>  <SCORE.INTRA.POLAR>
0

>  <SCORE.INTRA.POLAR.0>
0

>  <SCORE.INTRA.REPUL>
0

>  <SCORE.INTRA.REPUL.0>
0

>  <SCORE.INTRA.SOLV>
0.728269

>  <SCORE.INTRA.SOLV.lig_0>
-109.973

>  <SCORE.INTRA.VDW>
0.50322

>  <SCORE.INTRA.VDW.0>
-1.68646

>  <SCORE.INTRA.norm>
-0.0304853

>  <SCORE.RESTR>
0

>  <SCORE.RESTR.CAVITY>
0

>  <SCORE.RESTR.norm>
0

>  <SCORE.SYSTEM>
0

>  <SCORE.SYSTEM.CONST>
0

>  <SCORE.SYSTEM.DIHEDRAL>
0

>  <SCORE.SYSTEM.SOLV>
0

>  <SCORE.SYSTEM.norm>
0

>  <SCORE.heavy>
41

>  <SCORE.norm>
-0.21047

>  <RMSD>
2.708

$$$$
ligand
 OpenBabel11021811423D
libRbt.so/2013.1/901 2013/11/27
 41 45  0  0  0  0  0  0  0  0999 V2000
   34.7695   38.7072    5.3004 C   0  0  2  0  0  0  0  0  0  0  0  0
   34.2281   38.8929    6.6228 O   0  0  0  0  0  0  0  0  0  0  0  0
   32.9277   36.2611    9.8322 C   0  0  2  0  0  0  0  0  0  0  0  0
   32.2470   35.1384   10.5275 N   0  0  0  0  0  0  0  0  0  0  0  0
   37.2494   36.5424    7.8026 C   0  0  1  0  0  0  0  0  0  0  0  0
   41.7011   37.5421    7.4560 C   0  0  1  0  0  0  0  0  0  0  0  0
   35.9044   39.7344    5.0094 C   0  0  2  0  0  0  0  0  0  0  0  0
   36.9609   39.7221    6.0257 N   0  0  0  0  0  0  0  0  0  0  0  0
   31.8682   37.0705    9.0196 C   0  0  0  0  0  0  0  0  0  0  0  0
   38.2543   35.8461    6.8565 C   0  0  2  0  0  0  0  0  0  0  0  0
   38.7365   34.6147    7.4041 O   0  0  0  0  0  0  0  0  0  0  0  0
   42.3652   37.5033    6.0139 C   0  0  2  0  0  0  0  0  0  0  0  0
   42.7261   36.1304    5.5451 N   0  0  0  0  0  0  0  0  0  0  0  0
   35.3135   41.1638    4.8758 C   0  0  1  0  0  0  0  0  0  0  0  0
   36.3511   42.0958    4.5830 O   0  0  0  0  0  0  0  0  0  0  0  0
   32.5266   38.2594    8.2613 C   0  0  2  0  0  0  0  0  0  0  0  0
   31.4625   38.9740    7.5312 N   0  0  0  0  0  0  0  0  0  0  0  0
   39.3694   36.8843    6.6449 C   0  0  2  0  0  0  0  0  0  0  0  0
   40.5267   36.6572    7.5442 O   0  0  0  0  0  0  0  0  0  0  0  0
   43.6575   38.4387    5.9881 C   0  0  1  0  0  0  0  0  0  0  0  0
   43.2983   39.8311    6.1261 O   0  0  0  0  0  0  0  0  0  0  0  0
   34.2361   41.1813    3.7669 C   0  0  2  0  0  0  0  0  0  0  0  0
   33.7063   42.4829    3.6278 O   0  0  0  0  0  0  0  0  0  0  0  0
   33.6589   37.7306    7.3112 C   0  0  2  0  0  0  0  0  0  0  0  0
   38.6885   38.2191    6.9339 C   0  0  2  0  0  0  0  0  0  0  0  0
   37.5944   37.9286    7.7923 O   0  0  0  0  0  0  0  0  0  0  0  0
   44.6868   38.0654    7.1295 C   0  0  2  0  0  0  0  0  0  0  0  0
   45.2437   36.7682    6.8585 O   0  0  0  0  0  0  0  0  0  0  0  0
   33.1174   40.1734    4.0972 C   0  0  2  0  0  0  0  0  0  0  0  0
   33.7286   38.8349    4.2537 O   0  0  0  0  0  0  0  0  0  0  0  0
   34.7598   36.9349    8.1758 C   0  0  2  0  0  0  0  0  0  0  0  0
   35.8536   36.3716    7.3391 O   0  0  0  0  0  0  0  0  0  0  0  0
   38.1369   38.9072    5.6939 C   0  0  0  0  0  0  0  0  0  0  0  0
   43.9578   38.0792    8.5340 C   0  0  1  0  0  0  0  0  0  0  0  0
   42.7165   37.2328    8.5272 O   0  0  0  0  0  0  0  0  0  0  0  0
   32.0587   40.1822    2.9698 C   0  0  0  0  0  0  0  0  0  0  0  0
   30.8866   39.3208    3.2112 N   0  0  0  0  0  0  0  0  0  0  0  0
   34.0869   35.7462    8.8948 C   0  0  1  0  0  0  0  0  0  0  0  0
   35.0650   35.0374    9.6626 O   0  0  0  0  0  0  0  0  0  0  0  0
   44.8993   37.6671    9.7304 C   0  0  0  0  0  0  0  0  0  0  0  0
   46.0612   38.5725   10.0019 N   0  0  0  0  0  0  0  0  0  0  0  0
  1  2  1  1  0  0  0
  1  7  1  0  0  0  0
  1 30  1  0  0  0  0
  3  4  1  6  0  0  0
  3  9  1  0  0  0  0
  3 38  1  0  0  0  0
  5 10  1  0  0  0  0
  5 26  1  6  0  0  0
  5 32  1  0  0  0  0
  6 12  1  0  0  0  0
  6 35  1  0  0  0  0
  6 19  1  6  0  0  0
  7  8  1  1  0  0  0
  7 14  1  0  0  0  0
  8 33  1  0  0  0  0
  9 16  1  0  0  0  0
 10 11  1  1  0  0  0
 10 18  1  0  0  0  0
 12 13  1  1  0  0  0
 12 20  1  0  0  0  0
 14 15  1  6  0  0  0
 14 22  1  0  0  0  0
 16 17  1  6  0  0  0
 16 24  1  0  0  0  0
 18 19  1  1  0  0  0
 18 25  1  0  0  0  0
 20 21  1  1  0  0  0
 20 27  1  0  0  0  0
 22 23  1  1  0  0  0
 22 29  1  0  0  0  0
 24  2  1  1  0  0  0
 24 31  1  0  0  0  0
 25 26  1  1  0  0  0
 25 33  1  0  0  0  0
 27 28  1  6  0  0  0
 27 34  1  0  0  0  0
 29 30  1  0  0  0  0
 29 36  1  6  0  0  0
 31 32  1  6  0  0  0
 31 38  1  0  0  0  0
 34 35  1  0  0  0  0
 34 40  1  1  0  0  0
 36 37  1  0  0  0  0
 38 39  1  1  0  0  0
 40 41  1  0  0  0  0
M  END
>  <CHROM.1>
178.63782749,-59.88406527,-176.15991086,63.57118402,37.48006389,38.08420715
6.81270420,-2.96118554,0.01860145,2.34177296

>  <Name>
ligand

>  <RI>
0

>  <Rbt.Current_Directory>
/home/itssahil/PROJECTS/Mol_Feturizer/New_Systems/rnas/1ZZ5

>  <Rbt.Executable>
rbdock ($Id: //depot/dev/client3/rdock/2013.1/src/exe/rbdock.cxx#4 $)

>  <Rbt.Library>
libRbt.so (2013.1, Build901 2013/11/27)

>  <Rbt.Parameter_File>
/export/apps/rDock/src/rDock_2013.1_src/data/scripts/dock_solv.prm

>  <Rbt.Receptor>
prm/pocket_docking_7.prm

>  <SCORE>
-10.9374

>  <SCORE.INTER>
-8.49214

>  <SCORE.INTER.CONST>
1

>  <SCORE.INTER.POLAR>
0

>  <SCORE.INTER.ROT>
4

>  <SCORE.INTER.SOLV>
19.0742

>  <SCORE.INTER.VDW>
-18.2862

>  <SCORE.INTER.norm>
-0.207125

>  <SCORE.INTRA>
-2.44523

>  <SCORE.INTRA.DIHEDRAL>
-4.8492

>  <SCORE.INTRA.DIHEDRAL.0>
5.18357

>  <SCORE.INTRA.POLAR>
0

>  <SCORE.INTRA.POLAR.0>
0

>  <SCORE.INTRA.REPUL>
0

>  <SCORE.INTRA.REPUL.0>
0

>  <SCORE.INTRA.SOLV>
-0.886053

>  <SCORE.INTRA.SOLV.lig_0>
-109.973

>  <SCORE.INTRA.VDW>
0.422396

>  <SCORE.INTRA.VDW.0>
-1.68646

>  <SCORE.INTRA.norm>
-0.0596398

>  <SCORE.RESTR>
0

>  <SCORE.RESTR.CAVITY>
0

>  <SCORE.RESTR.norm>
0

>  <SCORE.SYSTEM>
0

>  <SCORE.SYSTEM.CONST>
0

>  <SCORE.SYSTEM.DIHEDRAL>
0

>  <SCORE.SYSTEM.SOLV>
0

>  <SCORE.SYSTEM.norm>
0

>  <SCORE.heavy>
41

>  <SCORE.norm>
-0.266765

>  <RMSD>
2.711

$$$$
ligand
 OpenBabel11021811423D
libRbt.so/2013.1/901 2013/11/27
 41 45  0  0  0  0  0  0  0  0999 V2000
   34.2740   39.1821    4.8389 C   0  0  2  0  0  0  0  0  0  0  0  0
   33.9075   39.2787    6.2292 O   0  0  0  0  0  0  0  0  0  0  0  0
   33.7931   36.5294    9.5976 C   0  0  2  0  0  0  0  0  0  0  0  0
   33.5229   35.3009   10.3883 N   0  0  0  0  0  0  0  0  0  0  0  0
   37.5574   37.7831    6.9269 C   0  0  1  0  0  0  0  0  0  0  0  0
   40.6461   38.8606    7.6294 C   0  0  1  0  0  0  0  0  0  0  0  0
   35.0631   40.4440    4.3777 C   0  0  2  0  0  0  0  0  0  0  0  0
   36.2295   40.7279    5.2192 N   0  0  0  0  0  0  0  0  0  0  0  0
   32.4571   37.0246    8.9589 C   0  0  0  0  0  0  0  0  0  0  0  0
   38.5500   37.3190    5.8364 C   0  0  2  0  0  0  0  0  0  0  0  0
   39.3980   36.2640    6.3018 O   0  0  0  0  0  0  0  0  0  0  0  0
   40.2164   40.3287    8.0560 C   0  0  2  0  0  0  0  0  0  0  0  0
   41.0145   41.4118    7.4042 N   0  0  0  0  0  0  0  0  0  0  0  0
   34.1240   41.6797    4.3385 C   0  0  1  0  0  0  0  0  0  0  0  0
   34.8432   42.8256    3.8903 O   0  0  0  0  0  0  0  0  0  0  0  0
   32.6802   38.3095    8.1095 C   0  0  2  0  0  0  0  0  0  0  0  0
   31.3756   38.7149    7.5529 N   0  0  0  0  0  0  0  0  0  0  0  0
   39.3294   38.5897    5.4568 C   0  0  2  0  0  0  0  0  0  0  0  0
   40.6279   38.6858    6.1668 O   0  0  0  0  0  0  0  0  0  0  0  0
   40.3007   40.4776    9.6423 C   0  0  1  0  0  0  0  0  0  0  0  0
   39.3056   39.6610   10.2980 O   0  0  0  0  0  0  0  0  0  0  0  0
   32.9224   41.3924    3.4088 C   0  0  2  0  0  0  0  0  0  0  0  0
   32.0726   42.5189    3.3544 O   0  0  0  0  0  0  0  0  0  0  0  0
   33.7529   38.0388    6.9958 C   0  0  2  0  0  0  0  0  0  0  0  0
   38.3907   39.7274    5.8487 C   0  0  2  0  0  0  0  0  0  0  0  0
   37.5435   39.2103    6.8650 O   0  0  0  0  0  0  0  0  0  0  0  0
   41.7268   40.0863   10.2032 C   0  0  2  0  0  0  0  0  0  0  0  0
   42.6927   41.0519    9.7545 O   0  0  0  0  0  0  0  0  0  0  0  0
   32.1499   40.1545    3.9063 C   0  0  2  0  0  0  0  0  0  0  0  0
   33.0894   39.0127    3.9652 O   0  0  0  0  0  0  0  0  0  0  0  0
   35.1327   37.5688    7.6796 C   0  0  2  0  0  0  0  0  0  0  0  0
   36.1941   37.2594    6.6837 O   0  0  0  0  0  0  0  0  0  0  0  0
   37.5071   40.2135    4.7093 C   0  0  0  0  0  0  0  0  0  0  0  0
   42.1167   38.6340    9.7102 C   0  0  1  0  0  0  0  0  0  0  0  0
   41.9851   38.4962    8.2199 O   0  0  0  0  0  0  0  0  0  0  0  0
   30.9657   39.8626    2.9555 C   0  0  0  0  0  0  0  0  0  0  0  0
   29.8867   40.8673    2.9801 N   0  0  0  0  0  0  0  0  0  0  0  0
   34.8899   36.2791    8.4923 C   0  0  1  0  0  0  0  0  0  0  0  0
   36.1163   35.8598    9.0995 O   0  0  0  0  0  0  0  0  0  0  0  0
   43.5513   38.1787   10.1812 C   0  0  0  0  0  0  0  0  0  0  0  0
   43.8047   38.2075   11.6571 N   0  0  0  0  0  0  0  0  0  0  0  0
  1  2  1  1  0  0  0
  1  7  1  0  0  0  0
  1 30  1  0  0  0  0
  3  4  1  6  0  0  0
  3  9  1  0  0  0  0
  3 38  1  0  0  0  0
  5 10  1  0  0  0  0
  5 26  1  6  0  0  0
  5 32  1  0  0  0  0
  6 12  1  0  0  0  0
  6 35  1  0  0  0  0
  6 19  1  6  0  0  0
  7  8  1  1  0  0  0
  7 14  1  0  0  0  0
  8 33  1  0  0  0  0
  9 16  1  0  0  0  0
 10 11  1  1  0  0  0
 10 18  1  0  0  0  0
 12 13  1  6  0  0  0
 12 20  1  0  0  0  0
 14 15  1  6  0  0  0
 14 22  1  0  0  0  0
 16 17  1  6  0  0  0
 16 24  1  0  0  0  0
 18 19  1  1  0  0  0
 18 25  1  0  0  0  0
 20 21  1  1  0  0  0
 20 27  1  0  0  0  0
 22 23  1  1  0  0  0
 22 29  1  0  0  0  0
 24  2  1  1  0  0  0
 24 31  1  0  0  0  0
 25 26  1  1  0  0  0
 25 33  1  0  0  0  0
 27 28  1  6  0  0  0
 27 34  1  0  0  0  0
 29 30  1  0  0  0  0
 29 36  1  6  0  0  0
 31 32  1  6  0  0  0
 31 38  1  0  0  0  0
 34 35  1  0  0  0  0
 34 40  1  6  0  0  0
 36 37  1  0  0  0  0
 38 39  1  1  0  0  0
 40 41  1  0  0  0  0
M  END
>  <CHROM.1>
-65.94994649,-73.24208500,-68.20446470,56.18131914,36.74909840,39.07959183
6.91719668,-2.75790901,0.24798719,2.31829091

>  <Name>
ligand

>  <RI>
0

>  <Rbt.Current_Directory>
/home/itssahil/PROJECTS/Mol_Feturizer/New_Systems/rnas/1ZZ5

>  <Rbt.Executable>
rbdock ($Id: //depot/dev/client3/rdock/2013.1/src/exe/rbdock.cxx#4 $)

>  <Rbt.Library>
libRbt.so (2013.1, Build901 2013/11/27)

>  <Rbt.Parameter_File>
/export/apps/rDock/src/rDock_2013.1_src/data/scripts/dock_solv.prm

>  <Rbt.Receptor>
prm/pocket_docking_5.prm

>  <SCORE>
-8.13228

>  <SCORE.INTER>
-7.72989

>  <SCORE.INTER.CONST>
1

>  <SCORE.INTER.POLAR>
0

>  <SCORE.INTER.ROT>
4

>  <SCORE.INTER.SOLV>
18.2801

>  <SCORE.INTER.VDW>
-17.5133

>  <SCORE.INTER.norm>
-0.188534

>  <SCORE.INTRA>
-0.402385

>  <SCORE.INTRA.DIHEDRAL>
-3.6682

>  <SCORE.INTRA.DIHEDRAL.0>
5.18357

>  <SCORE.INTRA.POLAR>
0

>  <SCORE.INTRA.POLAR.0>
0

>  <SCORE.INTRA.REPUL>
0

>  <SCORE.INTRA.REPUL.0>
0

>  <SCORE.INTRA.SOLV>
1.73371

>  <SCORE.INTRA.SOLV.lig_0>
-109.973

>  <SCORE.INTRA.VDW>
0.564861

>  <SCORE.INTRA.VDW.0>
-1.68646

>  <SCORE.INTRA.norm>
-0.00981427

>  <SCORE.RESTR>
0

>  <SCORE.RESTR.CAVITY>
0

>  <SCORE.RESTR.norm>
0

>  <SCORE.SYSTEM>
0

>  <SCORE.SYSTEM.CONST>
0

>  <SCORE.SYSTEM.DIHEDRAL>
0

>  <SCORE.SYSTEM.SOLV>
0

>  <SCORE.SYSTEM.norm>
0

>  <SCORE.heavy>
41

>  <SCORE.norm>
-0.198348

>  <RMSD>
2.771

$$$$
ligand
 OpenBabel11021811423D
libRbt.so/2013.1/901 2013/11/27
 41 45  0  0  0  0  0  0  0  0999 V2000
   34.9952   39.3711    4.7711 C   0  0  2  0  0  0  0  0  0  0  0  0
   34.6087   39.3461    6.1591 O   0  0  0  0  0  0  0  0  0  0  0  0
   34.2550   36.2748    9.2184 C   0  0  2  0  0  0  0  0  0  0  0  0
   33.8923   34.9909    9.8721 N   0  0  0  0  0  0  0  0  0  0  0  0
   38.1423   37.5521    6.7421 C   0  0  1  0  0  0  0  0  0  0  0  0
   42.3109   37.3671    5.6947 C   0  0  1  0  0  0  0  0  0  0  0  0
   35.8715   40.6201    4.4550 C   0  0  2  0  0  0  0  0  0  0  0  0
   37.0369   40.7386    5.3364 N   0  0  0  0  0  0  0  0  0  0  0  0
   32.9657   36.9195    8.6183 C   0  0  0  0  0  0  0  0  0  0  0  0
   39.1246   37.1404    5.6216 C   0  0  2  0  0  0  0  0  0  0  0  0
   39.8948   35.9898    5.9844 O   0  0  0  0  0  0  0  0  0  0  0  0
   43.5804   37.4013    6.6483 C   0  0  2  0  0  0  0  0  0  0  0  0
   44.1844   38.7590    6.8118 N   0  0  0  0  0  0  0  0  0  0  0  0
   35.0135   41.9116    4.5338 C   0  0  1  0  0  0  0  0  0  0  0  0
   35.8123   43.0487    4.2177 O   0  0  0  0  0  0  0  0  0  0  0  0
   33.2861   38.2686    7.9114 C   0  0  2  0  0  0  0  0  0  0  0  0
   32.0210   38.8135    7.3839 N   0  0  0  0  0  0  0  0  0  0  0  0
   39.9900   38.3903    5.3875 C   0  0  2  0  0  0  0  0  0  0  0  0
   41.2780   38.3275    6.1201 O   0  0  0  0  0  0  0  0  0  0  0  0
   44.6849   36.3807    6.1153 C   0  0  1  0  0  0  0  0  0  0  0  0
   44.2385   35.0128    6.2432 O   0  0  0  0  0  0  0  0  0  0  0  0
   33.8144   41.8012    3.5639 C   0  0  2  0  0  0  0  0  0  0  0  0
   33.0388   42.9802    3.6174 O   0  0  0  0  0  0  0  0  0  0  0  0
   34.3610   38.0459    6.7892 C   0  0  2  0  0  0  0  0  0  0  0  0
   39.1179   39.5397    5.8848 C   0  0  2  0  0  0  0  0  0  0  0  0
   38.2200   38.9759    6.8303 O   0  0  0  0  0  0  0  0  0  0  0  0
   45.0661   36.6500    4.6041 C   0  0  2  0  0  0  0  0  0  0  0  0
   45.7450   37.9133    4.5054 O   0  0  0  0  0  0  0  0  0  0  0  0
   32.9555   40.5711    3.9189 C   0  0  2  0  0  0  0  0  0  0  0  0
   33.8195   39.3708    3.8695 O   0  0  0  0  0  0  0  0  0  0  0  0
   35.6948   37.4187    7.4373 C   0  0  2  0  0  0  0  0  0  0  0  0
   36.7535   37.1462    6.4279 O   0  0  0  0  0  0  0  0  0  0  0  0
   38.2891   40.1980    4.7915 C   0  0  0  0  0  0  0  0  0  0  0  0
   43.7585   36.6464    3.7127 C   0  0  1  0  0  0  0  0  0  0  0  0
   42.7101   37.5757    4.2555 O   0  0  0  0  0  0  0  0  0  0  0  0
   31.7739   40.4573    2.9277 C   0  0  0  0  0  0  0  0  0  0  0  0
   30.8624   39.3248    3.1746 N   0  0  0  0  0  0  0  0  0  0  0  0
   35.3550   36.0701    8.1069 C   0  0  1  0  0  0  0  0  0  0  0  0
   36.5404   35.5111    8.6822 O   0  0  0  0  0  0  0  0  0  0  0  0
   44.0382   36.9589    2.1923 C   0  0  0  0  0  0  0  0  0  0  0  0
   42.8539   36.9101    1.2767 N   0  0  0  0  0  0  0  0  0  0  0  0
  1  2  1  1  0  0  0
  1  7  1  0  0  0  0
  1 30  1  0  0  0  0
  3  4  1  6  0  0  0
  3  9  1  0  0  0  0
  3 38  1  0  0  0  0
  5 10  1  0  0  0  0
  5 26  1  6  0  0  0
  5 32  1  0  0  0  0
  6 12  1  0  0  0  0
  6 35  1  0  0  0  0
  6 19  1  1  0  0  0
  7  8  1  1  0  0  0
  7 14  1  0  0  0  0
  8 33  1  0  0  0  0
  9 16  1  0  0  0  0
 10 11  1  1  0  0  0
 10 18  1  0  0  0  0
 12 13  1  6  0  0  0
 12 20  1  0  0  0  0
 14 15  1  6  0  0  0
 14 22  1  0  0  0  0
 16 17  1  6  0  0  0
 16 24  1  0  0  0  0
 18 19  1  1  0  0  0
 18 25  1  0  0  0  0
 20 21  1  6  0  0  0
 20 27  1  0  0  0  0
 22 23  1  1  0  0  0
 22 29  1  0  0  0  0
 24  2  1  1  0  0  0
 24 31  1  0  0  0  0
 25 26  1  1  0  0  0
 25 33  1  0  0  0  0
 27 28  1  1  0  0  0
 27 34  1  0  0  0  0
 29 30  1  0  0  0  0
 29 36  1  6  0  0  0
 31 32  1  6  0  0  0
 31 38  1  0  0  0  0
 34 35  1  0  0  0  0
 34 40  1  6  0  0  0
 36 37  1  0  0  0  0
 38 39  1  1  0  0  0
 40 41  1  0  0  0  0
M  END
>  <CHROM.1>
69.75356109,-177.01172713,-179.16134396,177.28053379,37.87768570,38.36378427
5.61053128,-3.02242341,-0.21031951,2.34062759

>  <Name>
ligand

>  <RI>
0

>  <Rbt.Current_Directory>
/home/itssahil/PROJECTS/Mol_Feturizer/New_Systems/rnas/1ZZ5

>  <Rbt.Executable>
rbdock ($Id: //depot/dev/client3/rdock/2013.1/src/exe/rbdock.cxx#4 $)

>  <Rbt.Library>
libRbt.so (2013.1, Build901 2013/11/27)

>  <Rbt.Parameter_File>
/export/apps/rDock/src/rDock_2013.1_src/data/scripts/dock_solv.prm

>  <Rbt.Receptor>
prm/pocket_docking_7.prm

>  <SCORE>
-11.1183

>  <SCORE.INTER>
-8.77971

>  <SCORE.INTER.CONST>
1

>  <SCORE.INTER.POLAR>
0

>  <SCORE.INTER.ROT>
4

>  <SCORE.INTER.SOLV>
17.9608

>  <SCORE.INTER.VDW>
-18.1067

>  <SCORE.INTER.norm>
-0.214139

>  <SCORE.INTRA>
-2.33854

>  <SCORE.INTRA.DIHEDRAL>
-4.41839

>  <SCORE.INTRA.DIHEDRAL.0>
5.18357

>  <SCORE.INTRA.POLAR>
0

>  <SCORE.INTRA.POLAR.0>
0

>  <SCORE.INTRA.REPUL>
0

>  <SCORE.INTRA.REPUL.0>
0

>  <SCORE.INTRA.SOLV>
-1.3914

>  <SCORE.INTRA.SOLV.lig_0>
-109.973

>  <SCORE.INTRA.VDW>
0.566356

>  <SCORE.INTRA.VDW.0>
-1.68646

>  <SCORE.INTRA.norm>
-0.0570376

>  <SCORE.RESTR>
0

>  <SCORE.RESTR.CAVITY>
0

>  <SCORE.RESTR.norm>
0

>  <SCORE.SYSTEM>
0

>  <SCORE.SYSTEM.CONST>
0

>  <SCORE.SYSTEM.DIHEDRAL>
0

>  <SCORE.SYSTEM.SOLV>
0

>  <SCORE.SYSTEM.norm>
0

>  <SCORE.heavy>
41

>  <SCORE.norm>
-0.271177

>  <RMSD>
2.787

$$$$
ligand
 OpenBabel11021811423D
libRbt.so/2013.1/901 2013/11/27
 41 45  0  0  0  0  0  0  0  0999 V2000
   35.8458   40.3841    4.8442 C   0  0  2  0  0  0  0  0  0  0  0  0
   35.5095   39.9224    6.1672 O   0  0  0  0  0  0  0  0  0  0  0  0
   37.1266   36.9664    8.9176 C   0  0  2  0  0  0  0  0  0  0  0  0
   37.6690   35.6785    9.4220 N   0  0  0  0  0  0  0  0  0  0  0  0
   39.3207   40.7836    7.0495 C   0  0  1  0  0  0  0  0  0  0  0  0
   42.6102   43.5623    6.4775 C   0  0  1  0  0  0  0  0  0  0  0  0
   35.6975   41.9313    4.7353 C   0  0  2  0  0  0  0  0  0  0  0  0
   36.4567   42.6520    5.7616 N   0  0  0  0  0  0  0  0  0  0  0  0
   35.7599   36.6986    8.2117 C   0  0  0  0  0  0  0  0  0  0  0  0
   40.3801   41.2664    6.0326 C   0  0  2  0  0  0  0  0  0  0  0  0
   41.6998   40.8521    6.4006 O   0  0  0  0  0  0  0  0  0  0  0  0
   43.5920   43.1931    7.6699 C   0  0  2  0  0  0  0  0  0  0  0  0
   43.3726   43.9960    8.9118 N   0  0  0  0  0  0  0  0  0  0  0  0
   34.1994   42.3331    4.8037 C   0  0  1  0  0  0  0  0  0  0  0  0
   34.0665   43.7463    4.6766 O   0  0  0  0  0  0  0  0  0  0  0  0
   35.1453   38.0153    7.6543 C   0  0  2  0  0  0  0  0  0  0  0  0
   33.8590   37.6783    7.0157 N   0  0  0  0  0  0  0  0  0  0  0  0
   40.2195   42.7959    6.0034 C   0  0  2  0  0  0  0  0  0  0  0  0
   41.1966   43.4806    6.8842 O   0  0  0  0  0  0  0  0  0  0  0  0
   45.1062   43.3449    7.1905 C   0  0  1  0  0  0  0  0  0  0  0  0
   45.4417   42.3532    6.1951 O   0  0  0  0  0  0  0  0  0  0  0  0
   33.4135   41.6090    3.6862 C   0  0  2  0  0  0  0  0  0  0  0  0
   32.0527   41.9833    3.7313 O   0  0  0  0  0  0  0  0  0  0  0  0
   36.1501   38.7000    6.6614 C   0  0  2  0  0  0  0  0  0  0  0  0
   38.7855   43.0239    6.4733 C   0  0  2  0  0  0  0  0  0  0  0  0
   38.4389   41.8889    7.2541 O   0  0  0  0  0  0  0  0  0  0  0  0
   45.4026   44.7802    6.5959 C   0  0  2  0  0  0  0  0  0  0  0  0
   45.3167   45.7553    7.6486 O   0  0  0  0  0  0  0  0  0  0  0  0
   33.5607   40.0818    3.8372 C   0  0  2  0  0  0  0  0  0  0  0  0
   35.0020   39.7482    3.8054 O   0  0  0  0  0  0  0  0  0  0  0  0
   37.5367   39.0031    7.4217 C   0  0  2  0  0  0  0  0  0  0  0  0
   38.5572   39.6242    6.5347 O   0  0  0  0  0  0  0  0  0  0  0  0
   37.7782   43.1329    5.3381 C   0  0  0  0  0  0  0  0  0  0  0  0
   44.3676   45.1073    5.4443 C   0  0  1  0  0  0  0  0  0  0  0  0
   42.9484   44.9125    5.8971 O   0  0  0  0  0  0  0  0  0  0  0  0
   32.7912   39.3695    2.7005 C   0  0  0  0  0  0  0  0  0  0  0  0
   31.3230   39.4792    2.7802 N   0  0  0  0  0  0  0  0  0  0  0  0
   38.1382   37.6792    7.9398 C   0  0  1  0  0  0  0  0  0  0  0  0
   39.3715   37.9475    8.6147 O   0  0  0  0  0  0  0  0  0  0  0  0
   44.5561   46.5456    4.8253 C   0  0  0  0  0  0  0  0  0  0  0  0
   44.4168   47.6982    5.7717 N   0  0  0  0  0  0  0  0  0  0  0  0
  1  2  1  1  0  0  0
  1  7  1  0  0  0  0
  1 30  1  0  0  0  0
  3  4  1  6  0  0  0
  3  9  1  0  0  0  0
  3 38  1  0  0  0  0
  5 10  1  0  0  0  0
  5 26  1  6  0  0  0
  5 32  1  0  0  0  0
  6 12  1  0  0  0  0
  6 35  1  0  0  0  0
  6 19  1  1  0  0  0
  7  8  1  1  0  0  0
  7 14  1  0  0  0  0
  8 33  1  0  0  0  0
  9 16  1  0  0  0  0
 10 11  1  1  0  0  0
 10 18  1  0  0  0  0
 12 13  1  1  0  0  0
 12 20  1  0  0  0  0
 14 15  1  6  0  0  0
 14 22  1  0  0  0  0
 16 17  1  6  0  0  0
 16 24  1  0  0  0  0
 18 19  1  1  0  0  0
 18 25  1  0  0  0  0
 20 21  1  6  0  0  0
 20 27  1  0  0  0  0
 22 23  1  1  0  0  0
 22 29  1  0  0  0  0
 24  2  1  1  0  0  0
 24 31  1  0  0  0  0
 25 26  1  1  0  0  0
 25 33  1  0  0  0  0
 27 28  1  1  0  0  0
 27 34  1  0  0  0  0
 29 30  1  0  0  0  0
 29 36  1  6  0  0  0
 31 32  1  6  0  0  0
 31 38  1  0  0  0  0
 34 35  1  0  0  0  0
 34 40  1  1  0  0  0
 36 37  1  0  0  0  0
 38 39  1  1  0  0  0
 40 41  1  0  0  0  0
M  END
>  <CHROM.1>
73.61210510,-134.12796468,-69.03890396,-59.71650459,38.65467454,41.47779415
6.18988545,2.80515452,0.35657530,2.60701849

>  <Name>
ligand

>  <RI>
0

>  <Rbt.Current_Directory>
/home/itssahil/PROJECTS/Mol_Feturizer/New_Systems/rnas/1ZZ5

>  <Rbt.Executable>
rbdock ($Id: //depot/dev/client3/rdock/2013.1/src/exe/rbdock.cxx#4 $)

>  <Rbt.Library>
libRbt.so (2013.1, Build901 2013/11/27)

>  <Rbt.Parameter_File>
/export/apps/rDock/src/rDock_2013.1_src/data/scripts/dock_solv.prm

>  <Rbt.Receptor>
prm/pocket_docking_8.prm

>  <SCORE>
-10.2943

>  <SCORE.INTER>
-12.4322

>  <SCORE.INTER.CONST>
1

>  <SCORE.INTER.POLAR>
0

>  <SCORE.INTER.ROT>
4

>  <SCORE.INTER.SOLV>
14.8113

>  <SCORE.INTER.VDW>
-19.4919

>  <SCORE.INTER.norm>
-0.303224

>  <SCORE.INTRA>
2.13785

>  <SCORE.INTRA.DIHEDRAL>
2.31093

>  <SCORE.INTRA.DIHEDRAL.0>
5.18357

>  <SCORE.INTRA.POLAR>
0

>  <SCORE.INTRA.POLAR.0>
0

>  <SCORE.INTRA.REPUL>
0

>  <SCORE.INTRA.REPUL.0>
0

>  <SCORE.INTRA.SOLV>
1.41866

>  <SCORE.INTRA.SOLV.lig_0>
-109.973

>  <SCORE.INTRA.VDW>
0.273058

>  <SCORE.INTRA.VDW.0>
-1.68646

>  <SCORE.INTRA.norm>
0.0521427

>  <SCORE.RESTR>
0

>  <SCORE.RESTR.CAVITY>
0

>  <SCORE.RESTR.norm>
0

>  <SCORE.SYSTEM>
0

>  <SCORE.SYSTEM.CONST>
0

>  <SCORE.SYSTEM.DIHEDRAL>
0

>  <SCORE.SYSTEM.SOLV>
0

>  <SCORE.SYSTEM.norm>
0

>  <SCORE.heavy>
41

>  <SCORE.norm>
-0.251081

>  <RMSD>
3.024

$$$$
ligand
 OpenBabel11021811423D
libRbt.so/2013.1/901 2013/11/27
 41 45  0  0  0  0  0  0  0  0999 V2000
   34.3491   39.1683    4.8945 C   0  0  2  0  0  0  0  0  0  0  0  0
   34.1195   39.2155    6.3163 O   0  0  0  0  0  0  0  0  0  0  0  0
   33.9365   36.2803    9.5208 C   0  0  2  0  0  0  0  0  0  0  0  0
   33.5769   35.0445   10.2630 N   0  0  0  0  0  0  0  0  0  0  0  0
   37.5886   37.2306    6.5824 C   0  0  1  0  0  0  0  0  0  0  0  0
   40.8209   37.5373    7.0324 C   0  0  1  0  0  0  0  0  0  0  0  0
   35.2540   40.3497    4.4327 C   0  0  2  0  0  0  0  0  0  0  0  0
   36.5156   40.4276    5.1753 N   0  0  0  0  0  0  0  0  0  0  0  0
   32.6269   36.9811    9.0393 C   0  0  0  0  0  0  0  0  0  0  0  0
   38.4144   36.7209    5.3791 C   0  0  2  0  0  0  0  0  0  0  0  0
   39.1538   35.5388    5.7026 O   0  0  0  0  0  0  0  0  0  0  0  0
   40.4899   38.8274    7.8974 C   0  0  2  0  0  0  0  0  0  0  0  0
   41.2757   40.0391    7.5112 N   0  0  0  0  0  0  0  0  0  0  0  0
   34.4849   41.6931    4.5514 C   0  0  1  0  0  0  0  0  0  0  0  0
   35.3066   42.7676    4.1027 O   0  0  0  0  0  0  0  0  0  0  0  0
   32.9423   38.2825    8.2463 C   0  0  2  0  0  0  0  0  0  0  0  0
   31.6590   38.8849    7.8385 N   0  0  0  0  0  0  0  0  0  0  0  0
   39.3177   37.9067    4.9998 C   0  0  2  0  0  0  0  0  0  0  0  0
   40.6739   37.7910    5.5888 O   0  0  0  0  0  0  0  0  0  0  0  0
   40.7118   38.5122    9.4456 C   0  0  1  0  0  0  0  0  0  0  0  0
   39.7413   37.5578    9.9295 O   0  0  0  0  0  0  0  0  0  0  0  0
   33.1805   41.6223    3.7242 C   0  0  2  0  0  0  0  0  0  0  0  0
   32.4840   42.8474    3.8134 O   0  0  0  0  0  0  0  0  0  0  0  0
   33.8704   37.9556    7.0231 C   0  0  2  0  0  0  0  0  0  0  0  0
   38.5733   39.1238    5.5415 C   0  0  2  0  0  0  0  0  0  0  0  0
   37.7564   38.6492    6.6024 O   0  0  0  0  0  0  0  0  0  0  0  0
   42.1620   37.9530    9.7386 C   0  0  2  0  0  0  0  0  0  0  0  0
   43.1268   38.9910    9.4973 O   0  0  0  0  0  0  0  0  0  0  0  0
   32.2983   40.4600    4.2219 C   0  0  2  0  0  0  0  0  0  0  0  0
   33.0817   39.2082    4.1280 O   0  0  0  0  0  0  0  0  0  0  0  0
   35.2306   37.2713    7.5466 C   0  0  2  0  0  0  0  0  0  0  0  0
   36.1526   36.8995    6.4395 O   0  0  0  0  0  0  0  0  0  0  0  0
   37.6662   39.7929    4.5194 C   0  0  0  0  0  0  0  0  0  0  0  0
   42.4484   36.6978    8.8184 C   0  0  1  0  0  0  0  0  0  0  0  0
   42.1878   36.9967    7.3693 O   0  0  0  0  0  0  0  0  0  0  0  0
   31.0086   40.3839    3.3718 C   0  0  0  0  0  0  0  0  0  0  0  0
   31.2238   40.1072    1.9395 N   0  0  0  0  0  0  0  0  0  0  0  0
   34.8919   35.9701    8.3048 C   0  0  1  0  0  0  0  0  0  0  0  0
   36.1005   35.3602    8.7694 O   0  0  0  0  0  0  0  0  0  0  0  0
   43.8969   36.1029    9.0066 C   0  0  0  0  0  0  0  0  0  0  0  0
   44.2840   34.9938    8.0775 N   0  0  0  0  0  0  0  0  0  0  0  0
  1  2  1  1  0  0  0
  1  7  1  0  0  0  0
  1 30  1  0  0  0  0
  3  4  1  6  0  0  0
  3  9  1  0  0  0  0
  3 38  1  0  0  0  0
  5 10  1  0  0  0  0
  5 26  1  6  0  0  0
  5 32  1  0  0  0  0
  6 12  1  0  0  0  0
  6 35  1  0  0  0  0
  6 19  1  6  0  0  0
  7  8  1  1  0  0  0
  7 14  1  0  0  0  0
  8 33  1  0  0  0  0
  9 16  1  0  0  0  0
 10 11  1  1  0  0  0
 10 18  1  0  0  0  0
 12 13  1  6  0  0  0
 12 20  1  0  0  0  0
 14 15  1  6  0  0  0
 14 22  1  0  0  0  0
 16 17  1  6  0  0  0
 16 24  1  0  0  0  0
 18 19  1  1  0  0  0
 18 25  1  0  0  0  0
 20 21  1  6  0  0  0
 20 27  1  0  0  0  0
 22 23  1  1  0  0  0
 22 29  1  0  0  0  0
 24  2  1  1  0  0  0
 24 31  1  0  0  0  0
 25 26  1  1  0  0  0
 25 33  1  0  0  0  0
 27 28  1  6  0  0  0
 27 34  1  0  0  0  0
 29 30  1  0  0  0  0
 29 36  1  6  0  0  0
 31 32  1  6  0  0  0
 31 38  1  0  0  0  0
 34 35  1  0  0  0  0
 34 40  1  6  0  0  0
 36 37  1  0  0  0  0
 38 39  1  1  0  0  0
 40 41  1  0  0  0  0
M  END
>  <CHROM.1>
-51.30981578,-74.03912239,62.25016620,-174.47962727,36.96521503,38.39737253
6.64814225,-2.68498623,0.03086861,2.33508293

>  <Name>
ligand

>  <RI>
0

>  <Rbt.Current_Directory>
/home/itssahil/PROJECTS/Mol_Feturizer/New_Systems/rnas/1ZZ5

>  <Rbt.Executable>
rbdock ($Id: //depot/dev/client3/rdock/2013.1/src/exe/rbdock.cxx#4 $)

>  <Rbt.Library>
libRbt.so (2013.1, Build901 2013/11/27)

>  <Rbt.Parameter_File>
/export/apps/rDock/src/rDock_2013.1_src/data/scripts/dock_solv.prm

>  <Rbt.Receptor>
prm/pocket_docking_5.prm

>  <SCORE>
-8.66821

>  <SCORE.INTER>
-7.80234

>  <SCORE.INTER.CONST>
1

>  <SCORE.INTER.POLAR>
0

>  <SCORE.INTER.ROT>
4

>  <SCORE.INTER.SOLV>
21.9882

>  <SCORE.INTER.VDW>
-18.7976

>  <SCORE.INTER.norm>
-0.190301

>  <SCORE.INTRA>
-0.865867

>  <SCORE.INTRA.DIHEDRAL>
-3.56779

>  <SCORE.INTRA.DIHEDRAL.0>
5.18357

>  <SCORE.INTRA.POLAR>
0

>  <SCORE.INTRA.POLAR.0>
0

>  <SCORE.INTRA.REPUL>
0

>  <SCORE.INTRA.REPUL.0>
0

>  <SCORE.INTRA.SOLV>
1.71435

>  <SCORE.INTRA.SOLV.lig_0>
-109.973

>  <SCORE.INTRA.VDW>
0.0608557

>  <SCORE.INTRA.VDW.0>
-1.68646

>  <SCORE.INTRA.norm>
-0.0211187

>  <SCORE.RESTR>
0

>  <SCORE.RESTR.CAVITY>
0

>  <SCORE.RESTR.norm>
0

>  <SCORE.SYSTEM>
0

>  <SCORE.SYSTEM.CONST>
0

>  <SCORE.SYSTEM.DIHEDRAL>
0

>  <SCORE.SYSTEM.SOLV>
0

>  <SCORE.SYSTEM.norm>
0

>  <SCORE.heavy>
41

>  <SCORE.norm>
-0.21142

>  <RMSD>
3.061

$$$$
ligand
 OpenBabel11021811423D
libRbt.so/2013.1/901 2013/11/27
 41 45  0  0  0  0  0  0  0  0999 V2000
   35.5419   40.5604    4.5865 C   0  0  2  0  0  0  0  0  0  0  0  0
   35.2129   40.0614    5.8977 O   0  0  0  0  0  0  0  0  0  0  0  0
   36.6045   36.7896    8.4029 C   0  0  2  0  0  0  0  0  0  0  0  0
   37.0201   35.4226    8.8104 N   0  0  0  0  0  0  0  0  0  0  0  0
   39.1309   40.4465    6.6368 C   0  0  1  0  0  0  0  0  0  0  0  0
   41.4429   42.4004    7.8917 C   0  0  1  0  0  0  0  0  0  0  0  0
   35.5636   42.1182    4.5681 C   0  0  2  0  0  0  0  0  0  0  0  0
   36.4421   42.6898    5.5931 N   0  0  0  0  0  0  0  0  0  0  0  0
   35.1874   36.7151    7.7516 C   0  0  0  0  0  0  0  0  0  0  0  0
   40.1933   40.8691    5.5964 C   0  0  2  0  0  0  0  0  0  0  0  0
   41.4727   40.2918    5.8765 O   0  0  0  0  0  0  0  0  0  0  0  0
   40.4269   43.0795    8.9059 C   0  0  2  0  0  0  0  0  0  0  0  0
   40.4907   44.5730    8.9253 N   0  0  0  0  0  0  0  0  0  0  0  0
   34.1244   42.6771    4.7314 C   0  0  1  0  0  0  0  0  0  0  0  0
   34.1455   44.1013    4.6869 O   0  0  0  0  0  0  0  0  0  0  0  0
   34.7011   38.1217    7.2965 C   0  0  2  0  0  0  0  0  0  0  0  0
   33.3589   37.9657    6.7046 N   0  0  0  0  0  0  0  0  0  0  0  0
   40.2042   42.4061    5.6572 C   0  0  2  0  0  0  0  0  0  0  0  0
   41.2888   42.9267    6.5244 O   0  0  0  0  0  0  0  0  0  0  0  0
   40.6694   42.5107   10.3767 C   0  0  1  0  0  0  0  0  0  0  0  0
   40.3073   41.1149   10.4641 O   0  0  0  0  0  0  0  0  0  0  0  0
   33.2151   42.1104    3.6165 C   0  0  2  0  0  0  0  0  0  0  0  0
   31.9080   42.6283    3.7484 O   0  0  0  0  0  0  0  0  0  0  0  0
   35.7329   38.7492    6.2936 C   0  0  2  0  0  0  0  0  0  0  0  0
   38.8263   42.7619    6.2085 C   0  0  2  0  0  0  0  0  0  0  0  0
   38.3882   41.6277    6.9434 O   0  0  0  0  0  0  0  0  0  0  0  0
   42.1731   42.6740   10.8390 C   0  0  2  0  0  0  0  0  0  0  0  0
   42.4693   44.0714   10.9998 O   0  0  0  0  0  0  0  0  0  0  0  0
   33.1964   40.5700    3.6780 C   0  0  2  0  0  0  0  0  0  0  0  0
   34.5884   40.0829    3.5578 O   0  0  0  0  0  0  0  0  0  0  0  0
   37.1760   38.8534    7.0000 C   0  0  2  0  0  0  0  0  0  0  0  0
   38.2208   39.4100    6.0987 O   0  0  0  0  0  0  0  0  0  0  0  0
   37.7898   43.0470    5.1316 C   0  0  0  0  0  0  0  0  0  0  0  0
   43.1369   42.0170    9.7696 C   0  0  1  0  0  0  0  0  0  0  0  0
   42.8630   42.5269    8.3832 O   0  0  0  0  0  0  0  0  0  0  0  0
   32.3038   40.0143    2.5439 C   0  0  0  0  0  0  0  0  0  0  0  0
   32.0065   38.5730    2.6368 N   0  0  0  0  0  0  0  0  0  0  0  0
   37.6468   37.4435    7.4163 C   0  0  1  0  0  0  0  0  0  0  0  0
   38.9303   37.5349    8.0433 O   0  0  0  0  0  0  0  0  0  0  0  0
   44.6653   42.1779   10.1241 C   0  0  0  0  0  0  0  0  0  0  0  0
   45.6383   41.6156    9.1339 N   0  0  0  0  0  0  0  0  0  0  0  0
  1  2  1  1  0  0  0
  1  7  1  0  0  0  0
  1 30  1  0  0  0  0
  3  4  1  6  0  0  0
  3  9  1  0  0  0  0
  3 38  1  0  0  0  0
  5 10  1  0  0  0  0
  5 26  1  6  0  0  0
  5 32  1  0  0  0  0
  6 12  1  0  0  0  0
  6 35  1  0  0  0  0
  6 19  1  6  0  0  0
  7  8  1  1  0  0  0
  7 14  1  0  0  0  0
  8 33  1  0  0  0  0
  9 16  1  0  0  0  0
 10 11  1  1  0  0  0
 10 18  1  0  0  0  0
 12 13  1  1  0  0  0
 12 20  1  0  0  0  0
 14 15  1  6  0  0  0
 14 22  1  0  0  0  0
 16 17  1  6  0  0  0
 16 24  1  0  0  0  0
 18 19  1  1  0  0  0
 18 25  1  0  0  0  0
 20 21  1  6  0  0  0
 20 27  1  0  0  0  0
 22 23  1  1  0  0  0
 22 29  1  0  0  0  0
 24  2  1  1  0  0  0
 24 31  1  0  0  0  0
 25 26  1  6  0  0  0
 25 33  1  0  0  0  0
 27 28  1  6  0  0  0
 27 34  1  0  0  0  0
 29 30  1  0  0  0  0
 29 36  1  6  0  0  0
 31 32  1  6  0  0  0
 31 38  1  0  0  0  0
 34 35  1  0  0  0  0
 34 40  1  1  0  0  0
 36 37  1  0  0  0  0
 38 39  1  1  0  0  0
 40 41  1  0  0  0  0
M  END
>  <CHROM.1>
-50.97298239,-80.82953496,-169.50892348,-178.21605567,37.92999679,40.90526694
6.78008337,3.11409966,0.53391430,2.76480261

>  <Name>
ligand

>  <RI>
0

>  <Rbt.Current_Directory>
/home/itssahil/PROJECTS/Mol_Feturizer/New_Systems/rnas/1ZZ5

>  <Rbt.Executable>
rbdock ($Id: //depot/dev/client3/rdock/2013.1/src/exe/rbdock.cxx#4 $)

>  <Rbt.Library>
libRbt.so (2013.1, Build901 2013/11/27)

>  <Rbt.Parameter_File>
/export/apps/rDock/src/rDock_2013.1_src/data/scripts/dock_solv.prm

>  <Rbt.Receptor>
prm/pocket_docking_4.prm

>  <SCORE>
-6.07361

>  <SCORE.INTER>
-4.92808

>  <SCORE.INTER.CONST>
1

>  <SCORE.INTER.POLAR>
0

>  <SCORE.INTER.ROT>
4

>  <SCORE.INTER.SOLV>
19.0691

>  <SCORE.INTER.VDW>
-15.9084

>  <SCORE.INTER.norm>
-0.120197

>  <SCORE.INTRA>
-1.14688

>  <SCORE.INTRA.DIHEDRAL>
-2.27416

>  <SCORE.INTRA.DIHEDRAL.0>
5.18357

>  <SCORE.INTRA.POLAR>
0

>  <SCORE.INTRA.POLAR.0>
0

>  <SCORE.INTRA.REPUL>
0

>  <SCORE.INTRA.REPUL.0>
0

>  <SCORE.INTRA.SOLV>
0.0102336

>  <SCORE.INTRA.SOLV.lig_0>
-109.973

>  <SCORE.INTRA.VDW>
-0.0149171

>  <SCORE.INTRA.VDW.0>
-1.68646

>  <SCORE.INTRA.norm>
-0.0279727

>  <SCORE.RESTR>
0.00134934

>  <SCORE.RESTR.CAVITY>
0.00134934

>  <SCORE.RESTR.norm>
3.29106e-05

>  <SCORE.SYSTEM>
0

>  <SCORE.SYSTEM.CONST>
0

>  <SCORE.SYSTEM.DIHEDRAL>
0

>  <SCORE.SYSTEM.SOLV>
0

>  <SCORE.SYSTEM.norm>
0

>  <SCORE.heavy>
41

>  <SCORE.norm>
-0.148137

>  <RMSD>
3.298

$$$$
ligand
 OpenBabel11021811423D
libRbt.so/2013.1/901 2013/11/27
 41 45  0  0  0  0  0  0  0  0999 V2000
   36.0720   40.4684    4.8179 C   0  0  2  0  0  0  0  0  0  0  0  0
   35.8047   39.9903    6.1508 O   0  0  0  0  0  0  0  0  0  0  0  0
   37.6134   37.0604    8.8083 C   0  0  2  0  0  0  0  0  0  0  0  0
   38.2095   35.7839    9.2799 N   0  0  0  0  0  0  0  0  0  0  0  0
   39.6272   40.9440    6.8751 C   0  0  1  0  0  0  0  0  0  0  0  0
   42.7944   43.8888    6.1435 C   0  0  1  0  0  0  0  0  0  0  0  0
   35.8798   42.0119    4.7265 C   0  0  2  0  0  0  0  0  0  0  0  0
   36.6638   42.7457    5.7244 N   0  0  0  0  0  0  0  0  0  0  0  0
   36.2248   36.7618    8.1597 C   0  0  0  0  0  0  0  0  0  0  0  0
   40.6293   41.4600    5.8172 C   0  0  2  0  0  0  0  0  0  0  0  0
   41.9737   41.0775    6.1254 O   0  0  0  0  0  0  0  0  0  0  0  0
   43.8828   43.2747    7.1235 C   0  0  2  0  0  0  0  0  0  0  0  0
   43.7832   43.7671    8.5315 N   0  0  0  0  0  0  0  0  0  0  0  0
   34.3763   42.3747    4.8619 C   0  0  1  0  0  0  0  0  0  0  0  0
   34.2022   43.7847    4.7506 O   0  0  0  0  0  0  0  0  0  0  0  0
   35.5534   38.0656    7.6385 C   0  0  2  0  0  0  0  0  0  0  0  0
   34.2499   37.6994    7.0532 N   0  0  0  0  0  0  0  0  0  0  0  0
   40.4287   42.9850    5.8058 C   0  0  2  0  0  0  0  0  0  0  0  0
   41.4251   43.6893    6.6488 O   0  0  0  0  0  0  0  0  0  0  0  0
   45.3457   43.5610    6.5547 C   0  0  1  0  0  0  0  0  0  0  0  0
   45.5836   42.8305    5.3313 O   0  0  0  0  0  0  0  0  0  0  0  0
   33.5618   41.6374    3.7739 C   0  0  2  0  0  0  0  0  0  0  0  0
   32.1950   41.9762    3.8799 O   0  0  0  0  0  0  0  0  0  0  0  0
   36.4969   38.7818    6.6084 C   0  0  2  0  0  0  0  0  0  0  0  0
   39.0109   43.1732    6.3383 C   0  0  2  0  0  0  0  0  0  0  0  0
   38.7271   42.0249    7.1251 O   0  0  0  0  0  0  0  0  0  0  0  0
   45.5889   45.0997    6.2815 C   0  0  2  0  0  0  0  0  0  0  0  0
   45.6050   45.8057    7.5336 O   0  0  0  0  0  0  0  0  0  0  0  0
   33.7542   40.1136    3.9076 C   0  0  2  0  0  0  0  0  0  0  0  0
   35.2008   39.8173    3.8118 O   0  0  0  0  0  0  0  0  0  0  0  0
   37.9067   39.1159    7.3107 C   0  0  2  0  0  0  0  0  0  0  0  0
   38.8720   39.7685    6.3853 O   0  0  0  0  0  0  0  0  0  0  0  0
   37.9532   43.2630    5.2481 C   0  0  0  0  0  0  0  0  0  0  0  0
   44.4513   45.6626    5.3363 C   0  0  1  0  0  0  0  0  0  0  0  0
   43.0803   45.3422    5.8607 O   0  0  0  0  0  0  0  0  0  0  0  0
   32.9549   39.3885    2.7998 C   0  0  0  0  0  0  0  0  0  0  0  0
   31.4894   39.5057    2.9129 N   0  0  0  0  0  0  0  0  0  0  0  0
   38.5634   37.8049    7.7931 C   0  0  1  0  0  0  0  0  0  0  0  0
   39.8175   38.1008    8.4165 O   0  0  0  0  0  0  0  0  0  0  0  0
   44.5848   47.2078    5.0501 C   0  0  0  0  0  0  0  0  0  0  0  0
   45.8477   47.6509    4.3778 N   0  0  0  0  0  0  0  0  0  0  0  0
  1  2  1  1  0  0  0
  1  7  1  0  0  0  0
  1 30  1  0  0  0  0
  3  4  1  6  0  0  0
  3  9  1  0  0  0  0
  3 38  1  0  0  0  0
  5 10  1  0  0  0  0
  5 26  1  6  0  0  0
  5 32  1  0  0  0  0
  6 12  1  0  0  0  0
  6 35  1  0  0  0  0
  6 19  1  1  0  0  0
  7  8  1  1  0  0  0
  7 14  1  0  0  0  0
  8 33  1  0  0  0  0
  9 16  1  0  0  0  0
 10 11  1  1  0  0  0
 10 18  1  0  0  0  0
 12 13  1  1  0  0  0
 12 20  1  0  0  0  0
 14 15  1  6  0  0  0
 14 22  1  0  0  0  0
 16 17  1  6  0  0  0
 16 24  1  0  0  0  0
 18 19  1  1  0  0  0
 18 25  1  0  0  0  0
 20 21  1  6  0  0  0
 20 27  1  0  0  0  0
 22 23  1  1  0  0  0
 22 29  1  0  0  0  0
 24  2  1  1  0  0  0
 24 31  1  0  0  0  0
 25 26  1  1  0  0  0
 25 33  1  0  0  0  0
 27 28  1  1  0  0  0
 27 34  1  0  0  0  0
 29 30  1  0  0  0  0
 29 36  1  6  0  0  0
 31 32  1  6  0  0  0
 31 38  1  0  0  0  0
 34 35  1  0  0  0  0
 34 40  1  1  0  0  0
 36 37  1  0  0  0  0
 38 39  1  1  0  0  0
 40 41  1  0  0  0  0
M  END
>  <CHROM.1>
77.68596571,-123.33479321,-66.68725299,60.28776114,38.94149300,41.61894982
6.03626778,2.76383300,0.32727438,2.61336057

>  <Name>
ligand

>  <RI>
0

>  <Rbt.Current_Directory>
/home/itssahil/PROJECTS/Mol_Feturizer/New_Systems/rnas/1ZZ5

>  <Rbt.Executable>
rbdock ($Id: //depot/dev/client3/rdock/2013.1/src/exe/rbdock.cxx#4 $)

>  <Rbt.Library>
libRbt.so (2013.1, Build901 2013/11/27)

>  <Rbt.Parameter_File>
/export/apps/rDock/src/rDock_2013.1_src/data/scripts/dock_solv.prm

>  <Rbt.Receptor>
prm/pocket_docking_6.prm

>  <SCORE>
-10.0896

>  <SCORE.INTER>
-12.4428

>  <SCORE.INTER.CONST>
1

>  <SCORE.INTER.POLAR>
0

>  <SCORE.INTER.ROT>
4

>  <SCORE.INTER.SOLV>
16.2232

>  <SCORE.INTER.VDW>
-19.9696

>  <SCORE.INTER.norm>
-0.303483

>  <SCORE.INTRA>
2.3532

>  <SCORE.INTRA.DIHEDRAL>
3.5978

>  <SCORE.INTRA.DIHEDRAL.0>
5.18357

>  <SCORE.INTRA.POLAR>
0

>  <SCORE.INTRA.POLAR.0>
0

>  <SCORE.INTRA.REPUL>
0

>  <SCORE.INTRA.REPUL.0>
0

>  <SCORE.INTRA.SOLV>
0.471094

>  <SCORE.INTRA.SOLV.lig_0>
-109.973

>  <SCORE.INTRA.VDW>
0.318748

>  <SCORE.INTRA.VDW.0>
-1.68646

>  <SCORE.INTRA.norm>
0.057395

>  <SCORE.RESTR>
0

>  <SCORE.RESTR.CAVITY>
0

>  <SCORE.RESTR.norm>
0

>  <SCORE.SYSTEM>
0

>  <SCORE.SYSTEM.CONST>
0

>  <SCORE.SYSTEM.DIHEDRAL>
0

>  <SCORE.SYSTEM.SOLV>
0

>  <SCORE.SYSTEM.norm>
0

>  <SCORE.heavy>
41

>  <SCORE.norm>
-0.246088

>  <RMSD>
3.347

$$$$
ligand
 OpenBabel11021811423D
libRbt.so/2013.1/901 2013/11/27
 41 45  0  0  0  0  0  0  0  0999 V2000
   35.8373   40.3933    4.9871 C   0  0  2  0  0  0  0  0  0  0  0  0
   35.4371   39.9563    6.3006 O   0  0  0  0  0  0  0  0  0  0  0  0
   36.9243   37.0611    9.1857 C   0  0  2  0  0  0  0  0  0  0  0  0
   37.4446   35.7855    9.7418 N   0  0  0  0  0  0  0  0  0  0  0  0
   39.1972   40.8496    7.3537 C   0  0  1  0  0  0  0  0  0  0  0  0
   42.0818   44.4668    6.6729 C   0  0  1  0  0  0  0  0  0  0  0  0
   35.6900   41.9375    4.8404 C   0  0  2  0  0  0  0  0  0  0  0  0
   36.3952   42.6811    5.8887 N   0  0  0  0  0  0  0  0  0  0  0  0
   35.5950   36.7742    8.4183 C   0  0  0  0  0  0  0  0  0  0  0  0
   40.3044   41.3165    6.3812 C   0  0  2  0  0  0  0  0  0  0  0  0
   41.6054   40.9146    6.8224 O   0  0  0  0  0  0  0  0  0  0  0  0
   43.1509   43.7007    5.7828 C   0  0  2  0  0  0  0  0  0  0  0  0
   43.8245   42.5637    6.4817 N   0  0  0  0  0  0  0  0  0  0  0  0
   34.1893   42.3347    4.8265 C   0  0  1  0  0  0  0  0  0  0  0  0
   34.0587   43.7447    4.6650 O   0  0  0  0  0  0  0  0  0  0  0  0
   35.0050   38.0773    7.8052 C   0  0  2  0  0  0  0  0  0  0  0  0
   33.7530   37.7228    7.1104 N   0  0  0  0  0  0  0  0  0  0  0  0
   40.1409   42.8445    6.3139 C   0  0  2  0  0  0  0  0  0  0  0  0
   41.0711   43.5502    7.2284 O   0  0  0  0  0  0  0  0  0  0  0  0
   44.2467   44.7297    5.2481 C   0  0  1  0  0  0  0  0  0  0  0  0
   43.6725   45.6633    4.3071 O   0  0  0  0  0  0  0  0  0  0  0  0
   33.4620   41.5858    3.6859 C   0  0  2  0  0  0  0  0  0  0  0  0
   32.0995   41.9556    3.6560 O   0  0  0  0  0  0  0  0  0  0  0  0
   36.0559   38.7464    6.8501 C   0  0  2  0  0  0  0  0  0  0  0  0
   38.6847   43.0760    6.7075 C   0  0  2  0  0  0  0  0  0  0  0  0
   38.3031   41.9552    7.4924 O   0  0  0  0  0  0  0  0  0  0  0  0
   44.9224   45.5453    6.4228 C   0  0  2  0  0  0  0  0  0  0  0  0
   45.7101   44.6514    7.2271 O   0  0  0  0  0  0  0  0  0  0  0  0
   33.6060   40.0625    3.8741 C   0  0  2  0  0  0  0  0  0  0  0  0
   35.0480   39.7339    3.9205 O   0  0  0  0  0  0  0  0  0  0  0  0
   37.4021   39.0697    7.6720 C   0  0  2  0  0  0  0  0  0  0  0  0
   38.4636   39.6774    6.8247 O   0  0  0  0  0  0  0  0  0  0  0  0
   37.7347   43.1588    5.5218 C   0  0  0  0  0  0  0  0  0  0  0  0
   43.8070   46.2492    7.2973 C   0  0  1  0  0  0  0  0  0  0  0  0
   42.7568   45.2757    7.7518 O   0  0  0  0  0  0  0  0  0  0  0  0
   32.8960   39.3249    2.7150 C   0  0  0  0  0  0  0  0  0  0  0  0
   31.4308   39.4869    2.6802 N   0  0  0  0  0  0  0  0  0  0  0  0
   37.9810   37.7587    8.2454 C   0  0  1  0  0  0  0  0  0  0  0  0
   39.1785   38.0449    8.9753 O   0  0  0  0  0  0  0  0  0  0  0  0
   44.3886   47.0467    8.5273 C   0  0  0  0  0  0  0  0  0  0  0  0
   45.2816   48.2050    8.2042 N   0  0  0  0  0  0  0  0  0  0  0  0
  1  2  1  1  0  0  0
  1  7  1  0  0  0  0
  1 30  1  0  0  0  0
  3  4  1  6  0  0  0
  3  9  1  0  0  0  0
  3 38  1  0  0  0  0
  5 10  1  0  0  0  0
  5 26  1  6  0  0  0
  5 32  1  0  0  0  0
  6 12  1  0  0  0  0
  6 35  1  0  0  0  0
  6 19  1  1  0  0  0
  7  8  1  1  0  0  0
  7 14  1  0  0  0  0
  8 33  1  0  0  0  0
  9 16  1  0  0  0  0
 10 11  1  1  0  0  0
 10 18  1  0  0  0  0
 12 13  1  1  0  0  0
 12 20  1  0  0  0  0
 14 15  1  6  0  0  0
 14 22  1  0  0  0  0
 16 17  1  6  0  0  0
 16 24  1  0  0  0  0
 18 19  1  1  0  0  0
 18 25  1  0  0  0  0
 20 21  1  6  0  0  0
 20 27  1  0  0  0  0
 22 23  1  1  0  0  0
 22 29  1  0  0  0  0
 24  2  1  1  0  0  0
 24 31  1  0  0  0  0
 25 26  1  1  0  0  0
 25 33  1  0  0  0  0
 27 28  1  1  0  0  0
 27 34  1  0  0  0  0
 29 30  1  0  0  0  0
 29 36  1  6  0  0  0
 31 32  1  6  0  0  0
 31 38  1  0  0  0  0
 34 35  1  0  0  0  0
 34 40  1  1  0  0  0
 36 37  1  0  0  0  0
 38 39  1  1  0  0  0
 40 41  1  0  0  0  0
M  END
>  <CHROM.1>
117.73699040,-65.30174643,-66.08171742,63.23958225,38.52459947,41.67160650
6.35367096,2.76206939,0.41800529,2.58426738

>  <Name>
ligand

>  <RI>
0

>  <Rbt.Current_Directory>
/home/itssahil/PROJECTS/Mol_Feturizer/New_Systems/rnas/1ZZ5

>  <Rbt.Executable>
rbdock ($Id: //depot/dev/client3/rdock/2013.1/src/exe/rbdock.cxx#4 $)

>  <Rbt.Library>
libRbt.so (2013.1, Build901 2013/11/27)

>  <Rbt.Parameter_File>
/export/apps/rDock/src/rDock_2013.1_src/data/scripts/dock_solv.prm

>  <Rbt.Receptor>
prm/pocket_docking_7.prm

>  <SCORE>
-9.14108

>  <SCORE.INTER>
-11.4742

>  <SCORE.INTER.CONST>
1

>  <SCORE.INTER.POLAR>
0

>  <SCORE.INTER.ROT>
4

>  <SCORE.INTER.SOLV>
15.8244

>  <SCORE.INTER.VDW>
-19.1909

>  <SCORE.INTER.norm>
-0.279857

>  <SCORE.INTRA>
2.33308

>  <SCORE.INTRA.DIHEDRAL>
2.42913

>  <SCORE.INTRA.DIHEDRAL.0>
5.18357

>  <SCORE.INTRA.POLAR>
0

>  <SCORE.INTRA.POLAR.0>
0

>  <SCORE.INTRA.REPUL>
0

>  <SCORE.INTRA.REPUL.0>
0

>  <SCORE.INTRA.SOLV>
1.89543

>  <SCORE.INTRA.SOLV.lig_0>
-109.973

>  <SCORE.INTRA.VDW>
0.170798

>  <SCORE.INTRA.VDW.0>
-1.68646

>  <SCORE.INTRA.norm>
0.0569043

>  <SCORE.RESTR>
0

>  <SCORE.RESTR.CAVITY>
0

>  <SCORE.RESTR.norm>
0

>  <SCORE.SYSTEM>
0

>  <SCORE.SYSTEM.CONST>
0

>  <SCORE.SYSTEM.DIHEDRAL>
0

>  <SCORE.SYSTEM.SOLV>
0

>  <SCORE.SYSTEM.norm>
0

>  <SCORE.heavy>
41

>  <SCORE.norm>
-0.222953

>  <RMSD>
3.402

$$$$
ligand
 OpenBabel11021811423D
libRbt.so/2013.1/901 2013/11/27
 41 45  0  0  0  0  0  0  0  0999 V2000
   36.2201   40.0424    4.7156 C   0  0  2  0  0  0  0  0  0  0  0  0
   35.9526   39.5837    6.0552 O   0  0  0  0  0  0  0  0  0  0  0  0
   37.4721   36.3981    8.5969 C   0  0  2  0  0  0  0  0  0  0  0  0
   37.9127   35.0463    9.0280 N   0  0  0  0  0  0  0  0  0  0  0  0
   39.8975   40.0075    6.6058 C   0  0  1  0  0  0  0  0  0  0  0  0
   42.2366   43.9495    6.3797 C   0  0  1  0  0  0  0  0  0  0  0  0
   36.2325   41.5990    4.6474 C   0  0  2  0  0  0  0  0  0  0  0  0
   37.1528   42.2061    5.6137 N   0  0  0  0  0  0  0  0  0  0  0  0
   36.0278   36.2975    8.0123 C   0  0  0  0  0  0  0  0  0  0  0  0
   40.9102   40.4014    5.5062 C   0  0  2  0  0  0  0  0  0  0  0  0
   42.2039   39.8382    5.7467 O   0  0  0  0  0  0  0  0  0  0  0  0
   43.5434   44.3334    7.1965 C   0  0  2  0  0  0  0  0  0  0  0  0
   43.5937   43.7553    8.5742 N   0  0  0  0  0  0  0  0  0  0  0  0
   34.7990   42.1570    4.8574 C   0  0  1  0  0  0  0  0  0  0  0  0
   34.8105   43.5792    4.7674 O   0  0  0  0  0  0  0  0  0  0  0  0
   35.5141   37.6871    7.5356 C   0  0  2  0  0  0  0  0  0  0  0  0
   34.1477   37.5072    7.0095 N   0  0  0  0  0  0  0  0  0  0  0  0
   40.9154   41.9395    5.5183 C   0  0  2  0  0  0  0  0  0  0  0  0
   42.0349   42.4915    6.3194 O   0  0  0  0  0  0  0  0  0  0  0  0
   43.6869   45.9206    7.2725 C   0  0  1  0  0  0  0  0  0  0  0  0
   43.9590   46.4843    5.9705 O   0  0  0  0  0  0  0  0  0  0  0  0
   33.8440   41.5518    3.8027 C   0  0  2  0  0  0  0  0  0  0  0  0
   32.5413   42.0684    3.9766 O   0  0  0  0  0  0  0  0  0  0  0  0
   36.4968   38.2868    6.4683 C   0  0  2  0  0  0  0  0  0  0  0  0
   39.5616   42.3070    6.1193 C   0  0  2  0  0  0  0  0  0  0  0  0
   39.1629   41.1949    6.9081 O   0  0  0  0  0  0  0  0  0  0  0  0
   42.3908   46.6092    7.8619 C   0  0  2  0  0  0  0  0  0  0  0  0
   42.2519   46.2488    9.2466 O   0  0  0  0  0  0  0  0  0  0  0  0
   33.8363   40.0141    3.9131 C   0  0  2  0  0  0  0  0  0  0  0  0
   35.2242   39.5289    3.7460 O   0  0  0  0  0  0  0  0  0  0  0  0
   37.9694   38.4189    7.1059 C   0  0  2  0  0  0  0  0  0  0  0  0
   38.9699   38.9510    6.1417 O   0  0  0  0  0  0  0  0  0  0  0  0
   38.4767   42.5540    5.0814 C   0  0  0  0  0  0  0  0  0  0  0  0
   41.1199   46.1555    7.0353 C   0  0  1  0  0  0  0  0  0  0  0  0
   41.0261   44.6596    6.9316 O   0  0  0  0  0  0  0  0  0  0  0  0
   32.8971   39.4193    2.8381 C   0  0  0  0  0  0  0  0  0  0  0  0
   31.4610   39.6692    3.0605 N   0  0  0  0  0  0  0  0  0  0  0  0
   38.4658   37.0247    7.5446 C   0  0  1  0  0  0  0  0  0  0  0  0
   39.7755   37.1409    8.1104 O   0  0  0  0  0  0  0  0  0  0  0  0
   39.7695   46.7554    7.5865 C   0  0  0  0  0  0  0  0  0  0  0  0
   39.4083   46.3922    8.9940 N   0  0  0  0  0  0  0  0  0  0  0  0
  1  2  1  1  0  0  0
  1  7  1  0  0  0  0
  1 30  1  0  0  0  0
  3  4  1  6  0  0  0
  3  9  1  0  0  0  0
  3 38  1  0  0  0  0
  5 10  1  0  0  0  0
  5 26  1  6  0  0  0
  5 32  1  0  0  0  0
  6 12  1  0  0  0  0
  6 35  1  0  0  0  0
  6 19  1  1  0  0  0
  7  8  1  1  0  0  0
  7 14  1  0  0  0  0
  8 33  1  0  0  0  0
  9 16  1  0  0  0  0
 10 11  1  1  0  0  0
 10 18  1  0  0  0  0
 12 13  1  1  0  0  0
 12 20  1  0  0  0  0
 14 15  1  6  0  0  0
 14 22  1  0  0  0  0
 16 17  1  6  0  0  0
 16 24  1  0  0  0  0
 18 19  1  1  0  0  0
 18 25  1  0  0  0  0
 20 21  1  6  0  0  0
 20 27  1  0  0  0  0
 22 23  1  1  0  0  0
 22 29  1  0  0  0  0
 24  2  1  1  0  0  0
 24 31  1  0  0  0  0
 25 26  1  1  0  0  0
 25 33  1  0  0  0  0
 27 28  1  1  0  0  0
 27 34  1  0  0  0  0
 29 30  1  0  0  0  0
 29 36  1  6  0  0  0
 31 32  1  6  0  0  0
 31 38  1  0  0  0  0
 34 35  1  0  0  0  0
 34 40  1  1  0  0  0
 36 37  1  0  0  0  0
 38 39  1  1  0  0  0
 40 41  1  0  0  0  0
M  END
>  <CHROM.1>
176.66959836,-175.81086271,-69.76675681,-60.70096755,38.40209076,41.39053667
6.29834806,2.53810394,0.41841331,2.90073270

>  <Name>
ligand

>  <RI>
0

>  <Rbt.Current_Directory>
/home/itssahil/PROJECTS/Mol_Feturizer/New_Systems/rnas/1ZZ5

>  <Rbt.Executable>
rbdock ($Id: //depot/dev/client3/rdock/2013.1/src/exe/rbdock.cxx#4 $)

>  <Rbt.Library>
libRbt.so (2013.1, Build901 2013/11/27)

>  <Rbt.Parameter_File>
/export/apps/rDock/src/rDock_2013.1_src/data/scripts/dock_solv.prm

>  <Rbt.Receptor>
prm/pocket_docking_5.prm

>  <SCORE>
-11.2283

>  <SCORE.INTER>
-9.79155

>  <SCORE.INTER.CONST>
1

>  <SCORE.INTER.POLAR>
0

>  <SCORE.INTER.ROT>
4

>  <SCORE.INTER.SOLV>
15.3885

>  <SCORE.INTER.VDW>
-17.9239

>  <SCORE.INTER.norm>
-0.238818

>  <SCORE.INTRA>
-1.43676

>  <SCORE.INTRA.DIHEDRAL>
-4.46924

>  <SCORE.INTRA.DIHEDRAL.0>
5.18357

>  <SCORE.INTRA.POLAR>
0

>  <SCORE.INTRA.POLAR.0>
0

>  <SCORE.INTRA.REPUL>
0

>  <SCORE.INTRA.REPUL.0>
0

>  <SCORE.INTRA.SOLV>
1.21775

>  <SCORE.INTRA.SOLV.lig_0>
-109.973

>  <SCORE.INTRA.VDW>
0.188986

>  <SCORE.INTRA.VDW.0>
-1.68646

>  <SCORE.INTRA.norm>
-0.035043

>  <SCORE.RESTR>
0

>  <SCORE.RESTR.CAVITY>
0

>  <SCORE.RESTR.norm>
0

>  <SCORE.SYSTEM>
0

>  <SCORE.SYSTEM.CONST>
0

>  <SCORE.SYSTEM.DIHEDRAL>
0

>  <SCORE.SYSTEM.SOLV>
0

>  <SCORE.SYSTEM.norm>
0

>  <SCORE.heavy>
41

>  <SCORE.norm>
-0.273861

>  <RMSD>
3.485

$$$$
ligand
 OpenBabel11021811423D
libRbt.so/2013.1/901 2013/11/27
 41 45  0  0  0  0  0  0  0  0999 V2000
   34.9538   40.5472    4.7957 C   0  0  2  0  0  0  0  0  0  0  0  0
   34.5261   40.2018    6.1277 O   0  0  0  0  0  0  0  0  0  0  0  0
   35.5636   37.1121    9.0077 C   0  0  2  0  0  0  0  0  0  0  0  0
   35.8639   35.7685    9.5663 N   0  0  0  0  0  0  0  0  0  0  0  0
   38.4191   40.4103    7.0475 C   0  0  1  0  0  0  0  0  0  0  0  0
   41.0531   44.1665    6.7969 C   0  0  1  0  0  0  0  0  0  0  0  0
   35.0826   42.0912    4.6303 C   0  0  2  0  0  0  0  0  0  0  0  0
   35.9455   42.7046    5.6444 N   0  0  0  0  0  0  0  0  0  0  0  0
   34.1792   37.0632    8.2872 C   0  0  0  0  0  0  0  0  0  0  0  0
   39.5588   40.6604    6.0334 C   0  0  2  0  0  0  0  0  0  0  0  0
   40.7801   40.0340    6.4392 O   0  0  0  0  0  0  0  0  0  0  0  0
   42.3956   44.4980    7.5779 C   0  0  2  0  0  0  0  0  0  0  0  0
   42.4223   43.9962    8.9859 N   0  0  0  0  0  0  0  0  0  0  0  0
   33.6785   42.7530    4.6579 C   0  0  1  0  0  0  0  0  0  0  0  0
   33.7990   44.1618    4.4793 O   0  0  0  0  0  0  0  0  0  0  0  0
   33.8134   38.4458    7.6735 C   0  0  2  0  0  0  0  0  0  0  0  0
   32.4952   38.3171    7.0241 N   0  0  0  0  0  0  0  0  0  0  0  0
   39.6714   42.1921    5.9482 C   0  0  2  0  0  0  0  0  0  0  0  0
   40.7441   42.7263    6.8219 O   0  0  0  0  0  0  0  0  0  0  0  0
   42.6562   46.0720    7.5618 C   0  0  1  0  0  0  0  0  0  0  0  0
   42.9510   46.5398    6.2272 O   0  0  0  0  0  0  0  0  0  0  0  0
   32.7899   42.1375    3.5524 C   0  0  2  0  0  0  0  0  0  0  0  0
   31.5162   42.7472    3.5601 O   0  0  0  0  0  0  0  0  0  0  0  0
   34.9348   38.9050    6.6755 C   0  0  2  0  0  0  0  0  0  0  0  0
   38.2951   42.6867    6.3842 C   0  0  2  0  0  0  0  0  0  0  0  0
   37.7443   41.6605    7.1976 O   0  0  0  0  0  0  0  0  0  0  0  0
   41.4223   46.8867    8.1233 C   0  0  2  0  0  0  0  0  0  0  0  0
   41.2764   46.6160    9.5275 O   0  0  0  0  0  0  0  0  0  0  0  0
   32.6630   40.6150    3.7590 C   0  0  2  0  0  0  0  0  0  0  0  0
   34.0229   40.0316    3.7647 O   0  0  0  0  0  0  0  0  0  0  0  0
   36.3443   38.9872    7.4494 C   0  0  2  0  0  0  0  0  0  0  0  0
   37.4686   39.3852    6.5597 O   0  0  0  0  0  0  0  0  0  0  0  0
   37.3359   42.9289    5.2280 C   0  0  0  0  0  0  0  0  0  0  0  0
   40.1103   46.4824    7.3361 C   0  0  1  0  0  0  0  0  0  0  0  0
   39.9056   44.9941    7.3189 O   0  0  0  0  0  0  0  0  0  0  0  0
   31.7928   40.0074    2.6342 C   0  0  0  0  0  0  0  0  0  0  0  0
   31.4633   38.5804    2.8055 N   0  0  0  0  0  0  0  0  0  0  0  0
   36.6963   37.5984    8.0239 C   0  0  1  0  0  0  0  0  0  0  0  0
   37.9499   37.6702    8.7110 O   0  0  0  0  0  0  0  0  0  0  0  0
   38.8153   47.2108    7.8650 C   0  0  0  0  0  0  0  0  0  0  0  0
   38.8447   48.7082    7.8520 N   0  0  0  0  0  0  0  0  0  0  0  0
  1  2  1  1  0  0  0
  1  7  1  0  0  0  0
  1 30  1  0  0  0  0
  3  4  1  6  0  0  0
  3  9  1  0  0  0  0
  3 38  1  0  0  0  0
  5 10  1  0  0  0  0
  5 26  1  6  0  0  0
  5 32  1  0  0  0  0
  6 12  1  0  0  0  0
  6 35  1  0  0  0  0
  6 19  1  1  0  0  0
  7  8  1  1  0  0  0
  7 14  1  0  0  0  0
  8 33  1  0  0  0  0
  9 16  1  0  0  0  0
 10 11  1  1  0  0  0
 10 18  1  0  0  0  0
 12 13  1  1  0  0  0
 12 20  1  0  0  0  0
 14 15  1  6  0  0  0
 14 22  1  0  0  0  0
 16 17  1  6  0  0  0
 16 24  1  0  0  0  0
 18 19  1  1  0  0  0
 18 25  1  0  0  0  0
 20 21  1  6  0  0  0
 20 27  1  0  0  0  0
 22 23  1  1  0  0  0
 22 29  1  0  0  0  0
 24  2  1  1  0  0  0
 24 31  1  0  0  0  0
 25 26  1  1  0  0  0
 25 33  1  0  0  0  0
 27 28  1  1  0  0  0
 27 34  1  0  0  0  0
 29 30  1  0  0  0  0
 29 36  1  6  0  0  0
 31 32  1  6  0  0  0
 31 38  1  0  0  0  0
 34 35  1  0  0  0  0
 34 40  1  1  0  0  0
 36 37  1  0  0  0  0
 38 39  1  1  0  0  0
 40 41  1  0  0  0  0
M  END
>  <CHROM.1>
175.89144830,-169.05929657,-173.13052047,57.48052901,37.13706972,41.85568865
6.47613053,2.59416318,0.49513357,2.79404997

>  <Name>
ligand

>  <RI>
0

>  <Rbt.Current_Directory>
/home/itssahil/PROJECTS/Mol_Feturizer/New_Systems/rnas/1ZZ5

>  <Rbt.Executable>
rbdock ($Id: //depot/dev/client3/rdock/2013.1/src/exe/rbdock.cxx#4 $)

>  <Rbt.Library>
libRbt.so (2013.1, Build901 2013/11/27)

>  <Rbt.Parameter_File>
/export/apps/rDock/src/rDock_2013.1_src/data/scripts/dock_solv.prm

>  <Rbt.Receptor>
prm/pocket_docking_7.prm

>  <SCORE>
-10.9283

>  <SCORE.INTER>
-8.53745

>  <SCORE.INTER.CONST>
1

>  <SCORE.INTER.POLAR>
0

>  <SCORE.INTER.ROT>
4

>  <SCORE.INTER.SOLV>
20.8736

>  <SCORE.INTER.VDW>
-18.9162

>  <SCORE.INTER.norm>
-0.208231

>  <SCORE.INTRA>
-2.3909

>  <SCORE.INTRA.DIHEDRAL>
-4.10999

>  <SCORE.INTRA.DIHEDRAL.0>
5.18357

>  <SCORE.INTRA.POLAR>
0

>  <SCORE.INTRA.POLAR.0>
0

>  <SCORE.INTRA.REPUL>
0

>  <SCORE.INTRA.REPUL.0>
0

>  <SCORE.INTRA.SOLV>
-1.09405

>  <SCORE.INTRA.SOLV.lig_0>
-109.973

>  <SCORE.INTRA.VDW>
0.211123

>  <SCORE.INTRA.VDW.0>
-1.68646

>  <SCORE.INTRA.norm>
-0.0583146

>  <SCORE.RESTR>
0

>  <SCORE.RESTR.CAVITY>
0

>  <SCORE.RESTR.norm>
0

>  <SCORE.SYSTEM>
0

>  <SCORE.SYSTEM.CONST>
0

>  <SCORE.SYSTEM.DIHEDRAL>
0

>  <SCORE.SYSTEM.SOLV>
0

>  <SCORE.SYSTEM.norm>
0

>  <SCORE.heavy>
41

>  <SCORE.norm>
-0.266545

>  <RMSD>
3.512

$$$$
ligand
 OpenBabel11021811423D
libRbt.so/2013.1/901 2013/11/27
 41 45  0  0  0  0  0  0  0  0999 V2000
   34.2569   39.0211    4.9479 C   0  0  2  0  0  0  0  0  0  0  0  0
   33.9774   39.1219    6.3579 O   0  0  0  0  0  0  0  0  0  0  0  0
   33.5344   36.2966    9.6349 C   0  0  2  0  0  0  0  0  0  0  0  0
   33.0883   35.1022   10.3976 N   0  0  0  0  0  0  0  0  0  0  0  0
   37.3343   36.9842    6.8130 C   0  0  1  0  0  0  0  0  0  0  0  0
   41.3894   36.3098    5.4543 C   0  0  1  0  0  0  0  0  0  0  0  0
   35.2343   40.1439    4.4878 C   0  0  2  0  0  0  0  0  0  0  0  0
   36.4699   40.1844    5.2757 N   0  0  0  0  0  0  0  0  0  0  0  0
   32.2789   37.0437    9.0840 C   0  0  0  0  0  0  0  0  0  0  0  0
   38.1783   36.3999    5.6571 C   0  0  2  0  0  0  0  0  0  0  0  0
   38.8471   35.1945    6.0421 O   0  0  0  0  0  0  0  0  0  0  0  0
   42.6866   36.2000    6.3639 C   0  0  2  0  0  0  0  0  0  0  0  0
   43.4347   37.4851    6.5176 N   0  0  0  0  0  0  0  0  0  0  0  0
   34.5273   41.5252    4.5388 C   0  0  1  0  0  0  0  0  0  0  0  0
   35.4160   42.5456    4.0917 O   0  0  0  0  0  0  0  0  0  0  0  0
   32.6860   38.3043    8.2670 C   0  0  2  0  0  0  0  0  0  0  0  0
   31.4493   38.9541    7.7934 N   0  0  0  0  0  0  0  0  0  0  0  0
   39.1514   37.5297    5.2793 C   0  0  2  0  0  0  0  0  0  0  0  0
   40.4777   37.3678    5.9229 O   0  0  0  0  0  0  0  0  0  0  0  0
   43.6596   35.0759    5.7850 C   0  0  1  0  0  0  0  0  0  0  0  0
   43.0768   33.7607    5.9172 O   0  0  0  0  0  0  0  0  0  0  0  0
   33.2524   41.4912    3.6646 C   0  0  2  0  0  0  0  0  0  0  0  0
   32.6132   42.7501    3.6922 O   0  0  0  0  0  0  0  0  0  0  0  0
   33.6418   37.8972    7.0901 C   0  0  2  0  0  0  0  0  0  0  0  0
   38.4472   38.7964    5.7574 C   0  0  2  0  0  0  0  0  0  0  0  0
   37.5696   38.3932    6.7992 O   0  0  0  0  0  0  0  0  0  0  0  0
   44.0163   35.3215    4.2638 C   0  0  2  0  0  0  0  0  0  0  0  0
   44.8203   36.5079    4.1521 O   0  0  0  0  0  0  0  0  0  0  0  0
   32.2972   40.3875    4.1608 C   0  0  2  0  0  0  0  0  0  0  0  0
   33.0221   39.0978    4.1325 O   0  0  0  0  0  0  0  0  0  0  0  0
   34.9470   37.1653    7.6845 C   0  0  2  0  0  0  0  0  0  0  0  0
   35.8902   36.7172    6.6245 O   0  0  0  0  0  0  0  0  0  0  0  0
   37.6119   39.4765    4.6826 C   0  0  0  0  0  0  0  0  0  0  0  0
   42.6865   35.4649    3.4180 C   0  0  1  0  0  0  0  0  0  0  0  0
   41.7600   36.4923    4.0040 O   0  0  0  0  0  0  0  0  0  0  0  0
   31.0377   40.3469    3.2644 C   0  0  0  0  0  0  0  0  0  0  0  0
   31.2838   39.9557    1.8642 N   0  0  0  0  0  0  0  0  0  0  0  0
   34.5179   35.9050    8.4658 C   0  0  1  0  0  0  0  0  0  0  0  0
   35.6777   35.2530    8.9935 O   0  0  0  0  0  0  0  0  0  0  0  0
   42.9465   35.7642    1.8915 C   0  0  0  0  0  0  0  0  0  0  0  0
   43.5869   34.6655    1.1001 N   0  0  0  0  0  0  0  0  0  0  0  0
  1  2  1  1  0  0  0
  1  7  1  0  0  0  0
  1 30  1  0  0  0  0
  3  4  1  6  0  0  0
  3  9  1  0  0  0  0
  3 38  1  0  0  0  0
  5 10  1  0  0  0  0
  5 26  1  6  0  0  0
  5 32  1  0  0  0  0
  6 12  1  0  0  0  0
  6 35  1  0  0  0  0
  6 19  1  1  0  0  0
  7  8  1  1  0  0  0
  7 14  1  0  0  0  0
  8 33  1  0  0  0  0
  9 16  1  0  0  0  0
 10 11  1  1  0  0  0
 10 18  1  0  0  0  0
 12 13  1  6  0  0  0
 12 20  1  0  0  0  0
 14 15  1  6  0  0  0
 14 22  1  0  0  0  0
 16 17  1  6  0  0  0
 16 24  1  0  0  0  0
 18 19  1  1  0  0  0
 18 25  1  0  0  0  0
 20 21  1  6  0  0  0
 20 27  1  0  0  0  0
 22 23  1  1  0  0  0
 22 29  1  0  0  0  0
 24  2  1  1  0  0  0
 24 31  1  0  0  0  0
 25 26  1  1  0  0  0
 25 33  1  0  0  0  0
 27 28  1  1  0  0  0
 27 34  1  0  0  0  0
 29 30  1  0  0  0  0
 29 36  1  6  0  0  0
 31 32  1  6  0  0  0
 31 38  1  0  0  0  0
 34 35  1  0  0  0  0
 34 40  1  6  0  0  0
 36 37  1  0  0  0  0
 38 39  1  1  0  0  0
 40 41  1  0  0  0  0
M  END
>  <CHROM.1>
72.26981319,-173.98878586,64.97951938,67.23232062,37.16516262,37.76821026
5.60692970,-3.00879572,-0.34612121,2.25878079

>  <Name>
ligand

>  <RI>
0

>  <Rbt.Current_Directory>
/home/itssahil/PROJECTS/Mol_Feturizer/New_Systems/rnas/1ZZ5

>  <Rbt.Executable>
rbdock ($Id: //depot/dev/client3/rdock/2013.1/src/exe/rbdock.cxx#4 $)

>  <Rbt.Library>
libRbt.so (2013.1, Build901 2013/11/27)

>  <Rbt.Parameter_File>
/export/apps/rDock/src/rDock_2013.1_src/data/scripts/dock_solv.prm

>  <Rbt.Receptor>
prm/pocket_docking_8.prm

>  <SCORE>
-9.43959

>  <SCORE.INTER>
-8.03992

>  <SCORE.INTER.CONST>
1

>  <SCORE.INTER.POLAR>
0

>  <SCORE.INTER.ROT>
4

>  <SCORE.INTER.SOLV>
21.4025

>  <SCORE.INTER.VDW>
-18.7608

>  <SCORE.INTER.norm>
-0.196095

>  <SCORE.INTRA>
-1.39967

>  <SCORE.INTRA.DIHEDRAL>
-3.813

>  <SCORE.INTRA.DIHEDRAL.0>
5.18357

>  <SCORE.INTRA.POLAR>
0

>  <SCORE.INTRA.POLAR.0>
0

>  <SCORE.INTRA.REPUL>
0

>  <SCORE.INTRA.REPUL.0>
0

>  <SCORE.INTRA.SOLV>
0.197003

>  <SCORE.INTRA.SOLV.lig_0>
-109.973

>  <SCORE.INTRA.VDW>
0.408325

>  <SCORE.INTRA.VDW.0>
-1.68646

>  <SCORE.INTRA.norm>
-0.0341383

>  <SCORE.RESTR>
0

>  <SCORE.RESTR.CAVITY>
0

>  <SCORE.RESTR.norm>
0

>  <SCORE.SYSTEM>
0

>  <SCORE.SYSTEM.CONST>
0

>  <SCORE.SYSTEM.DIHEDRAL>
0

>  <SCORE.SYSTEM.SOLV>
0

>  <SCORE.SYSTEM.norm>
0

>  <SCORE.heavy>
41

>  <SCORE.norm>
-0.230234

>  <RMSD>
3.515

$$$$
ligand
 OpenBabel11021811423D
libRbt.so/2013.1/901 2013/11/27
 41 45  0  0  0  0  0  0  0  0999 V2000
   37.7964   40.2817    5.0972 C   0  0  2  0  0  0  0  0  0  0  0  0
   37.6509   39.9588    6.4940 O   0  0  0  0  0  0  0  0  0  0  0  0
   38.3595   36.4373    8.9464 C   0  0  2  0  0  0  0  0  0  0  0  0
   38.3459   35.0195    9.3902 N   0  0  0  0  0  0  0  0  0  0  0  0
   41.4979   38.8642    6.2752 C   0  0  1  0  0  0  0  0  0  0  0  0
   45.0596   41.6103    5.2575 C   0  0  1  0  0  0  0  0  0  0  0  0
   38.3691   41.7187    4.9102 C   0  0  2  0  0  0  0  0  0  0  0  0
   39.6211   41.9347    5.6416 N   0  0  0  0  0  0  0  0  0  0  0  0
   36.8949   36.8883    8.6471 C   0  0  0  0  0  0  0  0  0  0  0  0
   42.3436   38.8463    4.9813 C   0  0  2  0  0  0  0  0  0  0  0  0
   43.3578   37.8370    5.0215 O   0  0  0  0  0  0  0  0  0  0  0  0
   46.4688   41.5410    5.9866 C   0  0  2  0  0  0  0  0  0  0  0  0
   46.3901   41.1692    7.4325 N   0  0  0  0  0  0  0  0  0  0  0  0
   37.3159   42.7762    5.3376 C   0  0  1  0  0  0  0  0  0  0  0  0
   37.8338   44.0890    5.1395 O   0  0  0  0  0  0  0  0  0  0  0  0
   36.8470   38.3687    8.1692 C   0  0  2  0  0  0  0  0  0  0  0  0
   35.4356   38.7169    7.9189 N   0  0  0  0  0  0  0  0  0  0  0  0
   42.9190   40.2689    4.8756 C   0  0  2  0  0  0  0  0  0  0  0  0
   44.2985   40.3586    5.4127 O   0  0  0  0  0  0  0  0  0  0  0  0
   47.2284   42.9352    5.8293 C   0  0  1  0  0  0  0  0  0  0  0  0
   47.6026   43.1749    4.4547 O   0  0  0  0  0  0  0  0  0  0  0  0
   36.0155   42.5750    4.5256 C   0  0  2  0  0  0  0  0  0  0  0  0
   35.0585   43.5448    4.8968 O   0  0  0  0  0  0  0  0  0  0  0  0
   37.7480   38.5527    6.8969 C   0  0  2  0  0  0  0  0  0  0  0  0
   41.9455   41.1202    5.6859 C   0  0  2  0  0  0  0  0  0  0  0  0
   41.3299   40.2411    6.6167 O   0  0  0  0  0  0  0  0  0  0  0  0
   46.3535   44.1516    6.3357 C   0  0  2  0  0  0  0  0  0  0  0  0
   46.1872   44.0539    7.7602 O   0  0  0  0  0  0  0  0  0  0  0  0
   35.4625   41.1538    4.7518 C   0  0  2  0  0  0  0  0  0  0  0  0
   36.5098   40.1809    4.3693 O   0  0  0  0  0  0  0  0  0  0  0  0
   39.2604   38.1203    7.2406 C   0  0  2  0  0  0  0  0  0  0  0  0
   40.1732   38.2350    6.0711 O   0  0  0  0  0  0  0  0  0  0  0  0
   40.8453   41.7572    4.8499 C   0  0  0  0  0  0  0  0  0  0  0  0
   44.9491   44.1419    5.6063 C   0  0  1  0  0  0  0  0  0  0  0  0
   44.2689   42.8073    5.7222 O   0  0  0  0  0  0  0  0  0  0  0  0
   34.1762   40.9562    3.9163 C   0  0  0  0  0  0  0  0  0  0  0  0
   33.0409   41.8099    4.3119 N   0  0  0  0  0  0  0  0  0  0  0  0
   39.2834   36.6421    7.6848 C   0  0  1  0  0  0  0  0  0  0  0  0
   40.6277   36.2564    7.9893 O   0  0  0  0  0  0  0  0  0  0  0  0
   43.9869   45.2947    6.0888 C   0  0  0  0  0  0  0  0  0  0  0  0
   44.4591   46.6959    5.8500 N   0  0  0  0  0  0  0  0  0  0  0  0
  1  2  1  1  0  0  0
  1  7  1  0  0  0  0
  1 30  1  0  0  0  0
  3  4  1  6  0  0  0
  3  9  1  0  0  0  0
  3 38  1  0  0  0  0
  5 10  1  0  0  0  0
  5 26  1  6  0  0  0
  5 32  1  0  0  0  0
  6 12  1  0  0  0  0
  6 35  1  0  0  0  0
  6 19  1  1  0  0  0
  7  8  1  1  0  0  0
  7 14  1  0  0  0  0
  8 33  1  0  0  0  0
  9 16  1  0  0  0  0
 10 11  1  1  0  0  0
 10 18  1  0  0  0  0
 12 13  1  1  0  0  0
 12 20  1  0  0  0  0
 14 15  1  6  0  0  0
 14 22  1  0  0  0  0
 16 17  1  6  0  0  0
 16 24  1  0  0  0  0
 18 19  1  1  0  0  0
 18 25  1  0  0  0  0
 20 21  1  6  0  0  0
 20 27  1  0  0  0  0
 22 23  1  1  0  0  0
 22 29  1  0  0  0  0
 24  2  1  1  0  0  0
 24 31  1  0  0  0  0
 25 26  1  1  0  0  0
 25 33  1  0  0  0  0
 27 28  1  1  0  0  0
 27 34  1  0  0  0  0
 29 30  1  0  0  0  0
 29 36  1  6  0  0  0
 31 32  1  6  0  0  0
 31 38  1  0  0  0  0
 34 35  1  0  0  0  0
 34 40  1  1  0  0  0
 36 37  1  0  0  0  0
 38 39  1  1  0  0  0
 40 41  1  0  0  0  0
M  END
>  <CHROM.1>
173.28802120,175.92364097,-65.05272651,61.94301987,40.58874660,40.77122909
6.04998717,2.80788154,0.09740483,2.76693796

>  <Name>
ligand

>  <RI>
0

>  <Rbt.Current_Directory>
/home/itssahil/PROJECTS/Mol_Feturizer/New_Systems/rnas/1ZZ5

>  <Rbt.Executable>
rbdock ($Id: //depot/dev/client3/rdock/2013.1/src/exe/rbdock.cxx#4 $)

>  <Rbt.Library>
libRbt.so (2013.1, Build901 2013/11/27)

>  <Rbt.Parameter_File>
/export/apps/rDock/src/rDock_2013.1_src/data/scripts/dock_solv.prm

>  <Rbt.Receptor>
prm/pocket_docking_8.prm

>  <SCORE>
-9.6647

>  <SCORE.INTER>
-7.80999

>  <SCORE.INTER.CONST>
1

>  <SCORE.INTER.POLAR>
0

>  <SCORE.INTER.ROT>
4

>  <SCORE.INTER.SOLV>
14.0634

>  <SCORE.INTER.VDW>
-16.1611

>  <SCORE.INTER.norm>
-0.190488

>  <SCORE.INTRA>
-1.8547

>  <SCORE.INTRA.DIHEDRAL>
-4.55043

>  <SCORE.INTRA.DIHEDRAL.0>
5.18357

>  <SCORE.INTRA.POLAR>
0

>  <SCORE.INTRA.POLAR.0>
0

>  <SCORE.INTRA.REPUL>
0

>  <SCORE.INTRA.REPUL.0>
0

>  <SCORE.INTRA.SOLV>
0.110614

>  <SCORE.INTRA.SOLV.lig_0>
-109.973

>  <SCORE.INTRA.VDW>
0.365206

>  <SCORE.INTRA.VDW.0>
-1.68646

>  <SCORE.INTRA.norm>
-0.0452367

>  <SCORE.RESTR>
0

>  <SCORE.RESTR.CAVITY>
0

>  <SCORE.RESTR.norm>
0

>  <SCORE.SYSTEM>
0

>  <SCORE.SYSTEM.CONST>
0

>  <SCORE.SYSTEM.DIHEDRAL>
0

>  <SCORE.SYSTEM.SOLV>
0

>  <SCORE.SYSTEM.norm>
0

>  <SCORE.heavy>
41

>  <SCORE.norm>
-0.235724

>  <RMSD>
3.553

$$$$
ligand
 OpenBabel11021811423D
libRbt.so/2013.1/901 2013/11/27
 41 45  0  0  0  0  0  0  0  0999 V2000
   34.4901   39.0706    4.9562 C   0  0  2  0  0  0  0  0  0  0  0  0
   34.1258   39.1635    6.3473 O   0  0  0  0  0  0  0  0  0  0  0  0
   33.5207   36.3225    9.5846 C   0  0  2  0  0  0  0  0  0  0  0  0
   33.0437   35.1206   10.3161 N   0  0  0  0  0  0  0  0  0  0  0  0
   37.4740   37.0627    6.9965 C   0  0  1  0  0  0  0  0  0  0  0  0
   40.6932   37.6251    7.7629 C   0  0  1  0  0  0  0  0  0  0  0  0
   35.4802   40.2060    4.5583 C   0  0  2  0  0  0  0  0  0  0  0  0
   36.6660   40.2579    5.4188 N   0  0  0  0  0  0  0  0  0  0  0  0
   32.2918   37.0571    8.9616 C   0  0  0  0  0  0  0  0  0  0  0  0
   38.3923   36.4919    5.8917 C   0  0  2  0  0  0  0  0  0  0  0  0
   39.0509   35.2930    6.3128 O   0  0  0  0  0  0  0  0  0  0  0  0
   42.1785   37.6213    8.3252 C   0  0  2  0  0  0  0  0  0  0  0  0
   42.9854   36.4336    7.9092 N   0  0  0  0  0  0  0  0  0  0  0  0
   34.7554   41.5789    4.5706 C   0  0  1  0  0  0  0  0  0  0  0  0
   35.6574   42.6108    4.1800 O   0  0  0  0  0  0  0  0  0  0  0  0
   32.7322   38.3249    8.1737 C   0  0  2  0  0  0  0  0  0  0  0  0
   31.5186   38.9622    7.6288 N   0  0  0  0  0  0  0  0  0  0  0  0
   39.3730   37.6340    5.5756 C   0  0  2  0  0  0  0  0  0  0  0  0
   40.6603   37.4852    6.2968 O   0  0  0  0  0  0  0  0  0  0  0  0
   42.1545   37.7257    9.9171 C   0  0  1  0  0  0  0  0  0  0  0  0
   41.6632   39.0135   10.3496 O   0  0  0  0  0  0  0  0  0  0  0  0
   33.5355   41.5333    3.6217 C   0  0  2  0  0  0  0  0  0  0  0  0
   32.8812   42.7847    3.6144 O   0  0  0  0  0  0  0  0  0  0  0  0
   33.7612   37.9326    7.0550 C   0  0  2  0  0  0  0  0  0  0  0  0
   38.6270   38.8910    6.0141 C   0  0  2  0  0  0  0  0  0  0  0  0
   37.6934   38.4744    7.0005 O   0  0  0  0  0  0  0  0  0  0  0  0
   41.2640   36.5964   10.5756 C   0  0  2  0  0  0  0  0  0  0  0  0
   41.8873   35.3186   10.3630 O   0  0  0  0  0  0  0  0  0  0  0  0
   32.5652   40.4171    4.0571 C   0  0  2  0  0  0  0  0  0  0  0  0
   33.3054   39.1359    4.0687 O   0  0  0  0  0  0  0  0  0  0  0  0
   35.0370   37.2137    7.7244 C   0  0  2  0  0  0  0  0  0  0  0  0
   36.0469   36.7799    6.7215 O   0  0  0  0  0  0  0  0  0  0  0  0
   37.8495   39.5651    4.8931 C   0  0  0  0  0  0  0  0  0  0  0  0
   39.8126   36.6229    9.9455 C   0  0  1  0  0  0  0  0  0  0  0  0
   39.8545   36.5733    8.4445 O   0  0  0  0  0  0  0  0  0  0  0  0
   31.3620   40.3651    3.0869 C   0  0  0  0  0  0  0  0  0  0  0  0
   30.3381   39.3578    3.4201 N   0  0  0  0  0  0  0  0  0  0  0  0
   34.5767   35.9461    8.4753 C   0  0  1  0  0  0  0  0  0  0  0  0
   35.7103   35.3056    9.0696 O   0  0  0  0  0  0  0  0  0  0  0  0
   38.8668   35.4931   10.5081 C   0  0  0  0  0  0  0  0  0  0  0  0
   39.2845   34.0812   10.2335 N   0  0  0  0  0  0  0  0  0  0  0  0
  1  2  1  1  0  0  0
  1  7  1  0  0  0  0
  1 30  1  0  0  0  0
  3  4  1  6  0  0  0
  3  9  1  0  0  0  0
  3 38  1  0  0  0  0
  5 10  1  0  0  0  0
  5 26  1  6  0  0  0
  5 32  1  0  0  0  0
  6 12  1  0  0  0  0
  6 35  1  0  0  0  0
  6 19  1  6  0  0  0
  7  8  1  1  0  0  0
  7 14  1  0  0  0  0
  8 33  1  0  0  0  0
  9 16  1  0  0  0  0
 10 11  1  1  0  0  0
 10 18  1  0  0  0  0
 12 13  1  1  0  0  0
 12 20  1  0  0  0  0
 14 15  1  6  0  0  0
 14 22  1  0  0  0  0
 16 17  1  6  0  0  0
 16 24  1  0  0  0  0
 18 19  1  1  0  0  0
 18 25  1  0  0  0  0
 20 21  1  6  0  0  0
 20 27  1  0  0  0  0
 22 23  1  1  0  0  0
 22 29  1  0  0  0  0
 24  2  1  1  0  0  0
 24 31  1  0  0  0  0
 25 26  1  1  0  0  0
 25 33  1  0  0  0  0
 27 28  1  6  0  0  0
 27 34  1  0  0  0  0
 29 30  1  0  0  0  0
 29 36  1  6  0  0  0
 31 32  1  6  0  0  0
 31 38  1  0  0  0  0
 34 35  1  0  0  0  0
 34 40  1  1  0  0  0
 36 37  1  0  0  0  0
 38 39  1  1  0  0  0
 40 41  1  0  0  0  0
M  END
>  <CHROM.1>
-67.58176822,-172.55222917,-178.34348392,-63.00029280,36.68536581,38.03689658
7.04097005,-2.52734162,0.04347861,2.32812351

>  <Name>
ligand

>  <RI>
0

>  <Rbt.Current_Directory>
/home/itssahil/PROJECTS/Mol_Feturizer/New_Systems/rnas/1ZZ5

>  <Rbt.Executable>
rbdock ($Id: //depot/dev/client3/rdock/2013.1/src/exe/rbdock.cxx#4 $)

>  <Rbt.Library>
libRbt.so (2013.1, Build901 2013/11/27)

>  <Rbt.Parameter_File>
/export/apps/rDock/src/rDock_2013.1_src/data/scripts/dock_solv.prm

>  <Rbt.Receptor>
prm/pocket_docking_6.prm

>  <SCORE>
-11.0137

>  <SCORE.INTER>
-9.2576

>  <SCORE.INTER.CONST>
1

>  <SCORE.INTER.POLAR>
0

>  <SCORE.INTER.ROT>
4

>  <SCORE.INTER.SOLV>
24.335

>  <SCORE.INTER.VDW>
-20.5501

>  <SCORE.INTER.norm>
-0.225795

>  <SCORE.INTRA>
-1.75614

>  <SCORE.INTRA.DIHEDRAL>
-4.3612

>  <SCORE.INTRA.DIHEDRAL.0>
5.18357

>  <SCORE.INTRA.POLAR>
0

>  <SCORE.INTRA.POLAR.0>
0

>  <SCORE.INTRA.REPUL>
0.000807443

>  <SCORE.INTRA.REPUL.0>
0

>  <SCORE.INTRA.SOLV>
1.64455

>  <SCORE.INTRA.SOLV.lig_0>
-109.973

>  <SCORE.INTRA.VDW>
-0.401855

>  <SCORE.INTRA.VDW.0>
-1.68646

>  <SCORE.INTRA.norm>
-0.0428328

>  <SCORE.RESTR>
0

>  <SCORE.RESTR.CAVITY>
0

>  <SCORE.RESTR.norm>
0

>  <SCORE.SYSTEM>
0

>  <SCORE.SYSTEM.CONST>
0

>  <SCORE.SYSTEM.DIHEDRAL>
0

>  <SCORE.SYSTEM.SOLV>
0

>  <SCORE.SYSTEM.norm>
0

>  <SCORE.heavy>
41

>  <SCORE.norm>
-0.268628

>  <RMSD>
3.603

$$$$
ligand
 OpenBabel11021811423D
libRbt.so/2013.1/901 2013/11/27
 41 45  0  0  0  0  0  0  0  0999 V2000
   34.5014   39.0444    4.9811 C   0  0  2  0  0  0  0  0  0  0  0  0
   34.1252   39.1322    6.3694 O   0  0  0  0  0  0  0  0  0  0  0  0
   33.4670   36.2773    9.5840 C   0  0  2  0  0  0  0  0  0  0  0  0
   32.9733   35.0751   10.3040 N   0  0  0  0  0  0  0  0  0  0  0  0
   37.4498   36.9997    7.0364 C   0  0  1  0  0  0  0  0  0  0  0  0
   40.6747   37.5744    7.8307 C   0  0  1  0  0  0  0  0  0  0  0  0
   35.5044   40.1738    4.5990 C   0  0  2  0  0  0  0  0  0  0  0  0
   36.6827   40.2108    5.4705 N   0  0  0  0  0  0  0  0  0  0  0  0
   32.2499   37.0258    8.9543 C   0  0  0  0  0  0  0  0  0  0  0  0
   38.3733   36.4278    5.9365 C   0  0  2  0  0  0  0  0  0  0  0  0
   39.0181   35.2209    6.3565 O   0  0  0  0  0  0  0  0  0  0  0  0
   42.1573   37.5593    8.3998 C   0  0  2  0  0  0  0  0  0  0  0  0
   42.9458   36.3485    8.0163 N   0  0  0  0  0  0  0  0  0  0  0  0
   34.7910   41.5526    4.6129 C   0  0  1  0  0  0  0  0  0  0  0  0
   35.7051   42.5793    4.2367 O   0  0  0  0  0  0  0  0  0  0  0  0
   32.7081   38.2945    8.1780 C   0  0  2  0  0  0  0  0  0  0  0  0
   31.5048   38.9451    7.6259 N   0  0  0  0  0  0  0  0  0  0  0  0
   39.3664   37.5634    5.6362 C   0  0  2  0  0  0  0  0  0  0  0  0
   40.6457   37.3996    6.3682 O   0  0  0  0  0  0  0  0  0  0  0  0
   42.1282   37.7025    9.9886 C   0  0  1  0  0  0  0  0  0  0  0  0
   41.6568   39.0084   10.3876 O   0  0  0  0  0  0  0  0  0  0  0  0
   33.5795   41.5228    3.6527 C   0  0  2  0  0  0  0  0  0  0  0  0
   32.9357   42.7797    3.6469 O   0  0  0  0  0  0  0  0  0  0  0  0
   33.7440   37.9002    7.0663 C   0  0  2  0  0  0  0  0  0  0  0  0
   38.6268   38.8240    6.0754 C   0  0  2  0  0  0  0  0  0  0  0  0
   37.6809   38.4094    7.0508 O   0  0  0  0  0  0  0  0  0  0  0  0
   41.2161   36.6046   10.6699 C   0  0  2  0  0  0  0  0  0  0  0  0
   41.8186   35.3117   10.4912 O   0  0  0  0  0  0  0  0  0  0  0  0
   32.5961   40.4123    4.0726 C   0  0  2  0  0  0  0  0  0  0  0  0
   33.3255   39.1248    4.0833 O   0  0  0  0  0  0  0  0  0  0  0  0
   35.0076   37.1668    7.7430 C   0  0  2  0  0  0  0  0  0  0  0  0
   36.0230   36.7305    6.7467 O   0  0  0  0  0  0  0  0  0  0  0  0
   37.8652   39.5112    4.9515 C   0  0  0  0  0  0  0  0  0  0  0  0
   39.7680   36.6401   10.0325 C   0  0  1  0  0  0  0  0  0  0  0  0
   39.8155   36.5536    8.5334 O   0  0  0  0  0  0  0  0  0  0  0  0
   31.4014   40.3760    3.0912 C   0  0  0  0  0  0  0  0  0  0  0  0
   30.3565   39.3890    3.4203 N   0  0  0  0  0  0  0  0  0  0  0  0
   34.5299   35.8986    8.4821 C   0  0  1  0  0  0  0  0  0  0  0  0
   35.6527   35.2451    9.0829 O   0  0  0  0  0  0  0  0  0  0  0  0
   38.8009   35.5403   10.6178 C   0  0  0  0  0  0  0  0  0  0  0  0
   39.1888   34.1154   10.3676 N   0  0  0  0  0  0  0  0  0  0  0  0
  1  2  1  1  0  0  0
  1  7  1  0  0  0  0
  1 30  1  0  0  0  0
  3  4  1  6  0  0  0
  3  9  1  0  0  0  0
  3 38  1  0  0  0  0
  5 10  1  0  0  0  0
  5 26  1  6  0  0  0
  5 32  1  0  0  0  0
  6 12  1  0  0  0  0
  6 35  1  0  0  0  0
  6 19  1  6  0  0  0
  7  8  1  1  0  0  0
  7 14  1  0  0  0  0
  8 33  1  0  0  0  0
  9 16  1  0  0  0  0
 10 11  1  1  0  0  0
 10 18  1  0  0  0  0
 12 13  1  1  0  0  0
 12 20  1  0  0  0  0
 14 15  1  6  0  0  0
 14 22  1  0  0  0  0
 16 17  1  6  0  0  0
 16 24  1  0  0  0  0
 18 19  1  1  0  0  0
 18 25  1  0  0  0  0
 20 21  1  6  0  0  0
 20 27  1  0  0  0  0
 22 23  1  1  0  0  0
 22 29  1  0  0  0  0
 24  2  1  1  0  0  0
 24 31  1  0  0  0  0
 25 26  1  1  0  0  0
 25 33  1  0  0  0  0
 27 28  1  6  0  0  0
 27 34  1  0  0  0  0
 29 30  1  0  0  0  0
 29 36  1  6  0  0  0
 31 32  1  6  0  0  0
 31 38  1  0  0  0  0
 34 35  1  0  0  0  0
 34 40  1  1  0  0  0
 36 37  1  0  0  0  0
 38 39  1  1  0  0  0
 40 41  1  0  0  0  0
M  END
>  <CHROM.1>
-69.58597197,-172.05325449,-177.48165306,-63.58137303,36.67068543,38.00565719
7.08573623,-2.52076875,0.04966965,2.32935872

>  <Name>
ligand

>  <RI>
0

>  <Rbt.Current_Directory>
/home/itssahil/PROJECTS/Mol_Feturizer/New_Systems/rnas/1ZZ5

>  <Rbt.Executable>
rbdock ($Id: //depot/dev/client3/rdock/2013.1/src/exe/rbdock.cxx#4 $)

>  <Rbt.Library>
libRbt.so (2013.1, Build901 2013/11/27)

>  <Rbt.Parameter_File>
/export/apps/rDock/src/rDock_2013.1_src/data/scripts/dock_solv.prm

>  <Rbt.Receptor>
prm/pocket_docking_7.prm

>  <SCORE>
-10.994

>  <SCORE.INTER>
-9.24302

>  <SCORE.INTER.CONST>
1

>  <SCORE.INTER.POLAR>
0

>  <SCORE.INTER.ROT>
4

>  <SCORE.INTER.SOLV>
24.6136

>  <SCORE.INTER.VDW>
-20.6332

>  <SCORE.INTER.norm>
-0.22544

>  <SCORE.INTRA>
-1.75099

>  <SCORE.INTRA.DIHEDRAL>
-4.13592

>  <SCORE.INTRA.DIHEDRAL.0>
5.18357

>  <SCORE.INTRA.POLAR>
0

>  <SCORE.INTRA.POLAR.0>
0

>  <SCORE.INTRA.REPUL>
8.4219e-05

>  <SCORE.INTRA.REPUL.0>
0

>  <SCORE.INTRA.SOLV>
1.57432

>  <SCORE.INTRA.SOLV.lig_0>
-109.973

>  <SCORE.INTRA.VDW>
-0.470612

>  <SCORE.INTRA.VDW.0>
-1.68646

>  <SCORE.INTRA.norm>
-0.0427071

>  <SCORE.RESTR>
0

>  <SCORE.RESTR.CAVITY>
0

>  <SCORE.RESTR.norm>
0

>  <SCORE.SYSTEM>
0

>  <SCORE.SYSTEM.CONST>
0

>  <SCORE.SYSTEM.DIHEDRAL>
0

>  <SCORE.SYSTEM.SOLV>
0

>  <SCORE.SYSTEM.norm>
0

>  <SCORE.heavy>
41

>  <SCORE.norm>
-0.268147

>  <RMSD>
3.632

$$$$
ligand
 OpenBabel11021811423D
libRbt.so/2013.1/901 2013/11/27
 41 45  0  0  0  0  0  0  0  0999 V2000
   35.8893   40.4570    4.7309 C   0  0  2  0  0  0  0  0  0  0  0  0
   35.6422   39.9932    6.0727 O   0  0  0  0  0  0  0  0  0  0  0  0
   37.5034   37.1066    8.7413 C   0  0  2  0  0  0  0  0  0  0  0  0
   38.1136   35.8396    9.2203 N   0  0  0  0  0  0  0  0  0  0  0  0
   39.4675   40.9793    6.7364 C   0  0  1  0  0  0  0  0  0  0  0  0
   41.2495   43.5560    7.9169 C   0  0  1  0  0  0  0  0  0  0  0  0
   35.6861   41.9981    4.6236 C   0  0  2  0  0  0  0  0  0  0  0  0
   36.4782   42.7487    5.6026 N   0  0  0  0  0  0  0  0  0  0  0  0
   36.1085   36.7916    8.1142 C   0  0  0  0  0  0  0  0  0  0  0  0
   40.4526   41.4888    5.6596 C   0  0  2  0  0  0  0  0  0  0  0  0
   41.8033   41.1185    5.9551 O   0  0  0  0  0  0  0  0  0  0  0  0
   42.2627   44.5492    8.6304 C   0  0  2  0  0  0  0  0  0  0  0  0
   43.6602   44.4770    8.1046 N   0  0  0  0  0  0  0  0  0  0  0  0
   34.1822   42.3530    4.7740 C   0  0  1  0  0  0  0  0  0  0  0  0
   33.9977   43.7606    4.6483 O   0  0  0  0  0  0  0  0  0  0  0  0
   35.4223   38.0849    7.5863 C   0  0  2  0  0  0  0  0  0  0  0  0
   34.1137   37.7036    7.0222 N   0  0  0  0  0  0  0  0  0  0  0  0
   40.2422   43.0124    5.6327 C   0  0  2  0  0  0  0  0  0  0  0  0
   41.2447   43.7329    6.4544 O   0  0  0  0  0  0  0  0  0  0  0  0
   42.2643   44.2823   10.2034 C   0  0  1  0  0  0  0  0  0  0  0  0
   41.0000   44.6502   10.7978 O   0  0  0  0  0  0  0  0  0  0  0  0
   33.3586   41.5977    3.7054 C   0  0  2  0  0  0  0  0  0  0  0  0
   31.9912   41.9293    3.8250 O   0  0  0  0  0  0  0  0  0  0  0  0
   36.3479   38.7946    6.5357 C   0  0  2  0  0  0  0  0  0  0  0  0
   38.8302   43.1980    6.1812 C   0  0  2  0  0  0  0  0  0  0  0  0
   38.5638   42.0575    6.9851 O   0  0  0  0  0  0  0  0  0  0  0  0
   42.5666   42.7694   10.5515 C   0  0  2  0  0  0  0  0  0  0  0  0
   43.9233   42.4626   10.1886 O   0  0  0  0  0  0  0  0  0  0  0  0
   33.5624   40.0769    3.8547 C   0  0  2  0  0  0  0  0  0  0  0  0
   35.0095   39.7885    3.7439 O   0  0  0  0  0  0  0  0  0  0  0  0
   37.7644   39.1459    7.2158 C   0  0  2  0  0  0  0  0  0  0  0  0
   38.7136   39.7933    6.2703 O   0  0  0  0  0  0  0  0  0  0  0  0
   37.7581   43.2682    5.1036 C   0  0  0  0  0  0  0  0  0  0  0  0
   41.5546   41.8293    9.7793 C   0  0  1  0  0  0  0  0  0  0  0  0
   41.5291   42.1263    8.3067 O   0  0  0  0  0  0  0  0  0  0  0  0
   32.7536   39.3336    2.7661 C   0  0  0  0  0  0  0  0  0  0  0  0
   31.2890   39.4119    2.9178 N   0  0  0  0  0  0  0  0  0  0  0  0
   38.4356   37.8449    7.7053 C   0  0  1  0  0  0  0  0  0  0  0  0
   39.6956   38.1559    8.3089 O   0  0  0  0  0  0  0  0  0  0  0  0
   41.8151   40.2937   10.0273 C   0  0  0  0  0  0  0  0  0  0  0  0
   43.1855   39.7910    9.6913 N   0  0  0  0  0  0  0  0  0  0  0  0
  1  2  1  1  0  0  0
  1  7  1  0  0  0  0
  1 30  1  0  0  0  0
  3  4  1  6  0  0  0
  3  9  1  0  0  0  0
  3 38  1  0  0  0  0
  5 10  1  0  0  0  0
  5 26  1  6  0  0  0
  5 32  1  0  0  0  0
  6 12  1  0  0  0  0
  6 35  1  0  0  0  0
  6 19  1  6  0  0  0
  7  8  1  1  0  0  0
  7 14  1  0  0  0  0
  8 33  1  0  0  0  0
  9 16  1  0  0  0  0
 10 11  1  1  0  0  0
 10 18  1  0  0  0  0
 12 13  1  6  0  0  0
 12 20  1  0  0  0  0
 14 15  1  6  0  0  0
 14 22  1  0  0  0  0
 16 17  1  6  0  0  0
 16 24  1  0  0  0  0
 18 19  1  1  0  0  0
 18 25  1  0  0  0  0
 20 21  1  6  0  0  0
 20 27  1  0  0  0  0
 22 23  1  1  0  0  0
 22 29  1  0  0  0  0
 24  2  1  1  0  0  0
 24 31  1  0  0  0  0
 25 26  1  1  0  0  0
 25 33  1  0  0  0  0
 27 28  1  6  0  0  0
 27 34  1  0  0  0  0
 29 30  1  0  0  0  0
 29 36  1  6  0  0  0
 31 32  1  6  0  0  0
 31 38  1  0  0  0  0
 34 35  1  0  0  0  0
 34 40  1  6  0  0  0
 36 37  1  0  0  0  0
 38 39  1  1  0  0  0
 40 41  1  0  0  0  0
M  END
>  <CHROM.1>
-66.26495963,-172.47790021,-68.30329241,-56.74377378,38.19537914,41.05153274
6.84769244,3.08803516,0.54679944,2.74946406

>  <Name>
ligand

>  <RI>
0

>  <Rbt.Current_Directory>
/home/itssahil/PROJECTS/Mol_Feturizer/New_Systems/rnas/1ZZ5

>  <Rbt.Executable>
rbdock ($Id: //depot/dev/client3/rdock/2013.1/src/exe/rbdock.cxx#4 $)

>  <Rbt.Library>
libRbt.so (2013.1, Build901 2013/11/27)

>  <Rbt.Parameter_File>
/export/apps/rDock/src/rDock_2013.1_src/data/scripts/dock_solv.prm

>  <Rbt.Receptor>
prm/pocket_docking_5.prm

>  <SCORE>
-9.57226

>  <SCORE.INTER>
-8.62186

>  <SCORE.INTER.CONST>
1

>  <SCORE.INTER.POLAR>
0

>  <SCORE.INTER.ROT>
4

>  <SCORE.INTER.SOLV>
12.0642

>  <SCORE.INTER.VDW>
-16.036

>  <SCORE.INTER.norm>
-0.210289

>  <SCORE.INTRA>
-0.950405

>  <SCORE.INTRA.DIHEDRAL>
-4.21413

>  <SCORE.INTRA.DIHEDRAL.0>
5.18357

>  <SCORE.INTRA.POLAR>
0

>  <SCORE.INTRA.POLAR.0>
0

>  <SCORE.INTRA.REPUL>
0.00085718

>  <SCORE.INTRA.REPUL.0>
0

>  <SCORE.INTRA.SOLV>
2.6686

>  <SCORE.INTRA.SOLV.lig_0>
-109.973

>  <SCORE.INTRA.VDW>
-0.181923

>  <SCORE.INTRA.VDW.0>
-1.68646

>  <SCORE.INTRA.norm>
-0.0231806

>  <SCORE.RESTR>
0

>  <SCORE.RESTR.CAVITY>
0

>  <SCORE.RESTR.norm>
0

>  <SCORE.SYSTEM>
0

>  <SCORE.SYSTEM.CONST>
0

>  <SCORE.SYSTEM.DIHEDRAL>
0

>  <SCORE.SYSTEM.SOLV>
0

>  <SCORE.SYSTEM.norm>
0

>  <SCORE.heavy>
41

>  <SCORE.norm>
-0.23347

>  <RMSD>
3.639

$$$$
ligand
 OpenBabel11021811423D
libRbt.so/2013.1/901 2013/11/27
 41 45  0  0  0  0  0  0  0  0999 V2000
   34.6572   38.9541    5.0287 C   0  0  2  0  0  0  0  0  0  0  0  0
   34.2785   39.0556    6.4153 O   0  0  0  0  0  0  0  0  0  0  0  0
   33.5642   36.2293    9.6432 C   0  0  2  0  0  0  0  0  0  0  0  0
   33.0488   35.0393   10.3682 N   0  0  0  0  0  0  0  0  0  0  0  0
   37.5656   36.8723    7.1034 C   0  0  1  0  0  0  0  0  0  0  0  0
   40.7858   37.3418    7.9101 C   0  0  1  0  0  0  0  0  0  0  0  0
   35.6797   40.0648    4.6435 C   0  0  2  0  0  0  0  0  0  0  0  0
   36.8560   40.0871    5.5181 N   0  0  0  0  0  0  0  0  0  0  0  0
   32.3615   36.9944    9.0060 C   0  0  0  0  0  0  0  0  0  0  0  0
   38.4827   36.2793    6.0093 C   0  0  2  0  0  0  0  0  0  0  0  0
   39.1063   35.0642    6.4376 O   0  0  0  0  0  0  0  0  0  0  0  0
   42.2617   37.2831    8.4934 C   0  0  2  0  0  0  0  0  0  0  0  0
   43.0344   36.0726    8.0780 N   0  0  0  0  0  0  0  0  0  0  0  0
   34.9891   41.4553    4.6479 C   0  0  1  0  0  0  0  0  0  0  0  0
   35.9210   42.4647    4.2689 O   0  0  0  0  0  0  0  0  0  0  0  0
   32.8427   38.2511    8.2242 C   0  0  2  0  0  0  0  0  0  0  0  0
   31.6519   38.9184    7.6652 N   0  0  0  0  0  0  0  0  0  0  0  0
   39.4951   37.3968    5.7058 C   0  0  2  0  0  0  0  0  0  0  0  0
   40.7696   37.2159    6.4424 O   0  0  0  0  0  0  0  0  0  0  0  0
   42.2180   37.3743   10.0857 C   0  0  1  0  0  0  0  0  0  0  0  0
   41.7639   38.6740   10.5231 O   0  0  0  0  0  0  0  0  0  0  0  0
   33.7800   41.4402    3.6843 C   0  0  2  0  0  0  0  0  0  0  0  0
   33.1570   42.7074    3.6699 O   0  0  0  0  0  0  0  0  0  0  0  0
   33.8751   37.8339    7.1177 C   0  0  2  0  0  0  0  0  0  0  0  0
   38.7752   38.6718    6.1361 C   0  0  2  0  0  0  0  0  0  0  0  0
   37.8199   38.2780    7.1110 O   0  0  0  0  0  0  0  0  0  0  0  0
   41.2808   36.2699   10.7209 C   0  0  2  0  0  0  0  0  0  0  0  0
   41.8640   34.9737   10.5055 O   0  0  0  0  0  0  0  0  0  0  0  0
   32.7772   40.3483    4.1073 C   0  0  2  0  0  0  0  0  0  0  0  0
   33.4852   39.0491    4.1270 O   0  0  0  0  0  0  0  0  0  0  0  0
   35.1245   37.0834    7.8020 C   0  0  2  0  0  0  0  0  0  0  0  0
   36.1354   36.6250    6.8110 O   0  0  0  0  0  0  0  0  0  0  0  0
   38.0282   39.3653    5.0063 C   0  0  0  0  0  0  0  0  0  0  0  0
   39.8405   36.3506   10.0704 C   0  0  1  0  0  0  0  0  0  0  0  0
   39.9025   36.3128    8.5698 O   0  0  0  0  0  0  0  0  0  0  0  0
   31.5848   40.3264    3.1226 C   0  0  0  0  0  0  0  0  0  0  0  0
   30.5156   39.3696    3.4625 N   0  0  0  0  0  0  0  0  0  0  0  0
   34.6239   35.8272    8.5465 C   0  0  1  0  0  0  0  0  0  0  0  0
   35.7341   35.1586    9.1540 O   0  0  0  0  0  0  0  0  0  0  0  0
   38.8493   35.2484   10.6090 C   0  0  0  0  0  0  0  0  0  0  0  0
   39.1790   33.8307   10.2558 N   0  0  0  0  0  0  0  0  0  0  0  0
  1  2  1  1  0  0  0
  1  7  1  0  0  0  0
  1 30  1  0  0  0  0
  3  4  1  6  0  0  0
  3  9  1  0  0  0  0
  3 38  1  0  0  0  0
  5 10  1  0  0  0  0
  5 26  1  6  0  0  0
  5 32  1  0  0  0  0
  6 12  1  0  0  0  0
  6 35  1  0  0  0  0
  6 19  1  6  0  0  0
  7  8  1  1  0  0  0
  7 14  1  0  0  0  0
  8 33  1  0  0  0  0
  9 16  1  0  0  0  0
 10 11  1  1  0  0  0
 10 18  1  0  0  0  0
 12 13  1  1  0  0  0
 12 20  1  0  0  0  0
 14 15  1  6  0  0  0
 14 22  1  0  0  0  0
 16 17  1  6  0  0  0
 16 24  1  0  0  0  0
 18 19  1  1  0  0  0
 18 25  1  0  0  0  0
 20 21  1  6  0  0  0
 20 27  1  0  0  0  0
 22 23  1  1  0  0  0
 22 29  1  0  0  0  0
 24  2  1  1  0  0  0
 24 31  1  0  0  0  0
 25 26  1  1  0  0  0
 25 33  1  0  0  0  0
 27 28  1  6  0  0  0
 27 34  1  0  0  0  0
 29 30  1  0  0  0  0
 29 36  1  6  0  0  0
 31 32  1  6  0  0  0
 31 38  1  0  0  0  0
 34 35  1  0  0  0  0
 34 40  1  1  0  0  0
 36 37  1  0  0  0  0
 38 39  1  1  0  0  0
 40 41  1  0  0  0  0
M  END
>  <CHROM.1>
-67.00199492,-173.34347494,-176.80622587,-66.60003897,36.79521053,37.85851573
7.13591651,-2.49991943,0.03113923,2.32905580

>  <Name>
ligand

>  <RI>
0

>  <Rbt.Current_Directory>
/home/itssahil/PROJECTS/Mol_Feturizer/New_Systems/rnas/1ZZ5

>  <Rbt.Executable>
rbdock ($Id: //depot/dev/client3/rdock/2013.1/src/exe/rbdock.cxx#4 $)

>  <Rbt.Library>
libRbt.so (2013.1, Build901 2013/11/27)

>  <Rbt.Parameter_File>
/export/apps/rDock/src/rDock_2013.1_src/data/scripts/dock_solv.prm

>  <Rbt.Receptor>
prm/pocket_docking_5.prm

>  <SCORE>
-10.9288

>  <SCORE.INTER>
-9.29712

>  <SCORE.INTER.CONST>
1

>  <SCORE.INTER.POLAR>
0

>  <SCORE.INTER.ROT>
4

>  <SCORE.INTER.SOLV>
25.4955

>  <SCORE.INTER.VDW>
-20.9632

>  <SCORE.INTER.norm>
-0.226759

>  <SCORE.INTRA>
-1.63169

>  <SCORE.INTRA.DIHEDRAL>
-4.30093

>  <SCORE.INTRA.DIHEDRAL.0>
5.18357

>  <SCORE.INTRA.POLAR>
0

>  <SCORE.INTRA.POLAR.0>
0

>  <SCORE.INTRA.REPUL>
0.00131257

>  <SCORE.INTRA.REPUL.0>
0

>  <SCORE.INTRA.SOLV>
1.80505

>  <SCORE.INTRA.SOLV.lig_0>
-109.973

>  <SCORE.INTRA.VDW>
-0.390311

>  <SCORE.INTRA.VDW.0>
-1.68646

>  <SCORE.INTRA.norm>
-0.0397972

>  <SCORE.RESTR>
0

>  <SCORE.RESTR.CAVITY>
0

>  <SCORE.RESTR.norm>
0

>  <SCORE.SYSTEM>
0

>  <SCORE.SYSTEM.CONST>
0

>  <SCORE.SYSTEM.DIHEDRAL>
0

>  <SCORE.SYSTEM.SOLV>
0

>  <SCORE.SYSTEM.norm>
0

>  <SCORE.heavy>
41

>  <SCORE.norm>
-0.266556

>  <RMSD>
3.722

$$$$
ligand
 OpenBabel11021811423D
libRbt.so/2013.1/901 2013/11/27
 41 45  0  0  0  0  0  0  0  0999 V2000
   34.6395   38.9345    4.9731 C   0  0  2  0  0  0  0  0  0  0  0  0
   34.2522   39.0497    6.3563 O   0  0  0  0  0  0  0  0  0  0  0  0
   33.5072   36.2549    9.6046 C   0  0  2  0  0  0  0  0  0  0  0  0
   32.9829   35.0732   10.3368 N   0  0  0  0  0  0  0  0  0  0  0  0
   37.5271   36.8612    7.0852 C   0  0  1  0  0  0  0  0  0  0  0  0
   40.7447   37.3318    7.9079 C   0  0  1  0  0  0  0  0  0  0  0  0
   35.6684   40.0381    4.5846 C   0  0  2  0  0  0  0  0  0  0  0  0
   36.8391   40.0641    5.4667 N   0  0  0  0  0  0  0  0  0  0  0  0
   32.3113   37.0184    8.9528 C   0  0  0  0  0  0  0  0  0  0  0  0
   38.4491   36.2553    6.0024 C   0  0  2  0  0  0  0  0  0  0  0  0
   39.0656   35.0419    6.4455 O   0  0  0  0  0  0  0  0  0  0  0  0
   42.2177   37.2853    8.4995 C   0  0  2  0  0  0  0  0  0  0  0  0
   42.9965   36.0724    8.1031 N   0  0  0  0  0  0  0  0  0  0  0  0
   34.9827   41.4309    4.5722 C   0  0  1  0  0  0  0  0  0  0  0  0
   35.9205   42.4337    4.1902 O   0  0  0  0  0  0  0  0  0  0  0  0
   32.8019   38.2664    8.1630 C   0  0  2  0  0  0  0  0  0  0  0  0
   31.6171   38.9328    7.5903 N   0  0  0  0  0  0  0  0  0  0  0  0
   39.4675   37.3665    5.6955 C   0  0  2  0  0  0  0  0  0  0  0  0
   40.7365   37.1878    6.4419 O   0  0  0  0  0  0  0  0  0  0  0  0
   42.1655   37.3960   10.0904 C   0  0  1  0  0  0  0  0  0  0  0  0
   41.7048   38.6995   10.5093 O   0  0  0  0  0  0  0  0  0  0  0  0
   33.7797   41.4114    3.6009 C   0  0  2  0  0  0  0  0  0  0  0  0
   33.1613   42.6806    3.5712 O   0  0  0  0  0  0  0  0  0  0  0  0
   33.8400   37.8357    7.0670 C   0  0  2  0  0  0  0  0  0  0  0  0
   38.7493   38.6478    6.1097 C   0  0  2  0  0  0  0  0  0  0  0  0
   37.7863   38.2661    7.0818 O   0  0  0  0  0  0  0  0  0  0  0  0
   41.2287   36.2964   10.7343 C   0  0  2  0  0  0  0  0  0  0  0  0
   41.8172   34.9996   10.5379 O   0  0  0  0  0  0  0  0  0  0  0  0
   32.7704   40.3268    4.0271 C   0  0  2  0  0  0  0  0  0  0  0  0
   33.4737   39.0254    4.0631 O   0  0  0  0  0  0  0  0  0  0  0  0
   35.0823   37.0870    7.7660 C   0  0  2  0  0  0  0  0  0  0  0  0
   36.0979   36.6163    6.7857 O   0  0  0  0  0  0  0  0  0  0  0  0
   38.0120   39.3338    4.9689 C   0  0  0  0  0  0  0  0  0  0  0  0
   39.7914   36.3642   10.0755 C   0  0  1  0  0  0  0  0  0  0  0  0
   39.8614   36.3081    8.5758 O   0  0  0  0  0  0  0  0  0  0  0  0
   31.5843   40.3003    3.0350 C   0  0  0  0  0  0  0  0  0  0  0  0
   30.5172   39.3387    3.3677 N   0  0  0  0  0  0  0  0  0  0  0  0
   34.5725   35.8393    8.5184 C   0  0  1  0  0  0  0  0  0  0  0  0
   35.6764   35.1723    9.1391 O   0  0  0  0  0  0  0  0  0  0  0  0
   38.8011   35.2654   10.6225 C   0  0  0  0  0  0  0  0  0  0  0  0
   39.1095   33.8487   10.2466 N   0  0  0  0  0  0  0  0  0  0  0  0
  1  2  1  1  0  0  0
  1  7  1  0  0  0  0
  1 30  1  0  0  0  0
  3  4  1  6  0  0  0
  3  9  1  0  0  0  0
  3 38  1  0  0  0  0
  5 10  1  0  0  0  0
  5 26  1  6  0  0  0
  5 32  1  0  0  0  0
  6 12  1  0  0  0  0
  6 35  1  0  0  0  0
  6 19  1  6  0  0  0
  7  8  1  1  0  0  0
  7 14  1  0  0  0  0
  8 33  1  0  0  0  0
  9 16  1  0  0  0  0
 10 11  1  1  0  0  0
 10 18  1  0  0  0  0
 12 13  1  1  0  0  0
 12 20  1  0  0  0  0
 14 15  1  6  0  0  0
 14 22  1  0  0  0  0
 16 17  1  6  0  0  0
 16 24  1  0  0  0  0
 18 19  1  1  0  0  0
 18 25  1  0  0  0  0
 20 21  1  6  0  0  0
 20 27  1  0  0  0  0
 22 23  1  1  0  0  0
 22 29  1  0  0  0  0
 24  2  1  1  0  0  0
 24 31  1  0  0  0  0
 25 26  1  1  0  0  0
 25 33  1  0  0  0  0
 27 28  1  6  0  0  0
 27 34  1  0  0  0  0
 29 30  1  0  0  0  0
 29 36  1  6  0  0  0
 31 32  1  6  0  0  0
 31 38  1  0  0  0  0
 34 35  1  0  0  0  0
 34 40  1  1  0  0  0
 36 37  1  0  0  0  0
 38 39  1  1  0  0  0
 40 41  1  0  0  0  0
M  END
>  <CHROM.1>
-67.23425247,-172.83407427,-177.51032486,-68.75399884,36.76220981,37.85349669
7.10333617,-2.49432488,0.03443553,2.32013174

>  <Name>
ligand

>  <RI>
0

>  <Rbt.Current_Directory>
/home/itssahil/PROJECTS/Mol_Feturizer/New_Systems/rnas/1ZZ5

>  <Rbt.Executable>
rbdock ($Id: //depot/dev/client3/rdock/2013.1/src/exe/rbdock.cxx#4 $)

>  <Rbt.Library>
libRbt.so (2013.1, Build901 2013/11/27)

>  <Rbt.Parameter_File>
/export/apps/rDock/src/rDock_2013.1_src/data/scripts/dock_solv.prm

>  <Rbt.Receptor>
prm/pocket_docking_6.prm

>  <SCORE>
-10.9234

>  <SCORE.INTER>
-9.3251

>  <SCORE.INTER.CONST>
1

>  <SCORE.INTER.POLAR>
0

>  <SCORE.INTER.ROT>
4

>  <SCORE.INTER.SOLV>
25.9007

>  <SCORE.INTER.VDW>
-21.117

>  <SCORE.INTER.norm>
-0.227441

>  <SCORE.INTRA>
-1.59828

>  <SCORE.INTRA.DIHEDRAL>
-4.15032

>  <SCORE.INTRA.DIHEDRAL.0>
5.18357

>  <SCORE.INTRA.POLAR>
0

>  <SCORE.INTRA.POLAR.0>
0

>  <SCORE.INTRA.REPUL>
0.00100504

>  <SCORE.INTRA.REPUL.0>
0

>  <SCORE.INTRA.SOLV>
1.80343

>  <SCORE.INTRA.SOLV.lig_0>
-109.973

>  <SCORE.INTRA.VDW>
-0.429867

>  <SCORE.INTRA.VDW.0>
-1.68646

>  <SCORE.INTRA.norm>
-0.0389825

>  <SCORE.RESTR>
0

>  <SCORE.RESTR.CAVITY>
0

>  <SCORE.RESTR.norm>
0

>  <SCORE.SYSTEM>
0

>  <SCORE.SYSTEM.CONST>
0

>  <SCORE.SYSTEM.DIHEDRAL>
0

>  <SCORE.SYSTEM.SOLV>
0

>  <SCORE.SYSTEM.norm>
0

>  <SCORE.heavy>
41

>  <SCORE.norm>
-0.266424

>  <RMSD>
3.735

$$$$
ligand
 OpenBabel11021811423D
libRbt.so/2013.1/901 2013/11/27
 41 45  0  0  0  0  0  0  0  0999 V2000
   34.4265   40.6356    4.6229 C   0  0  2  0  0  0  0  0  0  0  0  0
   34.0017   40.4360    5.9853 O   0  0  0  0  0  0  0  0  0  0  0  0
   35.1863   37.8091    9.2432 C   0  0  2  0  0  0  0  0  0  0  0  0
   35.5609   36.5692    9.9708 N   0  0  0  0  0  0  0  0  0  0  0  0
   37.8606   41.0052    6.8964 C   0  0  1  0  0  0  0  0  0  0  0  0
   39.9467   43.4043    7.8620 C   0  0  1  0  0  0  0  0  0  0  0  0
   34.4620   42.1510    4.2625 C   0  0  2  0  0  0  0  0  0  0  0  0
   35.2704   42.9417    5.1955 N   0  0  0  0  0  0  0  0  0  0  0  0
   33.8182   37.5817    8.5259 C   0  0  0  0  0  0  0  0  0  0  0  0
   38.9973   41.1960    5.8662 C   0  0  2  0  0  0  0  0  0  0  0  0
   40.2490   40.7047    6.3566 O   0  0  0  0  0  0  0  0  0  0  0  0
   38.8226   44.3934    8.3915 C   0  0  2  0  0  0  0  0  0  0  0  0
   38.9665   45.7987    7.9021 N   0  0  0  0  0  0  0  0  0  0  0  0
   33.0194   42.7210    4.1962 C   0  0  1  0  0  0  0  0  0  0  0  0
   33.0552   44.1004    3.8399 O   0  0  0  0  0  0  0  0  0  0  0  0
   33.3766   38.8492    7.7381 C   0  0  2  0  0  0  0  0  0  0  0  0
   32.0785   38.5559    7.1019 N   0  0  0  0  0  0  0  0  0  0  0  0
   39.0162   42.7084    5.5866 C   0  0  2  0  0  0  0  0  0  0  0  0
   40.0409   43.4161    6.3920 O   0  0  0  0  0  0  0  0  0  0  0  0
   38.7966   44.3784    9.9868 C   0  0  1  0  0  0  0  0  0  0  0  0
   38.3473   43.1013   10.4906 O   0  0  0  0  0  0  0  0  0  0  0  0
   32.1867   41.9150    3.1726 C   0  0  2  0  0  0  0  0  0  0  0  0
   30.8778   42.4391    3.0940 O   0  0  0  0  0  0  0  0  0  0  0  0
   34.4818   39.2478    6.6970 C   0  0  2  0  0  0  0  0  0  0  0  0
   37.6057   43.1664    5.9469 C   0  0  2  0  0  0  0  0  0  0  0  0
   37.1076   42.2192    6.8812 O   0  0  0  0  0  0  0  0  0  0  0  0
   40.2149   44.6983   10.6095 C   0  0  2  0  0  0  0  0  0  0  0  0
   40.5601   46.0640   10.3229 O   0  0  0  0  0  0  0  0  0  0  0  0
   32.1513   40.4262    3.5712 C   0  0  2  0  0  0  0  0  0  0  0  0
   33.5444   39.9353    3.6603 O   0  0  0  0  0  0  0  0  0  0  0  0
   35.8721   39.5166    7.4632 C   0  0  2  0  0  0  0  0  0  0  0  0
   36.9825   39.8685    6.5374 O   0  0  0  0  0  0  0  0  0  0  0  0
   36.6503   43.1987    4.7630 C   0  0  0  0  0  0  0  0  0  0  0  0
   41.2974   43.7104   10.0126 C   0  0  1  0  0  0  0  0  0  0  0  0
   41.2758   43.6997    8.5104 O   0  0  0  0  0  0  0  0  0  0  0  0
   31.3367   39.6267    2.5276 C   0  0  0  0  0  0  0  0  0  0  0  0
   30.9380   38.2730    2.9549 N   0  0  0  0  0  0  0  0  0  0  0  0
   36.3010   38.2371    8.2128 C   0  0  1  0  0  0  0  0  0  0  0  0
   37.5376   38.4747    8.8933 O   0  0  0  0  0  0  0  0  0  0  0  0
   42.7569   43.9901   10.5408 C   0  0  0  0  0  0  0  0  0  0  0  0
   43.3355   45.3318   10.2111 N   0  0  0  0  0  0  0  0  0  0  0  0
  1  2  1  1  0  0  0
  1  7  1  0  0  0  0
  1 30  1  0  0  0  0
  3  4  1  6  0  0  0
  3  9  1  0  0  0  0
  3 38  1  0  0  0  0
  5 10  1  0  0  0  0
  5 26  1  6  0  0  0
  5 32  1  0  0  0  0
  6 12  1  0  0  0  0
  6 35  1  0  0  0  0
  6 19  1  6  0  0  0
  7  8  1  1  0  0  0
  7 14  1  0  0  0  0
  8 33  1  0  0  0  0
  9 16  1  0  0  0  0
 10 11  1  1  0  0  0
 10 18  1  0  0  0  0
 12 13  1  1  0  0  0
 12 20  1  0  0  0  0
 14 15  1  6  0  0  0
 14 22  1  0  0  0  0
 16 17  1  6  0  0  0
 16 24  1  0  0  0  0
 18 19  1  1  0  0  0
 18 25  1  0  0  0  0
 20 21  1  6  0  0  0
 20 27  1  0  0  0  0
 22 23  1  1  0  0  0
 22 29  1  0  0  0  0
 24  2  1  1  0  0  0
 24 31  1  0  0  0  0
 25 26  1  1  0  0  0
 25 33  1  0  0  0  0
 27 28  1  6  0  0  0
 27 34  1  0  0  0  0
 29 30  1  0  0  0  0
 29 36  1  6  0  0  0
 31 32  1  6  0  0  0
 31 38  1  0  0  0  0
 34 35  1  0  0  0  0
 34 40  1  6  0  0  0
 36 37  1  0  0  0  0
 38 39  1  1  0  0  0
 40 41  1  0  0  0  0
M  END
>  <CHROM.1>
-62.05058087,-76.01008485,-165.27597102,-61.94634777,36.56207494,41.64006188
6.84891454,3.07264671,0.64567811,2.54831601

>  <Name>
ligand

>  <RI>
0

>  <Rbt.Current_Directory>
/home/itssahil/PROJECTS/Mol_Feturizer/New_Systems/rnas/1ZZ5

>  <Rbt.Executable>
rbdock ($Id: //depot/dev/client3/rdock/2013.1/src/exe/rbdock.cxx#4 $)

>  <Rbt.Library>
libRbt.so (2013.1, Build901 2013/11/27)

>  <Rbt.Parameter_File>
/export/apps/rDock/src/rDock_2013.1_src/data/scripts/dock_solv.prm

>  <Rbt.Receptor>
prm/pocket_docking_7.prm

>  <SCORE>
-7.12239

>  <SCORE.INTER>
-6.51339

>  <SCORE.INTER.CONST>
1

>  <SCORE.INTER.POLAR>
0

>  <SCORE.INTER.ROT>
4

>  <SCORE.INTER.SOLV>
17.8543

>  <SCORE.INTER.VDW>
-16.5604

>  <SCORE.INTER.norm>
-0.158863

>  <SCORE.INTRA>
-0.609378

>  <SCORE.INTRA.DIHEDRAL>
-3.00159

>  <SCORE.INTRA.DIHEDRAL.0>
5.18357

>  <SCORE.INTRA.POLAR>
0

>  <SCORE.INTRA.POLAR.0>
0

>  <SCORE.INTRA.REPUL>
0

>  <SCORE.INTRA.REPUL.0>
0

>  <SCORE.INTRA.SOLV>
1.65058

>  <SCORE.INTRA.SOLV.lig_0>
-109.973

>  <SCORE.INTRA.VDW>
0.0661265

>  <SCORE.INTRA.VDW.0>
-1.68646

>  <SCORE.INTRA.norm>
-0.0148629

>  <SCORE.RESTR>
0.000377798

>  <SCORE.RESTR.CAVITY>
0.000377798

>  <SCORE.RESTR.norm>
9.21458e-06

>  <SCORE.SYSTEM>
0

>  <SCORE.SYSTEM.CONST>
0

>  <SCORE.SYSTEM.DIHEDRAL>
0

>  <SCORE.SYSTEM.SOLV>
0

>  <SCORE.SYSTEM.norm>
0

>  <SCORE.heavy>
41

>  <SCORE.norm>
-0.173717

>  <RMSD>
3.902

$$$$
ligand
 OpenBabel11021811423D
libRbt.so/2013.1/901 2013/11/27
 41 45  0  0  0  0  0  0  0  0999 V2000
   34.8004   38.7243    5.2542 C   0  0  2  0  0  0  0  0  0  0  0  0
   34.3228   38.8899    6.6037 O   0  0  0  0  0  0  0  0  0  0  0  0
   33.2541   36.2109    9.8592 C   0  0  2  0  0  0  0  0  0  0  0  0
   32.6380   35.0681   10.5815 N   0  0  0  0  0  0  0  0  0  0  0  0
   37.4580   36.6106    7.6138 C   0  0  1  0  0  0  0  0  0  0  0  0
   40.6616   37.1218    8.6281 C   0  0  1  0  0  0  0  0  0  0  0  0
   35.8930   39.7810    4.9120 C   0  0  2  0  0  0  0  0  0  0  0  0
   37.0000   39.7906    5.8731 N   0  0  0  0  0  0  0  0  0  0  0  0
   32.1345   36.9972    9.1065 C   0  0  0  0  0  0  0  0  0  0  0  0
   38.4303   35.9445    6.6135 C   0  0  2  0  0  0  0  0  0  0  0  0
   38.9704   34.7230    7.1283 O   0  0  0  0  0  0  0  0  0  0  0  0
   42.0950   37.0330    9.3061 C   0  0  2  0  0  0  0  0  0  0  0  0
   42.7905   35.7268    9.0941 N   0  0  0  0  0  0  0  0  0  0  0  0
   35.2606   41.1957    4.8174 C   0  0  1  0  0  0  0  0  0  0  0  0
   36.2583   42.1550    4.4777 O   0  0  0  0  0  0  0  0  0  0  0  0
   32.7235   38.2059    8.3228 C   0  0  2  0  0  0  0  0  0  0  0  0
   31.6060   38.8969    7.6522 N   0  0  0  0  0  0  0  0  0  0  0  0
   39.5070   37.0114    6.3517 C   0  0  2  0  0  0  0  0  0  0  0  0
   40.7139   36.8093    7.1894 O   0  0  0  0  0  0  0  0  0  0  0  0
   41.9736   37.3315   10.8687 C   0  0  1  0  0  0  0  0  0  0  0  0
   41.6011   38.7059   11.1114 O   0  0  0  0  0  0  0  0  0  0  0  0
   34.1278   41.1914    3.7649 C   0  0  2  0  0  0  0  0  0  0  0  0
   33.5593   42.4799    3.6609 O   0  0  0  0  0  0  0  0  0  0  0  0
   33.8187   37.7104    7.3131 C   0  0  2  0  0  0  0  0  0  0  0  0
   38.8086   38.3273    6.6830 C   0  0  2  0  0  0  0  0  0  0  0  0
   37.7674   38.0052    7.5942 O   0  0  0  0  0  0  0  0  0  0  0  0
   40.9193   36.3883   11.5760 C   0  0  2  0  0  0  0  0  0  0  0  0
   41.4087   35.0367   11.5607 O   0  0  0  0  0  0  0  0  0  0  0  0
   33.0529   40.1540    4.1457 C   0  0  2  0  0  0  0  0  0  0  0  0
   33.7045   38.8307    4.2627 O   0  0  0  0  0  0  0  0  0  0  0  0
   34.9817   36.9386    8.1157 C   0  0  2  0  0  0  0  0  0  0  0  0
   36.0451   36.4070    7.2209 O   0  0  0  0  0  0  0  0  0  0  0  0
   38.1774   39.0072    5.4769 C   0  0  0  0  0  0  0  0  0  0  0  0
   39.5267   36.4877   10.8310 C   0  0  1  0  0  0  0  0  0  0  0  0
   39.6657   36.2525    9.3537 O   0  0  0  0  0  0  0  0  0  0  0  0
   31.9382   40.1415    3.0738 C   0  0  0  0  0  0  0  0  0  0  0  0
   30.8159   39.2273    3.3548 N   0  0  0  0  0  0  0  0  0  0  0  0
   34.3763   35.7299    8.8608 C   0  0  1  0  0  0  0  0  0  0  0  0
   35.4097   35.0423    9.5735 O   0  0  0  0  0  0  0  0  0  0  0  0
   38.4240   35.5381   11.4390 C   0  0  0  0  0  0  0  0  0  0  0  0
   37.9781   35.8483   12.8348 N   0  0  0  0  0  0  0  0  0  0  0  0
  1  2  1  1  0  0  0
  1  7  1  0  0  0  0
  1 30  1  0  0  0  0
  3  4  1  6  0  0  0
  3  9  1  0  0  0  0
  3 38  1  0  0  0  0
  5 10  1  0  0  0  0
  5 26  1  6  0  0  0
  5 32  1  0  0  0  0
  6 12  1  0  0  0  0
  6 35  1  0  0  0  0
  6 19  1  6  0  0  0
  7  8  1  1  0  0  0
  7 14  1  0  0  0  0
  8 33  1  0  0  0  0
  9 16  1  0  0  0  0
 10 11  1  1  0  0  0
 10 18  1  0  0  0  0
 12 13  1  1  0  0  0
 12 20  1  0  0  0  0
 14 15  1  6  0  0  0
 14 22  1  0  0  0  0
 16 17  1  6  0  0  0
 16 24  1  0  0  0  0
 18 19  1  1  0  0  0
 18 25  1  0  0  0  0
 20 21  1  6  0  0  0
 20 27  1  0  0  0  0
 22 23  1  1  0  0  0
 22 29  1  0  0  0  0
 24  2  1  1  0  0  0
 24 31  1  0  0  0  0
 25 26  1  1  0  0  0
 25 33  1  0  0  0  0
 27 28  1  6  0  0  0
 27 34  1  0  0  0  0
 29 30  1  0  0  0  0
 29 36  1  6  0  0  0
 31 32  1  6  0  0  0
 31 38  1  0  0  0  0
 34 35  1  0  0  0  0
 34 40  1  1  0  0  0
 36 37  1  0  0  0  0
 38 39  1  1  0  0  0
 40 41  1  0  0  0  0
M  END
>  <CHROM.1>
-73.30954673,-172.08798833,-177.46006241,65.68796856,36.72093126,37.74798731
7.60703853,-2.43022330,0.05628328,2.22964129

>  <Name>
ligand

>  <RI>
0

>  <Rbt.Current_Directory>
/home/itssahil/PROJECTS/Mol_Feturizer/New_Systems/rnas/1ZZ5

>  <Rbt.Executable>
rbdock ($Id: //depot/dev/client3/rdock/2013.1/src/exe/rbdock.cxx#4 $)

>  <Rbt.Library>
libRbt.so (2013.1, Build901 2013/11/27)

>  <Rbt.Parameter_File>
/export/apps/rDock/src/rDock_2013.1_src/data/scripts/dock_solv.prm

>  <Rbt.Receptor>
prm/pocket_docking_5.prm

>  <SCORE>
-13.1639

>  <SCORE.INTER>
-10.8884

>  <SCORE.INTER.CONST>
1

>  <SCORE.INTER.POLAR>
0

>  <SCORE.INTER.ROT>
4

>  <SCORE.INTER.SOLV>
23.2491

>  <SCORE.INTER.VDW>
-21.2753

>  <SCORE.INTER.norm>
-0.265572

>  <SCORE.INTRA>
-2.27548

>  <SCORE.INTRA.DIHEDRAL>
-3.69947

>  <SCORE.INTRA.DIHEDRAL.0>
5.18357

>  <SCORE.INTRA.POLAR>
0

>  <SCORE.INTRA.POLAR.0>
0

>  <SCORE.INTRA.REPUL>
0

>  <SCORE.INTRA.REPUL.0>
0

>  <SCORE.INTRA.SOLV>
-0.145164

>  <SCORE.INTRA.SOLV.lig_0>
-109.973

>  <SCORE.INTRA.VDW>
-0.35317

>  <SCORE.INTRA.VDW.0>
-1.68646

>  <SCORE.INTRA.norm>
-0.0554996

>  <SCORE.RESTR>
0

>  <SCORE.RESTR.CAVITY>
0

>  <SCORE.RESTR.norm>
0

>  <SCORE.SYSTEM>
0

>  <SCORE.SYSTEM.CONST>
0

>  <SCORE.SYSTEM.DIHEDRAL>
0

>  <SCORE.SYSTEM.SOLV>
0

>  <SCORE.SYSTEM.norm>
0

>  <SCORE.heavy>
41

>  <SCORE.norm>
-0.321071

>  <RMSD>
3.930

$$$$
ligand
 OpenBabel11021811423D
libRbt.so/2013.1/901 2013/11/27
 41 45  0  0  0  0  0  0  0  0999 V2000
   34.7905   38.7205    5.2584 C   0  0  2  0  0  0  0  0  0  0  0  0
   34.3048   38.8836    6.6052 O   0  0  0  0  0  0  0  0  0  0  0  0
   33.2448   36.1993    9.8592 C   0  0  2  0  0  0  0  0  0  0  0  0
   32.6357   35.0518   10.5801 N   0  0  0  0  0  0  0  0  0  0  0  0
   37.4559   36.6345    7.6338 C   0  0  1  0  0  0  0  0  0  0  0  0
   40.6447   37.1596    8.6663 C   0  0  1  0  0  0  0  0  0  0  0  0
   35.8751   39.7868    4.9200 C   0  0  2  0  0  0  0  0  0  0  0  0
   36.9772   39.8078    5.8865 N   0  0  0  0  0  0  0  0  0  0  0  0
   32.1218   36.9742    9.1000 C   0  0  0  0  0  0  0  0  0  0  0  0
   38.4391   35.9759    6.6391 C   0  0  2  0  0  0  0  0  0  0  0  0
   38.9878   34.7602    7.1583 O   0  0  0  0  0  0  0  0  0  0  0  0
   42.0716   37.0672    9.3573 C   0  0  2  0  0  0  0  0  0  0  0  0
   42.7725   35.7650    9.1383 N   0  0  0  0  0  0  0  0  0  0  0  0
   35.2302   41.1955    4.8204 C   0  0  1  0  0  0  0  0  0  0  0  0
   36.2207   42.1635    4.4842 O   0  0  0  0  0  0  0  0  0  0  0  0
   32.7035   38.1873    8.3175 C   0  0  2  0  0  0  0  0  0  0  0  0
   31.5831   38.8672    7.6406 N   0  0  0  0  0  0  0  0  0  0  0  0
   39.5072   37.0523    6.3811 C   0  0  2  0  0  0  0  0  0  0  0  0
   40.7118   36.8624    7.2250 O   0  0  0  0  0  0  0  0  0  0  0  0
   41.9342   37.3488   10.9217 C   0  0  1  0  0  0  0  0  0  0  0  0
   41.5558   38.7197   11.1753 O   0  0  0  0  0  0  0  0  0  0  0  0
   34.1027   41.1795    3.7624 C   0  0  2  0  0  0  0  0  0  0  0  0
   33.5229   42.4625    3.6538 O   0  0  0  0  0  0  0  0  0  0  0  0
   33.8081   37.7005    7.3139 C   0  0  2  0  0  0  0  0  0  0  0  0
   38.7952   38.3622    6.7072 C   0  0  2  0  0  0  0  0  0  0  0  0
   37.7526   38.0318    7.6138 O   0  0  0  0  0  0  0  0  0  0  0  0
   40.8755   36.3956   11.6087 C   0  0  2  0  0  0  0  0  0  0  0  0
   41.3685   35.0454   11.5839 O   0  0  0  0  0  0  0  0  0  0  0  0
   33.0354   40.1327    4.1394 C   0  0  2  0  0  0  0  0  0  0  0  0
   33.6986   38.8156    4.2614 O   0  0  0  0  0  0  0  0  0  0  0  0
   34.9743   36.9404    8.1232 C   0  0  2  0  0  0  0  0  0  0  0  0
   36.0468   36.4174    7.2343 O   0  0  0  0  0  0  0  0  0  0  0  0
   38.1637   39.0347    5.4971 C   0  0  0  0  0  0  0  0  0  0  0  0
   39.4899   36.4994   10.8512 C   0  0  1  0  0  0  0  0  0  0  0  0
   39.6440   36.2801    9.3729 O   0  0  0  0  0  0  0  0  0  0  0  0
   31.9261   40.1086    3.0621 C   0  0  0  0  0  0  0  0  0  0  0  0
   30.8037   39.1956    3.3462 N   0  0  0  0  0  0  0  0  0  0  0  0
   34.3763   35.7272    8.8670 C   0  0  1  0  0  0  0  0  0  0  0  0
   35.4124   35.0501    9.5857 O   0  0  0  0  0  0  0  0  0  0  0  0
   38.3838   35.5406   11.4383 C   0  0  0  0  0  0  0  0  0  0  0  0
   37.9204   35.8376   12.8313 N   0  0  0  0  0  0  0  0  0  0  0  0
  1  2  1  1  0  0  0
  1  7  1  0  0  0  0
  1 30  1  0  0  0  0
  3  4  1  6  0  0  0
  3  9  1  0  0  0  0
  3 38  1  0  0  0  0
  5 10  1  0  0  0  0
  5 26  1  6  0  0  0
  5 32  1  0  0  0  0
  6 12  1  0  0  0  0
  6 35  1  0  0  0  0
  6 19  1  6  0  0  0
  7  8  1  1  0  0  0
  7 14  1  0  0  0  0
  8 33  1  0  0  0  0
  9 16  1  0  0  0  0
 10 11  1  1  0  0  0
 10 18  1  0  0  0  0
 12 13  1  1  0  0  0
 12 20  1  0  0  0  0
 14 15  1  6  0  0  0
 14 22  1  0  0  0  0
 16 17  1  6  0  0  0
 16 24  1  0  0  0  0
 18 19  1  1  0  0  0
 18 25  1  0  0  0  0
 20 21  1  6  0  0  0
 20 27  1  0  0  0  0
 22 23  1  1  0  0  0
 22 29  1  0  0  0  0
 24  2  1  1  0  0  0
 24 31  1  0  0  0  0
 25 26  1  1  0  0  0
 25 33  1  0  0  0  0
 27 28  1  6  0  0  0
 27 34  1  0  0  0  0
 29 30  1  0  0  0  0
 29 36  1  6  0  0  0
 31 32  1  6  0  0  0
 31 38  1  0  0  0  0
 34 35  1  0  0  0  0
 34 40  1  1  0  0  0
 36 37  1  0  0  0  0
 38 39  1  1  0  0  0
 40 41  1  0  0  0  0
M  END
>  <CHROM.1>
-72.51194785,-172.93733961,-176.81302970,65.87500768,36.70313934,37.75459325
7.62080139,-2.42859661,0.06322460,2.22969245

>  <Name>
ligand

>  <RI>
0

>  <Rbt.Current_Directory>
/home/itssahil/PROJECTS/Mol_Feturizer/New_Systems/rnas/1ZZ5

>  <Rbt.Executable>
rbdock ($Id: //depot/dev/client3/rdock/2013.1/src/exe/rbdock.cxx#4 $)

>  <Rbt.Library>
libRbt.so (2013.1, Build901 2013/11/27)

>  <Rbt.Parameter_File>
/export/apps/rDock/src/rDock_2013.1_src/data/scripts/dock_solv.prm

>  <Rbt.Receptor>
prm/pocket_docking_5.prm

>  <SCORE>
-13.1482

>  <SCORE.INTER>
-10.8684

>  <SCORE.INTER.CONST>
1

>  <SCORE.INTER.POLAR>
0

>  <SCORE.INTER.ROT>
4

>  <SCORE.INTER.SOLV>
23.2392

>  <SCORE.INTER.VDW>
-21.2587

>  <SCORE.INTER.norm>
-0.265084

>  <SCORE.INTRA>
-2.27973

>  <SCORE.INTRA.DIHEDRAL>
-3.83155

>  <SCORE.INTRA.DIHEDRAL.0>
5.18357

>  <SCORE.INTRA.POLAR>
0

>  <SCORE.INTRA.POLAR.0>
0

>  <SCORE.INTRA.REPUL>
0

>  <SCORE.INTRA.REPUL.0>
0

>  <SCORE.INTRA.SOLV>
-0.0713502

>  <SCORE.INTRA.SOLV.lig_0>
-109.973

>  <SCORE.INTRA.VDW>
-0.328283

>  <SCORE.INTRA.VDW.0>
-1.68646

>  <SCORE.INTRA.norm>
-0.0556032

>  <SCORE.RESTR>
0

>  <SCORE.RESTR.CAVITY>
0

>  <SCORE.RESTR.norm>
0

>  <SCORE.SYSTEM>
0

>  <SCORE.SYSTEM.CONST>
0

>  <SCORE.SYSTEM.DIHEDRAL>
0

>  <SCORE.SYSTEM.SOLV>
0

>  <SCORE.SYSTEM.norm>
0

>  <SCORE.heavy>
41

>  <SCORE.norm>
-0.320687

>  <RMSD>
3.936

$$$$
ligand
 OpenBabel11021811423D
libRbt.so/2013.1/901 2013/11/27
 41 45  0  0  0  0  0  0  0  0999 V2000
   35.3134   40.3894    4.5423 C   0  0  2  0  0  0  0  0  0  0  0  0
   35.0388   39.9249    5.8785 O   0  0  0  0  0  0  0  0  0  0  0  0
   36.9718   37.2040    8.6674 C   0  0  2  0  0  0  0  0  0  0  0  0
   37.6452   35.9875    9.1909 N   0  0  0  0  0  0  0  0  0  0  0  0
   38.7542   41.1798    6.6949 C   0  0  1  0  0  0  0  0  0  0  0  0
   40.2377   43.9568    7.9175 C   0  0  1  0  0  0  0  0  0  0  0  0
   35.0103   41.9115    4.4040 C   0  0  2  0  0  0  0  0  0  0  0  0
   35.7047   42.7259    5.4059 N   0  0  0  0  0  0  0  0  0  0  0  0
   35.6312   36.7865    7.9844 C   0  0  0  0  0  0  0  0  0  0  0  0
   39.7494   41.7437    5.6551 C   0  0  2  0  0  0  0  0  0  0  0  0
   41.1076   41.4707    6.0147 O   0  0  0  0  0  0  0  0  0  0  0  0
   41.1566   45.0264    8.6481 C   0  0  2  0  0  0  0  0  0  0  0  0
   42.5948   44.9730    8.2437 N   0  0  0  0  0  0  0  0  0  0  0  0
   33.4804   42.1636    4.4833 C   0  0  1  0  0  0  0  0  0  0  0  0
   33.2059   43.5535    4.3293 O   0  0  0  0  0  0  0  0  0  0  0  0
   34.8824   38.0233    7.4084 C   0  0  2  0  0  0  0  0  0  0  0  0
   33.6295   37.5463    6.7931 N   0  0  0  0  0  0  0  0  0  0  0  0
   39.4367   43.2487    5.5970 C   0  0  2  0  0  0  0  0  0  0  0  0
   40.3500   44.0459    6.4513 O   0  0  0  0  0  0  0  0  0  0  0  0
   41.0347   44.8539   10.2296 C   0  0  1  0  0  0  0  0  0  0  0  0
   39.7144   45.2111   10.6945 O   0  0  0  0  0  0  0  0  0  0  0  0
   32.7589   41.3412    3.3907 C   0  0  2  0  0  0  0  0  0  0  0  0
   31.3681   41.5791    3.4455 O   0  0  0  0  0  0  0  0  0  0  0  0
   35.8034   38.7832    6.3892 C   0  0  2  0  0  0  0  0  0  0  0  0
   37.9922   43.3428    6.0804 C   0  0  2  0  0  0  0  0  0  0  0  0
   37.7688   42.1959    6.8882 O   0  0  0  0  0  0  0  0  0  0  0  0
   41.3532   43.3762   10.6948 C   0  0  2  0  0  0  0  0  0  0  0  0
   42.7443   43.0971   10.4638 O   0  0  0  0  0  0  0  0  0  0  0  0
   33.0593   39.8398    3.5706 C   0  0  2  0  0  0  0  0  0  0  0  0
   34.5263   39.6506    3.5274 O   0  0  0  0  0  0  0  0  0  0  0  0
   37.1608   39.2389    7.1255 C   0  0  2  0  0  0  0  0  0  0  0  0
   38.1048   39.9394    6.2134 O   0  0  0  0  0  0  0  0  0  0  0  0
   36.9670   43.3267    4.9560 C   0  0  0  0  0  0  0  0  0  0  0  0
   40.4387   42.3562    9.9026 C   0  0  1  0  0  0  0  0  0  0  0  0
   40.5274   42.5638    8.4173 O   0  0  0  0  0  0  0  0  0  0  0  0
   32.3527   39.0302    2.4584 C   0  0  0  0  0  0  0  0  0  0  0  0
   30.8796   39.0415    2.5220 N   0  0  0  0  0  0  0  0  0  0  0  0
   37.8968   37.9929    7.6627 C   0  0  1  0  0  0  0  0  0  0  0  0
   39.1043   38.3969    8.3163 O   0  0  0  0  0  0  0  0  0  0  0  0
   40.7246   40.8484   10.2664 C   0  0  0  0  0  0  0  0  0  0  0  0
   40.4822   40.4525   11.6904 N   0  0  0  0  0  0  0  0  0  0  0  0
  1  2  1  1  0  0  0
  1  7  1  0  0  0  0
  1 30  1  0  0  0  0
  3  4  1  6  0  0  0
  3  9  1  0  0  0  0
  3 38  1  0  0  0  0
  5 10  1  0  0  0  0
  5 26  1  6  0  0  0
  5 32  1  0  0  0  0
  6 12  1  0  0  0  0
  6 35  1  0  0  0  0
  6 19  1  6  0  0  0
  7  8  1  1  0  0  0
  7 14  1  0  0  0  0
  8 33  1  0  0  0  0
  9 16  1  0  0  0  0
 10 11  1  1  0  0  0
 10 18  1  0  0  0  0
 12 13  1  6  0  0  0
 12 20  1  0  0  0  0
 14 15  1  6  0  0  0
 14 22  1  0  0  0  0
 16 17  1  6  0  0  0
 16 24  1  0  0  0  0
 18 19  1  1  0  0  0
 18 25  1  0  0  0  0
 20 21  1  6  0  0  0
 20 27  1  0  0  0  0
 22 23  1  1  0  0  0
 22 29  1  0  0  0  0
 24  2  1  1  0  0  0
 24 31  1  0  0  0  0
 25 26  1  1  0  0  0
 25 33  1  0  0  0  0
 27 28  1  6  0  0  0
 27 34  1  0  0  0  0
 29 30  1  0  0  0  0
 29 36  1  6  0  0  0
 31 32  1  6  0  0  0
 31 38  1  0  0  0  0
 34 35  1  0  0  0  0
 34 40  1  6  0  0  0
 36 37  1  0  0  0  0
 38 39  1  1  0  0  0
 40 41  1  0  0  0  0
M  END
>  <CHROM.1>
-70.51468521,-172.09899194,-66.60562613,61.94429689,37.39520029,41.19801485
6.80691658,3.05069525,0.65051563,2.72336450

>  <Name>
ligand

>  <RI>
0

>  <Rbt.Current_Directory>
/home/itssahil/PROJECTS/Mol_Feturizer/New_Systems/rnas/1ZZ5

>  <Rbt.Executable>
rbdock ($Id: //depot/dev/client3/rdock/2013.1/src/exe/rbdock.cxx#4 $)

>  <Rbt.Library>
libRbt.so (2013.1, Build901 2013/11/27)

>  <Rbt.Parameter_File>
/export/apps/rDock/src/rDock_2013.1_src/data/scripts/dock_solv.prm

>  <Rbt.Receptor>
prm/pocket_docking_7.prm

>  <SCORE>
-11.4952

>  <SCORE.INTER>
-9.9292

>  <SCORE.INTER.CONST>
1

>  <SCORE.INTER.POLAR>
0

>  <SCORE.INTER.ROT>
4

>  <SCORE.INTER.SOLV>
14.6744

>  <SCORE.INTER.VDW>
-17.7776

>  <SCORE.INTER.norm>
-0.242176

>  <SCORE.INTRA>
-1.56598

>  <SCORE.INTRA.DIHEDRAL>
-3.96157

>  <SCORE.INTRA.DIHEDRAL.0>
5.18357

>  <SCORE.INTRA.POLAR>
0

>  <SCORE.INTRA.POLAR.0>
0

>  <SCORE.INTRA.REPUL>
0

>  <SCORE.INTRA.REPUL.0>
0

>  <SCORE.INTRA.SOLV>
1.2063

>  <SCORE.INTRA.SOLV.lig_0>
-109.973

>  <SCORE.INTRA.VDW>
-0.188349

>  <SCORE.INTRA.VDW.0>
-1.68646

>  <SCORE.INTRA.norm>
-0.0381947

>  <SCORE.RESTR>
0

>  <SCORE.RESTR.CAVITY>
0

>  <SCORE.RESTR.norm>
0

>  <SCORE.SYSTEM>
0

>  <SCORE.SYSTEM.CONST>
0

>  <SCORE.SYSTEM.DIHEDRAL>
0

>  <SCORE.SYSTEM.SOLV>
0

>  <SCORE.SYSTEM.norm>
0

>  <SCORE.heavy>
41

>  <SCORE.norm>
-0.28037

>  <RMSD>
3.937

$$$$
ligand
 OpenBabel11021811423D
libRbt.so/2013.1/901 2013/11/27
 41 45  0  0  0  0  0  0  0  0999 V2000
   34.7106   38.7333    5.2598 C   0  0  2  0  0  0  0  0  0  0  0  0
   34.2314   38.8958    6.6090 O   0  0  0  0  0  0  0  0  0  0  0  0
   33.1860   36.2100    9.8665 C   0  0  2  0  0  0  0  0  0  0  0  0
   32.5798   35.0624   10.5896 N   0  0  0  0  0  0  0  0  0  0  0  0
   37.3865   36.6448    7.6212 C   0  0  1  0  0  0  0  0  0  0  0  0
   40.5810   37.1702    8.6383 C   0  0  1  0  0  0  0  0  0  0  0  0
   35.7940   39.7993    4.9168 C   0  0  2  0  0  0  0  0  0  0  0  0
   36.9007   39.8193    5.8780 N   0  0  0  0  0  0  0  0  0  0  0  0
   32.0597   36.9858    9.1132 C   0  0  0  0  0  0  0  0  0  0  0  0
   38.3646   35.9864    6.6215 C   0  0  2  0  0  0  0  0  0  0  0  0
   38.9154   34.7702    7.1373 O   0  0  0  0  0  0  0  0  0  0  0  0
   42.0122   37.0821    9.3211 C   0  0  2  0  0  0  0  0  0  0  0  0
   42.7150   35.7815    9.0994 N   0  0  0  0  0  0  0  0  0  0  0  0
   35.1492   41.2084    4.8211 C   0  0  1  0  0  0  0  0  0  0  0  0
   36.1385   42.1761    4.4808 O   0  0  0  0  0  0  0  0  0  0  0  0
   32.6381   38.1991    8.3286 C   0  0  2  0  0  0  0  0  0  0  0  0
   31.5147   38.8798    7.6574 N   0  0  0  0  0  0  0  0  0  0  0  0
   39.4319   37.0626    6.3589 C   0  0  2  0  0  0  0  0  0  0  0  0
   40.6405   36.8717    7.1969 O   0  0  0  0  0  0  0  0  0  0  0  0
   41.8832   37.3651   10.8860 C   0  0  1  0  0  0  0  0  0  0  0  0
   41.5028   38.7353   11.1403 O   0  0  0  0  0  0  0  0  0  0  0  0
   34.0166   41.1933    3.7686 C   0  0  2  0  0  0  0  0  0  0  0  0
   33.4368   42.4767    3.6634 O   0  0  0  0  0  0  0  0  0  0  0  0
   33.7376   37.7124    7.3194 C   0  0  2  0  0  0  0  0  0  0  0  0
   38.7220   38.3725    6.6892 C   0  0  2  0  0  0  0  0  0  0  0  0
   37.6836   38.0421    7.6006 O   0  0  0  0  0  0  0  0  0  0  0  0
   40.8309   36.4100   11.5801 C   0  0  2  0  0  0  0  0  0  0  0  0
   41.3270   35.0611   11.5539 O   0  0  0  0  0  0  0  0  0  0  0  0
   32.9508   40.1468    4.1500 C   0  0  2  0  0  0  0  0  0  0  0  0
   33.6139   38.8293    4.2681 O   0  0  0  0  0  0  0  0  0  0  0  0
   34.9074   36.9514    8.1226 C   0  0  2  0  0  0  0  0  0  0  0  0
   35.9754   36.4285    7.2283 O   0  0  0  0  0  0  0  0  0  0  0  0
   38.0850   39.0460    5.4825 C   0  0  0  0  0  0  0  0  0  0  0  0
   39.4407   36.5096   10.8306 C   0  0  1  0  0  0  0  0  0  0  0  0
   39.5866   36.2891    9.3517 O   0  0  0  0  0  0  0  0  0  0  0  0
   31.8363   40.1238    3.0780 C   0  0  0  0  0  0  0  0  0  0  0  0
   30.9949   41.3337    3.0302 N   0  0  0  0  0  0  0  0  0  0  0  0
   34.3124   35.7380    8.8686 C   0  0  1  0  0  0  0  0  0  0  0  0
   35.3518   35.0601    9.5819 O   0  0  0  0  0  0  0  0  0  0  0  0
   38.3404   35.5487   11.4251 C   0  0  0  0  0  0  0  0  0  0  0  0
   37.8659   35.8613   12.8109 N   0  0  0  0  0  0  0  0  0  0  0  0
  1  2  1  1  0  0  0
  1  7  1  0  0  0  0
  1 30  1  0  0  0  0
  3  4  1  6  0  0  0
  3  9  1  0  0  0  0
  3 38  1  0  0  0  0
  5 10  1  0  0  0  0
  5 26  1  6  0  0  0
  5 32  1  0  0  0  0
  6 12  1  0  0  0  0
  6 35  1  0  0  0  0
  6 19  1  6  0  0  0
  7  8  1  1  0  0  0
  7 14  1  0  0  0  0
  8 33  1  0  0  0  0
  9 16  1  0  0  0  0
 10 11  1  1  0  0  0
 10 18  1  0  0  0  0
 12 13  1  1  0  0  0
 12 20  1  0  0  0  0
 14 15  1  6  0  0  0
 14 22  1  0  0  0  0
 16 17  1  6  0  0  0
 16 24  1  0  0  0  0
 18 19  1  1  0  0  0
 18 25  1  0  0  0  0
 20 21  1  6  0  0  0
 20 27  1  0  0  0  0
 22 23  1  1  0  0  0
 22 29  1  0  0  0  0
 24  2  1  1  0  0  0
 24 31  1  0  0  0  0
 25 26  1  1  0  0  0
 25 33  1  0  0  0  0
 27 28  1  6  0  0  0
 27 34  1  0  0  0  0
 29 30  1  0  0  0  0
 29 36  1  6  0  0  0
 31 32  1  6  0  0  0
 31 38  1  0  0  0  0
 34 35  1  0  0  0  0
 34 40  1  1  0  0  0
 36 37  1  0  0  0  0
 38 39  1  1  0  0  0
 40 41  1  0  0  0  0
M  END
>  <CHROM.1>
-72.61601252,-172.70900678,-68.53513890,66.97444696,36.64167714,37.81833613
7.60426695,-2.40843373,0.04375353,2.23870288

>  <Name>
ligand

>  <RI>
0

>  <Rbt.Current_Directory>
/home/itssahil/PROJECTS/Mol_Feturizer/New_Systems/rnas/1ZZ5

>  <Rbt.Executable>
rbdock ($Id: //depot/dev/client3/rdock/2013.1/src/exe/rbdock.cxx#4 $)

>  <Rbt.Library>
libRbt.so (2013.1, Build901 2013/11/27)

>  <Rbt.Parameter_File>
/export/apps/rDock/src/rDock_2013.1_src/data/scripts/dock_solv.prm

>  <Rbt.Receptor>
prm/pocket_docking_5.prm

>  <SCORE>
-12.5124

>  <SCORE.INTER>
-11.0097

>  <SCORE.INTER.CONST>
1

>  <SCORE.INTER.POLAR>
0

>  <SCORE.INTER.ROT>
4

>  <SCORE.INTER.SOLV>
22.3883

>  <SCORE.INTER.VDW>
-21.0692

>  <SCORE.INTER.norm>
-0.268528

>  <SCORE.INTRA>
-1.50278

>  <SCORE.INTRA.DIHEDRAL>
-3.53525

>  <SCORE.INTRA.DIHEDRAL.0>
5.18357

>  <SCORE.INTRA.POLAR>
0

>  <SCORE.INTRA.POLAR.0>
0

>  <SCORE.INTRA.REPUL>
0

>  <SCORE.INTRA.REPUL.0>
0

>  <SCORE.INTRA.SOLV>
1.04419

>  <SCORE.INTRA.SOLV.lig_0>
-109.973

>  <SCORE.INTRA.VDW>
-0.25725

>  <SCORE.INTRA.VDW.0>
-1.68646

>  <SCORE.INTRA.norm>
-0.0366532

>  <SCORE.RESTR>
0

>  <SCORE.RESTR.CAVITY>
0

>  <SCORE.RESTR.norm>
0

>  <SCORE.SYSTEM>
0

>  <SCORE.SYSTEM.CONST>
0

>  <SCORE.SYSTEM.DIHEDRAL>
0

>  <SCORE.SYSTEM.SOLV>
0

>  <SCORE.SYSTEM.norm>
0

>  <SCORE.heavy>
41

>  <SCORE.norm>
-0.305181

>  <RMSD>
3.960

$$$$
ligand
 OpenBabel11021811423D
libRbt.so/2013.1/901 2013/11/27
 41 45  0  0  0  0  0  0  0  0999 V2000
   34.8290   38.7048    5.3458 C   0  0  2  0  0  0  0  0  0  0  0  0
   34.2932   38.8923    6.6703 O   0  0  0  0  0  0  0  0  0  0  0  0
   33.0617   36.2658    9.9111 C   0  0  2  0  0  0  0  0  0  0  0  0
   32.4059   35.1373   10.6207 N   0  0  0  0  0  0  0  0  0  0  0  0
   37.3639   36.6062    7.8494 C   0  0  1  0  0  0  0  0  0  0  0  0
   40.5318   37.1357    8.9924 C   0  0  1  0  0  0  0  0  0  0  0  0
   35.9434   39.7493    5.0382 C   0  0  2  0  0  0  0  0  0  0  0  0
   37.0067   39.7647    6.0472 N   0  0  0  0  0  0  0  0  0  0  0  0
   31.9825   37.0491    9.0989 C   0  0  0  0  0  0  0  0  0  0  0  0
   38.3746   35.9197    6.9024 C   0  0  2  0  0  0  0  0  0  0  0  0
   38.8824   34.7019    7.4572 O   0  0  0  0  0  0  0  0  0  0  0  0
   41.9365   37.0544    9.7288 C   0  0  2  0  0  0  0  0  0  0  0  0
   42.6251   35.7352    9.5855 N   0  0  0  0  0  0  0  0  0  0  0  0
   35.3262   41.1668    4.8965 C   0  0  1  0  0  0  0  0  0  0  0  0
   36.3450   42.1146    4.5885 O   0  0  0  0  0  0  0  0  0  0  0  0
   32.6144   38.2429    8.3258 C   0  0  2  0  0  0  0  0  0  0  0  0
   31.5329   38.9321    7.5970 N   0  0  0  0  0  0  0  0  0  0  0  0
   39.4696   36.9757    6.6742 C   0  0  2  0  0  0  0  0  0  0  0  0
   40.6368   36.7771    7.5674 O   0  0  0  0  0  0  0  0  0  0  0  0
   41.7575   37.4036   11.2753 C   0  0  1  0  0  0  0  0  0  0  0  0
   41.3911   38.7887   11.4598 O   0  0  0  0  0  0  0  0  0  0  0  0
   34.2412   41.1556    3.7949 C   0  0  2  0  0  0  0  0  0  0  0  0
   33.6873   42.4462    3.6482 O   0  0  0  0  0  0  0  0  0  0  0  0
   33.7496   37.7261    7.3726 C   0  0  2  0  0  0  0  0  0  0  0  0
   38.7669   38.3007    6.9564 C   0  0  2  0  0  0  0  0  0  0  0  0
   37.6841   37.9982    7.8247 O   0  0  0  0  0  0  0  0  0  0  0  0
   40.6658   36.4939   11.9697 C   0  0  2  0  0  0  0  0  0  0  0  0
   41.1403   35.1377   12.0162 O   0  0  0  0  0  0  0  0  0  0  0  0
   33.1428   40.1308    4.1415 C   0  0  2  0  0  0  0  0  0  0  0  0
   33.7789   38.8048    4.3052 O   0  0  0  0  0  0  0  0  0  0  0  0
   34.8703   36.9577    8.2364 C   0  0  2  0  0  0  0  0  0  0  0  0
   35.9683   36.4066    7.3970 O   0  0  0  0  0  0  0  0  0  0  0  0
   38.1948   38.9680    5.7143 C   0  0  0  0  0  0  0  0  0  0  0  0
   39.3046   36.5833   11.1677 C   0  0  1  0  0  0  0  0  0  0  0  0
   39.4986   36.2998    9.7051 O   0  0  0  0  0  0  0  0  0  0  0  0
   32.0767   40.1109    3.0214 C   0  0  0  0  0  0  0  0  0  0  0  0
   30.9232   39.2286    3.2769 N   0  0  0  0  0  0  0  0  0  0  0  0
   34.2235   35.7635    8.9701 C   0  0  1  0  0  0  0  0  0  0  0  0
   35.2193   35.0789    9.7373 O   0  0  0  0  0  0  0  0  0  0  0  0
   38.1685   35.6645   11.7613 C   0  0  0  0  0  0  0  0  0  0  0  0
   37.6720   36.0233   13.1281 N   0  0  0  0  0  0  0  0  0  0  0  0
  1  2  1  1  0  0  0
  1  7  1  0  0  0  0
  1 30  1  0  0  0  0
  3  4  1  6  0  0  0
  3  9  1  0  0  0  0
  3 38  1  0  0  0  0
  5 10  1  0  0  0  0
  5 26  1  6  0  0  0
  5 32  1  0  0  0  0
  6 12  1  0  0  0  0
  6 35  1  0  0  0  0
  6 19  1  6  0  0  0
  7  8  1  1  0  0  0
  7 14  1  0  0  0  0
  8 33  1  0  0  0  0
  9 16  1  0  0  0  0
 10 11  1  1  0  0  0
 10 18  1  0  0  0  0
 12 13  1  1  0  0  0
 12 20  1  0  0  0  0
 14 15  1  6  0  0  0
 14 22  1  0  0  0  0
 16 17  1  6  0  0  0
 16 24  1  0  0  0  0
 18 19  1  1  0  0  0
 18 25  1  0  0  0  0
 20 21  1  6  0  0  0
 20 27  1  0  0  0  0
 22 23  1  1  0  0  0
 22 29  1  0  0  0  0
 24  2  1  1  0  0  0
 24 31  1  0  0  0  0
 25 26  1  1  0  0  0
 25 33  1  0  0  0  0
 27 28  1  6  0  0  0
 27 34  1  0  0  0  0
 29 30  1  0  0  0  0
 29 36  1  6  0  0  0
 31 32  1  6  0  0  0
 31 38  1  0  0  0  0
 34 35  1  0  0  0  0
 34 40  1  1  0  0  0
 36 37  1  0  0  0  0
 38 39  1  1  0  0  0
 40 41  1  0  0  0  0
M  END
>  <CHROM.1>
-74.55792982,-171.54429008,-176.29411034,65.67738773,36.64032155,37.76535013
7.79630406,-2.39534992,0.08108307,2.21060771

>  <Name>
ligand

>  <RI>
0

>  <Rbt.Current_Directory>
/home/itssahil/PROJECTS/Mol_Feturizer/New_Systems/rnas/1ZZ5

>  <Rbt.Executable>
rbdock ($Id: //depot/dev/client3/rdock/2013.1/src/exe/rbdock.cxx#4 $)

>  <Rbt.Library>
libRbt.so (2013.1, Build901 2013/11/27)

>  <Rbt.Parameter_File>
/export/apps/rDock/src/rDock_2013.1_src/data/scripts/dock_solv.prm

>  <Rbt.Receptor>
prm/pocket_docking_7.prm

>  <SCORE>
-13.4385

>  <SCORE.INTER>
-11.238

>  <SCORE.INTER.CONST>
1

>  <SCORE.INTER.POLAR>
0

>  <SCORE.INTER.ROT>
4

>  <SCORE.INTER.SOLV>
22.9538

>  <SCORE.INTER.VDW>
-21.4099

>  <SCORE.INTER.norm>
-0.274096

>  <SCORE.INTRA>
-2.20057

>  <SCORE.INTRA.DIHEDRAL>
-3.47737

>  <SCORE.INTRA.DIHEDRAL.0>
5.18357

>  <SCORE.INTRA.POLAR>
0

>  <SCORE.INTRA.POLAR.0>
0

>  <SCORE.INTRA.REPUL>
0

>  <SCORE.INTRA.REPUL.0>
0

>  <SCORE.INTRA.SOLV>
-0.224752

>  <SCORE.INTRA.SOLV.lig_0>
-109.973

>  <SCORE.INTRA.VDW>
-0.34951

>  <SCORE.INTRA.VDW.0>
-1.68646

>  <SCORE.INTRA.norm>
-0.0536724

>  <SCORE.RESTR>
0

>  <SCORE.RESTR.CAVITY>
0

>  <SCORE.RESTR.norm>
0

>  <SCORE.SYSTEM>
0

>  <SCORE.SYSTEM.CONST>
0

>  <SCORE.SYSTEM.DIHEDRAL>
0

>  <SCORE.SYSTEM.SOLV>
0

>  <SCORE.SYSTEM.norm>
0

>  <SCORE.heavy>
41

>  <SCORE.norm>
-0.327769

>  <RMSD>
4.050

$$$$
ligand
 OpenBabel11021811423D
libRbt.so/2013.1/901 2013/11/27
 41 45  0  0  0  0  0  0  0  0999 V2000
   35.2791   40.3970    4.5308 C   0  0  2  0  0  0  0  0  0  0  0  0
   35.0049   39.9373    5.8688 O   0  0  0  0  0  0  0  0  0  0  0  0
   36.9231   37.2046    8.6563 C   0  0  2  0  0  0  0  0  0  0  0  0
   37.5875   35.9833    9.1798 N   0  0  0  0  0  0  0  0  0  0  0  0
   38.7337   41.1612    6.6708 C   0  0  1  0  0  0  0  0  0  0  0  0
   40.3256   43.8381    7.8793 C   0  0  1  0  0  0  0  0  0  0  0  0
   34.9889   41.9214    4.3908 C   0  0  2  0  0  0  0  0  0  0  0  0
   35.6936   42.7316    5.3889 N   0  0  0  0  0  0  0  0  0  0  0  0
   35.5766   36.7977    7.9784 C   0  0  0  0  0  0  0  0  0  0  0  0
   39.7304   41.7145    5.6267 C   0  0  2  0  0  0  0  0  0  0  0  0
   41.0874   41.4303    5.9824 O   0  0  0  0  0  0  0  0  0  0  0  0
   39.1291   44.6396    8.5488 C   0  0  2  0  0  0  0  0  0  0  0  0
   39.1044   46.0953    8.2096 N   0  0  0  0  0  0  0  0  0  0  0  0
   33.4616   42.1871    4.4745 C   0  0  1  0  0  0  0  0  0  0  0  0
   33.1987   43.5791    4.3189 O   0  0  0  0  0  0  0  0  0  0  0  0
   34.8368   38.0399    7.4026 C   0  0  2  0  0  0  0  0  0  0  0  0
   33.5778   37.5728    6.7922 N   0  0  0  0  0  0  0  0  0  0  0  0
   39.4306   43.2221    5.5669 C   0  0  2  0  0  0  0  0  0  0  0  0
   40.3536   44.0128    6.4168 O   0  0  0  0  0  0  0  0  0  0  0  0
   39.1746   44.4561   10.1330 C   0  0  1  0  0  0  0  0  0  0  0  0
   38.8831   43.0924   10.5103 O   0  0  0  0  0  0  0  0  0  0  0  0
   32.7294   41.3691    3.3857 C   0  0  2  0  0  0  0  0  0  0  0  0
   31.3408   41.6192    3.4446 O   0  0  0  0  0  0  0  0  0  0  0  0
   35.7611   38.7899    6.3790 C   0  0  2  0  0  0  0  0  0  0  0  0
   37.9886   43.3297    6.0548 C   0  0  2  0  0  0  0  0  0  0  0  0
   37.7578   42.1862    6.8655 O   0  0  0  0  0  0  0  0  0  0  0  0
   40.5778   44.8609   10.7403 C   0  0  2  0  0  0  0  0  0  0  0  0
   40.7662   46.2783   10.5918 O   0  0  0  0  0  0  0  0  0  0  0  0
   33.0172   39.8654    3.5675 C   0  0  2  0  0  0  0  0  0  0  0  0
   34.4823   39.6633    3.5198 O   0  0  0  0  0  0  0  0  0  0  0  0
   37.1248   39.2351    7.1101 C   0  0  2  0  0  0  0  0  0  0  0  0
   38.0719   39.9257    6.1936 O   0  0  0  0  0  0  0  0  0  0  0  0
   36.9597   43.3205    4.9338 C   0  0  0  0  0  0  0  0  0  0  0  0
   41.7301   44.0632   10.0053 C   0  0  1  0  0  0  0  0  0  0  0  0
   41.6439   44.2065    8.5123 O   0  0  0  0  0  0  0  0  0  0  0  0
   32.2999   39.0601    2.4590 C   0  0  0  0  0  0  0  0  0  0  0  0
   30.8285   39.0473    2.5534 N   0  0  0  0  0  0  0  0  0  0  0  0
   37.8516   37.9836    7.6471 C   0  0  1  0  0  0  0  0  0  0  0  0
   39.0648   38.3783    8.2961 O   0  0  0  0  0  0  0  0  0  0  0  0
   43.1743   44.4427   10.5129 C   0  0  0  0  0  0  0  0  0  0  0  0
   43.5546   45.8877   10.4106 N   0  0  0  0  0  0  0  0  0  0  0  0
  1  2  1  1  0  0  0
  1  7  1  0  0  0  0
  1 30  1  0  0  0  0
  3  4  1  6  0  0  0
  3  9  1  0  0  0  0
  3 38  1  0  0  0  0
  5 10  1  0  0  0  0
  5 26  1  6  0  0  0
  5 32  1  0  0  0  0
  6 12  1  0  0  0  0
  6 35  1  0  0  0  0
  6 19  1  6  0  0  0
  7  8  1  1  0  0  0
  7 14  1  0  0  0  0
  8 33  1  0  0  0  0
  9 16  1  0  0  0  0
 10 11  1  1  0  0  0
 10 18  1  0  0  0  0
 12 13  1  1  0  0  0
 12 20  1  0  0  0  0
 14 15  1  6  0  0  0
 14 22  1  0  0  0  0
 16 17  1  6  0  0  0
 16 24  1  0  0  0  0
 18 19  1  1  0  0  0
 18 25  1  0  0  0  0
 20 21  1  6  0  0  0
 20 27  1  0  0  0  0
 22 23  1  1  0  0  0
 22 29  1  0  0  0  0
 24  2  1  1  0  0  0
 24 31  1  0  0  0  0
 25 26  1  1  0  0  0
 25 33  1  0  0  0  0
 27 28  1  6  0  0  0
 27 34  1  0  0  0  0
 29 30  1  0  0  0  0
 29 36  1  6  0  0  0
 31 32  1  6  0  0  0
 31 38  1  0  0  0  0
 34 35  1  0  0  0  0
 34 40  1  1  0  0  0
 36 37  1  0  0  0  0
 38 39  1  1  0  0  0
 40 41  1  0  0  0  0
M  END
>  <CHROM.1>
-65.14394888,-79.82793204,-68.54900419,-57.28039189,37.30181004,41.57098662
6.77063113,2.82273640,0.66353466,2.85940742

>  <Name>
ligand

>  <RI>
0

>  <Rbt.Current_Directory>
/home/itssahil/PROJECTS/Mol_Feturizer/New_Systems/rnas/1ZZ5

>  <Rbt.Executable>
rbdock ($Id: //depot/dev/client3/rdock/2013.1/src/exe/rbdock.cxx#4 $)

>  <Rbt.Library>
libRbt.so (2013.1, Build901 2013/11/27)

>  <Rbt.Parameter_File>
/export/apps/rDock/src/rDock_2013.1_src/data/scripts/dock_solv.prm

>  <Rbt.Receptor>
prm/pocket_docking_6.prm

>  <SCORE>
-10.1052

>  <SCORE.INTER>
-10.1004

>  <SCORE.INTER.CONST>
1

>  <SCORE.INTER.POLAR>
0

>  <SCORE.INTER.ROT>
4

>  <SCORE.INTER.SOLV>
15.3457

>  <SCORE.INTER.VDW>
-18.1155

>  <SCORE.INTER.norm>
-0.24635

>  <SCORE.INTRA>
-0.00481694

>  <SCORE.INTRA.DIHEDRAL>
-2.81164

>  <SCORE.INTRA.DIHEDRAL.0>
5.18357

>  <SCORE.INTRA.POLAR>
0

>  <SCORE.INTRA.POLAR.0>
0

>  <SCORE.INTRA.REPUL>
0

>  <SCORE.INTRA.REPUL.0>
0

>  <SCORE.INTRA.SOLV>
2.52631

>  <SCORE.INTRA.SOLV.lig_0>
-109.973

>  <SCORE.INTRA.VDW>
0.137852

>  <SCORE.INTRA.VDW.0>
-1.68646

>  <SCORE.INTRA.norm>
-0.000117486

>  <SCORE.RESTR>
0

>  <SCORE.RESTR.CAVITY>
0

>  <SCORE.RESTR.norm>
0

>  <SCORE.SYSTEM>
0

>  <SCORE.SYSTEM.CONST>
0

>  <SCORE.SYSTEM.DIHEDRAL>
0

>  <SCORE.SYSTEM.SOLV>
0

>  <SCORE.SYSTEM.norm>
0

>  <SCORE.heavy>
41

>  <SCORE.norm>
-0.246468

>  <RMSD>
4.091

$$$$
ligand
 OpenBabel11021811423D
libRbt.so/2013.1/901 2013/11/27
 41 45  0  0  0  0  0  0  0  0999 V2000
   35.3085   40.3930    4.5544 C   0  0  2  0  0  0  0  0  0  0  0  0
   35.0216   39.9391    5.8916 O   0  0  0  0  0  0  0  0  0  0  0  0
   36.9214   37.2301    8.7147 C   0  0  2  0  0  0  0  0  0  0  0  0
   37.5856   36.0146    9.2520 N   0  0  0  0  0  0  0  0  0  0  0  0
   38.7358   41.1843    6.7280 C   0  0  1  0  0  0  0  0  0  0  0  0
   40.3756   43.8020    7.9297 C   0  0  1  0  0  0  0  0  0  0  0  0
   35.0129   41.9153    4.4029 C   0  0  2  0  0  0  0  0  0  0  0  0
   35.7029   42.7339    5.4044 N   0  0  0  0  0  0  0  0  0  0  0  0
   35.5844   36.8134    8.0243 C   0  0  0  0  0  0  0  0  0  0  0  0
   39.7414   41.7367    5.6920 C   0  0  2  0  0  0  0  0  0  0  0  0
   41.0957   41.4607    6.0641 O   0  0  0  0  0  0  0  0  0  0  0  0
   39.1036   44.4138    8.6577 C   0  0  2  0  0  0  0  0  0  0  0  0
   38.8859   45.8677    8.3865 N   0  0  0  0  0  0  0  0  0  0  0  0
   33.4836   42.1743    4.4685 C   0  0  1  0  0  0  0  0  0  0  0  0
   33.2161   43.5643    4.3025 O   0  0  0  0  0  0  0  0  0  0  0  0
   34.8453   38.0492    7.4337 C   0  0  2  0  0  0  0  0  0  0  0  0
   33.5952   37.5731    6.8120 N   0  0  0  0  0  0  0  0  0  0  0  0
   39.4355   43.2426    5.6209 C   0  0  2  0  0  0  0  0  0  0  0  0
   40.3455   44.0420    6.4766 O   0  0  0  0  0  0  0  0  0  0  0  0
   39.2108   44.1691   10.2307 C   0  0  1  0  0  0  0  0  0  0  0  0
   39.1042   42.7643   10.5501 O   0  0  0  0  0  0  0  0  0  0  0  0
   32.7671   41.3472    3.3761 C   0  0  2  0  0  0  0  0  0  0  0  0
   31.3769   41.5913    3.4184 O   0  0  0  0  0  0  0  0  0  0  0  0
   35.7774   38.7979    6.4163 C   0  0  2  0  0  0  0  0  0  0  0  0
   37.9877   43.3461    6.0923 C   0  0  2  0  0  0  0  0  0  0  0  0
   37.7532   42.2059    6.9065 O   0  0  0  0  0  0  0  0  0  0  0  0
   40.5655   44.7236   10.8296 C   0  0  2  0  0  0  0  0  0  0  0  0
   40.5686   46.1585   10.7432 O   0  0  0  0  0  0  0  0  0  0  0  0
   33.0598   39.8459    3.5690 C   0  0  2  0  0  0  0  0  0  0  0  0
   34.5262   39.6503    3.5386 O   0  0  0  0  0  0  0  0  0  0  0  0
   37.1309   39.2532    7.1600 C   0  0  2  0  0  0  0  0  0  0  0  0
   38.0849   39.9433    6.2502 O   0  0  0  0  0  0  0  0  0  0  0  0
   36.9713   43.3263    4.9601 C   0  0  0  0  0  0  0  0  0  0  0  0
   41.7916   44.1126   10.0373 C   0  0  1  0  0  0  0  0  0  0  0  0
   41.6514   44.3083    8.5543 O   0  0  0  0  0  0  0  0  0  0  0  0
   32.3584   39.0314    2.4571 C   0  0  0  0  0  0  0  0  0  0  0  0
   30.8850   39.0452    2.5120 N   0  0  0  0  0  0  0  0  0  0  0  0
   37.8575   38.0080    7.7116 C   0  0  1  0  0  0  0  0  0  0  0  0
   39.0616   38.4117    8.3718 O   0  0  0  0  0  0  0  0  0  0  0  0
   43.1878   44.6515   10.5348 C   0  0  0  0  0  0  0  0  0  0  0  0
   43.5707   44.3023   11.9401 N   0  0  0  0  0  0  0  0  0  0  0  0
  1  2  1  1  0  0  0
  1  7  1  0  0  0  0
  1 30  1  0  0  0  0
  3  4  1  6  0  0  0
  3  9  1  0  0  0  0
  3 38  1  0  0  0  0
  5 10  1  0  0  0  0
  5 26  1  6  0  0  0
  5 32  1  0  0  0  0
  6 12  1  0  0  0  0
  6 35  1  0  0  0  0
  6 19  1  6  0  0  0
  7  8  1  1  0  0  0
  7 14  1  0  0  0  0
  8 33  1  0  0  0  0
  9 16  1  0  0  0  0
 10 11  1  1  0  0  0
 10 18  1  0  0  0  0
 12 13  1  1  0  0  0
 12 20  1  0  0  0  0
 14 15  1  6  0  0  0
 14 22  1  0  0  0  0
 16 17  1  6  0  0  0
 16 24  1  0  0  0  0
 18 19  1  1  0  0  0
 18 25  1  0  0  0  0
 20 21  1  6  0  0  0
 20 27  1  0  0  0  0
 22 23  1  1  0  0  0
 22 29  1  0  0  0  0
 24  2  1  1  0  0  0
 24 31  1  0  0  0  0
 25 26  1  1  0  0  0
 25 33  1  0  0  0  0
 27 28  1  6  0  0  0
 27 34  1  0  0  0  0
 29 30  1  0  0  0  0
 29 36  1  6  0  0  0
 31 32  1  6  0  0  0
 31 38  1  0  0  0  0
 34 35  1  0  0  0  0
 34 40  1  1  0  0  0
 36 37  1  0  0  0  0
 38 39  1  1  0  0  0
 40 41  1  0  0  0  0
M  END
>  <CHROM.1>
-60.48883891,-75.39087033,-66.81776342,64.30659732,37.31239683,41.51337147
6.85000898,2.88131560,0.68456244,2.83726506

>  <Name>
ligand

>  <RI>
0

>  <Rbt.Current_Directory>
/home/itssahil/PROJECTS/Mol_Feturizer/New_Systems/rnas/1ZZ5

>  <Rbt.Executable>
rbdock ($Id: //depot/dev/client3/rdock/2013.1/src/exe/rbdock.cxx#4 $)

>  <Rbt.Library>
libRbt.so (2013.1, Build901 2013/11/27)

>  <Rbt.Parameter_File>
/export/apps/rDock/src/rDock_2013.1_src/data/scripts/dock_solv.prm

>  <Rbt.Receptor>
prm/pocket_docking_8.prm

>  <SCORE>
-10.7393

>  <SCORE.INTER>
-9.98121

>  <SCORE.INTER.CONST>
1

>  <SCORE.INTER.POLAR>
0

>  <SCORE.INTER.ROT>
4

>  <SCORE.INTER.SOLV>
15.2335

>  <SCORE.INTER.VDW>
-17.9986

>  <SCORE.INTER.norm>
-0.243444

>  <SCORE.INTRA>
-0.75811

>  <SCORE.INTRA.DIHEDRAL>
-3.64537

>  <SCORE.INTRA.DIHEDRAL.0>
5.18357

>  <SCORE.INTRA.POLAR>
0

>  <SCORE.INTRA.POLAR.0>
0

>  <SCORE.INTRA.REPUL>
0

>  <SCORE.INTRA.REPUL.0>
0

>  <SCORE.INTRA.SOLV>
1.57752

>  <SCORE.INTRA.SOLV.lig_0>
-109.973

>  <SCORE.INTRA.VDW>
0.275816

>  <SCORE.INTRA.VDW.0>
-1.68646

>  <SCORE.INTRA.norm>
-0.0184905

>  <SCORE.RESTR>
0

>  <SCORE.RESTR.CAVITY>
0

>  <SCORE.RESTR.norm>
0

>  <SCORE.SYSTEM>
0

>  <SCORE.SYSTEM.CONST>
0

>  <SCORE.SYSTEM.DIHEDRAL>
0

>  <SCORE.SYSTEM.SOLV>
0

>  <SCORE.SYSTEM.norm>
0

>  <SCORE.heavy>
41

>  <SCORE.norm>
-0.261935

>  <RMSD>
4.103

$$$$
ligand
 OpenBabel11021811423D
libRbt.so/2013.1/901 2013/11/27
 41 45  0  0  0  0  0  0  0  0999 V2000
   35.7957   40.2967    4.7139 C   0  0  2  0  0  0  0  0  0  0  0  0
   35.4945   39.7982    6.0320 O   0  0  0  0  0  0  0  0  0  0  0  0
   37.2121   36.8007    8.6744 C   0  0  2  0  0  0  0  0  0  0  0  0
   37.7834   35.5092    9.1356 N   0  0  0  0  0  0  0  0  0  0  0  0
   39.3110   40.6940    6.8546 C   0  0  1  0  0  0  0  0  0  0  0  0
   40.9367   44.8310    7.0910 C   0  0  1  0  0  0  0  0  0  0  0  0
   35.6231   41.8437    4.6460 C   0  0  2  0  0  0  0  0  0  0  0  0
   36.3938   42.5505    5.6735 N   0  0  0  0  0  0  0  0  0  0  0  0
   35.8345   36.5300    7.9911 C   0  0  0  0  0  0  0  0  0  0  0  0
   40.3415   41.2168    5.8276 C   0  0  2  0  0  0  0  0  0  0  0  0
   41.6745   40.8132    6.1575 O   0  0  0  0  0  0  0  0  0  0  0  0
   42.2882   45.5269    7.5508 C   0  0  2  0  0  0  0  0  0  0  0  0
   43.0017   44.8076    8.6501 N   0  0  0  0  0  0  0  0  0  0  0  0
   34.1213   42.2216    4.7559 C   0  0  1  0  0  0  0  0  0  0  0  0
   33.9656   43.6353    4.6662 O   0  0  0  0  0  0  0  0  0  0  0  0
   35.1894   37.8506    7.4793 C   0  0  2  0  0  0  0  0  0  0  0  0
   33.8947   37.5101    6.8599 N   0  0  0  0  0  0  0  0  0  0  0  0
   40.1585   42.7441    5.8393 C   0  0  2  0  0  0  0  0  0  0  0  0
   41.1444   43.4216    6.7158 O   0  0  0  0  0  0  0  0  0  0  0  0
   41.9984   47.0328    7.9915 C   0  0  1  0  0  0  0  0  0  0  0  0
   41.6026   47.8415    6.8618 O   0  0  0  0  0  0  0  0  0  0  0  0
   33.3220   41.5132    3.6377 C   0  0  2  0  0  0  0  0  0  0  0  0
   31.9572   41.8662    3.7207 O   0  0  0  0  0  0  0  0  0  0  0  0
   36.1629   38.5738    6.4825 C   0  0  2  0  0  0  0  0  0  0  0  0
   38.7318   42.9394    6.3448 C   0  0  2  0  0  0  0  0  0  0  0  0
   38.4182   41.7808    7.1047 O   0  0  0  0  0  0  0  0  0  0  0  0
   40.8730   47.1241    9.0991 C   0  0  2  0  0  0  0  0  0  0  0  0
   41.3603   46.5380   10.3179 O   0  0  0  0  0  0  0  0  0  0  0  0
   33.4942   39.9852    3.7481 C   0  0  2  0  0  0  0  0  0  0  0  0
   34.9390   39.6736    3.6779 O   0  0  0  0  0  0  0  0  0  0  0  0
   37.5610   38.8788    7.2205 C   0  0  2  0  0  0  0  0  0  0  0  0
   38.5533   39.5363    6.3277 O   0  0  0  0  0  0  0  0  0  0  0  0
   37.6989   43.0609    5.2341 C   0  0  0  0  0  0  0  0  0  0  0  0
   39.5694   46.3777    8.6013 C   0  0  1  0  0  0  0  0  0  0  0  0
   39.8675   44.9780    8.1442 O   0  0  0  0  0  0  0  0  0  0  0  0
   32.7107   39.2892    2.6108 C   0  0  0  0  0  0  0  0  0  0  0  0
   31.2433   39.3909    2.7143 N   0  0  0  0  0  0  0  0  0  0  0  0
   38.1922   37.5519    7.6933 C   0  0  1  0  0  0  0  0  0  0  0  0
   39.4358   37.8219    8.3484 O   0  0  0  0  0  0  0  0  0  0  0  0
   38.4067   46.3737    9.6669 C   0  0  0  0  0  0  0  0  0  0  0  0
   37.1788   45.5959    9.3054 N   0  0  0  0  0  0  0  0  0  0  0  0
  1  2  1  1  0  0  0
  1  7  1  0  0  0  0
  1 30  1  0  0  0  0
  3  4  1  6  0  0  0
  3  9  1  0  0  0  0
  3 38  1  0  0  0  0
  5 10  1  0  0  0  0
  5 26  1  6  0  0  0
  5 32  1  0  0  0  0
  6 12  1  0  0  0  0
  6 35  1  0  0  0  0
  6 19  1  1  0  0  0
  7  8  1  1  0  0  0
  7 14  1  0  0  0  0
  8 33  1  0  0  0  0
  9 16  1  0  0  0  0
 10 11  1  1  0  0  0
 10 18  1  0  0  0  0
 12 13  1  1  0  0  0
 12 20  1  0  0  0  0
 14 15  1  6  0  0  0
 14 22  1  0  0  0  0
 16 17  1  6  0  0  0
 16 24  1  0  0  0  0
 18 19  1  1  0  0  0
 18 25  1  0  0  0  0
 20 21  1  6  0  0  0
 20 27  1  0  0  0  0
 22 23  1  1  0  0  0
 22 29  1  0  0  0  0
 24  2  1  1  0  0  0
 24 31  1  0  0  0  0
 25 26  1  1  0  0  0
 25 33  1  0  0  0  0
 27 28  1  1  0  0  0
 27 34  1  0  0  0  0
 29 30  1  0  0  0  0
 29 36  1  6  0  0  0
 31 32  1  6  0  0  0
 31 38  1  0  0  0  0
 34 35  1  0  0  0  0
 34 40  1  1  0  0  0
 36 37  1  0  0  0  0
 38 39  1  1  0  0  0
 40 41  1  0  0  0  0
M  END
>  <CHROM.1>
-166.18882239,-158.93231996,-68.24881111,-175.53123196,37.65806772,41.78562450
6.58761926,2.47845416,0.54496209,2.97608939

>  <Name>
ligand

>  <RI>
0

>  <Rbt.Current_Directory>
/home/itssahil/PROJECTS/Mol_Feturizer/New_Systems/rnas/1ZZ5

>  <Rbt.Executable>
rbdock ($Id: //depot/dev/client3/rdock/2013.1/src/exe/rbdock.cxx#4 $)

>  <Rbt.Library>
libRbt.so (2013.1, Build901 2013/11/27)

>  <Rbt.Parameter_File>
/export/apps/rDock/src/rDock_2013.1_src/data/scripts/dock_solv.prm

>  <Rbt.Receptor>
prm/pocket_docking_6.prm

>  <SCORE>
-11.3021

>  <SCORE.INTER>
-10.776

>  <SCORE.INTER.CONST>
1

>  <SCORE.INTER.POLAR>
0

>  <SCORE.INTER.ROT>
4

>  <SCORE.INTER.SOLV>
16.292

>  <SCORE.INTER.VDW>
-18.8813

>  <SCORE.INTER.norm>
-0.262829

>  <SCORE.INTRA>
-0.526118

>  <SCORE.INTRA.DIHEDRAL>
-1.8283

>  <SCORE.INTRA.DIHEDRAL.0>
5.18357

>  <SCORE.INTRA.POLAR>
0

>  <SCORE.INTRA.POLAR.0>
0

>  <SCORE.INTRA.REPUL>
0

>  <SCORE.INTRA.REPUL.0>
0

>  <SCORE.INTRA.SOLV>
-0.101227

>  <SCORE.INTRA.SOLV.lig_0>
-109.973

>  <SCORE.INTRA.VDW>
0.438645

>  <SCORE.INTRA.VDW.0>
-1.68646

>  <SCORE.INTRA.norm>
-0.0128321

>  <SCORE.RESTR>
0

>  <SCORE.RESTR.CAVITY>
0

>  <SCORE.RESTR.norm>
0

>  <SCORE.SYSTEM>
0

>  <SCORE.SYSTEM.CONST>
0

>  <SCORE.SYSTEM.DIHEDRAL>
0

>  <SCORE.SYSTEM.SOLV>
0

>  <SCORE.SYSTEM.norm>
0

>  <SCORE.heavy>
41

>  <SCORE.norm>
-0.275661

>  <RMSD>
4.124

$$$$
ligand
 OpenBabel11021811423D
libRbt.so/2013.1/901 2013/11/27
 41 45  0  0  0  0  0  0  0  0999 V2000
   37.4146   40.0242    4.6159 C   0  0  2  0  0  0  0  0  0  0  0  0
   37.7477   39.3523    5.8464 O   0  0  0  0  0  0  0  0  0  0  0  0
   40.4064   36.1004    6.9754 C   0  0  2  0  0  0  0  0  0  0  0  0
   41.0867   34.7800    6.9476 N   0  0  0  0  0  0  0  0  0  0  0  0
   41.5330   40.2602    4.9012 C   0  0  1  0  0  0  0  0  0  0  0  0
   43.8357   42.5861    5.5077 C   0  0  1  0  0  0  0  0  0  0  0  0
   37.2780   41.5608    4.8347 C   0  0  2  0  0  0  0  0  0  0  0  0
   38.4604   42.1557    5.4650 N   0  0  0  0  0  0  0  0  0  0  0  0
   38.8615   35.8741    6.9851 C   0  0  0  0  0  0  0  0  0  0  0  0
   41.9810   40.9429    3.5886 C   0  0  2  0  0  0  0  0  0  0  0  0
   43.3008   40.5443    3.2042 O   0  0  0  0  0  0  0  0  0  0  0  0
   43.2094   43.2629    6.8008 C   0  0  2  0  0  0  0  0  0  0  0  0
   43.1866   44.7570    6.7572 N   0  0  0  0  0  0  0  0  0  0  0  0
   36.0133   41.8724    5.6794 C   0  0  1  0  0  0  0  0  0  0  0  0
   35.8774   43.2802    5.8542 O   0  0  0  0  0  0  0  0  0  0  0  0
   38.0931   37.2273    7.0066 C   0  0  2  0  0  0  0  0  0  0  0  0
   36.6492   36.9264    7.0247 N   0  0  0  0  0  0  0  0  0  0  0  0
   41.8717   42.4494    3.8794 C   0  0  2  0  0  0  0  0  0  0  0  0
   43.1730   43.0416    4.2734 O   0  0  0  0  0  0  0  0  0  0  0  0
   43.9939   42.7736    8.1011 C   0  0  1  0  0  0  0  0  0  0  0  0
   43.7709   41.3680    8.3487 O   0  0  0  0  0  0  0  0  0  0  0  0
   34.7634   41.2865    4.9828 C   0  0  2  0  0  0  0  0  0  0  0  0
   33.6064   41.5813    5.7370 O   0  0  0  0  0  0  0  0  0  0  0  0
   38.5110   38.1030    5.7726 C   0  0  2  0  0  0  0  0  0  0  0  0
   40.8523   42.5321    5.0121 C   0  0  2  0  0  0  0  0  0  0  0  0
   40.8938   41.2766    5.6754 O   0  0  0  0  0  0  0  0  0  0  0  0
   45.5510   43.0277    7.9892 C   0  0  2  0  0  0  0  0  0  0  0  0
   45.8010   44.4432    7.9967 O   0  0  0  0  0  0  0  0  0  0  0  0
   34.9199   39.7632    4.8039 C   0  0  2  0  0  0  0  0  0  0  0  0
   36.1549   39.5105    4.0289 O   0  0  0  0  0  0  0  0  0  0  0  0
   40.1006   38.3570    5.8056 C   0  0  2  0  0  0  0  0  0  0  0  0
   40.5817   39.1548    4.6455 O   0  0  0  0  0  0  0  0  0  0  0  0
   39.4249   42.7603    4.5370 C   0  0  0  0  0  0  0  0  0  0  0  0
   46.1076   42.3680    6.6628 C   0  0  1  0  0  0  0  0  0  0  0  0
   45.3274   42.8008    5.4540 O   0  0  0  0  0  0  0  0  0  0  0  0
   33.6754   39.1926    4.0848 C   0  0  0  0  0  0  0  0  0  0  0  0
   32.4168   39.2934    4.8464 N   0  0  0  0  0  0  0  0  0  0  0  0
   40.8383   37.0020    5.7555 C   0  0  1  0  0  0  0  0  0  0  0  0
   42.2515   37.2269    5.7836 O   0  0  0  0  0  0  0  0  0  0  0  0
   47.6494   42.6158    6.4415 C   0  0  0  0  0  0  0  0  0  0  0  0
   48.2591   41.9663    5.2374 N   0  0  0  0  0  0  0  0  0  0  0  0
  1  2  1  1  0  0  0
  1  7  1  0  0  0  0
  1 30  1  0  0  0  0
  3  4  1  6  0  0  0
  3  9  1  0  0  0  0
  3 38  1  0  0  0  0
  5 10  1  0  0  0  0
  5 26  1  1  0  0  0
  5 32  1  0  0  0  0
  6 12  1  0  0  0  0
  6 35  1  0  0  0  0
  6 19  1  6  0  0  0
  7  8  1  1  0  0  0
  7 14  1  0  0  0  0
  8 33  1  0  0  0  0
  9 16  1  0  0  0  0
 10 11  1  1  0  0  0
 10 18  1  0  0  0  0
 12 13  1  6  0  0  0
 12 20  1  0  0  0  0
 14 15  1  6  0  0  0
 14 22  1  0  0  0  0
 16 17  1  6  0  0  0
 16 24  1  0  0  0  0
 18 19  1  1  0  0  0
 18 25  1  0  0  0  0
 20 21  1  6  0  0  0
 20 27  1  0  0  0  0
 22 23  1  1  0  0  0
 22 29  1  0  0  0  0
 24  2  1  1  0  0  0
 24 31  1  0  0  0  0
 25 26  1  6  0  0  0
 25 33  1  0  0  0  0
 27 28  1  6  0  0  0
 27 34  1  0  0  0  0
 29 30  1  0  0  0  0
 29 36  1  6  0  0  0
 31 32  1  6  0  0  0
 31 38  1  0  0  0  0
 34 35  1  0  0  0  0
 34 40  1  6  0  0  0
 36 37  1  0  0  0  0
 38 39  1  1  0  0  0
 40 41  1  0  0  0  0
M  END
>  <CHROM.1>
-63.13724573,-79.73641573,-65.34659557,177.26074835,40.38974062,40.64108268
5.69762466,2.84487770,0.13728093,3.02763086

>  <Name>
ligand

>  <RI>
0

>  <Rbt.Current_Directory>
/home/itssahil/PROJECTS/Mol_Feturizer/New_Systems/rnas/1ZZ5

>  <Rbt.Executable>
rbdock ($Id: //depot/dev/client3/rdock/2013.1/src/exe/rbdock.cxx#4 $)

>  <Rbt.Library>
libRbt.so (2013.1, Build901 2013/11/27)

>  <Rbt.Parameter_File>
/export/apps/rDock/src/rDock_2013.1_src/data/scripts/dock_solv.prm

>  <Rbt.Receptor>
prm/pocket_docking_5.prm

>  <SCORE>
-7.83442

>  <SCORE.INTER>
-7.03375

>  <SCORE.INTER.CONST>
1

>  <SCORE.INTER.POLAR>
0

>  <SCORE.INTER.ROT>
4

>  <SCORE.INTER.SOLV>
12.3218

>  <SCORE.INTER.VDW>
-15.0631

>  <SCORE.INTER.norm>
-0.171555

>  <SCORE.INTRA>
-0.800673

>  <SCORE.INTRA.DIHEDRAL>
-3.05224

>  <SCORE.INTRA.DIHEDRAL.0>
5.18357

>  <SCORE.INTRA.POLAR>
0

>  <SCORE.INTRA.POLAR.0>
0

>  <SCORE.INTRA.REPUL>
0

>  <SCORE.INTRA.REPUL.0>
0

>  <SCORE.INTRA.SOLV>
0.946575

>  <SCORE.INTRA.SOLV.lig_0>
-109.973

>  <SCORE.INTRA.VDW>
0.252157

>  <SCORE.INTRA.VDW.0>
-1.68646

>  <SCORE.INTRA.norm>
-0.0195286

>  <SCORE.RESTR>
0

>  <SCORE.RESTR.CAVITY>
0

>  <SCORE.RESTR.norm>
0

>  <SCORE.SYSTEM>
0

>  <SCORE.SYSTEM.CONST>
0

>  <SCORE.SYSTEM.DIHEDRAL>
0

>  <SCORE.SYSTEM.SOLV>
0

>  <SCORE.SYSTEM.norm>
0

>  <SCORE.heavy>
41

>  <SCORE.norm>
-0.191083

>  <RMSD>
4.430

$$$$
ligand
 OpenBabel11021811423D
libRbt.so/2013.1/901 2013/11/27
 41 45  0  0  0  0  0  0  0  0999 V2000
   37.3071   41.5196    4.7412 C   0  0  2  0  0  0  0  0  0  0  0  0
   37.4206   40.2178    5.3486 O   0  0  0  0  0  0  0  0  0  0  0  0
   38.8579   36.3185    4.0652 C   0  0  2  0  0  0  0  0  0  0  0  0
   39.0557   35.1123    3.2207 N   0  0  0  0  0  0  0  0  0  0  0  0
   41.2713   40.4427    4.2683 C   0  0  1  0  0  0  0  0  0  0  0  0
   44.3268   43.5454    5.7567 C   0  0  1  0  0  0  0  0  0  0  0  0
   37.6978   42.6439    5.7466 C   0  0  2  0  0  0  0  0  0  0  0  0
   39.0236   42.4449    6.3398 N   0  0  0  0  0  0  0  0  0  0  0  0
   37.3270   36.5491    4.2683 C   0  0  0  0  0  0  0  0  0  0  0  0
   41.8956   41.5892    3.4404 C   0  0  2  0  0  0  0  0  0  0  0  0
   42.9975   41.1353    2.6477 O   0  0  0  0  0  0  0  0  0  0  0  0
   45.8869   43.3213    5.9516 C   0  0  2  0  0  0  0  0  0  0  0  0
   46.2531   41.9469    6.4118 N   0  0  0  0  0  0  0  0  0  0  0  0
   36.6279   42.7588    6.8658 C   0  0  1  0  0  0  0  0  0  0  0  0
   36.9753   43.8061    7.7678 O   0  0  0  0  0  0  0  0  0  0  0  0
   37.0572   37.8081    5.1424 C   0  0  2  0  0  0  0  0  0  0  0  0
   35.5966   37.9484    5.2934 N   0  0  0  0  0  0  0  0  0  0  0  0
   42.3034   42.6426    4.4846 C   0  0  2  0  0  0  0  0  0  0  0  0
   43.7356   42.5409    4.8558 O   0  0  0  0  0  0  0  0  0  0  0  0
   46.4655   44.4031    6.9717 C   0  0  1  0  0  0  0  0  0  0  0  0
   46.4117   45.7330    6.4101 O   0  0  0  0  0  0  0  0  0  0  0  0
   35.2402   43.0199    6.2359 C   0  0  2  0  0  0  0  0  0  0  0  0
   34.2644   43.1430    7.2493 O   0  0  0  0  0  0  0  0  0  0  0  0
   37.7194   39.0710    4.4859 C   0  0  2  0  0  0  0  0  0  0  0  0
   41.3938   42.3516    5.6749 C   0  0  2  0  0  0  0  0  0  0  0  0
   41.0254   40.9838    5.5675 O   0  0  0  0  0  0  0  0  0  0  0  0
   45.6858   44.4023    8.3478 C   0  0  2  0  0  0  0  0  0  0  0  0
   45.9422   43.1664    9.0359 O   0  0  0  0  0  0  0  0  0  0  0  0
   34.8736   41.8785    5.2665 C   0  0  2  0  0  0  0  0  0  0  0  0
   35.9365   41.7793    4.2419 O   0  0  0  0  0  0  0  0  0  0  0  0
   39.3025   38.8264    4.3237 C   0  0  2  0  0  0  0  0  0  0  0  0
   39.9996   39.9699    3.6754 O   0  0  0  0  0  0  0  0  0  0  0  0
   40.1160   43.1778    5.6867 C   0  0  0  0  0  0  0  0  0  0  0  0
   44.1360   44.5858    8.0858 C   0  0  1  0  0  0  0  0  0  0  0  0
   43.6170   43.5912    7.0865 O   0  0  0  0  0  0  0  0  0  0  0  0
   33.4955   42.1627    4.6247 C   0  0  0  0  0  0  0  0  0  0  0  0
   32.9943   41.1005    3.7331 N   0  0  0  0  0  0  0  0  0  0  0  0
   39.5423   37.5900    3.4311 C   0  0  1  0  0  0  0  0  0  0  0  0
   40.9494   37.3725    3.2852 O   0  0  0  0  0  0  0  0  0  0  0  0
   43.2707   44.5457    9.4037 C   0  0  0  0  0  0  0  0  0  0  0  0
   41.8037   44.8008    9.2418 N   0  0  0  0  0  0  0  0  0  0  0  0
  1  2  1  1  0  0  0
  1  7  1  0  0  0  0
  1 30  1  0  0  0  0
  3  4  1  6  0  0  0
  3  9  1  0  0  0  0
  3 38  1  0  0  0  0
  5 10  1  0  0  0  0
  5 26  1  1  0  0  0
  5 32  1  0  0  0  0
  6 12  1  0  0  0  0
  6 35  1  0  0  0  0
  6 19  1  6  0  0  0
  7  8  1  1  0  0  0
  7 14  1  0  0  0  0
  8 33  1  0  0  0  0
  9 16  1  0  0  0  0
 10 11  1  1  0  0  0
 10 18  1  0  0  0  0
 12 13  1  1  0  0  0
 12 20  1  0  0  0  0
 14 15  1  1  0  0  0
 14 22  1  0  0  0  0
 16 17  1  6  0  0  0
 16 24  1  0  0  0  0
 18 19  1  1  0  0  0
 18 25  1  0  0  0  0
 20 21  1  6  0  0  0
 20 27  1  0  0  0  0
 22 23  1  1  0  0  0
 22 29  1  0  0  0  0
 24  2  1  1  0  0  0
 24 31  1  0  0  0  0
 25 26  1  6  0  0  0
 25 33  1  0  0  0  0
 27 28  1  6  0  0  0
 27 34  1  0  0  0  0
 29 30  1  0  0  0  0
 29 36  1  6  0  0  0
 31 32  1  6  0  0  0
 31 38  1  0  0  0  0
 34 35  1  0  0  0  0
 34 40  1  1  0  0  0
 36 37  1  0  0  0  0
 38 39  1  1  0  0  0
 40 41  1  0  0  0  0
M  END
>  <CHROM.1>
174.74718962,-176.05154899,-176.58264919,176.20718370,40.15899903,41.52914910
5.58307615,2.66700568,-0.00610547,-2.61001306

>  <Name>
ligand

>  <RI>
0

>  <Rbt.Current_Directory>
/home/itssahil/PROJECTS/Mol_Feturizer/New_Systems/rnas/1ZZ5

>  <Rbt.Executable>
rbdock ($Id: //depot/dev/client3/rdock/2013.1/src/exe/rbdock.cxx#4 $)

>  <Rbt.Library>
libRbt.so (2013.1, Build901 2013/11/27)

>  <Rbt.Parameter_File>
/export/apps/rDock/src/rDock_2013.1_src/data/scripts/dock_solv.prm

>  <Rbt.Receptor>
prm/pocket_docking_5.prm

>  <SCORE>
-12.3988

>  <SCORE.INTER>
-9.69673

>  <SCORE.INTER.CONST>
1

>  <SCORE.INTER.POLAR>
0

>  <SCORE.INTER.ROT>
4

>  <SCORE.INTER.SOLV>
15.1356

>  <SCORE.INTER.VDW>
-17.7764

>  <SCORE.INTER.norm>
-0.236506

>  <SCORE.INTRA>
-2.70206

>  <SCORE.INTRA.DIHEDRAL>
-4.64035

>  <SCORE.INTRA.DIHEDRAL.0>
5.18357

>  <SCORE.INTRA.POLAR>
0

>  <SCORE.INTRA.POLAR.0>
0

>  <SCORE.INTRA.REPUL>
0

>  <SCORE.INTRA.REPUL.0>
0

>  <SCORE.INTRA.SOLV>
-1.05592

>  <SCORE.INTRA.SOLV.lig_0>
-109.973

>  <SCORE.INTRA.VDW>
0.146072

>  <SCORE.INTRA.VDW.0>
-1.68646

>  <SCORE.INTRA.norm>
-0.065904

>  <SCORE.RESTR>
0

>  <SCORE.RESTR.CAVITY>
0

>  <SCORE.RESTR.norm>
0

>  <SCORE.SYSTEM>
0

>  <SCORE.SYSTEM.CONST>
0

>  <SCORE.SYSTEM.DIHEDRAL>
0

>  <SCORE.SYSTEM.SOLV>
0

>  <SCORE.SYSTEM.norm>
0

>  <SCORE.heavy>
41

>  <SCORE.norm>
-0.30241

>  <RMSD>
4.846

$$$$
ligand
 OpenBabel11021811423D
libRbt.so/2013.1/901 2013/11/27
 41 45  0  0  0  0  0  0  0  0999 V2000
   37.2981   41.4807    4.7281 C   0  0  2  0  0  0  0  0  0  0  0  0
   37.4058   40.1770    5.3324 O   0  0  0  0  0  0  0  0  0  0  0  0
   38.8212   36.2733    4.0377 C   0  0  2  0  0  0  0  0  0  0  0  0
   39.0115   35.0681    3.1901 N   0  0  0  0  0  0  0  0  0  0  0  0
   41.2560   40.3846    4.2466 C   0  0  1  0  0  0  0  0  0  0  0  0
   44.3489   43.5100    5.6750 C   0  0  1  0  0  0  0  0  0  0  0  0
   37.6962   42.6007    5.7355 C   0  0  2  0  0  0  0  0  0  0  0  0
   39.0218   42.3936    6.3262 N   0  0  0  0  0  0  0  0  0  0  0  0
   37.2918   36.5113    4.2437 C   0  0  0  0  0  0  0  0  0  0  0  0
   41.8849   41.5298    3.4204 C   0  0  2  0  0  0  0  0  0  0  0  0
   42.9832   41.0721    2.6249 O   0  0  0  0  0  0  0  0  0  0  0  0
   45.9104   43.2802    5.8519 C   0  0  2  0  0  0  0  0  0  0  0  0
   46.2730   41.9262    6.3716 N   0  0  0  0  0  0  0  0  0  0  0  0
   36.6286   42.7185    6.8566 C   0  0  1  0  0  0  0  0  0  0  0  0
   36.9827   43.7619    7.7605 O   0  0  0  0  0  0  0  0  0  0  0  0
   37.0298   37.7697    5.1212 C   0  0  2  0  0  0  0  0  0  0  0  0
   35.5701   37.9171    5.2747 N   0  0  0  0  0  0  0  0  0  0  0  0
   42.2997   42.5787    4.4663 C   0  0  2  0  0  0  0  0  0  0  0  0
   43.7320   42.4687    4.8352 O   0  0  0  0  0  0  0  0  0  0  0  0
   46.5178   44.4045    6.8072 C   0  0  1  0  0  0  0  0  0  0  0  0
   46.4653   45.7060    6.1826 O   0  0  0  0  0  0  0  0  0  0  0  0
   35.2412   42.9881    6.2295 C   0  0  2  0  0  0  0  0  0  0  0  0
   34.2677   43.1139    7.2446 O   0  0  0  0  0  0  0  0  0  0  0  0
   37.6974   39.0306    4.4665 C   0  0  2  0  0  0  0  0  0  0  0  0
   41.3904   42.2896    5.6574 C   0  0  2  0  0  0  0  0  0  0  0  0
   41.0149   40.9239    5.5474 O   0  0  0  0  0  0  0  0  0  0  0  0
   45.7642   44.4782    8.1958 C   0  0  2  0  0  0  0  0  0  0  0  0
   46.0225   43.2747    8.9385 O   0  0  0  0  0  0  0  0  0  0  0  0
   34.8673   41.8509    5.2580 C   0  0  2  0  0  0  0  0  0  0  0  0
   35.9281   41.7486    4.2315 O   0  0  0  0  0  0  0  0  0  0  0  0
   39.2791   38.7783    4.3013 C   0  0  2  0  0  0  0  0  0  0  0  0
   39.9810   39.9198    3.6546 O   0  0  0  0  0  0  0  0  0  0  0  0
   40.1170   43.1223    5.6731 C   0  0  0  0  0  0  0  0  0  0  0  0
   44.2114   44.6640    7.9537 C   0  0  1  0  0  0  0  0  0  0  0  0
   43.6648   43.6272    7.0138 O   0  0  0  0  0  0  0  0  0  0  0  0
   33.4897   42.1436    4.6190 C   0  0  0  0  0  0  0  0  0  0  0  0
   32.9879   41.0921    3.7153 N   0  0  0  0  0  0  0  0  0  0  0  0
   39.5111   37.5428    3.4054 C   0  0  1  0  0  0  0  0  0  0  0  0
   40.9169   37.3184    3.2569 O   0  0  0  0  0  0  0  0  0  0  0  0
   43.3708   44.6965    9.2878 C   0  0  0  0  0  0  0  0  0  0  0  0
   43.7016   45.7927   10.2533 N   0  0  0  0  0  0  0  0  0  0  0  0
  1  2  1  1  0  0  0
  1  7  1  0  0  0  0
  1 30  1  0  0  0  0
  3  4  1  6  0  0  0
  3  9  1  0  0  0  0
  3 38  1  0  0  0  0
  5 10  1  0  0  0  0
  5 26  1  1  0  0  0
  5 32  1  0  0  0  0
  6 12  1  0  0  0  0
  6 35  1  0  0  0  0
  6 19  1  1  0  0  0
  7  8  1  1  0  0  0
  7 14  1  0  0  0  0
  8 33  1  0  0  0  0
  9 16  1  0  0  0  0
 10 11  1  1  0  0  0
 10 18  1  0  0  0  0
 12 13  1  1  0  0  0
 12 20  1  0  0  0  0
 14 15  1  1  0  0  0
 14 22  1  0  0  0  0
 16 17  1  6  0  0  0
 16 24  1  0  0  0  0
 18 19  1  1  0  0  0
 18 25  1  0  0  0  0
 20 21  1  6  0  0  0
 20 27  1  0  0  0  0
 22 23  1  1  0  0  0
 22 29  1  0  0  0  0
 24  2  1  1  0  0  0
 24 31  1  0  0  0  0
 25 26  1  6  0  0  0
 25 33  1  0  0  0  0
 27 28  1  6  0  0  0
 27 34  1  0  0  0  0
 29 30  1  0  0  0  0
 29 36  1  6  0  0  0
 31 32  1  6  0  0  0
 31 38  1  0  0  0  0
 34 35  1  0  0  0  0
 34 40  1  1  0  0  0
 36 37  1  0  0  0  0
 38 39  1  1  0  0  0
 40 41  1  0  0  0  0
M  END
>  <CHROM.1>
171.27655590,-174.99860266,-177.16429545,60.56518171,40.20878578,41.52856049
5.56599166,2.64633595,-0.01157974,-2.60286607

>  <Name>
ligand

>  <RI>
0

>  <Rbt.Current_Directory>
/home/itssahil/PROJECTS/Mol_Feturizer/New_Systems/rnas/1ZZ5

>  <Rbt.Executable>
rbdock ($Id: //depot/dev/client3/rdock/2013.1/src/exe/rbdock.cxx#4 $)

>  <Rbt.Library>
libRbt.so (2013.1, Build901 2013/11/27)

>  <Rbt.Parameter_File>
/export/apps/rDock/src/rDock_2013.1_src/data/scripts/dock_solv.prm

>  <Rbt.Receptor>
prm/pocket_docking_6.prm

>  <SCORE>
-12.4947

>  <SCORE.INTER>
-9.86251

>  <SCORE.INTER.CONST>
1

>  <SCORE.INTER.POLAR>
0

>  <SCORE.INTER.ROT>
4

>  <SCORE.INTER.SOLV>
15.3506

>  <SCORE.INTER.VDW>
-17.9585

>  <SCORE.INTER.norm>
-0.240549

>  <SCORE.INTRA>
-2.63217

>  <SCORE.INTRA.DIHEDRAL>
-4.43557

>  <SCORE.INTRA.DIHEDRAL.0>
5.18357

>  <SCORE.INTRA.POLAR>
0

>  <SCORE.INTRA.POLAR.0>
0

>  <SCORE.INTRA.REPUL>
0

>  <SCORE.INTRA.REPUL.0>
0

>  <SCORE.INTRA.SOLV>
-1.15612

>  <SCORE.INTRA.SOLV.lig_0>
-109.973

>  <SCORE.INTRA.VDW>
0.163673

>  <SCORE.INTRA.VDW.0>
-1.68646

>  <SCORE.INTRA.norm>
-0.0641993

>  <SCORE.RESTR>
0

>  <SCORE.RESTR.CAVITY>
0

>  <SCORE.RESTR.norm>
0

>  <SCORE.SYSTEM>
0

>  <SCORE.SYSTEM.CONST>
0

>  <SCORE.SYSTEM.DIHEDRAL>
0

>  <SCORE.SYSTEM.SOLV>
0

>  <SCORE.SYSTEM.norm>
0

>  <SCORE.heavy>
41

>  <SCORE.norm>
-0.304748

>  <RMSD>
4.863

$$$$
ligand
 OpenBabel11021811423D
libRbt.so/2013.1/901 2013/11/27
 41 45  0  0  0  0  0  0  0  0999 V2000
   37.3072   41.5121    4.7456 C   0  0  2  0  0  0  0  0  0  0  0  0
   37.4208   40.2095    5.3512 O   0  0  0  0  0  0  0  0  0  0  0  0
   38.8579   36.3119    4.0623 C   0  0  2  0  0  0  0  0  0  0  0  0
   39.0555   35.1068    3.2161 N   0  0  0  0  0  0  0  0  0  0  0  0
   41.2712   40.4359    4.2701 C   0  0  1  0  0  0  0  0  0  0  0  0
   44.3602   43.6062    5.6529 C   0  0  1  0  0  0  0  0  0  0  0  0
   37.6981   42.6351    5.7523 C   0  0  2  0  0  0  0  0  0  0  0  0
   39.0241   42.4354    6.3448 N   0  0  0  0  0  0  0  0  0  0  0  0
   37.3270   36.5422    4.2661 C   0  0  0  0  0  0  0  0  0  0  0  0
   41.8952   41.5835    3.4435 C   0  0  2  0  0  0  0  0  0  0  0  0
   42.9969   41.1307    2.6499 O   0  0  0  0  0  0  0  0  0  0  0  0
   45.9289   43.4024    5.7936 C   0  0  2  0  0  0  0  0  0  0  0  0
   46.3243   42.0687    6.3411 N   0  0  0  0  0  0  0  0  0  0  0  0
   36.6286   42.7485    6.8720 C   0  0  1  0  0  0  0  0  0  0  0  0
   36.9762   43.7946    7.7752 O   0  0  0  0  0  0  0  0  0  0  0  0
   37.0575   37.8001    5.1420 C   0  0  2  0  0  0  0  0  0  0  0  0
   35.5969   37.9401    5.2936 N   0  0  0  0  0  0  0  0  0  0  0  0
   42.3033   42.6356    4.4889 C   0  0  2  0  0  0  0  0  0  0  0  0
   43.7357   42.5334    4.8596 O   0  0  0  0  0  0  0  0  0  0  0  0
   46.5457   44.5615    6.7001 C   0  0  1  0  0  0  0  0  0  0  0  0
   46.4581   45.8439    6.0409 O   0  0  0  0  0  0  0  0  0  0  0  0
   35.2406   43.0104    6.2428 C   0  0  2  0  0  0  0  0  0  0  0  0
   34.2652   43.1321    7.2567 O   0  0  0  0  0  0  0  0  0  0  0  0
   37.7194   39.0638    4.4869 C   0  0  2  0  0  0  0  0  0  0  0  0
   41.3941   42.3430    5.6791 C   0  0  2  0  0  0  0  0  0  0  0  0
   41.0257   40.9753    5.5700 O   0  0  0  0  0  0  0  0  0  0  0  0
   45.8287   44.6645    8.1061 C   0  0  2  0  0  0  0  0  0  0  0  0
   46.1237   43.4862    8.8750 O   0  0  0  0  0  0  0  0  0  0  0  0
   34.8738   41.8703    5.2721 C   0  0  2  0  0  0  0  0  0  0  0  0
   35.9364   41.7724    4.2469 O   0  0  0  0  0  0  0  0  0  0  0  0
   39.3025   38.8195    4.3239 C   0  0  2  0  0  0  0  0  0  0  0  0
   39.9994   39.9639    3.6770 O   0  0  0  0  0  0  0  0  0  0  0  0
   40.1163   43.1692    5.6924 C   0  0  0  0  0  0  0  0  0  0  0  0
   44.2675   44.8226    7.9012 C   0  0  1  0  0  0  0  0  0  0  0  0
   43.7106   43.7523    7.0059 O   0  0  0  0  0  0  0  0  0  0  0  0
   33.4955   42.1552    4.6310 C   0  0  0  0  0  0  0  0  0  0  0  0
   32.9892   41.0895    3.7467 N   0  0  0  0  0  0  0  0  0  0  0  0
   39.5420   37.5843    3.4296 C   0  0  1  0  0  0  0  0  0  0  0  0
   40.9491   37.3670    3.2831 O   0  0  0  0  0  0  0  0  0  0  0  0
   43.4625   44.8818    9.2561 C   0  0  0  0  0  0  0  0  0  0  0  0
   41.9841   45.0922    9.1404 N   0  0  0  0  0  0  0  0  0  0  0  0
  1  2  1  1  0  0  0
  1  7  1  0  0  0  0
  1 30  1  0  0  0  0
  3  4  1  6  0  0  0
  3  9  1  0  0  0  0
  3 38  1  0  0  0  0
  5 10  1  0  0  0  0
  5 26  1  1  0  0  0
  5 32  1  0  0  0  0
  6 12  1  0  0  0  0
  6 35  1  0  0  0  0
  6 19  1  1  0  0  0
  7  8  1  1  0  0  0
  7 14  1  0  0  0  0
  8 33  1  0  0  0  0
  9 16  1  0  0  0  0
 10 11  1  1  0  0  0
 10 18  1  0  0  0  0
 12 13  1  1  0  0  0
 12 20  1  0  0  0  0
 14 15  1  1  0  0  0
 14 22  1  0  0  0  0
 16 17  1  6  0  0  0
 16 24  1  0  0  0  0
 18 19  1  1  0  0  0
 18 25  1  0  0  0  0
 20 21  1  6  0  0  0
 20 27  1  0  0  0  0
 22 23  1  1  0  0  0
 22 29  1  0  0  0  0
 24  2  1  1  0  0  0
 24 31  1  0  0  0  0
 25 26  1  6  0  0  0
 25 33  1  0  0  0  0
 27 28  1  1  0  0  0
 27 34  1  0  0  0  0
 29 30  1  0  0  0  0
 29 36  1  6  0  0  0
 31 32  1  6  0  0  0
 31 38  1  0  0  0  0
 34 35  1  0  0  0  0
 34 40  1  1  0  0  0
 36 37  1  0  0  0  0
 38 39  1  1  0  0  0
 40 41  1  0  0  0  0
M  END
>  <CHROM.1>
168.78490711,-172.99297185,-176.11558175,177.37224122,40.18822279,41.57586414
5.53921046,2.65977866,-0.02342974,-2.62557922

>  <Name>
ligand

>  <RI>
0

>  <Rbt.Current_Directory>
/home/itssahil/PROJECTS/Mol_Feturizer/New_Systems/rnas/1ZZ5

>  <Rbt.Executable>
rbdock ($Id: //depot/dev/client3/rdock/2013.1/src/exe/rbdock.cxx#4 $)

>  <Rbt.Library>
libRbt.so (2013.1, Build901 2013/11/27)

>  <Rbt.Parameter_File>
/export/apps/rDock/src/rDock_2013.1_src/data/scripts/dock_solv.prm

>  <Rbt.Receptor>
prm/pocket_docking_7.prm

>  <SCORE>
-12.5784

>  <SCORE.INTER>
-9.98186

>  <SCORE.INTER.CONST>
1

>  <SCORE.INTER.POLAR>
0

>  <SCORE.INTER.ROT>
4

>  <SCORE.INTER.SOLV>
15.3467

>  <SCORE.INTER.VDW>
-18.0368

>  <SCORE.INTER.norm>
-0.24346

>  <SCORE.INTRA>
-2.59653

>  <SCORE.INTRA.DIHEDRAL>
-4.03589

>  <SCORE.INTRA.DIHEDRAL.0>
5.18357

>  <SCORE.INTRA.POLAR>
0

>  <SCORE.INTRA.POLAR.0>
0

>  <SCORE.INTRA.REPUL>
0

>  <SCORE.INTRA.REPUL.0>
0

>  <SCORE.INTRA.SOLV>
-1.26263

>  <SCORE.INTRA.SOLV.lig_0>
-109.973

>  <SCORE.INTRA.VDW>
0.0527349

>  <SCORE.INTRA.VDW.0>
-1.68646

>  <SCORE.INTRA.norm>
-0.0633299

>  <SCORE.RESTR>
0

>  <SCORE.RESTR.CAVITY>
0

>  <SCORE.RESTR.norm>
0

>  <SCORE.SYSTEM>
0

>  <SCORE.SYSTEM.CONST>
0

>  <SCORE.SYSTEM.DIHEDRAL>
0

>  <SCORE.SYSTEM.SOLV>
0

>  <SCORE.SYSTEM.norm>
0

>  <SCORE.heavy>
41

>  <SCORE.norm>
-0.30679

>  <RMSD>
4.873

$$$$
ligand
 OpenBabel11021811423D
libRbt.so/2013.1/901 2013/11/27
 41 45  0  0  0  0  0  0  0  0999 V2000
   37.4019   41.5375    4.8697 C   0  0  2  0  0  0  0  0  0  0  0  0
   37.5331   40.2177    5.4332 O   0  0  0  0  0  0  0  0  0  0  0  0
   38.9428   36.3635    3.9925 C   0  0  2  0  0  0  0  0  0  0  0  0
   39.1205   35.1846    3.1061 N   0  0  0  0  0  0  0  0  0  0  0  0
   41.3541   40.4853    4.2610 C   0  0  1  0  0  0  0  0  0  0  0  0
   44.3911   41.2625    5.2299 C   0  0  1  0  0  0  0  0  0  0  0  0
   37.8168   42.6310    5.8991 C   0  0  2  0  0  0  0  0  0  0  0  0
   39.1579   42.4169    6.4512 N   0  0  0  0  0  0  0  0  0  0  0  0
   37.4174   36.5841    4.2422 C   0  0  0  0  0  0  0  0  0  0  0  0
   41.9549   41.6584    3.4532 C   0  0  2  0  0  0  0  0  0  0  0  0
   43.0365   41.2319    2.6185 O   0  0  0  0  0  0  0  0  0  0  0  0
   44.0216   40.8713    6.7241 C   0  0  2  0  0  0  0  0  0  0  0  0
   44.4024   41.9029    7.7369 N   0  0  0  0  0  0  0  0  0  0  0  0
   36.7762   42.7086    7.0486 C   0  0  1  0  0  0  0  0  0  0  0  0
   37.1451   43.7282    7.9734 O   0  0  0  0  0  0  0  0  0  0  0  0
   37.1683   37.8148    5.1618 C   0  0  2  0  0  0  0  0  0  0  0  0
   35.7119   37.9468    5.3548 N   0  0  0  0  0  0  0  0  0  0  0  0
   42.3880   42.6799    4.5186 C   0  0  2  0  0  0  0  0  0  0  0  0
   43.8295   42.5701    4.8493 O   0  0  0  0  0  0  0  0  0  0  0  0
   44.6938   39.4738    7.0994 C   0  0  1  0  0  0  0  0  0  0  0  0
   44.1083   38.3917    6.3425 O   0  0  0  0  0  0  0  0  0  0  0  0
   35.3721   42.9857    6.4633 C   0  0  2  0  0  0  0  0  0  0  0  0
   34.4228   43.0750    7.5050 O   0  0  0  0  0  0  0  0  0  0  0  0
   37.8112   39.0989    4.5278 C   0  0  2  0  0  0  0  0  0  0  0  0
   41.5101   42.3499    5.7225 C   0  0  2  0  0  0  0  0  0  0  0  0
   41.1413   40.9852    5.5822 O   0  0  0  0  0  0  0  0  0  0  0  0
   46.2560   39.4779    6.8524 C   0  0  2  0  0  0  0  0  0  0  0  0
   46.8800   40.3766    7.7847 O   0  0  0  0  0  0  0  0  0  0  0  0
   34.9822   41.8741    5.4688 C   0  0  2  0  0  0  0  0  0  0  0  0
   36.0183   41.8092    4.4143 O   0  0  0  0  0  0  0  0  0  0  0  0
   39.3900   38.8633    4.3171 C   0  0  2  0  0  0  0  0  0  0  0  0
   40.0682   40.0281    3.6869 O   0  0  0  0  0  0  0  0  0  0  0  0
   40.2318   43.1723    5.7931 C   0  0  0  0  0  0  0  0  0  0  0  0
   46.5618   39.9157    5.3627 C   0  0  1  0  0  0  0  0  0  0  0  0
   45.8820   41.2083    5.0099 O   0  0  0  0  0  0  0  0  0  0  0  0
   33.5875   42.1747    4.8721 C   0  0  0  0  0  0  0  0  0  0  0  0
   33.0675   41.1422    3.9568 N   0  0  0  0  0  0  0  0  0  0  0  0
   39.6085   37.6558    3.3806 C   0  0  1  0  0  0  0  0  0  0  0  0
   41.0117   37.4463    3.1917 O   0  0  0  0  0  0  0  0  0  0  0  0
   48.1034   39.9977    5.0398 C   0  0  0  0  0  0  0  0  0  0  0  0
   48.8777   38.7227    5.1745 N   0  0  0  0  0  0  0  0  0  0  0  0
  1  2  1  1  0  0  0
  1  7  1  0  0  0  0
  1 30  1  0  0  0  0
  3  4  1  6  0  0  0
  3  9  1  0  0  0  0
  3 38  1  0  0  0  0
  5 10  1  0  0  0  0
  5 26  1  1  0  0  0
  5 32  1  0  0  0  0
  6 12  1  0  0  0  0
  6 35  1  0  0  0  0
  6 19  1  1  0  0  0
  7  8  1  1  0  0  0
  7 14  1  0  0  0  0
  8 33  1  0  0  0  0
  9 16  1  0  0  0  0
 10 11  1  1  0  0  0
 10 18  1  0  0  0  0
 12 13  1  1  0  0  0
 12 20  1  0  0  0  0
 14 15  1  1  0  0  0
 14 22  1  0  0  0  0
 16 17  1  6  0  0  0
 16 24  1  0  0  0  0
 18 19  1  1  0  0  0
 18 25  1  0  0  0  0
 20 21  1  6  0  0  0
 20 27  1  0  0  0  0
 22 23  1  1  0  0  0
 22 29  1  0  0  0  0
 24  2  1  1  0  0  0
 24 31  1  0  0  0  0
 25 26  1  6  0  0  0
 25 33  1  0  0  0  0
 27 28  1  1  0  0  0
 27 34  1  0  0  0  0
 29 30  1  0  0  0  0
 29 36  1  6  0  0  0
 31 32  1  6  0  0  0
 31 38  1  0  0  0  0
 34 35  1  0  0  0  0
 34 40  1  1  0  0  0
 36 37  1  0  0  0  0
 38 39  1  1  0  0  0
 40 41  1  0  0  0  0
M  END
>  <CHROM.1>
-52.45888647,-76.93899116,-176.82794699,61.29099676,40.48676118,40.50550127
5.28325954,-3.07359226,0.06305486,-2.71610224

>  <Name>
ligand

>  <RI>
0

>  <Rbt.Current_Directory>
/home/itssahil/PROJECTS/Mol_Feturizer/New_Systems/rnas/1ZZ5

>  <Rbt.Executable>
rbdock ($Id: //depot/dev/client3/rdock/2013.1/src/exe/rbdock.cxx#4 $)

>  <Rbt.Library>
libRbt.so (2013.1, Build901 2013/11/27)

>  <Rbt.Parameter_File>
/export/apps/rDock/src/rDock_2013.1_src/data/scripts/dock_solv.prm

>  <Rbt.Receptor>
prm/pocket_docking_5.prm

>  <SCORE>
-10.6847

>  <SCORE.INTER>
-9.32211

>  <SCORE.INTER.CONST>
1

>  <SCORE.INTER.POLAR>
0

>  <SCORE.INTER.ROT>
4

>  <SCORE.INTER.SOLV>
13.8637

>  <SCORE.INTER.VDW>
-17.1026

>  <SCORE.INTER.norm>
-0.227369

>  <SCORE.INTRA>
-1.36255

>  <SCORE.INTRA.DIHEDRAL>
-3.34287

>  <SCORE.INTRA.DIHEDRAL.0>
5.18357

>  <SCORE.INTRA.POLAR>
0

>  <SCORE.INTRA.POLAR.0>
0

>  <SCORE.INTRA.REPUL>
0

>  <SCORE.INTRA.REPUL.0>
0

>  <SCORE.INTRA.SOLV>
0.53456

>  <SCORE.INTRA.SOLV.lig_0>
-109.973

>  <SCORE.INTRA.VDW>
0.0416058

>  <SCORE.INTRA.VDW.0>
-1.68646

>  <SCORE.INTRA.norm>
-0.0332329

>  <SCORE.RESTR>
0

>  <SCORE.RESTR.CAVITY>
0

>  <SCORE.RESTR.norm>
0

>  <SCORE.SYSTEM>
0

>  <SCORE.SYSTEM.CONST>
0

>  <SCORE.SYSTEM.DIHEDRAL>
0

>  <SCORE.SYSTEM.SOLV>
0

>  <SCORE.SYSTEM.norm>
0

>  <SCORE.heavy>
41

>  <SCORE.norm>
-0.260601

>  <RMSD>
4.882

$$$$
ligand
 OpenBabel11021811423D
libRbt.so/2013.1/901 2013/11/27
 41 45  0  0  0  0  0  0  0  0999 V2000
   35.1225   38.5909    7.9256 C   0  0  2  0  0  0  0  0  0  0  0  0
   34.5767   38.6381    6.5928 O   0  0  0  0  0  0  0  0  0  0  0  0
   33.8025   41.7689    3.6745 C   0  0  2  0  0  0  0  0  0  0  0  0
   33.3382   43.0580    3.1002 N   0  0  0  0  0  0  0  0  0  0  0  0
   37.9785   40.5316    5.6507 C   0  0  1  0  0  0  0  0  0  0  0  0
   42.4581   40.2883    6.4517 C   0  0  1  0  0  0  0  0  0  0  0  0
   36.0566   37.3570    8.1061 C   0  0  2  0  0  0  0  0  0  0  0  0
   37.1140   37.2875    7.0930 N   0  0  0  0  0  0  0  0  0  0  0  0
   32.6062   41.0790    4.4032 C   0  0  0  0  0  0  0  0  0  0  0  0
   39.0752   40.9417    6.6600 C   0  0  2  0  0  0  0  0  0  0  0  0
   39.7726   42.1189    6.2401 O   0  0  0  0  0  0  0  0  0  0  0  0
   43.1100   39.2084    7.4166 C   0  0  2  0  0  0  0  0  0  0  0  0
   42.2061   38.7456    8.5137 N   0  0  0  0  0  0  0  0  0  0  0  0
   35.2237   36.0469    8.0942 C   0  0  1  0  0  0  0  0  0  0  0  0
   36.0786   34.9230    8.2865 O   0  0  0  0  0  0  0  0  0  0  0  0
   33.0360   39.7225    5.0335 C   0  0  2  0  0  0  0  0  0  0  0  0
   31.8530   39.1345    5.6897 N   0  0  0  0  0  0  0  0  0  0  0  0
   39.9891   39.7085    6.7604 C   0  0  2  0  0  0  0  0  0  0  0  0
   41.1814   39.8198    5.8855 O   0  0  0  0  0  0  0  0  0  0  0  0
   44.4614   39.7846    8.0388 C   0  0  1  0  0  0  0  0  0  0  0  0
   45.4771   39.9465    7.0244 O   0  0  0  0  0  0  0  0  0  0  0  0
   34.1435   36.1055    9.1989 C   0  0  2  0  0  0  0  0  0  0  0  0
   33.3929   34.9093    9.2054 O   0  0  0  0  0  0  0  0  0  0  0  0
   34.2290   39.9458    6.0291 C   0  0  2  0  0  0  0  0  0  0  0  0
   39.0903   38.5496    6.3382 C   0  0  2  0  0  0  0  0  0  0  0  0
   38.0765   39.1126    5.5177 O   0  0  0  0  0  0  0  0  0  0  0  0
   44.2405   41.1743    8.7610 C   0  0  2  0  0  0  0  0  0  0  0  0
   43.4270   40.9761    9.9294 O   0  0  0  0  0  0  0  0  0  0  0  0
   33.2225   37.3218    8.9773 C   0  0  2  0  0  0  0  0  0  0  0  0
   34.0599   38.5416    8.9570 O   0  0  0  0  0  0  0  0  0  0  0  0
   35.4644   40.6204    5.2472 C   0  0  2  0  0  0  0  0  0  0  0  0
   36.6271   40.8958    6.1338 O   0  0  0  0  0  0  0  0  0  0  0  0
   38.4089   37.8462    7.5029 C   0  0  0  0  0  0  0  0  0  0  0  0
   43.5508   42.1922    7.7648 C   0  0  1  0  0  0  0  0  0  0  0  0
   42.3067   41.6160    7.1505 O   0  0  0  0  0  0  0  0  0  0  0  0
   32.1620   37.3838   10.1012 C   0  0  0  0  0  0  0  0  0  0  0  0
   31.2111   38.5059    9.9972 N   0  0  0  0  0  0  0  0  0  0  0  0
   35.0196   41.9752    4.6561 C   0  0  1  0  0  0  0  0  0  0  0  0
   36.1175   42.5763    3.9619 O   0  0  0  0  0  0  0  0  0  0  0  0
   43.2443   43.5947    8.4180 C   0  0  0  0  0  0  0  0  0  0  0  0
   42.6932   44.6455    7.5040 N   0  0  0  0  0  0  0  0  0  0  0  0
  1  2  1  6  0  0  0
  1  7  1  0  0  0  0
  1 30  1  0  0  0  0
  3  4  1  1  0  0  0
  3  9  1  0  0  0  0
  3 38  1  0  0  0  0
  5 10  1  0  0  0  0
  5 26  1  1  0  0  0
  5 32  1  0  0  0  0
  6 12  1  0  0  0  0
  6 35  1  0  0  0  0
  6 19  1  1  0  0  0
  7  8  1  6  0  0  0
  7 14  1  0  0  0  0
  8 33  1  0  0  0  0
  9 16  1  0  0  0  0
 10 11  1  6  0  0  0
 10 18  1  0  0  0  0
 12 13  1  1  0  0  0
 12 20  1  0  0  0  0
 14 15  1  1  0  0  0
 14 22  1  0  0  0  0
 16 17  1  1  0  0  0
 16 24  1  0  0  0  0
 18 19  1  6  0  0  0
 18 25  1  0  0  0  0
 20 21  1  6  0  0  0
 20 27  1  0  0  0  0
 22 23  1  6  0  0  0
 22 29  1  0  0  0  0
 24  2  1  6  0  0  0
 24 31  1  0  0  0  0
 25 26  1  6  0  0  0
 25 33  1  0  0  0  0
 27 28  1  1  0  0  0
 27 34  1  0  0  0  0
 29 30  1  0  0  0  0
 29 36  1  1  0  0  0
 31 32  1  1  0  0  0
 31 38  1  0  0  0  0
 34 35  1  0  0  0  0
 34 40  1  1  0  0  0
 36 37  1  0  0  0  0
 38 39  1  6  0  0  0
 40 41  1  0  0  0  0
M  END
>  <CHROM.1>
96.98594335,70.92318432,-179.69431523,175.21070980,37.71271686,39.68388053
7.03089736,-2.95963668,-0.19561305,-0.64960874

>  <Name>
ligand

>  <RI>
0

>  <Rbt.Current_Directory>
/home/itssahil/PROJECTS/Mol_Feturizer/New_Systems/rnas/1ZZ5

>  <Rbt.Executable>
rbdock ($Id: //depot/dev/client3/rdock/2013.1/src/exe/rbdock.cxx#4 $)

>  <Rbt.Library>
libRbt.so (2013.1, Build901 2013/11/27)

>  <Rbt.Parameter_File>
/export/apps/rDock/src/rDock_2013.1_src/data/scripts/dock_solv.prm

>  <Rbt.Receptor>
prm/pocket_docking_2.prm

>  <SCORE>
2.57004

>  <SCORE.INTER>
0.238514

>  <SCORE.INTER.CONST>
1

>  <SCORE.INTER.POLAR>
0

>  <SCORE.INTER.ROT>
4

>  <SCORE.INTER.SOLV>
21.0068

>  <SCORE.INTER.VDW>
-13.1099

>  <SCORE.INTER.norm>
0.00581741

>  <SCORE.INTRA>
0.49268

>  <SCORE.INTRA.DIHEDRAL>
0.523271

>  <SCORE.INTRA.DIHEDRAL.0>
5.18357

>  <SCORE.INTRA.POLAR>
0

>  <SCORE.INTRA.POLAR.0>
0

>  <SCORE.INTRA.REPUL>
0

>  <SCORE.INTRA.REPUL.0>
0

>  <SCORE.INTRA.SOLV>
0.850547

>  <SCORE.INTRA.SOLV.lig_0>
-109.973

>  <SCORE.INTRA.VDW>
-0.194229

>  <SCORE.INTRA.VDW.0>
-1.68646

>  <SCORE.INTRA.norm>
0.0120166

>  <SCORE.RESTR>
1.83885

>  <SCORE.RESTR.CAVITY>
1.83885

>  <SCORE.RESTR.norm>
0.0448499

>  <SCORE.SYSTEM>
0

>  <SCORE.SYSTEM.CONST>
0

>  <SCORE.SYSTEM.DIHEDRAL>
0

>  <SCORE.SYSTEM.SOLV>
0

>  <SCORE.SYSTEM.norm>
0

>  <SCORE.heavy>
41

>  <SCORE.norm>
0.0626839

>  <RMSD>
4.910

$$$$
ligand
 OpenBabel11021811423D
libRbt.so/2013.1/901 2013/11/27
 41 45  0  0  0  0  0  0  0  0999 V2000
   37.3615   41.3471    4.7599 C   0  0  2  0  0  0  0  0  0  0  0  0
   37.5315   40.0830    5.4306 O   0  0  0  0  0  0  0  0  0  0  0  0
   39.1033   36.1806    4.3267 C   0  0  2  0  0  0  0  0  0  0  0  0
   39.3380   34.9415    3.5414 N   0  0  0  0  0  0  0  0  0  0  0  0
   41.3587   40.3981    4.2910 C   0  0  1  0  0  0  0  0  0  0  0  0
   44.3632   43.7946    5.3720 C   0  0  1  0  0  0  0  0  0  0  0  0
   37.7197   42.5350    5.7024 C   0  0  2  0  0  0  0  0  0  0  0  0
   39.0586   42.4166    6.2877 N   0  0  0  0  0  0  0  0  0  0  0  0
   37.5670   36.3633    4.5375 C   0  0  0  0  0  0  0  0  0  0  0  0
   41.9294   41.5239    3.3984 C   0  0  2  0  0  0  0  0  0  0  0  0
   43.0392   41.0723    2.6155 O   0  0  0  0  0  0  0  0  0  0  0  0
   45.8670   43.5187    5.8017 C   0  0  2  0  0  0  0  0  0  0  0  0
   46.0407   42.3219    6.6806 N   0  0  0  0  0  0  0  0  0  0  0  0
   36.6585   42.6660    6.8280 C   0  0  1  0  0  0  0  0  0  0  0  0
   36.9752   43.7701    7.6716 O   0  0  0  0  0  0  0  0  0  0  0  0
   37.2586   37.6540    5.3506 C   0  0  2  0  0  0  0  0  0  0  0  0
   35.7954   37.7465    5.5131 N   0  0  0  0  0  0  0  0  0  0  0  0
   42.3079   42.6436    4.3829 C   0  0  2  0  0  0  0  0  0  0  0  0
   43.7469   42.6150    4.7404 O   0  0  0  0  0  0  0  0  0  0  0  0
   46.4689   44.8086    6.5225 C   0  0  1  0  0  0  0  0  0  0  0  0
   46.6086   45.9082    5.5962 O   0  0  0  0  0  0  0  0  0  0  0  0
   35.2549   42.8422    6.2037 C   0  0  2  0  0  0  0  0  0  0  0  0
   34.2863   42.9796    7.2220 O   0  0  0  0  0  0  0  0  0  0  0  0
   37.8647   38.9060    4.6228 C   0  0  2  0  0  0  0  0  0  0  0  0
   41.4232   42.3792    5.5980 C   0  0  2  0  0  0  0  0  0  0  0  0
   41.1065   40.9948    5.5643 O   0  0  0  0  0  0  0  0  0  0  0  0
   45.5774   45.2819    7.7402 C   0  0  2  0  0  0  0  0  0  0  0  0
   45.6376   44.2940    8.7827 O   0  0  0  0  0  0  0  0  0  0  0  0
   34.9219   41.6400    5.2977 C   0  0  2  0  0  0  0  0  0  0  0  0
   35.9766   41.5291    4.2658 O   0  0  0  0  0  0  0  0  0  0  0  0
   39.4542   38.7134    4.4529 C   0  0  2  0  0  0  0  0  0  0  0  0
   40.0997   39.8482    3.7390 O   0  0  0  0  0  0  0  0  0  0  0  0
   40.1149   43.1561    5.5846 C   0  0  0  0  0  0  0  0  0  0  0  0
   44.0853   45.4983    7.2597 C   0  0  1  0  0  0  0  0  0  0  0  0
   43.5500   44.2929    6.5401 O   0  0  0  0  0  0  0  0  0  0  0  0
   33.5270   41.8389    4.6602 C   0  0  0  0  0  0  0  0  0  0  0  0
   33.3641   43.0918    3.9000 N   0  0  0  0  0  0  0  0  0  0  0  0
   39.7314   37.4433    3.6206 C   0  0  1  0  0  0  0  0  0  0  0  0
   41.1442   37.2720    3.4678 O   0  0  0  0  0  0  0  0  0  0  0  0
   43.1098   45.9236    8.4237 C   0  0  0  0  0  0  0  0  0  0  0  0
   42.9667   44.9540    9.5563 N   0  0  0  0  0  0  0  0  0  0  0  0
  1  2  1  1  0  0  0
  1  7  1  0  0  0  0
  1 30  1  0  0  0  0
  3  4  1  6  0  0  0
  3  9  1  0  0  0  0
  3 38  1  0  0  0  0
  5 10  1  0  0  0  0
  5 26  1  1  0  0  0
  5 32  1  0  0  0  0
  6 12  1  0  0  0  0
  6 35  1  0  0  0  0
  6 19  1  1  0  0  0
  7  8  1  1  0  0  0
  7 14  1  0  0  0  0
  8 33  1  0  0  0  0
  9 16  1  0  0  0  0
 10 11  1  1  0  0  0
 10 18  1  0  0  0  0
 12 13  1  1  0  0  0
 12 20  1  0  0  0  0
 14 15  1  1  0  0  0
 14 22  1  0  0  0  0
 16 17  1  6  0  0  0
 16 24  1  0  0  0  0
 18 19  1  1  0  0  0
 18 25  1  0  0  0  0
 20 21  1  6  0  0  0
 20 27  1  0  0  0  0
 22 23  1  1  0  0  0
 22 29  1  0  0  0  0
 24  2  1  1  0  0  0
 24 31  1  0  0  0  0
 25 26  1  6  0  0  0
 25 33  1  0  0  0  0
 27 28  1  1  0  0  0
 27 34  1  0  0  0  0
 29 30  1  0  0  0  0
 29 36  1  6  0  0  0
 31 32  1  6  0  0  0
 31 38  1  0  0  0  0
 34 35  1  0  0  0  0
 34 40  1  1  0  0  0
 36 37  1  0  0  0  0
 38 39  1  1  0  0  0
 40 41  1  0  0  0  0
M  END
>  <CHROM.1>
163.87325240,174.55372931,55.98263255,-60.66851295,40.24297049,41.65825233
5.51236308,2.61930656,-0.03706869,-2.70577754

>  <Name>
ligand

>  <RI>
0

>  <Rbt.Current_Directory>
/home/itssahil/PROJECTS/Mol_Feturizer/New_Systems/rnas/1ZZ5

>  <Rbt.Executable>
rbdock ($Id: //depot/dev/client3/rdock/2013.1/src/exe/rbdock.cxx#4 $)

>  <Rbt.Library>
libRbt.so (2013.1, Build901 2013/11/27)

>  <Rbt.Parameter_File>
/export/apps/rDock/src/rDock_2013.1_src/data/scripts/dock_solv.prm

>  <Rbt.Receptor>
prm/pocket_docking_7.prm

>  <SCORE>
-10.8643

>  <SCORE.INTER>
-9.80968

>  <SCORE.INTER.CONST>
1

>  <SCORE.INTER.POLAR>
0

>  <SCORE.INTER.ROT>
4

>  <SCORE.INTER.SOLV>
16.9287

>  <SCORE.INTER.VDW>
-18.4493

>  <SCORE.INTER.norm>
-0.23926

>  <SCORE.INTRA>
-1.05463

>  <SCORE.INTRA.DIHEDRAL>
-3.55233

>  <SCORE.INTRA.DIHEDRAL.0>
5.18357

>  <SCORE.INTRA.POLAR>
0

>  <SCORE.INTRA.POLAR.0>
0

>  <SCORE.INTRA.REPUL>
0

>  <SCORE.INTRA.REPUL.0>
0

>  <SCORE.INTRA.SOLV>
1.52423

>  <SCORE.INTRA.SOLV.lig_0>
-109.973

>  <SCORE.INTRA.VDW>
-0.040577

>  <SCORE.INTRA.VDW.0>
-1.68646

>  <SCORE.INTRA.norm>
-0.0257226

>  <SCORE.RESTR>
0

>  <SCORE.RESTR.CAVITY>
0

>  <SCORE.RESTR.norm>
0

>  <SCORE.SYSTEM>
0

>  <SCORE.SYSTEM.CONST>
0

>  <SCORE.SYSTEM.DIHEDRAL>
0

>  <SCORE.SYSTEM.SOLV>
0

>  <SCORE.SYSTEM.norm>
0

>  <SCORE.heavy>
41

>  <SCORE.norm>
-0.264983

>  <RMSD>
4.930

$$$$
ligand
 OpenBabel11021811423D
libRbt.so/2013.1/901 2013/11/27
 41 45  0  0  0  0  0  0  0  0999 V2000
   37.3240   41.3790    4.7417 C   0  0  2  0  0  0  0  0  0  0  0  0
   37.4790   40.1041    5.3952 O   0  0  0  0  0  0  0  0  0  0  0  0
   39.0173   36.2024    4.2427 C   0  0  2  0  0  0  0  0  0  0  0  0
   39.2432   34.9721    3.4411 N   0  0  0  0  0  0  0  0  0  0  0  0
   41.3136   40.3977    4.2750 C   0  0  1  0  0  0  0  0  0  0  0  0
   44.3436   43.7446    5.4265 C   0  0  1  0  0  0  0  0  0  0  0  0
   37.6899   42.5500    5.7021 C   0  0  2  0  0  0  0  0  0  0  0  0
   39.0252   42.4104    6.2909 N   0  0  0  0  0  0  0  0  0  0  0  0
   37.4820   36.3970    4.4501 C   0  0  0  0  0  0  0  0  0  0  0  0
   41.8989   41.5303    3.4006 C   0  0  2  0  0  0  0  0  0  0  0  0
   43.0074   41.0789    2.6157 O   0  0  0  0  0  0  0  0  0  0  0  0
   45.8629   43.4698    5.7986 C   0  0  2  0  0  0  0  0  0  0  0  0
   46.0769   42.2397    6.6208 N   0  0  0  0  0  0  0  0  0  0  0  0
   36.6255   42.6757    6.8253 C   0  0  1  0  0  0  0  0  0  0  0  0
   36.9495   43.7647    7.6856 O   0  0  0  0  0  0  0  0  0  0  0  0
   37.1829   37.6792    5.2800 C   0  0  2  0  0  0  0  0  0  0  0  0
   35.7200   37.7836    5.4381 N   0  0  0  0  0  0  0  0  0  0  0  0
   42.2842   42.6323    4.4022 C   0  0  2  0  0  0  0  0  0  0  0  0
   43.7214   42.5847    4.7649 O   0  0  0  0  0  0  0  0  0  0  0  0
   46.4722   44.7359    6.5544 C   0  0  1  0  0  0  0  0  0  0  0  0
   46.5710   45.8748    5.6713 O   0  0  0  0  0  0  0  0  0  0  0  0
   35.2262   42.8742    6.1981 C   0  0  2  0  0  0  0  0  0  0  0  0
   34.2549   43.0068    7.2145 O   0  0  0  0  0  0  0  0  0  0  0  0
   37.8040   38.9353    4.5723 C   0  0  2  0  0  0  0  0  0  0  0  0
   41.3920   42.3596    5.6100 C   0  0  2  0  0  0  0  0  0  0  0  0
   41.0621   40.9789    5.5556 O   0  0  0  0  0  0  0  0  0  0  0  0
   45.6133   45.1470    7.8173 C   0  0  2  0  0  0  0  0  0  0  0  0
   45.7165   44.1173    8.8150 O   0  0  0  0  0  0  0  0  0  0  0  0
   34.8851   41.6882    5.2741 C   0  0  2  0  0  0  0  0  0  0  0  0
   35.9428   41.5814    4.2448 O   0  0  0  0  0  0  0  0  0  0  0  0
   39.3922   38.7296    4.4058 C   0  0  2  0  0  0  0  0  0  0  0  0
   40.0516   39.8679    3.7105 O   0  0  0  0  0  0  0  0  0  0  0  0
   40.0914   43.1494    5.6024 C   0  0  0  0  0  0  0  0  0  0  0  0
   44.1047   45.3646    7.3916 C   0  0  1  0  0  0  0  0  0  0  0  0
   43.5611   44.1837    6.6386 O   0  0  0  0  0  0  0  0  0  0  0  0
   33.4948   41.9096    4.6340 C   0  0  0  0  0  0  0  0  0  0  0  0
   33.3528   43.1661    3.8755 N   0  0  0  0  0  0  0  0  0  0  0  0
   39.6605   37.4687    3.5569 C   0  0  1  0  0  0  0  0  0  0  0  0
   41.0721   37.2857    3.4072 O   0  0  0  0  0  0  0  0  0  0  0  0
   43.1608   45.7289    8.6014 C   0  0  0  0  0  0  0  0  0  0  0  0
   43.4547   47.0168    9.3073 N   0  0  0  0  0  0  0  0  0  0  0  0
  1  2  1  1  0  0  0
  1  7  1  0  0  0  0
  1 30  1  0  0  0  0
  3  4  1  6  0  0  0
  3  9  1  0  0  0  0
  3 38  1  0  0  0  0
  5 10  1  0  0  0  0
  5 26  1  1  0  0  0
  5 32  1  0  0  0  0
  6 12  1  0  0  0  0
  6 35  1  0  0  0  0
  6 19  1  1  0  0  0
  7  8  1  1  0  0  0
  7 14  1  0  0  0  0
  8 33  1  0  0  0  0
  9 16  1  0  0  0  0
 10 11  1  1  0  0  0
 10 18  1  0  0  0  0
 12 13  1  1  0  0  0
 12 20  1  0  0  0  0
 14 15  1  1  0  0  0
 14 22  1  0  0  0  0
 16 17  1  6  0  0  0
 16 24  1  0  0  0  0
 18 19  1  1  0  0  0
 18 25  1  0  0  0  0
 20 21  1  6  0  0  0
 20 27  1  0  0  0  0
 22 23  1  1  0  0  0
 22 29  1  0  0  0  0
 24  2  1  1  0  0  0
 24 31  1  0  0  0  0
 25 26  1  6  0  0  0
 25 33  1  0  0  0  0
 27 28  1  1  0  0  0
 27 34  1  0  0  0  0
 29 30  1  0  0  0  0
 29 36  1  6  0  0  0
 31 32  1  6  0  0  0
 31 38  1  0  0  0  0
 34 35  1  0  0  0  0
 34 40  1  1  0  0  0
 36 37  1  0  0  0  0
 38 39  1  1  0  0  0
 40 41  1  0  0  0  0
M  END
>  <CHROM.1>
164.43170265,177.05721381,56.76670646,63.22887713,40.22577382,41.69597439
5.50316278,2.60479774,-0.03001847,-2.69864719

>  <Name>
ligand

>  <RI>
0

>  <Rbt.Current_Directory>
/home/itssahil/PROJECTS/Mol_Feturizer/New_Systems/rnas/1ZZ5

>  <Rbt.Executable>
rbdock ($Id: //depot/dev/client3/rdock/2013.1/src/exe/rbdock.cxx#4 $)

>  <Rbt.Library>
libRbt.so (2013.1, Build901 2013/11/27)

>  <Rbt.Parameter_File>
/export/apps/rDock/src/rDock_2013.1_src/data/scripts/dock_solv.prm

>  <Rbt.Receptor>
prm/pocket_docking_6.prm

>  <SCORE>
-11.4398

>  <SCORE.INTER>
-9.77959

>  <SCORE.INTER.CONST>
1

>  <SCORE.INTER.POLAR>
0

>  <SCORE.INTER.ROT>
4

>  <SCORE.INTER.SOLV>
17.2704

>  <SCORE.INTER.VDW>
-18.5432

>  <SCORE.INTER.norm>
-0.238526

>  <SCORE.INTRA>
-1.66023

>  <SCORE.INTRA.DIHEDRAL>
-3.72293

>  <SCORE.INTRA.DIHEDRAL.0>
5.18357

>  <SCORE.INTRA.POLAR>
0

>  <SCORE.INTRA.POLAR.0>
0

>  <SCORE.INTRA.REPUL>
0

>  <SCORE.INTRA.REPUL.0>
0

>  <SCORE.INTRA.SOLV>
0.22098

>  <SCORE.INTRA.SOLV.lig_0>
-109.973

>  <SCORE.INTRA.VDW>
0.0907469

>  <SCORE.INTRA.VDW.0>
-1.68646

>  <SCORE.INTRA.norm>
-0.0404934

>  <SCORE.RESTR>
0

>  <SCORE.RESTR.CAVITY>
0

>  <SCORE.RESTR.norm>
0

>  <SCORE.SYSTEM>
0

>  <SCORE.SYSTEM.CONST>
0

>  <SCORE.SYSTEM.DIHEDRAL>
0

>  <SCORE.SYSTEM.SOLV>
0

>  <SCORE.SYSTEM.norm>
0

>  <SCORE.heavy>
41

>  <SCORE.norm>
-0.27902

>  <RMSD>
4.933

$$$$
ligand
 OpenBabel11021811423D
libRbt.so/2013.1/901 2013/11/27
 41 45  0  0  0  0  0  0  0  0999 V2000
   37.3638   41.5622    4.8776 C   0  0  2  0  0  0  0  0  0  0  0  0
   37.4959   40.2447    5.4461 O   0  0  0  0  0  0  0  0  0  0  0  0
   38.9276   36.3908    4.0266 C   0  0  2  0  0  0  0  0  0  0  0  0
   39.1149   35.2097    3.1450 N   0  0  0  0  0  0  0  0  0  0  0  0
   41.3234   40.5214    4.2974 C   0  0  1  0  0  0  0  0  0  0  0  0
   44.4319   43.6912    5.6698 C   0  0  1  0  0  0  0  0  0  0  0  0
   37.7685   42.6604    5.9062 C   0  0  2  0  0  0  0  0  0  0  0  0
   39.1068   42.4525    6.4675 N   0  0  0  0  0  0  0  0  0  0  0  0
   37.3999   36.6070    4.2659 C   0  0  0  0  0  0  0  0  0  0  0  0
   41.9253   41.6940    3.4897 C   0  0  2  0  0  0  0  0  0  0  0  0
   43.0137   41.2686    2.6632 O   0  0  0  0  0  0  0  0  0  0  0  0
   45.9934   43.4512    5.8312 C   0  0  2  0  0  0  0  0  0  0  0  0
   46.3495   42.1210    6.4130 N   0  0  0  0  0  0  0  0  0  0  0  0
   36.7204   42.7381    7.0488 C   0  0  1  0  0  0  0  0  0  0  0  0
   37.0800   43.7618    7.9727 O   0  0  0  0  0  0  0  0  0  0  0  0
   37.1409   37.8397    5.1799 C   0  0  2  0  0  0  0  0  0  0  0  0
   35.6829   37.9674    5.3633 N   0  0  0  0  0  0  0  0  0  0  0  0
   42.3483   42.7203    4.5546 C   0  0  2  0  0  0  0  0  0  0  0  0
   43.7880   42.6164    4.8948 O   0  0  0  0  0  0  0  0  0  0  0  0
   46.6307   44.6150    6.7174 C   0  0  1  0  0  0  0  0  0  0  0  0
   46.5822   45.8836    6.0282 O   0  0  0  0  0  0  0  0  0  0  0  0
   35.3191   43.0087    6.4538 C   0  0  2  0  0  0  0  0  0  0  0  0
   34.3629   43.0980    7.4891 O   0  0  0  0  0  0  0  0  0  0  0  0
   37.7835   39.1240    4.5460 C   0  0  2  0  0  0  0  0  0  0  0  0
   41.4638   42.3911    5.7539 C   0  0  2  0  0  0  0  0  0  0  0  0
   41.1004   41.0248    5.6156 O   0  0  0  0  0  0  0  0  0  0  0  0
   45.9029   44.7684    8.1132 C   0  0  2  0  0  0  0  0  0  0  0  0
   46.1604   43.6012    8.9117 O   0  0  0  0  0  0  0  0  0  0  0  0
   34.9393   41.8926    5.4603 C   0  0  2  0  0  0  0  0  0  0  0  0
   35.9823   41.8279    4.4126 O   0  0  0  0  0  0  0  0  0  0  0  0
   39.3644   38.8930    4.3461 C   0  0  2  0  0  0  0  0  0  0  0  0
   40.0427   40.0581    3.7165 O   0  0  0  0  0  0  0  0  0  0  0  0
   40.1823   43.2095    5.8138 C   0  0  0  0  0  0  0  0  0  0  0  0
   44.3483   44.9611    7.8887 C   0  0  1  0  0  0  0  0  0  0  0  0
   43.7731   43.8848    7.0124 O   0  0  0  0  0  0  0  0  0  0  0  0
   33.5474   42.1867    4.8537 C   0  0  0  0  0  0  0  0  0  0  0  0
   33.0318   41.1443    3.9472 N   0  0  0  0  0  0  0  0  0  0  0  0
   39.5928   37.6834    3.4148 C   0  0  1  0  0  0  0  0  0  0  0  0
   40.9979   37.4780    3.2355 O   0  0  0  0  0  0  0  0  0  0  0  0
   43.5320   45.0717    9.2336 C   0  0  0  0  0  0  0  0  0  0  0  0
   42.0694   45.3650    9.0992 N   0  0  0  0  0  0  0  0  0  0  0  0
  1  2  1  1  0  0  0
  1  7  1  0  0  0  0
  1 30  1  0  0  0  0
  3  4  1  6  0  0  0
  3  9  1  0  0  0  0
  3 38  1  0  0  0  0
  5 10  1  0  0  0  0
  5 26  1  1  0  0  0
  5 32  1  0  0  0  0
  6 12  1  0  0  0  0
  6 35  1  0  0  0  0
  6 19  1  1  0  0  0
  7  8  1  1  0  0  0
  7 14  1  0  0  0  0
  8 33  1  0  0  0  0
  9 16  1  0  0  0  0
 10 11  1  1  0  0  0
 10 18  1  0  0  0  0
 12 13  1  1  0  0  0
 12 20  1  0  0  0  0
 14 15  1  1  0  0  0
 14 22  1  0  0  0  0
 16 17  1  6  0  0  0
 16 24  1  0  0  0  0
 18 19  1  1  0  0  0
 18 25  1  0  0  0  0
 20 21  1  6  0  0  0
 20 27  1  0  0  0  0
 22 23  1  1  0  0  0
 22 29  1  0  0  0  0
 24  2  1  1  0  0  0
 24 31  1  0  0  0  0
 25 26  1  6  0  0  0
 25 33  1  0  0  0  0
 27 28  1  1  0  0  0
 27 34  1  0  0  0  0
 29 30  1  0  0  0  0
 29 36  1  6  0  0  0
 31 32  1  6  0  0  0
 31 38  1  0  0  0  0
 34 35  1  0  0  0  0
 34 40  1  1  0  0  0
 36 37  1  0  0  0  0
 38 39  1  1  0  0  0
 40 41  1  0  0  0  0
M  END
>  <CHROM.1>
166.95962173,-175.47445590,-176.33881274,175.27321149,40.25376350,41.64508731
5.60499854,2.65703155,-0.04617429,-2.60733593

>  <Name>
ligand

>  <RI>
0

>  <Rbt.Current_Directory>
/home/itssahil/PROJECTS/Mol_Feturizer/New_Systems/rnas/1ZZ5

>  <Rbt.Executable>
rbdock ($Id: //depot/dev/client3/rdock/2013.1/src/exe/rbdock.cxx#4 $)

>  <Rbt.Library>
libRbt.so (2013.1, Build901 2013/11/27)

>  <Rbt.Parameter_File>
/export/apps/rDock/src/rDock_2013.1_src/data/scripts/dock_solv.prm

>  <Rbt.Receptor>
prm/pocket_docking_6.prm

>  <SCORE>
-12.4379

>  <SCORE.INTER>
-9.86503

>  <SCORE.INTER.CONST>
1

>  <SCORE.INTER.POLAR>
0

>  <SCORE.INTER.ROT>
4

>  <SCORE.INTER.SOLV>
14.3349

>  <SCORE.INTER.VDW>
-17.6217

>  <SCORE.INTER.norm>
-0.240611

>  <SCORE.INTRA>
-2.57284

>  <SCORE.INTRA.DIHEDRAL>
-3.91852

>  <SCORE.INTRA.DIHEDRAL.0>
5.18357

>  <SCORE.INTRA.POLAR>
0

>  <SCORE.INTRA.POLAR.0>
0

>  <SCORE.INTRA.REPUL>
0

>  <SCORE.INTRA.REPUL.0>
0

>  <SCORE.INTRA.SOLV>
-1.31927

>  <SCORE.INTRA.SOLV.lig_0>
-109.973

>  <SCORE.INTRA.VDW>
0.0460524

>  <SCORE.INTRA.VDW.0>
-1.68646

>  <SCORE.INTRA.norm>
-0.0627523

>  <SCORE.RESTR>
0

>  <SCORE.RESTR.CAVITY>
0

>  <SCORE.RESTR.norm>
0

>  <SCORE.SYSTEM>
0

>  <SCORE.SYSTEM.CONST>
0

>  <SCORE.SYSTEM.DIHEDRAL>
0

>  <SCORE.SYSTEM.SOLV>
0

>  <SCORE.SYSTEM.norm>
0

>  <SCORE.heavy>
41

>  <SCORE.norm>
-0.303363

>  <RMSD>
4.948

$$$$
ligand
 OpenBabel11021811423D
libRbt.so/2013.1/901 2013/11/27
 41 45  0  0  0  0  0  0  0  0999 V2000
   35.1329   38.5865    7.8701 C   0  0  2  0  0  0  0  0  0  0  0  0
   34.5472   38.6468    6.5549 O   0  0  0  0  0  0  0  0  0  0  0  0
   33.7229   41.8011    3.6758 C   0  0  2  0  0  0  0  0  0  0  0  0
   33.2572   43.0986    3.1219 N   0  0  0  0  0  0  0  0  0  0  0  0
   37.9417   40.5034    5.5177 C   0  0  1  0  0  0  0  0  0  0  0  0
   42.4645   40.0958    6.1994 C   0  0  1  0  0  0  0  0  0  0  0  0
   36.0568   37.3404    8.0163 C   0  0  2  0  0  0  0  0  0  0  0  0
   37.0818   37.2630    6.9710 N   0  0  0  0  0  0  0  0  0  0  0  0
   32.5410   41.1222    4.4376 C   0  0  0  0  0  0  0  0  0  0  0  0
   39.0737   40.8951    6.4949 C   0  0  2  0  0  0  0  0  0  0  0  0
   39.7724   42.0658    6.0592 O   0  0  0  0  0  0  0  0  0  0  0  0
   42.9932   38.9901    7.2095 C   0  0  2  0  0  0  0  0  0  0  0  0
   42.0462   38.6785    8.3235 N   0  0  0  0  0  0  0  0  0  0  0  0
   35.2078   36.0406    8.0239 C   0  0  1  0  0  0  0  0  0  0  0  0
   36.0542   34.9054    8.1849 O   0  0  0  0  0  0  0  0  0  0  0  0
   32.9731   39.7575    5.0483 C   0  0  2  0  0  0  0  0  0  0  0  0
   31.8035   39.1808    5.7378 N   0  0  0  0  0  0  0  0  0  0  0  0
   39.9750   39.6504    6.5617 C   0  0  2  0  0  0  0  0  0  0  0  0
   41.1413   39.7515    5.6512 O   0  0  0  0  0  0  0  0  0  0  0  0
   44.4030   39.4352    7.8093 C   0  0  1  0  0  0  0  0  0  0  0  0
   45.4273   39.4389    6.7907 O   0  0  0  0  0  0  0  0  0  0  0  0
   34.1626   36.1069    9.1614 C   0  0  2  0  0  0  0  0  0  0  0  0
   33.3979   34.9199    9.1855 O   0  0  0  0  0  0  0  0  0  0  0  0
   34.1986   39.9614    6.0080 C   0  0  2  0  0  0  0  0  0  0  0  0
   39.0495   38.5047    6.1619 C   0  0  2  0  0  0  0  0  0  0  0  0
   38.0181   39.0840    5.3753 O   0  0  0  0  0  0  0  0  0  0  0  0
   44.3429   40.8698    8.4726 C   0  0  2  0  0  0  0  0  0  0  0  0
   43.5158   40.8136    9.6470 O   0  0  0  0  0  0  0  0  0  0  0  0
   33.2503   37.3354    8.9736 C   0  0  2  0  0  0  0  0  0  0  0  0
   34.1017   38.5450    8.9333 O   0  0  0  0  0  0  0  0  0  0  0  0
   35.4177   40.6247    5.1917 C   0  0  2  0  0  0  0  0  0  0  0  0
   36.6103   40.8816    6.0435 O   0  0  0  0  0  0  0  0  0  0  0  0
   38.3954   37.8039    7.3436 C   0  0  0  0  0  0  0  0  0  0  0  0
   43.7695   41.9169    7.4338 C   0  0  1  0  0  0  0  0  0  0  0  0
   42.4663   41.4600    6.8420 O   0  0  0  0  0  0  0  0  0  0  0  0
   32.2255   37.4048   10.1297 C   0  0  0  0  0  0  0  0  0  0  0  0
   31.3135   36.2498   10.2219 N   0  0  0  0  0  0  0  0  0  0  0  0
   34.9718   41.9878    4.6207 C   0  0  1  0  0  0  0  0  0  0  0  0
   36.0554   42.5789    3.8959 O   0  0  0  0  0  0  0  0  0  0  0  0
   43.6256   43.3709    8.0276 C   0  0  0  0  0  0  0  0  0  0  0  0
   44.8922   44.0321    8.4767 N   0  0  0  0  0  0  0  0  0  0  0  0
  1  2  1  6  0  0  0
  1  7  1  0  0  0  0
  1 30  1  0  0  0  0
  3  4  1  1  0  0  0
  3  9  1  0  0  0  0
  3 38  1  0  0  0  0
  5 10  1  0  0  0  0
  5 26  1  1  0  0  0
  5 32  1  0  0  0  0
  6 12  1  0  0  0  0
  6 35  1  0  0  0  0
  6 19  1  1  0  0  0
  7  8  1  6  0  0  0
  7 14  1  0  0  0  0
  8 33  1  0  0  0  0
  9 16  1  0  0  0  0
 10 11  1  6  0  0  0
 10 18  1  0  0  0  0
 12 13  1  1  0  0  0
 12 20  1  0  0  0  0
 14 15  1  1  0  0  0
 14 22  1  0  0  0  0
 16 17  1  1  0  0  0
 16 24  1  0  0  0  0
 18 19  1  6  0  0  0
 18 25  1  0  0  0  0
 20 21  1  6  0  0  0
 20 27  1  0  0  0  0
 22 23  1  6  0  0  0
 22 29  1  0  0  0  0
 24  2  1  6  0  0  0
 24 31  1  0  0  0  0
 25 26  1  6  0  0  0
 25 33  1  0  0  0  0
 27 28  1  1  0  0  0
 27 34  1  0  0  0  0
 29 30  1  0  0  0  0
 29 36  1  1  0  0  0
 31 32  1  1  0  0  0
 31 38  1  0  0  0  0
 34 35  1  0  0  0  0
 34 40  1  1  0  0  0
 36 37  1  0  0  0  0
 38 39  1  6  0  0  0
 40 41  1  0  0  0  0
M  END
>  <CHROM.1>
101.92083563,63.47176420,-61.47500070,62.00447266,37.76604582,39.55026860
6.94223383,-2.95541715,-0.18289839,-0.66355713

>  <Name>
ligand

>  <RI>
0

>  <Rbt.Current_Directory>
/home/itssahil/PROJECTS/Mol_Feturizer/New_Systems/rnas/1ZZ5

>  <Rbt.Executable>
rbdock ($Id: //depot/dev/client3/rdock/2013.1/src/exe/rbdock.cxx#4 $)

>  <Rbt.Library>
libRbt.so (2013.1, Build901 2013/11/27)

>  <Rbt.Parameter_File>
/export/apps/rDock/src/rDock_2013.1_src/data/scripts/dock_solv.prm

>  <Rbt.Receptor>
prm/pocket_docking_2.prm

>  <SCORE>
4.23146

>  <SCORE.INTER>
0.0848834

>  <SCORE.INTER.CONST>
1

>  <SCORE.INTER.POLAR>
0

>  <SCORE.INTER.ROT>
4

>  <SCORE.INTER.SOLV>
18.7707

>  <SCORE.INTER.VDW>
-12.467

>  <SCORE.INTER.norm>
0.00207033

>  <SCORE.INTRA>
1.75378

>  <SCORE.INTRA.DIHEDRAL>
0.756146

>  <SCORE.INTRA.DIHEDRAL.0>
5.18357

>  <SCORE.INTRA.POLAR>
0

>  <SCORE.INTRA.POLAR.0>
0

>  <SCORE.INTRA.REPUL>
0

>  <SCORE.INTRA.REPUL.0>
0

>  <SCORE.INTRA.SOLV>
2.56531

>  <SCORE.INTRA.SOLV.lig_0>
-109.973

>  <SCORE.INTRA.VDW>
0.0930514

>  <SCORE.INTRA.VDW.0>
-1.68646

>  <SCORE.INTRA.norm>
0.0427751

>  <SCORE.RESTR>
2.3928

>  <SCORE.RESTR.CAVITY>
2.3928

>  <SCORE.RESTR.norm>
0.058361

>  <SCORE.SYSTEM>
0

>  <SCORE.SYSTEM.CONST>
0

>  <SCORE.SYSTEM.DIHEDRAL>
0

>  <SCORE.SYSTEM.SOLV>
0

>  <SCORE.SYSTEM.norm>
0

>  <SCORE.heavy>
41

>  <SCORE.norm>
0.103206

>  <RMSD>
4.949

$$$$
ligand
 OpenBabel11021811423D
libRbt.so/2013.1/901 2013/11/27
 41 45  0  0  0  0  0  0  0  0999 V2000
   37.3389   41.4792    4.8127 C   0  0  2  0  0  0  0  0  0  0  0  0
   37.4810   40.1669    5.3907 O   0  0  0  0  0  0  0  0  0  0  0  0
   38.9345   36.3119    3.9964 C   0  0  2  0  0  0  0  0  0  0  0  0
   39.1273   35.1255    3.1232 N   0  0  0  0  0  0  0  0  0  0  0  0
   41.3037   40.4600    4.2305 C   0  0  1  0  0  0  0  0  0  0  0  0
   44.3505   43.5555    5.7316 C   0  0  1  0  0  0  0  0  0  0  0  0
   37.7388   42.5877    5.8321 C   0  0  2  0  0  0  0  0  0  0  0  0
   39.0798   42.3928    6.3916 N   0  0  0  0  0  0  0  0  0  0  0  0
   37.4059   36.5199    4.2378 C   0  0  0  0  0  0  0  0  0  0  0  0
   41.8961   41.6305    3.4127 C   0  0  2  0  0  0  0  0  0  0  0  0
   42.9852   41.2060    2.5867 O   0  0  0  0  0  0  0  0  0  0  0  0
   45.9274   43.3949    5.8317 C   0  0  2  0  0  0  0  0  0  0  0  0
   46.3787   42.0160    6.1921 N   0  0  0  0  0  0  0  0  0  0  0  0
   36.6929   42.6671    6.9767 C   0  0  1  0  0  0  0  0  0  0  0  0
   37.0481   43.7000    7.8920 O   0  0  0  0  0  0  0  0  0  0  0  0
   37.1411   37.7577    5.1433 C   0  0  2  0  0  0  0  0  0  0  0  0
   35.6826   37.8773    5.3293 N   0  0  0  0  0  0  0  0  0  0  0  0
   42.3148   42.6674    4.4689 C   0  0  2  0  0  0  0  0  0  0  0  0
   43.7560   42.5754    4.8063 O   0  0  0  0  0  0  0  0  0  0  0  0
   46.5125   44.4449    6.8810 C   0  0  1  0  0  0  0  0  0  0  0  0
   46.3692   45.7997    6.4006 O   0  0  0  0  0  0  0  0  0  0  0  0
   35.2885   42.9240    6.3831 C   0  0  2  0  0  0  0  0  0  0  0  0
   34.3343   43.0149    7.4200 O   0  0  0  0  0  0  0  0  0  0  0  0
   37.7737   39.0414    4.4983 C   0  0  2  0  0  0  0  0  0  0  0  0
   41.4354   42.3414    5.6728 C   0  0  2  0  0  0  0  0  0  0  0  0
   41.0807   40.9717    5.5455 O   0  0  0  0  0  0  0  0  0  0  0  0
   45.8100   44.3311    8.2935 C   0  0  2  0  0  0  0  0  0  0  0  0
   46.1581   43.0727    8.8948 O   0  0  0  0  0  0  0  0  0  0  0  0
   34.9137   41.7981    5.3989 C   0  0  2  0  0  0  0  0  0  0  0  0
   35.9545   41.7324    4.3491 O   0  0  0  0  0  0  0  0  0  0  0  0
   39.3556   38.8193    4.2962 C   0  0  2  0  0  0  0  0  0  0  0  0
   40.0247   39.9840    3.6563 O   0  0  0  0  0  0  0  0  0  0  0  0
   40.1488   43.1518    5.7297 C   0  0  0  0  0  0  0  0  0  0  0  0
   44.2416   44.4554    8.1236 C   0  0  1  0  0  0  0  0  0  0  0  0
   43.7132   43.4941    7.0970 O   0  0  0  0  0  0  0  0  0  0  0  0
   33.5184   42.0785    4.7936 C   0  0  0  0  0  0  0  0  0  0  0  0
   33.3954   43.3662    4.0857 N   0  0  0  0  0  0  0  0  0  0  0  0
   39.5897   37.6042    3.3734 C   0  0  1  0  0  0  0  0  0  0  0  0
   40.9957   37.4067    3.1921 O   0  0  0  0  0  0  0  0  0  0  0  0
   43.4523   44.3017    9.4803 C   0  0  0  0  0  0  0  0  0  0  0  0
   41.9702   44.5066    9.4120 N   0  0  0  0  0  0  0  0  0  0  0  0
  1  2  1  1  0  0  0
  1  7  1  0  0  0  0
  1 30  1  0  0  0  0
  3  4  1  6  0  0  0
  3  9  1  0  0  0  0
  3 38  1  0  0  0  0
  5 10  1  0  0  0  0
  5 26  1  1  0  0  0
  5 32  1  0  0  0  0
  6 12  1  0  0  0  0
  6 35  1  0  0  0  0
  6 19  1  6  0  0  0
  7  8  1  1  0  0  0
  7 14  1  0  0  0  0
  8 33  1  0  0  0  0
  9 16  1  0  0  0  0
 10 11  1  1  0  0  0
 10 18  1  0  0  0  0
 12 13  1  1  0  0  0
 12 20  1  0  0  0  0
 14 15  1  1  0  0  0
 14 22  1  0  0  0  0
 16 17  1  6  0  0  0
 16 24  1  0  0  0  0
 18 19  1  1  0  0  0
 18 25  1  0  0  0  0
 20 21  1  6  0  0  0
 20 27  1  0  0  0  0
 22 23  1  1  0  0  0
 22 29  1  0  0  0  0
 24  2  1  1  0  0  0
 24 31  1  0  0  0  0
 25 26  1  6  0  0  0
 25 33  1  0  0  0  0
 27 28  1  6  0  0  0
 27 34  1  0  0  0  0
 29 30  1  0  0  0  0
 29 36  1  6  0  0  0
 31 32  1  6  0  0  0
 31 38  1  0  0  0  0
 34 35  1  0  0  0  0
 34 40  1  1  0  0  0
 36 37  1  0  0  0  0
 38 39  1  1  0  0  0
 40 41  1  0  0  0  0
M  END
>  <CHROM.1>
175.74573394,-173.29561991,57.96413160,175.72931312,40.22760042,41.54780209
5.59964558,2.69059924,-0.01060653,-2.60948019

>  <Name>
ligand

>  <RI>
0

>  <Rbt.Current_Directory>
/home/itssahil/PROJECTS/Mol_Feturizer/New_Systems/rnas/1ZZ5

>  <Rbt.Executable>
rbdock ($Id: //depot/dev/client3/rdock/2013.1/src/exe/rbdock.cxx#4 $)

>  <Rbt.Library>
libRbt.so (2013.1, Build901 2013/11/27)

>  <Rbt.Parameter_File>
/export/apps/rDock/src/rDock_2013.1_src/data/scripts/dock_solv.prm

>  <Rbt.Receptor>
prm/pocket_docking_5.prm

>  <SCORE>
-11.3218

>  <SCORE.INTER>
-9.28506

>  <SCORE.INTER.CONST>
1

>  <SCORE.INTER.POLAR>
0

>  <SCORE.INTER.ROT>
4

>  <SCORE.INTER.SOLV>
16.935

>  <SCORE.INTER.VDW>
-18.1017

>  <SCORE.INTER.norm>
-0.226465

>  <SCORE.INTRA>
-2.03675

>  <SCORE.INTRA.DIHEDRAL>
-4.55949

>  <SCORE.INTRA.DIHEDRAL.0>
5.18357

>  <SCORE.INTRA.POLAR>
0

>  <SCORE.INTRA.POLAR.0>
0

>  <SCORE.INTRA.REPUL>
0

>  <SCORE.INTRA.REPUL.0>
0

>  <SCORE.INTRA.SOLV>
0.266152

>  <SCORE.INTRA.SOLV.lig_0>
-109.973

>  <SCORE.INTRA.VDW>
0.109917

>  <SCORE.INTRA.VDW.0>
-1.68646

>  <SCORE.INTRA.norm>
-0.0496769

>  <SCORE.RESTR>
0

>  <SCORE.RESTR.CAVITY>
0

>  <SCORE.RESTR.norm>
0

>  <SCORE.SYSTEM>
0

>  <SCORE.SYSTEM.CONST>
0

>  <SCORE.SYSTEM.DIHEDRAL>
0

>  <SCORE.SYSTEM.SOLV>
0

>  <SCORE.SYSTEM.norm>
0

>  <SCORE.heavy>
41

>  <SCORE.norm>
-0.276142

>  <RMSD>
4.949

$$$$
ligand
 OpenBabel11021811423D
libRbt.so/2013.1/901 2013/11/27
 41 45  0  0  0  0  0  0  0  0999 V2000
   37.4025   41.5258    4.8665 C   0  0  2  0  0  0  0  0  0  0  0  0
   37.5376   40.1998    5.4143 O   0  0  0  0  0  0  0  0  0  0  0  0
   38.9557   36.3665    3.9270 C   0  0  2  0  0  0  0  0  0  0  0  0
   39.1356   35.1985    3.0266 N   0  0  0  0  0  0  0  0  0  0  0  0
   41.3568   40.4908    4.2420 C   0  0  1  0  0  0  0  0  0  0  0  0
   44.3482   41.3252    5.4335 C   0  0  1  0  0  0  0  0  0  0  0  0
   37.8156   42.6082    5.9083 C   0  0  2  0  0  0  0  0  0  0  0  0
   39.1577   42.3910    6.4567 N   0  0  0  0  0  0  0  0  0  0  0  0
   37.4299   36.5802    4.1806 C   0  0  0  0  0  0  0  0  0  0  0  0
   41.9539   41.6749    3.4475 C   0  0  2  0  0  0  0  0  0  0  0  0
   43.0359   41.2611    2.6069 O   0  0  0  0  0  0  0  0  0  0  0  0
   45.7782   41.5294    6.0935 C   0  0  2  0  0  0  0  0  0  0  0  0
   46.7951   42.1256    5.1740 N   0  0  0  0  0  0  0  0  0  0  0  0
   36.7758   42.6696    7.0596 C   0  0  1  0  0  0  0  0  0  0  0  0
   37.1430   43.6792    7.9960 O   0  0  0  0  0  0  0  0  0  0  0  0
   37.1786   37.7993    5.1148 C   0  0  2  0  0  0  0  0  0  0  0  0
   35.7221   37.9254    5.3107 N   0  0  0  0  0  0  0  0  0  0  0  0
   42.3854   42.6849    4.5246 C   0  0  2  0  0  0  0  0  0  0  0  0
   43.8275   42.5749    4.8527 O   0  0  0  0  0  0  0  0  0  0  0  0
   46.3152   40.1386    6.6618 C   0  0  1  0  0  0  0  0  0  0  0  0
   45.5197   39.6883    7.7803 O   0  0  0  0  0  0  0  0  0  0  0  0
   35.3705   42.9500    6.4788 C   0  0  2  0  0  0  0  0  0  0  0  0
   34.4219   43.0246    7.5223 O   0  0  0  0  0  0  0  0  0  0  0  0
   37.8177   39.0925    4.4955 C   0  0  2  0  0  0  0  0  0  0  0  0
   41.5094   42.3385    5.7252 C   0  0  2  0  0  0  0  0  0  0  0  0
   41.1439   40.9746    5.5692 O   0  0  0  0  0  0  0  0  0  0  0  0
   46.3237   39.0064    5.5575 C   0  0  2  0  0  0  0  0  0  0  0  0
   47.3061   39.3274    4.5584 O   0  0  0  0  0  0  0  0  0  0  0  0
   34.9825   41.8492    5.4716 C   0  0  2  0  0  0  0  0  0  0  0  0
   36.0178   41.7994    4.4155 O   0  0  0  0  0  0  0  0  0  0  0  0
   39.3969   38.8633    4.2807 C   0  0  2  0  0  0  0  0  0  0  0  0
   40.0716   40.0372    3.6636 O   0  0  0  0  0  0  0  0  0  0  0  0
   40.2291   43.1568    5.8066 C   0  0  0  0  0  0  0  0  0  0  0  0
   44.8860   38.8801    4.9084 C   0  0  1  0  0  0  0  0  0  0  0  0
   44.3742   40.2065    4.4225 O   0  0  0  0  0  0  0  0  0  0  0  0
   33.5865   42.1533    4.8796 C   0  0  0  0  0  0  0  0  0  0  0  0
   33.0630   41.1244    3.9623 N   0  0  0  0  0  0  0  0  0  0  0  0
   39.6175   37.6675    3.3298 C   0  0  1  0  0  0  0  0  0  0  0  0
   41.0211   37.4638    3.1372 O   0  0  0  0  0  0  0  0  0  0  0  0
   44.8131   37.8057    3.7562 C   0  0  0  0  0  0  0  0  0  0  0  0
   45.1008   36.3898    4.1509 N   0  0  0  0  0  0  0  0  0  0  0  0
  1  2  1  1  0  0  0
  1  7  1  0  0  0  0
  1 30  1  0  0  0  0
  3  4  1  6  0  0  0
  3  9  1  0  0  0  0
  3 38  1  0  0  0  0
  5 10  1  0  0  0  0
  5 26  1  1  0  0  0
  5 32  1  0  0  0  0
  6 12  1  0  0  0  0
  6 35  1  0  0  0  0
  6 19  1  6  0  0  0
  7  8  1  1  0  0  0
  7 14  1  0  0  0  0
  8 33  1  0  0  0  0
  9 16  1  0  0  0  0
 10 11  1  1  0  0  0
 10 18  1  0  0  0  0
 12 13  1  6  0  0  0
 12 20  1  0  0  0  0
 14 15  1  1  0  0  0
 14 22  1  0  0  0  0
 16 17  1  6  0  0  0
 16 24  1  0  0  0  0
 18 19  1  1  0  0  0
 18 25  1  0  0  0  0
 20 21  1  1  0  0  0
 20 27  1  0  0  0  0
 22 23  1  1  0  0  0
 22 29  1  0  0  0  0
 24  2  1  1  0  0  0
 24 31  1  0  0  0  0
 25 26  1  6  0  0  0
 25 33  1  0  0  0  0
 27 28  1  6  0  0  0
 27 34  1  0  0  0  0
 29 30  1  0  0  0  0
 29 36  1  6  0  0  0
 31 32  1  6  0  0  0
 31 38  1  0  0  0  0
 34 35  1  0  0  0  0
 34 40  1  6  0  0  0
 36 37  1  0  0  0  0
 38 39  1  1  0  0  0
 40 41  1  0  0  0  0
M  END
>  <CHROM.1>
-62.71069999,-163.54948029,-176.29544880,62.32272217,40.42359143,40.37070036
5.03058622,-2.99102830,0.00848472,-2.74505828

>  <Name>
ligand

>  <RI>
0

>  <Rbt.Current_Directory>
/home/itssahil/PROJECTS/Mol_Feturizer/New_Systems/rnas/1ZZ5

>  <Rbt.Executable>
rbdock ($Id: //depot/dev/client3/rdock/2013.1/src/exe/rbdock.cxx#4 $)

>  <Rbt.Library>
libRbt.so (2013.1, Build901 2013/11/27)

>  <Rbt.Parameter_File>
/export/apps/rDock/src/rDock_2013.1_src/data/scripts/dock_solv.prm

>  <Rbt.Receptor>
prm/pocket_docking_5.prm

>  <SCORE>
-11.326

>  <SCORE.INTER>
-9.6509

>  <SCORE.INTER.CONST>
1

>  <SCORE.INTER.POLAR>
0

>  <SCORE.INTER.ROT>
4

>  <SCORE.INTER.SOLV>
14.5713

>  <SCORE.INTER.VDW>
-17.5577

>  <SCORE.INTER.norm>
-0.235388

>  <SCORE.INTRA>
-1.67509

>  <SCORE.INTRA.DIHEDRAL>
-3.62536

>  <SCORE.INTRA.DIHEDRAL.0>
5.18357

>  <SCORE.INTRA.POLAR>
0

>  <SCORE.INTRA.POLAR.0>
0

>  <SCORE.INTRA.REPUL>
0

>  <SCORE.INTRA.REPUL.0>
0

>  <SCORE.INTRA.SOLV>
-0.143808

>  <SCORE.INTRA.SOLV.lig_0>
-109.973

>  <SCORE.INTRA.VDW>
0.209488

>  <SCORE.INTRA.VDW.0>
-1.68646

>  <SCORE.INTRA.norm>
-0.0408559

>  <SCORE.RESTR>
0

>  <SCORE.RESTR.CAVITY>
0

>  <SCORE.RESTR.norm>
0

>  <SCORE.SYSTEM>
0

>  <SCORE.SYSTEM.CONST>
0

>  <SCORE.SYSTEM.DIHEDRAL>
0

>  <SCORE.SYSTEM.SOLV>
0

>  <SCORE.SYSTEM.norm>
0

>  <SCORE.heavy>
41

>  <SCORE.norm>
-0.276244

>  <RMSD>
5.013

$$$$
ligand
 OpenBabel11021811423D
libRbt.so/2013.1/901 2013/11/27
 41 45  0  0  0  0  0  0  0  0999 V2000
   37.3858   41.4965    4.8721 C   0  0  2  0  0  0  0  0  0  0  0  0
   37.5325   40.1780    5.4348 O   0  0  0  0  0  0  0  0  0  0  0  0
   38.9731   36.3379    3.9870 C   0  0  2  0  0  0  0  0  0  0  0  0
   39.1582   35.1609    3.0995 N   0  0  0  0  0  0  0  0  0  0  0  0
   41.3452   40.4830    4.2449 C   0  0  1  0  0  0  0  0  0  0  0  0
   44.4320   43.6312    5.6553 C   0  0  1  0  0  0  0  0  0  0  0  0
   37.7947   42.5939    5.8997 C   0  0  2  0  0  0  0  0  0  0  0  0
   39.1404   42.3929    6.4456 N   0  0  0  0  0  0  0  0  0  0  0  0
   37.4468   36.5436    4.2438 C   0  0  0  0  0  0  0  0  0  0  0  0
   41.9307   41.6621    3.4345 C   0  0  2  0  0  0  0  0  0  0  0  0
   43.0126   41.2463    2.5947 O   0  0  0  0  0  0  0  0  0  0  0  0
   45.9901   43.3828    5.8361 C   0  0  2  0  0  0  0  0  0  0  0  0
   46.3346   42.0281    6.3662 N   0  0  0  0  0  0  0  0  0  0  0  0
   36.7587   42.6612    7.0541 C   0  0  1  0  0  0  0  0  0  0  0  0
   37.1220   43.6843    7.9773 O   0  0  0  0  0  0  0  0  0  0  0  0
   37.1900   37.7716    5.1647 C   0  0  2  0  0  0  0  0  0  0  0  0
   35.7333   37.8894    5.3645 N   0  0  0  0  0  0  0  0  0  0  0  0
   42.3588   42.6876    4.4981 C   0  0  2  0  0  0  0  0  0  0  0  0
   43.8029   42.5919    4.8221 O   0  0  0  0  0  0  0  0  0  0  0  0
   46.6105   44.5062    6.7841 C   0  0  1  0  0  0  0  0  0  0  0  0
   46.5756   45.8037    6.1499 O   0  0  0  0  0  0  0  0  0  0  0  0
   35.3493   42.9246    6.4754 C   0  0  2  0  0  0  0  0  0  0  0  0
   34.4040   43.0045    7.5214 O   0  0  0  0  0  0  0  0  0  0  0  0
   37.8174   39.0621    4.5279 C   0  0  2  0  0  0  0  0  0  0  0  0
   41.4897   42.3489    5.7060 C   0  0  2  0  0  0  0  0  0  0  0  0
   41.1336   40.9807    5.5672 O   0  0  0  0  0  0  0  0  0  0  0  0
   45.8561   44.5996    8.1710 C   0  0  2  0  0  0  0  0  0  0  0  0
   46.0979   43.3984    8.9228 O   0  0  0  0  0  0  0  0  0  0  0  0
   34.9658   41.8094    5.4825 C   0  0  2  0  0  0  0  0  0  0  0  0
   35.9975   41.7547    4.4232 O   0  0  0  0  0  0  0  0  0  0  0  0
   39.3974   38.8419    4.3099 C   0  0  2  0  0  0  0  0  0  0  0  0
   40.0612   40.0133    3.6767 O   0  0  0  0  0  0  0  0  0  0  0  0
   40.2038   43.1588    5.7826 C   0  0  0  0  0  0  0  0  0  0  0  0
   44.3061   44.8035    7.9253 C   0  0  1  0  0  0  0  0  0  0  0  0
   43.7476   43.7670    6.9921 O   0  0  0  0  0  0  0  0  0  0  0  0
   33.5654   42.0964    4.8922 C   0  0  0  0  0  0  0  0  0  0  0  0
   33.4417   43.3833    4.1832 N   0  0  0  0  0  0  0  0  0  0  0  0
   39.6233   37.6367    3.3722 C   0  0  1  0  0  0  0  0  0  0  0  0
   41.0276   37.4410    3.1767 O   0  0  0  0  0  0  0  0  0  0  0  0
   43.4642   44.8565    9.2578 C   0  0  0  0  0  0  0  0  0  0  0  0
   43.7739   45.9844   10.1934 N   0  0  0  0  0  0  0  0  0  0  0  0
  1  2  1  1  0  0  0
  1  7  1  0  0  0  0
  1 30  1  0  0  0  0
  3  4  1  6  0  0  0
  3  9  1  0  0  0  0
  3 38  1  0  0  0  0
  5 10  1  0  0  0  0
  5 26  1  1  0  0  0
  5 32  1  0  0  0  0
  6 12  1  0  0  0  0
  6 35  1  0  0  0  0
  6 19  1  1  0  0  0
  7  8  1  1  0  0  0
  7 14  1  0  0  0  0
  8 33  1  0  0  0  0
  9 16  1  0  0  0  0
 10 11  1  1  0  0  0
 10 18  1  0  0  0  0
 12 13  1  1  0  0  0
 12 20  1  0  0  0  0
 14 15  1  1  0  0  0
 14 22  1  0  0  0  0
 16 17  1  6  0  0  0
 16 24  1  0  0  0  0
 18 19  1  1  0  0  0
 18 25  1  0  0  0  0
 20 21  1  6  0  0  0
 20 27  1  0  0  0  0
 22 23  1  1  0  0  0
 22 29  1  0  0  0  0
 24  2  1  1  0  0  0
 24 31  1  0  0  0  0
 25 26  1  6  0  0  0
 25 33  1  0  0  0  0
 27 28  1  6  0  0  0
 27 34  1  0  0  0  0
 29 30  1  0  0  0  0
 29 36  1  6  0  0  0
 31 32  1  6  0  0  0
 31 38  1  0  0  0  0
 34 35  1  0  0  0  0
 34 40  1  1  0  0  0
 36 37  1  0  0  0  0
 38 39  1  1  0  0  0
 40 41  1  0  0  0  0
M  END
>  <CHROM.1>
170.26623288,-177.57546359,58.76370737,62.69127903,40.31820864,41.64215848
5.62685261,2.65298369,-0.02825370,-2.60288010

>  <Name>
ligand

>  <RI>
0

>  <Rbt.Current_Directory>
/home/itssahil/PROJECTS/Mol_Feturizer/New_Systems/rnas/1ZZ5

>  <Rbt.Executable>
rbdock ($Id: //depot/dev/client3/rdock/2013.1/src/exe/rbdock.cxx#4 $)

>  <Rbt.Library>
libRbt.so (2013.1, Build901 2013/11/27)

>  <Rbt.Parameter_File>
/export/apps/rDock/src/rDock_2013.1_src/data/scripts/dock_solv.prm

>  <Rbt.Receptor>
prm/pocket_docking_6.prm

>  <SCORE>
-11.444

>  <SCORE.INTER>
-9.44861

>  <SCORE.INTER.CONST>
1

>  <SCORE.INTER.POLAR>
0

>  <SCORE.INTER.ROT>
4

>  <SCORE.INTER.SOLV>
16.669

>  <SCORE.INTER.VDW>
-18.1221

>  <SCORE.INTER.norm>
-0.230454

>  <SCORE.INTRA>
-1.99537

>  <SCORE.INTRA.DIHEDRAL>
-4.44339

>  <SCORE.INTRA.DIHEDRAL.0>
5.18357

>  <SCORE.INTRA.POLAR>
0

>  <SCORE.INTRA.POLAR.0>
0

>  <SCORE.INTRA.REPUL>
0

>  <SCORE.INTRA.REPUL.0>
0

>  <SCORE.INTRA.SOLV>
0.203138

>  <SCORE.INTRA.SOLV.lig_0>
-109.973

>  <SCORE.INTRA.VDW>
0.124758

>  <SCORE.INTRA.VDW.0>
-1.68646

>  <SCORE.INTRA.norm>
-0.0486675

>  <SCORE.RESTR>
0

>  <SCORE.RESTR.CAVITY>
0

>  <SCORE.RESTR.norm>
0

>  <SCORE.SYSTEM>
0

>  <SCORE.SYSTEM.CONST>
0

>  <SCORE.SYSTEM.DIHEDRAL>
0

>  <SCORE.SYSTEM.SOLV>
0

>  <SCORE.SYSTEM.norm>
0

>  <SCORE.heavy>
41

>  <SCORE.norm>
-0.279121

>  <RMSD>
5.018

$$$$
ligand
 OpenBabel11021811423D
libRbt.so/2013.1/901 2013/11/27
 41 45  0  0  0  0  0  0  0  0999 V2000
   37.3982   41.5098    4.8826 C   0  0  2  0  0  0  0  0  0  0  0  0
   37.5452   40.1880    5.4373 O   0  0  0  0  0  0  0  0  0  0  0  0
   39.0048   36.3615    3.9725 C   0  0  2  0  0  0  0  0  0  0  0  0
   39.1983   35.1910    3.0783 N   0  0  0  0  0  0  0  0  0  0  0  0
   41.3641   40.5111    4.2724 C   0  0  1  0  0  0  0  0  0  0  0  0
   44.3395   41.3902    5.4896 C   0  0  1  0  0  0  0  0  0  0  0  0
   37.7981   42.6014    5.9200 C   0  0  2  0  0  0  0  0  0  0  0  0
   39.1410   42.4003    6.4725 N   0  0  0  0  0  0  0  0  0  0  0  0
   37.4763   36.5614    4.2215 C   0  0  0  0  0  0  0  0  0  0  0  0
   41.9512   41.6971    3.4734 C   0  0  2  0  0  0  0  0  0  0  0  0
   43.0392   41.2898    2.6373 O   0  0  0  0  0  0  0  0  0  0  0  0
   45.7761   41.6134    6.1288 C   0  0  2  0  0  0  0  0  0  0  0  0
   46.7833   42.1829    5.1823 N   0  0  0  0  0  0  0  0  0  0  0  0
   36.7550   42.6582    7.0685 C   0  0  1  0  0  0  0  0  0  0  0  0
   37.1100   43.6760    8.0007 O   0  0  0  0  0  0  0  0  0  0  0  0
   37.2108   37.7826    5.1491 C   0  0  2  0  0  0  0  0  0  0  0  0
   35.7525   37.8951    5.3410 N   0  0  0  0  0  0  0  0  0  0  0  0
   42.3702   42.7166    4.5463 C   0  0  2  0  0  0  0  0  0  0  0  0
   43.8125   42.6226    4.8783 O   0  0  0  0  0  0  0  0  0  0  0  0
   46.3193   40.2397    6.7316 C   0  0  1  0  0  0  0  0  0  0  0  0
   45.5353   39.8218    7.8707 O   0  0  0  0  0  0  0  0  0  0  0  0
   35.3484   42.9218    6.4831 C   0  0  2  0  0  0  0  0  0  0  0  0
   34.3967   42.9921    7.5240 O   0  0  0  0  0  0  0  0  0  0  0  0
   37.8384   39.0789    4.5247 C   0  0  2  0  0  0  0  0  0  0  0  0
   41.4948   42.3675    5.7467 C   0  0  2  0  0  0  0  0  0  0  0  0
   41.1432   40.9993    5.5967 O   0  0  0  0  0  0  0  0  0  0  0  0
   46.3169   39.0760    5.6604 C   0  0  2  0  0  0  0  0  0  0  0  0
   47.2890   39.3681    4.6425 O   0  0  0  0  0  0  0  0  0  0  0  0
   34.9738   41.8122    5.4805 C   0  0  2  0  0  0  0  0  0  0  0  0
   36.0120   41.7673    4.4271 O   0  0  0  0  0  0  0  0  0  0  0  0
   39.4203   38.8644    4.3147 C   0  0  2  0  0  0  0  0  0  0  0  0
   40.0847   40.0418    3.6933 O   0  0  0  0  0  0  0  0  0  0  0  0
   40.2063   43.1735    5.8210 C   0  0  0  0  0  0  0  0  0  0  0  0
   44.8727   38.9310    5.0299 C   0  0  1  0  0  0  0  0  0  0  0  0
   44.3556   40.2428    4.5112 O   0  0  0  0  0  0  0  0  0  0  0  0
   33.5762   42.0994    4.8839 C   0  0  0  0  0  0  0  0  0  0  0  0
   33.4542   43.3891    4.1796 N   0  0  0  0  0  0  0  0  0  0  0  0
   39.6550   37.6661    3.3703 C   0  0  1  0  0  0  0  0  0  0  0  0
   41.0610   37.4754    3.1820 O   0  0  0  0  0  0  0  0  0  0  0  0
   44.7885   37.8237    3.9100 C   0  0  0  0  0  0  0  0  0  0  0  0
   45.0984   36.4224    4.3385 N   0  0  0  0  0  0  0  0  0  0  0  0
  1  2  1  1  0  0  0
  1  7  1  0  0  0  0
  1 30  1  0  0  0  0
  3  4  1  6  0  0  0
  3  9  1  0  0  0  0
  3 38  1  0  0  0  0
  5 10  1  0  0  0  0
  5 26  1  1  0  0  0
  5 32  1  0  0  0  0
  6 12  1  0  0  0  0
  6 35  1  0  0  0  0
  6 19  1  6  0  0  0
  7  8  1  1  0  0  0
  7 14  1  0  0  0  0
  8 33  1  0  0  0  0
  9 16  1  0  0  0  0
 10 11  1  1  0  0  0
 10 18  1  0  0  0  0
 12 13  1  6  0  0  0
 12 20  1  0  0  0  0
 14 15  1  1  0  0  0
 14 22  1  0  0  0  0
 16 17  1  6  0  0  0
 16 24  1  0  0  0  0
 18 19  1  1  0  0  0
 18 25  1  0  0  0  0
 20 21  1  1  0  0  0
 20 27  1  0  0  0  0
 22 23  1  1  0  0  0
 22 29  1  0  0  0  0
 24  2  1  1  0  0  0
 24 31  1  0  0  0  0
 25 26  1  6  0  0  0
 25 33  1  0  0  0  0
 27 28  1  6  0  0  0
 27 34  1  0  0  0  0
 29 30  1  0  0  0  0
 29 36  1  6  0  0  0
 31 32  1  6  0  0  0
 31 38  1  0  0  0  0
 34 35  1  0  0  0  0
 34 40  1  6  0  0  0
 36 37  1  0  0  0  0
 38 39  1  1  0  0  0
 40 41  1  0  0  0  0
M  END
>  <CHROM.1>
-63.84135148,-164.30633263,58.92219603,61.54039568,40.43413344,40.44046769
5.07700881,-2.96569579,0.01494953,-2.77482066

>  <Name>
ligand

>  <RI>
0

>  <Rbt.Current_Directory>
/home/itssahil/PROJECTS/Mol_Feturizer/New_Systems/rnas/1ZZ5

>  <Rbt.Executable>
rbdock ($Id: //depot/dev/client3/rdock/2013.1/src/exe/rbdock.cxx#4 $)

>  <Rbt.Library>
libRbt.so (2013.1, Build901 2013/11/27)

>  <Rbt.Parameter_File>
/export/apps/rDock/src/rDock_2013.1_src/data/scripts/dock_solv.prm

>  <Rbt.Receptor>
prm/pocket_docking_6.prm

>  <SCORE>
-10.3463

>  <SCORE.INTER>
-9.14381

>  <SCORE.INTER.CONST>
1

>  <SCORE.INTER.POLAR>
0

>  <SCORE.INTER.ROT>
4

>  <SCORE.INTER.SOLV>
16.9589

>  <SCORE.INTER.VDW>
-18.0155

>  <SCORE.INTER.norm>
-0.22302

>  <SCORE.INTRA>
-1.20248

>  <SCORE.INTRA.DIHEDRAL>
-3.74729

>  <SCORE.INTRA.DIHEDRAL.0>
5.18357

>  <SCORE.INTRA.POLAR>
0

>  <SCORE.INTRA.POLAR.0>
0

>  <SCORE.INTRA.REPUL>
0

>  <SCORE.INTRA.REPUL.0>
0

>  <SCORE.INTRA.SOLV>
1.25871

>  <SCORE.INTRA.SOLV.lig_0>
-109.973

>  <SCORE.INTRA.VDW>
0.0418147

>  <SCORE.INTRA.VDW.0>
-1.68646

>  <SCORE.INTRA.norm>
-0.0293287

>  <SCORE.RESTR>
0

>  <SCORE.RESTR.CAVITY>
0

>  <SCORE.RESTR.norm>
0

>  <SCORE.SYSTEM>
0

>  <SCORE.SYSTEM.CONST>
0

>  <SCORE.SYSTEM.DIHEDRAL>
0

>  <SCORE.SYSTEM.SOLV>
0

>  <SCORE.SYSTEM.norm>
0

>  <SCORE.heavy>
41

>  <SCORE.norm>
-0.252348

>  <RMSD>
5.044

$$$$
ligand
 OpenBabel11021811423D
libRbt.so/2013.1/901 2013/11/27
 41 45  0  0  0  0  0  0  0  0999 V2000
   34.7457   38.8630    7.8397 C   0  0  2  0  0  0  0  0  0  0  0  0
   34.3373   38.8347    6.4581 O   0  0  0  0  0  0  0  0  0  0  0  0
   33.4700   41.8293    3.4253 C   0  0  2  0  0  0  0  0  0  0  0  0
   32.9052   43.0456    2.7858 N   0  0  0  0  0  0  0  0  0  0  0  0
   37.5463   41.1493    5.8328 C   0  0  1  0  0  0  0  0  0  0  0  0
   41.8947   39.9087    6.5020 C   0  0  1  0  0  0  0  0  0  0  0  0
   35.8071   37.7609    8.1339 C   0  0  2  0  0  0  0  0  0  0  0  0
   36.9626   37.8254    7.2339 N   0  0  0  0  0  0  0  0  0  0  0  0
   32.3040   40.9928    4.0408 C   0  0  0  0  0  0  0  0  0  0  0  0
   38.4723   41.7011    6.9408 C   0  0  2  0  0  0  0  0  0  0  0  0
   39.0522   42.9573    6.5740 O   0  0  0  0  0  0  0  0  0  0  0  0
   42.3751   39.7163    8.0035 C   0  0  2  0  0  0  0  0  0  0  0  0
   42.7244   40.9918    8.7006 N   0  0  0  0  0  0  0  0  0  0  0  0
   35.1549   36.3540    8.0596 C   0  0  1  0  0  0  0  0  0  0  0  0
   36.1227   35.3508    8.3558 O   0  0  0  0  0  0  0  0  0  0  0  0
   32.8378   39.7054    4.7335 C   0  0  2  0  0  0  0  0  0  0  0  0
   31.6792   38.9716    5.2767 N   0  0  0  0  0  0  0  0  0  0  0  0
   39.5219   40.5969    7.1532 C   0  0  2  0  0  0  0  0  0  0  0  0
   40.7732   40.8586    6.4013 O   0  0  0  0  0  0  0  0  0  0  0  0
   43.6193   38.7187    8.0497 C   0  0  1  0  0  0  0  0  0  0  0  0
   43.2299   37.3789    7.6753 O   0  0  0  0  0  0  0  0  0  0  0  0
   33.9688   36.2760    9.0486 C   0  0  2  0  0  0  0  0  0  0  0  0
   33.3813   34.9928    8.9991 O   0  0  0  0  0  0  0  0  0  0  0  0
   33.8842   40.0846    5.8406 C   0  0  2  0  0  0  0  0  0  0  0  0
   38.8272   39.3301    6.6617 C   0  0  2  0  0  0  0  0  0  0  0  0
   37.8387   39.7544    5.7339 O   0  0  0  0  0  0  0  0  0  0  0  0
   44.7956   39.1879    7.1021 C   0  0  2  0  0  0  0  0  0  0  0  0
   45.3611   40.4050    7.6173 O   0  0  0  0  0  0  0  0  0  0  0  0
   32.9269   37.3622    8.7151 C   0  0  2  0  0  0  0  0  0  0  0  0
   33.5984   38.6801    8.7593 O   0  0  0  0  0  0  0  0  0  0  0  0
   35.0961   40.9107    5.1763 C   0  0  2  0  0  0  0  0  0  0  0  0
   36.1171   41.3372    6.1710 O   0  0  0  0  0  0  0  0  0  0  0  0
   38.1264   38.5483    7.7631 C   0  0  0  0  0  0  0  0  0  0  0  0
   44.2470   39.4035    5.6335 C   0  0  1  0  0  0  0  0  0  0  0  0
   43.0460   40.3060    5.6128 O   0  0  0  0  0  0  0  0  0  0  0  0
   31.7579   37.2902    9.7251 C   0  0  0  0  0  0  0  0  0  0  0  0
   30.9970   36.0273    9.7061 N   0  0  0  0  0  0  0  0  0  0  0  0
   34.5438   42.1946    4.5211 C   0  0  1  0  0  0  0  0  0  0  0  0
   35.6207   42.9304    3.9314 O   0  0  0  0  0  0  0  0  0  0  0  0
   45.3444   39.9233    4.6270 C   0  0  0  0  0  0  0  0  0  0  0  0
   46.0245   41.2067    4.9924 N   0  0  0  0  0  0  0  0  0  0  0  0
  1  2  1  6  0  0  0
  1  7  1  0  0  0  0
  1 30  1  0  0  0  0
  3  4  1  1  0  0  0
  3  9  1  0  0  0  0
  3 38  1  0  0  0  0
  5 10  1  0  0  0  0
  5 26  1  1  0  0  0
  5 32  1  0  0  0  0
  6 12  1  0  0  0  0
  6 35  1  0  0  0  0
  6 19  1  1  0  0  0
  7  8  1  6  0  0  0
  7 14  1  0  0  0  0
  8 33  1  0  0  0  0
  9 16  1  0  0  0  0
 10 11  1  6  0  0  0
 10 18  1  0  0  0  0
 12 13  1  6  0  0  0
 12 20  1  0  0  0  0
 14 15  1  1  0  0  0
 14 22  1  0  0  0  0
 16 17  1  1  0  0  0
 16 24  1  0  0  0  0
 18 19  1  6  0  0  0
 18 25  1  0  0  0  0
 20 21  1  6  0  0  0
 20 27  1  0  0  0  0
 22 23  1  6  0  0  0
 22 29  1  0  0  0  0
 24  2  1  6  0  0  0
 24 31  1  0  0  0  0
 25 26  1  6  0  0  0
 25 33  1  0  0  0  0
 27 28  1  1  0  0  0
 27 34  1  0  0  0  0
 29 30  1  0  0  0  0
 29 36  1  1  0  0  0
 31 32  1  1  0  0  0
 31 38  1  0  0  0  0
 34 35  1  0  0  0  0
 34 40  1  6  0  0  0
 36 37  1  0  0  0  0
 38 39  1  6  0  0  0
 40 41  1  0  0  0  0
M  END
>  <CHROM.1>
179.28877415,-57.81846759,-62.53263189,-57.50392253,37.61250223,39.50220242
6.70185903,-3.02066424,-0.05992213,-0.68746100

>  <Name>
ligand

>  <RI>
0

>  <Rbt.Current_Directory>
/home/itssahil/PROJECTS/Mol_Feturizer/New_Systems/rnas/1ZZ5

>  <Rbt.Executable>
rbdock ($Id: //depot/dev/client3/rdock/2013.1/src/exe/rbdock.cxx#4 $)

>  <Rbt.Library>
libRbt.so (2013.1, Build901 2013/11/27)

>  <Rbt.Parameter_File>
/export/apps/rDock/src/rDock_2013.1_src/data/scripts/dock_solv.prm

>  <Rbt.Receptor>
prm/pocket_docking_4.prm

>  <SCORE>
-5.68448

>  <SCORE.INTER>
-4.61312

>  <SCORE.INTER.CONST>
1

>  <SCORE.INTER.POLAR>
0

>  <SCORE.INTER.ROT>
4

>  <SCORE.INTER.SOLV>
21.2599

>  <SCORE.INTER.VDW>
-16.4287

>  <SCORE.INTER.norm>
-0.112515

>  <SCORE.INTRA>
-1.07136

>  <SCORE.INTRA.DIHEDRAL>
-4.88324

>  <SCORE.INTRA.DIHEDRAL.0>
5.18357

>  <SCORE.INTRA.POLAR>
0

>  <SCORE.INTRA.POLAR.0>
0

>  <SCORE.INTRA.REPUL>
0

>  <SCORE.INTRA.REPUL.0>
0

>  <SCORE.INTRA.SOLV>
1.71101

>  <SCORE.INTRA.SOLV.lig_0>
-109.973

>  <SCORE.INTRA.VDW>
0.514753

>  <SCORE.INTRA.VDW.0>
-1.68646

>  <SCORE.INTRA.norm>
-0.0261307

>  <SCORE.RESTR>
0

>  <SCORE.RESTR.CAVITY>
0

>  <SCORE.RESTR.norm>
0

>  <SCORE.SYSTEM>
0

>  <SCORE.SYSTEM.CONST>
0

>  <SCORE.SYSTEM.DIHEDRAL>
0

>  <SCORE.SYSTEM.SOLV>
0

>  <SCORE.SYSTEM.norm>
0

>  <SCORE.heavy>
41

>  <SCORE.norm>
-0.138646

>  <RMSD>
5.073

$$$$
ligand
 OpenBabel11021811423D
libRbt.so/2013.1/901 2013/11/27
 41 45  0  0  0  0  0  0  0  0999 V2000
   35.0937   38.6133    7.8289 C   0  0  2  0  0  0  0  0  0  0  0  0
   34.5028   38.6648    6.5156 O   0  0  0  0  0  0  0  0  0  0  0  0
   33.6122   41.8075    3.6437 C   0  0  2  0  0  0  0  0  0  0  0  0
   33.1213   43.0971    3.0930 N   0  0  0  0  0  0  0  0  0  0  0  0
   37.8597   40.5841    5.4704 C   0  0  1  0  0  0  0  0  0  0  0  0
   42.2737   40.6191    6.0365 C   0  0  1  0  0  0  0  0  0  0  0  0
   36.0405   37.3840    7.9704 C   0  0  2  0  0  0  0  0  0  0  0  0
   37.0634   37.3267    6.9218 N   0  0  0  0  0  0  0  0  0  0  0  0
   32.4453   41.1062    4.4082 C   0  0  0  0  0  0  0  0  0  0  0  0
   38.9875   40.9950    6.4445 C   0  0  2  0  0  0  0  0  0  0  0  0
   39.6635   42.1788    6.0083 O   0  0  0  0  0  0  0  0  0  0  0  0
   43.4998   40.3955    5.0523 C   0  0  2  0  0  0  0  0  0  0  0  0
   43.8361   38.9587    4.8129 N   0  0  0  0  0  0  0  0  0  0  0  0
   35.2153   36.0690    7.9789 C   0  0  1  0  0  0  0  0  0  0  0  0
   36.0827   34.9491    8.1356 O   0  0  0  0  0  0  0  0  0  0  0  0
   32.9040   39.7488    5.0156 C   0  0  2  0  0  0  0  0  0  0  0  0
   31.7473   39.1500    5.7080 N   0  0  0  0  0  0  0  0  0  0  0  0
   39.9115   39.7667    6.5067 C   0  0  2  0  0  0  0  0  0  0  0  0
   41.0728   39.8902    5.5927 O   0  0  0  0  0  0  0  0  0  0  0  0
   44.7839   41.1647    5.6046 C   0  0  1  0  0  0  0  0  0  0  0  0
   44.6000   42.5965    5.5495 O   0  0  0  0  0  0  0  0  0  0  0  0
   34.1727   36.1148    9.1198 C   0  0  2  0  0  0  0  0  0  0  0  0
   33.4298   34.9141    9.1446 O   0  0  0  0  0  0  0  0  0  0  0  0
   34.1287   39.9736    5.9717 C   0  0  2  0  0  0  0  0  0  0  0  0
   39.0057   38.6049    6.1083 C   0  0  2  0  0  0  0  0  0  0  0  0
   37.9614   39.1665    5.3258 O   0  0  0  0  0  0  0  0  0  0  0  0
   45.1305   40.7552    7.0924 C   0  0  2  0  0  0  0  0  0  0  0  0
   45.5620   39.3842    7.1174 O   0  0  0  0  0  0  0  0  0  0  0  0
   33.2377   37.3268    8.9366 C   0  0  2  0  0  0  0  0  0  0  0  0
   34.0668   38.5517    8.8953 O   0  0  0  0  0  0  0  0  0  0  0  0
   35.3329   40.6600    5.1525 C   0  0  2  0  0  0  0  0  0  0  0  0
   36.5234   40.9374    6.0010 O   0  0  0  0  0  0  0  0  0  0  0  0
   38.3682   37.8908    7.2911 C   0  0  0  0  0  0  0  0  0  0  0  0
   43.8602   40.9589    8.0140 C   0  0  1  0  0  0  0  0  0  0  0  0
   42.6482   40.2693    7.4548 O   0  0  0  0  0  0  0  0  0  0  0  0
   32.2154   37.3759   10.0961 C   0  0  0  0  0  0  0  0  0  0  0  0
   31.3169   36.2099   10.1823 N   0  0  0  0  0  0  0  0  0  0  0  0
   34.8606   42.0155    4.5848 C   0  0  1  0  0  0  0  0  0  0  0  0
   35.9309   42.6272    3.8575 O   0  0  0  0  0  0  0  0  0  0  0  0
   44.0991   40.5255    9.5115 C   0  0  0  0  0  0  0  0  0  0  0  0
   44.0363   39.0560    9.7945 N   0  0  0  0  0  0  0  0  0  0  0  0
  1  2  1  6  0  0  0
  1  7  1  0  0  0  0
  1 30  1  0  0  0  0
  3  4  1  1  0  0  0
  3  9  1  0  0  0  0
  3 38  1  0  0  0  0
  5 10  1  0  0  0  0
  5 26  1  1  0  0  0
  5 32  1  0  0  0  0
  6 12  1  0  0  0  0
  6 35  1  0  0  0  0
  6 19  1  6  0  0  0
  7  8  1  6  0  0  0
  7 14  1  0  0  0  0
  8 33  1  0  0  0  0
  9 16  1  0  0  0  0
 10 11  1  6  0  0  0
 10 18  1  0  0  0  0
 12 13  1  1  0  0  0
 12 20  1  0  0  0  0
 14 15  1  1  0  0  0
 14 22  1  0  0  0  0
 16 17  1  1  0  0  0
 16 24  1  0  0  0  0
 18 19  1  6  0  0  0
 18 25  1  0  0  0  0
 20 21  1  1  0  0  0
 20 27  1  0  0  0  0
 22 23  1  6  0  0  0
 22 29  1  0  0  0  0
 24  2  1  6  0  0  0
 24 31  1  0  0  0  0
 25 26  1  6  0  0  0
 25 33  1  0  0  0  0
 27 28  1  6  0  0  0
 27 34  1  0  0  0  0
 29 30  1  0  0  0  0
 29 36  1  1  0  0  0
 31 32  1  1  0  0  0
 31 38  1  0  0  0  0
 34 35  1  0  0  0  0
 34 40  1  1  0  0  0
 36 37  1  0  0  0  0
 38 39  1  6  0  0  0
 40 41  1  0  0  0  0
M  END
>  <CHROM.1>
84.26564275,168.51296042,-61.98907775,-78.94298141,37.83575657,39.46821989
6.68739791,-2.96313474,-0.10386522,-0.73590342

>  <Name>
ligand

>  <RI>
0

>  <Rbt.Current_Directory>
/home/itssahil/PROJECTS/Mol_Feturizer/New_Systems/rnas/1ZZ5

>  <Rbt.Executable>
rbdock ($Id: //depot/dev/client3/rdock/2013.1/src/exe/rbdock.cxx#4 $)

>  <Rbt.Library>
libRbt.so (2013.1, Build901 2013/11/27)

>  <Rbt.Parameter_File>
/export/apps/rDock/src/rDock_2013.1_src/data/scripts/dock_solv.prm

>  <Rbt.Receptor>
prm/pocket_docking_2.prm

>  <SCORE>
1.69206

>  <SCORE.INTER>
-1.53288

>  <SCORE.INTER.CONST>
1

>  <SCORE.INTER.POLAR>
0

>  <SCORE.INTER.ROT>
4

>  <SCORE.INTER.SOLV>
19.2682

>  <SCORE.INTER.VDW>
-13.7113

>  <SCORE.INTER.norm>
-0.0373874

>  <SCORE.INTRA>
0.689147

>  <SCORE.INTRA.DIHEDRAL>
-0.632347

>  <SCORE.INTRA.DIHEDRAL.0>
5.18357

>  <SCORE.INTRA.POLAR>
0

>  <SCORE.INTRA.POLAR.0>
0

>  <SCORE.INTRA.REPUL>
0

>  <SCORE.INTRA.REPUL.0>
0

>  <SCORE.INTRA.SOLV>
1.413

>  <SCORE.INTRA.SOLV.lig_0>
-109.973

>  <SCORE.INTRA.VDW>
0.298822

>  <SCORE.INTRA.VDW.0>
-1.68646

>  <SCORE.INTRA.norm>
0.0168085

>  <SCORE.RESTR>
2.5358

>  <SCORE.RESTR.CAVITY>
2.5358

>  <SCORE.RESTR.norm>
0.0618488

>  <SCORE.SYSTEM>
0

>  <SCORE.SYSTEM.CONST>
0

>  <SCORE.SYSTEM.DIHEDRAL>
0

>  <SCORE.SYSTEM.SOLV>
0

>  <SCORE.SYSTEM.norm>
0

>  <SCORE.heavy>
41

>  <SCORE.norm>
0.0412698

>  <RMSD>
5.186

$$$$
ligand
 OpenBabel11021811423D
libRbt.so/2013.1/901 2013/11/27
 41 45  0  0  0  0  0  0  0  0999 V2000
   35.1549   38.7117    7.8786 C   0  0  2  0  0  0  0  0  0  0  0  0
   34.5770   38.6994    6.5586 O   0  0  0  0  0  0  0  0  0  0  0  0
   33.5050   41.7225    3.6211 C   0  0  2  0  0  0  0  0  0  0  0  0
   32.9327   42.9653    3.0421 N   0  0  0  0  0  0  0  0  0  0  0  0
   37.8054   40.8277    5.5133 C   0  0  1  0  0  0  0  0  0  0  0  0
   42.0652   41.3873    5.9949 C   0  0  1  0  0  0  0  0  0  0  0  0
   36.1825   37.5535    8.0522 C   0  0  2  0  0  0  0  0  0  0  0  0
   37.2189   37.5488    7.0154 N   0  0  0  0  0  0  0  0  0  0  0  0
   32.3805   40.9557    4.3862 C   0  0  0  0  0  0  0  0  0  0  0  0
   38.8909   41.3325    6.4914 C   0  0  2  0  0  0  0  0  0  0  0  0
   39.4887   42.5524    6.0406 O   0  0  0  0  0  0  0  0  0  0  0  0
   43.1466   41.5282    4.8404 C   0  0  2  0  0  0  0  0  0  0  0  0
   43.8232   40.2453    4.4782 N   0  0  0  0  0  0  0  0  0  0  0  0
   35.4499   36.1849    8.0760 C   0  0  1  0  0  0  0  0  0  0  0  0
   36.3906   35.1306    8.2620 O   0  0  0  0  0  0  0  0  0  0  0  0
   32.9247   39.6440    5.0228 C   0  0  2  0  0  0  0  0  0  0  0  0
   31.8041   38.9788    5.7140 N   0  0  0  0  0  0  0  0  0  0  0  0
   39.8966   40.1723    6.5853 C   0  0  2  0  0  0  0  0  0  0  0  0
   41.0571   40.3599    5.6812 O   0  0  0  0  0  0  0  0  0  0  0  0
   44.2388   42.6159    5.2522 C   0  0  1  0  0  0  0  0  0  0  0  0
   43.6649   43.9407    5.3020 O   0  0  0  0  0  0  0  0  0  0  0  0
   34.3936   36.1783    9.2051 C   0  0  2  0  0  0  0  0  0  0  0  0
   33.7349   34.9298    9.2441 O   0  0  0  0  0  0  0  0  0  0  0  0
   34.1198   39.9695    5.9872 C   0  0  2  0  0  0  0  0  0  0  0  0
   39.0777   38.9439    6.1987 C   0  0  2  0  0  0  0  0  0  0  0  0
   38.0063   39.4182    5.3955 O   0  0  0  0  0  0  0  0  0  0  0  0
   44.8996   42.2970    6.6533 C   0  0  2  0  0  0  0  0  0  0  0  0
   45.6878   41.0999    6.5430 O   0  0  0  0  0  0  0  0  0  0  0  0
   33.3794   37.3194    8.9904 C   0  0  2  0  0  0  0  0  0  0  0  0
   34.1225   38.5979    8.9353 O   0  0  0  0  0  0  0  0  0  0  0  0
   35.2833   40.7232    5.1681 C   0  0  2  0  0  0  0  0  0  0  0  0
   36.4419   41.0969    6.0236 O   0  0  0  0  0  0  0  0  0  0  0  0
   38.4774   38.2081    7.3877 C   0  0  0  0  0  0  0  0  0  0  0  0
   43.7725   42.1257    7.7508 C   0  0  1  0  0  0  0  0  0  0  0  0
   42.7261   41.1346    7.3267 O   0  0  0  0  0  0  0  0  0  0  0  0
   32.3429   37.3180   10.1382 C   0  0  0  0  0  0  0  0  0  0  0  0
   31.4904   36.1166   10.2042 N   0  0  0  0  0  0  0  0  0  0  0  0
   34.7251   42.0327    4.5711 C   0  0  1  0  0  0  0  0  0  0  0  0
   35.7590   42.7042    3.8438 O   0  0  0  0  0  0  0  0  0  0  0  0
   44.3388   41.7537    9.1750 C   0  0  0  0  0  0  0  0  0  0  0  0
   43.3310   41.6178   10.2745 N   0  0  0  0  0  0  0  0  0  0  0  0
  1  2  1  6  0  0  0
  1  7  1  0  0  0  0
  1 30  1  0  0  0  0
  3  4  1  1  0  0  0
  3  9  1  0  0  0  0
  3 38  1  0  0  0  0
  5 10  1  0  0  0  0
  5 26  1  1  0  0  0
  5 32  1  0  0  0  0
  6 12  1  0  0  0  0
  6 35  1  0  0  0  0
  6 19  1  6  0  0  0
  7  8  1  6  0  0  0
  7 14  1  0  0  0  0
  8 33  1  0  0  0  0
  9 16  1  0  0  0  0
 10 11  1  6  0  0  0
 10 18  1  0  0  0  0
 12 13  1  1  0  0  0
 12 20  1  0  0  0  0
 14 15  1  1  0  0  0
 14 22  1  0  0  0  0
 16 17  1  1  0  0  0
 16 24  1  0  0  0  0
 18 19  1  6  0  0  0
 18 25  1  0  0  0  0
 20 21  1  1  0  0  0
 20 27  1  0  0  0  0
 22 23  1  6  0  0  0
 22 29  1  0  0  0  0
 24  2  1  6  0  0  0
 24 31  1  0  0  0  0
 25 26  1  6  0  0  0
 25 33  1  0  0  0  0
 27 28  1  6  0  0  0
 27 34  1  0  0  0  0
 29 30  1  0  0  0  0
 29 36  1  1  0  0  0
 31 32  1  1  0  0  0
 31 38  1  0  0  0  0
 34 35  1  0  0  0  0
 34 40  1  1  0  0  0
 36 37  1  0  0  0  0
 38 39  1  6  0  0  0
 40 41  1  0  0  0  0
M  END
>  <CHROM.1>
71.69076478,-174.46827536,-64.25304035,178.14967200,37.79998466,39.91548447
6.65982557,-2.83649886,-0.18251517,-0.75561144

>  <Name>
ligand

>  <RI>
0

>  <Rbt.Current_Directory>
/home/itssahil/PROJECTS/Mol_Feturizer/New_Systems/rnas/1ZZ5

>  <Rbt.Executable>
rbdock ($Id: //depot/dev/client3/rdock/2013.1/src/exe/rbdock.cxx#4 $)

>  <Rbt.Library>
libRbt.so (2013.1, Build901 2013/11/27)

>  <Rbt.Parameter_File>
/export/apps/rDock/src/rDock_2013.1_src/data/scripts/dock_solv.prm

>  <Rbt.Receptor>
prm/pocket_docking_3.prm

>  <SCORE>
-5.81536

>  <SCORE.INTER>
-4.32467

>  <SCORE.INTER.CONST>
1

>  <SCORE.INTER.POLAR>
0

>  <SCORE.INTER.ROT>
4

>  <SCORE.INTER.SOLV>
19.0654

>  <SCORE.INTER.VDW>
-15.5049

>  <SCORE.INTER.norm>
-0.10548

>  <SCORE.INTRA>
-1.49069

>  <SCORE.INTRA.DIHEDRAL>
-4.07607

>  <SCORE.INTRA.DIHEDRAL.0>
5.18357

>  <SCORE.INTRA.POLAR>
0

>  <SCORE.INTRA.POLAR.0>
0

>  <SCORE.INTRA.REPUL>
0

>  <SCORE.INTRA.REPUL.0>
0

>  <SCORE.INTRA.SOLV>
-0.171557

>  <SCORE.INTRA.SOLV.lig_0>
-109.973

>  <SCORE.INTRA.VDW>
0.633121

>  <SCORE.INTRA.VDW.0>
-1.68646

>  <SCORE.INTRA.norm>
-0.0363583

>  <SCORE.RESTR>
0

>  <SCORE.RESTR.CAVITY>
0

>  <SCORE.RESTR.norm>
0

>  <SCORE.SYSTEM>
0

>  <SCORE.SYSTEM.CONST>
0

>  <SCORE.SYSTEM.DIHEDRAL>
0

>  <SCORE.SYSTEM.SOLV>
0

>  <SCORE.SYSTEM.norm>
0

>  <SCORE.heavy>
41

>  <SCORE.norm>
-0.141838

>  <RMSD>
5.196

$$$$
ligand
 OpenBabel11021811423D
libRbt.so/2013.1/901 2013/11/27
 41 45  0  0  0  0  0  0  0  0999 V2000
   34.4282   38.9950    7.6241 C   0  0  2  0  0  0  0  0  0  0  0  0
   34.0475   38.8618    6.2407 O   0  0  0  0  0  0  0  0  0  0  0  0
   32.8242   41.5996    3.0901 C   0  0  2  0  0  0  0  0  0  0  0  0
   32.1083   42.7037    2.4004 N   0  0  0  0  0  0  0  0  0  0  0  0
   36.9199   41.5696    5.5599 C   0  0  1  0  0  0  0  0  0  0  0  0
   41.4781   41.4824    6.7457 C   0  0  1  0  0  0  0  0  0  0  0  0
   35.6255   38.0596    7.9692 C   0  0  2  0  0  0  0  0  0  0  0  0
   36.7743   38.2492    7.0785 N   0  0  0  0  0  0  0  0  0  0  0  0
   31.7743   40.6341    3.7254 C   0  0  0  0  0  0  0  0  0  0  0  0
   37.7459   42.2820    6.6552 C   0  0  2  0  0  0  0  0  0  0  0  0
   38.1544   43.5918    6.2473 O   0  0  0  0  0  0  0  0  0  0  0  0
   42.3275   42.8152    6.9023 C   0  0  2  0  0  0  0  0  0  0  0  0
   42.4656   43.6027    5.6391 N   0  0  0  0  0  0  0  0  0  0  0  0
   35.1722   36.5750    7.9413 C   0  0  1  0  0  0  0  0  0  0  0  0
   36.2634   35.7246    8.2839 O   0  0  0  0  0  0  0  0  0  0  0  0
   32.4684   39.4573    4.4707 C   0  0  2  0  0  0  0  0  0  0  0  0
   31.4129   38.5918    5.0300 N   0  0  0  0  0  0  0  0  0  0  0  0
   38.9330   41.3399    6.9186 C   0  0  2  0  0  0  0  0  0  0  0  0
   40.1477   41.7432    6.1694 O   0  0  0  0  0  0  0  0  0  0  0  0
   43.7729   42.4703    7.4832 C   0  0  1  0  0  0  0  0  0  0  0  0
   43.6897   41.9946    8.8446 O   0  0  0  0  0  0  0  0  0  0  0  0
   33.9937   36.3709    8.9213 C   0  0  2  0  0  0  0  0  0  0  0  0
   33.5873   35.0185    8.9142 O   0  0  0  0  0  0  0  0  0  0  0  0
   33.4372   40.0152    5.5728 C   0  0  2  0  0  0  0  0  0  0  0  0
   38.4246   39.9733    6.4682 C   0  0  2  0  0  0  0  0  0  0  0  0
   37.4010   40.2251    5.5158 O   0  0  0  0  0  0  0  0  0  0  0  0
   44.5223   41.3838    6.6117 C   0  0  2  0  0  0  0  0  0  0  0  0
   44.8361   41.9435    5.3253 O   0  0  0  0  0  0  0  0  0  0  0  0
   32.8183   37.2919    8.5377 C   0  0  2  0  0  0  0  0  0  0  0  0
   33.3033   38.6899    8.5390 O   0  0  0  0  0  0  0  0  0  0  0  0
   34.5348   40.9750    4.8896 C   0  0  2  0  0  0  0  0  0  0  0  0
   35.4737   41.5723    5.8773 O   0  0  0  0  0  0  0  0  0  0  0  0
   37.8209   39.1429    7.5913 C   0  0  0  0  0  0  0  0  0  0  0  0
   43.6105   40.0997    6.4559 C   0  0  1  0  0  0  0  0  0  0  0  0
   42.2375   40.4472    5.9547 O   0  0  0  0  0  0  0  0  0  0  0  0
   31.6556   37.0968    9.5386 C   0  0  0  0  0  0  0  0  0  0  0  0
   31.1653   35.7114    9.6592 N   0  0  0  0  0  0  0  0  0  0  0  0
   33.8223   42.1472    4.1817 C   0  0  1  0  0  0  0  0  0  0  0  0
   34.7972   43.0017    3.5751 O   0  0  0  0  0  0  0  0  0  0  0  0
   44.2588   38.9790    5.5553 C   0  0  0  0  0  0  0  0  0  0  0  0
   45.5620   38.4161    6.0328 N   0  0  0  0  0  0  0  0  0  0  0  0
  1  2  1  6  0  0  0
  1  7  1  0  0  0  0
  1 30  1  0  0  0  0
  3  4  1  1  0  0  0
  3  9  1  0  0  0  0
  3 38  1  0  0  0  0
  5 10  1  0  0  0  0
  5 26  1  1  0  0  0
  5 32  1  0  0  0  0
  6 12  1  0  0  0  0
  6 35  1  0  0  0  0
  6 19  1  6  0  0  0
  7  8  1  6  0  0  0
  7 14  1  0  0  0  0
  8 33  1  0  0  0  0
  9 16  1  0  0  0  0
 10 11  1  6  0  0  0
 10 18  1  0  0  0  0
 12 13  1  6  0  0  0
 12 20  1  0  0  0  0
 14 15  1  1  0  0  0
 14 22  1  0  0  0  0
 16 17  1  1  0  0  0
 16 24  1  0  0  0  0
 18 19  1  6  0  0  0
 18 25  1  0  0  0  0
 20 21  1  1  0  0  0
 20 27  1  0  0  0  0
 22 23  1  6  0  0  0
 22 29  1  0  0  0  0
 24  2  1  6  0  0  0
 24 31  1  0  0  0  0
 25 26  1  6  0  0  0
 25 33  1  0  0  0  0
 27 28  1  6  0  0  0
 27 34  1  0  0  0  0
 29 30  1  0  0  0  0
 29 36  1  1  0  0  0
 31 32  1  1  0  0  0
 31 38  1  0  0  0  0
 34 35  1  0  0  0  0
 34 40  1  6  0  0  0
 36 37  1  0  0  0  0
 38 39  1  6  0  0  0
 40 41  1  0  0  0  0
M  END
>  <CHROM.1>
148.37658369,-122.39477430,-56.59753834,60.69435532,37.24012522,40.02158772
6.46337552,-2.91686457,-0.14391824,-0.64947710

>  <Name>
ligand

>  <RI>
0

>  <Rbt.Current_Directory>
/home/itssahil/PROJECTS/Mol_Feturizer/New_Systems/rnas/1ZZ5

>  <Rbt.Executable>
rbdock ($Id: //depot/dev/client3/rdock/2013.1/src/exe/rbdock.cxx#4 $)

>  <Rbt.Library>
libRbt.so (2013.1, Build901 2013/11/27)

>  <Rbt.Parameter_File>
/export/apps/rDock/src/rDock_2013.1_src/data/scripts/dock_solv.prm

>  <Rbt.Receptor>
prm/pocket_docking_2.prm

>  <SCORE>
2.81769

>  <SCORE.INTER>
-4.1863

>  <SCORE.INTER.CONST>
1

>  <SCORE.INTER.POLAR>
0

>  <SCORE.INTER.ROT>
4

>  <SCORE.INTER.SOLV>
20.722

>  <SCORE.INTER.VDW>
-15.9649

>  <SCORE.INTER.norm>
-0.102105

>  <SCORE.INTRA>
3.567

>  <SCORE.INTRA.DIHEDRAL>
5.94229

>  <SCORE.INTRA.DIHEDRAL.0>
5.18357

>  <SCORE.INTRA.POLAR>
0

>  <SCORE.INTRA.POLAR.0>
0

>  <SCORE.INTRA.REPUL>
0

>  <SCORE.INTRA.REPUL.0>
0

>  <SCORE.INTRA.SOLV>
0.118754

>  <SCORE.INTRA.SOLV.lig_0>
-109.973

>  <SCORE.INTRA.VDW>
0.536478

>  <SCORE.INTRA.VDW.0>
-1.68646

>  <SCORE.INTRA.norm>
0.0870001

>  <SCORE.RESTR>
3.43699

>  <SCORE.RESTR.CAVITY>
3.43699

>  <SCORE.RESTR.norm>
0.0838289

>  <SCORE.SYSTEM>
0

>  <SCORE.SYSTEM.CONST>
0

>  <SCORE.SYSTEM.DIHEDRAL>
0

>  <SCORE.SYSTEM.SOLV>
0

>  <SCORE.SYSTEM.norm>
0

>  <SCORE.heavy>
41

>  <SCORE.norm>
0.068724

>  <RMSD>
5.311

$$$$
ligand
 OpenBabel11021811423D
libRbt.so/2013.1/901 2013/11/27
 41 45  0  0  0  0  0  0  0  0999 V2000
   34.6853   38.9109    7.5650 C   0  0  2  0  0  0  0  0  0  0  0  0
   34.1653   38.8531    6.2223 O   0  0  0  0  0  0  0  0  0  0  0  0
   32.8924   41.7802    3.2678 C   0  0  2  0  0  0  0  0  0  0  0  0
   32.2133   42.9616    2.6758 N   0  0  0  0  0  0  0  0  0  0  0  0
   37.1852   41.3280    5.3275 C   0  0  1  0  0  0  0  0  0  0  0  0
   41.4589   42.1826    6.0970 C   0  0  1  0  0  0  0  0  0  0  0  0
   35.8238   37.8674    7.7712 C   0  0  2  0  0  0  0  0  0  0  0  0
   36.8953   37.9866    6.7778 N   0  0  0  0  0  0  0  0  0  0  0  0
   31.8272   40.8878    3.9799 C   0  0  0  0  0  0  0  0  0  0  0  0
   38.1701   41.9340    6.3534 C   0  0  2  0  0  0  0  0  0  0  0  0
   38.6507   43.2164    5.9374 O   0  0  0  0  0  0  0  0  0  0  0  0
   42.5771   42.4605    5.0041 C   0  0  2  0  0  0  0  0  0  0  0  0
   43.2620   41.2290    4.5049 N   0  0  0  0  0  0  0  0  0  0  0  0
   35.2424   36.4280    7.7539 C   0  0  1  0  0  0  0  0  0  0  0  0
   36.2828   35.4783    7.9698 O   0  0  0  0  0  0  0  0  0  0  0  0
   32.4836   39.6342    4.6277 C   0  0  2  0  0  0  0  0  0  0  0  0
   31.4144   38.8442    5.2670 N   0  0  0  0  0  0  0  0  0  0  0  0
   39.2902   40.8872    6.4791 C   0  0  2  0  0  0  0  0  0  0  0  0
   40.4590   41.2093    5.6249 O   0  0  0  0  0  0  0  0  0  0  0  0
   43.6582   43.4809    5.5836 C   0  0  1  0  0  0  0  0  0  0  0  0
   43.0861   44.7926    5.7815 O   0  0  0  0  0  0  0  0  0  0  0  0
   34.1486   36.2942    8.8386 C   0  0  2  0  0  0  0  0  0  0  0  0
   33.6271   34.9819    8.8405 O   0  0  0  0  0  0  0  0  0  0  0  0
   33.5973   40.0739    5.6429 C   0  0  2  0  0  0  0  0  0  0  0  0
   38.6243   39.5830    6.0494 C   0  0  2  0  0  0  0  0  0  0  0  0
   37.5410   39.9497    5.2067 O   0  0  0  0  0  0  0  0  0  0  0  0
   44.2729   42.9842    6.9536 C   0  0  2  0  0  0  0  0  0  0  0  0
   45.0614   41.8055    6.7185 O   0  0  0  0  0  0  0  0  0  0  0  0
   33.0269   37.3226    8.5917 C   0  0  2  0  0  0  0  0  0  0  0  0
   33.6298   38.6739    8.5775 O   0  0  0  0  0  0  0  0  0  0  0  0
   34.7047   40.9581    4.8784 C   0  0  2  0  0  0  0  0  0  0  0  0
   35.7813   41.4431    5.7836 O   0  0  0  0  0  0  0  0  0  0  0  0
   38.0597   38.7724    7.2067 C   0  0  0  0  0  0  0  0  0  0  0  0
   43.1107   42.6837    7.9848 C   0  0  1  0  0  0  0  0  0  0  0  0
   42.0761   41.7604    7.4065 O   0  0  0  0  0  0  0  0  0  0  0  0
   31.9516   37.1958    9.6959 C   0  0  0  0  0  0  0  0  0  0  0  0
   32.4324   37.4595   11.0647 N   0  0  0  0  0  0  0  0  0  0  0  0
   34.0332   42.2076    4.2695 C   0  0  1  0  0  0  0  0  0  0  0  0
   35.0170   42.9949    3.5907 O   0  0  0  0  0  0  0  0  0  0  0  0
   43.6303   42.1321    9.3680 C   0  0  0  0  0  0  0  0  0  0  0  0
   44.3685   40.8295    9.3272 N   0  0  0  0  0  0  0  0  0  0  0  0
  1  2  1  6  0  0  0
  1  7  1  0  0  0  0
  1 30  1  0  0  0  0
  3  4  1  1  0  0  0
  3  9  1  0  0  0  0
  3 38  1  0  0  0  0
  5 10  1  0  0  0  0
  5 26  1  1  0  0  0
  5 32  1  0  0  0  0
  6 12  1  0  0  0  0
  6 35  1  0  0  0  0
  6 19  1  6  0  0  0
  7  8  1  6  0  0  0
  7 14  1  0  0  0  0
  8 33  1  0  0  0  0
  9 16  1  0  0  0  0
 10 11  1  6  0  0  0
 10 18  1  0  0  0  0
 12 13  1  1  0  0  0
 12 20  1  0  0  0  0
 14 15  1  1  0  0  0
 14 22  1  0  0  0  0
 16 17  1  1  0  0  0
 16 24  1  0  0  0  0
 18 19  1  6  0  0  0
 18 25  1  0  0  0  0
 20 21  1  1  0  0  0
 20 27  1  0  0  0  0
 22 23  1  6  0  0  0
 22 29  1  0  0  0  0
 24  2  1  6  0  0  0
 24 31  1  0  0  0  0
 25 26  1  6  0  0  0
 25 33  1  0  0  0  0
 27 28  1  6  0  0  0
 27 34  1  0  0  0  0
 29 30  1  0  0  0  0
 29 36  1  1  0  0  0
 31 32  1  1  0  0  0
 31 38  1  0  0  0  0
 34 35  1  0  0  0  0
 34 40  1  1  0  0  0
 36 37  1  0  0  0  0
 38 39  1  6  0  0  0
 40 41  1  0  0  0  0
M  END
>  <CHROM.1>
81.68603530,-176.26470523,61.41227147,-61.74225985,37.35315947,40.30349576
6.50820079,-2.85432901,-0.24359734,-0.74444979

>  <Name>
ligand

>  <RI>
0

>  <Rbt.Current_Directory>
/home/itssahil/PROJECTS/Mol_Feturizer/New_Systems/rnas/1ZZ5

>  <Rbt.Executable>
rbdock ($Id: //depot/dev/client3/rdock/2013.1/src/exe/rbdock.cxx#4 $)

>  <Rbt.Library>
libRbt.so (2013.1, Build901 2013/11/27)

>  <Rbt.Parameter_File>
/export/apps/rDock/src/rDock_2013.1_src/data/scripts/dock_solv.prm

>  <Rbt.Receptor>
prm/pocket_docking_4.prm

>  <SCORE>
-7.5891

>  <SCORE.INTER>
-7.06579

>  <SCORE.INTER.CONST>
1

>  <SCORE.INTER.POLAR>
0

>  <SCORE.INTER.ROT>
4

>  <SCORE.INTER.SOLV>
17.5035

>  <SCORE.INTER.VDW>
-16.8117

>  <SCORE.INTER.norm>
-0.172336

>  <SCORE.INTRA>
-0.523316

>  <SCORE.INTRA.DIHEDRAL>
-2.80564

>  <SCORE.INTRA.DIHEDRAL.0>
5.18357

>  <SCORE.INTRA.POLAR>
0

>  <SCORE.INTRA.POLAR.0>
0

>  <SCORE.INTRA.REPUL>
0

>  <SCORE.INTRA.REPUL.0>
0

>  <SCORE.INTRA.SOLV>
1.52196

>  <SCORE.INTRA.SOLV.lig_0>
-109.973

>  <SCORE.INTRA.VDW>
0.11852

>  <SCORE.INTRA.VDW.0>
-1.68646

>  <SCORE.INTRA.norm>
-0.0127638

>  <SCORE.RESTR>
0

>  <SCORE.RESTR.CAVITY>
0

>  <SCORE.RESTR.norm>
0

>  <SCORE.SYSTEM>
0

>  <SCORE.SYSTEM.CONST>
0

>  <SCORE.SYSTEM.DIHEDRAL>
0

>  <SCORE.SYSTEM.SOLV>
0

>  <SCORE.SYSTEM.norm>
0

>  <SCORE.heavy>
41

>  <SCORE.norm>
-0.1851

>  <RMSD>
5.344

$$$$
ligand
 OpenBabel11021811423D
libRbt.so/2013.1/901 2013/11/27
 41 45  0  0  0  0  0  0  0  0999 V2000
   35.7317   38.8148    7.6354 C   0  0  2  0  0  0  0  0  0  0  0  0
   35.2334   38.8923    6.2855 O   0  0  0  0  0  0  0  0  0  0  0  0
   33.3499   41.9675    3.8537 C   0  0  2  0  0  0  0  0  0  0  0  0
   32.4298   43.0643    3.4566 N   0  0  0  0  0  0  0  0  0  0  0  0
   37.6436   42.0749    5.9580 C   0  0  1  0  0  0  0  0  0  0  0  0
   42.2451   42.0884    6.3868 C   0  0  1  0  0  0  0  0  0  0  0  0
   37.0696   38.0185    7.6948 C   0  0  2  0  0  0  0  0  0  0  0  0
   38.0875   38.5421    6.7789 N   0  0  0  0  0  0  0  0  0  0  0  0
   32.5050   40.7542    4.3557 C   0  0  0  0  0  0  0  0  0  0  0  0
   38.4764   42.6804    7.1111 C   0  0  2  0  0  0  0  0  0  0  0  0
   38.6668   44.0895    6.9481 O   0  0  0  0  0  0  0  0  0  0  0  0
   43.1774   42.8131    5.3248 C   0  0  2  0  0  0  0  0  0  0  0  0
   42.6546   42.7712    3.9248 N   0  0  0  0  0  0  0  0  0  0  0  0
   36.8136   36.5159    7.4001 C   0  0  1  0  0  0  0  0  0  0  0  0
   38.0355   35.7870    7.4821 O   0  0  0  0  0  0  0  0  0  0  0  0
   33.4187   39.5731    4.7940 C   0  0  2  0  0  0  0  0  0  0  0  0
   32.5475   38.4705    5.2424 N   0  0  0  0  0  0  0  0  0  0  0  0
   39.7968   41.8916    7.0901 C   0  0  2  0  0  0  0  0  0  0  0  0
   40.8661   42.6054    6.3508 O   0  0  0  0  0  0  0  0  0  0  0  0
   44.6424   42.1830    5.3720 C   0  0  1  0  0  0  0  0  0  0  0  0
   45.3023   42.4861    6.6208 O   0  0  0  0  0  0  0  0  0  0  0  0
   35.7773   35.9570    8.4024 C   0  0  2  0  0  0  0  0  0  0  0  0
   35.5524   34.5856    8.1514 O   0  0  0  0  0  0  0  0  0  0  0  0
   34.4131   40.0484    5.9119 C   0  0  2  0  0  0  0  0  0  0  0  0
   39.4281   40.5757    6.4108 C   0  0  2  0  0  0  0  0  0  0  0  0
   38.2892   40.8498    5.6072 O   0  0  0  0  0  0  0  0  0  0  0  0
   44.6233   40.6136    5.1769 C   0  0  2  0  0  0  0  0  0  0  0  0
   44.2032   40.3087    3.8364 O   0  0  0  0  0  0  0  0  0  0  0  0
   34.4590   36.7497    8.3009 C   0  0  2  0  0  0  0  0  0  0  0  0
   34.7549   38.1781    8.5497 O   0  0  0  0  0  0  0  0  0  0  0  0
   35.3010   41.2723    5.3585 C   0  0  2  0  0  0  0  0  0  0  0  0
   36.2492   41.8031    6.3749 O   0  0  0  0  0  0  0  0  0  0  0  0
   39.0551   39.4668    7.3837 C   0  0  0  0  0  0  0  0  0  0  0  0
   43.6466   39.9541    6.2331 C   0  0  1  0  0  0  0  0  0  0  0  0
   42.2863   40.5914    6.2097 O   0  0  0  0  0  0  0  0  0  0  0  0
   33.4392   36.1979    9.3243 C   0  0  0  0  0  0  0  0  0  0  0  0
   32.1789   36.9577    9.4172 N   0  0  0  0  0  0  0  0  0  0  0  0
   34.3735   42.4391    4.9571 C   0  0  1  0  0  0  0  0  0  0  0  0
   35.1619   43.5281    4.4662 O   0  0  0  0  0  0  0  0  0  0  0  0
   43.5249   38.3892    6.0792 C   0  0  0  0  0  0  0  0  0  0  0  0
   44.7829   37.6029    6.2850 N   0  0  0  0  0  0  0  0  0  0  0  0
  1  2  1  6  0  0  0
  1  7  1  0  0  0  0
  1 30  1  0  0  0  0
  3  4  1  1  0  0  0
  3  9  1  0  0  0  0
  3 38  1  0  0  0  0
  5 10  1  0  0  0  0
  5 26  1  1  0  0  0
  5 32  1  0  0  0  0
  6 12  1  0  0  0  0
  6 35  1  0  0  0  0
  6 19  1  6  0  0  0
  7  8  1  6  0  0  0
  7 14  1  0  0  0  0
  8 33  1  0  0  0  0
  9 16  1  0  0  0  0
 10 11  1  6  0  0  0
 10 18  1  0  0  0  0
 12 13  1  6  0  0  0
 12 20  1  0  0  0  0
 14 15  1  1  0  0  0
 14 22  1  0  0  0  0
 16 17  1  1  0  0  0
 16 24  1  0  0  0  0
 18 19  1  6  0  0  0
 18 25  1  0  0  0  0
 20 21  1  1  0  0  0
 20 27  1  0  0  0  0
 22 23  1  6  0  0  0
 22 29  1  0  0  0  0
 24  2  1  6  0  0  0
 24 31  1  0  0  0  0
 25 26  1  6  0  0  0
 25 33  1  0  0  0  0
 27 28  1  6  0  0  0
 27 34  1  0  0  0  0
 29 30  1  0  0  0  0
 29 36  1  1  0  0  0
 31 32  1  1  0  0  0
 31 38  1  0  0  0  0
 34 35  1  0  0  0  0
 34 40  1  6  0  0  0
 36 37  1  0  0  0  0
 38 39  1  6  0  0  0
 40 41  1  0  0  0  0
M  END
>  <CHROM.1>
171.58046367,169.01586854,174.37212998,62.26705166,38.07841186,40.05397741
6.30993688,-2.86827297,-0.01756646,-0.44445683

>  <Name>
ligand

>  <RI>
0

>  <Rbt.Current_Directory>
/home/itssahil/PROJECTS/Mol_Feturizer/New_Systems/rnas/1ZZ5

>  <Rbt.Executable>
rbdock ($Id: //depot/dev/client3/rdock/2013.1/src/exe/rbdock.cxx#4 $)

>  <Rbt.Library>
libRbt.so (2013.1, Build901 2013/11/27)

>  <Rbt.Parameter_File>
/export/apps/rDock/src/rDock_2013.1_src/data/scripts/dock_solv.prm

>  <Rbt.Receptor>
prm/pocket_docking_4.prm

>  <SCORE>
-7.59429

>  <SCORE.INTER>
-5.3762

>  <SCORE.INTER.CONST>
1

>  <SCORE.INTER.POLAR>
0

>  <SCORE.INTER.ROT>
4

>  <SCORE.INTER.SOLV>
20.8193

>  <SCORE.INTER.VDW>
-16.7906

>  <SCORE.INTER.norm>
-0.131127

>  <SCORE.INTRA>
-2.21809

>  <SCORE.INTRA.DIHEDRAL>
-3.9167

>  <SCORE.INTRA.DIHEDRAL.0>
5.18357

>  <SCORE.INTRA.POLAR>
0

>  <SCORE.INTRA.POLAR.0>
0

>  <SCORE.INTRA.REPUL>
0

>  <SCORE.INTRA.REPUL.0>
0

>  <SCORE.INTRA.SOLV>
-1.03523

>  <SCORE.INTRA.SOLV.lig_0>
-109.973

>  <SCORE.INTRA.VDW>
0.257874

>  <SCORE.INTRA.VDW.0>
-1.68646

>  <SCORE.INTRA.norm>
-0.0540998

>  <SCORE.RESTR>
0

>  <SCORE.RESTR.CAVITY>
0

>  <SCORE.RESTR.norm>
0

>  <SCORE.SYSTEM>
0

>  <SCORE.SYSTEM.CONST>
0

>  <SCORE.SYSTEM.DIHEDRAL>
0

>  <SCORE.SYSTEM.SOLV>
0

>  <SCORE.SYSTEM.norm>
0

>  <SCORE.heavy>
41

>  <SCORE.norm>
-0.185227

>  <RMSD>
5.377

$$$$
ligand
 OpenBabel11021811423D
libRbt.so/2013.1/901 2013/11/27
 41 45  0  0  0  0  0  0  0  0999 V2000
   34.6886   38.9516    7.8061 C   0  0  2  0  0  0  0  0  0  0  0  0
   34.3011   38.8906    6.4195 O   0  0  0  0  0  0  0  0  0  0  0  0
   33.2406   41.8065    3.3714 C   0  0  2  0  0  0  0  0  0  0  0  0
   32.5906   42.9746    2.7231 N   0  0  0  0  0  0  0  0  0  0  0  0
   37.3269   41.4485    5.8307 C   0  0  1  0  0  0  0  0  0  0  0  0
   41.7735   40.5961    6.6167 C   0  0  1  0  0  0  0  0  0  0  0  0
   35.8291   37.9360    8.1151 C   0  0  2  0  0  0  0  0  0  0  0  0
   36.9872   38.0900    7.2296 N   0  0  0  0  0  0  0  0  0  0  0  0
   32.1359   40.8818    3.9736 C   0  0  0  0  0  0  0  0  0  0  0  0
   38.1931   42.0717    6.9493 C   0  0  2  0  0  0  0  0  0  0  0  0
   38.6775   43.3692    6.5878 O   0  0  0  0  0  0  0  0  0  0  0  0
   43.0171   41.2101    5.8429 C   0  0  2  0  0  0  0  0  0  0  0  0
   42.7726   41.4499    4.3878 N   0  0  0  0  0  0  0  0  0  0  0  0
   35.2897   36.4824    8.0349 C   0  0  1  0  0  0  0  0  0  0  0  0
   36.3293   35.5580    8.3447 O   0  0  0  0  0  0  0  0  0  0  0  0
   32.7598   39.6405    4.6750 C   0  0  2  0  0  0  0  0  0  0  0  0
   31.6554   38.8187    5.2048 N   0  0  0  0  0  0  0  0  0  0  0  0
   39.3230   41.0530    7.1765 C   0  0  2  0  0  0  0  0  0  0  0  0
   40.5593   41.4113    6.4399 O   0  0  0  0  0  0  0  0  0  0  0  0
   44.2892   40.2648    6.0270 C   0  0  1  0  0  0  0  0  0  0  0  0
   44.7467   40.2643    7.3972 O   0  0  0  0  0  0  0  0  0  0  0  0
   34.1011   36.3125    9.0091 C   0  0  2  0  0  0  0  0  0  0  0  0
   33.6163   34.9873    8.9543 O   0  0  0  0  0  0  0  0  0  0  0  0
   33.7594   40.1009    5.7944 C   0  0  2  0  0  0  0  0  0  0  0  0
   38.7356   39.7355    6.6783 C   0  0  2  0  0  0  0  0  0  0  0  0
   37.7287   40.0807    5.7376 O   0  0  0  0  0  0  0  0  0  0  0  0
   43.9921   38.7736    5.5915 C   0  0  2  0  0  0  0  0  0  0  0  0
   43.7820   38.7289    4.1701 O   0  0  0  0  0  0  0  0  0  0  0  0
   32.9817   37.3137    8.6610 C   0  0  2  0  0  0  0  0  0  0  0  0
   33.5476   38.6800    8.7115 O   0  0  0  0  0  0  0  0  0  0  0  0
   34.9113   41.0188    5.1440 C   0  0  2  0  0  0  0  0  0  0  0  0
   35.8834   41.5244    6.1508 O   0  0  0  0  0  0  0  0  0  0  0  0
   38.0842   38.9020    7.7721 C   0  0  0  0  0  0  0  0  0  0  0  0
   42.7201   38.2334    6.3624 C   0  0  1  0  0  0  0  0  0  0  0  0
   41.5456   39.1592    6.2196 O   0  0  0  0  0  0  0  0  0  0  0  0
   31.8094   37.1512    9.6565 C   0  0  0  0  0  0  0  0  0  0  0  0
   31.1693   35.8228    9.6512 N   0  0  0  0  0  0  0  0  0  0  0  0
   34.2687   42.2553    4.4800 C   0  0  1  0  0  0  0  0  0  0  0  0
   35.2921   43.0726    3.9026 O   0  0  0  0  0  0  0  0  0  0  0  0
   42.3176   36.7649    5.9512 C   0  0  0  0  0  0  0  0  0  0  0  0
   41.1447   36.1730    6.6705 N   0  0  0  0  0  0  0  0  0  0  0  0
  1  2  1  6  0  0  0
  1  7  1  0  0  0  0
  1 30  1  0  0  0  0
  3  4  1  1  0  0  0
  3  9  1  0  0  0  0
  3 38  1  0  0  0  0
  5 10  1  0  0  0  0
  5 26  1  1  0  0  0
  5 32  1  0  0  0  0
  6 12  1  0  0  0  0
  6 35  1  0  0  0  0
  6 19  1  6  0  0  0
  7  8  1  6  0  0  0
  7 14  1  0  0  0  0
  8 33  1  0  0  0  0
  9 16  1  0  0  0  0
 10 11  1  6  0  0  0
 10 18  1  0  0  0  0
 12 13  1  6  0  0  0
 12 20  1  0  0  0  0
 14 15  1  1  0  0  0
 14 22  1  0  0  0  0
 16 17  1  1  0  0  0
 16 24  1  0  0  0  0
 18 19  1  6  0  0  0
 18 25  1  0  0  0  0
 20 21  1  1  0  0  0
 20 27  1  0  0  0  0
 22 23  1  6  0  0  0
 22 29  1  0  0  0  0
 24  2  1  6  0  0  0
 24 31  1  0  0  0  0
 25 26  1  6  0  0  0
 25 33  1  0  0  0  0
 27 28  1  6  0  0  0
 27 34  1  0  0  0  0
 29 30  1  0  0  0  0
 29 36  1  1  0  0  0
 31 32  1  1  0  0  0
 31 38  1  0  0  0  0
 34 35  1  0  0  0  0
 34 40  1  6  0  0  0
 36 37  1  0  0  0  0
 38 39  1  6  0  0  0
 40 41  1  0  0  0  0
M  END
>  <CHROM.1>
175.77969030,-175.18550456,-61.22207866,178.28656267,37.29009645,39.46055228
6.45566875,-2.99213308,0.01273811,-0.59457920

>  <Name>
ligand

>  <RI>
0

>  <Rbt.Current_Directory>
/home/itssahil/PROJECTS/Mol_Feturizer/New_Systems/rnas/1ZZ5

>  <Rbt.Executable>
rbdock ($Id: //depot/dev/client3/rdock/2013.1/src/exe/rbdock.cxx#4 $)

>  <Rbt.Library>
libRbt.so (2013.1, Build901 2013/11/27)

>  <Rbt.Parameter_File>
/export/apps/rDock/src/rDock_2013.1_src/data/scripts/dock_solv.prm

>  <Rbt.Receptor>
prm/pocket_docking_4.prm

>  <SCORE>
-6.6988

>  <SCORE.INTER>
-4.82729

>  <SCORE.INTER.CONST>
1

>  <SCORE.INTER.POLAR>
0

>  <SCORE.INTER.ROT>
4

>  <SCORE.INTER.SOLV>
19.985

>  <SCORE.INTER.VDW>
-16.1465

>  <SCORE.INTER.norm>
-0.117739

>  <SCORE.INTRA>
-1.87151

>  <SCORE.INTRA.DIHEDRAL>
-4.73186

>  <SCORE.INTRA.DIHEDRAL.0>
5.18357

>  <SCORE.INTRA.POLAR>
0

>  <SCORE.INTRA.POLAR.0>
0

>  <SCORE.INTRA.REPUL>
0

>  <SCORE.INTRA.REPUL.0>
0

>  <SCORE.INTRA.SOLV>
0.310779

>  <SCORE.INTRA.SOLV.lig_0>
-109.973

>  <SCORE.INTRA.VDW>
0.339032

>  <SCORE.INTRA.VDW.0>
-1.68646

>  <SCORE.INTRA.norm>
-0.0456466

>  <SCORE.RESTR>
0

>  <SCORE.RESTR.CAVITY>
0

>  <SCORE.RESTR.norm>
0

>  <SCORE.SYSTEM>
0

>  <SCORE.SYSTEM.CONST>
0

>  <SCORE.SYSTEM.DIHEDRAL>
0

>  <SCORE.SYSTEM.SOLV>
0

>  <SCORE.SYSTEM.norm>
0

>  <SCORE.heavy>
41

>  <SCORE.norm>
-0.163385

>  <RMSD>
5.398

$$$$
ligand
 OpenBabel11021811423D
libRbt.so/2013.1/901 2013/11/27
 41 45  0  0  0  0  0  0  0  0999 V2000
   35.6267   38.8228    7.5836 C   0  0  2  0  0  0  0  0  0  0  0  0
   35.1603   38.9145    6.2233 O   0  0  0  0  0  0  0  0  0  0  0  0
   33.3174   42.0097    3.7857 C   0  0  2  0  0  0  0  0  0  0  0  0
   32.4006   43.1062    3.3804 N   0  0  0  0  0  0  0  0  0  0  0  0
   37.5591   42.1142    5.9931 C   0  0  1  0  0  0  0  0  0  0  0  0
   42.1338   42.1048    6.4641 C   0  0  1  0  0  0  0  0  0  0  0  0
   36.9675   38.0332    7.6650 C   0  0  2  0  0  0  0  0  0  0  0  0
   38.0039   38.5739    6.7803 N   0  0  0  0  0  0  0  0  0  0  0  0
   32.4678   40.7855    4.2522 C   0  0  0  0  0  0  0  0  0  0  0  0
   38.3606   42.7097    7.1732 C   0  0  2  0  0  0  0  0  0  0  0  0
   38.5468   44.1218    7.0323 O   0  0  0  0  0  0  0  0  0  0  0  0
   43.0844   42.8840    5.4585 C   0  0  2  0  0  0  0  0  0  0  0  0
   42.5614   42.9612    4.0602 N   0  0  0  0  0  0  0  0  0  0  0  0
   36.7273   36.5330    7.3457 C   0  0  1  0  0  0  0  0  0  0  0  0
   37.9511   35.8099    7.4477 O   0  0  0  0  0  0  0  0  0  0  0  0
   33.3777   39.6040    4.6975 C   0  0  2  0  0  0  0  0  0  0  0  0
   32.5024   38.4911    5.1112 N   0  0  0  0  0  0  0  0  0  0  0  0
   39.6858   41.9286    7.1739 C   0  0  2  0  0  0  0  0  0  0  0  0
   40.7682   42.6575    6.4693 O   0  0  0  0  0  0  0  0  0  0  0  0
   44.5332   42.2156    5.4559 C   0  0  1  0  0  0  0  0  0  0  0  0
   45.1999   42.4070    6.7231 O   0  0  0  0  0  0  0  0  0  0  0  0
   35.6707   35.9558    8.3159 C   0  0  2  0  0  0  0  0  0  0  0  0
   35.4597   34.5866    8.0425 O   0  0  0  0  0  0  0  0  0  0  0  0
   34.3425   40.0707    5.8446 C   0  0  2  0  0  0  0  0  0  0  0  0
   39.3410   40.6193    6.4696 C   0  0  2  0  0  0  0  0  0  0  0  0
   38.2199   40.8972    5.6425 O   0  0  0  0  0  0  0  0  0  0  0  0
   44.4747   40.6664    5.1429 C   0  0  2  0  0  0  0  0  0  0  0  0
   44.0477   40.4743    3.7838 O   0  0  0  0  0  0  0  0  0  0  0  0
   34.3506   36.7426    8.1928 C   0  0  2  0  0  0  0  0  0  0  0  0
   34.6322   38.1693    8.4664 O   0  0  0  0  0  0  0  0  0  0  0  0
   35.2361   41.3063    5.3278 C   0  0  2  0  0  0  0  0  0  0  0  0
   36.1567   41.8295    6.3731 O   0  0  0  0  0  0  0  0  0  0  0  0
   38.9514   39.4962    7.4195 C   0  0  0  0  0  0  0  0  0  0  0  0
   43.4814   39.9538    6.1477 C   0  0  1  0  0  0  0  0  0  0  0  0
   42.1374   40.6249    6.1745 O   0  0  0  0  0  0  0  0  0  0  0  0
   33.3100   36.1723    9.1846 C   0  0  0  0  0  0  0  0  0  0  0  0
   33.6803   36.2855   10.6074 N   0  0  0  0  0  0  0  0  0  0  0  0
   34.3116   42.4730    4.9190 C   0  0  1  0  0  0  0  0  0  0  0  0
   35.1052   43.5724    4.4607 O   0  0  0  0  0  0  0  0  0  0  0  0
   43.3204   38.4085    5.8762 C   0  0  0  0  0  0  0  0  0  0  0  0
   44.5556   37.5758    6.0322 N   0  0  0  0  0  0  0  0  0  0  0  0
  1  2  1  6  0  0  0
  1  7  1  0  0  0  0
  1 30  1  0  0  0  0
  3  4  1  1  0  0  0
  3  9  1  0  0  0  0
  3 38  1  0  0  0  0
  5 10  1  0  0  0  0
  5 26  1  1  0  0  0
  5 32  1  0  0  0  0
  6 12  1  0  0  0  0
  6 35  1  0  0  0  0
  6 19  1  6  0  0  0
  7  8  1  6  0  0  0
  7 14  1  0  0  0  0
  8 33  1  0  0  0  0
  9 16  1  0  0  0  0
 10 11  1  6  0  0  0
 10 18  1  0  0  0  0
 12 13  1  6  0  0  0
 12 20  1  0  0  0  0
 14 15  1  1  0  0  0
 14 22  1  0  0  0  0
 16 17  1  1  0  0  0
 16 24  1  0  0  0  0
 18 19  1  6  0  0  0
 18 25  1  0  0  0  0
 20 21  1  1  0  0  0
 20 27  1  0  0  0  0
 22 23  1  6  0  0  0
 22 29  1  0  0  0  0
 24  2  1  6  0  0  0
 24 31  1  0  0  0  0
 25 26  1  6  0  0  0
 25 33  1  0  0  0  0
 27 28  1  6  0  0  0
 27 34  1  0  0  0  0
 29 30  1  0  0  0  0
 29 36  1  1  0  0  0
 31 32  1  1  0  0  0
 31 38  1  0  0  0  0
 34 35  1  0  0  0  0
 34 40  1  6  0  0  0
 36 37  1  0  0  0  0
 38 39  1  6  0  0  0
 40 41  1  0  0  0  0
M  END
>  <CHROM.1>
175.22388343,170.05798509,62.45497490,62.79254287,38.01753093,40.06679966
6.31490826,-2.84924423,-0.02653625,-0.45481285

>  <Name>
ligand

>  <RI>
0

>  <Rbt.Current_Directory>
/home/itssahil/PROJECTS/Mol_Feturizer/New_Systems/rnas/1ZZ5

>  <Rbt.Executable>
rbdock ($Id: //depot/dev/client3/rdock/2013.1/src/exe/rbdock.cxx#4 $)

>  <Rbt.Library>
libRbt.so (2013.1, Build901 2013/11/27)

>  <Rbt.Parameter_File>
/export/apps/rDock/src/rDock_2013.1_src/data/scripts/dock_solv.prm

>  <Rbt.Receptor>
prm/pocket_docking_6.prm

>  <SCORE>
-7.57769

>  <SCORE.INTER>
-5.85265

>  <SCORE.INTER.CONST>
1

>  <SCORE.INTER.POLAR>
0

>  <SCORE.INTER.ROT>
4

>  <SCORE.INTER.SOLV>
19.0273

>  <SCORE.INTER.VDW>
-16.5109

>  <SCORE.INTER.norm>
-0.142748

>  <SCORE.INTRA>
-1.72503

>  <SCORE.INTRA.DIHEDRAL>
-4.32969

>  <SCORE.INTRA.DIHEDRAL.0>
5.18357

>  <SCORE.INTRA.POLAR>
0

>  <SCORE.INTRA.POLAR.0>
0

>  <SCORE.INTRA.REPUL>
0

>  <SCORE.INTRA.REPUL.0>
0

>  <SCORE.INTRA.SOLV>
0.273598

>  <SCORE.INTRA.SOLV.lig_0>
-109.973

>  <SCORE.INTRA.VDW>
0.30301

>  <SCORE.INTRA.VDW.0>
-1.68646

>  <SCORE.INTRA.norm>
-0.042074

>  <SCORE.RESTR>
0

>  <SCORE.RESTR.CAVITY>
0

>  <SCORE.RESTR.norm>
0

>  <SCORE.SYSTEM>
0

>  <SCORE.SYSTEM.CONST>
0

>  <SCORE.SYSTEM.DIHEDRAL>
0

>  <SCORE.SYSTEM.SOLV>
0

>  <SCORE.SYSTEM.norm>
0

>  <SCORE.heavy>
41

>  <SCORE.norm>
-0.184822

>  <RMSD>
5.428

$$$$
ligand
 OpenBabel11021811423D
libRbt.so/2013.1/901 2013/11/27
 41 45  0  0  0  0  0  0  0  0999 V2000
   35.5611   38.8231    7.5273 C   0  0  2  0  0  0  0  0  0  0  0  0
   35.0640   38.8829    6.1760 O   0  0  0  0  0  0  0  0  0  0  0  0
   33.1252   41.9060    3.7226 C   0  0  2  0  0  0  0  0  0  0  0  0
   32.1844   42.9821    3.3173 N   0  0  0  0  0  0  0  0  0  0  0  0
   37.4117   42.1104    5.8341 C   0  0  1  0  0  0  0  0  0  0  0  0
   42.0159   42.2331    6.2938 C   0  0  1  0  0  0  0  0  0  0  0  0
   36.9144   38.0538    7.5938 C   0  0  2  0  0  0  0  0  0  0  0  0
   37.9236   38.5919    6.6767 N   0  0  0  0  0  0  0  0  0  0  0  0
   32.3032   40.6793    4.2302 C   0  0  0  0  0  0  0  0  0  0  0  0
   38.2302   42.7389    6.9852 C   0  0  2  0  0  0  0  0  0  0  0  0
   38.3932   44.1506    6.8141 O   0  0  0  0  0  0  0  0  0  0  0  0
   42.9480   42.9928    5.2564 C   0  0  2  0  0  0  0  0  0  0  0  0
   42.4579   42.9425    3.8450 N   0  0  0  0  0  0  0  0  0  0  0  0
   36.6885   36.5447    7.3076 C   0  0  1  0  0  0  0  0  0  0  0  0
   37.9244   35.8405    7.3961 O   0  0  0  0  0  0  0  0  0  0  0  0
   33.2392   39.5190    4.6772 C   0  0  2  0  0  0  0  0  0  0  0  0
   32.3890   38.4021    5.1305 N   0  0  0  0  0  0  0  0  0  0  0  0
   39.5659   41.9762    6.9712 C   0  0  2  0  0  0  0  0  0  0  0  0
   40.6224   42.7066    6.2297 O   0  0  0  0  0  0  0  0  0  0  0  0
   44.4309   42.4089    5.3330 C   0  0  1  0  0  0  0  0  0  0  0  0
   45.0531   42.7255    6.5977 O   0  0  0  0  0  0  0  0  0  0  0  0
   35.6615   35.9714    8.3112 C   0  0  2  0  0  0  0  0  0  0  0  0
   35.4641   34.5944    8.0679 O   0  0  0  0  0  0  0  0  0  0  0  0
   34.2219   40.0204    5.7940 C   0  0  2  0  0  0  0  0  0  0  0  0
   39.2246   40.6494    6.2990 C   0  0  2  0  0  0  0  0  0  0  0  0
   38.0820   40.8961    5.4917 O   0  0  0  0  0  0  0  0  0  0  0  0
   44.4657   40.8408    5.1297 C   0  0  2  0  0  0  0  0  0  0  0  0
   44.0851   40.5305    3.7786 O   0  0  0  0  0  0  0  0  0  0  0  0
   34.3280   36.7374    8.2026 C   0  0  2  0  0  0  0  0  0  0  0  0
   34.5953   38.1727    8.4436 O   0  0  0  0  0  0  0  0  0  0  0  0
   35.0866   41.2583    5.2350 C   0  0  2  0  0  0  0  0  0  0  0  0
   36.0221   41.8136    6.2500 O   0  0  0  0  0  0  0  0  0  0  0  0
   38.8716   39.5390    7.2778 C   0  0  0  0  0  0  0  0  0  0  0  0
   43.4873   40.1449    6.1605 C   0  0  1  0  0  0  0  0  0  0  0  0
   42.1083   40.7391    6.1101 O   0  0  0  0  0  0  0  0  0  0  0  0
   33.3173   36.1716    9.2274 C   0  0  0  0  0  0  0  0  0  0  0  0
   33.7147   36.3208   10.6395 N   0  0  0  0  0  0  0  0  0  0  0  0
   34.1370   42.4042    4.8251 C   0  0  1  0  0  0  0  0  0  0  0  0
   34.9048   43.5056    4.3292 O   0  0  0  0  0  0  0  0  0  0  0  0
   43.4185   38.5778    5.9961 C   0  0  0  0  0  0  0  0  0  0  0  0
   42.5403   37.8475    6.9649 N   0  0  0  0  0  0  0  0  0  0  0  0
  1  2  1  6  0  0  0
  1  7  1  0  0  0  0
  1 30  1  0  0  0  0
  3  4  1  1  0  0  0
  3  9  1  0  0  0  0
  3 38  1  0  0  0  0
  5 10  1  0  0  0  0
  5 26  1  1  0  0  0
  5 32  1  0  0  0  0
  6 12  1  0  0  0  0
  6 35  1  0  0  0  0
  6 19  1  6  0  0  0
  7  8  1  6  0  0  0
  7 14  1  0  0  0  0
  8 33  1  0  0  0  0
  9 16  1  0  0  0  0
 10 11  1  6  0  0  0
 10 18  1  0  0  0  0
 12 13  1  6  0  0  0
 12 20  1  0  0  0  0
 14 15  1  1  0  0  0
 14 22  1  0  0  0  0
 16 17  1  1  0  0  0
 16 24  1  0  0  0  0
 18 19  1  6  0  0  0
 18 25  1  0  0  0  0
 20 21  1  1  0  0  0
 20 27  1  0  0  0  0
 22 23  1  6  0  0  0
 22 29  1  0  0  0  0
 24  2  1  6  0  0  0
 24 31  1  0  0  0  0
 25 26  1  6  0  0  0
 25 33  1  0  0  0  0
 27 28  1  6  0  0  0
 27 34  1  0  0  0  0
 29 30  1  0  0  0  0
 29 36  1  1  0  0  0
 31 32  1  1  0  0  0
 31 38  1  0  0  0  0
 34 35  1  0  0  0  0
 34 40  1  6  0  0  0
 36 37  1  0  0  0  0
 38 39  1  6  0  0  0
 40 41  1  0  0  0  0
M  END
>  <CHROM.1>
170.32893019,170.65564741,62.65316861,178.34341712,37.88313586,40.09839233
6.25944149,-2.81601726,-0.04935394,-0.48697938

>  <Name>
ligand

>  <RI>
0

>  <Rbt.Current_Directory>
/home/itssahil/PROJECTS/Mol_Feturizer/New_Systems/rnas/1ZZ5

>  <Rbt.Executable>
rbdock ($Id: //depot/dev/client3/rdock/2013.1/src/exe/rbdock.cxx#4 $)

>  <Rbt.Library>
libRbt.so (2013.1, Build901 2013/11/27)

>  <Rbt.Parameter_File>
/export/apps/rDock/src/rDock_2013.1_src/data/scripts/dock_solv.prm

>  <Rbt.Receptor>
prm/pocket_docking_5.prm

>  <SCORE>
-7.62773

>  <SCORE.INTER>
-5.9128

>  <SCORE.INTER.CONST>
1

>  <SCORE.INTER.POLAR>
0

>  <SCORE.INTER.ROT>
4

>  <SCORE.INTER.SOLV>
19.6702

>  <SCORE.INTER.VDW>
-16.7653

>  <SCORE.INTER.norm>
-0.144215

>  <SCORE.INTRA>
-1.71493

>  <SCORE.INTRA.DIHEDRAL>
-4.05232

>  <SCORE.INTRA.DIHEDRAL.0>
5.18357

>  <SCORE.INTRA.POLAR>
0

>  <SCORE.INTRA.POLAR.0>
0

>  <SCORE.INTRA.REPUL>
0

>  <SCORE.INTRA.REPUL.0>
0

>  <SCORE.INTRA.SOLV>
0.499442

>  <SCORE.INTRA.SOLV.lig_0>
-109.973

>  <SCORE.INTRA.VDW>
0.0615121

>  <SCORE.INTRA.VDW.0>
-1.68646

>  <SCORE.INTRA.norm>
-0.0418275

>  <SCORE.RESTR>
0

>  <SCORE.RESTR.CAVITY>
0

>  <SCORE.RESTR.norm>
0

>  <SCORE.SYSTEM>
0

>  <SCORE.SYSTEM.CONST>
0

>  <SCORE.SYSTEM.DIHEDRAL>
0

>  <SCORE.SYSTEM.SOLV>
0

>  <SCORE.SYSTEM.norm>
0

>  <SCORE.heavy>
41

>  <SCORE.norm>
-0.186042

>  <RMSD>
5.430

$$$$
ligand
 OpenBabel11021811423D
libRbt.so/2013.1/901 2013/11/27
 41 45  0  0  0  0  0  0  0  0999 V2000
   34.1969   39.1274    7.4467 C   0  0  2  0  0  0  0  0  0  0  0  0
   33.6048   38.9704    6.1424 O   0  0  0  0  0  0  0  0  0  0  0  0
   32.1732   41.6712    3.0482 C   0  0  2  0  0  0  0  0  0  0  0  0
   31.4629   42.8073    2.4063 N   0  0  0  0  0  0  0  0  0  0  0  0
   36.5715   41.3583    4.9007 C   0  0  1  0  0  0  0  0  0  0  0  0
   41.0508   41.9720    5.4989 C   0  0  1  0  0  0  0  0  0  0  0  0
   35.3450   38.0978    7.6693 C   0  0  2  0  0  0  0  0  0  0  0  0
   36.3610   38.1373    6.6131 N   0  0  0  0  0  0  0  0  0  0  0  0
   31.1483   40.8395    3.8825 C   0  0  0  0  0  0  0  0  0  0  0  0
   37.6107   42.0360    5.8229 C   0  0  2  0  0  0  0  0  0  0  0  0
   38.0680   43.2814    5.2857 O   0  0  0  0  0  0  0  0  0  0  0  0
   42.1342   42.1377    4.3496 C   0  0  2  0  0  0  0  0  0  0  0  0
   42.5395   40.8521    3.7032 N   0  0  0  0  0  0  0  0  0  0  0  0
   34.7635   36.6636    7.7925 C   0  0  1  0  0  0  0  0  0  0  0  0
   35.8142   35.7287    8.0229 O   0  0  0  0  0  0  0  0  0  0  0  0
   31.8389   39.6357    4.5867 C   0  0  2  0  0  0  0  0  0  0  0  0
   30.8060   38.9007    5.3409 N   0  0  0  0  0  0  0  0  0  0  0  0
   38.7360   40.9972    5.9666 C   0  0  2  0  0  0  0  0  0  0  0  0
   39.8567   41.2490    5.0284 O   0  0  0  0  0  0  0  0  0  0  0  0
   43.4232   42.8817    4.9244 C   0  0  1  0  0  0  0  0  0  0  0  0
   43.1257   44.2527    5.2691 O   0  0  0  0  0  0  0  0  0  0  0  0
   33.7303   36.6166    8.9418 C   0  0  2  0  0  0  0  0  0  0  0  0
   33.2097   35.3103    9.0712 O   0  0  0  0  0  0  0  0  0  0  0  0
   33.0061   40.1463    5.5039 C   0  0  2  0  0  0  0  0  0  0  0  0
   38.0478   39.6670    5.6734 C   0  0  2  0  0  0  0  0  0  0  0  0
   36.9203   39.9734    4.8654 O   0  0  0  0  0  0  0  0  0  0  0  0
   44.0123   42.1549    6.1997 C   0  0  2  0  0  0  0  0  0  0  0  0
   44.5451   40.8773    5.8120 O   0  0  0  0  0  0  0  0  0  0  0  0
   32.5968   37.6280    8.6789 C   0  0  2  0  0  0  0  0  0  0  0  0
   33.1980   38.9718    8.5299 O   0  0  0  0  0  0  0  0  0  0  0  0
   34.0703   40.9657    4.6158 C   0  0  2  0  0  0  0  0  0  0  0  0
   35.1945   41.5133    5.4222 O   0  0  0  0  0  0  0  0  0  0  0  0
   37.5469   38.9484    6.9177 C   0  0  0  0  0  0  0  0  0  0  0  0
   42.8779   41.9810    7.2892 C   0  0  1  0  0  0  0  0  0  0  0  0
   41.6530   41.3232    6.7198 O   0  0  0  0  0  0  0  0  0  0  0  0
   31.5831   37.5893    9.8462 C   0  0  0  0  0  0  0  0  0  0  0  0
   32.1219   38.0137   11.1515 N   0  0  0  0  0  0  0  0  0  0  0  0
   33.3667   42.1684    3.9515 C   0  0  1  0  0  0  0  0  0  0  0  0
   34.3122   42.8982    3.1628 O   0  0  0  0  0  0  0  0  0  0  0  0
   43.3640   41.2170    8.5805 C   0  0  0  0  0  0  0  0  0  0  0  0
   44.4274   41.8931    9.3899 N   0  0  0  0  0  0  0  0  0  0  0  0
  1  2  1  6  0  0  0
  1  7  1  0  0  0  0
  1 30  1  0  0  0  0
  3  4  1  1  0  0  0
  3  9  1  0  0  0  0
  3 38  1  0  0  0  0
  5 10  1  0  0  0  0
  5 26  1  1  0  0  0
  5 32  1  0  0  0  0
  6 12  1  0  0  0  0
  6 35  1  0  0  0  0
  6 19  1  6  0  0  0
  7  8  1  6  0  0  0
  7 14  1  0  0  0  0
  8 33  1  0  0  0  0
  9 16  1  0  0  0  0
 10 11  1  6  0  0  0
 10 18  1  0  0  0  0
 12 13  1  1  0  0  0
 12 20  1  0  0  0  0
 14 15  1  1  0  0  0
 14 22  1  0  0  0  0
 16 17  1  1  0  0  0
 16 24  1  0  0  0  0
 18 19  1  6  0  0  0
 18 25  1  0  0  0  0
 20 21  1  1  0  0  0
 20 27  1  0  0  0  0
 22 23  1  6  0  0  0
 22 29  1  0  0  0  0
 24  2  1  6  0  0  0
 24 31  1  0  0  0  0
 25 26  1  6  0  0  0
 25 33  1  0  0  0  0
 27 28  1  6  0  0  0
 27 34  1  0  0  0  0
 29 30  1  0  0  0  0
 29 36  1  1  0  0  0
 31 32  1  1  0  0  0
 31 38  1  0  0  0  0
 34 35  1  0  0  0  0
 34 40  1  1  0  0  0
 36 37  1  0  0  0  0
 38 39  1  6  0  0  0
 40 41  1  0  0  0  0
M  END
>  <CHROM.1>
97.44081363,179.90291657,64.11898879,63.93350141,36.86549069,40.27828831
6.20065176,-2.89157777,-0.18196499,-0.82972771

>  <Name>
ligand

>  <RI>
0

>  <Rbt.Current_Directory>
/home/itssahil/PROJECTS/Mol_Feturizer/New_Systems/rnas/1ZZ5

>  <Rbt.Executable>
rbdock ($Id: //depot/dev/client3/rdock/2013.1/src/exe/rbdock.cxx#4 $)

>  <Rbt.Library>
libRbt.so (2013.1, Build901 2013/11/27)

>  <Rbt.Parameter_File>
/export/apps/rDock/src/rDock_2013.1_src/data/scripts/dock_solv.prm

>  <Rbt.Receptor>
prm/pocket_docking_6.prm

>  <SCORE>
-8.85062

>  <SCORE.INTER>
-9.12349

>  <SCORE.INTER.CONST>
1

>  <SCORE.INTER.POLAR>
0

>  <SCORE.INTER.ROT>
4

>  <SCORE.INTER.SOLV>
19.1265

>  <SCORE.INTER.VDW>
-18.7245

>  <SCORE.INTER.norm>
-0.222524

>  <SCORE.INTRA>
0.272005

>  <SCORE.INTRA.DIHEDRAL>
0.0603946

>  <SCORE.INTRA.DIHEDRAL.0>
5.18357

>  <SCORE.INTRA.POLAR>
0

>  <SCORE.INTRA.POLAR.0>
0

>  <SCORE.INTRA.REPUL>
0

>  <SCORE.INTRA.REPUL.0>
0

>  <SCORE.INTRA.SOLV>
0.0885357

>  <SCORE.INTRA.SOLV.lig_0>
-109.973

>  <SCORE.INTRA.VDW>
0.19754

>  <SCORE.INTRA.VDW.0>
-1.68646

>  <SCORE.INTRA.norm>
0.00663428

>  <SCORE.RESTR>
0.000856208

>  <SCORE.RESTR.CAVITY>
0.000856208

>  <SCORE.RESTR.norm>
2.08831e-05

>  <SCORE.SYSTEM>
0

>  <SCORE.SYSTEM.CONST>
0

>  <SCORE.SYSTEM.DIHEDRAL>
0

>  <SCORE.SYSTEM.SOLV>
0

>  <SCORE.SYSTEM.norm>
0

>  <SCORE.heavy>
41

>  <SCORE.norm>
-0.215869

>  <RMSD>
5.434

$$$$
ligand
 OpenBabel11021811423D
libRbt.so/2013.1/901 2013/11/27
 41 45  0  0  0  0  0  0  0  0999 V2000
   39.4064   40.0588    4.5637 C   0  0  2  0  0  0  0  0  0  0  0  0
   39.4583   39.2495    5.7549 O   0  0  0  0  0  0  0  0  0  0  0  0
   40.0144   35.0194    6.6006 C   0  0  2  0  0  0  0  0  0  0  0  0
   39.8527   33.5452    6.5123 N   0  0  0  0  0  0  0  0  0  0  0  0
   42.9825   37.9972    4.3206 C   0  0  1  0  0  0  0  0  0  0  0  0
   46.6802   40.6071    3.7078 C   0  0  1  0  0  0  0  0  0  0  0  0
   40.1594   41.4074    4.7684 C   0  0  2  0  0  0  0  0  0  0  0  0
   41.5384   41.2275    5.2323 N   0  0  0  0  0  0  0  0  0  0  0  0
   38.6111   35.6713    6.8102 C   0  0  0  0  0  0  0  0  0  0  0  0
   43.5745   38.3943    2.9488 C   0  0  2  0  0  0  0  0  0  0  0  0
   44.4056   37.3621    2.4081 O   0  0  0  0  0  0  0  0  0  0  0  0
   48.1769   40.1439    3.9677 C   0  0  2  0  0  0  0  0  0  0  0  0
   48.3200   39.1200    5.0474 N   0  0  0  0  0  0  0  0  0  0  0  0
   39.3799   42.3123    5.7604 C   0  0  1  0  0  0  0  0  0  0  0  0
   40.0579   43.5551    5.9238 O   0  0  0  0  0  0  0  0  0  0  0  0
   38.7171   37.2212    6.9028 C   0  0  2  0  0  0  0  0  0  0  0  0
   37.3577   37.7552    7.1094 N   0  0  0  0  0  0  0  0  0  0  0  0
   44.3420   39.6991    3.2220 C   0  0  2  0  0  0  0  0  0  0  0  0
   45.7906   39.4646    3.4365 O   0  0  0  0  0  0  0  0  0  0  0  0
   49.0849   41.4120    4.3038 C   0  0  1  0  0  0  0  0  0  0  0  0
   49.2235   42.2758    3.1542 O   0  0  0  0  0  0  0  0  0  0  0  0
   37.9422   42.5401    5.2391 C   0  0  2  0  0  0  0  0  0  0  0  0
   37.2323   43.3770    6.1280 O   0  0  0  0  0  0  0  0  0  0  0  0
   39.3989   37.7921    5.6091 C   0  0  2  0  0  0  0  0  0  0  0  0
   43.6743   40.2633    4.4729 C   0  0  2  0  0  0  0  0  0  0  0  0
   43.0990   39.1547    5.1497 O   0  0  0  0  0  0  0  0  0  0  0  0
   48.5048   42.2590    5.5069 C   0  0  2  0  0  0  0  0  0  0  0  0
   48.5980   41.4878    6.7165 O   0  0  0  0  0  0  0  0  0  0  0  0
   37.2177   41.1897    5.0713 C   0  0  2  0  0  0  0  0  0  0  0  0
   38.0128   40.3467    4.1510 O   0  0  0  0  0  0  0  0  0  0  0  0
   40.8594   37.1368    5.4356 C   0  0  2  0  0  0  0  0  0  0  0  0
   41.5594   37.6042    4.2087 O   0  0  0  0  0  0  0  0  0  0  0  0
   42.5605   41.2574    4.1781 C   0  0  0  0  0  0  0  0  0  0  0  0
   47.0014   42.6532    5.2090 C   0  0  1  0  0  0  0  0  0  0  0  0
   46.1712   41.4546    4.8466 O   0  0  0  0  0  0  0  0  0  0  0  0
   35.7901   41.4286    4.5267 C   0  0  0  0  0  0  0  0  0  0  0  0
   34.9211   40.2374    4.5174 N   0  0  0  0  0  0  0  0  0  0  0  0
   40.7236   35.6036    5.3187 C   0  0  1  0  0  0  0  0  0  0  0  0
   42.0213   35.0202    5.1631 O   0  0  0  0  0  0  0  0  0  0  0  0
   46.3228   43.4592    6.3826 C   0  0  0  0  0  0  0  0  0  0  0  0
   46.9375   44.7827    6.7201 N   0  0  0  0  0  0  0  0  0  0  0  0
  1  2  1  1  0  0  0
  1  7  1  0  0  0  0
  1 30  1  0  0  0  0
  3  4  1  6  0  0  0
  3  9  1  0  0  0  0
  3 38  1  0  0  0  0
  5 10  1  0  0  0  0
  5 26  1  1  0  0  0
  5 32  1  0  0  0  0
  6 12  1  0  0  0  0
  6 35  1  0  0  0  0
  6 19  1  1  0  0  0
  7  8  1  1  0  0  0
  7 14  1  0  0  0  0
  8 33  1  0  0  0  0
  9 16  1  0  0  0  0
 10 11  1  1  0  0  0
 10 18  1  0  0  0  0
 12 13  1  1  0  0  0
 12 20  1  0  0  0  0
 14 15  1  6  0  0  0
 14 22  1  0  0  0  0
 16 17  1  6  0  0  0
 16 24  1  0  0  0  0
 18 19  1  1  0  0  0
 18 25  1  0  0  0  0
 20 21  1  6  0  0  0
 20 27  1  0  0  0  0
 22 23  1  1  0  0  0
 22 29  1  0  0  0  0
 24  2  1  1  0  0  0
 24 31  1  0  0  0  0
 25 26  1  6  0  0  0
 25 33  1  0  0  0  0
 27 28  1  1  0  0  0
 27 34  1  0  0  0  0
 29 30  1  0  0  0  0
 29 36  1  6  0  0  0
 31 32  1  6  0  0  0
 31 38  1  0  0  0  0
 34 35  1  0  0  0  0
 34 40  1  1  0  0  0
 36 37  1  0  0  0  0
 38 39  1  1  0  0  0
 40 41  1  0  0  0  0
M  END
>  <CHROM.1>
179.82440375,177.62836686,-170.99055289,61.92256558,42.35376529,39.83186133
5.04192484,2.88876713,-0.09319363,-3.12102348

>  <Name>
ligand

>  <RI>
0

>  <Rbt.Current_Directory>
/home/itssahil/PROJECTS/Mol_Feturizer/New_Systems/rnas/1ZZ5

>  <Rbt.Executable>
rbdock ($Id: //depot/dev/client3/rdock/2013.1/src/exe/rbdock.cxx#4 $)

>  <Rbt.Library>
libRbt.so (2013.1, Build901 2013/11/27)

>  <Rbt.Parameter_File>
/export/apps/rDock/src/rDock_2013.1_src/data/scripts/dock_solv.prm

>  <Rbt.Receptor>
prm/pocket_docking_8.prm

>  <SCORE>
-8.84994

>  <SCORE.INTER>
-6.42266

>  <SCORE.INTER.CONST>
1

>  <SCORE.INTER.POLAR>
0

>  <SCORE.INTER.ROT>
4

>  <SCORE.INTER.SOLV>
13.8487

>  <SCORE.INTER.VDW>
-15.1647

>  <SCORE.INTER.norm>
-0.15665

>  <SCORE.INTRA>
-2.42728

>  <SCORE.INTRA.DIHEDRAL>
-4.62418

>  <SCORE.INTRA.DIHEDRAL.0>
5.18357

>  <SCORE.INTRA.POLAR>
0

>  <SCORE.INTRA.POLAR.0>
0

>  <SCORE.INTRA.REPUL>
0

>  <SCORE.INTRA.REPUL.0>
0

>  <SCORE.INTRA.SOLV>
-1.06239

>  <SCORE.INTRA.SOLV.lig_0>
-109.973

>  <SCORE.INTRA.VDW>
0.416005

>  <SCORE.INTRA.VDW.0>
-1.68646

>  <SCORE.INTRA.norm>
-0.0592018

>  <SCORE.RESTR>
0

>  <SCORE.RESTR.CAVITY>
0

>  <SCORE.RESTR.norm>
0

>  <SCORE.SYSTEM>
0

>  <SCORE.SYSTEM.CONST>
0

>  <SCORE.SYSTEM.DIHEDRAL>
0

>  <SCORE.SYSTEM.SOLV>
0

>  <SCORE.SYSTEM.norm>
0

>  <SCORE.heavy>
41

>  <SCORE.norm>
-0.215852

>  <RMSD>
5.444

$$$$
ligand
 OpenBabel11021811423D
libRbt.so/2013.1/901 2013/11/27
 41 45  0  0  0  0  0  0  0  0999 V2000
   35.1625   39.0155    7.9441 C   0  0  2  0  0  0  0  0  0  0  0  0
   35.0189   39.1159    6.5138 O   0  0  0  0  0  0  0  0  0  0  0  0
   33.5083   42.1233    3.7586 C   0  0  2  0  0  0  0  0  0  0  0  0
   32.6109   43.1483    3.1657 N   0  0  0  0  0  0  0  0  0  0  0  0
   37.0899   42.5225    6.9030 C   0  0  1  0  0  0  0  0  0  0  0  0
   41.4105   42.8726    8.3810 C   0  0  1  0  0  0  0  0  0  0  0  0
   36.5164   38.3458    8.3265 C   0  0  2  0  0  0  0  0  0  0  0  0
   37.6739   39.0090    7.7187 N   0  0  0  0  0  0  0  0  0  0  0  0
   32.6938   40.8120    3.9934 C   0  0  0  0  0  0  0  0  0  0  0  0
   37.5343   43.1427    8.2475 C   0  0  2  0  0  0  0  0  0  0  0  0
   37.6129   44.5700    8.1759 O   0  0  0  0  0  0  0  0  0  0  0  0
   42.4827   43.9799    7.9986 C   0  0  2  0  0  0  0  0  0  0  0  0
   42.3635   44.4866    6.5972 N   0  0  0  0  0  0  0  0  0  0  0  0
   36.5009   36.8431    7.9368 C   0  0  1  0  0  0  0  0  0  0  0  0
   37.7305   36.2284    8.3128 O   0  0  0  0  0  0  0  0  0  0  0  0
   33.5832   39.7004    4.6222 C   0  0  2  0  0  0  0  0  0  0  0  0
   32.7457   38.4994    4.8014 N   0  0  0  0  0  0  0  0  0  0  0  0
   38.8910   42.4830    8.5480 C   0  0  2  0  0  0  0  0  0  0  0  0
   40.0334   43.3309    8.1289 O   0  0  0  0  0  0  0  0  0  0  0  0
   43.9546   43.4153    8.2441 C   0  0  1  0  0  0  0  0  0  0  0  0
   44.2088   43.2114    9.6515 O   0  0  0  0  0  0  0  0  0  0  0  0
   35.3074   36.1387    8.6223 C   0  0  2  0  0  0  0  0  0  0  0  0
   35.2971   34.7671    8.2862 O   0  0  0  0  0  0  0  0  0  0  0  0
   34.2056   40.2080    5.9710 C   0  0  2  0  0  0  0  0  0  0  0  0
   38.8458   41.1753    7.7625 C   0  0  2  0  0  0  0  0  0  0  0  0
   37.9269   41.3829    6.6993 O   0  0  0  0  0  0  0  0  0  0  0  0
   44.2057   42.0527    7.4813 C   0  0  2  0  0  0  0  0  0  0  0  0
   44.2050   42.2967    6.0646 O   0  0  0  0  0  0  0  0  0  0  0  0
   33.9835   36.8089    8.2042 C   0  0  2  0  0  0  0  0  0  0  0  0
   34.0566   38.2438    8.5581 O   0  0  0  0  0  0  0  0  0  0  0  0
   35.0732   41.5366    5.6978 C   0  0  2  0  0  0  0  0  0  0  0  0
   35.6712   42.1003    6.9382 O   0  0  0  0  0  0  0  0  0  0  0  0
   38.3545   39.9875    8.5768 C   0  0  0  0  0  0  0  0  0  0  0  0
   43.0837   41.0065    7.8696 C   0  0  1  0  0  0  0  0  0  0  0  0
   41.7043   41.5706    7.6791 O   0  0  0  0  0  0  0  0  0  0  0  0
   32.7997   36.1120    8.9146 C   0  0  0  0  0  0  0  0  0  0  0  0
   32.7946   36.2390   10.3836 N   0  0  0  0  0  0  0  0  0  0  0  0
   34.1627   42.6307    5.1008 C   0  0  1  0  0  0  0  0  0  0  0  0
   34.9328   43.8126    4.8588 O   0  0  0  0  0  0  0  0  0  0  0  0
   43.2252   39.6295    7.1138 C   0  0  0  0  0  0  0  0  0  0  0  0
   43.1228   39.6793    5.6204 N   0  0  0  0  0  0  0  0  0  0  0  0
  1  2  1  6  0  0  0
  1  7  1  0  0  0  0
  1 30  1  0  0  0  0
  3  4  1  1  0  0  0
  3  9  1  0  0  0  0
  3 38  1  0  0  0  0
  5 10  1  0  0  0  0
  5 26  1  1  0  0  0
  5 32  1  0  0  0  0
  6 12  1  0  0  0  0
  6 35  1  0  0  0  0
  6 19  1  6  0  0  0
  7  8  1  6  0  0  0
  7 14  1  0  0  0  0
  8 33  1  0  0  0  0
  9 16  1  0  0  0  0
 10 11  1  6  0  0  0
 10 18  1  0  0  0  0
 12 13  1  6  0  0  0
 12 20  1  0  0  0  0
 14 15  1  1  0  0  0
 14 22  1  0  0  0  0
 16 17  1  1  0  0  0
 16 24  1  0  0  0  0
 18 19  1  6  0  0  0
 18 25  1  0  0  0  0
 20 21  1  1  0  0  0
 20 27  1  0  0  0  0
 22 23  1  6  0  0  0
 22 29  1  0  0  0  0
 24  2  1  6  0  0  0
 24 31  1  0  0  0  0
 25 26  1  6  0  0  0
 25 33  1  0  0  0  0
 27 28  1  6  0  0  0
 27 34  1  0  0  0  0
 29 30  1  0  0  0  0
 29 36  1  1  0  0  0
 31 32  1  1  0  0  0
 31 38  1  0  0  0  0
 34 35  1  0  0  0  0
 34 40  1  6  0  0  0
 36 37  1  0  0  0  0
 38 39  1  6  0  0  0
 40 41  1  0  0  0  0
M  END
>  <CHROM.1>
178.05379314,-174.09527195,64.19312732,-61.45758469,37.63931200,40.59491700
7.19052255,-2.80282653,-0.26748908,-0.43626881

>  <Name>
ligand

>  <RI>
0

>  <Rbt.Current_Directory>
/home/itssahil/PROJECTS/Mol_Feturizer/New_Systems/rnas/1ZZ5

>  <Rbt.Executable>
rbdock ($Id: //depot/dev/client3/rdock/2013.1/src/exe/rbdock.cxx#4 $)

>  <Rbt.Library>
libRbt.so (2013.1, Build901 2013/11/27)

>  <Rbt.Parameter_File>
/export/apps/rDock/src/rDock_2013.1_src/data/scripts/dock_solv.prm

>  <Rbt.Receptor>
prm/pocket_docking_5.prm

>  <SCORE>
-5.8463

>  <SCORE.INTER>
-4.28506

>  <SCORE.INTER.CONST>
1

>  <SCORE.INTER.POLAR>
0

>  <SCORE.INTER.ROT>
4

>  <SCORE.INTER.SOLV>
16.2026

>  <SCORE.INTER.VDW>
-14.5242

>  <SCORE.INTER.norm>
-0.104514

>  <SCORE.INTRA>
-1.56124

>  <SCORE.INTRA.DIHEDRAL>
-4.68984

>  <SCORE.INTRA.DIHEDRAL.0>
5.18357

>  <SCORE.INTRA.POLAR>
0

>  <SCORE.INTRA.POLAR.0>
0

>  <SCORE.INTRA.REPUL>
0

>  <SCORE.INTRA.REPUL.0>
0

>  <SCORE.INTRA.SOLV>
1.41687

>  <SCORE.INTRA.SOLV.lig_0>
-109.973

>  <SCORE.INTRA.VDW>
0.0752449

>  <SCORE.INTRA.VDW.0>
-1.68646

>  <SCORE.INTRA.norm>
-0.0380791

>  <SCORE.RESTR>
0

>  <SCORE.RESTR.CAVITY>
0

>  <SCORE.RESTR.norm>
0

>  <SCORE.SYSTEM>
0

>  <SCORE.SYSTEM.CONST>
0

>  <SCORE.SYSTEM.DIHEDRAL>
0

>  <SCORE.SYSTEM.SOLV>
0

>  <SCORE.SYSTEM.norm>
0

>  <SCORE.heavy>
41

>  <SCORE.norm>
-0.142593

>  <RMSD>
5.454

$$$$
ligand
 OpenBabel11021811423D
libRbt.so/2013.1/901 2013/11/27
 41 45  0  0  0  0  0  0  0  0999 V2000
   34.1438   39.3189    7.1838 C   0  0  2  0  0  0  0  0  0  0  0  0
   33.5421   39.1111    5.8910 O   0  0  0  0  0  0  0  0  0  0  0  0
   31.8037   41.6756    2.8383 C   0  0  2  0  0  0  0  0  0  0  0  0
   30.9783   42.7426    2.2158 N   0  0  0  0  0  0  0  0  0  0  0  0
   36.2490   41.7668    4.6005 C   0  0  1  0  0  0  0  0  0  0  0  0
   40.8413   42.4092    5.1678 C   0  0  1  0  0  0  0  0  0  0  0  0
   35.3866   38.3996    7.3787 C   0  0  2  0  0  0  0  0  0  0  0  0
   36.3727   38.5358    6.3025 N   0  0  0  0  0  0  0  0  0  0  0  0
   30.8775   40.7504    3.6893 C   0  0  0  0  0  0  0  0  0  0  0  0
   37.2397   42.5355    5.5046 C   0  0  2  0  0  0  0  0  0  0  0  0
   37.5686   43.8193    4.9638 O   0  0  0  0  0  0  0  0  0  0  0  0
   41.9149   42.5347    4.0042 C   0  0  2  0  0  0  0  0  0  0  0  0
   42.0814   41.2915    3.1909 N   0  0  0  0  0  0  0  0  0  0  0  0
   34.9430   36.9174    7.5072 C   0  0  1  0  0  0  0  0  0  0  0  0
   36.0802   36.0833    7.7123 O   0  0  0  0  0  0  0  0  0  0  0  0
   31.6908   39.6139    4.3741 C   0  0  2  0  0  0  0  0  0  0  0  0
   30.7461   38.7844    5.1457 N   0  0  0  0  0  0  0  0  0  0  0  0
   38.4590   41.6051    5.6210 C   0  0  2  0  0  0  0  0  0  0  0  0
   39.5321   41.9621    4.6616 O   0  0  0  0  0  0  0  0  0  0  0  0
   43.3232   42.9732    4.6126 C   0  0  1  0  0  0  0  0  0  0  0  0
   43.2718   44.3199    5.1328 O   0  0  0  0  0  0  0  0  0  0  0  0
   33.9423   36.7719    8.6769 C   0  0  2  0  0  0  0  0  0  0  0  0
   33.5476   35.4226    8.8109 O   0  0  0  0  0  0  0  0  0  0  0  0
   32.8242   40.2282    5.2699 C   0  0  2  0  0  0  0  0  0  0  0  0
   37.8911   40.2176    5.3359 C   0  0  2  0  0  0  0  0  0  0  0  0
   36.7238   40.4203    4.5520 O   0  0  0  0  0  0  0  0  0  0  0  0
   43.8031   42.0027    5.7655 C   0  0  2  0  0  0  0  0  0  0  0  0
   44.1014   40.7132    5.2046 O   0  0  0  0  0  0  0  0  0  0  0  0
   32.7149   37.6746    8.4413 C   0  0  2  0  0  0  0  0  0  0  0  0
   33.1859   39.0688    8.2862 O   0  0  0  0  0  0  0  0  0  0  0  0
   33.7896   41.1449    4.3642 C   0  0  2  0  0  0  0  0  0  0  0  0
   34.8745   41.7922    5.1502 O   0  0  0  0  0  0  0  0  0  0  0  0
   37.4843   39.4525    6.5867 C   0  0  0  0  0  0  0  0  0  0  0  0
   42.6767   41.8852    6.8707 C   0  0  1  0  0  0  0  0  0  0  0  0
   41.3465   41.5195    6.2757 O   0  0  0  0  0  0  0  0  0  0  0  0
   31.7332   37.5392    9.6286 C   0  0  0  0  0  0  0  0  0  0  0  0
   31.0585   38.7897   10.0228 N   0  0  0  0  0  0  0  0  0  0  0  0
   32.9642   42.2788    3.7195 C   0  0  1  0  0  0  0  0  0  0  0  0
   33.8218   43.0951    2.9152 O   0  0  0  0  0  0  0  0  0  0  0  0
   43.0491   40.8934    8.0391 C   0  0  0  0  0  0  0  0  0  0  0  0
   44.2389   41.2646    8.8699 N   0  0  0  0  0  0  0  0  0  0  0  0
  1  2  1  6  0  0  0
  1  7  1  0  0  0  0
  1 30  1  0  0  0  0
  3  4  1  1  0  0  0
  3  9  1  0  0  0  0
  3 38  1  0  0  0  0
  5 10  1  0  0  0  0
  5 26  1  1  0  0  0
  5 32  1  0  0  0  0
  6 12  1  0  0  0  0
  6 35  1  0  0  0  0
  6 19  1  6  0  0  0
  7  8  1  6  0  0  0
  7 14  1  0  0  0  0
  8 33  1  0  0  0  0
  9 16  1  0  0  0  0
 10 11  1  6  0  0  0
 10 18  1  0  0  0  0
 12 13  1  1  0  0  0
 12 20  1  0  0  0  0
 14 15  1  1  0  0  0
 14 22  1  0  0  0  0
 16 17  1  1  0  0  0
 16 24  1  0  0  0  0
 18 19  1  6  0  0  0
 18 25  1  0  0  0  0
 20 21  1  1  0  0  0
 20 27  1  0  0  0  0
 22 23  1  6  0  0  0
 22 29  1  0  0  0  0
 24  2  1  6  0  0  0
 24 31  1  0  0  0  0
 25 26  1  6  0  0  0
 25 33  1  0  0  0  0
 27 28  1  6  0  0  0
 27 34  1  0  0  0  0
 29 30  1  0  0  0  0
 29 36  1  1  0  0  0
 31 32  1  1  0  0  0
 31 38  1  0  0  0  0
 34 35  1  0  0  0  0
 34 40  1  1  0  0  0
 36 37  1  0  0  0  0
 38 39  1  6  0  0  0
 40 41  1  0  0  0  0
M  END
>  <CHROM.1>
116.55393110,171.48920550,142.56531376,63.16492226,36.68030049,40.47186724
5.86994188,-2.89733302,-0.15755750,-0.79265678

>  <Name>
ligand

>  <RI>
0

>  <Rbt.Current_Directory>
/home/itssahil/PROJECTS/Mol_Feturizer/New_Systems/rnas/1ZZ5

>  <Rbt.Executable>
rbdock ($Id: //depot/dev/client3/rdock/2013.1/src/exe/rbdock.cxx#4 $)

>  <Rbt.Library>
libRbt.so (2013.1, Build901 2013/11/27)

>  <Rbt.Parameter_File>
/export/apps/rDock/src/rDock_2013.1_src/data/scripts/dock_solv.prm

>  <Rbt.Receptor>
prm/pocket_docking_5.prm

>  <SCORE>
-8.02284

>  <SCORE.INTER>
-10.9815

>  <SCORE.INTER.CONST>
1

>  <SCORE.INTER.POLAR>
0

>  <SCORE.INTER.ROT>
4

>  <SCORE.INTER.SOLV>
25.6491

>  <SCORE.INTER.VDW>
-22.1374

>  <SCORE.INTER.norm>
-0.267842

>  <SCORE.INTRA>
2.95868

>  <SCORE.INTRA.DIHEDRAL>
6.11283

>  <SCORE.INTRA.DIHEDRAL.0>
5.18357

>  <SCORE.INTRA.POLAR>
0

>  <SCORE.INTRA.POLAR.0>
0

>  <SCORE.INTRA.REPUL>
0

>  <SCORE.INTRA.REPUL.0>
0

>  <SCORE.INTRA.SOLV>
-0.822527

>  <SCORE.INTRA.SOLV.lig_0>
-109.973

>  <SCORE.INTRA.VDW>
0.31353

>  <SCORE.INTRA.VDW.0>
-1.68646

>  <SCORE.INTRA.norm>
0.072163

>  <SCORE.RESTR>
0

>  <SCORE.RESTR.CAVITY>
0

>  <SCORE.RESTR.norm>
0

>  <SCORE.SYSTEM>
0

>  <SCORE.SYSTEM.CONST>
0

>  <SCORE.SYSTEM.DIHEDRAL>
0

>  <SCORE.SYSTEM.SOLV>
0

>  <SCORE.SYSTEM.norm>
0

>  <SCORE.heavy>
41

>  <SCORE.norm>
-0.195679

>  <RMSD>
5.544

$$$$
ligand
 OpenBabel11021811423D
libRbt.so/2013.1/901 2013/11/27
 41 45  0  0  0  0  0  0  0  0999 V2000
   33.9806   39.2436    7.2525 C   0  0  2  0  0  0  0  0  0  0  0  0
   33.3902   39.0333    5.9550 O   0  0  0  0  0  0  0  0  0  0  0  0
   31.8061   41.6016    2.8225 C   0  0  2  0  0  0  0  0  0  0  0  0
   31.0353   42.6883    2.1651 N   0  0  0  0  0  0  0  0  0  0  0  0
   36.2246   41.5462    4.6524 C   0  0  1  0  0  0  0  0  0  0  0  0
   40.7759   42.1710    5.2646 C   0  0  1  0  0  0  0  0  0  0  0  0
   35.1809   38.2779    7.4860 C   0  0  2  0  0  0  0  0  0  0  0  0
   36.1878   38.3500    6.4229 N   0  0  0  0  0  0  0  0  0  0  0  0
   30.8294   40.7340    3.6778 C   0  0  0  0  0  0  0  0  0  0  0  0
   37.2329   42.2924    5.5559 C   0  0  2  0  0  0  0  0  0  0  0  0
   37.6231   43.5496    4.9938 O   0  0  0  0  0  0  0  0  0  0  0  0
   41.8712   42.2842    4.1202 C   0  0  2  0  0  0  0  0  0  0  0  0
   42.1375   41.0008    3.4013 N   0  0  0  0  0  0  0  0  0  0  0  0
   34.6739   36.8184    7.6382 C   0  0  1  0  0  0  0  0  0  0  0  0
   35.7721   35.9425    7.8785 O   0  0  0  0  0  0  0  0  0  0  0  0
   31.5843   39.5797    4.3989 C   0  0  2  0  0  0  0  0  0  0  0  0
   30.5944   38.8068    5.1725 N   0  0  0  0  0  0  0  0  0  0  0  0
   38.4104   41.3149    5.7108 C   0  0  2  0  0  0  0  0  0  0  0  0
   39.5117   41.6065    4.7613 O   0  0  0  0  0  0  0  0  0  0  0  0
   43.2320   42.8536    4.7283 C   0  0  1  0  0  0  0  0  0  0  0  0
   43.0821   44.2271    5.1501 O   0  0  0  0  0  0  0  0  0  0  0  0
   33.6507   36.7396    8.7948 C   0  0  2  0  0  0  0  0  0  0  0  0
   33.1981   35.4111    8.9505 O   0  0  0  0  0  0  0  0  0  0  0  0
   32.7289   40.1655    5.2995 C   0  0  2  0  0  0  0  0  0  0  0  0
   37.7893   39.9464    5.4456 C   0  0  2  0  0  0  0  0  0  0  0  0
   36.6433   40.1804    4.6394 O   0  0  0  0  0  0  0  0  0  0  0  0
   43.7397   41.9984    5.9580 C   0  0  2  0  0  0  0  0  0  0  0  0
   44.1334   40.6949    5.4972 O   0  0  0  0  0  0  0  0  0  0  0  0
   32.4658   37.6872    8.5212 C   0  0  2  0  0  0  0  0  0  0  0  0
   32.9968   39.0570    8.3446 O   0  0  0  0  0  0  0  0  0  0  0  0
   33.7451   41.0218    4.3904 C   0  0  2  0  0  0  0  0  0  0  0  0
   34.8443   41.6404    5.1797 O   0  0  0  0  0  0  0  0  0  0  0  0
   37.3324   39.2258    6.7055 C   0  0  0  0  0  0  0  0  0  0  0  0
   42.5927   41.8857    7.0425 C   0  0  1  0  0  0  0  0  0  0  0  0
   41.3049   41.3948    6.4443 O   0  0  0  0  0  0  0  0  0  0  0  0
   31.4616   37.6180    9.6954 C   0  0  0  0  0  0  0  0  0  0  0  0
   31.9955   38.0610   10.9965 N   0  0  0  0  0  0  0  0  0  0  0  0
   32.9775   42.1750    3.7093 C   0  0  1  0  0  0  0  0  0  0  0  0
   33.8803   42.9376    2.9018 O   0  0  0  0  0  0  0  0  0  0  0  0
   42.9940   41.0035    8.2867 C   0  0  0  0  0  0  0  0  0  0  0  0
   41.9653   40.8749    9.3677 N   0  0  0  0  0  0  0  0  0  0  0  0
  1  2  1  6  0  0  0
  1  7  1  0  0  0  0
  1 30  1  0  0  0  0
  3  4  1  1  0  0  0
  3  9  1  0  0  0  0
  3 38  1  0  0  0  0
  5 10  1  0  0  0  0
  5 26  1  1  0  0  0
  5 32  1  0  0  0  0
  6 12  1  0  0  0  0
  6 35  1  0  0  0  0
  6 19  1  6  0  0  0
  7  8  1  6  0  0  0
  7 14  1  0  0  0  0
  8 33  1  0  0  0  0
  9 16  1  0  0  0  0
 10 11  1  6  0  0  0
 10 18  1  0  0  0  0
 12 13  1  1  0  0  0
 12 20  1  0  0  0  0
 14 15  1  1  0  0  0
 14 22  1  0  0  0  0
 16 17  1  1  0  0  0
 16 24  1  0  0  0  0
 18 19  1  6  0  0  0
 18 25  1  0  0  0  0
 20 21  1  1  0  0  0
 20 27  1  0  0  0  0
 22 23  1  6  0  0  0
 22 29  1  0  0  0  0
 24  2  1  6  0  0  0
 24 31  1  0  0  0  0
 25 26  1  6  0  0  0
 25 33  1  0  0  0  0
 27 28  1  6  0  0  0
 27 34  1  0  0  0  0
 29 30  1  0  0  0  0
 29 36  1  1  0  0  0
 31 32  1  1  0  0  0
 31 38  1  0  0  0  0
 34 35  1  0  0  0  0
 34 40  1  1  0  0  0
 36 37  1  0  0  0  0
 38 39  1  6  0  0  0
 40 41  1  0  0  0  0
M  END
>  <CHROM.1>
108.90293119,174.67614170,62.65745213,178.82405100,36.55273339,40.33282230
5.98954521,-2.88796149,-0.17149280,-0.83975219

>  <Name>
ligand

>  <RI>
0

>  <Rbt.Current_Directory>
/home/itssahil/PROJECTS/Mol_Feturizer/New_Systems/rnas/1ZZ5

>  <Rbt.Executable>
rbdock ($Id: //depot/dev/client3/rdock/2013.1/src/exe/rbdock.cxx#4 $)

>  <Rbt.Library>
libRbt.so (2013.1, Build901 2013/11/27)

>  <Rbt.Parameter_File>
/export/apps/rDock/src/rDock_2013.1_src/data/scripts/dock_solv.prm

>  <Rbt.Receptor>
prm/pocket_docking_3.prm

>  <SCORE>
-9.63957

>  <SCORE.INTER>
-10.9202

>  <SCORE.INTER.CONST>
1

>  <SCORE.INTER.POLAR>
0

>  <SCORE.INTER.ROT>
4

>  <SCORE.INTER.SOLV>
20.5857

>  <SCORE.INTER.VDW>
-20.4087

>  <SCORE.INTER.norm>
-0.266347

>  <SCORE.INTRA>
0.914714

>  <SCORE.INTRA.DIHEDRAL>
1.74208

>  <SCORE.INTRA.DIHEDRAL.0>
5.18357

>  <SCORE.INTRA.POLAR>
0

>  <SCORE.INTRA.POLAR.0>
0

>  <SCORE.INTRA.REPUL>
0

>  <SCORE.INTRA.REPUL.0>
0

>  <SCORE.INTRA.SOLV>
-0.274513

>  <SCORE.INTRA.SOLV.lig_0>
-109.973

>  <SCORE.INTRA.VDW>
0.18093

>  <SCORE.INTRA.VDW.0>
-1.68646

>  <SCORE.INTRA.norm>
0.0223101

>  <SCORE.RESTR>
0.365941

>  <SCORE.RESTR.CAVITY>
0.365941

>  <SCORE.RESTR.norm>
0.00892538

>  <SCORE.SYSTEM>
0

>  <SCORE.SYSTEM.CONST>
0

>  <SCORE.SYSTEM.DIHEDRAL>
0

>  <SCORE.SYSTEM.SOLV>
0

>  <SCORE.SYSTEM.norm>
0

>  <SCORE.heavy>
41

>  <SCORE.norm>
-0.235111

>  <RMSD>
5.548

$$$$
ligand
 OpenBabel11021811423D
libRbt.so/2013.1/901 2013/11/27
 41 45  0  0  0  0  0  0  0  0999 V2000
   34.0073   39.3364    7.1792 C   0  0  2  0  0  0  0  0  0  0  0  0
   33.4011   39.1360    5.8873 O   0  0  0  0  0  0  0  0  0  0  0  0
   31.6810   41.7208    2.8414 C   0  0  2  0  0  0  0  0  0  0  0  0
   30.8646   42.7965    2.2219 N   0  0  0  0  0  0  0  0  0  0  0  0
   36.1306   41.7674    4.5947 C   0  0  1  0  0  0  0  0  0  0  0  0
   40.7343   42.3519    5.1535 C   0  0  1  0  0  0  0  0  0  0  0  0
   35.2416   38.4050    7.3703 C   0  0  2  0  0  0  0  0  0  0  0  0
   36.2268   38.5331    6.2923 N   0  0  0  0  0  0  0  0  0  0  0  0
   30.7477   40.8034    3.6930 C   0  0  0  0  0  0  0  0  0  0  0  0
   37.1303   42.5255    5.4977 C   0  0  2  0  0  0  0  0  0  0  0  0
   37.4704   43.8068    4.9579 O   0  0  0  0  0  0  0  0  0  0  0  0
   41.8134   42.4361    3.9913 C   0  0  2  0  0  0  0  0  0  0  0  0
   41.9507   41.1791    3.1939 N   0  0  0  0  0  0  0  0  0  0  0  0
   34.7842   36.9269    7.4979 C   0  0  1  0  0  0  0  0  0  0  0  0
   35.9138   36.0817    7.6996 O   0  0  0  0  0  0  0  0  0  0  0  0
   31.5516   39.6584    4.3748 C   0  0  2  0  0  0  0  0  0  0  0  0
   30.6005   38.8369    5.1472 N   0  0  0  0  0  0  0  0  0  0  0  0
   38.3410   41.5833    5.6105 C   0  0  2  0  0  0  0  0  0  0  0  0
   39.4155   41.9312    4.6494 O   0  0  0  0  0  0  0  0  0  0  0  0
   43.2307   42.8470    4.5980 C   0  0  1  0  0  0  0  0  0  0  0  0
   43.2116   44.2010    5.1013 O   0  0  0  0  0  0  0  0  0  0  0  0
   33.7845   36.7895    8.6694 C   0  0  2  0  0  0  0  0  0  0  0  0
   33.3772   35.4439    8.8025 O   0  0  0  0  0  0  0  0  0  0  0  0
   32.6926   40.2606    5.2691 C   0  0  2  0  0  0  0  0  0  0  0  0
   37.7592   40.2016    5.3248 C   0  0  2  0  0  0  0  0  0  0  0  0
   36.5924   40.4164    4.5435 O   0  0  0  0  0  0  0  0  0  0  0  0
   43.6836   41.8793    5.7641 C   0  0  2  0  0  0  0  0  0  0  0  0
   43.9510   40.5758    5.2200 O   0  0  0  0  0  0  0  0  0  0  0  0
   32.5653   37.7042    8.4375 C   0  0  2  0  0  0  0  0  0  0  0  0
   33.0493   39.0940    8.2832 O   0  0  0  0  0  0  0  0  0  0  0  0
   33.6649   41.1692    4.3626 C   0  0  2  0  0  0  0  0  0  0  0  0
   34.7575   41.8052    5.1472 O   0  0  0  0  0  0  0  0  0  0  0  0
   37.3478   39.4388    6.5755 C   0  0  0  0  0  0  0  0  0  0  0  0
   42.5519   41.8037    6.8677 C   0  0  1  0  0  0  0  0  0  0  0  0
   41.2145   41.4638    6.2737 O   0  0  0  0  0  0  0  0  0  0  0  0
   31.5847   37.5766    9.6266 C   0  0  0  0  0  0  0  0  0  0  0  0
   30.9971   36.2362    9.8065 N   0  0  0  0  0  0  0  0  0  0  0  0
   32.8491   42.3119    3.7210 C   0  0  1  0  0  0  0  0  0  0  0  0
   33.7128   43.1210    2.9160 O   0  0  0  0  0  0  0  0  0  0  0  0
   42.8968   40.8176    8.0493 C   0  0  0  0  0  0  0  0  0  0  0  0
   41.8789   40.7118    9.1430 N   0  0  0  0  0  0  0  0  0  0  0  0
  1  2  1  6  0  0  0
  1  7  1  0  0  0  0
  1 30  1  0  0  0  0
  3  4  1  1  0  0  0
  3  9  1  0  0  0  0
  3 38  1  0  0  0  0
  5 10  1  0  0  0  0
  5 26  1  1  0  0  0
  5 32  1  0  0  0  0
  6 12  1  0  0  0  0
  6 35  1  0  0  0  0
  6 19  1  6  0  0  0
  7  8  1  6  0  0  0
  7 14  1  0  0  0  0
  8 33  1  0  0  0  0
  9 16  1  0  0  0  0
 10 11  1  6  0  0  0
 10 18  1  0  0  0  0
 12 13  1  1  0  0  0
 12 20  1  0  0  0  0
 14 15  1  1  0  0  0
 14 22  1  0  0  0  0
 16 17  1  1  0  0  0
 16 24  1  0  0  0  0
 18 19  1  6  0  0  0
 18 25  1  0  0  0  0
 20 21  1  1  0  0  0
 20 27  1  0  0  0  0
 22 23  1  6  0  0  0
 22 29  1  0  0  0  0
 24  2  1  6  0  0  0
 24 31  1  0  0  0  0
 25 26  1  6  0  0  0
 25 33  1  0  0  0  0
 27 28  1  6  0  0  0
 27 34  1  0  0  0  0
 29 30  1  0  0  0  0
 29 36  1  1  0  0  0
 31 32  1  1  0  0  0
 31 38  1  0  0  0  0
 34 35  1  0  0  0  0
 34 40  1  1  0  0  0
 36 37  1  0  0  0  0
 38 39  1  6  0  0  0
 40 41  1  0  0  0  0
M  END
>  <CHROM.1>
117.17920663,170.10057387,-63.23716171,179.06160106,36.49887196,40.38350723
5.86678411,-2.86552285,-0.15612527,-0.77504379

>  <Name>
ligand

>  <RI>
0

>  <Rbt.Current_Directory>
/home/itssahil/PROJECTS/Mol_Feturizer/New_Systems/rnas/1ZZ5

>  <Rbt.Executable>
rbdock ($Id: //depot/dev/client3/rdock/2013.1/src/exe/rbdock.cxx#4 $)

>  <Rbt.Library>
libRbt.so (2013.1, Build901 2013/11/27)

>  <Rbt.Parameter_File>
/export/apps/rDock/src/rDock_2013.1_src/data/scripts/dock_solv.prm

>  <Rbt.Receptor>
prm/pocket_docking_5.prm

>  <SCORE>
-10.4815

>  <SCORE.INTER>
-12.0374

>  <SCORE.INTER.CONST>
1

>  <SCORE.INTER.POLAR>
0

>  <SCORE.INTER.ROT>
4

>  <SCORE.INTER.SOLV>
24.2036

>  <SCORE.INTER.VDW>
-22.3595

>  <SCORE.INTER.norm>
-0.293596

>  <SCORE.INTRA>
1.55593

>  <SCORE.INTRA.DIHEDRAL>
2.62231

>  <SCORE.INTRA.DIHEDRAL.0>
5.18357

>  <SCORE.INTRA.POLAR>
0

>  <SCORE.INTRA.POLAR.0>
0

>  <SCORE.INTRA.REPUL>
0

>  <SCORE.INTRA.REPUL.0>
0

>  <SCORE.INTRA.SOLV>
-0.331231

>  <SCORE.INTRA.SOLV.lig_0>
-109.973

>  <SCORE.INTRA.VDW>
0.410393

>  <SCORE.INTRA.VDW.0>
-1.68646

>  <SCORE.INTRA.norm>
0.0379496

>  <SCORE.RESTR>
0

>  <SCORE.RESTR.CAVITY>
0

>  <SCORE.RESTR.norm>
0

>  <SCORE.SYSTEM>
0

>  <SCORE.SYSTEM.CONST>
0

>  <SCORE.SYSTEM.DIHEDRAL>
0

>  <SCORE.SYSTEM.SOLV>
0

>  <SCORE.SYSTEM.norm>
0

>  <SCORE.heavy>
41

>  <SCORE.norm>
-0.255646

>  <RMSD>
5.577

$$$$
ligand
 OpenBabel11021811423D
libRbt.so/2013.1/901 2013/11/27
 41 45  0  0  0  0  0  0  0  0999 V2000
   35.6819   40.2886    8.7914 C   0  0  2  0  0  0  0  0  0  0  0  0
   35.2283   39.6572    7.5781 O   0  0  0  0  0  0  0  0  0  0  0  0
   33.3205   41.0109    3.9113 C   0  0  2  0  0  0  0  0  0  0  0  0
   32.3756   41.7164    3.0076 N   0  0  0  0  0  0  0  0  0  0  0  0
   37.5317   42.3639    5.7306 C   0  0  1  0  0  0  0  0  0  0  0  0
   42.1101   42.8016    6.1443 C   0  0  1  0  0  0  0  0  0  0  0  0
   37.0449   39.6947    9.2574 C   0  0  2  0  0  0  0  0  0  0  0  0
   38.0744   39.7397    8.2147 N   0  0  0  0  0  0  0  0  0  0  0  0
   32.5030   40.1710    4.9429 C   0  0  0  0  0  0  0  0  0  0  0  0
   38.3015   43.5041    6.4357 C   0  0  2  0  0  0  0  0  0  0  0  0
   38.4464   44.6508    5.5916 O   0  0  0  0  0  0  0  0  0  0  0  0
   43.0931   43.1707    4.9528 C   0  0  2  0  0  0  0  0  0  0  0  0
   42.6881   42.6042    3.6299 N   0  0  0  0  0  0  0  0  0  0  0  0
   36.8538   38.2353    9.7514 C   0  0  1  0  0  0  0  0  0  0  0  0
   38.0977   37.7053   10.2017 O   0  0  0  0  0  0  0  0  0  0  0  0
   33.4432   39.4128    5.9245 C   0  0  2  0  0  0  0  0  0  0  0  0
   32.5973   38.6405    6.8541 N   0  0  0  0  0  0  0  0  0  0  0  0
   39.6495   42.8757    6.8281 C   0  0  2  0  0  0  0  0  0  0  0  0
   40.7174   43.1759    5.8437 O   0  0  0  0  0  0  0  0  0  0  0  0
   44.5755   42.7006    5.3092 C   0  0  1  0  0  0  0  0  0  0  0  0
   45.1179   43.4675    6.4067 O   0  0  0  0  0  0  0  0  0  0  0  0
   35.8042   38.2020   10.8863 C   0  0  2  0  0  0  0  0  0  0  0  0
   35.6379   36.8795   11.3526 O   0  0  0  0  0  0  0  0  0  0  0  0
   34.3803   40.4306    6.6662 C   0  0  2  0  0  0  0  0  0  0  0  0
   39.3525   41.3802    6.8943 C   0  0  2  0  0  0  0  0  0  0  0  0
   38.2330   41.1604    6.0478 O   0  0  0  0  0  0  0  0  0  0  0  0
   44.6407   41.1652    5.6830 C   0  0  2  0  0  0  0  0  0  0  0  0
   44.3446   40.3811    4.5151 O   0  0  0  0  0  0  0  0  0  0  0  0
   34.4624   38.7728   10.3858 C   0  0  2  0  0  0  0  0  0  0  0  0
   34.6976   40.1470    9.8899 O   0  0  0  0  0  0  0  0  0  0  0  0
   35.2420   41.2561    5.5852 C   0  0  2  0  0  0  0  0  0  0  0  0
   36.1344   42.2691    6.2108 O   0  0  0  0  0  0  0  0  0  0  0  0
   38.9863   40.8888    8.2870 C   0  0  0  0  0  0  0  0  0  0  0  0
   43.6112   40.8519    6.8432 C   0  0  1  0  0  0  0  0  0  0  0  0
   42.2308   41.3443    6.5129 O   0  0  0  0  0  0  0  0  0  0  0  0
   33.4283   38.7569   11.5357 C   0  0  0  0  0  0  0  0  0  0  0  0
   32.0946   39.2751   11.1792 N   0  0  0  0  0  0  0  0  0  0  0  0
   34.2873   42.0197    4.6427 C   0  0  1  0  0  0  0  0  0  0  0  0
   35.0525   42.7549    3.6821 O   0  0  0  0  0  0  0  0  0  0  0  0
   43.5707   39.3280    7.2476 C   0  0  0  0  0  0  0  0  0  0  0  0
   44.8423   38.7521    7.7905 N   0  0  0  0  0  0  0  0  0  0  0  0
  1  2  1  6  0  0  0
  1  7  1  0  0  0  0
  1 30  1  0  0  0  0
  3  4  1  6  0  0  0
  3  9  1  0  0  0  0
  3 38  1  0  0  0  0
  5 10  1  0  0  0  0
  5 26  1  1  0  0  0
  5 32  1  0  0  0  0
  6 12  1  0  0  0  0
  6 35  1  0  0  0  0
  6 19  1  6  0  0  0
  7  8  1  6  0  0  0
  7 14  1  0  0  0  0
  8 33  1  0  0  0  0
  9 16  1  0  0  0  0
 10 11  1  6  0  0  0
 10 18  1  0  0  0  0
 12 13  1  6  0  0  0
 12 20  1  0  0  0  0
 14 15  1  1  0  0  0
 14 22  1  0  0  0  0
 16 17  1  1  0  0  0
 16 24  1  0  0  0  0
 18 19  1  6  0  0  0
 18 25  1  0  0  0  0
 20 21  1  1  0  0  0
 20 27  1  0  0  0  0
 22 23  1  6  0  0  0
 22 29  1  0  0  0  0
 24  2  1  1  0  0  0
 24 31  1  0  0  0  0
 25 26  1  6  0  0  0
 25 33  1  0  0  0  0
 27 28  1  6  0  0  0
 27 34  1  0  0  0  0
 29 30  1  0  0  0  0
 29 36  1  1  0  0  0
 31 32  1  1  0  0  0
 31 38  1  0  0  0  0
 34 35  1  0  0  0  0
 34 40  1  6  0  0  0
 36 37  1  0  0  0  0
 38 39  1  6  0  0  0
 40 41  1  0  0  0  0
M  END
>  <CHROM.1>
172.19721513,178.43324858,-179.70952851,62.06715834,38.03654948,40.82458049
7.00713837,-2.83012816,-0.05734576,-0.95693224

>  <Name>
ligand

>  <RI>
0

>  <Rbt.Current_Directory>
/home/itssahil/PROJECTS/Mol_Feturizer/New_Systems/rnas/1ZZ5

>  <Rbt.Executable>
rbdock ($Id: //depot/dev/client3/rdock/2013.1/src/exe/rbdock.cxx#4 $)

>  <Rbt.Library>
libRbt.so (2013.1, Build901 2013/11/27)

>  <Rbt.Parameter_File>
/export/apps/rDock/src/rDock_2013.1_src/data/scripts/dock_solv.prm

>  <Rbt.Receptor>
prm/pocket_docking_6.prm

>  <SCORE>
-7.19694

>  <SCORE.INTER>
-4.51688

>  <SCORE.INTER.CONST>
1

>  <SCORE.INTER.POLAR>
0

>  <SCORE.INTER.ROT>
4

>  <SCORE.INTER.SOLV>
18.7594

>  <SCORE.INTER.VDW>
-15.5311

>  <SCORE.INTER.norm>
-0.110168

>  <SCORE.INTRA>
-2.68006

>  <SCORE.INTRA.DIHEDRAL>
-4.63325

>  <SCORE.INTRA.DIHEDRAL.0>
5.18357

>  <SCORE.INTRA.POLAR>
0

>  <SCORE.INTRA.POLAR.0>
0

>  <SCORE.INTRA.REPUL>
0

>  <SCORE.INTRA.REPUL.0>
0

>  <SCORE.INTRA.SOLV>
-1.14395

>  <SCORE.INTRA.SOLV.lig_0>
-109.973

>  <SCORE.INTRA.VDW>
0.208541

>  <SCORE.INTRA.VDW.0>
-1.68646

>  <SCORE.INTRA.norm>
-0.0653673

>  <SCORE.RESTR>
0

>  <SCORE.RESTR.CAVITY>
0

>  <SCORE.RESTR.norm>
0

>  <SCORE.SYSTEM>
0

>  <SCORE.SYSTEM.CONST>
0

>  <SCORE.SYSTEM.DIHEDRAL>
0

>  <SCORE.SYSTEM.SOLV>
0

>  <SCORE.SYSTEM.norm>
0

>  <SCORE.heavy>
41

>  <SCORE.norm>
-0.175535

>  <RMSD>
5.579

$$$$
ligand
 OpenBabel11021811423D
libRbt.so/2013.1/901 2013/11/27
 41 45  0  0  0  0  0  0  0  0999 V2000
   34.0015   39.3373    7.1315 C   0  0  2  0  0  0  0  0  0  0  0  0
   33.4063   39.1253    5.8364 O   0  0  0  0  0  0  0  0  0  0  0  0
   31.6803   41.6792    2.7679 C   0  0  2  0  0  0  0  0  0  0  0  0
   30.8569   42.7437    2.1384 N   0  0  0  0  0  0  0  0  0  0  0  0
   36.1169   41.7798    4.5514 C   0  0  1  0  0  0  0  0  0  0  0  0
   40.7221   42.3782    5.1388 C   0  0  1  0  0  0  0  0  0  0  0  0
   35.2442   38.4198    7.3350 C   0  0  2  0  0  0  0  0  0  0  0  0
   36.2354   38.5538    6.2632 N   0  0  0  0  0  0  0  0  0  0  0  0
   30.7508   40.7556    3.6171 C   0  0  0  0  0  0  0  0  0  0  0  0
   37.1024   42.5521    5.4581 C   0  0  2  0  0  0  0  0  0  0  0  0
   37.4327   43.8346    4.9152 O   0  0  0  0  0  0  0  0  0  0  0  0
   41.8063   42.4540    3.9809 C   0  0  2  0  0  0  0  0  0  0  0  0
   41.9293   41.1997    3.1770 N   0  0  0  0  0  0  0  0  0  0  0  0
   34.8014   36.9375    7.4656 C   0  0  1  0  0  0  0  0  0  0  0  0
   35.9384   36.1051    7.6786 O   0  0  0  0  0  0  0  0  0  0  0  0
   31.5619   39.6219    4.3091 C   0  0  2  0  0  0  0  0  0  0  0  0
   30.6142   38.7937    5.0784 N   0  0  0  0  0  0  0  0  0  0  0  0
   38.3221   41.6231    5.5831 C   0  0  2  0  0  0  0  0  0  0  0  0
   39.3995   41.9784    4.6279 O   0  0  0  0  0  0  0  0  0  0  0  0
   43.2270   42.8421    4.5947 C   0  0  1  0  0  0  0  0  0  0  0  0
   43.2247   44.1934    5.1055 O   0  0  0  0  0  0  0  0  0  0  0  0
   33.7952   36.7944    8.6309 C   0  0  2  0  0  0  0  0  0  0  0  0
   33.4011   35.4452    8.7668 O   0  0  0  0  0  0  0  0  0  0  0  0
   32.6904   40.2398    5.2086 C   0  0  2  0  0  0  0  0  0  0  0  0
   37.7568   40.2343    5.2992 C   0  0  2  0  0  0  0  0  0  0  0  0
   36.5932   40.4336    4.5091 O   0  0  0  0  0  0  0  0  0  0  0  0
   43.6625   41.8619    5.7570 C   0  0  2  0  0  0  0  0  0  0  0  0
   43.9140   40.5579    5.2066 O   0  0  0  0  0  0  0  0  0  0  0  0
   32.5681   37.6952    8.3868 C   0  0  2  0  0  0  0  0  0  0  0  0
   33.0385   39.0894    8.2300 O   0  0  0  0  0  0  0  0  0  0  0  0
   33.6593   41.1548    4.3050 C   0  0  2  0  0  0  0  0  0  0  0  0
   34.7397   41.8055    5.0944 O   0  0  0  0  0  0  0  0  0  0  0  0
   37.3448   39.4724    6.5502 C   0  0  0  0  0  0  0  0  0  0  0  0
   42.5260   41.7957    6.8562 C   0  0  1  0  0  0  0  0  0  0  0  0
   41.1862   41.4775    6.2557 O   0  0  0  0  0  0  0  0  0  0  0  0
   31.5807   37.5623    9.5697 C   0  0  0  0  0  0  0  0  0  0  0  0
   31.0195   36.2124    9.7620 N   0  0  0  0  0  0  0  0  0  0  0  0
   32.8360   42.2861    3.6530 C   0  0  1  0  0  0  0  0  0  0  0  0
   33.6966   43.1009    2.8506 O   0  0  0  0  0  0  0  0  0  0  0  0
   42.8532   40.7985    8.0335 C   0  0  0  0  0  0  0  0  0  0  0  0
   41.8255   40.6930    9.1180 N   0  0  0  0  0  0  0  0  0  0  0  0
  1  2  1  6  0  0  0
  1  7  1  0  0  0  0
  1 30  1  0  0  0  0
  3  4  1  1  0  0  0
  3  9  1  0  0  0  0
  3 38  1  0  0  0  0
  5 10  1  0  0  0  0
  5 26  1  1  0  0  0
  5 32  1  0  0  0  0
  6 12  1  0  0  0  0
  6 35  1  0  0  0  0
  6 19  1  6  0  0  0
  7  8  1  6  0  0  0
  7 14  1  0  0  0  0
  8 33  1  0  0  0  0
  9 16  1  0  0  0  0
 10 11  1  6  0  0  0
 10 18  1  0  0  0  0
 12 13  1  1  0  0  0
 12 20  1  0  0  0  0
 14 15  1  1  0  0  0
 14 22  1  0  0  0  0
 16 17  1  1  0  0  0
 16 24  1  0  0  0  0
 18 19  1  6  0  0  0
 18 25  1  0  0  0  0
 20 21  1  1  0  0  0
 20 27  1  0  0  0  0
 22 23  1  6  0  0  0
 22 29  1  0  0  0  0
 24  2  1  6  0  0  0
 24 31  1  0  0  0  0
 25 26  1  6  0  0  0
 25 33  1  0  0  0  0
 27 28  1  6  0  0  0
 27 34  1  0  0  0  0
 29 30  1  0  0  0  0
 29 36  1  1  0  0  0
 31 32  1  1  0  0  0
 31 38  1  0  0  0  0
 34 35  1  0  0  0  0
 34 40  1  1  0  0  0
 36 37  1  0  0  0  0
 38 39  1  6  0  0  0
 40 41  1  0  0  0  0
M  END
>  <CHROM.1>
118.90786859,169.32160790,-62.47347251,179.50083917,36.49153619,40.38211522
5.82890955,-2.86818152,-0.16177182,-0.77803864

>  <Name>
ligand

>  <RI>
0

>  <Rbt.Current_Directory>
/home/itssahil/PROJECTS/Mol_Feturizer/New_Systems/rnas/1ZZ5

>  <Rbt.Executable>
rbdock ($Id: //depot/dev/client3/rdock/2013.1/src/exe/rbdock.cxx#4 $)

>  <Rbt.Library>
libRbt.so (2013.1, Build901 2013/11/27)

>  <Rbt.Parameter_File>
/export/apps/rDock/src/rDock_2013.1_src/data/scripts/dock_solv.prm

>  <Rbt.Receptor>
prm/pocket_docking_4.prm

>  <SCORE>
-10.5043

>  <SCORE.INTER>
-12.133

>  <SCORE.INTER.CONST>
1

>  <SCORE.INTER.POLAR>
0

>  <SCORE.INTER.ROT>
4

>  <SCORE.INTER.SOLV>
24.4484

>  <SCORE.INTER.VDW>
-22.5048

>  <SCORE.INTER.norm>
-0.295927

>  <SCORE.INTRA>
1.6287

>  <SCORE.INTRA.DIHEDRAL>
2.7098

>  <SCORE.INTRA.DIHEDRAL.0>
5.18357

>  <SCORE.INTRA.POLAR>
0

>  <SCORE.INTRA.POLAR.0>
0

>  <SCORE.INTRA.REPUL>
0

>  <SCORE.INTRA.REPUL.0>
0

>  <SCORE.INTRA.SOLV>
-0.305391

>  <SCORE.INTRA.SOLV.lig_0>
-109.973

>  <SCORE.INTRA.VDW>
0.426496

>  <SCORE.INTRA.VDW.0>
-1.68646

>  <SCORE.INTRA.norm>
0.0397245

>  <SCORE.RESTR>
0

>  <SCORE.RESTR.CAVITY>
0

>  <SCORE.RESTR.norm>
0

>  <SCORE.SYSTEM>
0

>  <SCORE.SYSTEM.CONST>
0

>  <SCORE.SYSTEM.DIHEDRAL>
0

>  <SCORE.SYSTEM.SOLV>
0

>  <SCORE.SYSTEM.norm>
0

>  <SCORE.heavy>
41

>  <SCORE.norm>
-0.256203

>  <RMSD>
5.587

$$$$
ligand
 OpenBabel11021811423D
libRbt.so/2013.1/901 2013/11/27
 41 45  0  0  0  0  0  0  0  0999 V2000
   35.7317   39.8842    8.5038 C   0  0  2  0  0  0  0  0  0  0  0  0
   35.2576   39.4318    7.2205 O   0  0  0  0  0  0  0  0  0  0  0  0
   33.3423   41.3034    3.7932 C   0  0  2  0  0  0  0  0  0  0  0  0
   32.4018   42.1403    3.0043 N   0  0  0  0  0  0  0  0  0  0  0  0
   37.5906   42.3297    5.7357 C   0  0  1  0  0  0  0  0  0  0  0  0
   42.1866   42.6780    6.1843 C   0  0  1  0  0  0  0  0  0  0  0  0
   37.0885   39.2112    8.8699 C   0  0  2  0  0  0  0  0  0  0  0  0
   38.1099   39.3825    7.8324 N   0  0  0  0  0  0  0  0  0  0  0  0
   32.5195   40.3430    4.7090 C   0  0  0  0  0  0  0  0  0  0  0  0
   38.3852   43.3507    6.5819 C   0  0  2  0  0  0  0  0  0  0  0  0
   38.5422   44.5997    5.9008 O   0  0  0  0  0  0  0  0  0  0  0  0
   43.1610   43.1579    5.0257 C   0  0  2  0  0  0  0  0  0  0  0  0
   42.7520   42.7093    3.6595 N   0  0  0  0  0  0  0  0  0  0  0  0
   36.8770   37.7011    9.1619 C   0  0  1  0  0  0  0  0  0  0  0  0
   38.1156   37.0954    9.5226 O   0  0  0  0  0  0  0  0  0  0  0  0
   33.4549   39.4433    5.5679 C   0  0  2  0  0  0  0  0  0  0  0  0
   32.6040   38.5644    6.3921 N   0  0  0  0  0  0  0  0  0  0  0  0
   39.7257   42.6538    6.8706 C   0  0  2  0  0  0  0  0  0  0  0  0
   40.7902   43.0693    5.9252 O   0  0  0  0  0  0  0  0  0  0  0  0
   44.6480   42.6669    5.3315 C   0  0  1  0  0  0  0  0  0  0  0  0
   45.1920   43.3361    6.4903 O   0  0  0  0  0  0  0  0  0  0  0  0
   35.8365   37.5291   10.2926 C   0  0  2  0  0  0  0  0  0  0  0  0
   35.6519   36.1580   10.5758 O   0  0  0  0  0  0  0  0  0  0  0  0
   34.4151   40.3356    6.4317 C   0  0  2  0  0  0  0  0  0  0  0  0
   39.4043   41.1681    6.7350 C   0  0  2  0  0  0  0  0  0  0  0  0
   38.2742   41.0834    5.8783 O   0  0  0  0  0  0  0  0  0  0  0  0
   44.7238   41.1047    5.5664 C   0  0  2  0  0  0  0  0  0  0  0  0
   44.4258   40.4261    4.3347 O   0  0  0  0  0  0  0  0  0  0  0  0
   34.5003   38.1837    9.8890 C   0  0  2  0  0  0  0  0  0  0  0  0
   34.7544   39.6090    9.5829 O   0  0  0  0  0  0  0  0  0  0  0  0
   35.2814   41.2877    5.4646 C   0  0  2  0  0  0  0  0  0  0  0  0
   36.1959   42.1917    6.2132 O   0  0  0  0  0  0  0  0  0  0  0  0
   39.0414   40.4966    8.0513 C   0  0  0  0  0  0  0  0  0  0  0  0
   43.7024   40.6829    6.6991 C   0  0  1  0  0  0  0  0  0  0  0  0
   42.3174   41.1944    6.4208 O   0  0  0  0  0  0  0  0  0  0  0  0
   33.4757   38.0268   11.0367 C   0  0  0  0  0  0  0  0  0  0  0  0
   33.8678   38.6579   12.3104 N   0  0  0  0  0  0  0  0  0  0  0  0
   34.3319   42.1877    4.6453 C   0  0  1  0  0  0  0  0  0  0  0  0
   35.1012   43.0354    3.7861 O   0  0  0  0  0  0  0  0  0  0  0  0
   43.6726   39.1288    6.9661 C   0  0  0  0  0  0  0  0  0  0  0  0
   44.9436   38.5184    7.4713 N   0  0  0  0  0  0  0  0  0  0  0  0
  1  2  1  6  0  0  0
  1  7  1  0  0  0  0
  1 30  1  0  0  0  0
  3  4  1  1  0  0  0
  3  9  1  0  0  0  0
  3 38  1  0  0  0  0
  5 10  1  0  0  0  0
  5 26  1  1  0  0  0
  5 32  1  0  0  0  0
  6 12  1  0  0  0  0
  6 35  1  0  0  0  0
  6 19  1  6  0  0  0
  7  8  1  6  0  0  0
  7 14  1  0  0  0  0
  8 33  1  0  0  0  0
  9 16  1  0  0  0  0
 10 11  1  6  0  0  0
 10 18  1  0  0  0  0
 12 13  1  6  0  0  0
 12 20  1  0  0  0  0
 14 15  1  1  0  0  0
 14 22  1  0  0  0  0
 16 17  1  1  0  0  0
 16 24  1  0  0  0  0
 18 19  1  6  0  0  0
 18 25  1  0  0  0  0
 20 21  1  1  0  0  0
 20 27  1  0  0  0  0
 22 23  1  6  0  0  0
 22 29  1  0  0  0  0
 24  2  1  6  0  0  0
 24 31  1  0  0  0  0
 25 26  1  6  0  0  0
 25 33  1  0  0  0  0
 27 28  1  6  0  0  0
 27 34  1  0  0  0  0
 29 30  1  0  0  0  0
 29 36  1  1  0  0  0
 31 32  1  1  0  0  0
 31 38  1  0  0  0  0
 34 35  1  0  0  0  0
 34 40  1  6  0  0  0
 36 37  1  0  0  0  0
 38 39  1  6  0  0  0
 40 41  1  0  0  0  0
M  END
>  <CHROM.1>
169.92589245,177.26798686,60.78177312,63.06496773,38.13166258,40.63964178
6.84848071,-2.82854981,-0.05367126,-0.85138937

>  <Name>
ligand

>  <RI>
0

>  <Rbt.Current_Directory>
/home/itssahil/PROJECTS/Mol_Feturizer/New_Systems/rnas/1ZZ5

>  <Rbt.Executable>
rbdock ($Id: //depot/dev/client3/rdock/2013.1/src/exe/rbdock.cxx#4 $)

>  <Rbt.Library>
libRbt.so (2013.1, Build901 2013/11/27)

>  <Rbt.Parameter_File>
/export/apps/rDock/src/rDock_2013.1_src/data/scripts/dock_solv.prm

>  <Rbt.Receptor>
prm/pocket_docking_4.prm

>  <SCORE>
-5.98563

>  <SCORE.INTER>
-4.01221

>  <SCORE.INTER.CONST>
1

>  <SCORE.INTER.POLAR>
0

>  <SCORE.INTER.ROT>
4

>  <SCORE.INTER.SOLV>
17.4365

>  <SCORE.INTER.VDW>
-14.7536

>  <SCORE.INTER.norm>
-0.0978588

>  <SCORE.INTRA>
-1.97342

>  <SCORE.INTRA.DIHEDRAL>
-4.40107

>  <SCORE.INTRA.DIHEDRAL.0>
5.18357

>  <SCORE.INTRA.POLAR>
0

>  <SCORE.INTRA.POLAR.0>
0

>  <SCORE.INTRA.REPUL>
0

>  <SCORE.INTRA.REPUL.0>
0

>  <SCORE.INTRA.SOLV>
0.203416

>  <SCORE.INTRA.SOLV.lig_0>
-109.973

>  <SCORE.INTRA.VDW>
0.125405

>  <SCORE.INTRA.VDW.0>
-1.68646

>  <SCORE.INTRA.norm>
-0.0481322

>  <SCORE.RESTR>
0

>  <SCORE.RESTR.CAVITY>
0

>  <SCORE.RESTR.norm>
0

>  <SCORE.SYSTEM>
0

>  <SCORE.SYSTEM.CONST>
0

>  <SCORE.SYSTEM.DIHEDRAL>
0

>  <SCORE.SYSTEM.SOLV>
0

>  <SCORE.SYSTEM.norm>
0

>  <SCORE.heavy>
41

>  <SCORE.norm>
-0.145991

>  <RMSD>
5.605

$$$$
ligand
 OpenBabel11021811423D
libRbt.so/2013.1/901 2013/11/27
 41 45  0  0  0  0  0  0  0  0999 V2000
   33.9834   39.3393    7.1764 C   0  0  2  0  0  0  0  0  0  0  0  0
   33.3825   39.1351    5.8827 O   0  0  0  0  0  0  0  0  0  0  0  0
   31.6704   41.7105    2.8243 C   0  0  2  0  0  0  0  0  0  0  0  0
   30.8548   42.7835    2.1992 N   0  0  0  0  0  0  0  0  0  0  0  0
   36.1130   41.7678    4.5948 C   0  0  1  0  0  0  0  0  0  0  0  0
   40.7194   42.3423    5.1701 C   0  0  1  0  0  0  0  0  0  0  0  0
   35.2184   38.4103    7.3745 C   0  0  2  0  0  0  0  0  0  0  0  0
   36.2076   38.5375    6.3000 N   0  0  0  0  0  0  0  0  0  0  0  0
   30.7352   40.7935    3.6744 C   0  0  0  0  0  0  0  0  0  0  0  0
   37.1081   42.5294    5.5000 C   0  0  2  0  0  0  0  0  0  0  0  0
   37.4483   43.8100    4.9587 O   0  0  0  0  0  0  0  0  0  0  0  0
   41.7948   42.4473    4.0061 C   0  0  2  0  0  0  0  0  0  0  0  0
   41.9250   41.2070    3.1819 N   0  0  0  0  0  0  0  0  0  0  0  0
   34.7627   36.9317    7.5035 C   0  0  1  0  0  0  0  0  0  0  0  0
   35.8928   36.0888    7.7115 O   0  0  0  0  0  0  0  0  0  0  0  0
   31.5382   39.6513    4.3619 C   0  0  2  0  0  0  0  0  0  0  0  0
   30.5854   38.8301    5.1324 N   0  0  0  0  0  0  0  0  0  0  0  0
   38.3197   41.5893    5.6196 C   0  0  2  0  0  0  0  0  0  0  0  0
   39.3975   41.9368    4.6619 O   0  0  0  0  0  0  0  0  0  0  0  0
   43.2156   42.8406    4.6163 C   0  0  1  0  0  0  0  0  0  0  0  0
   43.2030   44.1837    5.1481 O   0  0  0  0  0  0  0  0  0  0  0  0
   33.7587   36.7954    8.6715 C   0  0  2  0  0  0  0  0  0  0  0  0
   33.3530   35.4495    8.8060 O   0  0  0  0  0  0  0  0  0  0  0  0
   32.6748   40.2573    5.2592 C   0  0  2  0  0  0  0  0  0  0  0  0
   37.7412   40.2062    5.3347 C   0  0  2  0  0  0  0  0  0  0  0  0
   36.5771   40.4174    4.5485 O   0  0  0  0  0  0  0  0  0  0  0  0
   43.6692   41.8469    5.7601 C   0  0  2  0  0  0  0  0  0  0  0  0
   43.9302   40.5543    5.1878 O   0  0  0  0  0  0  0  0  0  0  0  0
   32.5391   37.7077    8.4328 C   0  0  2  0  0  0  0  0  0  0  0  0
   33.0215   39.0979    8.2773 O   0  0  0  0  0  0  0  0  0  0  0  0
   33.6492   41.1653    4.3545 C   0  0  2  0  0  0  0  0  0  0  0  0
   34.7378   41.8048    5.1419 O   0  0  0  0  0  0  0  0  0  0  0  0
   37.3261   39.4455    6.5855 C   0  0  0  0  0  0  0  0  0  0  0  0
   42.5411   41.7519    6.8659 C   0  0  1  0  0  0  0  0  0  0  0  0
   41.2004   41.4292    6.2696 O   0  0  0  0  0  0  0  0  0  0  0  0
   31.5540   37.5813    9.6183 C   0  0  0  0  0  0  0  0  0  0  0  0
   32.0907   38.0156   10.9212 N   0  0  0  0  0  0  0  0  0  0  0  0
   32.8341   42.3053    3.7072 C   0  0  1  0  0  0  0  0  0  0  0  0
   33.6997   43.1139    2.9037 O   0  0  0  0  0  0  0  0  0  0  0  0
   42.8867   40.7400    8.0252 C   0  0  0  0  0  0  0  0  0  0  0  0
   43.0327   39.3029    7.6293 N   0  0  0  0  0  0  0  0  0  0  0  0
  1  2  1  6  0  0  0
  1  7  1  0  0  0  0
  1 30  1  0  0  0  0
  3  4  1  1  0  0  0
  3  9  1  0  0  0  0
  3 38  1  0  0  0  0
  5 10  1  0  0  0  0
  5 26  1  1  0  0  0
  5 32  1  0  0  0  0
  6 12  1  0  0  0  0
  6 35  1  0  0  0  0
  6 19  1  6  0  0  0
  7  8  1  6  0  0  0
  7 14  1  0  0  0  0
  8 33  1  0  0  0  0
  9 16  1  0  0  0  0
 10 11  1  6  0  0  0
 10 18  1  0  0  0  0
 12 13  1  1  0  0  0
 12 20  1  0  0  0  0
 14 15  1  1  0  0  0
 14 22  1  0  0  0  0
 16 17  1  1  0  0  0
 16 24  1  0  0  0  0
 18 19  1  6  0  0  0
 18 25  1  0  0  0  0
 20 21  1  1  0  0  0
 20 27  1  0  0  0  0
 22 23  1  6  0  0  0
 22 29  1  0  0  0  0
 24  2  1  6  0  0  0
 24 31  1  0  0  0  0
 25 26  1  6  0  0  0
 25 33  1  0  0  0  0
 27 28  1  6  0  0  0
 27 34  1  0  0  0  0
 29 30  1  0  0  0  0
 29 36  1  1  0  0  0
 31 32  1  1  0  0  0
 31 38  1  0  0  0  0
 34 35  1  0  0  0  0
 34 40  1  1  0  0  0
 36 37  1  0  0  0  0
 38 39  1  6  0  0  0
 40 41  1  0  0  0  0
M  END
>  <CHROM.1>
118.03949858,170.89431907,62.63988215,-63.15128473,36.53576190,40.38751528
5.85576227,-2.88882517,-0.12973396,-0.78206548

>  <Name>
ligand

>  <RI>
0

>  <Rbt.Current_Directory>
/home/itssahil/PROJECTS/Mol_Feturizer/New_Systems/rnas/1ZZ5

>  <Rbt.Executable>
rbdock ($Id: //depot/dev/client3/rdock/2013.1/src/exe/rbdock.cxx#4 $)

>  <Rbt.Library>
libRbt.so (2013.1, Build901 2013/11/27)

>  <Rbt.Parameter_File>
/export/apps/rDock/src/rDock_2013.1_src/data/scripts/dock_solv.prm

>  <Rbt.Receptor>
prm/pocket_docking_5.prm

>  <SCORE>
-10.3454

>  <SCORE.INTER>
-12.388

>  <SCORE.INTER.CONST>
1

>  <SCORE.INTER.POLAR>
0

>  <SCORE.INTER.ROT>
4

>  <SCORE.INTER.SOLV>
21.298

>  <SCORE.INTER.VDW>
-21.6247

>  <SCORE.INTER.norm>
-0.302146

>  <SCORE.INTRA>
2.0426

>  <SCORE.INTRA.DIHEDRAL>
2.5958

>  <SCORE.INTRA.DIHEDRAL.0>
5.18357

>  <SCORE.INTRA.POLAR>
0

>  <SCORE.INTRA.POLAR.0>
0

>  <SCORE.INTRA.REPUL>
0

>  <SCORE.INTRA.REPUL.0>
0

>  <SCORE.INTRA.SOLV>
1.38701

>  <SCORE.INTRA.SOLV.lig_0>
-109.973

>  <SCORE.INTRA.VDW>
0.0511926

>  <SCORE.INTRA.VDW.0>
-1.68646

>  <SCORE.INTRA.norm>
0.0498195

>  <SCORE.RESTR>
0

>  <SCORE.RESTR.CAVITY>
0

>  <SCORE.RESTR.norm>
0

>  <SCORE.SYSTEM>
0

>  <SCORE.SYSTEM.CONST>
0

>  <SCORE.SYSTEM.DIHEDRAL>
0

>  <SCORE.SYSTEM.SOLV>
0

>  <SCORE.SYSTEM.norm>
0

>  <SCORE.heavy>
41

>  <SCORE.norm>
-0.252326

>  <RMSD>
5.616

$$$$
ligand
 OpenBabel11021811423D
libRbt.so/2013.1/901 2013/11/27
 41 45  0  0  0  0  0  0  0  0999 V2000
   33.9523   39.3402    7.1001 C   0  0  2  0  0  0  0  0  0  0  0  0
   33.3658   39.1257    5.8014 O   0  0  0  0  0  0  0  0  0  0  0  0
   31.6706   41.6749    2.7119 C   0  0  2  0  0  0  0  0  0  0  0  0
   30.8554   42.7399    2.0728 N   0  0  0  0  0  0  0  0  0  0  0  0
   36.0946   41.7666    4.5270 C   0  0  1  0  0  0  0  0  0  0  0  0
   40.6985   42.3480    5.1455 C   0  0  1  0  0  0  0  0  0  0  0  0
   35.1904   38.4191    7.3157 C   0  0  2  0  0  0  0  0  0  0  0  0
   36.1898   38.5461    6.2506 N   0  0  0  0  0  0  0  0  0  0  0  0
   30.7319   40.7573    3.5575 C   0  0  0  0  0  0  0  0  0  0  0  0
   37.0762   42.5387    5.4381 C   0  0  2  0  0  0  0  0  0  0  0  0
   37.4147   43.8183    4.8933 O   0  0  0  0  0  0  0  0  0  0  0  0
   41.7830   42.4487    3.9898 C   0  0  2  0  0  0  0  0  0  0  0  0
   41.9097   41.2102    3.1622 N   0  0  0  0  0  0  0  0  0  0  0  0
   34.7417   36.9388    7.4481 C   0  0  1  0  0  0  0  0  0  0  0  0
   35.8743   36.1033    7.6721 O   0  0  0  0  0  0  0  0  0  0  0  0
   31.5342   39.6233    4.2592 C   0  0  2  0  0  0  0  0  0  0  0  0
   30.5781   38.8009    5.0245 N   0  0  0  0  0  0  0  0  0  0  0  0
   38.2917   41.6061    5.5751 C   0  0  2  0  0  0  0  0  0  0  0  0
   39.3772   41.9545    4.6265 O   0  0  0  0  0  0  0  0  0  0  0  0
   43.2024   42.8289    4.6115 C   0  0  1  0  0  0  0  0  0  0  0  0
   43.1962   44.1702    5.1478 O   0  0  0  0  0  0  0  0  0  0  0  0
   33.7266   36.8031    8.6066 C   0  0  2  0  0  0  0  0  0  0  0  0
   33.3270   35.4557    8.7443 O   0  0  0  0  0  0  0  0  0  0  0  0
   32.6582   40.2404    5.1647 C   0  0  2  0  0  0  0  0  0  0  0  0
   37.7238   40.2182    5.2918 C   0  0  2  0  0  0  0  0  0  0  0  0
   36.5666   40.4187    4.4927 O   0  0  0  0  0  0  0  0  0  0  0  0
   43.6400   41.8279    5.7551 C   0  0  2  0  0  0  0  0  0  0  0  0
   43.8952   40.5353    5.1802 O   0  0  0  0  0  0  0  0  0  0  0  0
   32.5044   37.7072    8.3505 C   0  0  2  0  0  0  0  0  0  0  0  0
   32.9807   39.0992    8.1924 O   0  0  0  0  0  0  0  0  0  0  0  0
   33.6367   41.1491    4.2650 C   0  0  2  0  0  0  0  0  0  0  0  0
   34.7136   41.7988    5.0599 O   0  0  0  0  0  0  0  0  0  0  0  0
   37.3002   39.4620    6.5425 C   0  0  0  0  0  0  0  0  0  0  0  0
   42.5033   41.7378    6.8524 C   0  0  1  0  0  0  0  0  0  0  0  0
   41.1645   41.4275    6.2453 O   0  0  0  0  0  0  0  0  0  0  0  0
   31.5081   37.5816    9.5267 C   0  0  0  0  0  0  0  0  0  0  0  0
   32.0435   37.9841   10.8403 N   0  0  0  0  0  0  0  0  0  0  0  0
   32.8219   42.2809    3.6033 C   0  0  1  0  0  0  0  0  0  0  0  0
   33.6911   43.0901    2.8043 O   0  0  0  0  0  0  0  0  0  0  0  0
   42.8327   40.7193    8.0107 C   0  0  0  0  0  0  0  0  0  0  0  0
   41.8273   40.6256    9.1170 N   0  0  0  0  0  0  0  0  0  0  0  0
  1  2  1  6  0  0  0
  1  7  1  0  0  0  0
  1 30  1  0  0  0  0
  3  4  1  1  0  0  0
  3  9  1  0  0  0  0
  3 38  1  0  0  0  0
  5 10  1  0  0  0  0
  5 26  1  1  0  0  0
  5 32  1  0  0  0  0
  6 12  1  0  0  0  0
  6 35  1  0  0  0  0
  6 19  1  6  0  0  0
  7  8  1  6  0  0  0
  7 14  1  0  0  0  0
  8 33  1  0  0  0  0
  9 16  1  0  0  0  0
 10 11  1  6  0  0  0
 10 18  1  0  0  0  0
 12 13  1  1  0  0  0
 12 20  1  0  0  0  0
 14 15  1  1  0  0  0
 14 22  1  0  0  0  0
 16 17  1  1  0  0  0
 16 24  1  0  0  0  0
 18 19  1  6  0  0  0
 18 25  1  0  0  0  0
 20 21  1  1  0  0  0
 20 27  1  0  0  0  0
 22 23  1  6  0  0  0
 22 29  1  0  0  0  0
 24  2  1  6  0  0  0
 24 31  1  0  0  0  0
 25 26  1  6  0  0  0
 25 33  1  0  0  0  0
 27 28  1  6  0  0  0
 27 34  1  0  0  0  0
 29 30  1  0  0  0  0
 29 36  1  1  0  0  0
 31 32  1  1  0  0  0
 31 38  1  0  0  0  0
 34 35  1  0  0  0  0
 34 40  1  1  0  0  0
 36 37  1  0  0  0  0
 38 39  1  6  0  0  0
 40 41  1  0  0  0  0
M  END
>  <CHROM.1>
119.07342161,170.61780620,60.71388764,177.43398945,36.48474446,40.41341837
5.83318551,-2.89223113,-0.15936559,-0.81582610

>  <Name>
ligand

>  <RI>
0

>  <Rbt.Current_Directory>
/home/itssahil/PROJECTS/Mol_Feturizer/New_Systems/rnas/1ZZ5

>  <Rbt.Executable>
rbdock ($Id: //depot/dev/client3/rdock/2013.1/src/exe/rbdock.cxx#4 $)

>  <Rbt.Library>
libRbt.so (2013.1, Build901 2013/11/27)

>  <Rbt.Parameter_File>
/export/apps/rDock/src/rDock_2013.1_src/data/scripts/dock_solv.prm

>  <Rbt.Receptor>
prm/pocket_docking_4.prm

>  <SCORE>
-11.2049

>  <SCORE.INTER>
-12.5774

>  <SCORE.INTER.CONST>
1

>  <SCORE.INTER.POLAR>
0

>  <SCORE.INTER.ROT>
4

>  <SCORE.INTER.SOLV>
21.6716

>  <SCORE.INTER.VDW>
-21.8754

>  <SCORE.INTER.norm>
-0.306765

>  <SCORE.INTRA>
1.37244

>  <SCORE.INTRA.DIHEDRAL>
2.59789

>  <SCORE.INTRA.DIHEDRAL.0>
5.18357

>  <SCORE.INTRA.POLAR>
0

>  <SCORE.INTRA.POLAR.0>
0

>  <SCORE.INTRA.REPUL>
0

>  <SCORE.INTRA.REPUL.0>
0

>  <SCORE.INTRA.SOLV>
-0.248708

>  <SCORE.INTRA.SOLV.lig_0>
-109.973

>  <SCORE.INTRA.VDW>
0.197849

>  <SCORE.INTRA.VDW.0>
-1.68646

>  <SCORE.INTRA.norm>
0.0334742

>  <SCORE.RESTR>
0

>  <SCORE.RESTR.CAVITY>
0

>  <SCORE.RESTR.norm>
0

>  <SCORE.SYSTEM>
0

>  <SCORE.SYSTEM.CONST>
0

>  <SCORE.SYSTEM.DIHEDRAL>
0

>  <SCORE.SYSTEM.SOLV>
0

>  <SCORE.SYSTEM.norm>
0

>  <SCORE.heavy>
41

>  <SCORE.norm>
-0.273291

>  <RMSD>
5.620

$$$$
ligand
 OpenBabel11021811423D
libRbt.so/2013.1/901 2013/11/27
 41 45  0  0  0  0  0  0  0  0999 V2000
   33.9513   39.3695    7.1072 C   0  0  2  0  0  0  0  0  0  0  0  0
   33.3603   39.1526    5.8110 O   0  0  0  0  0  0  0  0  0  0  0  0
   31.6445   41.6953    2.7274 C   0  0  2  0  0  0  0  0  0  0  0  0
   30.8233   42.7574    2.0911 N   0  0  0  0  0  0  0  0  0  0  0  0
   36.0754   41.8020    4.5247 C   0  0  1  0  0  0  0  0  0  0  0  0
   40.6848   42.3821    5.1244 C   0  0  1  0  0  0  0  0  0  0  0  0
   35.1932   38.4526    7.3182 C   0  0  2  0  0  0  0  0  0  0  0  0
   36.1879   38.5824    6.2491 N   0  0  0  0  0  0  0  0  0  0  0  0
   30.7122   40.7749    3.5770 C   0  0  0  0  0  0  0  0  0  0  0  0
   37.0581   42.5776    5.4317 C   0  0  2  0  0  0  0  0  0  0  0  0
   37.3903   43.8580    4.8851 O   0  0  0  0  0  0  0  0  0  0  0  0
   41.7652   42.4727    3.9639 C   0  0  2  0  0  0  0  0  0  0  0  0
   41.8770   41.2329    3.1361 N   0  0  0  0  0  0  0  0  0  0  0  0
   34.7498   36.9708    7.4529 C   0  0  1  0  0  0  0  0  0  0  0  0
   35.8860   36.1391    7.6727 O   0  0  0  0  0  0  0  0  0  0  0  0
   31.5209   39.6437    4.2759 C   0  0  2  0  0  0  0  0  0  0  0  0
   30.5707   38.8185    5.0452 N   0  0  0  0  0  0  0  0  0  0  0  0
   38.2772   41.6489    5.5642 C   0  0  2  0  0  0  0  0  0  0  0  0
   39.3577   42.0005    4.6111 O   0  0  0  0  0  0  0  0  0  0  0  0
   43.1906   42.8401    4.5794 C   0  0  1  0  0  0  0  0  0  0  0  0
   43.1990   44.1816    5.1154 O   0  0  0  0  0  0  0  0  0  0  0  0
   33.7398   36.8322    8.6154 C   0  0  2  0  0  0  0  0  0  0  0  0
   33.3452   35.4836    8.7552 O   0  0  0  0  0  0  0  0  0  0  0  0
   32.6466   40.2649    5.1767 C   0  0  2  0  0  0  0  0  0  0  0  0
   37.7127   40.2591    5.2836 C   0  0  2  0  0  0  0  0  0  0  0  0
   36.5516   40.4556    4.4890 O   0  0  0  0  0  0  0  0  0  0  0  0
   43.6241   41.8354    5.7214 C   0  0  2  0  0  0  0  0  0  0  0  0
   43.8650   40.5405    5.1457 O   0  0  0  0  0  0  0  0  0  0  0  0
   32.5137   37.7323    8.3640 C   0  0  2  0  0  0  0  0  0  0  0  0
   32.9848   39.1258    8.2035 O   0  0  0  0  0  0  0  0  0  0  0  0
   33.6185   41.1764    4.2728 C   0  0  2  0  0  0  0  0  0  0  0  0
   34.6965   41.8299    5.0632 O   0  0  0  0  0  0  0  0  0  0  0  0
   37.2965   39.5020    6.5362 C   0  0  0  0  0  0  0  0  0  0  0  0
   42.4913   41.7559    6.8236 C   0  0  1  0  0  0  0  0  0  0  0  0
   41.1472   41.4576    6.2224 O   0  0  0  0  0  0  0  0  0  0  0  0
   31.5225   37.6039    9.5442 C   0  0  0  0  0  0  0  0  0  0  0  0
   32.0547   38.0294   10.8518 N   0  0  0  0  0  0  0  0  0  0  0  0
   32.7974   42.3054    3.6139 C   0  0  1  0  0  0  0  0  0  0  0  0
   33.6608   43.1170    2.8112 O   0  0  0  0  0  0  0  0  0  0  0  0
   42.8164   40.7347    7.9807 C   0  0  0  0  0  0  0  0  0  0  0  0
   41.8183   40.6551    9.0946 N   0  0  0  0  0  0  0  0  0  0  0  0
  1  2  1  6  0  0  0
  1  7  1  0  0  0  0
  1 30  1  0  0  0  0
  3  4  1  1  0  0  0
  3  9  1  0  0  0  0
  3 38  1  0  0  0  0
  5 10  1  0  0  0  0
  5 26  1  1  0  0  0
  5 32  1  0  0  0  0
  6 12  1  0  0  0  0
  6 35  1  0  0  0  0
  6 19  1  6  0  0  0
  7  8  1  6  0  0  0
  7 14  1  0  0  0  0
  8 33  1  0  0  0  0
  9 16  1  0  0  0  0
 10 11  1  6  0  0  0
 10 18  1  0  0  0  0
 12 13  1  1  0  0  0
 12 20  1  0  0  0  0
 14 15  1  1  0  0  0
 14 22  1  0  0  0  0
 16 17  1  1  0  0  0
 16 24  1  0  0  0  0
 18 19  1  6  0  0  0
 18 25  1  0  0  0  0
 20 21  1  1  0  0  0
 20 27  1  0  0  0  0
 22 23  1  6  0  0  0
 22 29  1  0  0  0  0
 24  2  1  6  0  0  0
 24 31  1  0  0  0  0
 25 26  1  6  0  0  0
 25 33  1  0  0  0  0
 27 28  1  6  0  0  0
 27 34  1  0  0  0  0
 29 30  1  0  0  0  0
 29 36  1  1  0  0  0
 31 32  1  1  0  0  0
 31 38  1  0  0  0  0
 34 35  1  0  0  0  0
 34 40  1  1  0  0  0
 36 37  1  0  0  0  0
 38 39  1  6  0  0  0
 40 41  1  0  0  0  0
M  END
>  <CHROM.1>
119.83941936,170.00268952,61.66907743,177.15536832,36.47462901,40.44099024
5.82957127,-2.89006496,-0.15628107,-0.81552752

>  <Name>
ligand

>  <RI>
0

>  <Rbt.Current_Directory>
/home/itssahil/PROJECTS/Mol_Feturizer/New_Systems/rnas/1ZZ5

>  <Rbt.Executable>
rbdock ($Id: //depot/dev/client3/rdock/2013.1/src/exe/rbdock.cxx#4 $)

>  <Rbt.Library>
libRbt.so (2013.1, Build901 2013/11/27)

>  <Rbt.Parameter_File>
/export/apps/rDock/src/rDock_2013.1_src/data/scripts/dock_solv.prm

>  <Rbt.Receptor>
prm/pocket_docking_8.prm

>  <SCORE>
-11.1999

>  <SCORE.INTER>
-12.601

>  <SCORE.INTER.CONST>
1

>  <SCORE.INTER.POLAR>
0

>  <SCORE.INTER.ROT>
4

>  <SCORE.INTER.SOLV>
21.7919

>  <SCORE.INTER.VDW>
-21.9313

>  <SCORE.INTER.norm>
-0.307343

>  <SCORE.INTRA>
1.40117

>  <SCORE.INTRA.DIHEDRAL>
2.67089

>  <SCORE.INTRA.DIHEDRAL.0>
5.18357

>  <SCORE.INTRA.POLAR>
0

>  <SCORE.INTRA.POLAR.0>
0

>  <SCORE.INTRA.REPUL>
0

>  <SCORE.INTRA.REPUL.0>
0

>  <SCORE.INTRA.SOLV>
-0.26128

>  <SCORE.INTRA.SOLV.lig_0>
-109.973

>  <SCORE.INTRA.VDW>
0.19636

>  <SCORE.INTRA.VDW.0>
-1.68646

>  <SCORE.INTRA.norm>
0.0341748

>  <SCORE.RESTR>
0

>  <SCORE.RESTR.CAVITY>
0

>  <SCORE.RESTR.norm>
0

>  <SCORE.SYSTEM>
0

>  <SCORE.SYSTEM.CONST>
0

>  <SCORE.SYSTEM.DIHEDRAL>
0

>  <SCORE.SYSTEM.SOLV>
0

>  <SCORE.SYSTEM.norm>
0

>  <SCORE.heavy>
41

>  <SCORE.norm>
-0.273168

>  <RMSD>
5.629

$$$$
ligand
 OpenBabel11021811423D
libRbt.so/2013.1/901 2013/11/27
 41 45  0  0  0  0  0  0  0  0999 V2000
   33.9356   39.3558    7.0863 C   0  0  2  0  0  0  0  0  0  0  0  0
   33.3428   39.1422    5.7903 O   0  0  0  0  0  0  0  0  0  0  0  0
   31.6161   41.6919    2.7186 C   0  0  2  0  0  0  0  0  0  0  0  0
   30.7915   42.7544    2.0876 N   0  0  0  0  0  0  0  0  0  0  0  0
   36.0499   41.8020    4.5088 C   0  0  1  0  0  0  0  0  0  0  0  0
   40.6620   42.3801    5.1022 C   0  0  1  0  0  0  0  0  0  0  0  0
   35.1798   38.4408    7.2919 C   0  0  2  0  0  0  0  0  0  0  0  0
   36.1724   38.5766    6.2216 N   0  0  0  0  0  0  0  0  0  0  0  0
   30.6873   40.7665    3.5666 C   0  0  0  0  0  0  0  0  0  0  0  0
   37.0324   42.5765    5.4168 C   0  0  2  0  0  0  0  0  0  0  0  0
   37.3608   43.8596    4.8741 O   0  0  0  0  0  0  0  0  0  0  0  0
   41.7464   42.4429    3.9436 C   0  0  2  0  0  0  0  0  0  0  0  0
   41.8458   41.1911    3.1324 N   0  0  0  0  0  0  0  0  0  0  0  0
   34.7399   36.9577    7.4222 C   0  0  1  0  0  0  0  0  0  0  0  0
   35.8783   36.1276    7.6371 O   0  0  0  0  0  0  0  0  0  0  0  0
   31.4997   39.6346    4.2601 C   0  0  2  0  0  0  0  0  0  0  0  0
   30.5525   38.8046    5.0282 N   0  0  0  0  0  0  0  0  0  0  0  0
   38.2538   41.6501    5.5439 C   0  0  2  0  0  0  0  0  0  0  0  0
   39.3319   42.0074    4.5902 O   0  0  0  0  0  0  0  0  0  0  0  0
   43.1744   42.8015    4.5583 C   0  0  1  0  0  0  0  0  0  0  0  0
   43.1972   44.1497    5.0768 O   0  0  0  0  0  0  0  0  0  0  0  0
   33.7322   36.8128    8.5859 C   0  0  2  0  0  0  0  0  0  0  0  0
   33.3408   35.4627    8.7216 O   0  0  0  0  0  0  0  0  0  0  0  0
   32.6255   40.2551    5.1612 C   0  0  2  0  0  0  0  0  0  0  0  0
   37.6918   40.2600    5.2594 C   0  0  2  0  0  0  0  0  0  0  0  0
   36.5289   40.4568    4.4675 O   0  0  0  0  0  0  0  0  0  0  0  0
   43.5930   41.8068    5.7145 C   0  0  2  0  0  0  0  0  0  0  0  0
   43.8203   40.5017    5.1564 O   0  0  0  0  0  0  0  0  0  0  0  0
   32.5037   37.7110    8.3398 C   0  0  2  0  0  0  0  0  0  0  0  0
   32.9714   39.1061    8.1834 O   0  0  0  0  0  0  0  0  0  0  0  0
   33.5939   41.1719    4.2588 C   0  0  2  0  0  0  0  0  0  0  0  0
   34.6718   41.8250    5.0497 O   0  0  0  0  0  0  0  0  0  0  0  0
   37.2795   39.4976    6.5100 C   0  0  0  0  0  0  0  0  0  0  0  0
   42.4565   41.7550    6.8144 C   0  0  1  0  0  0  0  0  0  0  0  0
   41.1105   41.4647    6.2134 O   0  0  0  0  0  0  0  0  0  0  0  0
   31.5148   37.5763    9.5212 C   0  0  0  0  0  0  0  0  0  0  0  0
   32.0443   38.0096   10.8274 N   0  0  0  0  0  0  0  0  0  0  0  0
   32.7692   42.3014    3.6054 C   0  0  1  0  0  0  0  0  0  0  0  0
   33.6294   43.1177    2.8040 O   0  0  0  0  0  0  0  0  0  0  0  0
   42.7665   40.7452    7.9857 C   0  0  0  0  0  0  0  0  0  0  0  0
   41.7743   40.7057    9.1070 N   0  0  0  0  0  0  0  0  0  0  0  0
  1  2  1  6  0  0  0
  1  7  1  0  0  0  0
  1 30  1  0  0  0  0
  3  4  1  1  0  0  0
  3  9  1  0  0  0  0
  3 38  1  0  0  0  0
  5 10  1  0  0  0  0
  5 26  1  1  0  0  0
  5 32  1  0  0  0  0
  6 12  1  0  0  0  0
  6 35  1  0  0  0  0
  6 19  1  6  0  0  0
  7  8  1  6  0  0  0
  7 14  1  0  0  0  0
  8 33  1  0  0  0  0
  9 16  1  0  0  0  0
 10 11  1  6  0  0  0
 10 18  1  0  0  0  0
 12 13  1  1  0  0  0
 12 20  1  0  0  0  0
 14 15  1  1  0  0  0
 14 22  1  0  0  0  0
 16 17  1  1  0  0  0
 16 24  1  0  0  0  0
 18 19  1  6  0  0  0
 18 25  1  0  0  0  0
 20 21  1  1  0  0  0
 20 27  1  0  0  0  0
 22 23  1  6  0  0  0
 22 29  1  0  0  0  0
 24  2  1  6  0  0  0
 24 31  1  0  0  0  0
 25 26  1  6  0  0  0
 25 33  1  0  0  0  0
 27 28  1  6  0  0  0
 27 34  1  0  0  0  0
 29 30  1  0  0  0  0
 29 36  1  1  0  0  0
 31 32  1  1  0  0  0
 31 38  1  0  0  0  0
 34 35  1  0  0  0  0
 34 40  1  1  0  0  0
 36 37  1  0  0  0  0
 38 39  1  6  0  0  0
 40 41  1  0  0  0  0
M  END
>  <CHROM.1>
120.30825380,168.57222131,62.18747265,176.33251712,36.45241200,40.43142363
5.81276668,-2.89087643,-0.15650513,-0.81311794

>  <Name>
ligand

>  <RI>
0

>  <Rbt.Current_Directory>
/home/itssahil/PROJECTS/Mol_Feturizer/New_Systems/rnas/1ZZ5

>  <Rbt.Executable>
rbdock ($Id: //depot/dev/client3/rdock/2013.1/src/exe/rbdock.cxx#4 $)

>  <Rbt.Library>
libRbt.so (2013.1, Build901 2013/11/27)

>  <Rbt.Parameter_File>
/export/apps/rDock/src/rDock_2013.1_src/data/scripts/dock_solv.prm

>  <Rbt.Receptor>
prm/pocket_docking_4.prm

>  <SCORE>
-11.2045

>  <SCORE.INTER>
-12.6905

>  <SCORE.INTER.CONST>
1

>  <SCORE.INTER.POLAR>
0

>  <SCORE.INTER.ROT>
4

>  <SCORE.INTER.SOLV>
21.8326

>  <SCORE.INTER.VDW>
-22.0045

>  <SCORE.INTER.norm>
-0.309525

>  <SCORE.INTRA>
1.48603

>  <SCORE.INTRA.DIHEDRAL>
2.83786

>  <SCORE.INTRA.DIHEDRAL.0>
5.18357

>  <SCORE.INTRA.POLAR>
0

>  <SCORE.INTRA.POLAR.0>
0

>  <SCORE.INTRA.REPUL>
0

>  <SCORE.INTRA.REPUL.0>
0

>  <SCORE.INTRA.SOLV>
-0.268556

>  <SCORE.INTRA.SOLV.lig_0>
-109.973

>  <SCORE.INTRA.VDW>
0.201374

>  <SCORE.INTRA.VDW.0>
-1.68646

>  <SCORE.INTRA.norm>
0.0362445

>  <SCORE.RESTR>
0

>  <SCORE.RESTR.CAVITY>
0

>  <SCORE.RESTR.norm>
0

>  <SCORE.SYSTEM>
0

>  <SCORE.SYSTEM.CONST>
0

>  <SCORE.SYSTEM.DIHEDRAL>
0

>  <SCORE.SYSTEM.SOLV>
0

>  <SCORE.SYSTEM.norm>
0

>  <SCORE.heavy>
41

>  <SCORE.norm>
-0.27328

>  <RMSD>
5.634

$$$$
ligand
 OpenBabel11021811423D
libRbt.so/2013.1/901 2013/11/27
 41 45  0  0  0  0  0  0  0  0999 V2000
   34.0379   39.3381    7.1051 C   0  0  2  0  0  0  0  0  0  0  0  0
   33.5261   39.0995    5.7794 O   0  0  0  0  0  0  0  0  0  0  0  0
   31.8875   41.5771    2.6023 C   0  0  2  0  0  0  0  0  0  0  0  0
   31.0636   42.6084    1.9204 N   0  0  0  0  0  0  0  0  0  0  0  0
   36.2079   41.8465    4.6360 C   0  0  1  0  0  0  0  0  0  0  0  0
   40.8242   41.6402    5.1528 C   0  0  1  0  0  0  0  0  0  0  0  0
   35.2993   38.4673    7.3848 C   0  0  2  0  0  0  0  0  0  0  0  0
   36.3448   38.6334    6.3707 N   0  0  0  0  0  0  0  0  0  0  0  0
   30.9449   40.6233    3.4022 C   0  0  0  0  0  0  0  0  0  0  0  0
   37.1111   42.6576    5.5931 C   0  0  2  0  0  0  0  0  0  0  0  0
   37.4253   43.9493    5.0625 O   0  0  0  0  0  0  0  0  0  0  0  0
   41.9410   42.5051    4.4269 C   0  0  2  0  0  0  0  0  0  0  0  0
   41.7262   42.6688    2.9565 N   0  0  0  0  0  0  0  0  0  0  0  0
   34.9038   36.9703    7.4985 C   0  0  1  0  0  0  0  0  0  0  0  0
   36.0561   36.1808    7.7811 O   0  0  0  0  0  0  0  0  0  0  0  0
   31.7556   39.5227    4.1462 C   0  0  2  0  0  0  0  0  0  0  0  0
   30.7960   38.6633    4.8648 N   0  0  0  0  0  0  0  0  0  0  0  0
   38.3545   41.7743    5.7931 C   0  0  2  0  0  0  0  0  0  0  0  0
   39.4713   42.1652    4.8991 O   0  0  0  0  0  0  0  0  0  0  0  0
   43.3784   41.8661    4.6936 C   0  0  1  0  0  0  0  0  0  0  0  0
   43.7525   41.9819    6.0841 O   0  0  0  0  0  0  0  0  0  0  0  0
   33.8382   36.7949    8.6051 C   0  0  2  0  0  0  0  0  0  0  0  0
   33.4862   35.4327    8.7262 O   0  0  0  0  0  0  0  0  0  0  0  0
   32.8074   40.1848    5.1051 C   0  0  2  0  0  0  0  0  0  0  0  0
   37.8572   40.3647    5.4855 C   0  0  2  0  0  0  0  0  0  0  0  0
   36.7343   40.5184    4.6289 O   0  0  0  0  0  0  0  0  0  0  0  0
   43.4399   40.3414    4.2777 C   0  0  2  0  0  0  0  0  0  0  0  0
   43.3194   40.2357    2.8491 O   0  0  0  0  0  0  0  0  0  0  0  0
   32.5953   37.6494    8.2859 C   0  0  2  0  0  0  0  0  0  0  0  0
   33.0231   39.0592    8.1481 O   0  0  0  0  0  0  0  0  0  0  0  0
   33.7927   41.1312    4.2531 C   0  0  2  0  0  0  0  0  0  0  0  0
   34.8018   41.8239    5.0992 O   0  0  0  0  0  0  0  0  0  0  0  0
   37.4019   39.5930    6.7153 C   0  0  0  0  0  0  0  0  0  0  0  0
   42.2793   39.5422    4.9978 C   0  0  1  0  0  0  0  0  0  0  0  0
   40.9390   40.1842    4.7773 O   0  0  0  0  0  0  0  0  0  0  0  0
   31.5471   37.4849    9.4111 C   0  0  0  0  0  0  0  0  0  0  0  0
   31.9980   37.9138   10.7480 N   0  0  0  0  0  0  0  0  0  0  0  0
   32.9677   42.2292    3.5485 C   0  0  1  0  0  0  0  0  0  0  0  0
   33.8429   43.0719    2.7918 O   0  0  0  0  0  0  0  0  0  0  0  0
   42.2317   38.0167    4.6005 C   0  0  0  0  0  0  0  0  0  0  0  0
   43.4313   37.1983    4.9674 N   0  0  0  0  0  0  0  0  0  0  0  0
  1  2  1  6  0  0  0
  1  7  1  0  0  0  0
  1 30  1  0  0  0  0
  3  4  1  1  0  0  0
  3  9  1  0  0  0  0
  3 38  1  0  0  0  0
  5 10  1  0  0  0  0
  5 26  1  1  0  0  0
  5 32  1  0  0  0  0
  6 12  1  0  0  0  0
  6 35  1  0  0  0  0
  6 19  1  6  0  0  0
  7  8  1  6  0  0  0
  7 14  1  0  0  0  0
  8 33  1  0  0  0  0
  9 16  1  0  0  0  0
 10 11  1  6  0  0  0
 10 18  1  0  0  0  0
 12 13  1  6  0  0  0
 12 20  1  0  0  0  0
 14 15  1  1  0  0  0
 14 22  1  0  0  0  0
 16 17  1  1  0  0  0
 16 24  1  0  0  0  0
 18 19  1  6  0  0  0
 18 25  1  0  0  0  0
 20 21  1  1  0  0  0
 20 27  1  0  0  0  0
 22 23  1  6  0  0  0
 22 29  1  0  0  0  0
 24  2  1  6  0  0  0
 24 31  1  0  0  0  0
 25 26  1  6  0  0  0
 25 33  1  0  0  0  0
 27 28  1  6  0  0  0
 27 34  1  0  0  0  0
 29 30  1  0  0  0  0
 29 36  1  1  0  0  0
 31 32  1  1  0  0  0
 31 38  1  0  0  0  0
 34 35  1  0  0  0  0
 34 40  1  6  0  0  0
 36 37  1  0  0  0  0
 38 39  1  6  0  0  0
 40 41  1  0  0  0  0
M  END
>  <CHROM.1>
166.40824458,-161.35135880,60.92323758,62.89141456,36.58950947,40.08649603
5.52009541,-2.88662780,0.01520309,-0.72647333

>  <Name>
ligand

>  <RI>
0

>  <Rbt.Current_Directory>
/home/itssahil/PROJECTS/Mol_Feturizer/New_Systems/rnas/1ZZ5

>  <Rbt.Executable>
rbdock ($Id: //depot/dev/client3/rdock/2013.1/src/exe/rbdock.cxx#4 $)

>  <Rbt.Library>
libRbt.so (2013.1, Build901 2013/11/27)

>  <Rbt.Parameter_File>
/export/apps/rDock/src/rDock_2013.1_src/data/scripts/dock_solv.prm

>  <Rbt.Receptor>
prm/pocket_docking_4.prm

>  <SCORE>
-11.1487

>  <SCORE.INTER>
-10.0035

>  <SCORE.INTER.CONST>
1

>  <SCORE.INTER.POLAR>
0

>  <SCORE.INTER.ROT>
4

>  <SCORE.INTER.SOLV>
23.8585

>  <SCORE.INTER.VDW>
-20.8885

>  <SCORE.INTER.norm>
-0.243987

>  <SCORE.INTRA>
-1.14518

>  <SCORE.INTRA.DIHEDRAL>
-2.51493

>  <SCORE.INTRA.DIHEDRAL.0>
5.18357

>  <SCORE.INTRA.POLAR>
0

>  <SCORE.INTRA.POLAR.0>
0

>  <SCORE.INTRA.REPUL>
0

>  <SCORE.INTRA.REPUL.0>
0

>  <SCORE.INTRA.SOLV>
0.0620675

>  <SCORE.INTRA.SOLV.lig_0>
-109.973

>  <SCORE.INTRA.VDW>
0.0812493

>  <SCORE.INTRA.VDW.0>
-1.68646

>  <SCORE.INTRA.norm>
-0.0279313

>  <SCORE.RESTR>
0

>  <SCORE.RESTR.CAVITY>
0

>  <SCORE.RESTR.norm>
0

>  <SCORE.SYSTEM>
0

>  <SCORE.SYSTEM.CONST>
0

>  <SCORE.SYSTEM.DIHEDRAL>
0

>  <SCORE.SYSTEM.SOLV>
0

>  <SCORE.SYSTEM.norm>
0

>  <SCORE.heavy>
41

>  <SCORE.norm>
-0.271919

>  <RMSD>
5.717

$$$$
ligand
 OpenBabel11021811423D
libRbt.so/2013.1/901 2013/11/27
 41 45  0  0  0  0  0  0  0  0999 V2000
   33.9960   39.3594    7.1225 C   0  0  2  0  0  0  0  0  0  0  0  0
   33.4700   39.1274    5.8011 O   0  0  0  0  0  0  0  0  0  0  0  0
   31.8084   41.6220    2.6493 C   0  0  2  0  0  0  0  0  0  0  0  0
   30.9814   42.6586    1.9794 N   0  0  0  0  0  0  0  0  0  0  0  0
   36.1501   41.8687    4.6403 C   0  0  1  0  0  0  0  0  0  0  0  0
   40.7799   41.6832    5.1381 C   0  0  1  0  0  0  0  0  0  0  0  0
   35.2570   38.4832    7.3864 C   0  0  2  0  0  0  0  0  0  0  0  0
   36.2929   38.6491    6.3623 N   0  0  0  0  0  0  0  0  0  0  0  0
   30.8705   40.6688    3.4554 C   0  0  0  0  0  0  0  0  0  0  0  0
   37.0658   42.6733    5.5910 C   0  0  2  0  0  0  0  0  0  0  0  0
   37.3792   43.9658    5.0619 O   0  0  0  0  0  0  0  0  0  0  0  0
   41.8804   42.5583    4.3997 C   0  0  2  0  0  0  0  0  0  0  0  0
   41.6666   42.6911    2.9261 N   0  0  0  0  0  0  0  0  0  0  0  0
   34.8572   36.9872    7.4988 C   0  0  1  0  0  0  0  0  0  0  0  0
   36.0095   36.1926    7.7670 O   0  0  0  0  0  0  0  0  0  0  0  0
   31.6847   39.5626    4.1874 C   0  0  2  0  0  0  0  0  0  0  0  0
   30.7292   38.7041    4.9127 N   0  0  0  0  0  0  0  0  0  0  0  0
   38.3079   41.7849    5.7754 C   0  0  2  0  0  0  0  0  0  0  0  0
   39.4171   42.1749    4.8715 O   0  0  0  0  0  0  0  0  0  0  0  0
   43.3302   41.9547    4.6816 C   0  0  1  0  0  0  0  0  0  0  0  0
   43.6976   42.1032    6.0707 O   0  0  0  0  0  0  0  0  0  0  0  0
   33.8022   36.8118    8.6155 C   0  0  2  0  0  0  0  0  0  0  0  0
   33.4466   35.4504    8.7354 O   0  0  0  0  0  0  0  0  0  0  0  0
   32.7485   40.2175    5.1380 C   0  0  2  0  0  0  0  0  0  0  0  0
   37.8024   40.3781    5.4679 C   0  0  2  0  0  0  0  0  0  0  0  0
   36.6716   40.5388    4.6233 O   0  0  0  0  0  0  0  0  0  0  0  0
   43.4249   40.4244    4.2932 C   0  0  2  0  0  0  0  0  0  0  0  0
   43.3110   40.2906    2.8665 O   0  0  0  0  0  0  0  0  0  0  0  0
   32.5593   37.6718    8.3119 C   0  0  2  0  0  0  0  0  0  0  0  0
   32.9907   39.0806    8.1747 O   0  0  0  0  0  0  0  0  0  0  0  0
   33.7286   41.1634    4.2793 C   0  0  2  0  0  0  0  0  0  0  0  0
   34.7486   41.8495    5.1176 O   0  0  0  0  0  0  0  0  0  0  0  0
   37.3568   39.6037    6.6996 C   0  0  0  0  0  0  0  0  0  0  0  0
   42.2793   39.6139    5.0246 C   0  0  1  0  0  0  0  0  0  0  0  0
   40.9265   40.2235    4.7892 O   0  0  0  0  0  0  0  0  0  0  0  0
   31.5219   37.5071    9.4470 C   0  0  0  0  0  0  0  0  0  0  0  0
   31.9610   37.9983   10.7662 N   0  0  0  0  0  0  0  0  0  0  0  0
   32.9005   42.2669    3.5869 C   0  0  1  0  0  0  0  0  0  0  0  0
   33.7710   43.1091    2.8244 O   0  0  0  0  0  0  0  0  0  0  0  0
   42.2650   38.0809    4.6546 C   0  0  0  0  0  0  0  0  0  0  0  0
   43.4614   37.2854    5.0782 N   0  0  0  0  0  0  0  0  0  0  0  0
  1  2  1  6  0  0  0
  1  7  1  0  0  0  0
  1 30  1  0  0  0  0
  3  4  1  1  0  0  0
  3  9  1  0  0  0  0
  3 38  1  0  0  0  0
  5 10  1  0  0  0  0
  5 26  1  1  0  0  0
  5 32  1  0  0  0  0
  6 12  1  0  0  0  0
  6 35  1  0  0  0  0
  6 19  1  6  0  0  0
  7  8  1  6  0  0  0
  7 14  1  0  0  0  0
  8 33  1  0  0  0  0
  9 16  1  0  0  0  0
 10 11  1  6  0  0  0
 10 18  1  0  0  0  0
 12 13  1  6  0  0  0
 12 20  1  0  0  0  0
 14 15  1  1  0  0  0
 14 22  1  0  0  0  0
 16 17  1  1  0  0  0
 16 24  1  0  0  0  0
 18 19  1  6  0  0  0
 18 25  1  0  0  0  0
 20 21  1  1  0  0  0
 20 27  1  0  0  0  0
 22 23  1  6  0  0  0
 22 29  1  0  0  0  0
 24  2  1  6  0  0  0
 24 31  1  0  0  0  0
 25 26  1  6  0  0  0
 25 33  1  0  0  0  0
 27 28  1  6  0  0  0
 27 34  1  0  0  0  0
 29 30  1  0  0  0  0
 29 36  1  1  0  0  0
 31 32  1  1  0  0  0
 31 38  1  0  0  0  0
 34 35  1  0  0  0  0
 34 40  1  6  0  0  0
 36 37  1  0  0  0  0
 38 39  1  6  0  0  0
 40 41  1  0  0  0  0
M  END
>  <CHROM.1>
164.21104634,-160.89471713,64.14174680,64.77922467,36.54490885,40.12368740
5.53447165,-2.88581790,0.01562340,-0.72404410

>  <Name>
ligand

>  <RI>
0

>  <Rbt.Current_Directory>
/home/itssahil/PROJECTS/Mol_Feturizer/New_Systems/rnas/1ZZ5

>  <Rbt.Executable>
rbdock ($Id: //depot/dev/client3/rdock/2013.1/src/exe/rbdock.cxx#4 $)

>  <Rbt.Library>
libRbt.so (2013.1, Build901 2013/11/27)

>  <Rbt.Parameter_File>
/export/apps/rDock/src/rDock_2013.1_src/data/scripts/dock_solv.prm

>  <Rbt.Receptor>
prm/pocket_docking_4.prm

>  <SCORE>
-11.3334

>  <SCORE.INTER>
-10.3552

>  <SCORE.INTER.CONST>
1

>  <SCORE.INTER.POLAR>
0

>  <SCORE.INTER.ROT>
4

>  <SCORE.INTER.SOLV>
24.0145

>  <SCORE.INTER.VDW>
-21.175

>  <SCORE.INTER.norm>
-0.252566

>  <SCORE.INTRA>
-0.978172

>  <SCORE.INTRA.DIHEDRAL>
-2.05575

>  <SCORE.INTRA.DIHEDRAL.0>
5.18357

>  <SCORE.INTRA.POLAR>
0

>  <SCORE.INTRA.POLAR.0>
0

>  <SCORE.INTRA.REPUL>
0

>  <SCORE.INTRA.REPUL.0>
0

>  <SCORE.INTRA.SOLV>
-0.0274081

>  <SCORE.INTRA.SOLV.lig_0>
-109.973

>  <SCORE.INTRA.VDW>
0.0634062

>  <SCORE.INTRA.VDW.0>
-1.68646

>  <SCORE.INTRA.norm>
-0.0238579

>  <SCORE.RESTR>
0

>  <SCORE.RESTR.CAVITY>
0

>  <SCORE.RESTR.norm>
0

>  <SCORE.SYSTEM>
0

>  <SCORE.SYSTEM.CONST>
0

>  <SCORE.SYSTEM.DIHEDRAL>
0

>  <SCORE.SYSTEM.SOLV>
0

>  <SCORE.SYSTEM.norm>
0

>  <SCORE.heavy>
41

>  <SCORE.norm>
-0.276424

>  <RMSD>
5.726

$$$$
ligand
 OpenBabel11021811423D
libRbt.so/2013.1/901 2013/11/27
 41 45  0  0  0  0  0  0  0  0999 V2000
   33.9764   39.3626    7.0819 C   0  0  2  0  0  0  0  0  0  0  0  0
   33.4368   39.1310    5.7660 O   0  0  0  0  0  0  0  0  0  0  0  0
   31.7523   41.6281    2.6284 C   0  0  2  0  0  0  0  0  0  0  0  0
   30.9220   42.6667    1.9657 N   0  0  0  0  0  0  0  0  0  0  0  0
   36.1139   41.8630    4.5766 C   0  0  1  0  0  0  0  0  0  0  0  0
   40.7215   41.5691    4.9579 C   0  0  1  0  0  0  0  0  0  0  0  0
   35.2372   38.4826    7.3343 C   0  0  2  0  0  0  0  0  0  0  0  0
   36.2635   38.6444    6.3000 N   0  0  0  0  0  0  0  0  0  0  0  0
   30.8194   40.6785    3.4444 C   0  0  0  0  0  0  0  0  0  0  0  0
   37.0414   42.6655    5.5176 C   0  0  2  0  0  0  0  0  0  0  0  0
   37.3537   43.9565    4.9843 O   0  0  0  0  0  0  0  0  0  0  0  0
   41.8659   42.5051    4.3779 C   0  0  2  0  0  0  0  0  0  0  0  0
   41.6711   42.8921    2.9471 N   0  0  0  0  0  0  0  0  0  0  0  0
   34.8339   36.9880    7.4520 C   0  0  1  0  0  0  0  0  0  0  0  0
   35.9862   36.1900    7.7096 O   0  0  0  0  0  0  0  0  0  0  0  0
   31.6371   39.5704    4.1694 C   0  0  2  0  0  0  0  0  0  0  0  0
   30.6862   38.7156    4.9047 N   0  0  0  0  0  0  0  0  0  0  0  0
   38.2825   41.7733    5.6907 C   0  0  2  0  0  0  0  0  0  0  0  0
   39.3840   42.1591    4.7756 O   0  0  0  0  0  0  0  0  0  0  0  0
   43.2851   41.7984    4.5566 C   0  0  1  0  0  0  0  0  0  0  0  0
   43.6465   41.6958    5.9515 O   0  0  0  0  0  0  0  0  0  0  0  0
   33.7893   36.8168    8.5790 C   0  0  2  0  0  0  0  0  0  0  0  0
   33.4306   35.4567    8.7036 O   0  0  0  0  0  0  0  0  0  0  0  0
   32.7123   40.2229    5.1089 C   0  0  2  0  0  0  0  0  0  0  0  0
   37.7697   40.3679    5.3893 C   0  0  2  0  0  0  0  0  0  0  0  0
   36.6311   40.5314    4.5557 O   0  0  0  0  0  0  0  0  0  0  0  0
   43.3159   40.3520    3.9174 C   0  0  2  0  0  0  0  0  0  0  0  0
   43.2087   40.4641    2.4883 O   0  0  0  0  0  0  0  0  0  0  0  0
   32.5461   37.6805    8.2868 C   0  0  2  0  0  0  0  0  0  0  0  0
   32.9806   39.0877    8.1442 O   0  0  0  0  0  0  0  0  0  0  0  0
   33.6868   41.1649    4.2399 C   0  0  2  0  0  0  0  0  0  0  0  0
   34.7172   41.8486    5.0676 O   0  0  0  0  0  0  0  0  0  0  0  0
   37.3337   39.5960    6.6260 C   0  0  0  0  0  0  0  0  0  0  0  0
   42.1293   39.4828    4.5012 C   0  0  1  0  0  0  0  0  0  0  0  0
   40.8067   40.1832    4.3695 O   0  0  0  0  0  0  0  0  0  0  0  0
   31.5194   37.5200    9.4322 C   0  0  0  0  0  0  0  0  0  0  0  0
   31.9952   37.9540   10.7586 N   0  0  0  0  0  0  0  0  0  0  0  0
   32.8555   42.2704    3.5546 C   0  0  1  0  0  0  0  0  0  0  0  0
   33.7212   43.1092    2.7829 O   0  0  0  0  0  0  0  0  0  0  0  0
   42.0508   38.0355    3.8796 C   0  0  0  0  0  0  0  0  0  0  0  0
   41.8527   37.9606    2.3968 N   0  0  0  0  0  0  0  0  0  0  0  0
  1  2  1  6  0  0  0
  1  7  1  0  0  0  0
  1 30  1  0  0  0  0
  3  4  1  1  0  0  0
  3  9  1  0  0  0  0
  3 38  1  0  0  0  0
  5 10  1  0  0  0  0
  5 26  1  1  0  0  0
  5 32  1  0  0  0  0
  6 12  1  0  0  0  0
  6 35  1  0  0  0  0
  6 19  1  6  0  0  0
  7  8  1  6  0  0  0
  7 14  1  0  0  0  0
  8 33  1  0  0  0  0
  9 16  1  0  0  0  0
 10 11  1  6  0  0  0
 10 18  1  0  0  0  0
 12 13  1  6  0  0  0
 12 20  1  0  0  0  0
 14 15  1  1  0  0  0
 14 22  1  0  0  0  0
 16 17  1  1  0  0  0
 16 24  1  0  0  0  0
 18 19  1  6  0  0  0
 18 25  1  0  0  0  0
 20 21  1  1  0  0  0
 20 27  1  0  0  0  0
 22 23  1  6  0  0  0
 22 29  1  0  0  0  0
 24  2  1  6  0  0  0
 24 31  1  0  0  0  0
 25 26  1  6  0  0  0
 25 33  1  0  0  0  0
 27 28  1  6  0  0  0
 27 34  1  0  0  0  0
 29 30  1  0  0  0  0
 29 36  1  1  0  0  0
 31 32  1  1  0  0  0
 31 38  1  0  0  0  0
 34 35  1  0  0  0  0
 34 40  1  6  0  0  0
 36 37  1  0  0  0  0
 38 39  1  6  0  0  0
 40 41  1  0  0  0  0
M  END
>  <CHROM.1>
169.63426089,-154.73476121,61.47038118,-59.82861773,36.46371810,40.12362260
5.36605556,-2.83481516,0.04129757,-0.74731087

>  <Name>
ligand

>  <RI>
0

>  <Rbt.Current_Directory>
/home/itssahil/PROJECTS/Mol_Feturizer/New_Systems/rnas/1ZZ5

>  <Rbt.Executable>
rbdock ($Id: //depot/dev/client3/rdock/2013.1/src/exe/rbdock.cxx#4 $)

>  <Rbt.Library>
libRbt.so (2013.1, Build901 2013/11/27)

>  <Rbt.Parameter_File>
/export/apps/rDock/src/rDock_2013.1_src/data/scripts/dock_solv.prm

>  <Rbt.Receptor>
prm/pocket_docking_8.prm

>  <SCORE>
-11.1719

>  <SCORE.INTER>
-10.9432

>  <SCORE.INTER.CONST>
1

>  <SCORE.INTER.POLAR>
0

>  <SCORE.INTER.ROT>
4

>  <SCORE.INTER.SOLV>
26.3377

>  <SCORE.INTER.VDW>
-22.3414

>  <SCORE.INTER.norm>
-0.266907

>  <SCORE.INTRA>
-0.228748

>  <SCORE.INTRA.DIHEDRAL>
-1.78083

>  <SCORE.INTRA.DIHEDRAL.0>
5.18357

>  <SCORE.INTRA.POLAR>
0

>  <SCORE.INTRA.POLAR.0>
0

>  <SCORE.INTRA.REPUL>
0

>  <SCORE.INTRA.REPUL.0>
0

>  <SCORE.INTRA.SOLV>
1.31718

>  <SCORE.INTRA.SOLV.lig_0>
-109.973

>  <SCORE.INTRA.VDW>
0.00307599

>  <SCORE.INTRA.VDW.0>
-1.68646

>  <SCORE.INTRA.norm>
-0.00557921

>  <SCORE.RESTR>
0

>  <SCORE.RESTR.CAVITY>
0

>  <SCORE.RESTR.norm>
0

>  <SCORE.SYSTEM>
0

>  <SCORE.SYSTEM.CONST>
0

>  <SCORE.SYSTEM.DIHEDRAL>
0

>  <SCORE.SYSTEM.SOLV>
0

>  <SCORE.SYSTEM.norm>
0

>  <SCORE.heavy>
41

>  <SCORE.norm>
-0.272486

>  <RMSD>
5.771

$$$$
ligand
 OpenBabel11021811423D
libRbt.so/2013.1/901 2013/11/27
 41 45  0  0  0  0  0  0  0  0999 V2000
   34.1061   36.0313    9.3214 C   0  0  2  0  0  0  0  0  0  0  0  0
   35.0250   36.5727   10.2904 O   0  0  0  0  0  0  0  0  0  0  0  0
   39.2640   36.0956   11.1396 C   0  0  2  0  0  0  0  0  0  0  0  0
   40.5742   35.4375   11.3791 N   0  0  0  0  0  0  0  0  0  0  0  0
   37.2083   37.6278    7.1021 C   0  0  1  0  0  0  0  0  0  0  0  0
   37.6526   40.3065    5.1277 C   0  0  1  0  0  0  0  0  0  0  0  0
   33.1271   37.1270    8.8030 C   0  0  2  0  0  0  0  0  0  0  0  0
   33.8178   38.3101    8.2813 N   0  0  0  0  0  0  0  0  0  0  0  0
   38.2073   35.4912   12.1175 C   0  0  0  0  0  0  0  0  0  0  0  0
   36.8695   37.2711    5.6366 C   0  0  2  0  0  0  0  0  0  0  0  0
   38.0472   37.1431    4.8333 O   0  0  0  0  0  0  0  0  0  0  0  0
   36.9412   41.4655    5.9478 C   0  0  2  0  0  0  0  0  0  0  0  0
   36.0229   42.3163    5.1307 N   0  0  0  0  0  0  0  0  0  0  0  0
   32.1411   37.5416    9.9282 C   0  0  1  0  0  0  0  0  0  0  0  0
   31.2304   38.5241    9.4420 O   0  0  0  0  0  0  0  0  0  0  0  0
   36.8082   36.1394   11.9071 C   0  0  2  0  0  0  0  0  0  0  0  0
   35.8759   35.5237   12.8703 N   0  0  0  0  0  0  0  0  0  0  0  0
   35.9447   38.4067    5.1661 C   0  0  2  0  0  0  0  0  0  0  0  0
   36.6792   39.4570    4.4198 O   0  0  0  0  0  0  0  0  0  0  0  0
   38.0403   42.3823    6.6530 C   0  0  1  0  0  0  0  0  0  0  0  0
   38.7414   41.6569    7.6870 O   0  0  0  0  0  0  0  0  0  0  0  0
   31.3788   36.2969   10.4386 C   0  0  2  0  0  0  0  0  0  0  0  0
   30.4670   36.6693   11.4506 O   0  0  0  0  0  0  0  0  0  0  0  0
   36.3471   35.9525   10.4182 C   0  0  2  0  0  0  0  0  0  0  0  0
   35.3460   38.9528    6.4592 C   0  0  2  0  0  0  0  0  0  0  0  0
   36.2692   38.6320    7.4902 O   0  0  0  0  0  0  0  0  0  0  0  0
   39.0992   42.9444    5.6213 C   0  0  2  0  0  0  0  0  0  0  0  0
   38.4503   43.8725    4.7359 O   0  0  0  0  0  0  0  0  0  0  0  0
   32.3736   35.2440   10.9662 C   0  0  2  0  0  0  0  0  0  0  0  0
   33.3160   34.9073    9.8763 O   0  0  0  0  0  0  0  0  0  0  0  0
   37.4307   36.6184    9.4308 C   0  0  2  0  0  0  0  0  0  0  0  0
   37.0806   36.4531    7.9942 O   0  0  0  0  0  0  0  0  0  0  0  0
   34.0060   38.3315    6.8249 C   0  0  0  0  0  0  0  0  0  0  0  0
   39.7406   41.7489    4.8067 C   0  0  1  0  0  0  0  0  0  0  0  0
   38.6919   40.8674    4.1899 O   0  0  0  0  0  0  0  0  0  0  0  0
   31.6016   33.9948   11.4510 C   0  0  0  0  0  0  0  0  0  0  0  0
   30.7818   34.2009   12.6592 N   0  0  0  0  0  0  0  0  0  0  0  0
   38.8012   35.9396    9.6400 C   0  0  1  0  0  0  0  0  0  0  0  0
   39.7650   36.5300    8.7618 O   0  0  0  0  0  0  0  0  0  0  0  0
   40.7753   42.2217    3.7144 C   0  0  0  0  0  0  0  0  0  0  0  0
   42.0668   42.7839    4.2238 N   0  0  0  0  0  0  0  0  0  0  0  0
  1  2  1  1  0  0  0
  1  7  1  0  0  0  0
  1 30  1  0  0  0  0
  3  4  1  6  0  0  0
  3  9  1  0  0  0  0
  3 38  1  0  0  0  0
  5 10  1  0  0  0  0
  5 26  1  1  0  0  0
  5 32  1  0  0  0  0
  6 12  1  0  0  0  0
  6 35  1  0  0  0  0
  6 19  1  6  0  0  0
  7  8  1  1  0  0  0
  7 14  1  0  0  0  0
  8 33  1  0  0  0  0
  9 16  1  0  0  0  0
 10 11  1  6  0  0  0
 10 18  1  0  0  0  0
 12 13  1  6  0  0  0
 12 20  1  0  0  0  0
 14 15  1  6  0  0  0
 14 22  1  0  0  0  0
 16 17  1  1  0  0  0
 16 24  1  0  0  0  0
 18 19  1  1  0  0  0
 18 25  1  0  0  0  0
 20 21  1  1  0  0  0
 20 27  1  0  0  0  0
 22 23  1  1  0  0  0
 22 29  1  0  0  0  0
 24  2  1  1  0  0  0
 24 31  1  0  0  0  0
 25 26  1  1  0  0  0
 25 33  1  0  0  0  0
 27 28  1  6  0  0  0
 27 34  1  0  0  0  0
 29 30  1  0  0  0  0
 29 36  1  6  0  0  0
 31 32  1  6  0  0  0
 31 38  1  0  0  0  0
 34 35  1  0  0  0  0
 34 40  1  6  0  0  0
 36 37  1  0  0  0  0
 38 39  1  6  0  0  0
 40 41  1  0  0  0  0
M  END
>  <CHROM.1>
-67.67654264,-79.34947972,-68.29930559,69.79076563,36.24264930,38.15930121
8.13234502,2.16740659,-0.01171842,2.35453706

>  <Name>
ligand

>  <RI>
0

>  <Rbt.Current_Directory>
/home/itssahil/PROJECTS/Mol_Feturizer/New_Systems/rnas/1ZZ5

>  <Rbt.Executable>
rbdock ($Id: //depot/dev/client3/rdock/2013.1/src/exe/rbdock.cxx#4 $)

>  <Rbt.Library>
libRbt.so (2013.1, Build901 2013/11/27)

>  <Rbt.Parameter_File>
/export/apps/rDock/src/rDock_2013.1_src/data/scripts/dock_solv.prm

>  <Rbt.Receptor>
prm/pocket_docking_6.prm

>  <SCORE>
-10.6401

>  <SCORE.INTER>
-10.2546

>  <SCORE.INTER.CONST>
1

>  <SCORE.INTER.POLAR>
0

>  <SCORE.INTER.ROT>
4

>  <SCORE.INTER.SOLV>
18.9973

>  <SCORE.INTER.VDW>
-19.4355

>  <SCORE.INTER.norm>
-0.250112

>  <SCORE.INTRA>
-0.38554

>  <SCORE.INTRA.DIHEDRAL>
-2.45926

>  <SCORE.INTRA.DIHEDRAL.0>
5.18357

>  <SCORE.INTRA.POLAR>
0

>  <SCORE.INTRA.POLAR.0>
0

>  <SCORE.INTRA.REPUL>
0

>  <SCORE.INTRA.REPUL.0>
0

>  <SCORE.INTRA.SOLV>
1.09614

>  <SCORE.INTRA.SOLV.lig_0>
-109.973

>  <SCORE.INTRA.VDW>
0.29602

>  <SCORE.INTRA.VDW.0>
-1.68646

>  <SCORE.INTRA.norm>
-0.00940342

>  <SCORE.RESTR>
0

>  <SCORE.RESTR.CAVITY>
0

>  <SCORE.RESTR.norm>
0

>  <SCORE.SYSTEM>
0

>  <SCORE.SYSTEM.CONST>
0

>  <SCORE.SYSTEM.DIHEDRAL>
0

>  <SCORE.SYSTEM.SOLV>
0

>  <SCORE.SYSTEM.norm>
0

>  <SCORE.heavy>
41

>  <SCORE.norm>
-0.259515

>  <RMSD>
5.926

$$$$
ligand
 OpenBabel11021811423D
libRbt.so/2013.1/901 2013/11/27
 41 45  0  0  0  0  0  0  0  0999 V2000
   34.1633   35.9452    9.3637 C   0  0  2  0  0  0  0  0  0  0  0  0
   35.0813   36.4962   10.3281 O   0  0  0  0  0  0  0  0  0  0  0  0
   39.3321   36.0747   11.1469 C   0  0  2  0  0  0  0  0  0  0  0  0
   40.6529   35.4338   11.3753 N   0  0  0  0  0  0  0  0  0  0  0  0
   37.2280   37.5908    7.1283 C   0  0  1  0  0  0  0  0  0  0  0  0
   37.6772   40.2311    5.1407 C   0  0  1  0  0  0  0  0  0  0  0  0
   33.1658   37.0289    8.8555 C   0  0  2  0  0  0  0  0  0  0  0  0
   33.8367   38.2230    8.3328 N   0  0  0  0  0  0  0  0  0  0  0  0
   38.2906   35.4528   12.1300 C   0  0  0  0  0  0  0  0  0  0  0  0
   36.8840   37.2340    5.6640 C   0  0  2  0  0  0  0  0  0  0  0  0
   38.0578   37.1246    4.8523 O   0  0  0  0  0  0  0  0  0  0  0  0
   37.0273   41.3723    6.0337 C   0  0  2  0  0  0  0  0  0  0  0  0
   36.0834   42.2639    5.2926 N   0  0  0  0  0  0  0  0  0  0  0  0
   32.1819   37.4265    9.9887 C   0  0  1  0  0  0  0  0  0  0  0  0
   31.2546   38.3979    9.5118 O   0  0  0  0  0  0  0  0  0  0  0  0
   36.8813   36.0824   11.9312 C   0  0  2  0  0  0  0  0  0  0  0  0
   35.9641   35.4511   12.8988 N   0  0  0  0  0  0  0  0  0  0  0  0
   35.9406   38.3582    5.2034 C   0  0  2  0  0  0  0  0  0  0  0  0
   36.6555   39.4207    4.4555 O   0  0  0  0  0  0  0  0  0  0  0  0
   38.1754   42.2481    6.7121 C   0  0  1  0  0  0  0  0  0  0  0  0
   38.9153   41.4778    7.6847 O   0  0  0  0  0  0  0  0  0  0  0  0
   31.4403   36.1700   10.5003 C   0  0  2  0  0  0  0  0  0  0  0  0
   30.5305   36.5268   11.5197 O   0  0  0  0  0  0  0  0  0  0  0  0
   36.4125   35.8938   10.4449 C   0  0  2  0  0  0  0  0  0  0  0  0
   35.3434   38.8921    6.5023 C   0  0  2  0  0  0  0  0  0  0  0  0
   36.2779   38.5808    7.5260 O   0  0  0  0  0  0  0  0  0  0  0  0
   39.1905   42.8288    5.6472 C   0  0  2  0  0  0  0  0  0  0  0  0
   38.5137   43.7960    4.8269 O   0  0  0  0  0  0  0  0  0  0  0  0
   32.4530   35.1292   11.0179 C   0  0  2  0  0  0  0  0  0  0  0  0
   33.3925   34.8088    9.9204 O   0  0  0  0  0  0  0  0  0  0  0  0
   37.4802   36.5774    9.4523 C   0  0  2  0  0  0  0  0  0  0  0  0
   37.1225   36.4117    8.0175 O   0  0  0  0  0  0  0  0  0  0  0  0
   34.0145   38.2514    6.8752 C   0  0  0  0  0  0  0  0  0  0  0  0
   39.7703   41.6520    4.7622 C   0  0  1  0  0  0  0  0  0  0  0  0
   38.6774   40.8077    4.1705 O   0  0  0  0  0  0  0  0  0  0  0  0
   31.7015   33.8680   11.5040 C   0  0  0  0  0  0  0  0  0  0  0  0
   30.8529   34.0698   12.6928 N   0  0  0  0  0  0  0  0  0  0  0  0
   38.8612   35.9169    9.6499 C   0  0  1  0  0  0  0  0  0  0  0  0
   39.8108   36.5231    8.7670 O   0  0  0  0  0  0  0  0  0  0  0  0
   40.7567   42.1459    3.6350 C   0  0  0  0  0  0  0  0  0  0  0  0
   42.0752   42.6852    4.0975 N   0  0  0  0  0  0  0  0  0  0  0  0
  1  2  1  1  0  0  0
  1  7  1  0  0  0  0
  1 30  1  0  0  0  0
  3  4  1  6  0  0  0
  3  9  1  0  0  0  0
  3 38  1  0  0  0  0
  5 10  1  0  0  0  0
  5 26  1  1  0  0  0
  5 32  1  0  0  0  0
  6 12  1  0  0  0  0
  6 35  1  0  0  0  0
  6 19  1  6  0  0  0
  7  8  1  1  0  0  0
  7 14  1  0  0  0  0
  8 33  1  0  0  0  0
  9 16  1  0  0  0  0
 10 11  1  6  0  0  0
 10 18  1  0  0  0  0
 12 13  1  6  0  0  0
 12 20  1  0  0  0  0
 14 15  1  6  0  0  0
 14 22  1  0  0  0  0
 16 17  1  1  0  0  0
 16 24  1  0  0  0  0
 18 19  1  1  0  0  0
 18 25  1  0  0  0  0
 20 21  1  1  0  0  0
 20 27  1  0  0  0  0
 22 23  1  1  0  0  0
 22 29  1  0  0  0  0
 24  2  1  1  0  0  0
 24 31  1  0  0  0  0
 25 26  1  1  0  0  0
 25 33  1  0  0  0  0
 27 28  1  6  0  0  0
 27 34  1  0  0  0  0
 29 30  1  0  0  0  0
 29 36  1  6  0  0  0
 31 32  1  6  0  0  0
 31 38  1  0  0  0  0
 34 35  1  0  0  0  0
 34 40  1  6  0  0  0
 36 37  1  0  0  0  0
 38 39  1  6  0  0  0
 40 41  1  0  0  0  0
M  END
>  <CHROM.1>
-64.23657746,-79.26633273,-66.40710420,69.13610840,36.29144236,38.08320152
8.16223205,2.16694810,-0.00366150,2.34688109

>  <Name>
ligand

>  <RI>
0

>  <Rbt.Current_Directory>
/home/itssahil/PROJECTS/Mol_Feturizer/New_Systems/rnas/1ZZ5

>  <Rbt.Executable>
rbdock ($Id: //depot/dev/client3/rdock/2013.1/src/exe/rbdock.cxx#4 $)

>  <Rbt.Library>
libRbt.so (2013.1, Build901 2013/11/27)

>  <Rbt.Parameter_File>
/export/apps/rDock/src/rDock_2013.1_src/data/scripts/dock_solv.prm

>  <Rbt.Receptor>
prm/pocket_docking_6.prm

>  <SCORE>
-10.6019

>  <SCORE.INTER>
-10.0647

>  <SCORE.INTER.CONST>
1

>  <SCORE.INTER.POLAR>
0

>  <SCORE.INTER.ROT>
4

>  <SCORE.INTER.SOLV>
18.4994

>  <SCORE.INTER.VDW>
-19.143

>  <SCORE.INTER.norm>
-0.245481

>  <SCORE.INTRA>
-0.537204

>  <SCORE.INTRA.DIHEDRAL>
-2.80677

>  <SCORE.INTRA.DIHEDRAL.0>
5.18357

>  <SCORE.INTRA.POLAR>
0

>  <SCORE.INTRA.POLAR.0>
0

>  <SCORE.INTRA.REPUL>
0

>  <SCORE.INTRA.REPUL.0>
0

>  <SCORE.INTRA.SOLV>
1.19812

>  <SCORE.INTRA.SOLV.lig_0>
-109.973

>  <SCORE.INTRA.VDW>
0.26712

>  <SCORE.INTRA.VDW.0>
-1.68646

>  <SCORE.INTRA.norm>
-0.0131025

>  <SCORE.RESTR>
0

>  <SCORE.RESTR.CAVITY>
0

>  <SCORE.RESTR.norm>
0

>  <SCORE.SYSTEM>
0

>  <SCORE.SYSTEM.CONST>
0

>  <SCORE.SYSTEM.DIHEDRAL>
0

>  <SCORE.SYSTEM.SOLV>
0

>  <SCORE.SYSTEM.norm>
0

>  <SCORE.heavy>
41

>  <SCORE.norm>
-0.258583

>  <RMSD>
5.952

$$$$
ligand
 OpenBabel11021811423D
libRbt.so/2013.1/901 2013/11/27
 41 45  0  0  0  0  0  0  0  0999 V2000
   33.8706   36.2285    9.2887 C   0  0  2  0  0  0  0  0  0  0  0  0
   34.8101   36.7167   10.2662 O   0  0  0  0  0  0  0  0  0  0  0  0
   39.0367   36.0897   11.0792 C   0  0  2  0  0  0  0  0  0  0  0  0
   40.3275   35.3863   11.2943 N   0  0  0  0  0  0  0  0  0  0  0  0
   37.0092   37.7875    7.0940 C   0  0  1  0  0  0  0  0  0  0  0  0
   37.4489   40.5717    5.2074 C   0  0  1  0  0  0  0  0  0  0  0  0
   32.9228   37.3664    8.8042 C   0  0  2  0  0  0  0  0  0  0  0  0
   33.6466   38.5413    8.3093 N   0  0  0  0  0  0  0  0  0  0  0  0
   37.9669   35.4924   12.0470 C   0  0  0  0  0  0  0  0  0  0  0  0
   36.6526   37.4794    5.6217 C   0  0  2  0  0  0  0  0  0  0  0  0
   37.8220   37.3367    4.8088 O   0  0  0  0  0  0  0  0  0  0  0  0
   36.6874   41.7582    5.9386 C   0  0  2  0  0  0  0  0  0  0  0  0
   35.8304   42.5830    5.0330 N   0  0  0  0  0  0  0  0  0  0  0  0
   31.9552   37.7813    9.9452 C   0  0  1  0  0  0  0  0  0  0  0  0
   31.0725   38.8032    9.4896 O   0  0  0  0  0  0  0  0  0  0  0  0
   36.5870   36.1878   11.8612 C   0  0  2  0  0  0  0  0  0  0  0  0
   35.6411   35.5758   12.8134 N   0  0  0  0  0  0  0  0  0  0  0  0
   35.7605   38.6543    5.1858 C   0  0  2  0  0  0  0  0  0  0  0  0
   36.5230   39.7008    4.4628 O   0  0  0  0  0  0  0  0  0  0  0  0
   37.7391   42.6960    6.6870 C   0  0  1  0  0  0  0  0  0  0  0  0
   38.3651   42.0040    7.7897 O   0  0  0  0  0  0  0  0  0  0  0  0
   31.1579   36.5475   10.4276 C   0  0  2  0  0  0  0  0  0  0  0  0
   30.2628   36.9209   11.4540 O   0  0  0  0  0  0  0  0  0  0  0  0
   36.1133   36.0536   10.3706 C   0  0  2  0  0  0  0  0  0  0  0  0
   35.1849   39.1845    6.4959 C   0  0  2  0  0  0  0  0  0  0  0  0
   36.1028   38.8092    7.5131 O   0  0  0  0  0  0  0  0  0  0  0  0
   38.8683   43.2221    5.7125 C   0  0  2  0  0  0  0  0  0  0  0  0
   38.2851   44.1216    4.7547 O   0  0  0  0  0  0  0  0  0  0  0  0
   32.1229   35.4517   10.9224 C   0  0  2  0  0  0  0  0  0  0  0  0
   33.0494   35.1150    9.8188 O   0  0  0  0  0  0  0  0  0  0  0  0
   37.2119   36.7118    9.3947 C   0  0  2  0  0  0  0  0  0  0  0  0
   36.8501   36.5945    7.9562 O   0  0  0  0  0  0  0  0  0  0  0  0
   33.8283   38.5947    6.8529 C   0  0  0  0  0  0  0  0  0  0  0  0
   39.5594   41.9994    4.9833 C   0  0  1  0  0  0  0  0  0  0  0  0
   38.5521   41.0998    4.3253 O   0  0  0  0  0  0  0  0  0  0  0  0
   31.3156   34.2141   11.3791 C   0  0  0  0  0  0  0  0  0  0  0  0
   32.1081   33.1694   12.0534 N   0  0  0  0  0  0  0  0  0  0  0  0
   38.5622   35.9867    9.5786 C   0  0  1  0  0  0  0  0  0  0  0  0
   39.5392   36.5703    8.7105 O   0  0  0  0  0  0  0  0  0  0  0  0
   40.6683   42.4344    3.9495 C   0  0  0  0  0  0  0  0  0  0  0  0
   41.5056   41.3343    3.3734 N   0  0  0  0  0  0  0  0  0  0  0  0
  1  2  1  1  0  0  0
  1  7  1  0  0  0  0
  1 30  1  0  0  0  0
  3  4  1  6  0  0  0
  3  9  1  0  0  0  0
  3 38  1  0  0  0  0
  5 10  1  0  0  0  0
  5 26  1  1  0  0  0
  5 32  1  0  0  0  0
  6 12  1  0  0  0  0
  6 35  1  0  0  0  0
  6 19  1  6  0  0  0
  7  8  1  1  0  0  0
  7 14  1  0  0  0  0
  8 33  1  0  0  0  0
  9 16  1  0  0  0  0
 10 11  1  6  0  0  0
 10 18  1  0  0  0  0
 12 13  1  6  0  0  0
 12 20  1  0  0  0  0
 14 15  1  6  0  0  0
 14 22  1  0  0  0  0
 16 17  1  1  0  0  0
 16 24  1  0  0  0  0
 18 19  1  1  0  0  0
 18 25  1  0  0  0  0
 20 21  1  1  0  0  0
 20 27  1  0  0  0  0
 22 23  1  1  0  0  0
 22 29  1  0  0  0  0
 24  2  1  1  0  0  0
 24 31  1  0  0  0  0
 25 26  1  1  0  0  0
 25 33  1  0  0  0  0
 27 28  1  6  0  0  0
 27 34  1  0  0  0  0
 29 30  1  0  0  0  0
 29 36  1  6  0  0  0
 31 32  1  6  0  0  0
 31 38  1  0  0  0  0
 34 35  1  0  0  0  0
 34 40  1  6  0  0  0
 36 37  1  0  0  0  0
 38 39  1  6  0  0  0
 40 41  1  0  0  0  0
M  END
>  <CHROM.1>
-72.39153458,-80.87654285,-171.65851101,171.15764740,36.05758655,38.27982366
8.10179802,2.13870020,-0.06329098,2.39503696

>  <Name>
ligand

>  <RI>
0

>  <Rbt.Current_Directory>
/home/itssahil/PROJECTS/Mol_Feturizer/New_Systems/rnas/1ZZ5

>  <Rbt.Executable>
rbdock ($Id: //depot/dev/client3/rdock/2013.1/src/exe/rbdock.cxx#4 $)

>  <Rbt.Library>
libRbt.so (2013.1, Build901 2013/11/27)

>  <Rbt.Parameter_File>
/export/apps/rDock/src/rDock_2013.1_src/data/scripts/dock_solv.prm

>  <Rbt.Receptor>
prm/pocket_docking_5.prm

>  <SCORE>
-9.74449

>  <SCORE.INTER>
-8.93438

>  <SCORE.INTER.CONST>
1

>  <SCORE.INTER.POLAR>
0

>  <SCORE.INTER.ROT>
4

>  <SCORE.INTER.SOLV>
23.5176

>  <SCORE.INTER.VDW>
-20.0621

>  <SCORE.INTER.norm>
-0.217912

>  <SCORE.INTRA>
-0.810109

>  <SCORE.INTRA.DIHEDRAL>
-1.79697

>  <SCORE.INTRA.DIHEDRAL.0>
5.18357

>  <SCORE.INTRA.POLAR>
0

>  <SCORE.INTRA.POLAR.0>
0

>  <SCORE.INTRA.REPUL>
0

>  <SCORE.INTRA.REPUL.0>
0

>  <SCORE.INTRA.SOLV>
-0.473223

>  <SCORE.INTRA.SOLV.lig_0>
-109.973

>  <SCORE.INTRA.VDW>
0.32499

>  <SCORE.INTRA.VDW.0>
-1.68646

>  <SCORE.INTRA.norm>
-0.0197588

>  <SCORE.RESTR>
0

>  <SCORE.RESTR.CAVITY>
0

>  <SCORE.RESTR.norm>
0

>  <SCORE.SYSTEM>
0

>  <SCORE.SYSTEM.CONST>
0

>  <SCORE.SYSTEM.DIHEDRAL>
0

>  <SCORE.SYSTEM.SOLV>
0

>  <SCORE.SYSTEM.norm>
0

>  <SCORE.heavy>
41

>  <SCORE.norm>
-0.23767

>  <RMSD>
5.957

$$$$
ligand
 OpenBabel11021811423D
libRbt.so/2013.1/901 2013/11/27
 41 45  0  0  0  0  0  0  0  0999 V2000
   36.1251   36.0664   10.0610 C   0  0  2  0  0  0  0  0  0  0  0  0
   36.6705   37.2563   10.6636 O   0  0  0  0  0  0  0  0  0  0  0  0
   39.2757   38.0985   14.0431 C   0  0  2  0  0  0  0  0  0  0  0  0
   39.8390   38.0519   15.4171 N   0  0  0  0  0  0  0  0  0  0  0  0
   40.2126   35.4518   10.1712 C   0  0  1  0  0  0  0  0  0  0  0  0
   42.8233   35.1783    8.2063 C   0  0  1  0  0  0  0  0  0  0  0  0
   36.1480   36.1638    8.5061 C   0  0  2  0  0  0  0  0  0  0  0  0
   37.4782   36.4713    7.9722 N   0  0  0  0  0  0  0  0  0  0  0  0
   37.7582   38.4556   14.1297 C   0  0  0  0  0  0  0  0  0  0  0  0
   40.4104   34.0160    9.6336 C   0  0  2  0  0  0  0  0  0  0  0  0
   41.5832   33.4006   10.1763 O   0  0  0  0  0  0  0  0  0  0  0  0
   42.5834   36.6654    7.7032 C   0  0  2  0  0  0  0  0  0  0  0  0
   42.5903   36.8149    6.2158 N   0  0  0  0  0  0  0  0  0  0  0  0
   35.1232   37.2236    8.0194 C   0  0  1  0  0  0  0  0  0  0  0  0
   35.1281   37.2901    6.5958 O   0  0  0  0  0  0  0  0  0  0  0  0
   37.1102   38.5118   12.7158 C   0  0  2  0  0  0  0  0  0  0  0  0
   35.6875   38.8627   12.8847 N   0  0  0  0  0  0  0  0  0  0  0  0
   40.4735   34.1804    8.1055 C   0  0  2  0  0  0  0  0  0  0  0  0
   41.8678   34.2332    7.6029 O   0  0  0  0  0  0  0  0  0  0  0  0
   43.6730   37.6367    8.3474 C   0  0  1  0  0  0  0  0  0  0  0  0
   43.4861   37.7590    9.7747 O   0  0  0  0  0  0  0  0  0  0  0  0
   33.7133   36.8650    8.5434 C   0  0  2  0  0  0  0  0  0  0  0  0
   32.7725   37.8154    8.0899 O   0  0  0  0  0  0  0  0  0  0  0  0
   37.3094   37.1406   11.9778 C   0  0  2  0  0  0  0  0  0  0  0  0
   39.7342   35.4900    7.8459 C   0  0  2  0  0  0  0  0  0  0  0  0
   39.8309   36.2445    9.0456 O   0  0  0  0  0  0  0  0  0  0  0  0
   45.1500   37.1437    8.0701 C   0  0  2  0  0  0  0  0  0  0  0  0
   45.4312   37.2591    6.6651 O   0  0  0  0  0  0  0  0  0  0  0  0
   33.7195   36.8009   10.0837 C   0  0  2  0  0  0  0  0  0  0  0  0
   34.7346   35.8097   10.5039 O   0  0  0  0  0  0  0  0  0  0  0  0
   38.8818   36.8131   11.8644 C   0  0  2  0  0  0  0  0  0  0  0  0
   39.1531   35.5078   11.2038 O   0  0  0  0  0  0  0  0  0  0  0  0
   38.2572   35.3079    7.5286 C   0  0  0  0  0  0  0  0  0  0  0  0
   45.3143   35.6455    8.5525 C   0  0  1  0  0  0  0  0  0  0  0  0
   44.2518   34.7535    7.9758 O   0  0  0  0  0  0  0  0  0  0  0  0
   32.3110   36.4178   10.5948 C   0  0  0  0  0  0  0  0  0  0  0  0
   31.8760   35.0512   10.2521 N   0  0  0  0  0  0  0  0  0  0  0  0
   39.4935   36.7358   13.2796 C   0  0  1  0  0  0  0  0  0  0  0  0
   40.8910   36.4434   13.1799 O   0  0  0  0  0  0  0  0  0  0  0  0
   46.7472   35.0513    8.2677 C   0  0  0  0  0  0  0  0  0  0  0  0
   47.1427   34.9357    6.8277 N   0  0  0  0  0  0  0  0  0  0  0  0
  1  2  1  1  0  0  0
  1  7  1  0  0  0  0
  1 30  1  0  0  0  0
  3  4  1  1  0  0  0
  3  9  1  0  0  0  0
  3 38  1  0  0  0  0
  5 10  1  0  0  0  0
  5 26  1  6  0  0  0
  5 32  1  0  0  0  0
  6 12  1  0  0  0  0
  6 35  1  0  0  0  0
  6 19  1  6  0  0  0
  7  8  1  1  0  0  0
  7 14  1  0  0  0  0
  8 33  1  0  0  0  0
  9 16  1  0  0  0  0
 10 11  1  1  0  0  0
 10 18  1  0  0  0  0
 12 13  1  6  0  0  0
 12 20  1  0  0  0  0
 14 15  1  6  0  0  0
 14 22  1  0  0  0  0
 16 17  1  1  0  0  0
 16 24  1  0  0  0  0
 18 19  1  1  0  0  0
 18 25  1  0  0  0  0
 20 21  1  1  0  0  0
 20 27  1  0  0  0  0
 22 23  1  1  0  0  0
 22 29  1  0  0  0  0
 24  2  1  6  0  0  0
 24 31  1  0  0  0  0
 25 26  1  1  0  0  0
 25 33  1  0  0  0  0
 27 28  1  6  0  0  0
 27 34  1  0  0  0  0
 29 30  1  0  0  0  0
 29 36  1  6  0  0  0
 31 32  1  1  0  0  0
 31 38  1  0  0  0  0
 34 35  1  0  0  0  0
 34 40  1  6  0  0  0
 36 37  1  0  0  0  0
 38 39  1  6  0  0  0
 40 41  1  0  0  0  0
M  END
>  <CHROM.1>
-51.68796639,-76.70468099,66.76455315,-63.46004166,39.34874343,36.35583457
9.67096315,2.89404320,-0.05213408,1.30921859

>  <Name>
ligand

>  <RI>
0

>  <Rbt.Current_Directory>
/home/itssahil/PROJECTS/Mol_Feturizer/New_Systems/rnas/1ZZ5

>  <Rbt.Executable>
rbdock ($Id: //depot/dev/client3/rdock/2013.1/src/exe/rbdock.cxx#4 $)

>  <Rbt.Library>
libRbt.so (2013.1, Build901 2013/11/27)

>  <Rbt.Parameter_File>
/export/apps/rDock/src/rDock_2013.1_src/data/scripts/dock_solv.prm

>  <Rbt.Receptor>
prm/pocket_docking_8.prm

>  <SCORE>
-7.63635

>  <SCORE.INTER>
-7.45055

>  <SCORE.INTER.CONST>
1

>  <SCORE.INTER.POLAR>
0

>  <SCORE.INTER.ROT>
4

>  <SCORE.INTER.SOLV>
13.8464

>  <SCORE.INTER.VDW>
-15.8492

>  <SCORE.INTER.norm>
-0.181721

>  <SCORE.INTRA>
-0.185799

>  <SCORE.INTRA.DIHEDRAL>
-3.14532

>  <SCORE.INTRA.DIHEDRAL.0>
5.18357

>  <SCORE.INTRA.POLAR>
0

>  <SCORE.INTRA.POLAR.0>
0

>  <SCORE.INTRA.REPUL>
0

>  <SCORE.INTRA.REPUL.0>
0

>  <SCORE.INTRA.SOLV>
3.07441

>  <SCORE.INTRA.SOLV.lig_0>
-109.973

>  <SCORE.INTRA.VDW>
-0.150344

>  <SCORE.INTRA.VDW.0>
-1.68646

>  <SCORE.INTRA.norm>
-0.00453168

>  <SCORE.RESTR>
0

>  <SCORE.RESTR.CAVITY>
0

>  <SCORE.RESTR.norm>
0

>  <SCORE.SYSTEM>
0

>  <SCORE.SYSTEM.CONST>
0

>  <SCORE.SYSTEM.DIHEDRAL>
0

>  <SCORE.SYSTEM.SOLV>
0

>  <SCORE.SYSTEM.norm>
0

>  <SCORE.heavy>
41

>  <SCORE.norm>
-0.186252

>  <RMSD>
5.957

$$$$
ligand
 OpenBabel11021811423D
libRbt.so/2013.1/901 2013/11/27
 41 45  0  0  0  0  0  0  0  0999 V2000
   33.8712   36.2181    9.3116 C   0  0  2  0  0  0  0  0  0  0  0  0
   34.8143   36.7123   10.2825 O   0  0  0  0  0  0  0  0  0  0  0  0
   39.0429   36.0871   11.0863 C   0  0  2  0  0  0  0  0  0  0  0  0
   40.3337   35.3839   11.3024 N   0  0  0  0  0  0  0  0  0  0  0  0
   37.0041   37.7581    7.0956 C   0  0  1  0  0  0  0  0  0  0  0  0
   37.4580   40.5125    5.1836 C   0  0  1  0  0  0  0  0  0  0  0  0
   32.9230   37.3534    8.8220 C   0  0  2  0  0  0  0  0  0  0  0  0
   33.6463   38.5240    8.3163 N   0  0  0  0  0  0  0  0  0  0  0  0
   37.9756   35.4978   12.0619 C   0  0  0  0  0  0  0  0  0  0  0  0
   36.6425   37.4398    5.6267 C   0  0  2  0  0  0  0  0  0  0  0  0
   37.8092   37.2900    4.8111 O   0  0  0  0  0  0  0  0  0  0  0  0
   36.7220   41.7120    5.9197 C   0  0  2  0  0  0  0  0  0  0  0  0
   35.8666   42.5463    5.0214 N   0  0  0  0  0  0  0  0  0  0  0  0
   31.9594   37.7775    9.9630 C   0  0  1  0  0  0  0  0  0  0  0  0
   31.0762   38.7969    9.5029 O   0  0  0  0  0  0  0  0  0  0  0  0
   36.5958   36.1932   11.8755 C   0  0  2  0  0  0  0  0  0  0  0  0
   35.6524   35.5891   12.8351 N   0  0  0  0  0  0  0  0  0  0  0  0
   35.7502   38.6123    5.1852 C   0  0  2  0  0  0  0  0  0  0  0  0
   36.5114   39.6529    4.4522 O   0  0  0  0  0  0  0  0  0  0  0  0
   37.7955   42.6367    6.6532 C   0  0  1  0  0  0  0  0  0  0  0  0
   38.4240   41.9390    7.7510 O   0  0  0  0  0  0  0  0  0  0  0  0
   31.1625   36.5479   10.4568 C   0  0  2  0  0  0  0  0  0  0  0  0
   30.2710   36.9297   11.4834 O   0  0  0  0  0  0  0  0  0  0  0  0
   36.1172   36.0488   10.3874 C   0  0  2  0  0  0  0  0  0  0  0  0
   35.1793   39.1526    6.4933 C   0  0  2  0  0  0  0  0  0  0  0  0
   36.1002   38.7837    7.5102 O   0  0  0  0  0  0  0  0  0  0  0  0
   38.9209   43.1438    5.6644 C   0  0  2  0  0  0  0  0  0  0  0  0
   38.3397   44.0488    4.7105 O   0  0  0  0  0  0  0  0  0  0  0  0
   32.1280   35.4548   10.9564 C   0  0  2  0  0  0  0  0  0  0  0  0
   33.0506   35.1092    9.8524 O   0  0  0  0  0  0  0  0  0  0  0  0
   37.2133   36.6988    9.4033 C   0  0  2  0  0  0  0  0  0  0  0  0
   36.8467   36.5715    7.9669 O   0  0  0  0  0  0  0  0  0  0  0  0
   33.8234   38.5667    6.8589 C   0  0  0  0  0  0  0  0  0  0  0  0
   39.5861   41.9093    4.9312 C   0  0  1  0  0  0  0  0  0  0  0  0
   38.5585   41.0222    4.2874 O   0  0  0  0  0  0  0  0  0  0  0  0
   31.3210   34.2214   11.4246 C   0  0  0  0  0  0  0  0  0  0  0  0
   32.1120   33.1875   12.1173 N   0  0  0  0  0  0  0  0  0  0  0  0
   38.5634   35.9737    9.5881 C   0  0  1  0  0  0  0  0  0  0  0  0
   39.5382   36.5501    8.7127 O   0  0  0  0  0  0  0  0  0  0  0  0
   40.6892   42.3252    3.8835 C   0  0  0  0  0  0  0  0  0  0  0  0
   41.5653   41.2240    3.3707 N   0  0  0  0  0  0  0  0  0  0  0  0
  1  2  1  1  0  0  0
  1  7  1  0  0  0  0
  1 30  1  0  0  0  0
  3  4  1  6  0  0  0
  3  9  1  0  0  0  0
  3 38  1  0  0  0  0
  5 10  1  0  0  0  0
  5 26  1  1  0  0  0
  5 32  1  0  0  0  0
  6 12  1  0  0  0  0
  6 35  1  0  0  0  0
  6 19  1  6  0  0  0
  7  8  1  1  0  0  0
  7 14  1  0  0  0  0
  8 33  1  0  0  0  0
  9 16  1  0  0  0  0
 10 11  1  6  0  0  0
 10 18  1  0  0  0  0
 12 13  1  6  0  0  0
 12 20  1  0  0  0  0
 14 15  1  6  0  0  0
 14 22  1  0  0  0  0
 16 17  1  1  0  0  0
 16 24  1  0  0  0  0
 18 19  1  1  0  0  0
 18 25  1  0  0  0  0
 20 21  1  1  0  0  0
 20 27  1  0  0  0  0
 22 23  1  1  0  0  0
 22 29  1  0  0  0  0
 24  2  1  1  0  0  0
 24 31  1  0  0  0  0
 25 26  1  1  0  0  0
 25 33  1  0  0  0  0
 27 28  1  6  0  0  0
 27 34  1  0  0  0  0
 29 30  1  0  0  0  0
 29 36  1  6  0  0  0
 31 32  1  6  0  0  0
 31 38  1  0  0  0  0
 34 35  1  0  0  0  0
 34 40  1  6  0  0  0
 36 37  1  0  0  0  0
 38 39  1  6  0  0  0
 40 41  1  0  0  0  0
M  END
>  <CHROM.1>
-71.32587890,-81.35727577,-171.00871297,167.17401590,36.06820102,38.25102380
8.10327444,2.14323852,-0.06493197,2.38484529

>  <Name>
ligand

>  <RI>
0

>  <Rbt.Current_Directory>
/home/itssahil/PROJECTS/Mol_Feturizer/New_Systems/rnas/1ZZ5

>  <Rbt.Executable>
rbdock ($Id: //depot/dev/client3/rdock/2013.1/src/exe/rbdock.cxx#4 $)

>  <Rbt.Library>
libRbt.so (2013.1, Build901 2013/11/27)

>  <Rbt.Parameter_File>
/export/apps/rDock/src/rDock_2013.1_src/data/scripts/dock_solv.prm

>  <Rbt.Receptor>
prm/pocket_docking_6.prm

>  <SCORE>
-9.71808

>  <SCORE.INTER>
-8.99093

>  <SCORE.INTER.CONST>
1

>  <SCORE.INTER.POLAR>
0

>  <SCORE.INTER.ROT>
4

>  <SCORE.INTER.SOLV>
23.0972

>  <SCORE.INTER.VDW>
-19.9597

>  <SCORE.INTER.norm>
-0.219291

>  <SCORE.INTRA>
-0.727148

>  <SCORE.INTRA.DIHEDRAL>
-1.50276

>  <SCORE.INTRA.DIHEDRAL.0>
5.18357

>  <SCORE.INTRA.POLAR>
0

>  <SCORE.INTRA.POLAR.0>
0

>  <SCORE.INTRA.REPUL>
0

>  <SCORE.INTRA.REPUL.0>
0

>  <SCORE.INTRA.SOLV>
-0.519995

>  <SCORE.INTRA.SOLV.lig_0>
-109.973

>  <SCORE.INTRA.VDW>
0.28423

>  <SCORE.INTRA.VDW.0>
-1.68646

>  <SCORE.INTRA.norm>
-0.0177353

>  <SCORE.RESTR>
0

>  <SCORE.RESTR.CAVITY>
0

>  <SCORE.RESTR.norm>
0

>  <SCORE.SYSTEM>
0

>  <SCORE.SYSTEM.CONST>
0

>  <SCORE.SYSTEM.DIHEDRAL>
0

>  <SCORE.SYSTEM.SOLV>
0

>  <SCORE.SYSTEM.norm>
0

>  <SCORE.heavy>
41

>  <SCORE.norm>
-0.237026

>  <RMSD>
5.959

$$$$
ligand
 OpenBabel11021811423D
libRbt.so/2013.1/901 2013/11/27
 41 45  0  0  0  0  0  0  0  0999 V2000
   36.1983   35.9293   10.0616 C   0  0  2  0  0  0  0  0  0  0  0  0
   36.7550   37.1151   10.6620 O   0  0  0  0  0  0  0  0  0  0  0  0
   39.4202   37.9348   14.0001 C   0  0  2  0  0  0  0  0  0  0  0  0
   40.0077   37.8791   15.3635 N   0  0  0  0  0  0  0  0  0  0  0  0
   40.2869   35.3123   10.0954 C   0  0  1  0  0  0  0  0  0  0  0  0
   42.1348   33.9118    6.0504 C   0  0  1  0  0  0  0  0  0  0  0  0
   36.1938   36.0366    8.5072 C   0  0  2  0  0  0  0  0  0  0  0  0
   37.5145   36.3469    7.9518 N   0  0  0  0  0  0  0  0  0  0  0  0
   37.9045   38.2919   14.1158 C   0  0  0  0  0  0  0  0  0  0  0  0
   40.4743   33.8798    9.5453 C   0  0  2  0  0  0  0  0  0  0  0  0
   41.6562   33.2605   10.0632 O   0  0  0  0  0  0  0  0  0  0  0  0
   43.6687   34.0819    5.6758 C   0  0  2  0  0  0  0  0  0  0  0  0
   44.2643   35.3801    6.1172 N   0  0  0  0  0  0  0  0  0  0  0  0
   35.1610   37.0998    8.0455 C   0  0  1  0  0  0  0  0  0  0  0  0
   35.1408   37.1754    6.6225 O   0  0  0  0  0  0  0  0  0  0  0  0
   37.2317   38.3573   12.7140 C   0  0  2  0  0  0  0  0  0  0  0  0
   35.8123   38.7077   12.9104 N   0  0  0  0  0  0  0  0  0  0  0  0
   40.5104   34.0539    8.0174 C   0  0  2  0  0  0  0  0  0  0  0  0
   41.8957   34.1094    7.4906 O   0  0  0  0  0  0  0  0  0  0  0  0
   43.8637   33.9069    4.1020 C   0  0  1  0  0  0  0  0  0  0  0  0
   43.5930   32.5493    3.6890 O   0  0  0  0  0  0  0  0  0  0  0  0
   33.7605   36.7385    8.5921 C   0  0  2  0  0  0  0  0  0  0  0  0
   32.8123   37.6922    8.1615 O   0  0  0  0  0  0  0  0  0  0  0  0
   37.4170   36.9908   11.9640 C   0  0  2  0  0  0  0  0  0  0  0  0
   39.7673   35.3655    7.7793 C   0  0  2  0  0  0  0  0  0  0  0  0
   39.8857   36.1123    8.9819 O   0  0  0  0  0  0  0  0  0  0  0  0
   42.9352   34.8832    3.2737 C   0  0  2  0  0  0  0  0  0  0  0  0
   43.3654   36.2384    3.4855 O   0  0  0  0  0  0  0  0  0  0  0  0
   33.7939   36.6647   10.1317 C   0  0  2  0  0  0  0  0  0  0  0  0
   34.8158   35.6704   10.5275 O   0  0  0  0  0  0  0  0  0  0  0  0
   38.9870   36.6634   11.8206 C   0  0  2  0  0  0  0  0  0  0  0  0
   39.2458   35.3622   11.1470 O   0  0  0  0  0  0  0  0  0  0  0  0
   38.2848   35.1860    7.4871 C   0  0  0  0  0  0  0  0  0  0  0  0
   41.4286   34.6980    3.7210 C   0  0  1  0  0  0  0  0  0  0  0  0
   41.2696   34.8171    5.2102 O   0  0  0  0  0  0  0  0  0  0  0  0
   32.3945   36.2789   10.6652 C   0  0  0  0  0  0  0  0  0  0  0  0
   31.9449   34.9213   10.3057 N   0  0  0  0  0  0  0  0  0  0  0  0
   39.6236   36.5768   13.2242 C   0  0  1  0  0  0  0  0  0  0  0  0
   41.0190   36.2845   13.0979 O   0  0  0  0  0  0  0  0  0  0  0  0
   40.4331   35.6719    2.9808 C   0  0  0  0  0  0  0  0  0  0  0  0
   38.9772   35.4829    3.2775 N   0  0  0  0  0  0  0  0  0  0  0  0
  1  2  1  1  0  0  0
  1  7  1  0  0  0  0
  1 30  1  0  0  0  0
  3  4  1  1  0  0  0
  3  9  1  0  0  0  0
  3 38  1  0  0  0  0
  5 10  1  0  0  0  0
  5 26  1  6  0  0  0
  5 32  1  0  0  0  0
  6 12  1  0  0  0  0
  6 35  1  0  0  0  0
  6 19  1  1  0  0  0
  7  8  1  1  0  0  0
  7 14  1  0  0  0  0
  8 33  1  0  0  0  0
  9 16  1  0  0  0  0
 10 11  1  1  0  0  0
 10 18  1  0  0  0  0
 12 13  1  6  0  0  0
 12 20  1  0  0  0  0
 14 15  1  6  0  0  0
 14 22  1  0  0  0  0
 16 17  1  1  0  0  0
 16 24  1  0  0  0  0
 18 19  1  1  0  0  0
 18 25  1  0  0  0  0
 20 21  1  6  0  0  0
 20 27  1  0  0  0  0
 22 23  1  1  0  0  0
 22 29  1  0  0  0  0
 24  2  1  6  0  0  0
 24 31  1  0  0  0  0
 25 26  1  1  0  0  0
 25 33  1  0  0  0  0
 27 28  1  1  0  0  0
 27 34  1  0  0  0  0
 29 30  1  0  0  0  0
 29 36  1  6  0  0  0
 31 32  1  1  0  0  0
 31 38  1  0  0  0  0
 34 35  1  0  0  0  0
 34 40  1  6  0  0  0
 36 37  1  0  0  0  0
 38 39  1  6  0  0  0
 40 41  1  0  0  0  0
M  END
>  <CHROM.1>
163.74223407,177.06668058,65.95458017,175.53641237,38.83562502,35.83489740
8.70107355,2.33602970,-0.17492637,1.37511582

>  <Name>
ligand

>  <RI>
0

>  <Rbt.Current_Directory>
/home/itssahil/PROJECTS/Mol_Feturizer/New_Systems/rnas/1ZZ5

>  <Rbt.Executable>
rbdock ($Id: //depot/dev/client3/rdock/2013.1/src/exe/rbdock.cxx#4 $)

>  <Rbt.Library>
libRbt.so (2013.1, Build901 2013/11/27)

>  <Rbt.Parameter_File>
/export/apps/rDock/src/rDock_2013.1_src/data/scripts/dock_solv.prm

>  <Rbt.Receptor>
prm/pocket_docking_8.prm

>  <SCORE>
-8.18442

>  <SCORE.INTER>
-6.43129

>  <SCORE.INTER.CONST>
1

>  <SCORE.INTER.POLAR>
0

>  <SCORE.INTER.ROT>
4

>  <SCORE.INTER.SOLV>
14.7292

>  <SCORE.INTER.VDW>
-15.4639

>  <SCORE.INTER.norm>
-0.156861

>  <SCORE.INTRA>
-1.75313

>  <SCORE.INTRA.DIHEDRAL>
-3.49046

>  <SCORE.INTRA.DIHEDRAL.0>
5.18357

>  <SCORE.INTRA.POLAR>
0

>  <SCORE.INTRA.POLAR.0>
0

>  <SCORE.INTRA.REPUL>
0

>  <SCORE.INTRA.REPUL.0>
0

>  <SCORE.INTRA.SOLV>
0.0261046

>  <SCORE.INTRA.SOLV.lig_0>
-109.973

>  <SCORE.INTRA.VDW>
-0.0209497

>  <SCORE.INTRA.VDW.0>
-1.68646

>  <SCORE.INTRA.norm>
-0.0427592

>  <SCORE.RESTR>
0

>  <SCORE.RESTR.CAVITY>
0

>  <SCORE.RESTR.norm>
0

>  <SCORE.SYSTEM>
0

>  <SCORE.SYSTEM.CONST>
0

>  <SCORE.SYSTEM.DIHEDRAL>
0

>  <SCORE.SYSTEM.SOLV>
0

>  <SCORE.SYSTEM.norm>
0

>  <SCORE.heavy>
41

>  <SCORE.norm>
-0.19962

>  <RMSD>
6.360

$$$$
ligand
 OpenBabel11021811423D
libRbt.so/2013.1/901 2013/11/27
 41 45  0  0  0  0  0  0  0  0999 V2000
   34.6439   35.0457   11.4969 C   0  0  2  0  0  0  0  0  0  0  0  0
   34.9214   36.3210   12.1077 O   0  0  0  0  0  0  0  0  0  0  0  0
   37.8458   37.8158   14.9592 C   0  0  2  0  0  0  0  0  0  0  0  0
   38.6958   37.8950   16.1752 N   0  0  0  0  0  0  0  0  0  0  0  0
   38.6336   35.7853   10.7011 C   0  0  1  0  0  0  0  0  0  0  0  0
   40.6060   36.5241    8.1639 C   0  0  1  0  0  0  0  0  0  0  0  0
   34.2783   35.2122    9.9915 C   0  0  2  0  0  0  0  0  0  0  0  0
   35.2903   35.9571    9.2365 N   0  0  0  0  0  0  0  0  0  0  0  0
   36.3543   37.6575   15.3934 C   0  0  0  0  0  0  0  0  0  0  0  0
   39.1329   34.5158    9.9740 C   0  0  2  0  0  0  0  0  0  0  0  0
   40.5295   34.2911   10.1925 O   0  0  0  0  0  0  0  0  0  0  0  0
   39.7833   37.8132    7.7353 C   0  0  2  0  0  0  0  0  0  0  0  0
   39.4790   37.8848    6.2734 N   0  0  0  0  0  0  0  0  0  0  0  0
   32.8951   35.9024    9.8482 C   0  0  1  0  0  0  0  0  0  0  0  0
   32.5525   36.0282    8.4706 O   0  0  0  0  0  0  0  0  0  0  0  0
   35.4140   37.5614   14.1570 C   0  0  2  0  0  0  0  0  0  0  0  0
   34.0309   37.4245   14.6512 N   0  0  0  0  0  0  0  0  0  0  0  0
   38.7900   34.7575    8.4941 C   0  0  2  0  0  0  0  0  0  0  0  0
   39.9465   35.2812    7.7275 O   0  0  0  0  0  0  0  0  0  0  0  0
   40.5644   39.1286    8.1883 C   0  0  1  0  0  0  0  0  0  0  0  0
   40.5983   39.2475    9.6276 O   0  0  0  0  0  0  0  0  0  0  0  0
   31.8228   35.0838   10.6039 C   0  0  2  0  0  0  0  0  0  0  0  0
   30.5583   35.6965   10.4632 O   0  0  0  0  0  0  0  0  0  0  0  0
   35.8488   36.3621   13.2422 C   0  0  2  0  0  0  0  0  0  0  0  0
   37.6461   35.7666    8.5420 C   0  0  2  0  0  0  0  0  0  0  0  0
   37.7796   36.4593    9.7751 O   0  0  0  0  0  0  0  0  0  0  0  0
   42.0485   39.1588    7.6423 C   0  0  2  0  0  0  0  0  0  0  0  0
   42.0234   39.2964    6.2116 O   0  0  0  0  0  0  0  0  0  0  0  0
   32.2018   34.9589   12.0930 C   0  0  2  0  0  0  0  0  0  0  0  0
   33.5398   34.3332   12.1815 O   0  0  0  0  0  0  0  0  0  0  0  0
   37.3757   36.5673   12.7742 C   0  0  2  0  0  0  0  0  0  0  0  0
   37.8746   35.4502   11.9274 O   0  0  0  0  0  0  0  0  0  0  0  0
   36.2646   35.1294    8.5136 C   0  0  0  0  0  0  0  0  0  0  0  0
   42.8017   37.8325    8.0639 C   0  0  1  0  0  0  0  0  0  0  0  0
   42.0299   36.6039    7.6738 O   0  0  0  0  0  0  0  0  0  0  0  0
   31.1354   34.1181   12.8331 C   0  0  0  0  0  0  0  0  0  0  0  0
   31.3860   33.9249   14.2733 N   0  0  0  0  0  0  0  0  0  0  0  0
   38.2893   36.6315   14.0168 C   0  0  1  0  0  0  0  0  0  0  0  0
   39.6471   36.8126   13.6017 O   0  0  0  0  0  0  0  0  0  0  0  0
   44.2788   37.7523    7.5168 C   0  0  0  0  0  0  0  0  0  0  0  0
   45.0653   36.5388    7.9069 N   0  0  0  0  0  0  0  0  0  0  0  0
  1  2  1  1  0  0  0
  1  7  1  0  0  0  0
  1 30  1  0  0  0  0
  3  4  1  1  0  0  0
  3  9  1  0  0  0  0
  3 38  1  0  0  0  0
  5 10  1  0  0  0  0
  5 26  1  6  0  0  0
  5 32  1  0  0  0  0
  6 12  1  0  0  0  0
  6 35  1  0  0  0  0
  6 19  1  6  0  0  0
  7  8  1  6  0  0  0
  7 14  1  0  0  0  0
  8 33  1  0  0  0  0
  9 16  1  0  0  0  0
 10 11  1  6  0  0  0
 10 18  1  0  0  0  0
 12 13  1  6  0  0  0
 12 20  1  0  0  0  0
 14 15  1  6  0  0  0
 14 22  1  0  0  0  0
 16 17  1  1  0  0  0
 16 24  1  0  0  0  0
 18 19  1  6  0  0  0
 18 25  1  0  0  0  0
 20 21  1  1  0  0  0
 20 27  1  0  0  0  0
 22 23  1  1  0  0  0
 22 29  1  0  0  0  0
 24  2  1  6  0  0  0
 24 31  1  0  0  0  0
 25 26  1  1  0  0  0
 25 33  1  0  0  0  0
 27 28  1  6  0  0  0
 27 34  1  0  0  0  0
 29 30  1  0  0  0  0
 29 36  1  1  0  0  0
 31 32  1  6  0  0  0
 31 38  1  0  0  0  0
 34 35  1  0  0  0  0
 34 40  1  6  0  0  0
 36 37  1  0  0  0  0
 38 39  1  6  0  0  0
 40 41  1  0  0  0  0
M  END
>  <CHROM.1>
-56.90753794,-78.40962816,179.98158064,178.46803699,37.43999702,36.39825728
10.54789765,2.71474026,0.27535779,1.45008289

>  <Name>
ligand

>  <RI>
0

>  <Rbt.Current_Directory>
/home/itssahil/PROJECTS/Mol_Feturizer/New_Systems/rnas/1ZZ5

>  <Rbt.Executable>
rbdock ($Id: //depot/dev/client3/rdock/2013.1/src/exe/rbdock.cxx#4 $)

>  <Rbt.Library>
libRbt.so (2013.1, Build901 2013/11/27)

>  <Rbt.Parameter_File>
/export/apps/rDock/src/rDock_2013.1_src/data/scripts/dock_solv.prm

>  <Rbt.Receptor>
prm/pocket_docking_8.prm

>  <SCORE>
-8.31253

>  <SCORE.INTER>
-6.63423

>  <SCORE.INTER.CONST>
1

>  <SCORE.INTER.POLAR>
0

>  <SCORE.INTER.ROT>
4

>  <SCORE.INTER.SOLV>
11.9423

>  <SCORE.INTER.VDW>
-14.6703

>  <SCORE.INTER.norm>
-0.161811

>  <SCORE.INTRA>
-1.67829

>  <SCORE.INTRA.DIHEDRAL>
-3.38191

>  <SCORE.INTRA.DIHEDRAL.0>
5.18357

>  <SCORE.INTRA.POLAR>
0

>  <SCORE.INTRA.POLAR.0>
0

>  <SCORE.INTRA.REPUL>
0

>  <SCORE.INTRA.REPUL.0>
0

>  <SCORE.INTRA.SOLV>
-0.0486847

>  <SCORE.INTRA.SOLV.lig_0>
-109.973

>  <SCORE.INTRA.VDW>
0.037008

>  <SCORE.INTRA.VDW.0>
-1.68646

>  <SCORE.INTRA.norm>
-0.0409339

>  <SCORE.RESTR>
0

>  <SCORE.RESTR.CAVITY>
0

>  <SCORE.RESTR.norm>
0

>  <SCORE.SYSTEM>
0

>  <SCORE.SYSTEM.CONST>
0

>  <SCORE.SYSTEM.DIHEDRAL>
0

>  <SCORE.SYSTEM.SOLV>
0

>  <SCORE.SYSTEM.norm>
0

>  <SCORE.heavy>
41

>  <SCORE.norm>
-0.202745

>  <RMSD>
6.583

$$$$
ligand
 OpenBabel11021811423D
libRbt.so/2013.1/901 2013/11/27
 41 45  0  0  0  0  0  0  0  0999 V2000
   38.8616   42.8670    5.5327 C   0  0  2  0  0  0  0  0  0  0  0  0
   39.2788   41.4886    5.5834 O   0  0  0  0  0  0  0  0  0  0  0  0
   42.0610   39.0129    3.3367 C   0  0  2  0  0  0  0  0  0  0  0  0
   42.7639   38.3999    2.1802 N   0  0  0  0  0  0  0  0  0  0  0  0
   42.9842   42.9908    5.8263 C   0  0  1  0  0  0  0  0  0  0  0  0
   45.2384   43.7971    8.1688 C   0  0  1  0  0  0  0  0  0  0  0  0
   38.7084   43.4599    6.9655 C   0  0  2  0  0  0  0  0  0  0  0  0
   39.9138   43.2964    7.7836 N   0  0  0  0  0  0  0  0  0  0  0  0
   40.5240   38.7957    3.1682 C   0  0  0  0  0  0  0  0  0  0  0  0
   43.3416   44.4919    5.7324 C   0  0  2  0  0  0  0  0  0  0  0  0
   44.6442   44.6957    5.1753 O   0  0  0  0  0  0  0  0  0  0  0  0
   46.5158   44.0394    9.0808 C   0  0  2  0  0  0  0  0  0  0  0  0
   47.4758   45.0451    8.5314 N   0  0  0  0  0  0  0  0  0  0  0  0
   37.4893   42.8206    7.6835 C   0  0  1  0  0  0  0  0  0  0  0  0
   37.3368   43.3852    8.9831 O   0  0  0  0  0  0  0  0  0  0  0  0
   39.7323   39.4256    4.3508 C   0  0  2  0  0  0  0  0  0  0  0  0
   38.2979   39.1691    4.1213 N   0  0  0  0  0  0  0  0  0  0  0  0
   43.2205   45.0094    7.1758 C   0  0  2  0  0  0  0  0  0  0  0  0
   44.5310   45.0540    7.8688 O   0  0  0  0  0  0  0  0  0  0  0  0
   47.2701   42.6564    9.3337 C   0  0  1  0  0  0  0  0  0  0  0  0
   46.4734   41.7672   10.1470 O   0  0  0  0  0  0  0  0  0  0  0  0
   36.2124   43.0414    6.8400 C   0  0  2  0  0  0  0  0  0  0  0  0
   35.0960   42.4776    7.4956 O   0  0  0  0  0  0  0  0  0  0  0  0
   40.0604   40.9566    4.4632 C   0  0  2  0  0  0  0  0  0  0  0  0
   42.2676   44.0208    7.8419 C   0  0  2  0  0  0  0  0  0  0  0  0
   42.3719   42.8111    7.1045 O   0  0  0  0  0  0  0  0  0  0  0  0
   47.6326   41.9189    7.9824 C   0  0  2  0  0  0  0  0  0  0  0  0
   48.6254   42.6834    7.2779 O   0  0  0  0  0  0  0  0  0  0  0  0
   36.3876   42.4224    5.4389 C   0  0  2  0  0  0  0  0  0  0  0  0
   37.5798   43.0305    4.8076 O   0  0  0  0  0  0  0  0  0  0  0  0
   41.6441   41.1540    4.6768 C   0  0  2  0  0  0  0  0  0  0  0  0
   42.0411   42.5856    4.7594 O   0  0  0  0  0  0  0  0  0  0  0  0
   40.8107   44.4591    7.8131 C   0  0  0  0  0  0  0  0  0  0  0  0
   46.3302   41.7453    7.1004 C   0  0  1  0  0  0  0  0  0  0  0  0
   45.6053   43.0479    6.9126 O   0  0  0  0  0  0  0  0  0  0  0  0
   35.1144   42.6707    4.5968 C   0  0  0  0  0  0  0  0  0  0  0  0
   33.9244   41.9169    5.0325 N   0  0  0  0  0  0  0  0  0  0  0  0
   42.4035   40.5458    3.4784 C   0  0  1  0  0  0  0  0  0  0  0  0
   43.8114   40.7220    3.6667 O   0  0  0  0  0  0  0  0  0  0  0  0
   46.6066   41.0623    5.7060 C   0  0  0  0  0  0  0  0  0  0  0  0
   47.1461   39.6657    5.7471 N   0  0  0  0  0  0  0  0  0  0  0  0
  1  2  1  1  0  0  0
  1  7  1  0  0  0  0
  1 30  1  0  0  0  0
  3  4  1  6  0  0  0
  3  9  1  0  0  0  0
  3 38  1  0  0  0  0
  5 10  1  0  0  0  0
  5 26  1  1  0  0  0
  5 32  1  0  0  0  0
  6 12  1  0  0  0  0
  6 35  1  0  0  0  0
  6 19  1  6  0  0  0
  7  8  1  1  0  0  0
  7 14  1  0  0  0  0
  8 33  1  0  0  0  0
  9 16  1  0  0  0  0
 10 11  1  1  0  0  0
 10 18  1  0  0  0  0
 12 13  1  6  0  0  0
 12 20  1  0  0  0  0
 14 15  1  1  0  0  0
 14 22  1  0  0  0  0
 16 17  1  6  0  0  0
 16 24  1  0  0  0  0
 18 19  1  1  0  0  0
 18 25  1  0  0  0  0
 20 21  1  1  0  0  0
 20 27  1  0  0  0  0
 22 23  1  1  0  0  0
 22 29  1  0  0  0  0
 24  2  1  1  0  0  0
 24 31  1  0  0  0  0
 25 26  1  6  0  0  0
 25 33  1  0  0  0  0
 27 28  1  6  0  0  0
 27 34  1  0  0  0  0
 29 30  1  0  0  0  0
 29 36  1  6  0  0  0
 31 32  1  6  0  0  0
 31 38  1  0  0  0  0
 34 35  1  0  0  0  0
 34 40  1  6  0  0  0
 36 37  1  0  0  0  0
 38 39  1  1  0  0  0
 40 41  1  0  0  0  0
M  END
>  <CHROM.1>
-66.49771739,-172.24615923,-69.65213084,62.14083953,41.92229211,42.32389538
6.24363616,2.95156107,0.07633923,-2.33648841

>  <Name>
ligand

>  <RI>
0

>  <Rbt.Current_Directory>
/home/itssahil/PROJECTS/Mol_Feturizer/New_Systems/rnas/1ZZ5

>  <Rbt.Executable>
rbdock ($Id: //depot/dev/client3/rdock/2013.1/src/exe/rbdock.cxx#4 $)

>  <Rbt.Library>
libRbt.so (2013.1, Build901 2013/11/27)

>  <Rbt.Parameter_File>
/export/apps/rDock/src/rDock_2013.1_src/data/scripts/dock_solv.prm

>  <Rbt.Receptor>
prm/pocket_docking_8.prm

>  <SCORE>
-8.65556

>  <SCORE.INTER>
-7.17356

>  <SCORE.INTER.CONST>
1

>  <SCORE.INTER.POLAR>
0

>  <SCORE.INTER.ROT>
4

>  <SCORE.INTER.SOLV>
11.2161

>  <SCORE.INTER.VDW>
-14.7877

>  <SCORE.INTER.norm>
-0.174965

>  <SCORE.INTRA>
-1.482

>  <SCORE.INTRA.DIHEDRAL>
-4.11751

>  <SCORE.INTRA.DIHEDRAL.0>
5.18357

>  <SCORE.INTRA.POLAR>
0

>  <SCORE.INTRA.POLAR.0>
0

>  <SCORE.INTRA.REPUL>
0.000728948

>  <SCORE.INTRA.REPUL.0>
0

>  <SCORE.INTRA.SOLV>
1.30504

>  <SCORE.INTRA.SOLV.lig_0>
-109.973

>  <SCORE.INTRA.VDW>
-0.0794103

>  <SCORE.INTRA.VDW.0>
-1.68646

>  <SCORE.INTRA.norm>
-0.0361464

>  <SCORE.RESTR>
0

>  <SCORE.RESTR.CAVITY>
0

>  <SCORE.RESTR.norm>
0

>  <SCORE.SYSTEM>
0

>  <SCORE.SYSTEM.CONST>
0

>  <SCORE.SYSTEM.DIHEDRAL>
0

>  <SCORE.SYSTEM.SOLV>
0

>  <SCORE.SYSTEM.norm>
0

>  <SCORE.heavy>
41

>  <SCORE.norm>
-0.211111

>  <RMSD>
6.635

$$$$
ligand
 OpenBabel11021811423D
libRbt.so/2013.1/901 2013/11/27
 41 45  0  0  0  0  0  0  0  0999 V2000
   30.9942   43.1421    2.0830 C   0  0  2  0  0  0  0  0  0  0  0  0
   29.9783   42.5372    2.9067 O   0  0  0  0  0  0  0  0  0  0  0  0
   28.4908   38.4960    3.5185 C   0  0  2  0  0  0  0  0  0  0  0  0
   27.9920   37.1307    3.2114 N   0  0  0  0  0  0  0  0  0  0  0  0
   32.9321   40.1459    4.1724 C   0  0  1  0  0  0  0  0  0  0  0  0
   36.7330   41.4708    6.4162 C   0  0  1  0  0  0  0  0  0  0  0  0
   31.7733   44.2394    2.8682 C   0  0  2  0  0  0  0  0  0  0  0  0
   32.3318   43.7500    4.1322 N   0  0  0  0  0  0  0  0  0  0  0  0
   27.6053   39.5397    2.7671 C   0  0  0  0  0  0  0  0  0  0  0  0
   34.3768   40.1522    3.6224 C   0  0  2  0  0  0  0  0  0  0  0  0
   34.9854   38.8595    3.7083 O   0  0  0  0  0  0  0  0  0  0  0  0
   37.8688   42.1698    5.5539 C   0  0  2  0  0  0  0  0  0  0  0  0
   38.7005   41.2188    4.7547 N   0  0  0  0  0  0  0  0  0  0  0  0
   30.8561   45.4638    3.1324 C   0  0  1  0  0  0  0  0  0  0  0  0
   31.5804   46.4758    3.8268 O   0  0  0  0  0  0  0  0  0  0  0  0
   28.0868   40.9931    3.0460 C   0  0  2  0  0  0  0  0  0  0  0  0
   27.1969   41.9123    2.3118 N   0  0  0  0  0  0  0  0  0  0  0  0
   35.1061   41.2140    4.4631 C   0  0  2  0  0  0  0  0  0  0  0  0
   35.8631   40.6163    5.5897 O   0  0  0  0  0  0  0  0  0  0  0  0
   38.8093   43.0416    6.5031 C   0  0  1  0  0  0  0  0  0  0  0  0
   38.0962   44.1725    7.0503 O   0  0  0  0  0  0  0  0  0  0  0  0
   30.3115   46.0066    1.7909 C   0  0  2  0  0  0  0  0  0  0  0  0
   29.4899   47.1317    2.0221 O   0  0  0  0  0  0  0  0  0  0  0  0
   29.5922   41.1505    2.6295 C   0  0  2  0  0  0  0  0  0  0  0  0
   33.9853   42.1226    4.9603 C   0  0  2  0  0  0  0  0  0  0  0  0
   32.8038   41.3338    4.9555 O   0  0  0  0  0  0  0  0  0  0  0  0
   39.4041   42.1917    7.6970 C   0  0  2  0  0  0  0  0  0  0  0  0
   40.3204   41.2161    7.1726 O   0  0  0  0  0  0  0  0  0  0  0  0
   29.5261   44.9050    1.0517 C   0  0  2  0  0  0  0  0  0  0  0  0
   30.4243   43.7455    0.8556 O   0  0  0  0  0  0  0  0  0  0  0  0
   30.4906   40.0928    3.4460 C   0  0  2  0  0  0  0  0  0  0  0  0
   31.9316   40.1568    3.0810 O   0  0  0  0  0  0  0  0  0  0  0  0
   33.7392   43.3343    4.0735 C   0  0  0  0  0  0  0  0  0  0  0  0
   38.2300   41.4871    8.4903 C   0  0  1  0  0  0  0  0  0  0  0  0
   37.3256   40.7105    7.5759 O   0  0  0  0  0  0  0  0  0  0  0  0
   29.0074   45.4520   -0.2987 C   0  0  0  0  0  0  0  0  0  0  0  0
   28.2292   44.4902   -1.1010 N   0  0  0  0  0  0  0  0  0  0  0  0
   30.0107   38.6600    3.1306 C   0  0  1  0  0  0  0  0  0  0  0  0
   30.8096   37.7190    3.8550 O   0  0  0  0  0  0  0  0  0  0  0  0
   38.7353   40.5733    9.6723 C   0  0  0  0  0  0  0  0  0  0  0  0
   39.5010   41.2604   10.7609 N   0  0  0  0  0  0  0  0  0  0  0  0
  1  2  1  1  0  0  0
  1  7  1  0  0  0  0
  1 30  1  0  0  0  0
  3  4  1  6  0  0  0
  3  9  1  0  0  0  0
  3 38  1  0  0  0  0
  5 10  1  0  0  0  0
  5 26  1  1  0  0  0
  5 32  1  0  0  0  0
  6 12  1  0  0  0  0
  6 35  1  0  0  0  0
  6 19  1  6  0  0  0
  7  8  1  1  0  0  0
  7 14  1  0  0  0  0
  8 33  1  0  0  0  0
  9 16  1  0  0  0  0
 10 11  1  1  0  0  0
 10 18  1  0  0  0  0
 12 13  1  1  0  0  0
 12 20  1  0  0  0  0
 14 15  1  6  0  0  0
 14 22  1  0  0  0  0
 16 17  1  6  0  0  0
 16 24  1  0  0  0  0
 18 19  1  1  0  0  0
 18 25  1  0  0  0  0
 20 21  1  1  0  0  0
 20 27  1  0  0  0  0
 22 23  1  1  0  0  0
 22 29  1  0  0  0  0
 24  2  1  1  0  0  0
 24 31  1  0  0  0  0
 25 26  1  6  0  0  0
 25 33  1  0  0  0  0
 27 28  1  6  0  0  0
 27 34  1  0  0  0  0
 29 30  1  0  0  0  0
 29 36  1  6  0  0  0
 31 32  1  6  0  0  0
 31 38  1  0  0  0  0
 34 35  1  0  0  0  0
 34 40  1  1  0  0  0
 36 37  1  0  0  0  0
 38 39  1  1  0  0  0
 40 41  1  0  0  0  0
M  END
>  <CHROM.1>
173.73702755,-59.53531418,-179.65354264,61.37316050,33.05469412,41.96710830
4.19172801,-2.90831568,0.49936815,2.88751180

>  <Name>
ligand

>  <RI>
0

>  <Rbt.Current_Directory>
/home/itssahil/PROJECTS/Mol_Feturizer/New_Systems/rnas/1ZZ5

>  <Rbt.Executable>
rbdock ($Id: //depot/dev/client3/rdock/2013.1/src/exe/rbdock.cxx#4 $)

>  <Rbt.Library>
libRbt.so (2013.1, Build901 2013/11/27)

>  <Rbt.Parameter_File>
/export/apps/rDock/src/rDock_2013.1_src/data/scripts/dock_solv.prm

>  <Rbt.Receptor>
prm/pocket_docking_8.prm

>  <SCORE>
-8.94248

>  <SCORE.INTER>
-6.54628

>  <SCORE.INTER.CONST>
1

>  <SCORE.INTER.POLAR>
0

>  <SCORE.INTER.ROT>
4

>  <SCORE.INTER.SOLV>
15.6382

>  <SCORE.INTER.VDW>
-15.8436

>  <SCORE.INTER.norm>
-0.159665

>  <SCORE.INTRA>
-2.3962

>  <SCORE.INTRA.DIHEDRAL>
-4.75386

>  <SCORE.INTRA.DIHEDRAL.0>
5.18357

>  <SCORE.INTRA.POLAR>
0

>  <SCORE.INTRA.POLAR.0>
0

>  <SCORE.INTRA.REPUL>
0

>  <SCORE.INTRA.REPUL.0>
0

>  <SCORE.INTRA.SOLV>
-0.857446

>  <SCORE.INTRA.SOLV.lig_0>
-109.973

>  <SCORE.INTRA.VDW>
0.409452

>  <SCORE.INTRA.VDW.0>
-1.68646

>  <SCORE.INTRA.norm>
-0.0584439

>  <SCORE.RESTR>
0

>  <SCORE.RESTR.CAVITY>
0

>  <SCORE.RESTR.norm>
0

>  <SCORE.SYSTEM>
0

>  <SCORE.SYSTEM.CONST>
0

>  <SCORE.SYSTEM.DIHEDRAL>
0

>  <SCORE.SYSTEM.SOLV>
0

>  <SCORE.SYSTEM.norm>
0

>  <SCORE.heavy>
41

>  <SCORE.norm>
-0.218109

>  <RMSD>
6.804

$$$$
ligand
 OpenBabel11021811423D
libRbt.so/2013.1/901 2013/11/27
 41 45  0  0  0  0  0  0  0  0999 V2000
   34.6403   34.9551   11.5365 C   0  0  2  0  0  0  0  0  0  0  0  0
   34.9767   36.2109   12.1581 O   0  0  0  0  0  0  0  0  0  0  0  0
   38.1864   37.6308   14.7269 C   0  0  2  0  0  0  0  0  0  0  0  0
   39.1630   37.6752   15.8457 N   0  0  0  0  0  0  0  0  0  0  0  0
   38.5167   35.7547   10.3399 C   0  0  1  0  0  0  0  0  0  0  0  0
   39.1714   35.7946    5.8562 C   0  0  1  0  0  0  0  0  0  0  0  0
   34.1128   35.1704   10.0863 C   0  0  2  0  0  0  0  0  0  0  0  0
   35.0336   35.9492    9.2528 N   0  0  0  0  0  0  0  0  0  0  0  0
   36.7516   37.4453   15.3142 C   0  0  0  0  0  0  0  0  0  0  0  0
   38.9399   34.5151    9.5189 C   0  0  2  0  0  0  0  0  0  0  0  0
   40.3529   34.2946    9.5768 O   0  0  0  0  0  0  0  0  0  0  0  0
   40.4746   36.0856    4.9963 C   0  0  2  0  0  0  0  0  0  0  0  0
   41.4144   37.0638    5.6246 N   0  0  0  0  0  0  0  0  0  0  0  0
   32.7190   35.8536   10.1179 C   0  0  1  0  0  0  0  0  0  0  0  0
   32.2285   36.0240    8.7907 O   0  0  0  0  0  0  0  0  0  0  0  0
   35.6831   37.3841   14.1843 C   0  0  2  0  0  0  0  0  0  0  0  0
   34.3624   37.2188   14.8202 N   0  0  0  0  0  0  0  0  0  0  0  0
   38.4374   34.8048    8.0942 C   0  0  2  0  0  0  0  0  0  0  0  0
   39.5015   35.3641    7.2258 O   0  0  0  0  0  0  0  0  0  0  0  0
   40.0605   36.5941    3.5418 C   0  0  1  0  0  0  0  0  0  0  0  0
   39.4177   35.5454    2.7843 O   0  0  0  0  0  0  0  0  0  0  0  0
   31.7388   35.0007   10.9560 C   0  0  2  0  0  0  0  0  0  0  0  0
   30.4638   35.6074   10.9747 O   0  0  0  0  0  0  0  0  0  0  0  0
   36.0215   36.2206   13.1863 C   0  0  2  0  0  0  0  0  0  0  0  0
   37.3009   35.8022    8.3011 C   0  0  2  0  0  0  0  0  0  0  0  0
   37.5643   36.4531    9.5360 O   0  0  0  0  0  0  0  0  0  0  0  0
   39.0924   37.8435    3.5999 C   0  0  2  0  0  0  0  0  0  0  0  0
   39.8093   38.9733    4.1254 O   0  0  0  0  0  0  0  0  0  0  0  0
   32.2776   34.8277   12.3901 C   0  0  2  0  0  0  0  0  0  0  0  0
   33.6201   34.2104   12.3112 O   0  0  0  0  0  0  0  0  0  0  0  0
   37.4876   36.4544   12.5632 C   0  0  2  0  0  0  0  0  0  0  0  0
   37.8968   35.3713   11.6287 O   0  0  0  0  0  0  0  0  0  0  0  0
   35.9274   35.1549    8.4001 C   0  0  0  0  0  0  0  0  0  0  0  0
   37.8374   37.5075    4.5034 C   0  0  1  0  0  0  0  0  0  0  0  0
   38.2442   36.9839    5.8516 O   0  0  0  0  0  0  0  0  0  0  0  0
   31.3016   33.9532   13.2113 C   0  0  0  0  0  0  0  0  0  0  0  0
   29.9848   34.5650   13.4680 N   0  0  0  0  0  0  0  0  0  0  0  0
   38.5304   36.4834   13.7010 C   0  0  1  0  0  0  0  0  0  0  0  0
   39.8343   36.6899   13.1480 O   0  0  0  0  0  0  0  0  0  0  0  0
   36.8390   38.7181    4.6606 C   0  0  0  0  0  0  0  0  0  0  0  0
   35.6348   38.4774    5.5182 N   0  0  0  0  0  0  0  0  0  0  0  0
  1  2  1  1  0  0  0
  1  7  1  0  0  0  0
  1 30  1  0  0  0  0
  3  4  1  1  0  0  0
  3  9  1  0  0  0  0
  3 38  1  0  0  0  0
  5 10  1  0  0  0  0
  5 26  1  6  0  0  0
  5 32  1  0  0  0  0
  6 12  1  0  0  0  0
  6 35  1  0  0  0  0
  6 19  1  1  0  0  0
  7  8  1  6  0  0  0
  7 14  1  0  0  0  0
  8 33  1  0  0  0  0
  9 16  1  0  0  0  0
 10 11  1  6  0  0  0
 10 18  1  0  0  0  0
 12 13  1  1  0  0  0
 12 20  1  0  0  0  0
 14 15  1  6  0  0  0
 14 22  1  0  0  0  0
 16 17  1  1  0  0  0
 16 24  1  0  0  0  0
 18 19  1  6  0  0  0
 18 25  1  0  0  0  0
 20 21  1  1  0  0  0
 20 27  1  0  0  0  0
 22 23  1  1  0  0  0
 22 29  1  0  0  0  0
 24  2  1  6  0  0  0
 24 31  1  0  0  0  0
 25 26  1  1  0  0  0
 25 33  1  0  0  0  0
 27 28  1  1  0  0  0
 27 34  1  0  0  0  0
 29 30  1  0  0  0  0
 29 36  1  1  0  0  0
 31 32  1  6  0  0  0
 31 38  1  0  0  0  0
 34 35  1  0  0  0  0
 34 40  1  1  0  0  0
 36 37  1  0  0  0  0
 38 39  1  6  0  0  0
 40 41  1  0  0  0  0
M  END
>  <CHROM.1>
-175.47159864,-168.54254340,-66.63125910,-179.25354476,36.62906344,36.15824682
9.64441127,2.14933306,0.15830110,1.59738245

>  <Name>
ligand

>  <RI>
0

>  <Rbt.Current_Directory>
/home/itssahil/PROJECTS/Mol_Feturizer/New_Systems/rnas/1ZZ5

>  <Rbt.Executable>
rbdock ($Id: //depot/dev/client3/rdock/2013.1/src/exe/rbdock.cxx#4 $)

>  <Rbt.Library>
libRbt.so (2013.1, Build901 2013/11/27)

>  <Rbt.Parameter_File>
/export/apps/rDock/src/rDock_2013.1_src/data/scripts/dock_solv.prm

>  <Rbt.Receptor>
prm/pocket_docking_8.prm

>  <SCORE>
-10.0969

>  <SCORE.INTER>
-8.51634

>  <SCORE.INTER.CONST>
1

>  <SCORE.INTER.POLAR>
0

>  <SCORE.INTER.ROT>
4

>  <SCORE.INTER.SOLV>
14.7617

>  <SCORE.INTER.VDW>
-16.8648

>  <SCORE.INTER.norm>
-0.207716

>  <SCORE.INTRA>
-1.58058

>  <SCORE.INTRA.DIHEDRAL>
-4.07779

>  <SCORE.INTRA.DIHEDRAL.0>
5.18357

>  <SCORE.INTRA.POLAR>
0

>  <SCORE.INTRA.POLAR.0>
0

>  <SCORE.INTRA.REPUL>
0

>  <SCORE.INTRA.REPUL.0>
0

>  <SCORE.INTRA.SOLV>
0.173989

>  <SCORE.INTRA.SOLV.lig_0>
-109.973

>  <SCORE.INTRA.VDW>
0.371317

>  <SCORE.INTRA.VDW.0>
-1.68646

>  <SCORE.INTRA.norm>
-0.0385508

>  <SCORE.RESTR>
0

>  <SCORE.RESTR.CAVITY>
0

>  <SCORE.RESTR.norm>
0

>  <SCORE.SYSTEM>
0

>  <SCORE.SYSTEM.CONST>
0

>  <SCORE.SYSTEM.DIHEDRAL>
0

>  <SCORE.SYSTEM.SOLV>
0

>  <SCORE.SYSTEM.norm>
0

>  <SCORE.heavy>
41

>  <SCORE.norm>
-0.246266

>  <RMSD>
7.025

$$$$
ligand
 OpenBabel11021811423D
libRbt.so/2013.1/901 2013/11/27
 41 45  0  0  0  0  0  0  0  0999 V2000
   31.1325   43.1498    2.0684 C   0  0  2  0  0  0  0  0  0  0  0  0
   30.0796   42.5364    2.8376 O   0  0  0  0  0  0  0  0  0  0  0  0
   28.5970   38.4827    3.3736 C   0  0  2  0  0  0  0  0  0  0  0  0
   28.1272   37.1129    3.0417 N   0  0  0  0  0  0  0  0  0  0  0  0
   32.9829   40.1718    4.2605 C   0  0  1  0  0  0  0  0  0  0  0  0
   36.4990   41.5520    6.8016 C   0  0  1  0  0  0  0  0  0  0  0  0
   31.8593   44.2543    2.8927 C   0  0  2  0  0  0  0  0  0  0  0  0
   32.3542   43.7705    4.1851 N   0  0  0  0  0  0  0  0  0  0  0  0
   27.7436   39.5182    2.5752 C   0  0  0  0  0  0  0  0  0  0  0  0
   34.4546   40.1904    3.7878 C   0  0  2  0  0  0  0  0  0  0  0  0
   35.0690   38.9032    3.9072 O   0  0  0  0  0  0  0  0  0  0  0  0
   37.3555   40.7313    7.8574 C   0  0  2  0  0  0  0  0  0  0  0  0
   36.5839   39.6737    8.5792 N   0  0  0  0  0  0  0  0  0  0  0  0
   30.9187   45.4708    3.1067 C   0  0  1  0  0  0  0  0  0  0  0  0
   31.5963   46.4894    3.8376 O   0  0  0  0  0  0  0  0  0  0  0  0
   28.1969   40.9760    2.8779 C   0  0  2  0  0  0  0  0  0  0  0  0
   27.3393   41.8870    2.0967 N   0  0  0  0  0  0  0  0  0  0  0  0
   35.1290   41.2590    4.6650 C   0  0  2  0  0  0  0  0  0  0  0  0
   35.8303   40.6685    5.8308 O   0  0  0  0  0  0  0  0  0  0  0  0
   38.0163   41.7303    8.9115 C   0  0  1  0  0  0  0  0  0  0  0  0
   39.0147   42.5659    8.2855 O   0  0  0  0  0  0  0  0  0  0  0  0
   30.4413   46.0081    1.7377 C   0  0  2  0  0  0  0  0  0  0  0  0
   29.5988   47.1261    1.9240 O   0  0  0  0  0  0  0  0  0  0  0  0
   29.7208   41.1463    2.5417 C   0  0  2  0  0  0  0  0  0  0  0  0
   33.9755   42.1579    5.1012 C   0  0  2  0  0  0  0  0  0  0  0  0
   32.8029   41.3589    5.0346 O   0  0  0  0  0  0  0  0  0  0  0  0
   36.9419   42.6593    9.6073 C   0  0  2  0  0  0  0  0  0  0  0  0
   36.0906   41.8554   10.4413 O   0  0  0  0  0  0  0  0  0  0  0  0
   29.7059   44.8993    0.9590 C   0  0  2  0  0  0  0  0  0  0  0  0
   30.6232   43.7476    0.8119 O   0  0  0  0  0  0  0  0  0  0  0  0
   30.5839   40.0969    3.4057 C   0  0  2  0  0  0  0  0  0  0  0  0
   32.0416   40.1733    3.1176 O   0  0  0  0  0  0  0  0  0  0  0  0
   33.7663   43.3671    4.2014 C   0  0  0  0  0  0  0  0  0  0  0  0
   36.0938   43.4158    8.5061 C   0  0  1  0  0  0  0  0  0  0  0  0
   35.5193   42.4659    7.4937 O   0  0  0  0  0  0  0  0  0  0  0  0
   29.2548   45.4410   -0.4175 C   0  0  0  0  0  0  0  0  0  0  0  0
   30.3509   45.8635   -1.3087 N   0  0  0  0  0  0  0  0  0  0  0  0
   30.1339   38.6598    3.0666 C   0  0  1  0  0  0  0  0  0  0  0  0
   30.9014   37.7261    3.8333 O   0  0  0  0  0  0  0  0  0  0  0  0
   34.9594   44.3299    9.1102 C   0  0  0  0  0  0  0  0  0  0  0  0
   35.4092   45.4278   10.0244 N   0  0  0  0  0  0  0  0  0  0  0  0
  1  2  1  1  0  0  0
  1  7  1  0  0  0  0
  1 30  1  0  0  0  0
  3  4  1  6  0  0  0
  3  9  1  0  0  0  0
  3 38  1  0  0  0  0
  5 10  1  0  0  0  0
  5 26  1  1  0  0  0
  5 32  1  0  0  0  0
  6 12  1  0  0  0  0
  6 35  1  0  0  0  0
  6 19  1  6  0  0  0
  7  8  1  1  0  0  0
  7 14  1  0  0  0  0
  8 33  1  0  0  0  0
  9 16  1  0  0  0  0
 10 11  1  1  0  0  0
 10 18  1  0  0  0  0
 12 13  1  1  0  0  0
 12 20  1  0  0  0  0
 14 15  1  6  0  0  0
 14 22  1  0  0  0  0
 16 17  1  6  0  0  0
 16 24  1  0  0  0  0
 18 19  1  1  0  0  0
 18 25  1  0  0  0  0
 20 21  1  6  0  0  0
 20 27  1  0  0  0  0
 22 23  1  1  0  0  0
 22 29  1  0  0  0  0
 24  2  1  1  0  0  0
 24 31  1  0  0  0  0
 25 26  1  6  0  0  0
 25 33  1  0  0  0  0
 27 28  1  6  0  0  0
 27 34  1  0  0  0  0
 29 30  1  0  0  0  0
 29 36  1  6  0  0  0
 31 32  1  6  0  0  0
 31 38  1  0  0  0  0
 34 35  1  0  0  0  0
 34 40  1  1  0  0  0
 36 37  1  0  0  0  0
 38 39  1  1  0  0  0
 40 41  1  0  0  0  0
M  END
>  <CHROM.1>
-178.17781738,-172.13339486,62.26815071,60.08890302,32.65043989,42.17708354
4.52278311,-2.95624418,0.72829659,2.97337094

>  <Name>
ligand

>  <RI>
0

>  <Rbt.Current_Directory>
/home/itssahil/PROJECTS/Mol_Feturizer/New_Systems/rnas/1ZZ5

>  <Rbt.Executable>
rbdock ($Id: //depot/dev/client3/rdock/2013.1/src/exe/rbdock.cxx#4 $)

>  <Rbt.Library>
libRbt.so (2013.1, Build901 2013/11/27)

>  <Rbt.Parameter_File>
/export/apps/rDock/src/rDock_2013.1_src/data/scripts/dock_solv.prm

>  <Rbt.Receptor>
prm/pocket_docking_8.prm

>  <SCORE>
-10.109

>  <SCORE.INTER>
-8.20567

>  <SCORE.INTER.CONST>
1

>  <SCORE.INTER.POLAR>
0

>  <SCORE.INTER.ROT>
4

>  <SCORE.INTER.SOLV>
15.1231

>  <SCORE.INTER.VDW>
-16.7782

>  <SCORE.INTER.norm>
-0.200138

>  <SCORE.INTRA>
-1.90336

>  <SCORE.INTRA.DIHEDRAL>
-4.6202

>  <SCORE.INTRA.DIHEDRAL.0>
5.18357

>  <SCORE.INTRA.POLAR>
0

>  <SCORE.INTRA.POLAR.0>
0

>  <SCORE.INTRA.REPUL>
0

>  <SCORE.INTRA.REPUL.0>
0

>  <SCORE.INTRA.SOLV>
0.238021

>  <SCORE.INTRA.SOLV.lig_0>
-109.973

>  <SCORE.INTRA.VDW>
0.287729

>  <SCORE.INTRA.VDW.0>
-1.68646

>  <SCORE.INTRA.norm>
-0.0464234

>  <SCORE.RESTR>
0

>  <SCORE.RESTR.CAVITY>
0

>  <SCORE.RESTR.norm>
0

>  <SCORE.SYSTEM>
0

>  <SCORE.SYSTEM.CONST>
0

>  <SCORE.SYSTEM.DIHEDRAL>
0

>  <SCORE.SYSTEM.SOLV>
0

>  <SCORE.SYSTEM.norm>
0

>  <SCORE.heavy>
41

>  <SCORE.norm>
-0.246562

>  <RMSD>
7.146

$$$$
ligand
 OpenBabel11021811423D
libRbt.so/2013.1/901 2013/11/27
 41 45  0  0  0  0  0  0  0  0999 V2000
   34.8054   35.1557   11.5280 C   0  0  2  0  0  0  0  0  0  0  0  0
   35.1066   36.4543   12.0750 O   0  0  0  0  0  0  0  0  0  0  0  0
   38.0399   38.0290   14.8739 C   0  0  2  0  0  0  0  0  0  0  0  0
   38.8812   38.1520   16.0922 N   0  0  0  0  0  0  0  0  0  0  0  0
   38.8174   35.7644   10.7336 C   0  0  1  0  0  0  0  0  0  0  0  0
   40.1598   34.8982    6.3406 C   0  0  1  0  0  0  0  0  0  0  0  0
   34.4564   35.2523   10.0125 C   0  0  2  0  0  0  0  0  0  0  0  0
   35.4914   35.9346    9.2300 N   0  0  0  0  0  0  0  0  0  0  0  0
   36.5416   37.9265   15.3013 C   0  0  0  0  0  0  0  0  0  0  0  0
   39.2939   34.4482   10.0776 C   0  0  2  0  0  0  0  0  0  0  0  0
   40.6831   34.2041   10.3207 O   0  0  0  0  0  0  0  0  0  0  0  0
   40.1474   33.3635    5.9326 C   0  0  2  0  0  0  0  0  0  0  0  0
   41.2408   32.5573    6.5567 N   0  0  0  0  0  0  0  0  0  0  0  0
   33.0904   35.9648    9.8206 C   0  0  1  0  0  0  0  0  0  0  0  0
   32.7624   36.0270    8.4351 O   0  0  0  0  0  0  0  0  0  0  0  0
   35.6098   37.7877   14.0625 C   0  0  2  0  0  0  0  0  0  0  0  0
   34.2199   37.7072   14.5498 N   0  0  0  0  0  0  0  0  0  0  0  0
   38.9691   34.6208    8.5840 C   0  0  2  0  0  0  0  0  0  0  0  0
   40.1437   35.0783    7.8026 O   0  0  0  0  0  0  0  0  0  0  0  0
   40.2153   33.2253    4.3446 C   0  0  1  0  0  0  0  0  0  0  0  0
   39.0081   33.7202    3.7243 O   0  0  0  0  0  0  0  0  0  0  0  0
   31.9936   35.2104   10.6071 C   0  0  2  0  0  0  0  0  0  0  0  0
   30.7445   35.8430   10.4230 O   0  0  0  0  0  0  0  0  0  0  0  0
   36.0250   36.5333   13.2148 C   0  0  2  0  0  0  0  0  0  0  0  0
   37.8481   35.6562    8.5689 C   0  0  2  0  0  0  0  0  0  0  0  0
   37.9868   36.4085    9.7660 O   0  0  0  0  0  0  0  0  0  0  0  0
   41.4527   33.9961    3.7311 C   0  0  2  0  0  0  0  0  0  0  0  0
   42.6667   33.3475    4.1459 O   0  0  0  0  0  0  0  0  0  0  0  0
   32.3569   35.1541   12.1043 C   0  0  2  0  0  0  0  0  0  0  0  0
   33.6796   34.5042   12.2377 O   0  0  0  0  0  0  0  0  0  0  0  0
   37.5601   36.6801   12.7516 C   0  0  2  0  0  0  0  0  0  0  0  0
   38.0407   35.5100   11.9682 O   0  0  0  0  0  0  0  0  0  0  0  0
   36.4528   35.0492    8.5601 C   0  0  0  0  0  0  0  0  0  0  0  0
   41.4336   35.5052    4.2070 C   0  0  1  0  0  0  0  0  0  0  0  0
   41.3202   35.6182    5.7009 O   0  0  0  0  0  0  0  0  0  0  0  0
   31.2655   34.3766   12.8763 C   0  0  0  0  0  0  0  0  0  0  0  0
   31.4899   34.2686   14.3297 N   0  0  0  0  0  0  0  0  0  0  0  0
   38.4644   36.7881   13.9979 C   0  0  1  0  0  0  0  0  0  0  0  0
   39.8294   36.9173   13.5871 O   0  0  0  0  0  0  0  0  0  0  0  0
   42.6642   36.3409    3.6829 C   0  0  0  0  0  0  0  0  0  0  0  0
   42.6622   37.8019    4.0129 N   0  0  0  0  0  0  0  0  0  0  0  0
  1  2  1  1  0  0  0
  1  7  1  0  0  0  0
  1 30  1  0  0  0  0
  3  4  1  1  0  0  0
  3  9  1  0  0  0  0
  3 38  1  0  0  0  0
  5 10  1  0  0  0  0
  5 26  1  6  0  0  0
  5 32  1  0  0  0  0
  6 12  1  0  0  0  0
  6 35  1  0  0  0  0
  6 19  1  1  0  0  0
  7  8  1  6  0  0  0
  7 14  1  0  0  0  0
  8 33  1  0  0  0  0
  9 16  1  0  0  0  0
 10 11  1  6  0  0  0
 10 18  1  0  0  0  0
 12 13  1  1  0  0  0
 12 20  1  0  0  0  0
 14 15  1  6  0  0  0
 14 22  1  0  0  0  0
 16 17  1  1  0  0  0
 16 24  1  0  0  0  0
 18 19  1  6  0  0  0
 18 25  1  0  0  0  0
 20 21  1  6  0  0  0
 20 27  1  0  0  0  0
 22 23  1  1  0  0  0
 22 29  1  0  0  0  0
 24  2  1  6  0  0  0
 24 31  1  0  0  0  0
 25 26  1  1  0  0  0
 25 33  1  0  0  0  0
 27 28  1  1  0  0  0
 27 34  1  0  0  0  0
 29 30  1  0  0  0  0
 29 36  1  1  0  0  0
 31 32  1  1  0  0  0
 31 38  1  0  0  0  0
 34 35  1  0  0  0  0
 34 40  1  1  0  0  0
 36 37  1  0  0  0  0
 38 39  1  6  0  0  0
 40 41  1  0  0  0  0
M  END
>  <CHROM.1>
160.91669548,-64.03890870,-179.20250681,175.80360564,37.41590967,35.54783598
9.75331071,2.29196905,0.14927785,1.25694180

>  <Name>
ligand

>  <RI>
0

>  <Rbt.Current_Directory>
/home/itssahil/PROJECTS/Mol_Feturizer/New_Systems/rnas/1ZZ5

>  <Rbt.Executable>
rbdock ($Id: //depot/dev/client3/rdock/2013.1/src/exe/rbdock.cxx#4 $)

>  <Rbt.Library>
libRbt.so (2013.1, Build901 2013/11/27)

>  <Rbt.Parameter_File>
/export/apps/rDock/src/rDock_2013.1_src/data/scripts/dock_solv.prm

>  <Rbt.Receptor>
prm/pocket_docking_8.prm

>  <SCORE>
-11.6156

>  <SCORE.INTER>
-9.78029

>  <SCORE.INTER.CONST>
1

>  <SCORE.INTER.POLAR>
0

>  <SCORE.INTER.ROT>
4

>  <SCORE.INTER.SOLV>
16.3447

>  <SCORE.INTER.VDW>
-18.2351

>  <SCORE.INTER.norm>
-0.238544

>  <SCORE.INTRA>
-1.83527

>  <SCORE.INTRA.DIHEDRAL>
-3.1675

>  <SCORE.INTRA.DIHEDRAL.0>
5.18357

>  <SCORE.INTRA.POLAR>
0

>  <SCORE.INTRA.POLAR.0>
0

>  <SCORE.INTRA.REPUL>
0

>  <SCORE.INTRA.REPUL.0>
0

>  <SCORE.INTRA.SOLV>
-1.16403

>  <SCORE.INTRA.SOLV.lig_0>
-109.973

>  <SCORE.INTRA.VDW>
0.330497

>  <SCORE.INTRA.VDW.0>
-1.68646

>  <SCORE.INTRA.norm>
-0.0447626

>  <SCORE.RESTR>
0

>  <SCORE.RESTR.CAVITY>
0

>  <SCORE.RESTR.norm>
0

>  <SCORE.SYSTEM>
0

>  <SCORE.SYSTEM.CONST>
0

>  <SCORE.SYSTEM.DIHEDRAL>
0

>  <SCORE.SYSTEM.SOLV>
0

>  <SCORE.SYSTEM.norm>
0

>  <SCORE.heavy>
41

>  <SCORE.norm>
-0.283306

>  <RMSD>
7.227

$$$$
ligand
 OpenBabel11021811423D
libRbt.so/2013.1/901 2013/11/27
 41 45  0  0  0  0  0  0  0  0999 V2000
   40.0479   45.5045    7.3889 C   0  0  2  0  0  0  0  0  0  0  0  0
   39.2251   44.5553    8.0950 O   0  0  0  0  0  0  0  0  0  0  0  0
   35.7596   42.1219    7.1016 C   0  0  2  0  0  0  0  0  0  0  0  0
   34.4249   41.7452    6.5689 N   0  0  0  0  0  0  0  0  0  0  0  0
   40.0828   42.0907    5.0561 C   0  0  1  0  0  0  0  0  0  0  0  0
   44.2223   40.4859    4.0523 C   0  0  1  0  0  0  0  0  0  0  0  0
   41.5530   45.3167    7.7451 C   0  0  2  0  0  0  0  0  0  0  0  0
   42.0227   43.9437    7.5369 N   0  0  0  0  0  0  0  0  0  0  0  0
   35.5962   43.3448    8.0586 C   0  0  0  0  0  0  0  0  0  0  0  0
   40.8943   42.4799    3.7992 C   0  0  2  0  0  0  0  0  0  0  0  0
   40.4899   41.7285    2.6500 O   0  0  0  0  0  0  0  0  0  0  0  0
   44.7299   39.3292    3.0897 C   0  0  2  0  0  0  0  0  0  0  0  0
   43.8281   38.1380    3.0387 N   0  0  0  0  0  0  0  0  0  0  0  0
   41.8155   45.7502    9.2126 C   0  0  1  0  0  0  0  0  0  0  0  0
   43.1979   45.6024    9.5257 O   0  0  0  0  0  0  0  0  0  0  0  0
   36.9678   43.7907    8.6436 C   0  0  2  0  0  0  0  0  0  0  0  0
   36.7254   44.9374    9.5392 N   0  0  0  0  0  0  0  0  0  0  0  0
   42.3602   42.2295    4.1924 C   0  0  2  0  0  0  0  0  0  0  0  0
   42.8497   40.9097    3.7258 O   0  0  0  0  0  0  0  0  0  0  0  0
   46.1986   38.8754    3.5171 C   0  0  1  0  0  0  0  0  0  0  0  0
   47.1617   39.9245    3.2749 O   0  0  0  0  0  0  0  0  0  0  0  0
   41.3652   47.2159    9.4121 C   0  0  2  0  0  0  0  0  0  0  0  0
   41.6171   47.6229   10.7406 O   0  0  0  0  0  0  0  0  0  0  0  0
   37.9629   44.1349    7.4793 C   0  0  2  0  0  0  0  0  0  0  0  0
   42.3522   42.3177    5.7160 C   0  0  2  0  0  0  0  0  0  0  0  0
   41.0276   42.0065    6.1243 O   0  0  0  0  0  0  0  0  0  0  0  0
   46.2745   38.4598    5.0413 C   0  0  2  0  0  0  0  0  0  0  0  0
   45.5131   37.2572    5.2422 O   0  0  0  0  0  0  0  0  0  0  0  0
   39.8678   47.3621    9.0753 C   0  0  2  0  0  0  0  0  0  0  0  0
   39.6570   46.9028    7.6845 O   0  0  0  0  0  0  0  0  0  0  0  0
   38.1471   42.8479    6.5295 C   0  0  2  0  0  0  0  0  0  0  0  0
   39.0538   43.1054    5.3783 O   0  0  0  0  0  0  0  0  0  0  0  0
   42.6913   43.7008    6.2520 C   0  0  0  0  0  0  0  0  0  0  0  0
   45.7166   39.6330    5.9451 C   0  0  1  0  0  0  0  0  0  0  0  0
   44.3539   40.0817    5.4991 O   0  0  0  0  0  0  0  0  0  0  0  0
   39.4350   48.8359    9.2548 C   0  0  0  0  0  0  0  0  0  0  0  0
   38.0114   49.1035    8.9793 N   0  0  0  0  0  0  0  0  0  0  0  0
   36.7783   42.4438    5.9414 C   0  0  1  0  0  0  0  0  0  0  0  0
   36.9411   41.3005    5.0958 O   0  0  0  0  0  0  0  0  0  0  0  0
   45.7065   39.2855    7.4834 C   0  0  0  0  0  0  0  0  0  0  0  0
   45.2757   40.3823    8.4080 N   0  0  0  0  0  0  0  0  0  0  0  0
  1  2  1  1  0  0  0
  1  7  1  0  0  0  0
  1 30  1  0  0  0  0
  3  4  1  6  0  0  0
  3  9  1  0  0  0  0
  3 38  1  0  0  0  0
  5 10  1  0  0  0  0
  5 26  1  1  0  0  0
  5 32  1  0  0  0  0
  6 12  1  0  0  0  0
  6 35  1  0  0  0  0
  6 19  1  6  0  0  0
  7  8  1  1  0  0  0
  7 14  1  0  0  0  0
  8 33  1  0  0  0  0
  9 16  1  0  0  0  0
 10 11  1  6  0  0  0
 10 18  1  0  0  0  0
 12 13  1  1  0  0  0
 12 20  1  0  0  0  0
 14 15  1  6  0  0  0
 14 22  1  0  0  0  0
 16 17  1  1  0  0  0
 16 24  1  0  0  0  0
 18 19  1  1  0  0  0
 18 25  1  0  0  0  0
 20 21  1  1  0  0  0
 20 27  1  0  0  0  0
 22 23  1  1  0  0  0
 22 29  1  0  0  0  0
 24  2  1  1  0  0  0
 24 31  1  0  0  0  0
 25 26  1  6  0  0  0
 25 33  1  0  0  0  0
 27 28  1  6  0  0  0
 27 34  1  0  0  0  0
 29 30  1  0  0  0  0
 29 36  1  6  0  0  0
 31 32  1  6  0  0  0
 31 38  1  0  0  0  0
 34 35  1  0  0  0  0
 34 40  1  1  0  0  0
 36 37  1  0  0  0  0
 38 39  1  6  0  0  0
 40 41  1  0  0  0  0
M  END
>  <CHROM.1>
-178.08350383,-160.43255066,-179.18828896,176.11198607,41.19106313,42.84101813
6.50524650,-2.30506747,0.08469345,-2.51199317

>  <Name>
ligand

>  <RI>
0

>  <Rbt.Current_Directory>
/home/itssahil/PROJECTS/Mol_Feturizer/New_Systems/rnas/1ZZ5

>  <Rbt.Executable>
rbdock ($Id: //depot/dev/client3/rdock/2013.1/src/exe/rbdock.cxx#4 $)

>  <Rbt.Library>
libRbt.so (2013.1, Build901 2013/11/27)

>  <Rbt.Parameter_File>
/export/apps/rDock/src/rDock_2013.1_src/data/scripts/dock_solv.prm

>  <Rbt.Receptor>
prm/pocket_docking_8.prm

>  <SCORE>
-9.14035

>  <SCORE.INTER>
-6.98298

>  <SCORE.INTER.CONST>
1

>  <SCORE.INTER.POLAR>
0

>  <SCORE.INTER.ROT>
4

>  <SCORE.INTER.SOLV>
11.6882

>  <SCORE.INTER.VDW>
-14.8181

>  <SCORE.INTER.norm>
-0.170317

>  <SCORE.INTRA>
-2.16082

>  <SCORE.INTRA.DIHEDRAL>
-3.18065

>  <SCORE.INTRA.DIHEDRAL.0>
5.18357

>  <SCORE.INTRA.POLAR>
0

>  <SCORE.INTRA.POLAR.0>
0

>  <SCORE.INTRA.REPUL>
0

>  <SCORE.INTRA.REPUL.0>
0

>  <SCORE.INTRA.SOLV>
-1.51889

>  <SCORE.INTRA.SOLV.lig_0>
-109.973

>  <SCORE.INTRA.VDW>
0.188947

>  <SCORE.INTRA.VDW.0>
-1.68646

>  <SCORE.INTRA.norm>
-0.052703

>  <SCORE.RESTR>
0.00345216

>  <SCORE.RESTR.CAVITY>
0.00345216

>  <SCORE.RESTR.norm>
8.41991e-05

>  <SCORE.SYSTEM>
0

>  <SCORE.SYSTEM.CONST>
0

>  <SCORE.SYSTEM.DIHEDRAL>
0

>  <SCORE.SYSTEM.SOLV>
0

>  <SCORE.SYSTEM.norm>
0

>  <SCORE.heavy>
41

>  <SCORE.norm>
-0.222935

>  <RMSD>
7.384

$$$$
ligand
 OpenBabel11021811423D
libRbt.so/2013.1/901 2013/11/27
 41 45  0  0  0  0  0  0  0  0999 V2000
   39.7107   34.6407    6.7710 C   0  0  2  0  0  0  0  0  0  0  0  0
   39.4470   36.0042    6.3867 O   0  0  0  0  0  0  0  0  0  0  0  0
   35.9989   38.6510    6.5391 C   0  0  2  0  0  0  0  0  0  0  0  0
   34.6006   39.1316    6.3943 N   0  0  0  0  0  0  0  0  0  0  0  0
   38.2072   36.4549   10.1689 C   0  0  1  0  0  0  0  0  0  0  0  0
   39.4393   37.4842   13.1178 C   0  0  1  0  0  0  0  0  0  0  0  0
   41.1178   34.5044    7.4260 C   0  0  2  0  0  0  0  0  0  0  0  0
   41.3166   35.4241    8.5501 N   0  0  0  0  0  0  0  0  0  0  0  0
   36.4905   38.1011    5.1629 C   0  0  0  0  0  0  0  0  0  0  0  0
   38.1093   35.3187   11.2125 C   0  0  2  0  0  0  0  0  0  0  0  0
   37.0665   35.5570   12.1636 O   0  0  0  0  0  0  0  0  0  0  0  0
   39.7024   38.1158   14.5510 C   0  0  2  0  0  0  0  0  0  0  0  0
   38.8493   37.5423   15.6365 N   0  0  0  0  0  0  0  0  0  0  0  0
   42.2281   34.7191    6.3623 C   0  0  1  0  0  0  0  0  0  0  0  0
   43.5129   34.5668    6.9598 O   0  0  0  0  0  0  0  0  0  0  0  0
   37.9522   37.5747    5.2552 C   0  0  2  0  0  0  0  0  0  0  0  0
   38.3411   37.0852    3.9192 N   0  0  0  0  0  0  0  0  0  0  0  0
   39.5052   35.2634   11.8562 C   0  0  2  0  0  0  0  0  0  0  0  0
   39.5658   36.0165   13.1324 O   0  0  0  0  0  0  0  0  0  0  0  0
   39.5048   39.6978   14.4894 C   0  0  1  0  0  0  0  0  0  0  0  0
   40.5286   40.3219   13.6836 O   0  0  0  0  0  0  0  0  0  0  0  0
   42.0428   33.7116    5.2041 C   0  0  2  0  0  0  0  0  0  0  0  0
   43.0599   33.8894    4.2408 O   0  0  0  0  0  0  0  0  0  0  0  0
   38.0548   36.4624    6.3582 C   0  0  2  0  0  0  0  0  0  0  0  0
   40.4214   35.8754   10.8003 C   0  0  2  0  0  0  0  0  0  0  0  0
   39.6014   36.7201   10.0052 O   0  0  0  0  0  0  0  0  0  0  0  0
   38.0890   40.1001   13.9106 C   0  0  2  0  0  0  0  0  0  0  0  0
   37.0674   39.7010   14.8399 O   0  0  0  0  0  0  0  0  0  0  0  0
   40.6521   33.8892    4.5629 C   0  0  2  0  0  0  0  0  0  0  0  0
   39.6283   33.7151    5.6169 O   0  0  0  0  0  0  0  0  0  0  0  0
   37.5818   37.0633    7.7751 C   0  0  2  0  0  0  0  0  0  0  0  0
   37.6187   36.0565    8.8700 O   0  0  0  0  0  0  0  0  0  0  0  0
   41.0650   34.8501    9.8783 C   0  0  0  0  0  0  0  0  0  0  0  0
   37.8682   39.4076   12.5049 C   0  0  1  0  0  0  0  0  0  0  0  0
   38.1057   37.9254   12.5692 O   0  0  0  0  0  0  0  0  0  0  0  0
   40.4690   32.8606    3.4226 C   0  0  0  0  0  0  0  0  0  0  0  0
   39.2339   33.0211    2.6333 N   0  0  0  0  0  0  0  0  0  0  0  0
   36.1219   37.5523    7.6638 C   0  0  1  0  0  0  0  0  0  0  0  0
   35.7000   38.0855    8.9233 O   0  0  0  0  0  0  0  0  0  0  0  0
   36.4556   39.7126   11.8734 C   0  0  0  0  0  0  0  0  0  0  0  0
   35.2648   39.2848   12.6749 N   0  0  0  0  0  0  0  0  0  0  0  0
  1  2  1  6  0  0  0
  1  7  1  0  0  0  0
  1 30  1  0  0  0  0
  3  4  1  6  0  0  0
  3  9  1  0  0  0  0
  3 38  1  0  0  0  0
  5 10  1  0  0  0  0
  5 26  1  6  0  0  0
  5 32  1  0  0  0  0
  6 12  1  0  0  0  0
  6 35  1  0  0  0  0
  6 19  1  1  0  0  0
  7  8  1  1  0  0  0
  7 14  1  0  0  0  0
  8 33  1  0  0  0  0
  9 16  1  0  0  0  0
 10 11  1  1  0  0  0
 10 18  1  0  0  0  0
 12 13  1  1  0  0  0
 12 20  1  0  0  0  0
 14 15  1  1  0  0  0
 14 22  1  0  0  0  0
 16 17  1  6  0  0  0
 16 24  1  0  0  0  0
 18 19  1  1  0  0  0
 18 25  1  0  0  0  0
 20 21  1  6  0  0  0
 20 27  1  0  0  0  0
 22 23  1  6  0  0  0
 22 29  1  0  0  0  0
 24  2  1  1  0  0  0
 24 31  1  0  0  0  0
 25 26  1  6  0  0  0
 25 33  1  0  0  0  0
 27 28  1  1  0  0  0
 27 34  1  0  0  0  0
 29 30  1  0  0  0  0
 29 36  1  6  0  0  0
 31 32  1  1  0  0  0
 31 38  1  0  0  0  0
 34 35  1  0  0  0  0
 34 40  1  1  0  0  0
 36 37  1  0  0  0  0
 38 39  1  1  0  0  0
 40 41  1  0  0  0  0
M  END
>  <CHROM.1>
-67.72335038,-173.16818861,-173.77690487,-59.75437807,38.91818311,36.63119258
9.14512357,-1.30277725,-0.58403908,1.28159831

>  <Name>
ligand

>  <RI>
0

>  <Rbt.Current_Directory>
/home/itssahil/PROJECTS/Mol_Feturizer/New_Systems/rnas/1ZZ5

>  <Rbt.Executable>
rbdock ($Id: //depot/dev/client3/rdock/2013.1/src/exe/rbdock.cxx#4 $)

>  <Rbt.Library>
libRbt.so (2013.1, Build901 2013/11/27)

>  <Rbt.Parameter_File>
/export/apps/rDock/src/rDock_2013.1_src/data/scripts/dock_solv.prm

>  <Rbt.Receptor>
prm/pocket_docking_8.prm

>  <SCORE>
-8.66275

>  <SCORE.INTER>
-6.96266

>  <SCORE.INTER.CONST>
1

>  <SCORE.INTER.POLAR>
0

>  <SCORE.INTER.ROT>
4

>  <SCORE.INTER.SOLV>
11.711

>  <SCORE.INTER.VDW>
-14.8121

>  <SCORE.INTER.norm>
-0.169821

>  <SCORE.INTRA>
-1.70008

>  <SCORE.INTRA.DIHEDRAL>
-4.30113

>  <SCORE.INTRA.DIHEDRAL.0>
5.18357

>  <SCORE.INTRA.POLAR>
0

>  <SCORE.INTRA.POLAR.0>
0

>  <SCORE.INTRA.REPUL>
0.00113839

>  <SCORE.INTRA.REPUL.0>
0

>  <SCORE.INTRA.SOLV>
1.63095

>  <SCORE.INTRA.SOLV.lig_0>
-109.973

>  <SCORE.INTRA.VDW>
-0.370683

>  <SCORE.INTRA.VDW.0>
-1.68646

>  <SCORE.INTRA.norm>
-0.0414654

>  <SCORE.RESTR>
0

>  <SCORE.RESTR.CAVITY>
0

>  <SCORE.RESTR.norm>
0

>  <SCORE.SYSTEM>
0

>  <SCORE.SYSTEM.CONST>
0

>  <SCORE.SYSTEM.DIHEDRAL>
0

>  <SCORE.SYSTEM.SOLV>
0

>  <SCORE.SYSTEM.norm>
0

>  <SCORE.heavy>
41

>  <SCORE.norm>
-0.211286

>  <RMSD>
7.803

$$$$
ligand
 OpenBabel11021811423D
libRbt.so/2013.1/901 2013/11/27
 41 45  0  0  0  0  0  0  0  0999 V2000
   40.8101   34.8508    7.0318 C   0  0  2  0  0  0  0  0  0  0  0  0
   40.4722   36.1804    6.5910 O   0  0  0  0  0  0  0  0  0  0  0  0
   36.7806   38.4132    6.0390 C   0  0  2  0  0  0  0  0  0  0  0  0
   35.3921   38.7327    5.6179 N   0  0  0  0  0  0  0  0  0  0  0  0
   38.4707   36.4338   10.0515 C   0  0  1  0  0  0  0  0  0  0  0  0
   39.2957   37.5854   13.2299 C   0  0  1  0  0  0  0  0  0  0  0  0
   42.0675   34.8672    7.9517 C   0  0  2  0  0  0  0  0  0  0  0  0
   41.9348   35.7880    9.0848 N   0  0  0  0  0  0  0  0  0  0  0  0
   37.5925   37.9422    4.7912 C   0  0  0  0  0  0  0  0  0  0  0  0
   38.3011   35.2795   11.0656 C   0  0  2  0  0  0  0  0  0  0  0  0
   37.0716   35.3838   11.7910 O   0  0  0  0  0  0  0  0  0  0  0  0
   39.2545   38.1770   14.7031 C   0  0  2  0  0  0  0  0  0  0  0  0
   38.1020   37.6930   15.5231 N   0  0  0  0  0  0  0  0  0  0  0  0
   43.3328   35.2222    7.1252 C   0  0  1  0  0  0  0  0  0  0  0  0
   44.4842   35.2096    7.9650 O   0  0  0  0  0  0  0  0  0  0  0  0
   39.0583   37.5852    5.1738 C   0  0  2  0  0  0  0  0  0  0  0  0
   39.7554   37.1620    3.9447 N   0  0  0  0  0  0  0  0  0  0  0  0
   39.5404   35.3753   11.9717 C   0  0  2  0  0  0  0  0  0  0  0  0
   39.2624   36.1126   13.2281 O   0  0  0  0  0  0  0  0  0  0  0  0
   39.2430   39.7714   14.6456 C   0  0  1  0  0  0  0  0  0  0  0  0
   40.4948   40.2858   14.1404 O   0  0  0  0  0  0  0  0  0  0  0  0
   43.4954   34.2163    5.9622 C   0  0  2  0  0  0  0  0  0  0  0  0
   44.6545   34.5227    5.2161 O   0  0  0  0  0  0  0  0  0  0  0  0
   39.0695   36.4768    6.2853 C   0  0  2  0  0  0  0  0  0  0  0  0
   40.5696   36.1026   11.1109 C   0  0  2  0  0  0  0  0  0  0  0  0
   39.8301   36.8589   10.1627 O   0  0  0  0  0  0  0  0  0  0  0  0
   38.0668   40.3273   13.7461 C   0  0  2  0  0  0  0  0  0  0  0  0
   36.8093   40.0358   14.3785 O   0  0  0  0  0  0  0  0  0  0  0  0
   42.2466   34.2427    5.0586 C   0  0  2  0  0  0  0  0  0  0  0  0
   41.0627   33.9379    5.8923 O   0  0  0  0  0  0  0  0  0  0  0  0
   38.2617   36.9999    7.5762 C   0  0  2  0  0  0  0  0  0  0  0  0
   38.1984   35.9888    8.6659 O   0  0  0  0  0  0  0  0  0  0  0  0
   41.4951   35.1706   10.3427 C   0  0  0  0  0  0  0  0  0  0  0  0
   38.1356   39.6704   12.3080 C   0  0  1  0  0  0  0  0  0  0  0  0
   38.1952   38.1710   12.3813 O   0  0  0  0  0  0  0  0  0  0  0  0
   42.4102   33.2158    3.9138 C   0  0  0  0  0  0  0  0  0  0  0  0
   41.2887   33.1669    2.9578 N   0  0  0  0  0  0  0  0  0  0  0  0
   36.8057   37.3202    7.1757 C   0  0  1  0  0  0  0  0  0  0  0  0
   36.0865   37.7841    8.3229 O   0  0  0  0  0  0  0  0  0  0  0  0
   36.9657   40.1295   11.3551 C   0  0  0  0  0  0  0  0  0  0  0  0
   37.1364   39.8207    9.8994 N   0  0  0  0  0  0  0  0  0  0  0  0
  1  2  1  6  0  0  0
  1  7  1  0  0  0  0
  1 30  1  0  0  0  0
  3  4  1  6  0  0  0
  3  9  1  0  0  0  0
  3 38  1  0  0  0  0
  5 10  1  0  0  0  0
  5 26  1  6  0  0  0
  5 32  1  0  0  0  0
  6 12  1  0  0  0  0
  6 35  1  0  0  0  0
  6 19  1  1  0  0  0
  7  8  1  1  0  0  0
  7 14  1  0  0  0  0
  8 33  1  0  0  0  0
  9 16  1  0  0  0  0
 10 11  1  1  0  0  0
 10 18  1  0  0  0  0
 12 13  1  6  0  0  0
 12 20  1  0  0  0  0
 14 15  1  1  0  0  0
 14 22  1  0  0  0  0
 16 17  1  6  0  0  0
 16 24  1  0  0  0  0
 18 19  1  1  0  0  0
 18 25  1  0  0  0  0
 20 21  1  6  0  0  0
 20 27  1  0  0  0  0
 22 23  1  6  0  0  0
 22 29  1  0  0  0  0
 24  2  1  1  0  0  0
 24 31  1  0  0  0  0
 25 26  1  6  0  0  0
 25 33  1  0  0  0  0
 27 28  1  1  0  0  0
 27 34  1  0  0  0  0
 29 30  1  0  0  0  0
 29 36  1  6  0  0  0
 31 32  1  1  0  0  0
 31 38  1  0  0  0  0
 34 35  1  0  0  0  0
 34 40  1  6  0  0  0
 36 37  1  0  0  0  0
 38 39  1  1  0  0  0
 40 41  1  0  0  0  0
M  END
>  <CHROM.1>
-82.43163533,-168.91766498,-178.66368295,165.84749250,39.55344890,36.78230599
9.15441190,-1.14135028,-0.55453336,1.36637955

>  <Name>
ligand

>  <RI>
0

>  <Rbt.Current_Directory>
/home/itssahil/PROJECTS/Mol_Feturizer/New_Systems/rnas/1ZZ5

>  <Rbt.Executable>
rbdock ($Id: //depot/dev/client3/rdock/2013.1/src/exe/rbdock.cxx#4 $)

>  <Rbt.Library>
libRbt.so (2013.1, Build901 2013/11/27)

>  <Rbt.Parameter_File>
/export/apps/rDock/src/rDock_2013.1_src/data/scripts/dock_solv.prm

>  <Rbt.Receptor>
prm/pocket_docking_8.prm

>  <SCORE>
-5.98897

>  <SCORE.INTER>
-6.0407

>  <SCORE.INTER.CONST>
1

>  <SCORE.INTER.POLAR>
0

>  <SCORE.INTER.ROT>
4

>  <SCORE.INTER.SOLV>
7.80082

>  <SCORE.INTER.VDW>
-12.8941

>  <SCORE.INTER.norm>
-0.147334

>  <SCORE.INTRA>
0.0517303

>  <SCORE.INTRA.DIHEDRAL>
-1.49307

>  <SCORE.INTRA.DIHEDRAL.0>
5.18357

>  <SCORE.INTRA.POLAR>
0

>  <SCORE.INTRA.POLAR.0>
0

>  <SCORE.INTRA.REPUL>
0.00160845

>  <SCORE.INTRA.REPUL.0>
0

>  <SCORE.INTRA.SOLV>
2.76122

>  <SCORE.INTRA.SOLV.lig_0>
-109.973

>  <SCORE.INTRA.VDW>
-0.590385

>  <SCORE.INTRA.VDW.0>
-1.68646

>  <SCORE.INTRA.norm>
0.00126172

>  <SCORE.RESTR>
0

>  <SCORE.RESTR.CAVITY>
0

>  <SCORE.RESTR.norm>
0

>  <SCORE.SYSTEM>
0

>  <SCORE.SYSTEM.CONST>
0

>  <SCORE.SYSTEM.DIHEDRAL>
0

>  <SCORE.SYSTEM.SOLV>
0

>  <SCORE.SYSTEM.norm>
0

>  <SCORE.heavy>
41

>  <SCORE.norm>
-0.146072

>  <RMSD>
8.148

$$$$
ligand
 OpenBabel11021811423D
libRbt.so/2013.1/901 2013/11/27
 41 45  0  0  0  0  0  0  0  0999 V2000
   38.3738   35.9646   12.1442 C   0  0  2  0  0  0  0  0  0  0  0  0
   38.4280   37.3976   12.0017 O   0  0  0  0  0  0  0  0  0  0  0  0
   41.4465   40.4604   12.6539 C   0  0  2  0  0  0  0  0  0  0  0  0
   42.5251   41.2389   13.3158 N   0  0  0  0  0  0  0  0  0  0  0  0
   41.6409   36.6913    9.7161 C   0  0  1  0  0  0  0  0  0  0  0  0
   41.5211   34.7086    5.7199 C   0  0  1  0  0  0  0  0  0  0  0  0
   37.5977   35.3121   10.9612 C   0  0  2  0  0  0  0  0  0  0  0  0
   38.1250   35.6988    9.6491 N   0  0  0  0  0  0  0  0  0  0  0  0
   40.2273   40.3583   13.6240 C   0  0  0  0  0  0  0  0  0  0  0  0
   42.2720   35.3005    9.4771 C   0  0  2  0  0  0  0  0  0  0  0  0
   43.6818   35.3877    9.2453 O   0  0  0  0  0  0  0  0  0  0  0  0
   41.0965   33.1888    5.5410 C   0  0  2  0  0  0  0  0  0  0  0  0
   42.2256   32.2192    5.6812 N   0  0  0  0  0  0  0  0  0  0  0  0
   36.0881   35.6634   11.0507 C   0  0  1  0  0  0  0  0  0  0  0  0
   35.3780   35.0425    9.9824 O   0  0  0  0  0  0  0  0  0  0  0  0
   39.0648   39.5442   12.9853 C   0  0  2  0  0  0  0  0  0  0  0  0
   37.9551   39.5037   13.9564 N   0  0  0  0  0  0  0  0  0  0  0  0
   41.5023   34.7280    8.2747 C   0  0  2  0  0  0  0  0  0  0  0  0
   42.2225   34.9367    6.9951 O   0  0  0  0  0  0  0  0  0  0  0  0
   40.3867   32.9885    4.1261 C   0  0  1  0  0  0  0  0  0  0  0  0
   39.1155   33.6729    4.0770 O   0  0  0  0  0  0  0  0  0  0  0  0
   35.5263   35.2065   12.4169 C   0  0  2  0  0  0  0  0  0  0  0  0
   34.1490   35.5072   12.4986 O   0  0  0  0  0  0  0  0  0  0  0  0
   39.5676   38.1122   12.5844 C   0  0  2  0  0  0  0  0  0  0  0  0
   40.1732   35.4776    8.2985 C   0  0  2  0  0  0  0  0  0  0  0  0
   40.4211   36.7032    8.9726 O   0  0  0  0  0  0  0  0  0  0  0  0
   41.2852   33.5020    2.9301 C   0  0  2  0  0  0  0  0  0  0  0  0
   42.4433   32.6586    2.8125 O   0  0  0  0  0  0  0  0  0  0  0  0
   36.2987   35.8883   13.5638 C   0  0  2  0  0  0  0  0  0  0  0  0
   37.7340   35.5594   13.4177 O   0  0  0  0  0  0  0  0  0  0  0  0
   40.7975   38.2419   11.5534 C   0  0  2  0  0  0  0  0  0  0  0  0
   41.3540   36.9222   11.1502 O   0  0  0  0  0  0  0  0  0  0  0  0
   39.0707   34.7474    9.0512 C   0  0  0  0  0  0  0  0  0  0  0  0
   41.7108   35.0046    3.1862 C   0  0  1  0  0  0  0  0  0  0  0  0
   42.3329   35.1854    4.5418 O   0  0  0  0  0  0  0  0  0  0  0  0
   35.7445   35.4052   14.9244 C   0  0  0  0  0  0  0  0  0  0  0  0
   34.3838   35.8752   15.2433 N   0  0  0  0  0  0  0  0  0  0  0  0
   41.9459   39.0286   12.2206 C   0  0  1  0  0  0  0  0  0  0  0  0
   43.0403   39.1433   11.3053 O   0  0  0  0  0  0  0  0  0  0  0  0
   42.6548   35.5861    2.0646 C   0  0  0  0  0  0  0  0  0  0  0  0
   43.0621   37.0193    2.2182 N   0  0  0  0  0  0  0  0  0  0  0  0
  1  2  1  6  0  0  0
  1  7  1  0  0  0  0
  1 30  1  0  0  0  0
  3  4  1  1  0  0  0
  3  9  1  0  0  0  0
  3 38  1  0  0  0  0
  5 10  1  0  0  0  0
  5 26  1  6  0  0  0
  5 32  1  0  0  0  0
  6 12  1  0  0  0  0
  6 35  1  0  0  0  0
  6 19  1  1  0  0  0
  7  8  1  6  0  0  0
  7 14  1  0  0  0  0
  8 33  1  0  0  0  0
  9 16  1  0  0  0  0
 10 11  1  6  0  0  0
 10 18  1  0  0  0  0
 12 13  1  6  0  0  0
 12 20  1  0  0  0  0
 14 15  1  6  0  0  0
 14 22  1  0  0  0  0
 16 17  1  1  0  0  0
 16 24  1  0  0  0  0
 18 19  1  6  0  0  0
 18 25  1  0  0  0  0
 20 21  1  1  0  0  0
 20 27  1  0  0  0  0
 22 23  1  6  0  0  0
 22 29  1  0  0  0  0
 24  2  1  6  0  0  0
 24 31  1  0  0  0  0
 25 26  1  1  0  0  0
 25 33  1  0  0  0  0
 27 28  1  1  0  0  0
 27 34  1  0  0  0  0
 29 30  1  0  0  0  0
 29 36  1  1  0  0  0
 31 32  1  1  0  0  0
 31 38  1  0  0  0  0
 34 35  1  0  0  0  0
 34 40  1  6  0  0  0
 36 37  1  0  0  0  0
 38 39  1  6  0  0  0
 40 41  1  0  0  0  0
M  END
>  <CHROM.1>
-167.42980589,-64.16756594,-69.25427759,178.06815586,39.87261697,36.10055049
9.39645694,2.04263750,0.52377287,0.99398527

>  <Name>
ligand

>  <RI>
0

>  <Rbt.Current_Directory>
/home/itssahil/PROJECTS/Mol_Feturizer/New_Systems/rnas/1ZZ5

>  <Rbt.Executable>
rbdock ($Id: //depot/dev/client3/rdock/2013.1/src/exe/rbdock.cxx#4 $)

>  <Rbt.Library>
libRbt.so (2013.1, Build901 2013/11/27)

>  <Rbt.Parameter_File>
/export/apps/rDock/src/rDock_2013.1_src/data/scripts/dock_solv.prm

>  <Rbt.Receptor>
prm/pocket_docking_7.prm

>  <SCORE>
-7.25843

>  <SCORE.INTER>
-5.86266

>  <SCORE.INTER.CONST>
1

>  <SCORE.INTER.POLAR>
0

>  <SCORE.INTER.ROT>
4

>  <SCORE.INTER.SOLV>
11.5546

>  <SCORE.INTER.VDW>
-14.0266

>  <SCORE.INTER.norm>
-0.142992

>  <SCORE.INTRA>
-1.39577

>  <SCORE.INTRA.DIHEDRAL>
-3.80192

>  <SCORE.INTRA.DIHEDRAL.0>
5.18357

>  <SCORE.INTRA.POLAR>
0

>  <SCORE.INTRA.POLAR.0>
0

>  <SCORE.INTRA.REPUL>
0

>  <SCORE.INTRA.REPUL.0>
0

>  <SCORE.INTRA.SOLV>
-0.153664

>  <SCORE.INTRA.SOLV.lig_0>
-109.973

>  <SCORE.INTRA.VDW>
0.582026

>  <SCORE.INTRA.VDW.0>
-1.68646

>  <SCORE.INTRA.norm>
-0.0340431

>  <SCORE.RESTR>
0

>  <SCORE.RESTR.CAVITY>
0

>  <SCORE.RESTR.norm>
0

>  <SCORE.SYSTEM>
0

>  <SCORE.SYSTEM.CONST>
0

>  <SCORE.SYSTEM.DIHEDRAL>
0

>  <SCORE.SYSTEM.SOLV>
0

>  <SCORE.SYSTEM.norm>
0

>  <SCORE.heavy>
41

>  <SCORE.norm>
-0.177035

>  <RMSD>
8.248

$$$$
ligand
 OpenBabel11021811423D
libRbt.so/2013.1/901 2013/11/27
 41 45  0  0  0  0  0  0  0  0999 V2000
   29.1164   40.5220    3.8790 C   0  0  2  0  0  0  0  0  0  0  0  0
   29.0123   41.0155    2.5292 O   0  0  0  0  0  0  0  0  0  0  0  0
   29.5008   44.8840    0.6021 C   0  0  2  0  0  0  0  0  0  0  0  0
   29.3724   46.3417    0.3450 N   0  0  0  0  0  0  0  0  0  0  0  0
   32.7183   42.4108    3.1330 C   0  0  1  0  0  0  0  0  0  0  0  0
   36.6907   41.0642    4.9659 C   0  0  1  0  0  0  0  0  0  0  0  0
   29.8156   39.1301    3.9153 C   0  0  2  0  0  0  0  0  0  0  0  0
   31.1187   39.1274    3.2436 N   0  0  0  0  0  0  0  0  0  0  0  0
   28.0735   44.2675    0.7464 C   0  0  0  0  0  0  0  0  0  0  0  0
   33.4905   42.3301    4.4698 C   0  0  2  0  0  0  0  0  0  0  0  0
   34.4024   43.4223    4.6251 O   0  0  0  0  0  0  0  0  0  0  0  0
   36.8269   42.4636    5.7044 C   0  0  2  0  0  0  0  0  0  0  0  0
   36.9880   43.6279    4.7807 N   0  0  0  0  0  0  0  0  0  0  0  0
   28.8936   38.0497    3.2885 C   0  0  1  0  0  0  0  0  0  0  0  0
   29.5257   36.7738    3.3482 O   0  0  0  0  0  0  0  0  0  0  0  0
   28.1452   42.7381    1.0252 C   0  0  2  0  0  0  0  0  0  0  0  0
   26.7633   42.2344    1.1377 N   0  0  0  0  0  0  0  0  0  0  0  0
   34.1952   40.9635    4.4276 C   0  0  2  0  0  0  0  0  0  0  0  0
   35.6027   41.0707    3.9727 O   0  0  0  0  0  0  0  0  0  0  0  0
   38.0477   42.4169    6.7307 C   0  0  1  0  0  0  0  0  0  0  0  0
   37.7766   41.5143    7.8255 O   0  0  0  0  0  0  0  0  0  0  0  0
   27.5397   38.0226    4.0348 C   0  0  2  0  0  0  0  0  0  0  0  0
   26.7019   37.0298    3.4811 O   0  0  0  0  0  0  0  0  0  0  0  0
   28.9930   42.4660    2.3181 C   0  0  2  0  0  0  0  0  0  0  0  0
   33.3521   40.1452    3.4536 C   0  0  2  0  0  0  0  0  0  0  0  0
   32.7028   41.0828    2.6066 O   0  0  0  0  0  0  0  0  0  0  0  0
   39.3970   41.9764    6.0330 C   0  0  2  0  0  0  0  0  0  0  0  0
   39.8105   43.0010    5.1134 O   0  0  0  0  0  0  0  0  0  0  0  0
   26.8636   39.4061    3.9590 C   0  0  2  0  0  0  0  0  0  0  0  0
   27.7902   40.4085    4.5301 O   0  0  0  0  0  0  0  0  0  0  0  0
   30.4719   43.0744    2.1305 C   0  0  2  0  0  0  0  0  0  0  0  0
   31.3300   42.8856    3.3314 O   0  0  0  0  0  0  0  0  0  0  0  0
   32.2774   39.3056    4.1283 C   0  0  0  0  0  0  0  0  0  0  0  0
   39.1866   40.6005    5.2800 C   0  0  1  0  0  0  0  0  0  0  0  0
   38.0041   40.6457    4.3543 O   0  0  0  0  0  0  0  0  0  0  0  0
   25.5228   39.3735    4.7291 C   0  0  0  0  0  0  0  0  0  0  0  0
   24.7111   40.5993    4.6158 N   0  0  0  0  0  0  0  0  0  0  0  0
   30.3740   44.5949    1.8832 C   0  0  1  0  0  0  0  0  0  0  0  0
   31.6884   45.1369    1.7177 O   0  0  0  0  0  0  0  0  0  0  0  0
   40.4712   40.1074    4.5094 C   0  0  0  0  0  0  0  0  0  0  0  0
   40.3828   38.7560    3.8698 N   0  0  0  0  0  0  0  0  0  0  0  0
  1  2  1  6  0  0  0
  1  7  1  0  0  0  0
  1 30  1  0  0  0  0
  3  4  1  1  0  0  0
  3  9  1  0  0  0  0
  3 38  1  0  0  0  0
  5 10  1  0  0  0  0
  5 26  1  1  0  0  0
  5 32  1  0  0  0  0
  6 12  1  0  0  0  0
  6 35  1  0  0  0  0
  6 19  1  6  0  0  0
  7  8  1  6  0  0  0
  7 14  1  0  0  0  0
  8 33  1  0  0  0  0
  9 16  1  0  0  0  0
 10 11  1  6  0  0  0
 10 18  1  0  0  0  0
 12 13  1  6  0  0  0
 12 20  1  0  0  0  0
 14 15  1  1  0  0  0
 14 22  1  0  0  0  0
 16 17  1  1  0  0  0
 16 24  1  0  0  0  0
 18 19  1  6  0  0  0
 18 25  1  0  0  0  0
 20 21  1  1  0  0  0
 20 27  1  0  0  0  0
 22 23  1  6  0  0  0
 22 29  1  0  0  0  0
 24  2  1  6  0  0  0
 24 31  1  0  0  0  0
 25 26  1  6  0  0  0
 25 33  1  0  0  0  0
 27 28  1  6  0  0  0
 27 34  1  0  0  0  0
 29 30  1  0  0  0  0
 29 36  1  1  0  0  0
 31 32  1  1  0  0  0
 31 38  1  0  0  0  0
 34 35  1  0  0  0  0
 34 40  1  6  0  0  0
 36 37  1  0  0  0  0
 38 39  1  6  0  0  0
 40 41  1  0  0  0  0
M  END
>  <CHROM.1>
99.77271067,-76.98121045,-174.02146769,174.99398304,32.30747438,41.33078632
3.68645969,3.11653705,-0.22055435,-0.38846576

>  <Name>
ligand

>  <RI>
0

>  <Rbt.Current_Directory>
/home/itssahil/PROJECTS/Mol_Feturizer/New_Systems/rnas/1ZZ5

>  <Rbt.Executable>
rbdock ($Id: //depot/dev/client3/rdock/2013.1/src/exe/rbdock.cxx#4 $)

>  <Rbt.Library>
libRbt.so (2013.1, Build901 2013/11/27)

>  <Rbt.Parameter_File>
/export/apps/rDock/src/rDock_2013.1_src/data/scripts/dock_solv.prm

>  <Rbt.Receptor>
prm/pocket_docking_7.prm

>  <SCORE>
-12.1802

>  <SCORE.INTER>
-14.1611

>  <SCORE.INTER.CONST>
1

>  <SCORE.INTER.POLAR>
0

>  <SCORE.INTER.ROT>
4

>  <SCORE.INTER.SOLV>
17.3335

>  <SCORE.INTER.VDW>
-21.4852

>  <SCORE.INTER.norm>
-0.345392

>  <SCORE.INTRA>
1.66068

>  <SCORE.INTRA.DIHEDRAL>
1.86771

>  <SCORE.INTRA.DIHEDRAL.0>
5.18357

>  <SCORE.INTRA.POLAR>
0

>  <SCORE.INTRA.POLAR.0>
0

>  <SCORE.INTRA.REPUL>
0

>  <SCORE.INTRA.REPUL.0>
0

>  <SCORE.INTRA.SOLV>
0.442356

>  <SCORE.INTRA.SOLV.lig_0>
-109.973

>  <SCORE.INTRA.VDW>
0.505644

>  <SCORE.INTRA.VDW.0>
-1.68646

>  <SCORE.INTRA.norm>
0.0405043

>  <SCORE.RESTR>
0.320164

>  <SCORE.RESTR.CAVITY>
0.320164

>  <SCORE.RESTR.norm>
0.00780887

>  <SCORE.SYSTEM>
0

>  <SCORE.SYSTEM.CONST>
0

>  <SCORE.SYSTEM.DIHEDRAL>
0

>  <SCORE.SYSTEM.SOLV>
0

>  <SCORE.SYSTEM.norm>
0

>  <SCORE.heavy>
41

>  <SCORE.norm>
-0.297079

>  <RMSD>
8.269

$$$$
ligand
 OpenBabel11021811423D
libRbt.so/2013.1/901 2013/11/27
 41 45  0  0  0  0  0  0  0  0999 V2000
   41.5673   38.8603   11.5755 C   0  0  2  0  0  0  0  0  0  0  0  0
   40.7072   39.3221   10.5155 O   0  0  0  0  0  0  0  0  0  0  0  0
   39.9381   43.1507    8.6004 C   0  0  2  0  0  0  0  0  0  0  0  0
   39.6562   44.6008    8.4423 N   0  0  0  0  0  0  0  0  0  0  0  0
   44.0740   40.7672    8.8964 C   0  0  1  0  0  0  0  0  0  0  0  0
   46.4306   40.0022    6.7007 C   0  0  1  0  0  0  0  0  0  0  0  0
   42.1933   37.4765   11.2276 C   0  0  2  0  0  0  0  0  0  0  0  0
   42.8871   37.4715    9.9362 N   0  0  0  0  0  0  0  0  0  0  0  0
   38.8564   42.5236    9.5356 C   0  0  0  0  0  0  0  0  0  0  0  0
   45.4687   40.7245    9.5619 C   0  0  2  0  0  0  0  0  0  0  0  0
   46.2853   41.8289    9.1592 O   0  0  0  0  0  0  0  0  0  0  0  0
   45.4769   38.9597    5.9754 C   0  0  2  0  0  0  0  0  0  0  0  0
   46.0967   37.6176    5.7532 N   0  0  0  0  0  0  0  0  0  0  0  0
   41.1013   36.3732   11.2472 C   0  0  1  0  0  0  0  0  0  0  0  0
   41.6828   35.1053   10.9551 O   0  0  0  0  0  0  0  0  0  0  0  0
   39.1053   41.0016    9.7448 C   0  0  2  0  0  0  0  0  0  0  0  0
   38.0406   40.4870   10.6265 N   0  0  0  0  0  0  0  0  0  0  0  0
   46.0542   39.3643    9.1459 C   0  0  2  0  0  0  0  0  0  0  0  0
   46.9546   39.4751    7.9726 O   0  0  0  0  0  0  0  0  0  0  0  0
   44.9782   39.5600    4.5838 C   0  0  1  0  0  0  0  0  0  0  0  0
   44.1031   40.6915    4.7857 O   0  0  0  0  0  0  0  0  0  0  0  0
   40.4083   36.3496   12.6293 C   0  0  2  0  0  0  0  0  0  0  0  0
   39.4253   35.3362   12.6604 O   0  0  0  0  0  0  0  0  0  0  0  0
   40.5414   40.7672   10.3336 C   0  0  2  0  0  0  0  0  0  0  0  0
   44.8253   38.5159    8.8312 C   0  0  2  0  0  0  0  0  0  0  0  0
   43.7911   39.4276    8.4887 O   0  0  0  0  0  0  0  0  0  0  0  0
   46.1825   40.0089    3.6620 C   0  0  2  0  0  0  0  0  0  0  0  0
   46.9189   38.8464    3.2464 O   0  0  0  0  0  0  0  0  0  0  0  0
   39.7792   37.7242   12.9316 C   0  0  2  0  0  0  0  0  0  0  0  0
   40.8452   38.7484   12.8645 O   0  0  0  0  0  0  0  0  0  0  0  0
   41.6414   41.3858    9.3337 C   0  0  2  0  0  0  0  0  0  0  0  0
   43.0322   41.2327    9.8398 O   0  0  0  0  0  0  0  0  0  0  0  0
   44.3390   37.6811   10.0068 C   0  0  0  0  0  0  0  0  0  0  0  0
   47.1180   41.0108    4.4527 C   0  0  1  0  0  0  0  0  0  0  0  0
   47.5390   40.4509    5.7818 O   0  0  0  0  0  0  0  0  0  0  0  0
   39.1108   37.6958   14.3259 C   0  0  0  0  0  0  0  0  0  0  0  0
   37.9051   36.8521   14.4200 N   0  0  0  0  0  0  0  0  0  0  0  0
   41.3889   42.8993    9.1655 C   0  0  1  0  0  0  0  0  0  0  0  0
   42.3671   43.4504    8.2777 O   0  0  0  0  0  0  0  0  0  0  0  0
   48.3786   41.4732    3.6253 C   0  0  0  0  0  0  0  0  0  0  0  0
   49.3015   42.4367    4.3060 N   0  0  0  0  0  0  0  0  0  0  0  0
  1  2  1  6  0  0  0
  1  7  1  0  0  0  0
  1 30  1  0  0  0  0
  3  4  1  1  0  0  0
  3  9  1  0  0  0  0
  3 38  1  0  0  0  0
  5 10  1  0  0  0  0
  5 26  1  1  0  0  0
  5 32  1  0  0  0  0
  6 12  1  0  0  0  0
  6 35  1  0  0  0  0
  6 19  1  1  0  0  0
  7  8  1  6  0  0  0
  7 14  1  0  0  0  0
  8 33  1  0  0  0  0
  9 16  1  0  0  0  0
 10 11  1  6  0  0  0
 10 18  1  0  0  0  0
 12 13  1  6  0  0  0
 12 20  1  0  0  0  0
 14 15  1  1  0  0  0
 14 22  1  0  0  0  0
 16 17  1  1  0  0  0
 16 24  1  0  0  0  0
 18 19  1  6  0  0  0
 18 25  1  0  0  0  0
 20 21  1  1  0  0  0
 20 27  1  0  0  0  0
 22 23  1  6  0  0  0
 22 29  1  0  0  0  0
 24  2  1  6  0  0  0
 24 31  1  0  0  0  0
 25 26  1  1  0  0  0
 25 33  1  0  0  0  0
 27 28  1  1  0  0  0
 27 34  1  0  0  0  0
 29 30  1  0  0  0  0
 29 36  1  1  0  0  0
 31 32  1  1  0  0  0
 31 38  1  0  0  0  0
 34 35  1  0  0  0  0
 34 40  1  6  0  0  0
 36 37  1  0  0  0  0
 38 39  1  6  0  0  0
 40 41  1  0  0  0  0
M  END
>  <CHROM.1>
-59.74471229,-72.95197468,-69.00215927,179.28227305,43.10861366,39.68940417
8.87443401,-2.59083108,0.61535494,-0.49740728

>  <Name>
ligand

>  <RI>
0

>  <Rbt.Current_Directory>
/home/itssahil/PROJECTS/Mol_Feturizer/New_Systems/rnas/1ZZ5

>  <Rbt.Executable>
rbdock ($Id: //depot/dev/client3/rdock/2013.1/src/exe/rbdock.cxx#4 $)

>  <Rbt.Library>
libRbt.so (2013.1, Build901 2013/11/27)

>  <Rbt.Parameter_File>
/export/apps/rDock/src/rDock_2013.1_src/data/scripts/dock_solv.prm

>  <Rbt.Receptor>
prm/pocket_docking_7.prm

>  <SCORE>
-3.62589

>  <SCORE.INTER>
-2.69381

>  <SCORE.INTER.CONST>
1

>  <SCORE.INTER.POLAR>
0

>  <SCORE.INTER.ROT>
4

>  <SCORE.INTER.SOLV>
7.35601

>  <SCORE.INTER.VDW>
-10.5145

>  <SCORE.INTER.norm>
-0.0657026

>  <SCORE.INTRA>
-0.93209

>  <SCORE.INTRA.DIHEDRAL>
-3.87979

>  <SCORE.INTRA.DIHEDRAL.0>
5.18357

>  <SCORE.INTRA.POLAR>
0

>  <SCORE.INTRA.POLAR.0>
0

>  <SCORE.INTRA.REPUL>
0

>  <SCORE.INTRA.REPUL.0>
0

>  <SCORE.INTRA.SOLV>
1.3619

>  <SCORE.INTRA.SOLV.lig_0>
-109.973

>  <SCORE.INTRA.VDW>
0.326859

>  <SCORE.INTRA.VDW.0>
-1.68646

>  <SCORE.INTRA.norm>
-0.0227339

>  <SCORE.RESTR>
0

>  <SCORE.RESTR.CAVITY>
0

>  <SCORE.RESTR.norm>
0

>  <SCORE.SYSTEM>
0

>  <SCORE.SYSTEM.CONST>
0

>  <SCORE.SYSTEM.DIHEDRAL>
0

>  <SCORE.SYSTEM.SOLV>
0

>  <SCORE.SYSTEM.norm>
0

>  <SCORE.heavy>
41

>  <SCORE.norm>
-0.0884365

>  <RMSD>
8.301

$$$$
ligand
 OpenBabel11021811423D
libRbt.so/2013.1/901 2013/11/27
 41 45  0  0  0  0  0  0  0  0999 V2000
   28.9190   40.4634    3.9325 C   0  0  2  0  0  0  0  0  0  0  0  0
   28.7961   40.9862    2.5953 O   0  0  0  0  0  0  0  0  0  0  0  0
   29.3749   44.8703    0.7255 C   0  0  2  0  0  0  0  0  0  0  0  0
   29.2939   46.3363    0.4987 N   0  0  0  0  0  0  0  0  0  0  0  0
   32.5669   42.2323    3.1187 C   0  0  1  0  0  0  0  0  0  0  0  0
   36.5359   40.6131    4.8019 C   0  0  1  0  0  0  0  0  0  0  0  0
   29.5666   39.0463    3.9237 C   0  0  2  0  0  0  0  0  0  0  0  0
   30.8495   39.0085    3.2153 N   0  0  0  0  0  0  0  0  0  0  0  0
   27.9302   44.3041    0.8992 C   0  0  0  0  0  0  0  0  0  0  0  0
   33.3723   42.0978    4.4313 C   0  0  2  0  0  0  0  0  0  0  0  0
   34.3283   43.1524    4.5803 O   0  0  0  0  0  0  0  0  0  0  0  0
   36.7147   41.8941    5.7235 C   0  0  2  0  0  0  0  0  0  0  0  0
   36.8693   43.1738    4.9663 N   0  0  0  0  0  0  0  0  0  0  0  0
   28.5878   38.0127    3.3039 C   0  0  1  0  0  0  0  0  0  0  0  0
   29.1733   36.7136    3.3225 O   0  0  0  0  0  0  0  0  0  0  0  0
   27.9524   42.7680    1.1481 C   0  0  2  0  0  0  0  0  0  0  0  0
   26.5563   42.3135    1.2907 N   0  0  0  0  0  0  0  0  0  0  0  0
   34.0240   40.7072    4.3443 C   0  0  2  0  0  0  0  0  0  0  0  0
   35.4214   40.7712    3.8516 O   0  0  0  0  0  0  0  0  0  0  0  0
   37.9621   41.6900    6.6972 C   0  0  1  0  0  0  0  0  0  0  0  0
   37.7065   40.6470    7.6634 O   0  0  0  0  0  0  0  0  0  0  0  0
   27.2551   38.0212    4.0878 C   0  0  2  0  0  0  0  0  0  0  0  0
   26.3658   37.0707    3.5403 O   0  0  0  0  0  0  0  0  0  0  0  0
   28.8251   42.4402    2.4112 C   0  0  2  0  0  0  0  0  0  0  0  0
   33.1244   39.9393    3.3800 C   0  0  2  0  0  0  0  0  0  0  0  0
   32.4872   40.9161    2.5689 O   0  0  0  0  0  0  0  0  0  0  0  0
   39.2846   41.3346    5.9058 C   0  0  2  0  0  0  0  0  0  0  0  0
   39.6894   42.4724    5.1259 O   0  0  0  0  0  0  0  0  0  0  0  0
   26.6293   39.4298    4.0563 C   0  0  2  0  0  0  0  0  0  0  0  0
   27.6082   40.3863    4.6189 O   0  0  0  0  0  0  0  0  0  0  0  0
   30.3199   42.9972    2.1927 C   0  0  2  0  0  0  0  0  0  0  0  0
   31.2033   42.7540    3.3650 O   0  0  0  0  0  0  0  0  0  0  0  0
   32.0382   39.1270    4.0698 C   0  0  0  0  0  0  0  0  0  0  0  0
   39.0316   40.0798    4.9754 C   0  0  1  0  0  0  0  0  0  0  0  0
   37.8252   40.2679    4.1000 O   0  0  0  0  0  0  0  0  0  0  0  0
   25.3101   39.4319    4.8635 C   0  0  0  0  0  0  0  0  0  0  0  0
   24.6203   40.7337    4.9236 N   0  0  0  0  0  0  0  0  0  0  0  0
   30.2720   44.5248    1.9758 C   0  0  1  0  0  0  0  0  0  0  0  0
   31.6005   45.0211    1.7828 O   0  0  0  0  0  0  0  0  0  0  0  0
   40.2866   39.6834    4.1065 C   0  0  0  0  0  0  0  0  0  0  0  0
   41.5216   39.2994    4.8620 N   0  0  0  0  0  0  0  0  0  0  0  0
  1  2  1  6  0  0  0
  1  7  1  0  0  0  0
  1 30  1  0  0  0  0
  3  4  1  1  0  0  0
  3  9  1  0  0  0  0
  3 38  1  0  0  0  0
  5 10  1  0  0  0  0
  5 26  1  1  0  0  0
  5 32  1  0  0  0  0
  6 12  1  0  0  0  0
  6 35  1  0  0  0  0
  6 19  1  6  0  0  0
  7  8  1  6  0  0  0
  7 14  1  0  0  0  0
  8 33  1  0  0  0  0
  9 16  1  0  0  0  0
 10 11  1  6  0  0  0
 10 18  1  0  0  0  0
 12 13  1  6  0  0  0
 12 20  1  0  0  0  0
 14 15  1  1  0  0  0
 14 22  1  0  0  0  0
 16 17  1  1  0  0  0
 16 24  1  0  0  0  0
 18 19  1  6  0  0  0
 18 25  1  0  0  0  0
 20 21  1  1  0  0  0
 20 27  1  0  0  0  0
 22 23  1  6  0  0  0
 22 29  1  0  0  0  0
 24  2  1  6  0  0  0
 24 31  1  0  0  0  0
 25 26  1  6  0  0  0
 25 33  1  0  0  0  0
 27 28  1  6  0  0  0
 27 34  1  0  0  0  0
 29 30  1  0  0  0  0
 29 36  1  1  0  0  0
 31 32  1  1  0  0  0
 31 38  1  0  0  0  0
 34 35  1  0  0  0  0
 34 40  1  6  0  0  0
 36 37  1  0  0  0  0
 38 39  1  6  0  0  0
 40 41  1  0  0  0  0
M  END
>  <CHROM.1>
103.94382166,-72.98753611,179.25728090,60.90219339,32.16436380,41.15269189
3.71383696,3.07608202,-0.18824806,-0.40434749

>  <Name>
ligand

>  <RI>
0

>  <Rbt.Current_Directory>
/home/itssahil/PROJECTS/Mol_Feturizer/New_Systems/rnas/1ZZ5

>  <Rbt.Executable>
rbdock ($Id: //depot/dev/client3/rdock/2013.1/src/exe/rbdock.cxx#4 $)

>  <Rbt.Library>
libRbt.so (2013.1, Build901 2013/11/27)

>  <Rbt.Parameter_File>
/export/apps/rDock/src/rDock_2013.1_src/data/scripts/dock_solv.prm

>  <Rbt.Receptor>
prm/pocket_docking_8.prm

>  <SCORE>
-13.2591

>  <SCORE.INTER>
-15.029

>  <SCORE.INTER.CONST>
1

>  <SCORE.INTER.POLAR>
0

>  <SCORE.INTER.ROT>
4

>  <SCORE.INTER.SOLV>
14.9367

>  <SCORE.INTER.VDW>
-21.2649

>  <SCORE.INTER.norm>
-0.36656

>  <SCORE.INTRA>
1.76938

>  <SCORE.INTRA.DIHEDRAL>
1.75766

>  <SCORE.INTRA.DIHEDRAL.0>
5.18357

>  <SCORE.INTRA.POLAR>
0

>  <SCORE.INTRA.POLAR.0>
0

>  <SCORE.INTRA.REPUL>
0

>  <SCORE.INTRA.REPUL.0>
0

>  <SCORE.INTRA.SOLV>
0.929248

>  <SCORE.INTRA.SOLV.lig_0>
-109.973

>  <SCORE.INTRA.VDW>
0.425924

>  <SCORE.INTRA.VDW.0>
-1.68646

>  <SCORE.INTRA.norm>
0.0431556

>  <SCORE.RESTR>
0.000509045

>  <SCORE.RESTR.CAVITY>
0.000509045

>  <SCORE.RESTR.norm>
1.24157e-05

>  <SCORE.SYSTEM>
0

>  <SCORE.SYSTEM.CONST>
0

>  <SCORE.SYSTEM.DIHEDRAL>
0

>  <SCORE.SYSTEM.SOLV>
0

>  <SCORE.SYSTEM.norm>
0

>  <SCORE.heavy>
41

>  <SCORE.norm>
-0.323392

>  <RMSD>
8.318

$$$$
ligand
 OpenBabel11021811423D
libRbt.so/2013.1/901 2013/11/27
 41 45  0  0  0  0  0  0  0  0999 V2000
   28.9157   40.4713    3.9367 C   0  0  2  0  0  0  0  0  0  0  0  0
   28.7912   40.9993    2.6017 O   0  0  0  0  0  0  0  0  0  0  0  0
   29.3650   44.8914    0.7470 C   0  0  2  0  0  0  0  0  0  0  0  0
   29.2824   46.3583    0.5261 N   0  0  0  0  0  0  0  0  0  0  0  0
   32.5612   42.2469    3.1271 C   0  0  1  0  0  0  0  0  0  0  0  0
   36.5330   40.6209    4.8002 C   0  0  1  0  0  0  0  0  0  0  0  0
   29.5646   39.0549    3.9217 C   0  0  2  0  0  0  0  0  0  0  0  0
   30.8470   39.0211    3.2121 N   0  0  0  0  0  0  0  0  0  0  0  0
   27.9209   44.3232    0.9195 C   0  0  0  0  0  0  0  0  0  0  0  0
   33.3678   42.1078    4.4385 C   0  0  2  0  0  0  0  0  0  0  0  0
   34.3230   43.1628    4.5911 O   0  0  0  0  0  0  0  0  0  0  0  0
   36.7031   41.8893    5.7407 C   0  0  2  0  0  0  0  0  0  0  0  0
   36.8491   43.1811    5.0026 N   0  0  0  0  0  0  0  0  0  0  0  0
   28.5863   38.0229    3.2985 C   0  0  1  0  0  0  0  0  0  0  0  0
   29.1731   36.7242    3.3115 O   0  0  0  0  0  0  0  0  0  0  0  0
   27.9447   42.7861    1.1623 C   0  0  2  0  0  0  0  0  0  0  0  0
   26.5492   42.3297    1.3042 N   0  0  0  0  0  0  0  0  0  0  0  0
   34.0208   40.7182    4.3455 C   0  0  2  0  0  0  0  0  0  0  0  0
   35.4177   40.7855    3.8520 O   0  0  0  0  0  0  0  0  0  0  0  0
   37.9516   41.6792    6.7116 C   0  0  1  0  0  0  0  0  0  0  0  0
   37.7028   40.6203    7.6622 O   0  0  0  0  0  0  0  0  0  0  0  0
   27.2542   38.0269    4.0835 C   0  0  2  0  0  0  0  0  0  0  0  0
   26.3654   37.0777    3.5328 O   0  0  0  0  0  0  0  0  0  0  0  0
   28.8187   42.4541    2.4234 C   0  0  2  0  0  0  0  0  0  0  0  0
   33.1211   39.9533    3.3788 C   0  0  2  0  0  0  0  0  0  0  0  0
   32.4823   40.9328    2.5722 O   0  0  0  0  0  0  0  0  0  0  0  0
   39.2766   41.3445    5.9155 C   0  0  2  0  0  0  0  0  0  0  0  0
   39.6738   42.4964    5.1527 O   0  0  0  0  0  0  0  0  0  0  0  0
   26.6270   39.4350    4.0581 C   0  0  2  0  0  0  0  0  0  0  0  0
   27.6054   40.3902    4.6237 O   0  0  0  0  0  0  0  0  0  0  0  0
   30.3128   43.0134    2.2059 C   0  0  2  0  0  0  0  0  0  0  0  0
   31.1974   42.7663    3.3766 O   0  0  0  0  0  0  0  0  0  0  0  0
   32.0362   39.1373    4.0662 C   0  0  0  0  0  0  0  0  0  0  0  0
   39.0323   40.1019    4.9665 C   0  0  1  0  0  0  0  0  0  0  0  0
   37.8248   40.2949    4.0936 O   0  0  0  0  0  0  0  0  0  0  0  0
   25.3085   39.4326    4.8663 C   0  0  0  0  0  0  0  0  0  0  0  0
   24.6086   40.7294    4.9176 N   0  0  0  0  0  0  0  0  0  0  0  0
   30.2633   44.5418    1.9952 C   0  0  1  0  0  0  0  0  0  0  0  0
   31.5912   45.0401    1.8032 O   0  0  0  0  0  0  0  0  0  0  0  0
   40.2901   39.7269    4.0922 C   0  0  0  0  0  0  0  0  0  0  0  0
   41.5109   39.2879    4.8408 N   0  0  0  0  0  0  0  0  0  0  0  0
  1  2  1  6  0  0  0
  1  7  1  0  0  0  0
  1 30  1  0  0  0  0
  3  4  1  1  0  0  0
  3  9  1  0  0  0  0
  3 38  1  0  0  0  0
  5 10  1  0  0  0  0
  5 26  1  1  0  0  0
  5 32  1  0  0  0  0
  6 12  1  0  0  0  0
  6 35  1  0  0  0  0
  6 19  1  6  0  0  0
  7  8  1  6  0  0  0
  7 14  1  0  0  0  0
  8 33  1  0  0  0  0
  9 16  1  0  0  0  0
 10 11  1  6  0  0  0
 10 18  1  0  0  0  0
 12 13  1  6  0  0  0
 12 20  1  0  0  0  0
 14 15  1  1  0  0  0
 14 22  1  0  0  0  0
 16 17  1  1  0  0  0
 16 24  1  0  0  0  0
 18 19  1  6  0  0  0
 18 25  1  0  0  0  0
 20 21  1  1  0  0  0
 20 27  1  0  0  0  0
 22 23  1  6  0  0  0
 22 29  1  0  0  0  0
 24  2  1  6  0  0  0
 24 31  1  0  0  0  0
 25 26  1  6  0  0  0
 25 33  1  0  0  0  0
 27 28  1  6  0  0  0
 27 34  1  0  0  0  0
 29 30  1  0  0  0  0
 29 36  1  1  0  0  0
 31 32  1  1  0  0  0
 31 38  1  0  0  0  0
 34 35  1  0  0  0  0
 34 40  1  6  0  0  0
 36 37  1  0  0  0  0
 38 39  1  6  0  0  0
 40 41  1  0  0  0  0
M  END
>  <CHROM.1>
104.11569092,-72.38281338,-179.98945199,63.24025307,32.15880638,41.16357747
3.71942405,3.07672593,-0.18826484,-0.40033279

>  <Name>
ligand

>  <RI>
0

>  <Rbt.Current_Directory>
/home/itssahil/PROJECTS/Mol_Feturizer/New_Systems/rnas/1ZZ5

>  <Rbt.Executable>
rbdock ($Id: //depot/dev/client3/rdock/2013.1/src/exe/rbdock.cxx#4 $)

>  <Rbt.Library>
libRbt.so (2013.1, Build901 2013/11/27)

>  <Rbt.Parameter_File>
/export/apps/rDock/src/rDock_2013.1_src/data/scripts/dock_solv.prm

>  <Rbt.Receptor>
prm/pocket_docking_8.prm

>  <SCORE>
-13.2683

>  <SCORE.INTER>
-15.0382

>  <SCORE.INTER.CONST>
1

>  <SCORE.INTER.POLAR>
0

>  <SCORE.INTER.ROT>
4

>  <SCORE.INTER.SOLV>
14.8331

>  <SCORE.INTER.VDW>
-21.2365

>  <SCORE.INTER.norm>
-0.366785

>  <SCORE.INTRA>
1.76991

>  <SCORE.INTRA.DIHEDRAL>
1.73973

>  <SCORE.INTRA.DIHEDRAL.0>
5.18357

>  <SCORE.INTRA.POLAR>
0

>  <SCORE.INTRA.POLAR.0>
0

>  <SCORE.INTRA.REPUL>
0

>  <SCORE.INTRA.REPUL.0>
0

>  <SCORE.INTRA.SOLV>
0.894093

>  <SCORE.INTRA.SOLV.lig_0>
-109.973

>  <SCORE.INTRA.VDW>
0.453003

>  <SCORE.INTRA.VDW.0>
-1.68646

>  <SCORE.INTRA.norm>
0.0431686

>  <SCORE.RESTR>
0

>  <SCORE.RESTR.CAVITY>
0

>  <SCORE.RESTR.norm>
0

>  <SCORE.SYSTEM>
0

>  <SCORE.SYSTEM.CONST>
0

>  <SCORE.SYSTEM.DIHEDRAL>
0

>  <SCORE.SYSTEM.SOLV>
0

>  <SCORE.SYSTEM.norm>
0

>  <SCORE.heavy>
41

>  <SCORE.norm>
-0.323617

>  <RMSD>
8.320

$$$$
ligand
 OpenBabel11021811423D
libRbt.so/2013.1/901 2013/11/27
 41 45  0  0  0  0  0  0  0  0999 V2000
   29.2341   40.7107    4.0382 C   0  0  2  0  0  0  0  0  0  0  0  0
   29.0466   41.2880    2.7313 O   0  0  0  0  0  0  0  0  0  0  0  0
   29.1942   45.3060    1.0726 C   0  0  2  0  0  0  0  0  0  0  0  0
   28.9555   46.7650    0.9251 N   0  0  0  0  0  0  0  0  0  0  0  0
   32.6664   42.9007    3.3160 C   0  0  1  0  0  0  0  0  0  0  0  0
   36.7219   42.0949    4.9201 C   0  0  1  0  0  0  0  0  0  0  0  0
   30.0292   39.3735    3.9522 C   0  0  2  0  0  0  0  0  0  0  0  0
   31.3038   39.5110    3.2411 N   0  0  0  0  0  0  0  0  0  0  0  0
   27.8194   44.5800    1.2174 C   0  0  0  0  0  0  0  0  0  0  0  0
   33.4908   42.7832    4.6184 C   0  0  2  0  0  0  0  0  0  0  0  0
   34.3298   43.9246    4.8228 O   0  0  0  0  0  0  0  0  0  0  0  0
   37.7286   40.8979    5.1952 C   0  0  2  0  0  0  0  0  0  0  0  0
   37.0666   39.6346    5.6433 N   0  0  0  0  0  0  0  0  0  0  0  0
   29.1621   38.2757    3.2790 C   0  0  1  0  0  0  0  0  0  0  0  0
   29.8831   37.0475    3.2268 O   0  0  0  0  0  0  0  0  0  0  0  0
   28.0073   43.0440    1.3832 C   0  0  2  0  0  0  0  0  0  0  0  0
   26.6688   42.4357    1.5030 N   0  0  0  0  0  0  0  0  0  0  0  0
   34.2867   41.4769    4.4558 C   0  0  2  0  0  0  0  0  0  0  0  0
   35.6657   41.7163    3.9655 O   0  0  0  0  0  0  0  0  0  0  0  0
   38.8198   41.3450    6.2699 C   0  0  1  0  0  0  0  0  0  0  0  0
   39.6915   42.3661    5.7367 O   0  0  0  0  0  0  0  0  0  0  0  0
   27.8416   38.0997    4.0639 C   0  0  2  0  0  0  0  0  0  0  0  0
   27.0550   37.0900    3.4672 O   0  0  0  0  0  0  0  0  0  0  0  0
   28.9189   42.7445    2.6257 C   0  0  2  0  0  0  0  0  0  0  0  0
   33.4673   40.6698    3.4527 C   0  0  2  0  0  0  0  0  0  0  0  0
   32.7238   41.6148    2.6963 O   0  0  0  0  0  0  0  0  0  0  0  0
   38.1592   41.8871    7.6007 C   0  0  2  0  0  0  0  0  0  0  0  0
   37.4940   40.8048    8.2735 O   0  0  0  0  0  0  0  0  0  0  0  0
   27.0687   39.4329    4.1092 C   0  0  2  0  0  0  0  0  0  0  0  0
   27.9439   40.4572    4.7211 O   0  0  0  0  0  0  0  0  0  0  0  0
   30.3441   43.4691    2.4355 C   0  0  2  0  0  0  0  0  0  0  0  0
   31.2567   43.2596    3.5919 O   0  0  0  0  0  0  0  0  0  0  0  0
   32.4790   39.7102    4.0992 C   0  0  0  0  0  0  0  0  0  0  0  0
   37.1370   43.0456    7.2583 C   0  0  1  0  0  0  0  0  0  0  0  0
   36.1469   42.6248    6.2096 O   0  0  0  0  0  0  0  0  0  0  0  0
   25.7626   39.2506    4.9170 C   0  0  0  0  0  0  0  0  0  0  0  0
   24.8259   40.3873    4.8486 N   0  0  0  0  0  0  0  0  0  0  0  0
   30.1318   44.9922    2.3013 C   0  0  1  0  0  0  0  0  0  0  0  0
   31.3983   45.6374    2.1336 O   0  0  0  0  0  0  0  0  0  0  0  0
   36.3897   43.6139    8.5255 C   0  0  0  0  0  0  0  0  0  0  0  0
   37.2417   44.3132    9.5396 N   0  0  0  0  0  0  0  0  0  0  0  0
  1  2  1  6  0  0  0
  1  7  1  0  0  0  0
  1 30  1  0  0  0  0
  3  4  1  1  0  0  0
  3  9  1  0  0  0  0
  3 38  1  0  0  0  0
  5 10  1  0  0  0  0
  5 26  1  1  0  0  0
  5 32  1  0  0  0  0
  6 12  1  0  0  0  0
  6 35  1  0  0  0  0
  6 19  1  6  0  0  0
  7  8  1  6  0  0  0
  7 14  1  0  0  0  0
  8 33  1  0  0  0  0
  9 16  1  0  0  0  0
 10 11  1  6  0  0  0
 10 18  1  0  0  0  0
 12 13  1  1  0  0  0
 12 20  1  0  0  0  0
 14 15  1  1  0  0  0
 14 22  1  0  0  0  0
 16 17  1  1  0  0  0
 16 24  1  0  0  0  0
 18 19  1  6  0  0  0
 18 25  1  0  0  0  0
 20 21  1  6  0  0  0
 20 27  1  0  0  0  0
 22 23  1  6  0  0  0
 22 29  1  0  0  0  0
 24  2  1  6  0  0  0
 24 31  1  0  0  0  0
 25 26  1  6  0  0  0
 25 33  1  0  0  0  0
 27 28  1  6  0  0  0
 27 34  1  0  0  0  0
 29 30  1  0  0  0  0
 29 36  1  1  0  0  0
 31 32  1  1  0  0  0
 31 38  1  0  0  0  0
 34 35  1  0  0  0  0
 34 40  1  1  0  0  0
 36 37  1  0  0  0  0
 38 39  1  6  0  0  0
 40 41  1  0  0  0  0
M  END
>  <CHROM.1>
82.64962278,106.28800314,-170.35805183,65.03977423,32.05964255,41.71206517
4.21445162,3.11792082,-0.37202580,-0.36090696

>  <Name>
ligand

>  <RI>
0

>  <Rbt.Current_Directory>
/home/itssahil/PROJECTS/Mol_Feturizer/New_Systems/rnas/1ZZ5

>  <Rbt.Executable>
rbdock ($Id: //depot/dev/client3/rdock/2013.1/src/exe/rbdock.cxx#4 $)

>  <Rbt.Library>
libRbt.so (2013.1, Build901 2013/11/27)

>  <Rbt.Parameter_File>
/export/apps/rDock/src/rDock_2013.1_src/data/scripts/dock_solv.prm

>  <Rbt.Receptor>
prm/pocket_docking_7.prm

>  <SCORE>
-12.7876

>  <SCORE.INTER>
-15.2978

>  <SCORE.INTER.CONST>
1

>  <SCORE.INTER.POLAR>
0

>  <SCORE.INTER.ROT>
4

>  <SCORE.INTER.SOLV>
11.9577

>  <SCORE.INTER.VDW>
-20.4511

>  <SCORE.INTER.norm>
-0.373116

>  <SCORE.INTRA>
2.22106

>  <SCORE.INTRA.DIHEDRAL>
3.83265

>  <SCORE.INTRA.DIHEDRAL.0>
5.18357

>  <SCORE.INTRA.POLAR>
0

>  <SCORE.INTRA.POLAR.0>
0

>  <SCORE.INTRA.REPUL>
0

>  <SCORE.INTRA.REPUL.0>
0

>  <SCORE.INTRA.SOLV>
0.00330896

>  <SCORE.INTRA.SOLV.lig_0>
-109.973

>  <SCORE.INTRA.VDW>
0.303083

>  <SCORE.INTRA.VDW.0>
-1.68646

>  <SCORE.INTRA.norm>
0.0541723

>  <SCORE.RESTR>
0.289098

>  <SCORE.RESTR.CAVITY>
0.289098

>  <SCORE.RESTR.norm>
0.00705117

>  <SCORE.SYSTEM>
0

>  <SCORE.SYSTEM.CONST>
0

>  <SCORE.SYSTEM.DIHEDRAL>
0

>  <SCORE.SYSTEM.SOLV>
0

>  <SCORE.SYSTEM.norm>
0

>  <SCORE.heavy>
41

>  <SCORE.norm>
-0.311893

>  <RMSD>
8.330

$$$$
ligand
 OpenBabel11021811423D
libRbt.so/2013.1/901 2013/11/27
 41 45  0  0  0  0  0  0  0  0999 V2000
   29.1305   40.8501    4.1000 C   0  0  2  0  0  0  0  0  0  0  0  0
   28.9230   41.4401    2.8018 O   0  0  0  0  0  0  0  0  0  0  0  0
   29.1272   45.4636    1.1625 C   0  0  2  0  0  0  0  0  0  0  0  0
   28.9213   46.9290    1.0297 N   0  0  0  0  0  0  0  0  0  0  0  0
   32.5962   42.9586    3.2992 C   0  0  1  0  0  0  0  0  0  0  0  0
   36.7216   41.7203    4.7942 C   0  0  1  0  0  0  0  0  0  0  0  0
   29.8894   39.4942    3.9854 C   0  0  2  0  0  0  0  0  0  0  0  0
   31.1478   39.6045    3.2414 N   0  0  0  0  0  0  0  0  0  0  0  0
   27.7390   44.7711    1.3397 C   0  0  0  0  0  0  0  0  0  0  0  0
   33.4516   42.8124    4.5786 C   0  0  2  0  0  0  0  0  0  0  0  0
   34.3240   43.9314    4.7671 O   0  0  0  0  0  0  0  0  0  0  0  0
   37.1420   40.2595    5.2541 C   0  0  2  0  0  0  0  0  0  0  0  0
   36.0236   39.4584    5.8391 N   0  0  0  0  0  0  0  0  0  0  0  0
   28.9775   38.4225    3.3292 C   0  0  1  0  0  0  0  0  0  0  0  0
   29.6659   37.1772    3.2510 O   0  0  0  0  0  0  0  0  0  0  0  0
   27.8927   43.2299    1.4918 C   0  0  2  0  0  0  0  0  0  0  0  0
   26.5430   42.6544    1.6437 N   0  0  0  0  0  0  0  0  0  0  0  0
   34.2100   41.4879    4.3875 C   0  0  2  0  0  0  0  0  0  0  0  0
   35.5811   41.6960    3.8620 O   0  0  0  0  0  0  0  0  0  0  0  0
   38.3459   40.3464    6.2975 C   0  0  1  0  0  0  0  0  0  0  0  0
   39.5514   40.8311    5.6662 O   0  0  0  0  0  0  0  0  0  0  0  0
   27.6743   38.2744    4.1480 C   0  0  2  0  0  0  0  0  0  0  0  0
   26.8472   37.2884    3.5666 O   0  0  0  0  0  0  0  0  0  0  0  0
   28.8290   42.9000    2.7079 C   0  0  2  0  0  0  0  0  0  0  0  0
   33.3444   40.7077    3.4020 C   0  0  2  0  0  0  0  0  0  0  0  0
   32.6050   41.6756    2.6710 O   0  0  0  0  0  0  0  0  0  0  0  0
   38.0048   41.2836    7.5250 C   0  0  2  0  0  0  0  0  0  0  0  0
   36.9646   40.6759    8.3094 O   0  0  0  0  0  0  0  0  0  0  0  0
   26.9365   39.6261    4.2213 C   0  0  2  0  0  0  0  0  0  0  0  0
   27.8528   40.6245    4.8155 O   0  0  0  0  0  0  0  0  0  0  0  0
   30.2664   43.5902    2.4840 C   0  0  2  0  0  0  0  0  0  0  0  0
   31.2037   43.3507    3.6145 O   0  0  0  0  0  0  0  0  0  0  0  0
   32.3498   39.7690    4.0691 C   0  0  0  0  0  0  0  0  0  0  0  0
   37.5526   42.7074    7.0028 C   0  0  1  0  0  0  0  0  0  0  0  0
   36.4522   42.6053    5.9851 O   0  0  0  0  0  0  0  0  0  0  0  0
   25.6480   39.4713    5.0625 C   0  0  0  0  0  0  0  0  0  0  0  0
   24.8496   40.7023    5.2086 N   0  0  0  0  0  0  0  0  0  0  0  0
   30.0888   45.1189    2.3641 C   0  0  1  0  0  0  0  0  0  0  0  0
   31.3662   45.7335    2.1664 O   0  0  0  0  0  0  0  0  0  0  0  0
   37.1422   43.6960    8.1611 C   0  0  0  0  0  0  0  0  0  0  0  0
   38.2315   44.0967    9.1078 N   0  0  0  0  0  0  0  0  0  0  0  0
  1  2  1  6  0  0  0
  1  7  1  0  0  0  0
  1 30  1  0  0  0  0
  3  4  1  1  0  0  0
  3  9  1  0  0  0  0
  3 38  1  0  0  0  0
  5 10  1  0  0  0  0
  5 26  1  1  0  0  0
  5 32  1  0  0  0  0
  6 12  1  0  0  0  0
  6 35  1  0  0  0  0
  6 19  1  6  0  0  0
  7  8  1  6  0  0  0
  7 14  1  0  0  0  0
  8 33  1  0  0  0  0
  9 16  1  0  0  0  0
 10 11  1  6  0  0  0
 10 18  1  0  0  0  0
 12 13  1  1  0  0  0
 12 20  1  0  0  0  0
 14 15  1  1  0  0  0
 14 22  1  0  0  0  0
 16 17  1  1  0  0  0
 16 24  1  0  0  0  0
 18 19  1  6  0  0  0
 18 25  1  0  0  0  0
 20 21  1  6  0  0  0
 20 27  1  0  0  0  0
 22 23  1  6  0  0  0
 22 29  1  0  0  0  0
 24  2  1  6  0  0  0
 24 31  1  0  0  0  0
 25 26  1  1  0  0  0
 25 33  1  0  0  0  0
 27 28  1  6  0  0  0
 27 34  1  0  0  0  0
 29 30  1  0  0  0  0
 29 36  1  1  0  0  0
 31 32  1  1  0  0  0
 31 38  1  0  0  0  0
 34 35  1  0  0  0  0
 34 40  1  1  0  0  0
 36 37  1  0  0  0  0
 38 39  1  6  0  0  0
 40 41  1  0  0  0  0
M  END
>  <CHROM.1>
97.26361259,77.75179969,179.96464569,64.77236405,31.97575285,41.68385110
4.22175881,3.06484733,-0.33604042,-0.35590042

>  <Name>
ligand

>  <RI>
0

>  <Rbt.Current_Directory>
/home/itssahil/PROJECTS/Mol_Feturizer/New_Systems/rnas/1ZZ5

>  <Rbt.Executable>
rbdock ($Id: //depot/dev/client3/rdock/2013.1/src/exe/rbdock.cxx#4 $)

>  <Rbt.Library>
libRbt.so (2013.1, Build901 2013/11/27)

>  <Rbt.Parameter_File>
/export/apps/rDock/src/rDock_2013.1_src/data/scripts/dock_solv.prm

>  <Rbt.Receptor>
prm/pocket_docking_8.prm

>  <SCORE>
-13.8651

>  <SCORE.INTER>
-14.752

>  <SCORE.INTER.CONST>
1

>  <SCORE.INTER.POLAR>
0

>  <SCORE.INTER.ROT>
4

>  <SCORE.INTER.SOLV>
11.3097

>  <SCORE.INTER.VDW>
-19.8712

>  <SCORE.INTER.norm>
-0.359805

>  <SCORE.INTRA>
0.886928

>  <SCORE.INTRA.DIHEDRAL>
1.40285

>  <SCORE.INTRA.DIHEDRAL.0>
5.18357

>  <SCORE.INTRA.POLAR>
0

>  <SCORE.INTRA.POLAR.0>
0

>  <SCORE.INTRA.REPUL>
0

>  <SCORE.INTRA.REPUL.0>
0

>  <SCORE.INTRA.SOLV>
0.82883

>  <SCORE.INTRA.SOLV.lig_0>
-109.973

>  <SCORE.INTRA.VDW>
-0.228912

>  <SCORE.INTRA.VDW.0>
-1.68646

>  <SCORE.INTRA.norm>
0.0216324

>  <SCORE.RESTR>
0

>  <SCORE.RESTR.CAVITY>
0

>  <SCORE.RESTR.norm>
0

>  <SCORE.SYSTEM>
0

>  <SCORE.SYSTEM.CONST>
0

>  <SCORE.SYSTEM.DIHEDRAL>
0

>  <SCORE.SYSTEM.SOLV>
0

>  <SCORE.SYSTEM.norm>
0

>  <SCORE.heavy>
41

>  <SCORE.norm>
-0.338173

>  <RMSD>
8.385

$$$$
ligand
 OpenBabel11021811423D
libRbt.so/2013.1/901 2013/11/27
 41 45  0  0  0  0  0  0  0  0999 V2000
   29.1943   40.8226    3.9676 C   0  0  2  0  0  0  0  0  0  0  0  0
   29.0968   41.3326    2.6234 O   0  0  0  0  0  0  0  0  0  0  0  0
   29.3524   45.2629    0.7783 C   0  0  2  0  0  0  0  0  0  0  0  0
   29.1222   46.7114    0.5413 N   0  0  0  0  0  0  0  0  0  0  0  0
   32.6648   42.9910    3.3746 C   0  0  1  0  0  0  0  0  0  0  0  0
   36.5009   42.6582    5.1486 C   0  0  1  0  0  0  0  0  0  0  0  0
   29.9956   39.4869    4.0043 C   0  0  2  0  0  0  0  0  0  0  0  0
   31.3161   39.5950    3.3769 N   0  0  0  0  0  0  0  0  0  0  0  0
   27.9721   44.5381    0.8643 C   0  0  0  0  0  0  0  0  0  0  0  0
   33.3973   42.9432    4.7351 C   0  0  2  0  0  0  0  0  0  0  0  0
   34.2184   44.0977    4.9391 O   0  0  0  0  0  0  0  0  0  0  0  0
   38.0335   42.3426    4.8771 C   0  0  2  0  0  0  0  0  0  0  0  0
   38.3878   40.8947    4.9908 N   0  0  0  0  0  0  0  0  0  0  0  0
   29.1789   38.3523    3.3290 C   0  0  1  0  0  0  0  0  0  0  0  0
   29.9037   37.1267    3.3888 O   0  0  0  0  0  0  0  0  0  0  0  0
   28.1505   43.0134    1.1200 C   0  0  2  0  0  0  0  0  0  0  0  0
   26.8079   42.4051    1.1776 N   0  0  0  0  0  0  0  0  0  0  0  0
   34.2047   41.6345    4.6939 C   0  0  2  0  0  0  0  0  0  0  0  0
   35.6139   41.8560    4.2885 O   0  0  0  0  0  0  0  0  0  0  0  0
   38.9458   43.1998    5.8664 C   0  0  1  0  0  0  0  0  0  0  0  0
   38.8622   44.6102    5.5651 O   0  0  0  0  0  0  0  0  0  0  0  0
   27.8076   38.2091    4.0288 C   0  0  2  0  0  0  0  0  0  0  0  0
   27.0658   37.1668    3.4309 O   0  0  0  0  0  0  0  0  0  0  0  0
   28.9743   42.7813    2.4359 C   0  0  2  0  0  0  0  0  0  0  0  0
   33.4580   40.7739    3.6786 C   0  0  2  0  0  0  0  0  0  0  0  0
   32.7671   41.6759    2.8260 O   0  0  0  0  0  0  0  0  0  0  0  0
   38.5507   42.9812    7.3822 C   0  0  2  0  0  0  0  0  0  0  0  0
   38.8699   41.6327    7.7644 O   0  0  0  0  0  0  0  0  0  0  0  0
   27.0313   39.5390    3.9533 C   0  0  2  0  0  0  0  0  0  0  0  0
   27.8603   40.5972    4.5717 O   0  0  0  0  0  0  0  0  0  0  0  0
   30.4081   43.5027    2.3083 C   0  0  2  0  0  0  0  0  0  0  0  0
   31.2389   43.3561    3.5340 O   0  0  0  0  0  0  0  0  0  0  0  0
   32.4288   39.8430    4.3029 C   0  0  0  0  0  0  0  0  0  0  0  0
   37.0072   43.2686    7.5805 C   0  0  1  0  0  0  0  0  0  0  0  0
   36.1651   42.4911    6.6092 O   0  0  0  0  0  0  0  0  0  0  0  0
   25.6727   39.3909    4.6772 C   0  0  0  0  0  0  0  0  0  0  0  0
   24.8706   40.6259    4.7522 N   0  0  0  0  0  0  0  0  0  0  0  0
   30.2032   45.0160    2.0831 C   0  0  1  0  0  0  0  0  0  0  0  0
   31.4773   45.6584    1.9708 O   0  0  0  0  0  0  0  0  0  0  0  0
   36.5114   43.0252    9.0578 C   0  0  0  0  0  0  0  0  0  0  0  0
   37.1139   43.9018   10.1123 N   0  0  0  0  0  0  0  0  0  0  0  0
  1  2  1  6  0  0  0
  1  7  1  0  0  0  0
  1 30  1  0  0  0  0
  3  4  1  1  0  0  0
  3  9  1  0  0  0  0
  3 38  1  0  0  0  0
  5 10  1  0  0  0  0
  5 26  1  1  0  0  0
  5 32  1  0  0  0  0
  6 12  1  0  0  0  0
  6 35  1  0  0  0  0
  6 19  1  6  0  0  0
  7  8  1  6  0  0  0
  7 14  1  0  0  0  0
  8 33  1  0  0  0  0
  9 16  1  0  0  0  0
 10 11  1  6  0  0  0
 10 18  1  0  0  0  0
 12 13  1  1  0  0  0
 12 20  1  0  0  0  0
 14 15  1  1  0  0  0
 14 22  1  0  0  0  0
 16 17  1  1  0  0  0
 16 24  1  0  0  0  0
 18 19  1  6  0  0  0
 18 25  1  0  0  0  0
 20 21  1  6  0  0  0
 20 27  1  0  0  0  0
 22 23  1  6  0  0  0
 22 29  1  0  0  0  0
 24  2  1  6  0  0  0
 24 31  1  0  0  0  0
 25 26  1  6  0  0  0
 25 33  1  0  0  0  0
 27 28  1  6  0  0  0
 27 34  1  0  0  0  0
 29 30  1  0  0  0  0
 29 36  1  1  0  0  0
 31 32  1  1  0  0  0
 31 38  1  0  0  0  0
 34 35  1  0  0  0  0
 34 40  1  1  0  0  0
 36 37  1  0  0  0  0
 38 39  1  6  0  0  0
 40 41  1  0  0  0  0
M  END
>  <CHROM.1>
64.21126813,158.34505921,176.14711733,63.05881648,32.12902022,41.97374737
4.17549441,3.14134718,-0.40311129,-0.46965714

>  <Name>
ligand

>  <RI>
0

>  <Rbt.Current_Directory>
/home/itssahil/PROJECTS/Mol_Feturizer/New_Systems/rnas/1ZZ5

>  <Rbt.Executable>
rbdock ($Id: //depot/dev/client3/rdock/2013.1/src/exe/rbdock.cxx#4 $)

>  <Rbt.Library>
libRbt.so (2013.1, Build901 2013/11/27)

>  <Rbt.Parameter_File>
/export/apps/rDock/src/rDock_2013.1_src/data/scripts/dock_solv.prm

>  <Rbt.Receptor>
prm/pocket_docking_8.prm

>  <SCORE>
-16.0055

>  <SCORE.INTER>
-15.1426

>  <SCORE.INTER.CONST>
1

>  <SCORE.INTER.POLAR>
0

>  <SCORE.INTER.ROT>
4

>  <SCORE.INTER.SOLV>
13.9865

>  <SCORE.INTER.VDW>
-21.0239

>  <SCORE.INTER.norm>
-0.369333

>  <SCORE.INTRA>
-0.862874

>  <SCORE.INTRA.DIHEDRAL>
-2.75721

>  <SCORE.INTRA.DIHEDRAL.0>
5.18357

>  <SCORE.INTRA.POLAR>
0

>  <SCORE.INTRA.POLAR.0>
0

>  <SCORE.INTRA.REPUL>
0

>  <SCORE.INTRA.REPUL.0>
0

>  <SCORE.INTRA.SOLV>
-0.613597

>  <SCORE.INTRA.SOLV.lig_0>
-109.973

>  <SCORE.INTRA.VDW>
0.822531

>  <SCORE.INTRA.VDW.0>
-1.68646

>  <SCORE.INTRA.norm>
-0.0210457

>  <SCORE.RESTR>
0

>  <SCORE.RESTR.CAVITY>
0

>  <SCORE.RESTR.norm>
0

>  <SCORE.SYSTEM>
0

>  <SCORE.SYSTEM.CONST>
0

>  <SCORE.SYSTEM.DIHEDRAL>
0

>  <SCORE.SYSTEM.SOLV>
0

>  <SCORE.SYSTEM.norm>
0

>  <SCORE.heavy>
41

>  <SCORE.norm>
-0.390379

>  <RMSD>
8.404

$$$$
ligand
 OpenBabel11021811423D
libRbt.so/2013.1/901 2013/11/27
 41 45  0  0  0  0  0  0  0  0999 V2000
   39.0079   36.6569   13.1125 C   0  0  2  0  0  0  0  0  0  0  0  0
   39.2778   37.9432   12.5216 O   0  0  0  0  0  0  0  0  0  0  0  0
   42.8523   40.2753   11.6837 C   0  0  2  0  0  0  0  0  0  0  0  0
   44.1706   40.9303   11.8845 N   0  0  0  0  0  0  0  0  0  0  0  0
   41.7225   35.9121   10.0836 C   0  0  1  0  0  0  0  0  0  0  0  0
   41.6002   34.4893    7.0317 C   0  0  1  0  0  0  0  0  0  0  0  0
   37.8846   35.9071   12.3356 C   0  0  2  0  0  0  0  0  0  0  0  0
   38.1633   35.7881   10.9012 N   0  0  0  0  0  0  0  0  0  0  0  0
   41.8831   40.7285   12.8209 C   0  0  0  0  0  0  0  0  0  0  0  0
   42.0314   34.4013   10.1932 C   0  0  2  0  0  0  0  0  0  0  0  0
   43.3462   34.0906    9.7207 O   0  0  0  0  0  0  0  0  0  0  0  0
   41.7945   33.9444    5.5527 C   0  0  2  0  0  0  0  0  0  0  0  0
   42.8641   32.9085    5.4196 N   0  0  0  0  0  0  0  0  0  0  0  0
   36.5186   36.6118   12.5538 C   0  0  1  0  0  0  0  0  0  0  0  0
   35.4898   35.9073   11.8636 O   0  0  0  0  0  0  0  0  0  0  0  0
   40.4833   40.0661   12.6665 C   0  0  2  0  0  0  0  0  0  0  0  0
   39.6302   40.5515   13.7676 N   0  0  0  0  0  0  0  0  0  0  0  0
   40.9238   33.7195    9.3720 C   0  0  2  0  0  0  0  0  0  0  0  0
   41.3637   33.3981    7.9927 O   0  0  0  0  0  0  0  0  0  0  0  0
   42.0954   35.1597    4.5636 C   0  0  1  0  0  0  0  0  0  0  0  0
   40.9435   36.0208    4.4273 O   0  0  0  0  0  0  0  0  0  0  0  0
   36.2068   36.6880   14.0663 C   0  0  2  0  0  0  0  0  0  0  0  0
   34.9570   37.3125   14.2717 O   0  0  0  0  0  0  0  0  0  0  0  0
   40.6258   38.5028   12.6585 C   0  0  2  0  0  0  0  0  0  0  0  0
   39.7855   34.7360    9.3748 C   0  0  2  0  0  0  0  0  0  0  0  0
   40.3882   36.0057    9.5817 O   0  0  0  0  0  0  0  0  0  0  0  0
   43.3247   36.0305    5.0453 C   0  0  2  0  0  0  0  0  0  0  0  0
   44.5269   35.2490    4.9428 O   0  0  0  0  0  0  0  0  0  0  0  0
   37.3235   37.4562   14.8009 C   0  0  2  0  0  0  0  0  0  0  0  0
   38.6096   36.7744   14.5348 O   0  0  0  0  0  0  0  0  0  0  0  0
   41.5963   38.0564   11.4538 C   0  0  2  0  0  0  0  0  0  0  0  0
   41.8093   36.5847   11.3997 O   0  0  0  0  0  0  0  0  0  0  0  0
   38.7700   34.5165   10.4865 C   0  0  0  0  0  0  0  0  0  0  0  0
   43.0924   36.5070    6.5364 C   0  0  1  0  0  0  0  0  0  0  0  0
   42.7622   35.3570    7.4451 O   0  0  0  0  0  0  0  0  0  0  0  0
   37.0131   37.5048   16.3152 C   0  0  0  0  0  0  0  0  0  0  0  0
   35.7801   38.2295   16.6739 N   0  0  0  0  0  0  0  0  0  0  0  0
   42.9843   38.7041   11.6457 C   0  0  1  0  0  0  0  0  0  0  0  0
   43.8482   38.3068   10.5760 O   0  0  0  0  0  0  0  0  0  0  0  0
   44.2963   37.3423    7.1198 C   0  0  0  0  0  0  0  0  0  0  0  0
   44.6268   38.6166    6.4054 N   0  0  0  0  0  0  0  0  0  0  0  0
  1  2  1  6  0  0  0
  1  7  1  0  0  0  0
  1 30  1  0  0  0  0
  3  4  1  1  0  0  0
  3  9  1  0  0  0  0
  3 38  1  0  0  0  0
  5 10  1  0  0  0  0
  5 26  1  1  0  0  0
  5 32  1  0  0  0  0
  6 12  1  0  0  0  0
  6 35  1  0  0  0  0
  6 19  1  1  0  0  0
  7  8  1  6  0  0  0
  7 14  1  0  0  0  0
  8 33  1  0  0  0  0
  9 16  1  0  0  0  0
 10 11  1  6  0  0  0
 10 18  1  0  0  0  0
 12 13  1  1  0  0  0
 12 20  1  0  0  0  0
 14 15  1  6  0  0  0
 14 22  1  0  0  0  0
 16 17  1  1  0  0  0
 16 24  1  0  0  0  0
 18 19  1  6  0  0  0
 18 25  1  0  0  0  0
 20 21  1  1  0  0  0
 20 27  1  0  0  0  0
 22 23  1  6  0  0  0
 22 29  1  0  0  0  0
 24  2  1  6  0  0  0
 24 31  1  0  0  0  0
 25 26  1  1  0  0  0
 25 33  1  0  0  0  0
 27 28  1  1  0  0  0
 27 34  1  0  0  0  0
 29 30  1  0  0  0  0
 29 36  1  1  0  0  0
 31 32  1  1  0  0  0
 31 38  1  0  0  0  0
 34 35  1  0  0  0  0
 34 40  1  1  0  0  0
 36 37  1  0  0  0  0
 38 39  1  6  0  0  0
 40 41  1  0  0  0  0
M  END
>  <CHROM.1>
-69.42006372,-169.24351555,-63.06064825,60.86487167,40.64250311,36.66087055
10.37165019,2.28186148,0.57095935,0.84677719

>  <Name>
ligand

>  <RI>
0

>  <Rbt.Current_Directory>
/home/itssahil/PROJECTS/Mol_Feturizer/New_Systems/rnas/1ZZ5

>  <Rbt.Executable>
rbdock ($Id: //depot/dev/client3/rdock/2013.1/src/exe/rbdock.cxx#4 $)

>  <Rbt.Library>
libRbt.so (2013.1, Build901 2013/11/27)

>  <Rbt.Parameter_File>
/export/apps/rDock/src/rDock_2013.1_src/data/scripts/dock_solv.prm

>  <Rbt.Receptor>
prm/pocket_docking_8.prm

>  <SCORE>
-11.0191

>  <SCORE.INTER>
-9.53668

>  <SCORE.INTER.CONST>
1

>  <SCORE.INTER.POLAR>
0

>  <SCORE.INTER.ROT>
4

>  <SCORE.INTER.SOLV>
9.98239

>  <SCORE.INTER.VDW>
-15.9519

>  <SCORE.INTER.norm>
-0.232602

>  <SCORE.INTRA>
-1.48247

>  <SCORE.INTRA.DIHEDRAL>
-3.94791

>  <SCORE.INTRA.DIHEDRAL.0>
5.18357

>  <SCORE.INTRA.POLAR>
0

>  <SCORE.INTRA.POLAR.0>
0

>  <SCORE.INTRA.REPUL>
0

>  <SCORE.INTRA.REPUL.0>
0

>  <SCORE.INTRA.SOLV>
1.21021

>  <SCORE.INTRA.SOLV.lig_0>
-109.973

>  <SCORE.INTRA.VDW>
-0.113615

>  <SCORE.INTRA.VDW.0>
-1.68646

>  <SCORE.INTRA.norm>
-0.0361577

>  <SCORE.RESTR>
0

>  <SCORE.RESTR.CAVITY>
0

>  <SCORE.RESTR.norm>
0

>  <SCORE.SYSTEM>
0

>  <SCORE.SYSTEM.CONST>
0

>  <SCORE.SYSTEM.DIHEDRAL>
0

>  <SCORE.SYSTEM.SOLV>
0

>  <SCORE.SYSTEM.norm>
0

>  <SCORE.heavy>
41

>  <SCORE.norm>
-0.26876

>  <RMSD>
8.424

$$$$
ligand
 OpenBabel11021811423D
libRbt.so/2013.1/901 2013/11/27
 41 45  0  0  0  0  0  0  0  0999 V2000
   29.1640   40.8194    3.9476 C   0  0  2  0  0  0  0  0  0  0  0  0
   29.0831   41.3002    2.5916 O   0  0  0  0  0  0  0  0  0  0  0  0
   29.3828   45.1873    0.6631 C   0  0  2  0  0  0  0  0  0  0  0  0
   29.1645   46.6316    0.3921 N   0  0  0  0  0  0  0  0  0  0  0  0
   32.6544   42.9521    3.3419 C   0  0  1  0  0  0  0  0  0  0  0  0
   36.4671   42.6446    5.1545 C   0  0  1  0  0  0  0  0  0  0  0  0
   29.9560   39.4797    4.0217 C   0  0  2  0  0  0  0  0  0  0  0  0
   31.2834   39.5656    3.4053 N   0  0  0  0  0  0  0  0  0  0  0  0
   27.9970   44.4733    0.7512 C   0  0  0  0  0  0  0  0  0  0  0  0
   33.3731   42.9296    4.7104 C   0  0  2  0  0  0  0  0  0  0  0  0
   34.1996   44.0831    4.8972 O   0  0  0  0  0  0  0  0  0  0  0  0
   38.0021   42.3317    4.8938 C   0  0  2  0  0  0  0  0  0  0  0  0
   38.3641   40.8887    5.0400 N   0  0  0  0  0  0  0  0  0  0  0  0
   29.1386   38.3357    3.3633 C   0  0  1  0  0  0  0  0  0  0  0  0
   29.8547   37.1072    3.4573 O   0  0  0  0  0  0  0  0  0  0  0  0
   28.1628   42.9535    1.0421 C   0  0  2  0  0  0  0  0  0  0  0  0
   26.8157   42.3552    1.0996 N   0  0  0  0  0  0  0  0  0  0  0  0
   34.1721   41.6152    4.7061 C   0  0  2  0  0  0  0  0  0  0  0  0
   35.5868   41.8188    4.3101 O   0  0  0  0  0  0  0  0  0  0  0  0
   38.9070   43.2155    5.8662 C   0  0  1  0  0  0  0  0  0  0  0  0
   38.8164   44.6184    5.5339 O   0  0  0  0  0  0  0  0  0  0  0  0
   27.7595   38.2168    4.0523 C   0  0  2  0  0  0  0  0  0  0  0  0
   27.0168   37.1663    3.4700 O   0  0  0  0  0  0  0  0  0  0  0  0
   28.9721   42.7452    2.3710 C   0  0  2  0  0  0  0  0  0  0  0  0
   33.4299   40.7372    3.7026 C   0  0  2  0  0  0  0  0  0  0  0  0
   32.7534   41.6245    2.8234 O   0  0  0  0  0  0  0  0  0  0  0  0
   38.5093   43.0280    7.3854 C   0  0  2  0  0  0  0  0  0  0  0  0
   38.8351   41.6900    7.7979 O   0  0  0  0  0  0  0  0  0  0  0  0
   26.9928   39.5496    3.9398 C   0  0  2  0  0  0  0  0  0  0  0  0
   27.8226   40.6159    4.5431 O   0  0  0  0  0  0  0  0  0  0  0  0
   30.4118   43.4545    2.2420 C   0  0  2  0  0  0  0  0  0  0  0  0
   31.2294   43.3297    3.4789 O   0  0  0  0  0  0  0  0  0  0  0  0
   32.3885   39.8269    4.3368 C   0  0  0  0  0  0  0  0  0  0  0  0
   36.9638   43.3110    7.5737 C   0  0  1  0  0  0  0  0  0  0  0  0
   36.1285   42.5076    6.6177 O   0  0  0  0  0  0  0  0  0  0  0  0
   25.6261   39.4262    4.6531 C   0  0  0  0  0  0  0  0  0  0  0  0
   24.6698   38.5070    4.0091 N   0  0  0  0  0  0  0  0  0  0  0  0
   30.2191   44.9637    1.9815 C   0  0  1  0  0  0  0  0  0  0  0  0
   31.4984   45.5954    1.8680 O   0  0  0  0  0  0  0  0  0  0  0  0
   36.4656   43.0972    9.0547 C   0  0  0  0  0  0  0  0  0  0  0  0
   36.6021   41.7116    9.6067 N   0  0  0  0  0  0  0  0  0  0  0  0
  1  2  1  6  0  0  0
  1  7  1  0  0  0  0
  1 30  1  0  0  0  0
  3  4  1  1  0  0  0
  3  9  1  0  0  0  0
  3 38  1  0  0  0  0
  5 10  1  0  0  0  0
  5 26  1  1  0  0  0
  5 32  1  0  0  0  0
  6 12  1  0  0  0  0
  6 35  1  0  0  0  0
  6 19  1  6  0  0  0
  7  8  1  6  0  0  0
  7 14  1  0  0  0  0
  8 33  1  0  0  0  0
  9 16  1  0  0  0  0
 10 11  1  6  0  0  0
 10 18  1  0  0  0  0
 12 13  1  1  0  0  0
 12 20  1  0  0  0  0
 14 15  1  1  0  0  0
 14 22  1  0  0  0  0
 16 17  1  1  0  0  0
 16 24  1  0  0  0  0
 18 19  1  6  0  0  0
 18 25  1  0  0  0  0
 20 21  1  6  0  0  0
 20 27  1  0  0  0  0
 22 23  1  6  0  0  0
 22 29  1  0  0  0  0
 24  2  1  6  0  0  0
 24 31  1  0  0  0  0
 25 26  1  6  0  0  0
 25 33  1  0  0  0  0
 27 28  1  6  0  0  0
 27 34  1  0  0  0  0
 29 30  1  0  0  0  0
 29 36  1  1  0  0  0
 31 32  1  1  0  0  0
 31 38  1  0  0  0  0
 34 35  1  0  0  0  0
 34 40  1  1  0  0  0
 36 37  1  0  0  0  0
 38 39  1  6  0  0  0
 40 41  1  0  0  0  0
M  END
>  <CHROM.1>
63.63396253,159.27079263,-67.52388487,-62.05057974,32.09088641,41.85531386
4.12704197,3.13043233,-0.40518746,-0.51698471

>  <Name>
ligand

>  <RI>
0

>  <Rbt.Current_Directory>
/home/itssahil/PROJECTS/Mol_Feturizer/New_Systems/rnas/1ZZ5

>  <Rbt.Executable>
rbdock ($Id: //depot/dev/client3/rdock/2013.1/src/exe/rbdock.cxx#4 $)

>  <Rbt.Library>
libRbt.so (2013.1, Build901 2013/11/27)

>  <Rbt.Parameter_File>
/export/apps/rDock/src/rDock_2013.1_src/data/scripts/dock_solv.prm

>  <Rbt.Receptor>
prm/pocket_docking_8.prm

>  <SCORE>
-14.6911

>  <SCORE.INTER>
-15.0264

>  <SCORE.INTER.CONST>
1

>  <SCORE.INTER.POLAR>
0

>  <SCORE.INTER.ROT>
4

>  <SCORE.INTER.SOLV>
14.1305

>  <SCORE.INTER.VDW>
-20.9944

>  <SCORE.INTER.norm>
-0.366496

>  <SCORE.INTRA>
0.335248

>  <SCORE.INTRA.DIHEDRAL>
-2.79016

>  <SCORE.INTRA.DIHEDRAL.0>
5.18357

>  <SCORE.INTRA.POLAR>
0

>  <SCORE.INTRA.POLAR.0>
0

>  <SCORE.INTRA.REPUL>
0

>  <SCORE.INTRA.REPUL.0>
0

>  <SCORE.INTRA.SOLV>
1.79343

>  <SCORE.INTRA.SOLV.lig_0>
-109.973

>  <SCORE.INTRA.VDW>
0.833611

>  <SCORE.INTRA.VDW.0>
-1.68646

>  <SCORE.INTRA.norm>
0.00817678

>  <SCORE.RESTR>
0

>  <SCORE.RESTR.CAVITY>
0

>  <SCORE.RESTR.norm>
0

>  <SCORE.SYSTEM>
0

>  <SCORE.SYSTEM.CONST>
0

>  <SCORE.SYSTEM.DIHEDRAL>
0

>  <SCORE.SYSTEM.SOLV>
0

>  <SCORE.SYSTEM.norm>
0

>  <SCORE.heavy>
41

>  <SCORE.norm>
-0.35832

>  <RMSD>
8.432

$$$$
ligand
 OpenBabel11021811423D
libRbt.so/2013.1/901 2013/11/27
 41 45  0  0  0  0  0  0  0  0999 V2000
   28.8704   40.4596    3.5907 C   0  0  2  0  0  0  0  0  0  0  0  0
   28.8294   40.8799    2.2130 O   0  0  0  0  0  0  0  0  0  0  0  0
   29.5357   44.6116    0.0934 C   0  0  2  0  0  0  0  0  0  0  0  0
   29.4749   46.0563   -0.2478 N   0  0  0  0  0  0  0  0  0  0  0  0
   32.5680   42.1618    2.8643 C   0  0  1  0  0  0  0  0  0  0  0  0
   36.4228   40.6901    4.8993 C   0  0  1  0  0  0  0  0  0  0  0  0
   29.5109   39.0458    3.7273 C   0  0  2  0  0  0  0  0  0  0  0  0
   30.8335   38.9546    3.1014 N   0  0  0  0  0  0  0  0  0  0  0  0
   28.0806   44.0602    0.2230 C   0  0  0  0  0  0  0  0  0  0  0  0
   33.2935   42.1268    4.2290 C   0  0  2  0  0  0  0  0  0  0  0  0
   34.2438   43.1897    4.3547 O   0  0  0  0  0  0  0  0  0  0  0  0
   36.5310   42.0386    5.7312 C   0  0  2  0  0  0  0  0  0  0  0  0
   36.7182   43.2607    4.8909 N   0  0  0  0  0  0  0  0  0  0  0  0
   28.5660   37.9684    3.1301 C   0  0  1  0  0  0  0  0  0  0  0  0
   29.1435   36.6743    3.2814 O   0  0  0  0  0  0  0  0  0  0  0  0
   28.0811   42.5473    0.5879 C   0  0  2  0  0  0  0  0  0  0  0  0
   26.6770   42.1048    0.6810 N   0  0  0  0  0  0  0  0  0  0  0  0
   33.9430   40.7336    4.2860 C   0  0  2  0  0  0  0  0  0  0  0  0
   35.3674   40.7602    3.8739 O   0  0  0  0  0  0  0  0  0  0  0  0
   37.7181   41.9264    6.7913 C   0  0  1  0  0  0  0  0  0  0  0  0
   37.4145   40.9542    7.8158 O   0  0  0  0  0  0  0  0  0  0  0  0
   27.1892   38.0361    3.8304 C   0  0  2  0  0  0  0  0  0  0  0  0
   26.3296   37.0469    3.3041 O   0  0  0  0  0  0  0  0  0  0  0  0
   28.8758   42.3158    1.9218 C   0  0  2  0  0  0  0  0  0  0  0  0
   33.0987   39.8951    3.3305 C   0  0  2  0  0  0  0  0  0  0  0  0
   32.5152   40.8079    2.4116 O   0  0  0  0  0  0  0  0  0  0  0  0
   39.0905   41.5334    6.1105 C   0  0  2  0  0  0  0  0  0  0  0  0
   39.5304   42.6161    5.2734 O   0  0  0  0  0  0  0  0  0  0  0  0
   26.5727   39.4383    3.6556 C   0  0  2  0  0  0  0  0  0  0  0  0
   27.5208   40.4345    4.2017 O   0  0  0  0  0  0  0  0  0  0  0  0
   30.3834   42.8547    1.7513 C   0  0  2  0  0  0  0  0  0  0  0  0
   31.1946   42.7007    2.9891 O   0  0  0  0  0  0  0  0  0  0  0  0
   31.9698   39.1372    4.0137 C   0  0  0  0  0  0  0  0  0  0  0  0
   38.9087   40.2092    5.2633 C   0  0  1  0  0  0  0  0  0  0  0  0
   37.7565   40.3134    4.3047 O   0  0  0  0  0  0  0  0  0  0  0  0
   25.2080   39.5013    4.3804 C   0  0  0  0  0  0  0  0  0  0  0  0
   25.2707   39.3109    5.8412 N   0  0  0  0  0  0  0  0  0  0  0  0
   30.3554   44.3615    1.4174 C   0  0  1  0  0  0  0  0  0  0  0  0
   31.6953   44.8418    1.2669 O   0  0  0  0  0  0  0  0  0  0  0  0
   40.2190   39.7685    4.5043 C   0  0  0  0  0  0  0  0  0  0  0  0
   41.3918   39.4053    5.3622 N   0  0  0  0  0  0  0  0  0  0  0  0
  1  2  1  6  0  0  0
  1  7  1  0  0  0  0
  1 30  1  0  0  0  0
  3  4  1  1  0  0  0
  3  9  1  0  0  0  0
  3 38  1  0  0  0  0
  5 10  1  0  0  0  0
  5 26  1  1  0  0  0
  5 32  1  0  0  0  0
  6 12  1  0  0  0  0
  6 35  1  0  0  0  0
  6 19  1  6  0  0  0
  7  8  1  6  0  0  0
  7 14  1  0  0  0  0
  8 33  1  0  0  0  0
  9 16  1  0  0  0  0
 10 11  1  6  0  0  0
 10 18  1  0  0  0  0
 12 13  1  6  0  0  0
 12 20  1  0  0  0  0
 14 15  1  1  0  0  0
 14 22  1  0  0  0  0
 16 17  1  1  0  0  0
 16 24  1  0  0  0  0
 18 19  1  6  0  0  0
 18 25  1  0  0  0  0
 20 21  1  1  0  0  0
 20 27  1  0  0  0  0
 22 23  1  6  0  0  0
 22 29  1  0  0  0  0
 24  2  1  6  0  0  0
 24 31  1  0  0  0  0
 25 26  1  6  0  0  0
 25 33  1  0  0  0  0
 27 28  1  6  0  0  0
 27 34  1  0  0  0  0
 29 30  1  0  0  0  0
 29 36  1  1  0  0  0
 31 32  1  1  0  0  0
 31 38  1  0  0  0  0
 34 35  1  0  0  0  0
 34 40  1  6  0  0  0
 36 37  1  0  0  0  0
 38 39  1  6  0  0  0
 40 41  1  0  0  0  0
M  END
>  <CHROM.1>
103.23558365,-72.01066275,62.91331017,63.37493816,32.14169425,41.10493412
3.55241271,3.05909654,-0.23970512,-0.52109436

>  <Name>
ligand

>  <RI>
0

>  <Rbt.Current_Directory>
/home/itssahil/PROJECTS/Mol_Feturizer/New_Systems/rnas/1ZZ5

>  <Rbt.Executable>
rbdock ($Id: //depot/dev/client3/rdock/2013.1/src/exe/rbdock.cxx#4 $)

>  <Rbt.Library>
libRbt.so (2013.1, Build901 2013/11/27)

>  <Rbt.Parameter_File>
/export/apps/rDock/src/rDock_2013.1_src/data/scripts/dock_solv.prm

>  <Rbt.Receptor>
prm/pocket_docking_7.prm

>  <SCORE>
-10.3347

>  <SCORE.INTER>
-12.7852

>  <SCORE.INTER.CONST>
1

>  <SCORE.INTER.POLAR>
0

>  <SCORE.INTER.ROT>
4

>  <SCORE.INTER.SOLV>
18.4362

>  <SCORE.INTER.VDW>
-20.9355

>  <SCORE.INTER.norm>
-0.311834

>  <SCORE.INTRA>
2.45048

>  <SCORE.INTRA.DIHEDRAL>
1.60884

>  <SCORE.INTRA.DIHEDRAL.0>
5.18357

>  <SCORE.INTRA.POLAR>
0

>  <SCORE.INTRA.POLAR.0>
0

>  <SCORE.INTRA.REPUL>
0

>  <SCORE.INTRA.REPUL.0>
0

>  <SCORE.INTRA.SOLV>
2.27284

>  <SCORE.INTRA.SOLV.lig_0>
-109.973

>  <SCORE.INTRA.VDW>
0.509643

>  <SCORE.INTRA.VDW.0>
-1.68646

>  <SCORE.INTRA.norm>
0.0597679

>  <SCORE.RESTR>
0

>  <SCORE.RESTR.CAVITY>
0

>  <SCORE.RESTR.norm>
0

>  <SCORE.SYSTEM>
0

>  <SCORE.SYSTEM.CONST>
0

>  <SCORE.SYSTEM.DIHEDRAL>
0

>  <SCORE.SYSTEM.SOLV>
0

>  <SCORE.SYSTEM.norm>
0

>  <SCORE.heavy>
41

>  <SCORE.norm>
-0.252066

>  <RMSD>
8.437

$$$$
ligand
 OpenBabel11021811423D
libRbt.so/2013.1/901 2013/11/27
 41 45  0  0  0  0  0  0  0  0999 V2000
   29.2082   40.5164    3.1525 C   0  0  2  0  0  0  0  0  0  0  0  0
   29.4343   40.7262    1.7449 O   0  0  0  0  0  0  0  0  0  0  0  0
   30.4998   44.1295   -0.7450 C   0  0  2  0  0  0  0  0  0  0  0  0
   30.4902   45.5041   -1.3087 N   0  0  0  0  0  0  0  0  0  0  0  0
   32.9560   42.2450    2.9006 C   0  0  1  0  0  0  0  0  0  0  0  0
   36.2932   42.1591    5.3422 C   0  0  1  0  0  0  0  0  0  0  0  0
   29.8260   39.1663    3.6249 C   0  0  2  0  0  0  0  0  0  0  0  0
   31.2469   39.0386    3.2872 N   0  0  0  0  0  0  0  0  0  0  0  0
   29.0543   43.5432   -0.8154 C   0  0  0  0  0  0  0  0  0  0  0  0
   33.3990   42.4425    4.3684 C   0  0  2  0  0  0  0  0  0  0  0  0
   34.2932   43.5510    4.5107 O   0  0  0  0  0  0  0  0  0  0  0  0
   37.8580   41.9318    5.1940 C   0  0  2  0  0  0  0  0  0  0  0  0
   38.3195   40.5729    5.6126 N   0  0  0  0  0  0  0  0  0  0  0  0
   29.0301   37.9740    3.0290 C   0  0  1  0  0  0  0  0  0  0  0  0
   29.5818   36.7417    3.4852 O   0  0  0  0  0  0  0  0  0  0  0  0
   29.0009   42.1022   -0.2299 C   0  0  2  0  0  0  0  0  0  0  0  0
   27.6113   41.6204   -0.3426 N   0  0  0  0  0  0  0  0  0  0  0  0
   34.0410   41.1013    4.7624 C   0  0  2  0  0  0  0  0  0  0  0  0
   35.5183   41.1260    4.6335 O   0  0  0  0  0  0  0  0  0  0  0  0
   38.6470   43.0467    6.0187 C   0  0  1  0  0  0  0  0  0  0  0  0
   38.4676   44.3552    5.4336 O   0  0  0  0  0  0  0  0  0  0  0  0
   27.5416   38.0871    3.4319 C   0  0  2  0  0  0  0  0  0  0  0  0
   26.8143   36.9960    2.9077 O   0  0  0  0  0  0  0  0  0  0  0  0
   29.5201   42.1039    1.2516 C   0  0  2  0  0  0  0  0  0  0  0  0
   33.4113   40.0963    3.8020 C   0  0  2  0  0  0  0  0  0  0  0  0
   33.0094   40.8380    2.6590 O   0  0  0  0  0  0  0  0  0  0  0  0
   38.1926   43.1020    7.5326 C   0  0  2  0  0  0  0  0  0  0  0  0
   38.5975   41.8908    8.1926 O   0  0  0  0  0  0  0  0  0  0  0  0
   26.9550   39.4211    2.9288 C   0  0  2  0  0  0  0  0  0  0  0  0
   27.7651   40.5258    3.4882 O   0  0  0  0  0  0  0  0  0  0  0  0
   31.0253   42.6740    1.2944 C   0  0  2  0  0  0  0  0  0  0  0  0
   31.5787   42.7387    2.6741 O   0  0  0  0  0  0  0  0  0  0  0  0
   32.1791   39.4014    4.3626 C   0  0  0  0  0  0  0  0  0  0  0  0
   36.6231   43.2862    7.6147 C   0  0  1  0  0  0  0  0  0  0  0  0
   35.8966   42.2588    6.7938 O   0  0  0  0  0  0  0  0  0  0  0  0
   25.4736   39.5337    3.3585 C   0  0  0  0  0  0  0  0  0  0  0  0
   24.8741   40.8688    3.1785 N   0  0  0  0  0  0  0  0  0  0  0  0
   31.0456   44.1124    0.7346 C   0  0  1  0  0  0  0  0  0  0  0  0
   32.3831   44.6206    0.7734 O   0  0  0  0  0  0  0  0  0  0  0  0
   36.0723   43.3008    9.0925 C   0  0  0  0  0  0  0  0  0  0  0  0
   36.4875   44.4614    9.9434 N   0  0  0  0  0  0  0  0  0  0  0  0
  1  2  1  6  0  0  0
  1  7  1  0  0  0  0
  1 30  1  0  0  0  0
  3  4  1  1  0  0  0
  3  9  1  0  0  0  0
  3 38  1  0  0  0  0
  5 10  1  0  0  0  0
  5 26  1  1  0  0  0
  5 32  1  0  0  0  0
  6 12  1  0  0  0  0
  6 35  1  0  0  0  0
  6 19  1  1  0  0  0
  7  8  1  6  0  0  0
  7 14  1  0  0  0  0
  8 33  1  0  0  0  0
  9 16  1  0  0  0  0
 10 11  1  6  0  0  0
 10 18  1  0  0  0  0
 12 13  1  1  0  0  0
 12 20  1  0  0  0  0
 14 15  1  1  0  0  0
 14 22  1  0  0  0  0
 16 17  1  1  0  0  0
 16 24  1  0  0  0  0
 18 19  1  6  0  0  0
 18 25  1  0  0  0  0
 20 21  1  6  0  0  0
 20 27  1  0  0  0  0
 22 23  1  6  0  0  0
 22 29  1  0  0  0  0
 24  2  1  6  0  0  0
 24 31  1  0  0  0  0
 25 26  1  6  0  0  0
 25 33  1  0  0  0  0
 27 28  1  1  0  0  0
 27 34  1  0  0  0  0
 29 30  1  0  0  0  0
 29 36  1  1  0  0  0
 31 32  1  1  0  0  0
 31 38  1  0  0  0  0
 34 35  1  0  0  0  0
 34 40  1  1  0  0  0
 36 37  1  0  0  0  0
 38 39  1  6  0  0  0
 40 41  1  0  0  0  0
M  END
>  <CHROM.1>
55.49325738,174.40346227,168.27279610,66.33267248,32.21862135,41.55063392
3.66834748,2.97454194,-0.50763949,-0.77462992

>  <Name>
ligand

>  <RI>
0

>  <Rbt.Current_Directory>
/home/itssahil/PROJECTS/Mol_Feturizer/New_Systems/rnas/1ZZ5

>  <Rbt.Executable>
rbdock ($Id: //depot/dev/client3/rdock/2013.1/src/exe/rbdock.cxx#4 $)

>  <Rbt.Library>
libRbt.so (2013.1, Build901 2013/11/27)

>  <Rbt.Parameter_File>
/export/apps/rDock/src/rDock_2013.1_src/data/scripts/dock_solv.prm

>  <Rbt.Receptor>
prm/pocket_docking_7.prm

>  <SCORE>
-13.9013

>  <SCORE.INTER>
-13.1514

>  <SCORE.INTER.CONST>
1

>  <SCORE.INTER.POLAR>
0

>  <SCORE.INTER.ROT>
4

>  <SCORE.INTER.SOLV>
12.1271

>  <SCORE.INTER.VDW>
-19.0766

>  <SCORE.INTER.norm>
-0.320766

>  <SCORE.INTRA>
-0.775764

>  <SCORE.INTRA.DIHEDRAL>
-4.09207

>  <SCORE.INTRA.DIHEDRAL.0>
5.18357

>  <SCORE.INTRA.POLAR>
0

>  <SCORE.INTRA.POLAR.0>
0

>  <SCORE.INTRA.REPUL>
0

>  <SCORE.INTRA.REPUL.0>
0

>  <SCORE.INTRA.SOLV>
-0.6422

>  <SCORE.INTRA.SOLV.lig_0>
-109.973

>  <SCORE.INTRA.VDW>
1.59137

>  <SCORE.INTRA.VDW.0>
-1.68646

>  <SCORE.INTRA.norm>
-0.0189211

>  <SCORE.RESTR>
0.0258865

>  <SCORE.RESTR.CAVITY>
0.0258865

>  <SCORE.RESTR.norm>
0.000631377

>  <SCORE.SYSTEM>
0

>  <SCORE.SYSTEM.CONST>
0

>  <SCORE.SYSTEM.DIHEDRAL>
0

>  <SCORE.SYSTEM.SOLV>
0

>  <SCORE.SYSTEM.norm>
0

>  <SCORE.heavy>
41

>  <SCORE.norm>
-0.339056

>  <RMSD>
8.481

$$$$
ligand
 OpenBabel11021811423D
libRbt.so/2013.1/901 2013/11/27
 41 45  0  0  0  0  0  0  0  0999 V2000
   39.8860   36.8370   12.0875 C   0  0  2  0  0  0  0  0  0  0  0  0
   39.5465   38.0339   11.3604 O   0  0  0  0  0  0  0  0  0  0  0  0
   41.7402   40.9279    8.9666 C   0  0  2  0  0  0  0  0  0  0  0  0
   42.8022   41.8833    8.5586 N   0  0  0  0  0  0  0  0  0  0  0  0
   41.3071   36.2184    8.2540 C   0  0  1  0  0  0  0  0  0  0  0  0
   40.2378   34.2476    5.6527 C   0  0  1  0  0  0  0  0  0  0  0  0
   38.7984   35.7375   11.8975 C   0  0  2  0  0  0  0  0  0  0  0  0
   38.5208   35.4456   10.4880 N   0  0  0  0  0  0  0  0  0  0  0  0
   41.2036   41.3380   10.3744 C   0  0  0  0  0  0  0  0  0  0  0  0
   42.0312   34.8540    8.3170 C   0  0  2  0  0  0  0  0  0  0  0  0
   43.0912   34.7685    7.3589 O   0  0  0  0  0  0  0  0  0  0  0  0
   40.2034   33.5656    4.2189 C   0  0  2  0  0  0  0  0  0  0  0  0
   41.5381   33.1000    3.7325 N   0  0  0  0  0  0  0  0  0  0  0  0
   37.4881   36.1477   12.6223 C   0  0  1  0  0  0  0  0  0  0  0  0
   36.5051   35.1273   12.4688 O   0  0  0  0  0  0  0  0  0  0  0  0
   40.0897   40.3651   10.8590 C   0  0  2  0  0  0  0  0  0  0  0  0
   39.6327   40.8258   12.1837 N   0  0  0  0  0  0  0  0  0  0  0  0
   40.9219   33.8160    8.0762 C   0  0  2  0  0  0  0  0  0  0  0  0
   40.8625   33.3746    6.6616 O   0  0  0  0  0  0  0  0  0  0  0  0
   39.5634   34.5702    3.1573 C   0  0  1  0  0  0  0  0  0  0  0  0
   38.1620   34.7937    3.4274 O   0  0  0  0  0  0  0  0  0  0  0  0
   37.7783   36.4042   14.1192 C   0  0  2  0  0  0  0  0  0  0  0  0
   36.5872   36.7610   14.7886 O   0  0  0  0  0  0  0  0  0  0  0  0
   40.6357   38.8936   10.8879 C   0  0  2  0  0  0  0  0  0  0  0  0
   39.6444   34.5403    8.4914 C   0  0  2  0  0  0  0  0  0  0  0  0
   39.9116   35.9283    8.3499 O   0  0  0  0  0  0  0  0  0  0  0  0
   40.3045   35.9673    3.1362 C   0  0  2  0  0  0  0  0  0  0  0  0
   41.6356   35.7890    2.6234 O   0  0  0  0  0  0  0  0  0  0  0  0
   38.8388   37.5127   14.2723 C   0  0  2  0  0  0  0  0  0  0  0  0
   40.0538   37.0988   13.5361 O   0  0  0  0  0  0  0  0  0  0  0  0
   41.1456   38.4791    9.4179 C   0  0  2  0  0  0  0  0  0  0  0  0
   41.7110   37.1036    9.3700 O   0  0  0  0  0  0  0  0  0  0  0  0
   39.2394   34.2895    9.9366 C   0  0  0  0  0  0  0  0  0  0  0  0
   40.3442   36.5750    4.5968 C   0  0  1  0  0  0  0  0  0  0  0  0
   40.9040   35.5992    5.5926 O   0  0  0  0  0  0  0  0  0  0  0  0
   39.1384   37.7433   15.7719 C   0  0  0  0  0  0  0  0  0  0  0  0
   37.9628   38.0795   16.5961 N   0  0  0  0  0  0  0  0  0  0  0  0
   42.2675   39.4415    8.9732 C   0  0  1  0  0  0  0  0  0  0  0  0
   42.7223   39.0730    7.6671 O   0  0  0  0  0  0  0  0  0  0  0  0
   41.1126   37.9498    4.6806 C   0  0  0  0  0  0  0  0  0  0  0  0
   40.4851   39.1049    3.9627 N   0  0  0  0  0  0  0  0  0  0  0  0
  1  2  1  6  0  0  0
  1  7  1  0  0  0  0
  1 30  1  0  0  0  0
  3  4  1  1  0  0  0
  3  9  1  0  0  0  0
  3 38  1  0  0  0  0
  5 10  1  0  0  0  0
  5 26  1  1  0  0  0
  5 32  1  0  0  0  0
  6 12  1  0  0  0  0
  6 35  1  0  0  0  0
  6 19  1  1  0  0  0
  7  8  1  6  0  0  0
  7 14  1  0  0  0  0
  8 33  1  0  0  0  0
  9 16  1  0  0  0  0
 10 11  1  6  0  0  0
 10 18  1  0  0  0  0
 12 13  1  6  0  0  0
 12 20  1  0  0  0  0
 14 15  1  1  0  0  0
 14 22  1  0  0  0  0
 16 17  1  1  0  0  0
 16 24  1  0  0  0  0
 18 19  1  6  0  0  0
 18 25  1  0  0  0  0
 20 21  1  1  0  0  0
 20 27  1  0  0  0  0
 22 23  1  1  0  0  0
 22 29  1  0  0  0  0
 24  2  1  6  0  0  0
 24 31  1  0  0  0  0
 25 26  1  1  0  0  0
 25 33  1  0  0  0  0
 27 28  1  1  0  0  0
 27 34  1  0  0  0  0
 29 30  1  0  0  0  0
 29 36  1  1  0  0  0
 31 32  1  1  0  0  0
 31 38  1  0  0  0  0
 34 35  1  0  0  0  0
 34 40  1  6  0  0  0
 36 37  1  0  0  0  0
 38 39  1  6  0  0  0
 40 41  1  0  0  0  0
M  END
>  <CHROM.1>
-77.50854998,-176.92837078,-56.52846147,66.21571389,40.15877962,36.76729525
8.95237194,2.01407936,1.06522893,0.92529833

>  <Name>
ligand

>  <RI>
0

>  <Rbt.Current_Directory>
/home/itssahil/PROJECTS/Mol_Feturizer/New_Systems/rnas/1ZZ5

>  <Rbt.Executable>
rbdock ($Id: //depot/dev/client3/rdock/2013.1/src/exe/rbdock.cxx#4 $)

>  <Rbt.Library>
libRbt.so (2013.1, Build901 2013/11/27)

>  <Rbt.Parameter_File>
/export/apps/rDock/src/rDock_2013.1_src/data/scripts/dock_solv.prm

>  <Rbt.Receptor>
prm/pocket_docking_8.prm

>  <SCORE>
-7.04916

>  <SCORE.INTER>
-6.07828

>  <SCORE.INTER.CONST>
1

>  <SCORE.INTER.POLAR>
0

>  <SCORE.INTER.ROT>
4

>  <SCORE.INTER.SOLV>
11.3447

>  <SCORE.INTER.VDW>
-14.1004

>  <SCORE.INTER.norm>
-0.148251

>  <SCORE.INTRA>
-0.970884

>  <SCORE.INTRA.DIHEDRAL>
-3.34762

>  <SCORE.INTRA.DIHEDRAL.0>
5.18357

>  <SCORE.INTRA.POLAR>
0

>  <SCORE.INTRA.POLAR.0>
0

>  <SCORE.INTRA.REPUL>
0

>  <SCORE.INTRA.REPUL.0>
0

>  <SCORE.INTRA.SOLV>
1.20844

>  <SCORE.INTRA.SOLV.lig_0>
-109.973

>  <SCORE.INTRA.VDW>
0.0987087

>  <SCORE.INTRA.VDW.0>
-1.68646

>  <SCORE.INTRA.norm>
-0.0236801

>  <SCORE.RESTR>
0

>  <SCORE.RESTR.CAVITY>
0

>  <SCORE.RESTR.norm>
0

>  <SCORE.SYSTEM>
0

>  <SCORE.SYSTEM.CONST>
0

>  <SCORE.SYSTEM.DIHEDRAL>
0

>  <SCORE.SYSTEM.SOLV>
0

>  <SCORE.SYSTEM.norm>
0

>  <SCORE.heavy>
41

>  <SCORE.norm>
-0.171931

>  <RMSD>
8.539

$$$$
ligand
 OpenBabel11021811423D
libRbt.so/2013.1/901 2013/11/27
 41 45  0  0  0  0  0  0  0  0999 V2000
   29.0980   40.7819    3.6363 C   0  0  2  0  0  0  0  0  0  0  0  0
   29.1112   41.1896    2.2542 O   0  0  0  0  0  0  0  0  0  0  0  0
   29.6006   44.9616    0.1448 C   0  0  2  0  0  0  0  0  0  0  0  0
   29.4254   46.3921   -0.2161 N   0  0  0  0  0  0  0  0  0  0  0  0
   32.6568   42.8283    3.1420 C   0  0  1  0  0  0  0  0  0  0  0  0
   36.3418   42.5648    5.2083 C   0  0  1  0  0  0  0  0  0  0  0  0
   29.8599   39.4369    3.8319 C   0  0  2  0  0  0  0  0  0  0  0  0
   31.2248   39.4703    3.2978 N   0  0  0  0  0  0  0  0  0  0  0  0
   28.1995   44.2735    0.1821 C   0  0  0  0  0  0  0  0  0  0  0  0
   33.2874   42.8698    4.5528 C   0  0  2  0  0  0  0  0  0  0  0  0
   34.1209   44.0198    4.7304 O   0  0  0  0  0  0  0  0  0  0  0  0
   37.8893   42.3537    4.9202 C   0  0  2  0  0  0  0  0  0  0  0  0
   38.3411   40.9325    5.0249 N   0  0  0  0  0  0  0  0  0  0  0  0
   29.0654   38.2708    3.1845 C   0  0  1  0  0  0  0  0  0  0  0  0
   29.7523   37.0390    3.3892 O   0  0  0  0  0  0  0  0  0  0  0  0
   28.3197   42.7694    0.5634 C   0  0  2  0  0  0  0  0  0  0  0  0
   26.9613   42.1944    0.5665 N   0  0  0  0  0  0  0  0  0  0  0  0
   34.0617   41.5458    4.6695 C   0  0  2  0  0  0  0  0  0  0  0  0
   35.5019   41.7073    4.3543 O   0  0  0  0  0  0  0  0  0  0  0  0
   38.7521   43.2673    5.9032 C   0  0  1  0  0  0  0  0  0  0  0  0
   38.5709   44.6698    5.6079 O   0  0  0  0  0  0  0  0  0  0  0  0
   27.6437   38.2091    3.7894 C   0  0  2  0  0  0  0  0  0  0  0  0
   26.9207   37.1393    3.2176 O   0  0  0  0  0  0  0  0  0  0  0  0
   29.0399   42.6219    1.9505 C   0  0  2  0  0  0  0  0  0  0  0  0
   33.3687   40.6254    3.6687 C   0  0  2  0  0  0  0  0  0  0  0  0
   32.7647   41.4734    2.7022 O   0  0  0  0  0  0  0  0  0  0  0  0
   38.3883   43.0182    7.4221 C   0  0  2  0  0  0  0  0  0  0  0  0
   38.8013   41.6931    7.7962 O   0  0  0  0  0  0  0  0  0  0  0  0
   26.9094   39.5447    3.5574 C   0  0  2  0  0  0  0  0  0  0  0  0
   27.7183   40.6301    4.1549 O   0  0  0  0  0  0  0  0  0  0  0  0
   30.4972   43.3024    1.8760 C   0  0  2  0  0  0  0  0  0  0  0  0
   31.2329   43.2332    3.1675 O   0  0  0  0  0  0  0  0  0  0  0  0
   32.2734   39.7658    4.2827 C   0  0  0  0  0  0  0  0  0  0  0  0
   36.8311   43.2007    7.6371 C   0  0  1  0  0  0  0  0  0  0  0  0
   36.0331   42.3712    6.6716 O   0  0  0  0  0  0  0  0  0  0  0  0
   25.4986   39.4797    4.1876 C   0  0  0  0  0  0  0  0  0  0  0  0
   25.4790   39.3782    5.6585 N   0  0  0  0  0  0  0  0  0  0  0  0
   30.3480   44.7979    1.5239 C   0  0  1  0  0  0  0  0  0  0  0  0
   31.6430   45.4042    1.4588 O   0  0  0  0  0  0  0  0  0  0  0  0
   36.3681   42.9202    9.1185 C   0  0  0  0  0  0  0  0  0  0  0  0
   34.9224   43.1702    9.4198 N   0  0  0  0  0  0  0  0  0  0  0  0
  1  2  1  6  0  0  0
  1  7  1  0  0  0  0
  1 30  1  0  0  0  0
  3  4  1  1  0  0  0
  3  9  1  0  0  0  0
  3 38  1  0  0  0  0
  5 10  1  0  0  0  0
  5 26  1  1  0  0  0
  5 32  1  0  0  0  0
  6 12  1  0  0  0  0
  6 35  1  0  0  0  0
  6 19  1  6  0  0  0
  7  8  1  6  0  0  0
  7 14  1  0  0  0  0
  8 33  1  0  0  0  0
  9 16  1  0  0  0  0
 10 11  1  6  0  0  0
 10 18  1  0  0  0  0
 12 13  1  1  0  0  0
 12 20  1  0  0  0  0
 14 15  1  1  0  0  0
 14 22  1  0  0  0  0
 16 17  1  1  0  0  0
 16 24  1  0  0  0  0
 18 19  1  6  0  0  0
 18 25  1  0  0  0  0
 20 21  1  6  0  0  0
 20 27  1  0  0  0  0
 22 23  1  6  0  0  0
 22 29  1  0  0  0  0
 24  2  1  6  0  0  0
 24 31  1  0  0  0  0
 25 26  1  6  0  0  0
 25 33  1  0  0  0  0
 27 28  1  6  0  0  0
 27 34  1  0  0  0  0
 29 30  1  0  0  0  0
 29 36  1  1  0  0  0
 31 32  1  1  0  0  0
 31 38  1  0  0  0  0
 34 35  1  0  0  0  0
 34 40  1  1  0  0  0
 36 37  1  0  0  0  0
 38 39  1  6  0  0  0
 40 41  1  0  0  0  0
M  END
>  <CHROM.1>
63.64788798,166.98368100,66.14015842,175.69970086,32.04106424,41.83321529
3.97015046,3.07999027,-0.43420553,-0.62258213

>  <Name>
ligand

>  <RI>
0

>  <Rbt.Current_Directory>
/home/itssahil/PROJECTS/Mol_Feturizer/New_Systems/rnas/1ZZ5

>  <Rbt.Executable>
rbdock ($Id: //depot/dev/client3/rdock/2013.1/src/exe/rbdock.cxx#4 $)

>  <Rbt.Library>
libRbt.so (2013.1, Build901 2013/11/27)

>  <Rbt.Parameter_File>
/export/apps/rDock/src/rDock_2013.1_src/data/scripts/dock_solv.prm

>  <Rbt.Receptor>
prm/pocket_docking_7.prm

>  <SCORE>
-13.6507

>  <SCORE.INTER>
-12.5681

>  <SCORE.INTER.CONST>
1

>  <SCORE.INTER.POLAR>
0

>  <SCORE.INTER.ROT>
4

>  <SCORE.INTER.SOLV>
19.0205

>  <SCORE.INTER.VDW>
-20.9856

>  <SCORE.INTER.norm>
-0.30654

>  <SCORE.INTRA>
-1.08254

>  <SCORE.INTRA.DIHEDRAL>
-3.89144

>  <SCORE.INTRA.DIHEDRAL.0>
5.18357

>  <SCORE.INTRA.POLAR>
0

>  <SCORE.INTRA.POLAR.0>
0

>  <SCORE.INTRA.REPUL>
0

>  <SCORE.INTRA.REPUL.0>
0

>  <SCORE.INTRA.SOLV>
0.136574

>  <SCORE.INTRA.SOLV.lig_0>
-109.973

>  <SCORE.INTRA.VDW>
0.794897

>  <SCORE.INTRA.VDW.0>
-1.68646

>  <SCORE.INTRA.norm>
-0.0264034

>  <SCORE.RESTR>
0

>  <SCORE.RESTR.CAVITY>
0

>  <SCORE.RESTR.norm>
0

>  <SCORE.SYSTEM>
0

>  <SCORE.SYSTEM.CONST>
0

>  <SCORE.SYSTEM.DIHEDRAL>
0

>  <SCORE.SYSTEM.SOLV>
0

>  <SCORE.SYSTEM.norm>
0

>  <SCORE.heavy>
41

>  <SCORE.norm>
-0.332943

>  <RMSD>
8.550

$$$$
ligand
 OpenBabel11021811423D
libRbt.so/2013.1/901 2013/11/27
 41 45  0  0  0  0  0  0  0  0999 V2000
   39.6387   41.4836    8.0666 C   0  0  2  0  0  0  0  0  0  0  0  0
   39.0762   40.2562    8.5700 O   0  0  0  0  0  0  0  0  0  0  0  0
   35.6994   39.2095   11.1037 C   0  0  2  0  0  0  0  0  0  0  0  0
   34.7535   39.2332   12.2491 N   0  0  0  0  0  0  0  0  0  0  0  0
   35.6596   41.5729    6.9458 C   0  0  1  0  0  0  0  0  0  0  0  0
   34.1404   41.1209    3.8447 C   0  0  1  0  0  0  0  0  0  0  0  0
   40.0877   41.3281    6.5827 C   0  0  2  0  0  0  0  0  0  0  0  0
   39.0180   40.8335    5.7107 N   0  0  0  0  0  0  0  0  0  0  0  0
   37.1535   39.0532   11.6508 C   0  0  0  0  0  0  0  0  0  0  0  0
   35.4702   42.9512    6.2719 C   0  0  2  0  0  0  0  0  0  0  0  0
   34.1283   43.4304    6.4066 O   0  0  0  0  0  0  0  0  0  0  0  0
   32.8636   41.0737    2.9015 C   0  0  2  0  0  0  0  0  0  0  0  0
   31.7970   42.0546    3.2689 N   0  0  0  0  0  0  0  0  0  0  0  0
   41.3225   40.3915    6.4908 C   0  0  1  0  0  0  0  0  0  0  0  0
   41.7462   40.2736    5.1353 O   0  0  0  0  0  0  0  0  0  0  0  0
   38.1926   39.0296   10.4924 C   0  0  2  0  0  0  0  0  0  0  0  0
   39.5317   38.8702   11.0903 N   0  0  0  0  0  0  0  0  0  0  0  0
   35.8807   42.7251    4.8068 C   0  0  2  0  0  0  0  0  0  0  0  0
   34.7124   42.4759    3.9279 O   0  0  0  0  0  0  0  0  0  0  0  0
   32.2567   39.5982    2.8861 C   0  0  1  0  0  0  0  0  0  0  0  0
   33.1543   38.6700    2.2384 O   0  0  0  0  0  0  0  0  0  0  0  0
   42.4649   40.9465    7.3727 C   0  0  2  0  0  0  0  0  0  0  0  0
   43.5979   40.1087    7.2803 O   0  0  0  0  0  0  0  0  0  0  0  0
   38.0685   40.3364    9.6315 C   0  0  2  0  0  0  0  0  0  0  0  0
   36.8054   41.5125    4.8672 C   0  0  2  0  0  0  0  0  0  0  0  0
   36.4432   40.7955    6.0390 O   0  0  0  0  0  0  0  0  0  0  0  0
   31.9429   39.0671    4.3425 C   0  0  2  0  0  0  0  0  0  0  0  0
   30.8647   39.8346    4.9037 O   0  0  0  0  0  0  0  0  0  0  0  0
   41.9963   41.0648    8.8367 C   0  0  2  0  0  0  0  0  0  0  0  0
   40.7981   41.9322    8.8728 O   0  0  0  0  0  0  0  0  0  0  0  0
   36.5737   40.4554    9.0451 C   0  0  2  0  0  0  0  0  0  0  0  0
   36.3656   41.6905    8.2419 O   0  0  0  0  0  0  0  0  0  0  0  0
   38.2800   41.8708    4.9782 C   0  0  0  0  0  0  0  0  0  0  0  0
   33.2384   39.1792    5.2444 C   0  0  1  0  0  0  0  0  0  0  0  0
   33.8253   40.5617    5.2093 O   0  0  0  0  0  0  0  0  0  0  0  0
   43.1385   41.6434    9.7040 C   0  0  0  0  0  0  0  0  0  0  0  0
   43.5671   43.0061    9.3386 N   0  0  0  0  0  0  0  0  0  0  0  0
   35.5662   40.5047   10.2136 C   0  0  1  0  0  0  0  0  0  0  0  0
   34.2371   40.6118    9.6933 O   0  0  0  0  0  0  0  0  0  0  0  0
   33.0040   38.7176    6.7342 C   0  0  0  0  0  0  0  0  0  0  0  0
   34.2212   38.6395    7.6034 N   0  0  0  0  0  0  0  0  0  0  0  0
  1  2  1  1  0  0  0
  1  7  1  0  0  0  0
  1 30  1  0  0  0  0
  3  4  1  1  0  0  0
  3  9  1  0  0  0  0
  3 38  1  0  0  0  0
  5 10  1  0  0  0  0
  5 26  1  6  0  0  0
  5 32  1  0  0  0  0
  6 12  1  0  0  0  0
  6 35  1  0  0  0  0
  6 19  1  1  0  0  0
  7  8  1  6  0  0  0
  7 14  1  0  0  0  0
  8 33  1  0  0  0  0
  9 16  1  0  0  0  0
 10 11  1  6  0  0  0
 10 18  1  0  0  0  0
 12 13  1  1  0  0  0
 12 20  1  0  0  0  0
 14 15  1  6  0  0  0
 14 22  1  0  0  0  0
 16 17  1  1  0  0  0
 16 24  1  0  0  0  0
 18 19  1  6  0  0  0
 18 25  1  0  0  0  0
 20 21  1  1  0  0  0
 20 27  1  0  0  0  0
 22 23  1  1  0  0  0
 22 29  1  0  0  0  0
 24  2  1  6  0  0  0
 24 31  1  0  0  0  0
 25 26  1  1  0  0  0
 25 33  1  0  0  0  0
 27 28  1  1  0  0  0
 27 34  1  0  0  0  0
 29 30  1  0  0  0  0
 29 36  1  1  0  0  0
 31 32  1  1  0  0  0
 31 38  1  0  0  0  0
 34 35  1  0  0  0  0
 34 40  1  1  0  0  0
 36 37  1  0  0  0  0
 38 39  1  6  0  0  0
 40 41  1  0  0  0  0
M  END
>  <CHROM.1>
-82.73660947,177.61597281,62.46385849,172.90265616,36.85330794,40.69307829
7.02299985,-0.43680471,-0.16738001,-1.33348892

>  <Name>
ligand

>  <RI>
0

>  <Rbt.Current_Directory>
/home/itssahil/PROJECTS/Mol_Feturizer/New_Systems/rnas/1ZZ5

>  <Rbt.Executable>
rbdock ($Id: //depot/dev/client3/rdock/2013.1/src/exe/rbdock.cxx#4 $)

>  <Rbt.Library>
libRbt.so (2013.1, Build901 2013/11/27)

>  <Rbt.Parameter_File>
/export/apps/rDock/src/rDock_2013.1_src/data/scripts/dock_solv.prm

>  <Rbt.Receptor>
prm/pocket_docking_5.prm

>  <SCORE>
-9.27978

>  <SCORE.INTER>
-10.2984

>  <SCORE.INTER.CONST>
1

>  <SCORE.INTER.POLAR>
0

>  <SCORE.INTER.ROT>
4

>  <SCORE.INTER.SOLV>
13.6217

>  <SCORE.INTER.VDW>
-17.6728

>  <SCORE.INTER.norm>
-0.251179

>  <SCORE.INTRA>
1.01858

>  <SCORE.INTRA.DIHEDRAL>
-2.47763

>  <SCORE.INTRA.DIHEDRAL.0>
5.18357

>  <SCORE.INTRA.POLAR>
0

>  <SCORE.INTRA.POLAR.0>
0

>  <SCORE.INTRA.REPUL>
0

>  <SCORE.INTRA.REPUL.0>
0

>  <SCORE.INTRA.SOLV>
5.81883

>  <SCORE.INTRA.SOLV.lig_0>
-109.973

>  <SCORE.INTRA.VDW>
-0.652021

>  <SCORE.INTRA.VDW.0>
-1.68646

>  <SCORE.INTRA.norm>
0.0248434

>  <SCORE.RESTR>
0

>  <SCORE.RESTR.CAVITY>
0

>  <SCORE.RESTR.norm>
0

>  <SCORE.SYSTEM>
0

>  <SCORE.SYSTEM.CONST>
0

>  <SCORE.SYSTEM.DIHEDRAL>
0

>  <SCORE.SYSTEM.SOLV>
0

>  <SCORE.SYSTEM.norm>
0

>  <SCORE.heavy>
41

>  <SCORE.norm>
-0.226336

>  <RMSD>
8.561

$$$$
ligand
 OpenBabel11021811423D
libRbt.so/2013.1/901 2013/11/27
 41 45  0  0  0  0  0  0  0  0999 V2000
   28.9831   40.5607    3.4690 C   0  0  2  0  0  0  0  0  0  0  0  0
   29.0583   40.8869    2.0674 O   0  0  0  0  0  0  0  0  0  0  0  0
   29.7971   44.5036   -0.2329 C   0  0  2  0  0  0  0  0  0  0  0  0
   29.7038   45.9177   -0.6790 N   0  0  0  0  0  0  0  0  0  0  0  0
   32.6520   42.4036    2.9787 C   0  0  1  0  0  0  0  0  0  0  0  0
   36.2360   42.1708    5.0992 C   0  0  1  0  0  0  0  0  0  0  0  0
   29.6715   39.1945    3.7648 C   0  0  2  0  0  0  0  0  0  0  0  0
   31.0519   39.1321    3.2752 N   0  0  0  0  0  0  0  0  0  0  0  0
   28.3633   43.8862   -0.2034 C   0  0  0  0  0  0  0  0  0  0  0  0
   33.2408   42.4963    4.4051 C   0  0  2  0  0  0  0  0  0  0  0  0
   34.1243   43.6137    4.5453 O   0  0  0  0  0  0  0  0  0  0  0  0
   37.7842   41.8570    4.9359 C   0  0  2  0  0  0  0  0  0  0  0  0
   38.1632   40.4547    5.2893 N   0  0  0  0  0  0  0  0  0  0  0  0
   28.8403   38.0321    3.1579 C   0  0  1  0  0  0  0  0  0  0  0  0
   29.4591   36.7829    3.4540 O   0  0  0  0  0  0  0  0  0  0  0  0
   28.3974   42.4025    0.2654 C   0  0  2  0  0  0  0  0  0  0  0  0
   27.0128   41.8940    0.2558 N   0  0  0  0  0  0  0  0  0  0  0  0
   33.9449   41.1460    4.6213 C   0  0  2  0  0  0  0  0  0  0  0  0
   35.4002   41.2203    4.3454 O   0  0  0  0  0  0  0  0  0  0  0  0
   38.6390   42.8827    5.8094 C   0  0  1  0  0  0  0  0  0  0  0  0
   38.5386   44.2255    5.2864 O   0  0  0  0  0  0  0  0  0  0  0  0
   27.3997   38.0731    3.7180 C   0  0  2  0  0  0  0  0  0  0  0  0
   26.6424   37.0077    3.1835 O   0  0  0  0  0  0  0  0  0  0  0  0
   29.0671   42.3011    1.6816 C   0  0  2  0  0  0  0  0  0  0  0  0
   33.2380   40.2034    3.6514 C   0  0  2  0  0  0  0  0  0  0  0  0
   32.7062   41.0220    2.6194 O   0  0  0  0  0  0  0  0  0  0  0  0
   38.1890   42.8944    7.3256 C   0  0  2  0  0  0  0  0  0  0  0  0
   38.5204   41.6315    7.9271 O   0  0  0  0  0  0  0  0  0  0  0  0
   26.7395   39.4265    3.3873 C   0  0  2  0  0  0  0  0  0  0  0  0
   27.5826   40.5048    3.9494 O   0  0  0  0  0  0  0  0  0  0  0  0
   30.5578   42.9062    1.6174 C   0  0  2  0  0  0  0  0  0  0  0  0
   31.2497   42.8766    2.9343 O   0  0  0  0  0  0  0  0  0  0  0  0
   32.0835   39.4336    4.2761 C   0  0  0  0  0  0  0  0  0  0  0  0
   36.6334   43.1686    7.4208 C   0  0  1  0  0  0  0  0  0  0  0  0
   35.8463   42.2262    6.5550 O   0  0  0  0  0  0  0  0  0  0  0  0
   25.3088   39.4651    3.9731 C   0  0  0  0  0  0  0  0  0  0  0  0
   24.3478   38.5523    3.3268 N   0  0  0  0  0  0  0  0  0  0  0  0
   30.4934   44.3843    1.1772 C   0  0  1  0  0  0  0  0  0  0  0  0
   31.8181   44.9235    1.1211 O   0  0  0  0  0  0  0  0  0  0  0  0
   36.0847   43.1471    8.8993 C   0  0  0  0  0  0  0  0  0  0  0  0
   36.2213   41.8516    9.6384 N   0  0  0  0  0  0  0  0  0  0  0  0
  1  2  1  6  0  0  0
  1  7  1  0  0  0  0
  1 30  1  0  0  0  0
  3  4  1  1  0  0  0
  3  9  1  0  0  0  0
  3 38  1  0  0  0  0
  5 10  1  0  0  0  0
  5 26  1  1  0  0  0
  5 32  1  0  0  0  0
  6 12  1  0  0  0  0
  6 35  1  0  0  0  0
  6 19  1  6  0  0  0
  7  8  1  6  0  0  0
  7 14  1  0  0  0  0
  8 33  1  0  0  0  0
  9 16  1  0  0  0  0
 10 11  1  6  0  0  0
 10 18  1  0  0  0  0
 12 13  1  1  0  0  0
 12 20  1  0  0  0  0
 14 15  1  1  0  0  0
 14 22  1  0  0  0  0
 16 17  1  1  0  0  0
 16 24  1  0  0  0  0
 18 19  1  6  0  0  0
 18 25  1  0  0  0  0
 20 21  1  6  0  0  0
 20 27  1  0  0  0  0
 22 23  1  6  0  0  0
 22 29  1  0  0  0  0
 24  2  1  6  0  0  0
 24 31  1  0  0  0  0
 25 26  1  6  0  0  0
 25 33  1  0  0  0  0
 27 28  1  6  0  0  0
 27 34  1  0  0  0  0
 29 30  1  0  0  0  0
 29 36  1  1  0  0  0
 31 32  1  1  0  0  0
 31 38  1  0  0  0  0
 34 35  1  0  0  0  0
 34 40  1  1  0  0  0
 36 37  1  0  0  0  0
 38 39  1  6  0  0  0
 40 41  1  0  0  0  0
M  END
>  <CHROM.1>
58.37728947,165.65061645,-68.54984135,-62.11514664,31.96601686,41.49596211
3.77857960,3.04587846,-0.44770326,-0.67190781

>  <Name>
ligand

>  <RI>
0

>  <Rbt.Current_Directory>
/home/itssahil/PROJECTS/Mol_Feturizer/New_Systems/rnas/1ZZ5

>  <Rbt.Executable>
rbdock ($Id: //depot/dev/client3/rdock/2013.1/src/exe/rbdock.cxx#4 $)

>  <Rbt.Library>
libRbt.so (2013.1, Build901 2013/11/27)

>  <Rbt.Parameter_File>
/export/apps/rDock/src/rDock_2013.1_src/data/scripts/dock_solv.prm

>  <Rbt.Receptor>
prm/pocket_docking_8.prm

>  <SCORE>
-13.9543

>  <SCORE.INTER>
-14.1998

>  <SCORE.INTER.CONST>
1

>  <SCORE.INTER.POLAR>
0

>  <SCORE.INTER.ROT>
4

>  <SCORE.INTER.SOLV>
11.9594

>  <SCORE.INTER.VDW>
-19.7197

>  <SCORE.INTER.norm>
-0.346337

>  <SCORE.INTRA>
0.245568

>  <SCORE.INTRA.DIHEDRAL>
-3.71006

>  <SCORE.INTRA.DIHEDRAL.0>
5.18357

>  <SCORE.INTRA.POLAR>
0

>  <SCORE.INTRA.POLAR.0>
0

>  <SCORE.INTRA.REPUL>
0

>  <SCORE.INTRA.REPUL.0>
0

>  <SCORE.INTRA.SOLV>
1.77766

>  <SCORE.INTRA.SOLV.lig_0>
-109.973

>  <SCORE.INTRA.VDW>
1.21177

>  <SCORE.INTRA.VDW.0>
-1.68646

>  <SCORE.INTRA.norm>
0.00598947

>  <SCORE.RESTR>
0

>  <SCORE.RESTR.CAVITY>
0

>  <SCORE.RESTR.norm>
0

>  <SCORE.SYSTEM>
0

>  <SCORE.SYSTEM.CONST>
0

>  <SCORE.SYSTEM.DIHEDRAL>
0

>  <SCORE.SYSTEM.SOLV>
0

>  <SCORE.SYSTEM.norm>
0

>  <SCORE.heavy>
41

>  <SCORE.norm>
-0.340348

>  <RMSD>
8.568

$$$$
ligand
 OpenBabel11021811423D
libRbt.so/2013.1/901 2013/11/27
 41 45  0  0  0  0  0  0  0  0999 V2000
   28.9091   40.3957    3.4841 C   0  0  2  0  0  0  0  0  0  0  0  0
   28.9737   40.7306    2.0840 O   0  0  0  0  0  0  0  0  0  0  0  0
   29.8317   44.3311   -0.2003 C   0  0  2  0  0  0  0  0  0  0  0  0
   29.7935   45.7518   -0.6333 N   0  0  0  0  0  0  0  0  0  0  0  0
   32.6471   42.0781    2.9417 C   0  0  1  0  0  0  0  0  0  0  0  0
   36.1625   39.5435    4.4674 C   0  0  1  0  0  0  0  0  0  0  0  0
   29.5410   38.9977    3.7563 C   0  0  2  0  0  0  0  0  0  0  0  0
   30.9083   38.8783    3.2411 N   0  0  0  0  0  0  0  0  0  0  0  0
   28.3725   43.7777   -0.1496 C   0  0  0  0  0  0  0  0  0  0  0  0
   33.2649   42.1319    4.3578 C   0  0  2  0  0  0  0  0  0  0  0  0
   34.1996   43.2077    4.4908 O   0  0  0  0  0  0  0  0  0  0  0  0
   35.9531   38.9521    5.9263 C   0  0  2  0  0  0  0  0  0  0  0  0
   36.2095   39.9329    7.0250 N   0  0  0  0  0  0  0  0  0  0  0  0
   28.6481   37.8788    3.1554 C   0  0  1  0  0  0  0  0  0  0  0  0
   29.2158   36.6007    3.4301 O   0  0  0  0  0  0  0  0  0  0  0  0
   28.3489   42.2899    0.3066 C   0  0  2  0  0  0  0  0  0  0  0  0
   26.9430   41.8435    0.3182 N   0  0  0  0  0  0  0  0  0  0  0  0
   33.9118   40.7498    4.5503 C   0  0  2  0  0  0  0  0  0  0  0  0
   35.3638   40.7618    4.2485 O   0  0  0  0  0  0  0  0  0  0  0  0
   36.8757   37.6658    6.1261 C   0  0  1  0  0  0  0  0  0  0  0  0
   36.4415   36.5748    5.2847 O   0  0  0  0  0  0  0  0  0  0  0  0
   27.2210   37.9788    3.7420 C   0  0  2  0  0  0  0  0  0  0  0  0
   26.4075   36.9529    3.2129 O   0  0  0  0  0  0  0  0  0  0  0  0
   29.0385   42.1464    1.7095 C   0  0  2  0  0  0  0  0  0  0  0  0
   33.1463   39.8481    3.5860 C   0  0  2  0  0  0  0  0  0  0  0  0
   32.6332   40.6986    2.5704 O   0  0  0  0  0  0  0  0  0  0  0  0
   38.3970   37.9692    5.8178 C   0  0  2  0  0  0  0  0  0  0  0  0
   38.9107   38.8705    6.8128 O   0  0  0  0  0  0  0  0  0  0  0  0
   26.6160   39.3630    3.4343 C   0  0  2  0  0  0  0  0  0  0  0  0
   27.5162   40.3979    3.9895 O   0  0  0  0  0  0  0  0  0  0  0  0
   30.5534   42.6852    1.6229 C   0  0  2  0  0  0  0  0  0  0  0  0
   31.2667   42.6132    2.9267 O   0  0  0  0  0  0  0  0  0  0  0  0
   31.9700   39.1249    4.2254 C   0  0  0  0  0  0  0  0  0  0  0  0
   38.5361   38.5948    4.3708 C   0  0  1  0  0  0  0  0  0  0  0  0
   37.6253   39.7747    4.1827 O   0  0  0  0  0  0  0  0  0  0  0  0
   25.1991   39.4600    4.0464 C   0  0  0  0  0  0  0  0  0  0  0  0
   24.2021   38.5502    3.4528 N   0  0  0  0  0  0  0  0  0  0  0  0
   30.5471   44.1685    1.1958 C   0  0  1  0  0  0  0  0  0  0  0  0
   31.8933   44.6488    1.1199 O   0  0  0  0  0  0  0  0  0  0  0  0
   40.0193   38.9781    3.9961 C   0  0  0  0  0  0  0  0  0  0  0  0
   40.9916   37.8435    3.8935 N   0  0  0  0  0  0  0  0  0  0  0  0
  1  2  1  6  0  0  0
  1  7  1  0  0  0  0
  1 30  1  0  0  0  0
  3  4  1  1  0  0  0
  3  9  1  0  0  0  0
  3 38  1  0  0  0  0
  5 10  1  0  0  0  0
  5 26  1  1  0  0  0
  5 32  1  0  0  0  0
  6 12  1  0  0  0  0
  6 35  1  0  0  0  0
  6 19  1  1  0  0  0
  7  8  1  6  0  0  0
  7 14  1  0  0  0  0
  8 33  1  0  0  0  0
  9 16  1  0  0  0  0
 10 11  1  6  0  0  0
 10 18  1  0  0  0  0
 12 13  1  1  0  0  0
 12 20  1  0  0  0  0
 14 15  1  1  0  0  0
 14 22  1  0  0  0  0
 16 17  1  1  0  0  0
 16 24  1  0  0  0  0
 18 19  1  6  0  0  0
 18 25  1  0  0  0  0
 20 21  1  6  0  0  0
 20 27  1  0  0  0  0
 22 23  1  6  0  0  0
 22 29  1  0  0  0  0
 24  2  1  6  0  0  0
 24 31  1  0  0  0  0
 25 26  1  6  0  0  0
 25 33  1  0  0  0  0
 27 28  1  1  0  0  0
 27 34  1  0  0  0  0
 29 30  1  0  0  0  0
 29 36  1  1  0  0  0
 31 32  1  1  0  0  0
 31 38  1  0  0  0  0
 34 35  1  0  0  0  0
 34 40  1  1  0  0  0
 36 37  1  0  0  0  0
 38 39  1  6  0  0  0
 40 41  1  0  0  0  0
M  END
>  <CHROM.1>
175.88678896,-51.40000132,-65.78233637,64.45546258,32.05097259,40.32524077
3.38164126,2.84204061,-0.16143370,-0.50601892

>  <Name>
ligand

>  <RI>
0

>  <Rbt.Current_Directory>
/home/itssahil/PROJECTS/Mol_Feturizer/New_Systems/rnas/1ZZ5

>  <Rbt.Executable>
rbdock ($Id: //depot/dev/client3/rdock/2013.1/src/exe/rbdock.cxx#4 $)

>  <Rbt.Library>
libRbt.so (2013.1, Build901 2013/11/27)

>  <Rbt.Parameter_File>
/export/apps/rDock/src/rDock_2013.1_src/data/scripts/dock_solv.prm

>  <Rbt.Receptor>
prm/pocket_docking_8.prm

>  <SCORE>
-13.1158

>  <SCORE.INTER>
-11.7155

>  <SCORE.INTER.CONST>
1

>  <SCORE.INTER.POLAR>
0

>  <SCORE.INTER.ROT>
4

>  <SCORE.INTER.SOLV>
11.541

>  <SCORE.INTER.VDW>
-17.924

>  <SCORE.INTER.norm>
-0.285744

>  <SCORE.INTRA>
-1.40028

>  <SCORE.INTRA.DIHEDRAL>
-4.33633

>  <SCORE.INTRA.DIHEDRAL.0>
5.18357

>  <SCORE.INTRA.POLAR>
0

>  <SCORE.INTRA.POLAR.0>
0

>  <SCORE.INTRA.REPUL>
0

>  <SCORE.INTRA.REPUL.0>
0

>  <SCORE.INTRA.SOLV>
0.417338

>  <SCORE.INTRA.SOLV.lig_0>
-109.973

>  <SCORE.INTRA.VDW>
0.559218

>  <SCORE.INTRA.VDW.0>
-1.68646

>  <SCORE.INTRA.norm>
-0.0341531

>  <SCORE.RESTR>
0

>  <SCORE.RESTR.CAVITY>
0

>  <SCORE.RESTR.norm>
0

>  <SCORE.SYSTEM>
0

>  <SCORE.SYSTEM.CONST>
0

>  <SCORE.SYSTEM.DIHEDRAL>
0

>  <SCORE.SYSTEM.SOLV>
0

>  <SCORE.SYSTEM.norm>
0

>  <SCORE.heavy>
41

>  <SCORE.norm>
-0.319897

>  <RMSD>
8.569

$$$$
ligand
 OpenBabel11021811423D
libRbt.so/2013.1/901 2013/11/27
 41 45  0  0  0  0  0  0  0  0999 V2000
   39.8428   41.5928    8.0671 C   0  0  2  0  0  0  0  0  0  0  0  0
   39.3405   40.3239    8.5297 O   0  0  0  0  0  0  0  0  0  0  0  0
   36.0458   39.0362   11.0604 C   0  0  2  0  0  0  0  0  0  0  0  0
   35.1149   38.9754   12.2167 N   0  0  0  0  0  0  0  0  0  0  0  0
   35.8490   41.5506    6.9967 C   0  0  1  0  0  0  0  0  0  0  0  0
   34.2438   41.1712    3.9803 C   0  0  1  0  0  0  0  0  0  0  0  0
   40.2784   41.5130    6.5733 C   0  0  2  0  0  0  0  0  0  0  0  0
   39.2197   41.0054    5.6954 N   0  0  0  0  0  0  0  0  0  0  0  0
   37.5123   38.9230   11.5843 C   0  0  0  0  0  0  0  0  0  0  0  0
   35.5915   42.9437    6.3781 C   0  0  2  0  0  0  0  0  0  0  0  0
   34.2320   43.3585    6.5465 O   0  0  0  0  0  0  0  0  0  0  0  0
   32.9391   41.1166    3.0765 C   0  0  2  0  0  0  0  0  0  0  0  0
   31.8883   42.1080    3.4612 N   0  0  0  0  0  0  0  0  0  0  0  0
   41.5512   40.6353    6.4314 C   0  0  1  0  0  0  0  0  0  0  0  0
   41.9617   40.5871    5.0676 O   0  0  0  0  0  0  0  0  0  0  0  0
   38.5361   38.9883   10.4140 C   0  0  2  0  0  0  0  0  0  0  0  0
   39.8886   38.8652   10.9898 N   0  0  0  0  0  0  0  0  0  0  0  0
   35.9920   42.7910    4.9008 C   0  0  2  0  0  0  0  0  0  0  0  0
   34.8241   42.5244    4.0265 O   0  0  0  0  0  0  0  0  0  0  0  0
   32.3253   39.6441    3.1008 C   0  0  1  0  0  0  0  0  0  0  0  0
   33.1990   38.7022    2.4402 O   0  0  0  0  0  0  0  0  0  0  0  0
   42.6801   41.2060    7.3206 C   0  0  2  0  0  0  0  0  0  0  0  0
   43.8469   40.4225    7.1832 O   0  0  0  0  0  0  0  0  0  0  0  0
   38.3443   40.3200    9.6051 C   0  0  2  0  0  0  0  0  0  0  0  0
   36.9688   41.6185    4.9041 C   0  0  2  0  0  0  0  0  0  0  0  0
   36.6535   40.8428    6.0517 O   0  0  0  0  0  0  0  0  0  0  0  0
   32.0529   39.1357    4.5735 C   0  0  2  0  0  0  0  0  0  0  0  0
   30.9955   39.9165    5.1554 O   0  0  0  0  0  0  0  0  0  0  0  0
   42.2263   41.2485    8.7934 C   0  0  2  0  0  0  0  0  0  0  0  0
   40.9923   42.0609    8.8765 O   0  0  0  0  0  0  0  0  0  0  0  0
   36.8381   40.3957    9.0410 C   0  0  2  0  0  0  0  0  0  0  0  0
   36.5664   41.6499    8.2880 O   0  0  0  0  0  0  0  0  0  0  0  0
   38.4280   42.0364    5.0117 C   0  0  0  0  0  0  0  0  0  0  0  0
   33.3753   39.2544    5.4346 C   0  0  1  0  0  0  0  0  0  0  0  0
   33.9672   40.6334    5.3618 O   0  0  0  0  0  0  0  0  0  0  0  0
   43.3537   41.8433    9.6689 C   0  0  0  0  0  0  0  0  0  0  0  0
   43.7142   43.2382    9.3549 N   0  0  0  0  0  0  0  0  0  0  0  0
   35.8450   40.3569   10.2221 C   0  0  1  0  0  0  0  0  0  0  0  0
   34.5058   40.4254    9.7217 O   0  0  0  0  0  0  0  0  0  0  0  0
   33.1835   38.8156    6.9373 C   0  0  0  0  0  0  0  0  0  0  0  0
   33.3983   37.3638    7.2366 N   0  0  0  0  0  0  0  0  0  0  0  0
  1  2  1  1  0  0  0
  1  7  1  0  0  0  0
  1 30  1  0  0  0  0
  3  4  1  1  0  0  0
  3  9  1  0  0  0  0
  3 38  1  0  0  0  0
  5 10  1  0  0  0  0
  5 26  1  6  0  0  0
  5 32  1  0  0  0  0
  6 12  1  0  0  0  0
  6 35  1  0  0  0  0
  6 19  1  1  0  0  0
  7  8  1  6  0  0  0
  7 14  1  0  0  0  0
  8 33  1  0  0  0  0
  9 16  1  0  0  0  0
 10 11  1  6  0  0  0
 10 18  1  0  0  0  0
 12 13  1  1  0  0  0
 12 20  1  0  0  0  0
 14 15  1  6  0  0  0
 14 22  1  0  0  0  0
 16 17  1  1  0  0  0
 16 24  1  0  0  0  0
 18 19  1  6  0  0  0
 18 25  1  0  0  0  0
 20 21  1  1  0  0  0
 20 27  1  0  0  0  0
 22 23  1  1  0  0  0
 22 29  1  0  0  0  0
 24  2  1  6  0  0  0
 24 31  1  0  0  0  0
 25 26  1  1  0  0  0
 25 33  1  0  0  0  0
 27 28  1  1  0  0  0
 27 34  1  0  0  0  0
 29 30  1  0  0  0  0
 29 36  1  1  0  0  0
 31 32  1  1  0  0  0
 31 38  1  0  0  0  0
 34 35  1  0  0  0  0
 34 40  1  1  0  0  0
 36 37  1  0  0  0  0
 38 39  1  6  0  0  0
 40 41  1  0  0  0  0
M  END
>  <CHROM.1>
-77.92261759,175.61294587,62.72185100,88.64649997,37.02435598,40.71899808
7.05984952,-0.37618445,-0.21297975,-1.25859769

>  <Name>
ligand

>  <RI>
0

>  <Rbt.Current_Directory>
/home/itssahil/PROJECTS/Mol_Feturizer/New_Systems/rnas/1ZZ5

>  <Rbt.Executable>
rbdock ($Id: //depot/dev/client3/rdock/2013.1/src/exe/rbdock.cxx#4 $)

>  <Rbt.Library>
libRbt.so (2013.1, Build901 2013/11/27)

>  <Rbt.Parameter_File>
/export/apps/rDock/src/rDock_2013.1_src/data/scripts/dock_solv.prm

>  <Rbt.Receptor>
prm/pocket_docking_5.prm

>  <SCORE>
-8.64306

>  <SCORE.INTER>
-8.75248

>  <SCORE.INTER.CONST>
1

>  <SCORE.INTER.POLAR>
0

>  <SCORE.INTER.ROT>
4

>  <SCORE.INTER.SOLV>
16.563

>  <SCORE.INTER.VDW>
-17.6226

>  <SCORE.INTER.norm>
-0.213475

>  <SCORE.INTRA>
0.109419

>  <SCORE.INTRA.DIHEDRAL>
-1.05453

>  <SCORE.INTRA.DIHEDRAL.0>
5.18357

>  <SCORE.INTRA.POLAR>
0

>  <SCORE.INTRA.POLAR.0>
0

>  <SCORE.INTRA.REPUL>
0

>  <SCORE.INTRA.REPUL.0>
0

>  <SCORE.INTRA.SOLV>
1.20541

>  <SCORE.INTRA.SOLV.lig_0>
-109.973

>  <SCORE.INTRA.VDW>
0.0339794

>  <SCORE.INTRA.VDW.0>
-1.68646

>  <SCORE.INTRA.norm>
0.00266876

>  <SCORE.RESTR>
0

>  <SCORE.RESTR.CAVITY>
0

>  <SCORE.RESTR.norm>
0

>  <SCORE.SYSTEM>
0

>  <SCORE.SYSTEM.CONST>
0

>  <SCORE.SYSTEM.DIHEDRAL>
0

>  <SCORE.SYSTEM.SOLV>
0

>  <SCORE.SYSTEM.norm>
0

>  <SCORE.heavy>
41

>  <SCORE.norm>
-0.210806

>  <RMSD>
8.602

$$$$
ligand
 OpenBabel11021811423D
libRbt.so/2013.1/901 2013/11/27
 41 45  0  0  0  0  0  0  0  0999 V2000
   40.8274   41.3021    7.1023 C   0  0  2  0  0  0  0  0  0  0  0  0
   40.7388   39.8719    6.9500 O   0  0  0  0  0  0  0  0  0  0  0  0
   38.5903   36.6722    8.9658 C   0  0  2  0  0  0  0  0  0  0  0  0
   38.0418   35.8344   10.0634 N   0  0  0  0  0  0  0  0  0  0  0  0
   36.7883   40.4979    6.7317 C   0  0  1  0  0  0  0  0  0  0  0  0
   34.3865   40.9225    4.4652 C   0  0  1  0  0  0  0  0  0  0  0  0
   40.8468   42.0138    5.7164 C   0  0  2  0  0  0  0  0  0  0  0  0
   39.7153   41.6365    4.8641 N   0  0  0  0  0  0  0  0  0  0  0  0
   40.1352   36.8018    9.1513 C   0  0  0  0  0  0  0  0  0  0  0  0
   36.0946   41.8666    6.9194 C   0  0  2  0  0  0  0  0  0  0  0  0
   34.7775   41.7266    7.4617 O   0  0  0  0  0  0  0  0  0  0  0  0
   33.1845   40.9190    3.4272 C   0  0  2  0  0  0  0  0  0  0  0  0
   32.0063   41.7337    3.8551 N   0  0  0  0  0  0  0  0  0  0  0  0
   42.1837   41.7233    4.9824 C   0  0  1  0  0  0  0  0  0  0  0  0
   42.2084   42.3980    3.7274 O   0  0  0  0  0  0  0  0  0  0  0  0
   40.7664   37.6782    8.0307 C   0  0  2  0  0  0  0  0  0  0  0  0
   42.2202   37.7418    8.2722 N   0  0  0  0  0  0  0  0  0  0  0  0
   36.1003   42.4986    5.5170 C   0  0  2  0  0  0  0  0  0  0  0  0
   34.8181   42.2903    4.8015 O   0  0  0  0  0  0  0  0  0  0  0  0
   32.7254   39.4189    3.1364 C   0  0  1  0  0  0  0  0  0  0  0  0
   33.7489   38.6867    2.4271 O   0  0  0  0  0  0  0  0  0  0  0  0
   43.3715   42.1709    5.8654 C   0  0  2  0  0  0  0  0  0  0  0  0
   44.5908   41.9257    5.1966 O   0  0  0  0  0  0  0  0  0  0  0  0
   40.0952   39.0972    8.0152 C   0  0  2  0  0  0  0  0  0  0  0  0
   37.2583   41.8043    4.8057 C   0  0  2  0  0  0  0  0  0  0  0  0
   37.4317   40.5540    5.4574 O   0  0  0  0  0  0  0  0  0  0  0  0
   32.3700   38.6359    4.4638 C   0  0  2  0  0  0  0  0  0  0  0  0
   31.1884   39.2086    5.0488 O   0  0  0  0  0  0  0  0  0  0  0  0
   43.3368   41.4310    7.2175 C   0  0  2  0  0  0  0  0  0  0  0  0
   42.0336   41.7035    7.8634 O   0  0  0  0  0  0  0  0  0  0  0  0
   38.5097   38.9409    7.7824 C   0  0  2  0  0  0  0  0  0  0  0  0
   37.7943   40.2455    7.7884 O   0  0  0  0  0  0  0  0  0  0  0  0
   38.5751   42.5617    4.8945 C   0  0  0  0  0  0  0  0  0  0  0  0
   33.5869   38.7115    5.4727 C   0  0  1  0  0  0  0  0  0  0  0  0
   34.0385   40.1266    5.6979 O   0  0  0  0  0  0  0  0  0  0  0  0
   44.5146   41.9045    8.1008 C   0  0  0  0  0  0  0  0  0  0  0  0
   44.5947   41.2629    9.4260 N   0  0  0  0  0  0  0  0  0  0  0  0
   37.9049   38.0919    8.9209 C   0  0  1  0  0  0  0  0  0  0  0  0
   36.4952   37.9534    8.7155 O   0  0  0  0  0  0  0  0  0  0  0  0
   33.3014   37.9982    6.8501 C   0  0  0  0  0  0  0  0  0  0  0  0
   34.3479   37.0402    7.3300 N   0  0  0  0  0  0  0  0  0  0  0  0
  1  2  1  6  0  0  0
  1  7  1  0  0  0  0
  1 30  1  0  0  0  0
  3  4  1  1  0  0  0
  3  9  1  0  0  0  0
  3 38  1  0  0  0  0
  5 10  1  0  0  0  0
  5 26  1  6  0  0  0
  5 32  1  0  0  0  0
  6 12  1  0  0  0  0
  6 35  1  0  0  0  0
  6 19  1  1  0  0  0
  7  8  1  6  0  0  0
  7 14  1  0  0  0  0
  8 33  1  0  0  0  0
  9 16  1  0  0  0  0
 10 11  1  6  0  0  0
 10 18  1  0  0  0  0
 12 13  1  1  0  0  0
 12 20  1  0  0  0  0
 14 15  1  6  0  0  0
 14 22  1  0  0  0  0
 16 17  1  1  0  0  0
 16 24  1  0  0  0  0
 18 19  1  6  0  0  0
 18 25  1  0  0  0  0
 20 21  1  1  0  0  0
 20 27  1  0  0  0  0
 22 23  1  6  0  0  0
 22 29  1  0  0  0  0
 24  2  1  6  0  0  0
 24 31  1  0  0  0  0
 25 26  1  1  0  0  0
 25 33  1  0  0  0  0
 27 28  1  1  0  0  0
 27 34  1  0  0  0  0
 29 30  1  0  0  0  0
 29 36  1  1  0  0  0
 31 32  1  1  0  0  0
 31 38  1  0  0  0  0
 34 35  1  0  0  0  0
 34 40  1  1  0  0  0
 36 37  1  0  0  0  0
 38 39  1  6  0  0  0
 40 41  1  0  0  0  0
M  END
>  <CHROM.1>
-63.29679883,-166.90045458,-179.77106370,130.58933967,37.94185484,40.15091755
6.36535176,-0.06812789,-0.24700918,-0.73648417

>  <Name>
ligand

>  <RI>
0

>  <Rbt.Current_Directory>
/home/itssahil/PROJECTS/Mol_Feturizer/New_Systems/rnas/1ZZ5

>  <Rbt.Executable>
rbdock ($Id: //depot/dev/client3/rdock/2013.1/src/exe/rbdock.cxx#4 $)

>  <Rbt.Library>
libRbt.so (2013.1, Build901 2013/11/27)

>  <Rbt.Parameter_File>
/export/apps/rDock/src/rDock_2013.1_src/data/scripts/dock_solv.prm

>  <Rbt.Receptor>
prm/pocket_docking_3.prm

>  <SCORE>
-5.29286

>  <SCORE.INTER>
-6.43111

>  <SCORE.INTER.CONST>
1

>  <SCORE.INTER.POLAR>
0

>  <SCORE.INTER.ROT>
4

>  <SCORE.INTER.SOLV>
15.546

>  <SCORE.INTER.VDW>
-15.7361

>  <SCORE.INTER.norm>
-0.156856

>  <SCORE.INTRA>
0.997687

>  <SCORE.INTRA.DIHEDRAL>
0.62089

>  <SCORE.INTRA.DIHEDRAL.0>
5.18357

>  <SCORE.INTRA.POLAR>
0

>  <SCORE.INTRA.POLAR.0>
0

>  <SCORE.INTRA.REPUL>
0.00266239

>  <SCORE.INTRA.REPUL.0>
0

>  <SCORE.INTRA.SOLV>
1.17464

>  <SCORE.INTRA.SOLV.lig_0>
-109.973

>  <SCORE.INTRA.VDW>
0.0866106

>  <SCORE.INTRA.VDW.0>
-1.68646

>  <SCORE.INTRA.norm>
0.0243338

>  <SCORE.RESTR>
0.140566

>  <SCORE.RESTR.CAVITY>
0.140566

>  <SCORE.RESTR.norm>
0.00342844

>  <SCORE.SYSTEM>
0

>  <SCORE.SYSTEM.CONST>
0

>  <SCORE.SYSTEM.DIHEDRAL>
0

>  <SCORE.SYSTEM.SOLV>
0

>  <SCORE.SYSTEM.norm>
0

>  <SCORE.heavy>
41

>  <SCORE.norm>
-0.129094

>  <RMSD>
8.625

$$$$
ligand
 OpenBabel11021811423D
libRbt.so/2013.1/901 2013/11/27
 41 45  0  0  0  0  0  0  0  0999 V2000
   40.4264   42.2965    7.4482 C   0  0  2  0  0  0  0  0  0  0  0  0
   40.3897   40.8585    7.5349 O   0  0  0  0  0  0  0  0  0  0  0  0
   38.2063   37.9573    9.9293 C   0  0  2  0  0  0  0  0  0  0  0  0
   37.6109   37.2933   11.1175 N   0  0  0  0  0  0  0  0  0  0  0  0
   36.4459   41.2818    6.9757 C   0  0  1  0  0  0  0  0  0  0  0  0
   34.2584   41.2246    4.4144 C   0  0  1  0  0  0  0  0  0  0  0  0
   40.5169   42.7671    5.9657 C   0  0  2  0  0  0  0  0  0  0  0  0
   39.4558   42.2081    5.1227 N   0  0  0  0  0  0  0  0  0  0  0  0
   39.7312   38.1774   10.1831 C   0  0  0  0  0  0  0  0  0  0  0  0
   35.7018   42.6339    6.8870 C   0  0  2  0  0  0  0  0  0  0  0  0
   34.3562   42.5341    7.3646 O   0  0  0  0  0  0  0  0  0  0  0  0
   33.0742   41.0351    3.3734 C   0  0  2  0  0  0  0  0  0  0  0  0
   31.8202   41.7636    3.7365 N   0  0  0  0  0  0  0  0  0  0  0  0
   41.9074   42.4116    5.3735 C   0  0  1  0  0  0  0  0  0  0  0  0
   41.9956   42.8678    4.0262 O   0  0  0  0  0  0  0  0  0  0  0  0
   40.4094   38.8788    8.9706 C   0  0  2  0  0  0  0  0  0  0  0  0
   41.8416   39.0397    9.2853 N   0  0  0  0  0  0  0  0  0  0  0  0
   35.7820   43.0227    5.4009 C   0  0  2  0  0  0  0  0  0  0  0  0
   34.5566   42.6471    4.6548 O   0  0  0  0  0  0  0  0  0  0  0  0
   32.7605   39.4818    3.1877 C   0  0  1  0  0  0  0  0  0  0  0  0
   33.8561   38.8010    2.5373 O   0  0  0  0  0  0  0  0  0  0  0  0
   43.0206   43.0472    6.2381 C   0  0  2  0  0  0  0  0  0  0  0  0
   44.2881   42.7424    5.6953 O   0  0  0  0  0  0  0  0  0  0  0  0
   39.6998   40.2475    8.6749 C   0  0  2  0  0  0  0  0  0  0  0  0
   37.0042   42.2660    4.8885 C   0  0  2  0  0  0  0  0  0  0  0  0
   37.1703   41.1499    5.7515 O   0  0  0  0  0  0  0  0  0  0  0  0
   32.4645   38.7642    4.5656 C   0  0  2  0  0  0  0  0  0  0  0  0
   31.2278   39.2630    5.1026 O   0  0  0  0  0  0  0  0  0  0  0  0
   42.9179   42.5425    7.6913 C   0  0  2  0  0  0  0  0  0  0  0  0
   41.5675   42.8669    8.2019 O   0  0  0  0  0  0  0  0  0  0  0  0
   38.1384   39.9916    8.3766 C   0  0  2  0  0  0  0  0  0  0  0  0
   37.3866   41.2494    8.1186 O   0  0  0  0  0  0  0  0  0  0  0  0
   38.2897   43.0794    4.9273 C   0  0  0  0  0  0  0  0  0  0  0  0
   33.6572   39.0245    5.5726 C   0  0  1  0  0  0  0  0  0  0  0  0
   33.9720   40.4881    5.6988 O   0  0  0  0  0  0  0  0  0  0  0  0
   44.0204   43.2033    8.5513 C   0  0  0  0  0  0  0  0  0  0  0  0
   44.0247   42.8033    9.9705 N   0  0  0  0  0  0  0  0  0  0  0  0
   37.4844   39.3212    9.6036 C   0  0  1  0  0  0  0  0  0  0  0  0
   36.0960   39.0944    9.3399 O   0  0  0  0  0  0  0  0  0  0  0  0
   33.4236   38.3862    6.9957 C   0  0  0  0  0  0  0  0  0  0  0  0
   32.1651   38.7854    7.7030 N   0  0  0  0  0  0  0  0  0  0  0  0
  1  2  1  6  0  0  0
  1  7  1  0  0  0  0
  1 30  1  0  0  0  0
  3  4  1  1  0  0  0
  3  9  1  0  0  0  0
  3 38  1  0  0  0  0
  5 10  1  0  0  0  0
  5 26  1  6  0  0  0
  5 32  1  0  0  0  0
  6 12  1  0  0  0  0
  6 35  1  0  0  0  0
  6 19  1  1  0  0  0
  7  8  1  6  0  0  0
  7 14  1  0  0  0  0
  8 33  1  0  0  0  0
  9 16  1  0  0  0  0
 10 11  1  6  0  0  0
 10 18  1  0  0  0  0
 12 13  1  1  0  0  0
 12 20  1  0  0  0  0
 14 15  1  6  0  0  0
 14 22  1  0  0  0  0
 16 17  1  1  0  0  0
 16 24  1  0  0  0  0
 18 19  1  6  0  0  0
 18 25  1  0  0  0  0
 20 21  1  1  0  0  0
 20 27  1  0  0  0  0
 22 23  1  6  0  0  0
 22 29  1  0  0  0  0
 24  2  1  6  0  0  0
 24 31  1  0  0  0  0
 25 26  1  1  0  0  0
 25 33  1  0  0  0  0
 27 28  1  1  0  0  0
 27 34  1  0  0  0  0
 29 30  1  0  0  0  0
 29 36  1  1  0  0  0
 31 32  1  1  0  0  0
 31 38  1  0  0  0  0
 34 35  1  0  0  0  0
 34 40  1  1  0  0  0
 36 37  1  0  0  0  0
 38 39  1  6  0  0  0
 40 41  1  0  0  0  0
M  END
>  <CHROM.1>
-69.32126051,-168.99391027,179.78699479,-55.67806154,37.62293435,40.92550130
6.69567070,-0.10579728,-0.32205278,-0.93691442

>  <Name>
ligand

>  <RI>
0

>  <Rbt.Current_Directory>
/home/itssahil/PROJECTS/Mol_Feturizer/New_Systems/rnas/1ZZ5

>  <Rbt.Executable>
rbdock ($Id: //depot/dev/client3/rdock/2013.1/src/exe/rbdock.cxx#4 $)

>  <Rbt.Library>
libRbt.so (2013.1, Build901 2013/11/27)

>  <Rbt.Parameter_File>
/export/apps/rDock/src/rDock_2013.1_src/data/scripts/dock_solv.prm

>  <Rbt.Receptor>
prm/pocket_docking_7.prm

>  <SCORE>
-10.8516

>  <SCORE.INTER>
-9.07686

>  <SCORE.INTER.CONST>
1

>  <SCORE.INTER.POLAR>
0

>  <SCORE.INTER.ROT>
4

>  <SCORE.INTER.SOLV>
17.6123

>  <SCORE.INTER.VDW>
-18.1887

>  <SCORE.INTER.norm>
-0.221387

>  <SCORE.INTRA>
-1.77475

>  <SCORE.INTRA.DIHEDRAL>
-3.91039

>  <SCORE.INTRA.DIHEDRAL.0>
5.18357

>  <SCORE.INTRA.POLAR>
0

>  <SCORE.INTRA.POLAR.0>
0

>  <SCORE.INTRA.REPUL>
0

>  <SCORE.INTRA.REPUL.0>
0

>  <SCORE.INTRA.SOLV>
1.16807

>  <SCORE.INTRA.SOLV.lig_0>
-109.973

>  <SCORE.INTRA.VDW>
-0.403585

>  <SCORE.INTRA.VDW.0>
-1.68646

>  <SCORE.INTRA.norm>
-0.0432866

>  <SCORE.RESTR>
0

>  <SCORE.RESTR.CAVITY>
0

>  <SCORE.RESTR.norm>
0

>  <SCORE.SYSTEM>
0

>  <SCORE.SYSTEM.CONST>
0

>  <SCORE.SYSTEM.DIHEDRAL>
0

>  <SCORE.SYSTEM.SOLV>
0

>  <SCORE.SYSTEM.norm>
0

>  <SCORE.heavy>
41

>  <SCORE.norm>
-0.264673

>  <RMSD>
8.700

$$$$
ligand
 OpenBabel11021811423D
libRbt.so/2013.1/901 2013/11/27
 41 45  0  0  0  0  0  0  0  0999 V2000
   40.4257   42.4943    7.7072 C   0  0  2  0  0  0  0  0  0  0  0  0
   40.3342   41.0684    7.8942 O   0  0  0  0  0  0  0  0  0  0  0  0
   37.8874   38.4164   10.3227 C   0  0  2  0  0  0  0  0  0  0  0  0
   37.1859   37.8597   11.5082 N   0  0  0  0  0  0  0  0  0  0  0  0
   36.4574   41.5610    7.0150 C   0  0  1  0  0  0  0  0  0  0  0  0
   34.4184   41.3807    4.3666 C   0  0  1  0  0  0  0  0  0  0  0  0
   40.6385   42.8508    6.2054 C   0  0  2  0  0  0  0  0  0  0  0  0
   39.6224   42.2611    5.3285 N   0  0  0  0  0  0  0  0  0  0  0  0
   39.3966   38.6113   10.6724 C   0  0  0  0  0  0  0  0  0  0  0  0
   35.7678   42.9235    6.7741 C   0  0  2  0  0  0  0  0  0  0  0  0
   34.3887   42.8977    7.1565 O   0  0  0  0  0  0  0  0  0  0  0  0
   33.2234   41.1497    3.3463 C   0  0  2  0  0  0  0  0  0  0  0  0
   32.0080   41.9712    3.6339 N   0  0  0  0  0  0  0  0  0  0  0  0
   42.0550   42.4128    5.7452 C   0  0  1  0  0  0  0  0  0  0  0  0
   42.2553   42.7650    4.3788 O   0  0  0  0  0  0  0  0  0  0  0  0
   40.1836   39.2011    9.4663 C   0  0  2  0  0  0  0  0  0  0  0  0
   41.5941   39.3440    9.8739 N   0  0  0  0  0  0  0  0  0  0  0  0
   35.9677   43.1983    5.2739 C   0  0  2  0  0  0  0  0  0  0  0  0
   34.7871   42.8034    4.4679 O   0  0  0  0  0  0  0  0  0  0  0  0
   32.8328   39.6032    3.3120 C   0  0  1  0  0  0  0  0  0  0  0  0
   33.8917   38.8088    2.7334 O   0  0  0  0  0  0  0  0  0  0  0  0
   43.1240   43.0789    6.6420 C   0  0  2  0  0  0  0  0  0  0  0  0
   44.4163   42.6987    6.2181 O   0  0  0  0  0  0  0  0  0  0  0  0
   39.5438   40.5637    9.0209 C   0  0  2  0  0  0  0  0  0  0  0  0
   37.1974   42.3712    4.9094 C   0  0  2  0  0  0  0  0  0  0  0  0
   37.2631   41.3180    5.8606 O   0  0  0  0  0  0  0  0  0  0  0  0
   32.5052   39.0386    4.7526 C   0  0  2  0  0  0  0  0  0  0  0  0
   31.2961   39.6479    5.2357 O   0  0  0  0  0  0  0  0  0  0  0  0
   42.9001   42.6867    8.1161 C   0  0  2  0  0  0  0  0  0  0  0  0
   41.5282   43.0865    8.5004 O   0  0  0  0  0  0  0  0  0  0  0  0
   38.0002   40.3308    8.6268 C   0  0  2  0  0  0  0  0  0  0  0  0
   37.3118   41.5869    8.2239 O   0  0  0  0  0  0  0  0  0  0  0  0
   38.5035   43.1483    4.9848 C   0  0  0  0  0  0  0  0  0  0  0  0
   33.7120   39.3363    5.7321 C   0  0  1  0  0  0  0  0  0  0  0  0
   34.0992   40.7879    5.7160 O   0  0  0  0  0  0  0  0  0  0  0  0
   43.9596   43.3779    9.0057 C   0  0  0  0  0  0  0  0  0  0  0  0
   43.8974   44.8510    9.0156 N   0  0  0  0  0  0  0  0  0  0  0  0
   37.2373   39.7723    9.8470 C   0  0  1  0  0  0  0  0  0  0  0  0
   35.8646   39.5662    9.4979 O   0  0  0  0  0  0  0  0  0  0  0  0
   33.4508   38.8520    7.2101 C   0  0  0  0  0  0  0  0  0  0  0  0
   33.4327   37.3704    7.4289 N   0  0  0  0  0  0  0  0  0  0  0  0
  1  2  1  6  0  0  0
  1  7  1  0  0  0  0
  1 30  1  0  0  0  0
  3  4  1  1  0  0  0
  3  9  1  0  0  0  0
  3 38  1  0  0  0  0
  5 10  1  0  0  0  0
  5 26  1  6  0  0  0
  5 32  1  0  0  0  0
  6 12  1  0  0  0  0
  6 35  1  0  0  0  0
  6 19  1  1  0  0  0
  7  8  1  6  0  0  0
  7 14  1  0  0  0  0
  8 33  1  0  0  0  0
  9 16  1  0  0  0  0
 10 11  1  6  0  0  0
 10 18  1  0  0  0  0
 12 13  1  1  0  0  0
 12 20  1  0  0  0  0
 14 15  1  6  0  0  0
 14 22  1  0  0  0  0
 16 17  1  1  0  0  0
 16 24  1  0  0  0  0
 18 19  1  6  0  0  0
 18 25  1  0  0  0  0
 20 21  1  1  0  0  0
 20 27  1  0  0  0  0
 22 23  1  6  0  0  0
 22 29  1  0  0  0  0
 24  2  1  6  0  0  0
 24 31  1  0  0  0  0
 25 26  1  1  0  0  0
 25 33  1  0  0  0  0
 27 28  1  1  0  0  0
 27 34  1  0  0  0  0
 29 30  1  0  0  0  0
 29 36  1  1  0  0  0
 31 32  1  1  0  0  0
 31 38  1  0  0  0  0
 34 35  1  0  0  0  0
 34 40  1  1  0  0  0
 36 37  1  0  0  0  0
 38 39  1  6  0  0  0
 40 41  1  0  0  0  0
M  END
>  <CHROM.1>
-66.16491370,-174.18344523,63.30692970,70.10042605,37.65943948,41.15786691
6.85469961,-0.11137620,-0.35873381,-0.96716408

>  <Name>
ligand

>  <RI>
0

>  <Rbt.Current_Directory>
/home/itssahil/PROJECTS/Mol_Feturizer/New_Systems/rnas/1ZZ5

>  <Rbt.Executable>
rbdock ($Id: //depot/dev/client3/rdock/2013.1/src/exe/rbdock.cxx#4 $)

>  <Rbt.Library>
libRbt.so (2013.1, Build901 2013/11/27)

>  <Rbt.Parameter_File>
/export/apps/rDock/src/rDock_2013.1_src/data/scripts/dock_solv.prm

>  <Rbt.Receptor>
prm/pocket_docking_4.prm

>  <SCORE>
-10.5117

>  <SCORE.INTER>
-9.08595

>  <SCORE.INTER.CONST>
1

>  <SCORE.INTER.POLAR>
0

>  <SCORE.INTER.ROT>
4

>  <SCORE.INTER.SOLV>
16.3826

>  <SCORE.INTER.VDW>
-17.7848

>  <SCORE.INTER.norm>
-0.221609

>  <SCORE.INTRA>
-1.42574

>  <SCORE.INTRA.DIHEDRAL>
-4.23656

>  <SCORE.INTRA.DIHEDRAL.0>
5.18357

>  <SCORE.INTRA.POLAR>
0

>  <SCORE.INTRA.POLAR.0>
0

>  <SCORE.INTRA.REPUL>
0.00181168

>  <SCORE.INTRA.REPUL.0>
0

>  <SCORE.INTRA.SOLV>
1.57437

>  <SCORE.INTRA.SOLV.lig_0>
-109.973

>  <SCORE.INTRA.VDW>
-0.103698

>  <SCORE.INTRA.VDW.0>
-1.68646

>  <SCORE.INTRA.norm>
-0.0347741

>  <SCORE.RESTR>
0

>  <SCORE.RESTR.CAVITY>
0

>  <SCORE.RESTR.norm>
0

>  <SCORE.SYSTEM>
0

>  <SCORE.SYSTEM.CONST>
0

>  <SCORE.SYSTEM.DIHEDRAL>
0

>  <SCORE.SYSTEM.SOLV>
0

>  <SCORE.SYSTEM.norm>
0

>  <SCORE.heavy>
41

>  <SCORE.norm>
-0.256383

>  <RMSD>
8.720

$$$$
ligand
 OpenBabel11021811423D
libRbt.so/2013.1/901 2013/11/27
 41 45  0  0  0  0  0  0  0  0999 V2000
   40.4865   42.4502    7.5192 C   0  0  2  0  0  0  0  0  0  0  0  0
   40.4337   41.0160    7.6485 O   0  0  0  0  0  0  0  0  0  0  0  0
   38.1776   38.2096   10.0882 C   0  0  2  0  0  0  0  0  0  0  0  0
   37.5538   37.5877   11.2846 N   0  0  0  0  0  0  0  0  0  0  0  0
   36.5052   41.4596    7.0034 C   0  0  1  0  0  0  0  0  0  0  0  0
   34.3396   41.3461    4.4448 C   0  0  1  0  0  0  0  0  0  0  0  0
   40.6089   42.8748    6.0251 C   0  0  2  0  0  0  0  0  0  0  0  0
   39.5578   42.3006    5.1797 N   0  0  0  0  0  0  0  0  0  0  0  0
   39.6996   38.4229   10.3636 C   0  0  0  0  0  0  0  0  0  0  0  0
   35.7766   42.8155    6.8601 C   0  0  2  0  0  0  0  0  0  0  0  0
   34.4216   42.7430    7.3153 O   0  0  0  0  0  0  0  0  0  0  0  0
   33.1594   41.1284    3.4046 C   0  0  2  0  0  0  0  0  0  0  0  0
   31.9219   41.9081    3.7139 N   0  0  0  0  0  0  0  0  0  0  0  0
   42.0063   42.4882    5.4699 C   0  0  1  0  0  0  0  0  0  0  0  0
   42.1238   42.9025    4.1114 O   0  0  0  0  0  0  0  0  0  0  0  0
   40.4071   39.0807    9.1434 C   0  0  2  0  0  0  0  0  0  0  0  0
   41.8348   39.2373    9.4797 N   0  0  0  0  0  0  0  0  0  0  0  0
   35.8879   43.1582    5.3647 C   0  0  2  0  0  0  0  0  0  0  0  0
   34.6727   42.7718    4.6075 O   0  0  0  0  0  0  0  0  0  0  0  0
   32.8068   39.5757    3.3036 C   0  0  1  0  0  0  0  0  0  0  0  0
   33.8896   38.8313    2.7032 O   0  0  0  0  0  0  0  0  0  0  0  0
   43.1098   43.1391    6.3356 C   0  0  2  0  0  0  0  0  0  0  0  0
   44.3840   42.8059    5.8259 O   0  0  0  0  0  0  0  0  0  0  0  0
   39.7169   40.4464    8.7933 C   0  0  2  0  0  0  0  0  0  0  0  0
   37.1117   42.3747    4.8982 C   0  0  2  0  0  0  0  0  0  0  0  0
   37.2506   41.2838    5.7975 O   0  0  0  0  0  0  0  0  0  0  0  0
   32.4808   38.9448    4.7169 C   0  0  2  0  0  0  0  0  0  0  0  0
   31.2532   39.5047    5.2129 O   0  0  0  0  0  0  0  0  0  0  0  0
   42.9754   42.6798    7.8011 C   0  0  2  0  0  0  0  0  0  0  0  0
   41.6192   43.0324    8.2765 O   0  0  0  0  0  0  0  0  0  0  0  0
   38.1587   40.1965    8.4738 C   0  0  2  0  0  0  0  0  0  0  0  0
   37.4244   41.4530    8.1641 O   0  0  0  0  0  0  0  0  0  0  0  0
   38.4044   43.1766    4.9364 C   0  0  0  0  0  0  0  0  0  0  0  0
   33.6716   39.2311    5.7191 C   0  0  1  0  0  0  0  0  0  0  0  0
   34.0235   40.6909    5.7658 O   0  0  0  0  0  0  0  0  0  0  0  0
   44.0686   43.3558    8.6612 C   0  0  0  0  0  0  0  0  0  0  0  0
   44.0561   42.9827   10.0877 N   0  0  0  0  0  0  0  0  0  0  0  0
   37.4756   39.5698    9.7081 C   0  0  1  0  0  0  0  0  0  0  0  0
   36.0900   39.3484    9.4255 O   0  0  0  0  0  0  0  0  0  0  0  0
   33.4098   38.6804    7.1736 C   0  0  0  0  0  0  0  0  0  0  0  0
   33.4764   37.1936    7.3416 N   0  0  0  0  0  0  0  0  0  0  0  0
  1  2  1  6  0  0  0
  1  7  1  0  0  0  0
  1 30  1  0  0  0  0
  3  4  1  1  0  0  0
  3  9  1  0  0  0  0
  3 38  1  0  0  0  0
  5 10  1  0  0  0  0
  5 26  1  6  0  0  0
  5 32  1  0  0  0  0
  6 12  1  0  0  0  0
  6 35  1  0  0  0  0
  6 19  1  1  0  0  0
  7  8  1  6  0  0  0
  7 14  1  0  0  0  0
  8 33  1  0  0  0  0
  9 16  1  0  0  0  0
 10 11  1  6  0  0  0
 10 18  1  0  0  0  0
 12 13  1  1  0  0  0
 12 20  1  0  0  0  0
 14 15  1  6  0  0  0
 14 22  1  0  0  0  0
 16 17  1  1  0  0  0
 16 24  1  0  0  0  0
 18 19  1  6  0  0  0
 18 25  1  0  0  0  0
 20 21  1  1  0  0  0
 20 27  1  0  0  0  0
 22 23  1  6  0  0  0
 22 29  1  0  0  0  0
 24  2  1  6  0  0  0
 24 31  1  0  0  0  0
 25 26  1  1  0  0  0
 25 33  1  0  0  0  0
 27 28  1  1  0  0  0
 27 34  1  0  0  0  0
 29 30  1  0  0  0  0
 29 36  1  1  0  0  0
 31 32  1  1  0  0  0
 31 38  1  0  0  0  0
 34 35  1  0  0  0  0
 34 40  1  1  0  0  0
 36 37  1  0  0  0  0
 38 39  1  6  0  0  0
 40 41  1  0  0  0  0
M  END
>  <CHROM.1>
-67.20437739,-170.12061910,-179.29921728,72.30264300,37.70375146,41.04516600
6.76823992,-0.10489844,-0.33871453,-0.93201967

>  <Name>
ligand

>  <RI>
0

>  <Rbt.Current_Directory>
/home/itssahil/PROJECTS/Mol_Feturizer/New_Systems/rnas/1ZZ5

>  <Rbt.Executable>
rbdock ($Id: //depot/dev/client3/rdock/2013.1/src/exe/rbdock.cxx#4 $)

>  <Rbt.Library>
libRbt.so (2013.1, Build901 2013/11/27)

>  <Rbt.Parameter_File>
/export/apps/rDock/src/rDock_2013.1_src/data/scripts/dock_solv.prm

>  <Rbt.Receptor>
prm/pocket_docking_4.prm

>  <SCORE>
-11.0756

>  <SCORE.INTER>
-9.03367

>  <SCORE.INTER.CONST>
1

>  <SCORE.INTER.POLAR>
0

>  <SCORE.INTER.ROT>
4

>  <SCORE.INTER.SOLV>
17.3173

>  <SCORE.INTER.VDW>
-18.0616

>  <SCORE.INTER.norm>
-0.220333

>  <SCORE.INTRA>
-2.04191

>  <SCORE.INTRA.DIHEDRAL>
-3.75179

>  <SCORE.INTRA.DIHEDRAL.0>
5.18357

>  <SCORE.INTRA.POLAR>
0

>  <SCORE.INTRA.POLAR.0>
0

>  <SCORE.INTRA.REPUL>
0

>  <SCORE.INTRA.REPUL.0>
0

>  <SCORE.INTRA.SOLV>
0.00479124

>  <SCORE.INTRA.SOLV.lig_0>
-109.973

>  <SCORE.INTRA.VDW>
-0.168408

>  <SCORE.INTRA.VDW.0>
-1.68646

>  <SCORE.INTRA.norm>
-0.0498026

>  <SCORE.RESTR>
0

>  <SCORE.RESTR.CAVITY>
0

>  <SCORE.RESTR.norm>
0

>  <SCORE.SYSTEM>
0

>  <SCORE.SYSTEM.CONST>
0

>  <SCORE.SYSTEM.DIHEDRAL>
0

>  <SCORE.SYSTEM.SOLV>
0

>  <SCORE.SYSTEM.norm>
0

>  <SCORE.heavy>
41

>  <SCORE.norm>
-0.270136

>  <RMSD>
8.725

$$$$
ligand
 OpenBabel11021811423D
libRbt.so/2013.1/901 2013/11/27
 41 45  0  0  0  0  0  0  0  0999 V2000
   37.4709   37.0507   14.6257 C   0  0  2  0  0  0  0  0  0  0  0  0
   37.0290   38.2838   14.0251 O   0  0  0  0  0  0  0  0  0  0  0  0
   38.6874   42.2805   13.5852 C   0  0  2  0  0  0  0  0  0  0  0  0
   39.3485   43.5639   13.9360 N   0  0  0  0  0  0  0  0  0  0  0  0
   40.4967   38.1371   12.0253 C   0  0  1  0  0  0  0  0  0  0  0  0
   41.3921   35.2498    8.8428 C   0  0  1  0  0  0  0  0  0  0  0  0
   37.0990   35.8277   13.7349 C   0  0  2  0  0  0  0  0  0  0  0  0
   37.5846   35.9551   12.3575 N   0  0  0  0  0  0  0  0  0  0  0  0
   37.4920   42.0432   14.5612 C   0  0  0  0  0  0  0  0  0  0  0  0
   41.5994   37.0746   12.2371 C   0  0  2  0  0  0  0  0  0  0  0  0
   42.9029   37.5970   11.9601 O   0  0  0  0  0  0  0  0  0  0  0  0
   42.4804   35.0735    7.6997 C   0  0  2  0  0  0  0  0  0  0  0  0
   43.1147   36.3532    7.2584 N   0  0  0  0  0  0  0  0  0  0  0  0
   35.5619   35.6095   13.7372 C   0  0  1  0  0  0  0  0  0  0  0  0
   35.2286   34.4740   12.9432 O   0  0  0  0  0  0  0  0  0  0  0  0
   36.7631   40.7049   14.2456 C   0  0  2  0  0  0  0  0  0  0  0  0
   35.6477   40.5621   15.2004 N   0  0  0  0  0  0  0  0  0  0  0  0
   41.2070   35.9182   11.3018 C   0  0  2  0  0  0  0  0  0  0  0  0
   41.9318   35.9703   10.0089 O   0  0  0  0  0  0  0  0  0  0  0  0
   41.8312   34.3328    6.4445 C   0  0  1  0  0  0  0  0  0  0  0  0
   41.4917   32.9651    6.7621 O   0  0  0  0  0  0  0  0  0  0  0  0
   35.0635   35.4247   15.1892 C   0  0  2  0  0  0  0  0  0  0  0  0
   33.6680   35.2082   15.1978 O   0  0  0  0  0  0  0  0  0  0  0  0
   37.7774   39.5091   14.3205 C   0  0  2  0  0  0  0  0  0  0  0  0
   39.7035   36.0954   11.1090 C   0  0  2  0  0  0  0  0  0  0  0  0
   39.4329   37.4701   11.3439 O   0  0  0  0  0  0  0  0  0  0  0  0
   40.5322   35.0695    5.9234 C   0  0  2  0  0  0  0  0  0  0  0  0
   40.9013   36.3433    5.3687 O   0  0  0  0  0  0  0  0  0  0  0  0
   35.4253   36.6608   16.0365 C   0  0  2  0  0  0  0  0  0  0  0  0
   36.8911   36.8539   15.9750 O   0  0  0  0  0  0  0  0  0  0  0  0
   38.9791   39.7558   13.2776 C   0  0  2  0  0  0  0  0  0  0  0  0
   40.0039   38.6776   13.3126 O   0  0  0  0  0  0  0  0  0  0  0  0
   38.8607   35.2827   12.0809 C   0  0  0  0  0  0  0  0  0  0  0  0
   39.5065   35.2537    7.1143 C   0  0  1  0  0  0  0  0  0  0  0  0
   40.1460   35.9081    8.3059 O   0  0  0  0  0  0  0  0  0  0  0  0
   34.9437   36.4540   17.4915 C   0  0  0  0  0  0  0  0  0  0  0  0
   33.4797   36.4117   17.6615 N   0  0  0  0  0  0  0  0  0  0  0  0
   39.7018   41.0737   13.6293 C   0  0  1  0  0  0  0  0  0  0  0  0
   40.7710   41.2932   12.7035 O   0  0  0  0  0  0  0  0  0  0  0  0
   38.1974   36.0279    6.6969 C   0  0  0  0  0  0  0  0  0  0  0  0
   37.1857   36.2510    7.7786 N   0  0  0  0  0  0  0  0  0  0  0  0
  1  2  1  6  0  0  0
  1  7  1  0  0  0  0
  1 30  1  0  0  0  0
  3  4  1  1  0  0  0
  3  9  1  0  0  0  0
  3 38  1  0  0  0  0
  5 10  1  0  0  0  0
  5 26  1  1  0  0  0
  5 32  1  0  0  0  0
  6 12  1  0  0  0  0
  6 35  1  0  0  0  0
  6 19  1  1  0  0  0
  7  8  1  6  0  0  0
  7 14  1  0  0  0  0
  8 33  1  0  0  0  0
  9 16  1  0  0  0  0
 10 11  1  6  0  0  0
 10 18  1  0  0  0  0
 12 13  1  6  0  0  0
 12 20  1  0  0  0  0
 14 15  1  6  0  0  0
 14 22  1  0  0  0  0
 16 17  1  1  0  0  0
 16 24  1  0  0  0  0
 18 19  1  6  0  0  0
 18 25  1  0  0  0  0
 20 21  1  1  0  0  0
 20 27  1  0  0  0  0
 22 23  1  6  0  0  0
 22 29  1  0  0  0  0
 24  2  1  6  0  0  0
 24 31  1  0  0  0  0
 25 26  1  1  0  0  0
 25 33  1  0  0  0  0
 27 28  1  1  0  0  0
 27 34  1  0  0  0  0
 29 30  1  0  0  0  0
 29 36  1  1  0  0  0
 31 32  1  1  0  0  0
 31 38  1  0  0  0  0
 34 35  1  0  0  0  0
 34 40  1  6  0  0  0
 36 37  1  0  0  0  0
 38 39  1  6  0  0  0
 40 41  1  0  0  0  0
M  END
>  <CHROM.1>
-159.81866926,-163.67018940,-66.92465037,-179.42436015,38.73034287,37.20337621
11.88766918,2.34063054,0.74027526,0.64790183

>  <Name>
ligand

>  <RI>
0

>  <Rbt.Current_Directory>
/home/itssahil/PROJECTS/Mol_Feturizer/New_Systems/rnas/1ZZ5

>  <Rbt.Executable>
rbdock ($Id: //depot/dev/client3/rdock/2013.1/src/exe/rbdock.cxx#4 $)

>  <Rbt.Library>
libRbt.so (2013.1, Build901 2013/11/27)

>  <Rbt.Parameter_File>
/export/apps/rDock/src/rDock_2013.1_src/data/scripts/dock_solv.prm

>  <Rbt.Receptor>
prm/pocket_docking_8.prm

>  <SCORE>
-7.61417

>  <SCORE.INTER>
-7.33077

>  <SCORE.INTER.CONST>
1

>  <SCORE.INTER.POLAR>
0

>  <SCORE.INTER.ROT>
4

>  <SCORE.INTER.SOLV>
9.55591

>  <SCORE.INTER.VDW>
-14.3391

>  <SCORE.INTER.norm>
-0.178799

>  <SCORE.INTRA>
-0.284135

>  <SCORE.INTRA.DIHEDRAL>
-1.76389

>  <SCORE.INTRA.DIHEDRAL.0>
5.18357

>  <SCORE.INTRA.POLAR>
0

>  <SCORE.INTRA.POLAR.0>
0

>  <SCORE.INTRA.REPUL>
0

>  <SCORE.INTRA.REPUL.0>
0

>  <SCORE.INTRA.SOLV>
0.0252314

>  <SCORE.INTRA.SOLV.lig_0>
-109.973

>  <SCORE.INTRA.VDW>
0.585196

>  <SCORE.INTRA.VDW.0>
-1.68646

>  <SCORE.INTRA.norm>
-0.00693013

>  <SCORE.RESTR>
0.000733437

>  <SCORE.RESTR.CAVITY>
0.000733437

>  <SCORE.RESTR.norm>
1.78887e-05

>  <SCORE.SYSTEM>
0

>  <SCORE.SYSTEM.CONST>
0

>  <SCORE.SYSTEM.DIHEDRAL>
0

>  <SCORE.SYSTEM.SOLV>
0

>  <SCORE.SYSTEM.norm>
0

>  <SCORE.heavy>
41

>  <SCORE.norm>
-0.185711

>  <RMSD>
8.725

$$$$
ligand
 OpenBabel11021811423D
libRbt.so/2013.1/901 2013/11/27
 41 45  0  0  0  0  0  0  0  0999 V2000
   29.1793   41.9087    4.1107 C   0  0  2  0  0  0  0  0  0  0  0  0
   29.1221   41.9115    2.6709 O   0  0  0  0  0  0  0  0  0  0  0  0
   30.7814   44.3992   -0.4876 C   0  0  2  0  0  0  0  0  0  0  0  0
   31.1661   45.6147   -1.2504 N   0  0  0  0  0  0  0  0  0  0  0  0
   33.1230   41.9224    2.8676 C   0  0  1  0  0  0  0  0  0  0  0  0
   35.8048   38.6661    4.7793 C   0  0  1  0  0  0  0  0  0  0  0  0
   29.3239   40.4593    4.6638 C   0  0  2  0  0  0  0  0  0  0  0  0
   30.4592   39.7363    4.0828 N   0  0  0  0  0  0  0  0  0  0  0  0
   29.2509   44.4557   -0.1832 C   0  0  0  0  0  0  0  0  0  0  0  0
   33.9475   42.0189    4.1717 C   0  0  2  0  0  0  0  0  0  0  0  0
   35.2052   42.6686    3.9601 O   0  0  0  0  0  0  0  0  0  0  0  0
   36.2200   38.7738    6.3084 C   0  0  2  0  0  0  0  0  0  0  0  0
   37.2727   39.7989    6.5841 N   0  0  0  0  0  0  0  0  0  0  0  0
   28.0121   39.6624    4.4305 C   0  0  1  0  0  0  0  0  0  0  0  0
   28.1392   38.3461    4.9619 O   0  0  0  0  0  0  0  0  0  0  0  0
   28.7897   43.2072    0.6236 C   0  0  2  0  0  0  0  0  0  0  0  0
   27.3391   43.3328    0.8596 N   0  0  0  0  0  0  0  0  0  0  0  0
   34.0981   40.5624    4.6427 C   0  0  2  0  0  0  0  0  0  0  0  0
   35.3926   39.9688    4.2287 O   0  0  0  0  0  0  0  0  0  0  0  0
   36.7031   37.3489    6.8394 C   0  0  1  0  0  0  0  0  0  0  0  0
   35.6081   36.4076    6.8816 O   0  0  0  0  0  0  0  0  0  0  0  0
   26.8267   40.4044    5.0901 C   0  0  2  0  0  0  0  0  0  0  0  0
   25.6323   39.6761    4.8969 O   0  0  0  0  0  0  0  0  0  0  0  0
   29.6101   43.0953    1.9573 C   0  0  2  0  0  0  0  0  0  0  0  0
   32.9187   39.8427    3.9946 C   0  0  2  0  0  0  0  0  0  0  0  0
   32.5706   40.6051    2.8476 O   0  0  0  0  0  0  0  0  0  0  0  0
   37.8598   36.7411    5.9482 C   0  0  2  0  0  0  0  0  0  0  0  0
   39.0444   37.5411    6.1006 O   0  0  0  0  0  0  0  0  0  0  0  0
   26.6964   41.8243    4.5039 C   0  0  2  0  0  0  0  0  0  0  0  0
   27.9782   42.5332    4.7131 O   0  0  0  0  0  0  0  0  0  0  0  0
   31.1808   42.9977    1.6172 C   0  0  2  0  0  0  0  0  0  0  0  0
   32.0314   42.9222    2.8358 O   0  0  0  0  0  0  0  0  0  0  0  0
   31.6886   39.7555    4.8860 C   0  0  0  0  0  0  0  0  0  0  0  0
   37.4036   36.6995    4.4335 C   0  0  1  0  0  0  0  0  0  0  0  0
   36.9059   38.0368    3.9633 O   0  0  0  0  0  0  0  0  0  0  0  0
   25.5236   42.5647    5.1881 C   0  0  0  0  0  0  0  0  0  0  0  0
   25.3911   43.9878    4.8256 N   0  0  0  0  0  0  0  0  0  0  0  0
   31.6177   44.2591    0.8422 C   0  0  1  0  0  0  0  0  0  0  0  0
   33.0143   44.1738    0.5405 O   0  0  0  0  0  0  0  0  0  0  0  0
   38.5180   36.1530    3.4604 C   0  0  0  0  0  0  0  0  0  0  0  0
   38.9856   34.7518    3.7082 N   0  0  0  0  0  0  0  0  0  0  0  0
  1  2  1  6  0  0  0
  1  7  1  0  0  0  0
  1 30  1  0  0  0  0
  3  4  1  1  0  0  0
  3  9  1  0  0  0  0
  3 38  1  0  0  0  0
  5 10  1  0  0  0  0
  5 26  1  1  0  0  0
  5 32  1  0  0  0  0
  6 12  1  0  0  0  0
  6 35  1  0  0  0  0
  6 19  1  6  0  0  0
  7  8  1  6  0  0  0
  7 14  1  0  0  0  0
  8 33  1  0  0  0  0
  9 16  1  0  0  0  0
 10 11  1  6  0  0  0
 10 18  1  0  0  0  0
 12 13  1  6  0  0  0
 12 20  1  0  0  0  0
 14 15  1  1  0  0  0
 14 22  1  0  0  0  0
 16 17  1  1  0  0  0
 16 24  1  0  0  0  0
 18 19  1  6  0  0  0
 18 25  1  0  0  0  0
 20 21  1  6  0  0  0
 20 27  1  0  0  0  0
 22 23  1  6  0  0  0
 22 29  1  0  0  0  0
 24  2  1  6  0  0  0
 24 31  1  0  0  0  0
 25 26  1  6  0  0  0
 25 33  1  0  0  0  0
 27 28  1  6  0  0  0
 27 34  1  0  0  0  0
 29 30  1  0  0  0  0
 29 36  1  1  0  0  0
 31 32  1  1  0  0  0
 31 38  1  0  0  0  0
 34 35  1  0  0  0  0
 34 40  1  6  0  0  0
 36 37  1  0  0  0  0
 38 39  1  6  0  0  0
 40 41  1  0  0  0  0
M  END
>  <CHROM.1>
169.83621880,-71.80136208,173.29665876,61.01006811,32.12397258,40.71007316
3.72228250,2.61603512,0.18357330,-0.73899226

>  <Name>
ligand

>  <RI>
0

>  <Rbt.Current_Directory>
/home/itssahil/PROJECTS/Mol_Feturizer/New_Systems/rnas/1ZZ5

>  <Rbt.Executable>
rbdock ($Id: //depot/dev/client3/rdock/2013.1/src/exe/rbdock.cxx#4 $)

>  <Rbt.Library>
libRbt.so (2013.1, Build901 2013/11/27)

>  <Rbt.Parameter_File>
/export/apps/rDock/src/rDock_2013.1_src/data/scripts/dock_solv.prm

>  <Rbt.Receptor>
prm/pocket_docking_8.prm

>  <SCORE>
-14.27

>  <SCORE.INTER>
-12.3375

>  <SCORE.INTER.CONST>
1

>  <SCORE.INTER.POLAR>
0

>  <SCORE.INTER.ROT>
4

>  <SCORE.INTER.SOLV>
20.2767

>  <SCORE.INTER.VDW>
-21.2506

>  <SCORE.INTER.norm>
-0.300914

>  <SCORE.INTRA>
-1.94147

>  <SCORE.INTRA.DIHEDRAL>
-3.64524

>  <SCORE.INTRA.DIHEDRAL.0>
5.18357

>  <SCORE.INTRA.POLAR>
0

>  <SCORE.INTRA.POLAR.0>
0

>  <SCORE.INTRA.REPUL>
0

>  <SCORE.INTRA.REPUL.0>
0

>  <SCORE.INTRA.SOLV>
-0.931494

>  <SCORE.INTRA.SOLV.lig_0>
-109.973

>  <SCORE.INTRA.VDW>
0.346892

>  <SCORE.INTRA.VDW.0>
-1.68646

>  <SCORE.INTRA.norm>
-0.047353

>  <SCORE.RESTR>
0.00890915

>  <SCORE.RESTR.CAVITY>
0.00890915

>  <SCORE.RESTR.norm>
0.000217296

>  <SCORE.SYSTEM>
0

>  <SCORE.SYSTEM.CONST>
0

>  <SCORE.SYSTEM.DIHEDRAL>
0

>  <SCORE.SYSTEM.SOLV>
0

>  <SCORE.SYSTEM.norm>
0

>  <SCORE.heavy>
41

>  <SCORE.norm>
-0.34805

>  <RMSD>
8.756

$$$$
ligand
 OpenBabel11021811423D
libRbt.so/2013.1/901 2013/11/27
 41 45  0  0  0  0  0  0  0  0999 V2000
   41.2189   41.9782    7.2113 C   0  0  2  0  0  0  0  0  0  0  0  0
   41.1859   40.5492    7.0291 O   0  0  0  0  0  0  0  0  0  0  0  0
   39.2931   37.2111    9.0766 C   0  0  2  0  0  0  0  0  0  0  0  0
   38.8421   36.3253   10.1808 N   0  0  0  0  0  0  0  0  0  0  0  0
   37.2055   40.9987    7.0343 C   0  0  1  0  0  0  0  0  0  0  0  0
   34.6526   41.3593    4.9425 C   0  0  1  0  0  0  0  0  0  0  0  0
   41.1323   42.7204    5.8440 C   0  0  2  0  0  0  0  0  0  0  0  0
   39.9746   42.3106    5.0435 N   0  0  0  0  0  0  0  0  0  0  0  0
   40.8385   37.4072    9.1837 C   0  0  0  0  0  0  0  0  0  0  0  0
   36.4627   42.3298    7.2914 C   0  0  2  0  0  0  0  0  0  0  0  0
   35.1841   42.1179    7.8987 O   0  0  0  0  0  0  0  0  0  0  0  0
   33.7562   41.2855    3.6336 C   0  0  2  0  0  0  0  0  0  0  0  0
   32.5532   42.1724    3.6671 N   0  0  0  0  0  0  0  0  0  0  0  0
   42.4395   42.5075    5.0339 C   0  0  1  0  0  0  0  0  0  0  0  0
   42.3668   43.2100    3.7961 O   0  0  0  0  0  0  0  0  0  0  0  0
   41.3690   38.3358    8.0531 C   0  0  2  0  0  0  0  0  0  0  0  0
   42.8294   38.4605    8.2193 N   0  0  0  0  0  0  0  0  0  0  0  0
   36.3651   42.9920    5.9065 C   0  0  2  0  0  0  0  0  0  0  0  0
   35.0568   42.7411    5.2545 O   0  0  0  0  0  0  0  0  0  0  0  0
   33.3068   39.7775    3.3701 C   0  0  1  0  0  0  0  0  0  0  0  0
   34.4365   38.9487    3.0186 O   0  0  0  0  0  0  0  0  0  0  0  0
   43.6518   42.9894    5.8638 C   0  0  2  0  0  0  0  0  0  0  0  0
   44.8432   42.8148    5.1260 O   0  0  0  0  0  0  0  0  0  0  0  0
   40.6355   39.7227    8.1074 C   0  0  2  0  0  0  0  0  0  0  0  0
   37.5130   42.3672    5.1185 C   0  0  2  0  0  0  0  0  0  0  0  0
   37.7765   41.1121    5.7296 O   0  0  0  0  0  0  0  0  0  0  0  0
   32.5837   39.1426    4.6254 C   0  0  2  0  0  0  0  0  0  0  0  0
   31.3244   39.8047    4.8308 O   0  0  0  0  0  0  0  0  0  0  0  0
   43.7226   42.2191    7.1974 C   0  0  2  0  0  0  0  0  0  0  0  0
   42.4452   42.4175    7.9174 O   0  0  0  0  0  0  0  0  0  0  0  0
   39.0483   39.4992    7.9546 C   0  0  2  0  0  0  0  0  0  0  0  0
   38.2770   40.7694    8.0300 O   0  0  0  0  0  0  0  0  0  0  0  0
   38.7976   43.1818    5.1563 C   0  0  0  0  0  0  0  0  0  0  0  0
   33.5058   39.2847    5.9036 C   0  0  1  0  0  0  0  0  0  0  0  0
   33.9601   40.7018    6.1097 O   0  0  0  0  0  0  0  0  0  0  0  0
   44.9239   42.7265    8.0288 C   0  0  0  0  0  0  0  0  0  0  0  0
   45.1056   42.0577    9.3303 N   0  0  0  0  0  0  0  0  0  0  0  0
   38.5438   38.5987    9.1024 C   0  0  1  0  0  0  0  0  0  0  0  0
   37.1326   38.4005    8.9682 O   0  0  0  0  0  0  0  0  0  0  0  0
   32.8412   38.7222    7.2187 C   0  0  0  0  0  0  0  0  0  0  0  0
   33.5133   39.0829    8.5077 N   0  0  0  0  0  0  0  0  0  0  0  0
  1  2  1  6  0  0  0
  1  7  1  0  0  0  0
  1 30  1  0  0  0  0
  3  4  1  1  0  0  0
  3  9  1  0  0  0  0
  3 38  1  0  0  0  0
  5 10  1  0  0  0  0
  5 26  1  6  0  0  0
  5 32  1  0  0  0  0
  6 12  1  0  0  0  0
  6 35  1  0  0  0  0
  6 19  1  1  0  0  0
  7  8  1  6  0  0  0
  7 14  1  0  0  0  0
  8 33  1  0  0  0  0
  9 16  1  0  0  0  0
 10 11  1  6  0  0  0
 10 18  1  0  0  0  0
 12 13  1  1  0  0  0
 12 20  1  0  0  0  0
 14 15  1  6  0  0  0
 14 22  1  0  0  0  0
 16 17  1  1  0  0  0
 16 24  1  0  0  0  0
 18 19  1  6  0  0  0
 18 25  1  0  0  0  0
 20 21  1  1  0  0  0
 20 27  1  0  0  0  0
 22 23  1  6  0  0  0
 22 29  1  0  0  0  0
 24  2  1  6  0  0  0
 24 31  1  0  0  0  0
 25 26  1  1  0  0  0
 25 33  1  0  0  0  0
 27 28  1  1  0  0  0
 27 34  1  0  0  0  0
 29 30  1  0  0  0  0
 29 36  1  1  0  0  0
 31 32  1  1  0  0  0
 31 38  1  0  0  0  0
 34 35  1  0  0  0  0
 34 40  1  1  0  0  0
 36 37  1  0  0  0  0
 38 39  1  6  0  0  0
 40 41  1  0  0  0  0
M  END
>  <CHROM.1>
-61.58778283,-147.95447537,-179.61041420,-167.20207337,38.29065506,40.77852760
6.56205107,-0.03229221,-0.22843286,-0.75158636

>  <Name>
ligand

>  <RI>
0

>  <Rbt.Current_Directory>
/home/itssahil/PROJECTS/Mol_Feturizer/New_Systems/rnas/1ZZ5

>  <Rbt.Executable>
rbdock ($Id: //depot/dev/client3/rdock/2013.1/src/exe/rbdock.cxx#4 $)

>  <Rbt.Library>
libRbt.so (2013.1, Build901 2013/11/27)

>  <Rbt.Parameter_File>
/export/apps/rDock/src/rDock_2013.1_src/data/scripts/dock_solv.prm

>  <Rbt.Receptor>
prm/pocket_docking_6.prm

>  <SCORE>
-9.54467

>  <SCORE.INTER>
-9.52874

>  <SCORE.INTER.CONST>
1

>  <SCORE.INTER.POLAR>
0

>  <SCORE.INTER.ROT>
4

>  <SCORE.INTER.SOLV>
14.7257

>  <SCORE.INTER.VDW>
-17.5277

>  <SCORE.INTER.norm>
-0.232408

>  <SCORE.INTRA>
-0.0201414

>  <SCORE.INTRA.DIHEDRAL>
-0.524087

>  <SCORE.INTRA.DIHEDRAL.0>
5.18357

>  <SCORE.INTRA.POLAR>
0

>  <SCORE.INTRA.POLAR.0>
0

>  <SCORE.INTRA.REPUL>
4.7182e-05

>  <SCORE.INTRA.REPUL.0>
0

>  <SCORE.INTRA.SOLV>
0.611769

>  <SCORE.INTRA.SOLV.lig_0>
-109.973

>  <SCORE.INTRA.VDW>
-0.0642183

>  <SCORE.INTRA.VDW.0>
-1.68646

>  <SCORE.INTRA.norm>
-0.000491254

>  <SCORE.RESTR>
0.00420994

>  <SCORE.RESTR.CAVITY>
0.00420994

>  <SCORE.RESTR.norm>
0.000102682

>  <SCORE.SYSTEM>
0

>  <SCORE.SYSTEM.CONST>
0

>  <SCORE.SYSTEM.DIHEDRAL>
0

>  <SCORE.SYSTEM.SOLV>
0

>  <SCORE.SYSTEM.norm>
0

>  <SCORE.heavy>
41

>  <SCORE.norm>
-0.232797

>  <RMSD>
8.763

$$$$
ligand
 OpenBabel11021811423D
libRbt.so/2013.1/901 2013/11/27
 41 45  0  0  0  0  0  0  0  0999 V2000
   43.3702   43.5044    5.2991 C   0  0  2  0  0  0  0  0  0  0  0  0
   42.6770   43.4428    6.5609 O   0  0  0  0  0  0  0  0  0  0  0  0
   38.5134   43.5559    7.8136 C   0  0  2  0  0  0  0  0  0  0  0  0
   37.0968   43.9926    7.9124 N   0  0  0  0  0  0  0  0  0  0  0  0
   40.6404   40.4258    4.8890 C   0  0  1  0  0  0  0  0  0  0  0  0
   42.4101   36.4414    3.7277 C   0  0  1  0  0  0  0  0  0  0  0  0
   44.5599   42.4990    5.2626 C   0  0  2  0  0  0  0  0  0  0  0  0
   44.1584   41.1264    5.5850 N   0  0  0  0  0  0  0  0  0  0  0  0
   39.4414   44.7774    8.1051 C   0  0  0  0  0  0  0  0  0  0  0  0
   40.7896   39.9588    3.4229 C   0  0  2  0  0  0  0  0  0  0  0  0
   39.5712   39.4077    2.9125 O   0  0  0  0  0  0  0  0  0  0  0  0
   41.7742   35.0289    3.3773 C   0  0  2  0  0  0  0  0  0  0  0  0
   40.5056   34.7321    4.1103 N   0  0  0  0  0  0  0  0  0  0  0  0
   45.6846   42.9630    6.2271 C   0  0  1  0  0  0  0  0  0  0  0  0
   46.7818   42.0552    6.1704 O   0  0  0  0  0  0  0  0  0  0  0  0
   40.9432   44.3807    8.0084 C   0  0  2  0  0  0  0  0  0  0  0  0
   41.7473   45.5812    8.3053 N   0  0  0  0  0  0  0  0  0  0  0  0
   41.9398   38.9380    3.4574 C   0  0  2  0  0  0  0  0  0  0  0  0
   41.4490   37.5405    3.5320 O   0  0  0  0  0  0  0  0  0  0  0  0
   42.8389   33.8730    3.6529 C   0  0  1  0  0  0  0  0  0  0  0  0
   43.9469   33.9512    2.7294 O   0  0  0  0  0  0  0  0  0  0  0  0
   46.1391   44.3917    5.8493 C   0  0  2  0  0  0  0  0  0  0  0  0
   47.1746   44.8139    6.7118 O   0  0  0  0  0  0  0  0  0  0  0  0
   41.2518   43.7843    6.5894 C   0  0  2  0  0  0  0  0  0  0  0  0
   42.7335   39.3206    4.7035 C   0  0  2  0  0  0  0  0  0  0  0  0
   41.8233   39.9925    5.5626 O   0  0  0  0  0  0  0  0  0  0  0  0
   43.4050   33.9231    5.1289 C   0  0  2  0  0  0  0  0  0  0  0  0
   42.3522   33.5942    6.0507 O   0  0  0  0  0  0  0  0  0  0  0  0
   44.9454   45.3648    5.9190 C   0  0  2  0  0  0  0  0  0  0  0  0
   43.8846   44.8649    5.0166 O   0  0  0  0  0  0  0  0  0  0  0  0
   40.3126   42.5030    6.3275 C   0  0  2  0  0  0  0  0  0  0  0  0
   40.5225   41.8987    4.9842 O   0  0  0  0  0  0  0  0  0  0  0  0
   43.8940   40.2646    4.4255 C   0  0  0  0  0  0  0  0  0  0  0  0
   43.9843   35.3642    5.4321 C   0  0  1  0  0  0  0  0  0  0  0  0
   42.9868   36.4438    5.1211 O   0  0  0  0  0  0  0  0  0  0  0  0
   45.4067   46.7848    5.5158 C   0  0  0  0  0  0  0  0  0  0  0  0
   44.3615   47.8223    5.5902 N   0  0  0  0  0  0  0  0  0  0  0  0
   38.8307   42.9288    6.4017 C   0  0  1  0  0  0  0  0  0  0  0  0
   37.9950   41.7907    6.1677 O   0  0  0  0  0  0  0  0  0  0  0  0
   44.5265   35.5223    6.9047 C   0  0  0  0  0  0  0  0  0  0  0  0
   45.1547   36.8394    7.2420 N   0  0  0  0  0  0  0  0  0  0  0  0
  1  2  1  1  0  0  0
  1  7  1  0  0  0  0
  1 30  1  0  0  0  0
  3  4  1  6  0  0  0
  3  9  1  0  0  0  0
  3 38  1  0  0  0  0
  5 10  1  0  0  0  0
  5 26  1  1  0  0  0
  5 32  1  0  0  0  0
  6 12  1  0  0  0  0
  6 35  1  0  0  0  0
  6 19  1  1  0  0  0
  7  8  1  1  0  0  0
  7 14  1  0  0  0  0
  8 33  1  0  0  0  0
  9 16  1  0  0  0  0
 10 11  1  1  0  0  0
 10 18  1  0  0  0  0
 12 13  1  1  0  0  0
 12 20  1  0  0  0  0
 14 15  1  6  0  0  0
 14 22  1  0  0  0  0
 16 17  1  6  0  0  0
 16 24  1  0  0  0  0
 18 19  1  1  0  0  0
 18 25  1  0  0  0  0
 20 21  1  6  0  0  0
 20 27  1  0  0  0  0
 22 23  1  1  0  0  0
 22 29  1  0  0  0  0
 24  2  1  1  0  0  0
 24 31  1  0  0  0  0
 25 26  1  1  0  0  0
 25 33  1  0  0  0  0
 27 28  1  1  0  0  0
 27 34  1  0  0  0  0
 29 30  1  0  0  0  0
 29 36  1  6  0  0  0
 31 32  1  6  0  0  0
 31 38  1  0  0  0  0
 34 35  1  0  0  0  0
 34 40  1  1  0  0  0
 36 37  1  0  0  0  0
 38 39  1  1  0  0  0
 40 41  1  0  0  0  0
M  END
>  <CHROM.1>
-173.06183925,-163.93042268,-177.86319411,176.96017035,42.50886885,40.62177772
5.51896693,-1.55788451,-0.06272194,-2.93063893

>  <Name>
ligand

>  <RI>
0

>  <Rbt.Current_Directory>
/home/itssahil/PROJECTS/Mol_Feturizer/New_Systems/rnas/1ZZ5

>  <Rbt.Executable>
rbdock ($Id: //depot/dev/client3/rdock/2013.1/src/exe/rbdock.cxx#4 $)

>  <Rbt.Library>
libRbt.so (2013.1, Build901 2013/11/27)

>  <Rbt.Parameter_File>
/export/apps/rDock/src/rDock_2013.1_src/data/scripts/dock_solv.prm

>  <Rbt.Receptor>
prm/pocket_docking_7.prm

>  <SCORE>
-5.91055

>  <SCORE.INTER>
-3.80756

>  <SCORE.INTER.CONST>
1

>  <SCORE.INTER.POLAR>
0

>  <SCORE.INTER.ROT>
4

>  <SCORE.INTER.SOLV>
7.59183

>  <SCORE.INTER.VDW>
-11.3356

>  <SCORE.INTER.norm>
-0.0928672

>  <SCORE.INTRA>
-2.10299

>  <SCORE.INTRA.DIHEDRAL>
-3.49053

>  <SCORE.INTRA.DIHEDRAL.0>
5.18357

>  <SCORE.INTRA.POLAR>
0

>  <SCORE.INTRA.POLAR.0>
0

>  <SCORE.INTRA.REPUL>
0

>  <SCORE.INTRA.REPUL.0>
0

>  <SCORE.INTRA.SOLV>
-1.29548

>  <SCORE.INTRA.SOLV.lig_0>
-109.973

>  <SCORE.INTRA.VDW>
0.290014

>  <SCORE.INTRA.VDW.0>
-1.68646

>  <SCORE.INTRA.norm>
-0.0512925

>  <SCORE.RESTR>
0

>  <SCORE.RESTR.CAVITY>
0

>  <SCORE.RESTR.norm>
0

>  <SCORE.SYSTEM>
0

>  <SCORE.SYSTEM.CONST>
0

>  <SCORE.SYSTEM.DIHEDRAL>
0

>  <SCORE.SYSTEM.SOLV>
0

>  <SCORE.SYSTEM.norm>
0

>  <SCORE.heavy>
41

>  <SCORE.norm>
-0.14416

>  <RMSD>
8.997

$$$$
ligand
 OpenBabel11021811423D
libRbt.so/2013.1/901 2013/11/27
 41 45  0  0  0  0  0  0  0  0999 V2000
   35.7902   38.9136    7.0050 C   0  0  2  0  0  0  0  0  0  0  0  0
   36.5159   37.9758    6.1861 O   0  0  0  0  0  0  0  0  0  0  0  0
   39.9986   35.4302    6.7415 C   0  0  2  0  0  0  0  0  0  0  0  0
   41.3688   35.0037    7.1258 N   0  0  0  0  0  0  0  0  0  0  0  0
   35.8959   35.4106    9.1996 C   0  0  1  0  0  0  0  0  0  0  0  0
   32.6958   34.0942   12.1104 C   0  0  1  0  0  0  0  0  0  0  0  0
   34.2532   38.7728    6.7917 C   0  0  2  0  0  0  0  0  0  0  0  0
   33.7713   37.4030    6.9932 N   0  0  0  0  0  0  0  0  0  0  0  0
   40.0990   36.6867    5.8199 C   0  0  0  0  0  0  0  0  0  0  0  0
   35.2208   35.7667   10.5439 C   0  0  2  0  0  0  0  0  0  0  0  0
   35.7159   34.9614   11.6186 O   0  0  0  0  0  0  0  0  0  0  0  0
   31.2971   34.8299   12.2672 C   0  0  2  0  0  0  0  0  0  0  0  0
   31.3194   36.2729   11.8771 N   0  0  0  0  0  0  0  0  0  0  0  0
   33.8602   39.2702    5.3745 C   0  0  1  0  0  0  0  0  0  0  0  0
   32.4505   39.1650    5.1935 O   0  0  0  0  0  0  0  0  0  0  0  0
   38.6888   37.1851    5.3898 C   0  0  2  0  0  0  0  0  0  0  0  0
   38.8719   38.3613    4.5186 N   0  0  0  0  0  0  0  0  0  0  0  0
   33.7177   35.5640   10.2876 C   0  0  2  0  0  0  0  0  0  0  0  0
   33.2425   34.2375   10.7500 O   0  0  0  0  0  0  0  0  0  0  0  0
   30.7752   34.6854   13.7680 C   0  0  1  0  0  0  0  0  0  0  0  0
   30.4399   33.3143   14.0756 O   0  0  0  0  0  0  0  0  0  0  0  0
   34.3261   40.7326    5.1872 C   0  0  2  0  0  0  0  0  0  0  0  0
   33.9564   41.1978    3.9061 O   0  0  0  0  0  0  0  0  0  0  0  0
   37.8209   37.5039    6.6584 C   0  0  2  0  0  0  0  0  0  0  0  0
   33.5795   35.7129    8.7750 C   0  0  2  0  0  0  0  0  0  0  0  0
   34.8496   35.3897    8.2270 O   0  0  0  0  0  0  0  0  0  0  0  0
   31.8392   35.1953   14.8212 C   0  0  2  0  0  0  0  0  0  0  0  0
   31.9928   36.6183   14.6874 O   0  0  0  0  0  0  0  0  0  0  0  0
   35.8523   40.8328    5.3803 C   0  0  2  0  0  0  0  0  0  0  0  0
   36.1859   40.3138    6.7253 O   0  0  0  0  0  0  0  0  0  0  0  0
   37.6975   36.1842    7.5725 C   0  0  2  0  0  0  0  0  0  0  0  0
   36.9140   36.4149    8.8162 O   0  0  0  0  0  0  0  0  0  0  0  0
   33.2251   37.1234    8.3275 C   0  0  0  0  0  0  0  0  0  0  0  0
   33.2203   34.4589   14.5873 C   0  0  1  0  0  0  0  0  0  0  0  0
   33.6734   34.5627   13.1586 O   0  0  0  0  0  0  0  0  0  0  0  0
   36.3029   42.3030    5.2149 C   0  0  0  0  0  0  0  0  0  0  0  0
   37.7466   42.5355    5.4042 N   0  0  0  0  0  0  0  0  0  0  0  0
   39.1063   35.7274    8.0076 C   0  0  1  0  0  0  0  0  0  0  0  0
   38.9976   34.5549    8.8213 O   0  0  0  0  0  0  0  0  0  0  0  0
   34.3599   34.9440   15.5636 C   0  0  0  0  0  0  0  0  0  0  0  0
   34.1052   34.7524   17.0271 N   0  0  0  0  0  0  0  0  0  0  0  0
  1  2  1  6  0  0  0
  1  7  1  0  0  0  0
  1 30  1  0  0  0  0
  3  4  1  1  0  0  0
  3  9  1  0  0  0  0
  3 38  1  0  0  0  0
  5 10  1  0  0  0  0
  5 26  1  6  0  0  0
  5 32  1  0  0  0  0
  6 12  1  0  0  0  0
  6 35  1  0  0  0  0
  6 19  1  6  0  0  0
  7  8  1  6  0  0  0
  7 14  1  0  0  0  0
  8 33  1  0  0  0  0
  9 16  1  0  0  0  0
 10 11  1  1  0  0  0
 10 18  1  0  0  0  0
 12 13  1  1  0  0  0
 12 20  1  0  0  0  0
 14 15  1  1  0  0  0
 14 22  1  0  0  0  0
 16 17  1  6  0  0  0
 16 24  1  0  0  0  0
 18 19  1  6  0  0  0
 18 25  1  0  0  0  0
 20 21  1  1  0  0  0
 20 27  1  0  0  0  0
 22 23  1  6  0  0  0
 22 29  1  0  0  0  0
 24  2  1  6  0  0  0
 24 31  1  0  0  0  0
 25 26  1  6  0  0  0
 25 33  1  0  0  0  0
 27 28  1  6  0  0  0
 27 34  1  0  0  0  0
 29 30  1  0  0  0  0
 29 36  1  1  0  0  0
 31 32  1  1  0  0  0
 31 38  1  0  0  0  0
 34 35  1  0  0  0  0
 34 40  1  1  0  0  0
 36 37  1  0  0  0  0
 38 39  1  1  0  0  0
 40 41  1  0  0  0  0
M  END
>  <CHROM.1>
92.45200357,69.26887899,178.82943966,60.24783530,35.14454454,36.83294594
9.05160203,1.09318273,0.37832856,-0.89609569

>  <Name>
ligand

>  <RI>
0

>  <Rbt.Current_Directory>
/home/itssahil/PROJECTS/Mol_Feturizer/New_Systems/rnas/1ZZ5

>  <Rbt.Executable>
rbdock ($Id: //depot/dev/client3/rdock/2013.1/src/exe/rbdock.cxx#4 $)

>  <Rbt.Library>
libRbt.so (2013.1, Build901 2013/11/27)

>  <Rbt.Parameter_File>
/export/apps/rDock/src/rDock_2013.1_src/data/scripts/dock_solv.prm

>  <Rbt.Receptor>
prm/pocket_docking_7.prm

>  <SCORE>
-7.04019

>  <SCORE.INTER>
-7.4279

>  <SCORE.INTER.CONST>
1

>  <SCORE.INTER.POLAR>
0

>  <SCORE.INTER.ROT>
4

>  <SCORE.INTER.SOLV>
13.4719

>  <SCORE.INTER.VDW>
-15.7092

>  <SCORE.INTER.norm>
-0.181168

>  <SCORE.INTRA>
0.387712

>  <SCORE.INTRA.DIHEDRAL>
-0.530765

>  <SCORE.INTRA.DIHEDRAL.0>
5.18357

>  <SCORE.INTRA.POLAR>
0

>  <SCORE.INTRA.POLAR.0>
0

>  <SCORE.INTRA.REPUL>
0

>  <SCORE.INTRA.REPUL.0>
0

>  <SCORE.INTRA.SOLV>
1.2063

>  <SCORE.INTRA.SOLV.lig_0>
-109.973

>  <SCORE.INTRA.VDW>
0.0499439

>  <SCORE.INTRA.VDW.0>
-1.68646

>  <SCORE.INTRA.norm>
0.00945639

>  <SCORE.RESTR>
0

>  <SCORE.RESTR.CAVITY>
0

>  <SCORE.RESTR.norm>
0

>  <SCORE.SYSTEM>
0

>  <SCORE.SYSTEM.CONST>
0

>  <SCORE.SYSTEM.DIHEDRAL>
0

>  <SCORE.SYSTEM.SOLV>
0

>  <SCORE.SYSTEM.norm>
0

>  <SCORE.heavy>
41

>  <SCORE.norm>
-0.171712

>  <RMSD>
9.075

$$$$
ligand
 OpenBabel11021811423D
libRbt.so/2013.1/901 2013/11/27
 41 45  0  0  0  0  0  0  0  0999 V2000
   42.3639   46.3308    6.8515 C   0  0  2  0  0  0  0  0  0  0  0  0
   42.1681   45.7350    8.1489 O   0  0  0  0  0  0  0  0  0  0  0  0
   38.7935   44.0156   10.2875 C   0  0  2  0  0  0  0  0  0  0  0  0
   37.4241   43.8632   10.8430 N   0  0  0  0  0  0  0  0  0  0  0  0
   40.6592   42.6384    6.1045 C   0  0  1  0  0  0  0  0  0  0  0  0
   42.8873   40.0296    2.9909 C   0  0  1  0  0  0  0  0  0  0  0  0
   43.7132   45.8726    6.2214 C   0  0  2  0  0  0  0  0  0  0  0  0
   43.8521   44.4142    6.1659 N   0  0  0  0  0  0  0  0  0  0  0  0
   39.3721   45.3943   10.7376 C   0  0  0  0  0  0  0  0  0  0  0  0
   40.4511   42.6024    4.5731 C   0  0  2  0  0  0  0  0  0  0  0  0
   39.3466   41.7699    4.2048 O   0  0  0  0  0  0  0  0  0  0  0  0
   42.5317   38.5620    2.4991 C   0  0  2  0  0  0  0  0  0  0  0  0
   42.0885   37.6430    3.5917 N   0  0  0  0  0  0  0  0  0  0  0  0
   44.9062   46.4897    6.9999 C   0  0  1  0  0  0  0  0  0  0  0  0
   46.1375   46.0899    6.4040 O   0  0  0  0  0  0  0  0  0  0  0  0
   40.8074   45.6138   10.1774 C   0  0  2  0  0  0  0  0  0  0  0  0
   41.2823   46.9265   10.6540 N   0  0  0  0  0  0  0  0  0  0  0  0
   41.7923   42.0997    4.0122 C   0  0  2  0  0  0  0  0  0  0  0  0
   41.7774   40.6417    3.7416 O   0  0  0  0  0  0  0  0  0  0  0  0
   43.7822   37.9292    1.7366 C   0  0  1  0  0  0  0  0  0  0  0  0
   44.0404   38.6181    0.4934 O   0  0  0  0  0  0  0  0  0  0  0  0
   44.7809   48.0308    7.0105 C   0  0  2  0  0  0  0  0  0  0  0  0
   45.8724   48.6002    7.7022 O   0  0  0  0  0  0  0  0  0  0  0  0
   40.7954   45.5095    8.6111 C   0  0  2  0  0  0  0  0  0  0  0  0
   42.8024   42.4578    5.0988 C   0  0  2  0  0  0  0  0  0  0  0  0
   42.0687   42.5337    6.3129 O   0  0  0  0  0  0  0  0  0  0  0  0
   45.0962   37.9619    2.6164 C   0  0  2  0  0  0  0  0  0  0  0  0
   44.9388   37.0726    3.7348 O   0  0  0  0  0  0  0  0  0  0  0  0
   43.4481   48.4510    7.6616 C   0  0  2  0  0  0  0  0  0  0  0  0
   42.3431   47.8111    6.9138 O   0  0  0  0  0  0  0  0  0  0  0  0
   40.2336   44.0661    8.1714 C   0  0  2  0  0  0  0  0  0  0  0  0
   40.1596   43.9011    6.6945 O   0  0  0  0  0  0  0  0  0  0  0  0
   43.4850   43.8005    4.8831 C   0  0  0  0  0  0  0  0  0  0  0  0
   45.3734   39.4394    3.1109 C   0  0  1  0  0  0  0  0  0  0  0  0
   44.1705   40.0381    3.7831 O   0  0  0  0  0  0  0  0  0  0  0  0
   43.3231   49.9923    7.6444 C   0  0  0  0  0  0  0  0  0  0  0  0
   43.2876   50.5980    6.3005 N   0  0  0  0  0  0  0  0  0  0  0  0
   38.8005   43.8853    8.7157 C   0  0  1  0  0  0  0  0  0  0  0  0
   38.2997   42.6029    8.3243 O   0  0  0  0  0  0  0  0  0  0  0  0
   46.6412   39.5590    4.0413 C   0  0  0  0  0  0  0  0  0  0  0  0
   46.9638   40.9307    4.5492 N   0  0  0  0  0  0  0  0  0  0  0  0
  1  2  1  1  0  0  0
  1  7  1  0  0  0  0
  1 30  1  0  0  0  0
  3  4  1  6  0  0  0
  3  9  1  0  0  0  0
  3 38  1  0  0  0  0
  5 10  1  0  0  0  0
  5 26  1  6  0  0  0
  5 32  1  0  0  0  0
  6 12  1  0  0  0  0
  6 35  1  0  0  0  0
  6 19  1  1  0  0  0
  7  8  1  1  0  0  0
  7 14  1  0  0  0  0
  8 33  1  0  0  0  0
  9 16  1  0  0  0  0
 10 11  1  1  0  0  0
 10 18  1  0  0  0  0
 12 13  1  1  0  0  0
 12 20  1  0  0  0  0
 14 15  1  6  0  0  0
 14 22  1  0  0  0  0
 16 17  1  6  0  0  0
 16 24  1  0  0  0  0
 18 19  1  1  0  0  0
 18 25  1  0  0  0  0
 20 21  1  6  0  0  0
 20 27  1  0  0  0  0
 22 23  1  1  0  0  0
 22 29  1  0  0  0  0
 24  2  1  1  0  0  0
 24 31  1  0  0  0  0
 25 26  1  1  0  0  0
 25 33  1  0  0  0  0
 27 28  1  1  0  0  0
 27 34  1  0  0  0  0
 29 30  1  0  0  0  0
 29 36  1  6  0  0  0
 31 32  1  6  0  0  0
 31 38  1  0  0  0  0
 34 35  1  0  0  0  0
 34 40  1  1  0  0  0
 36 37  1  0  0  0  0
 38 39  1  1  0  0  0
 40 41  1  0  0  0  0
M  END
>  <CHROM.1>
169.56732865,-166.07987053,62.50781651,-179.92664127,42.52414741,43.41322497
6.06222418,-1.80636353,-0.50256341,-2.65351256

>  <Name>
ligand

>  <RI>
0

>  <Rbt.Current_Directory>
/home/itssahil/PROJECTS/Mol_Feturizer/New_Systems/rnas/1ZZ5

>  <Rbt.Executable>
rbdock ($Id: //depot/dev/client3/rdock/2013.1/src/exe/rbdock.cxx#4 $)

>  <Rbt.Library>
libRbt.so (2013.1, Build901 2013/11/27)

>  <Rbt.Parameter_File>
/export/apps/rDock/src/rDock_2013.1_src/data/scripts/dock_solv.prm

>  <Rbt.Receptor>
prm/pocket_docking_7.prm

>  <SCORE>
-8.75003

>  <SCORE.INTER>
-6.97758

>  <SCORE.INTER.CONST>
1

>  <SCORE.INTER.POLAR>
0

>  <SCORE.INTER.ROT>
4

>  <SCORE.INTER.SOLV>
7.54102

>  <SCORE.INTER.VDW>
-13.4321

>  <SCORE.INTER.norm>
-0.170185

>  <SCORE.INTRA>
-1.77246

>  <SCORE.INTRA.DIHEDRAL>
-3.51685

>  <SCORE.INTRA.DIHEDRAL.0>
5.18357

>  <SCORE.INTRA.POLAR>
0

>  <SCORE.INTRA.POLAR.0>
0

>  <SCORE.INTRA.REPUL>
0

>  <SCORE.INTRA.REPUL.0>
0

>  <SCORE.INTRA.SOLV>
-0.0524186

>  <SCORE.INTRA.SOLV.lig_0>
-109.973

>  <SCORE.INTRA.VDW>
0.0121762

>  <SCORE.INTRA.VDW.0>
-1.68646

>  <SCORE.INTRA.norm>
-0.0432306

>  <SCORE.RESTR>
0

>  <SCORE.RESTR.CAVITY>
0

>  <SCORE.RESTR.norm>
0

>  <SCORE.SYSTEM>
0

>  <SCORE.SYSTEM.CONST>
0

>  <SCORE.SYSTEM.DIHEDRAL>
0

>  <SCORE.SYSTEM.SOLV>
0

>  <SCORE.SYSTEM.norm>
0

>  <SCORE.heavy>
41

>  <SCORE.norm>
-0.213415

>  <RMSD>
9.112

$$$$
ligand
 OpenBabel11021811423D
libRbt.so/2013.1/901 2013/11/27
 41 45  0  0  0  0  0  0  0  0999 V2000
   28.3883   39.6768    2.6047 C   0  0  2  0  0  0  0  0  0  0  0  0
   28.6457   39.7574    1.1891 O   0  0  0  0  0  0  0  0  0  0  0  0
   29.7161   42.9306   -1.5862 C   0  0  2  0  0  0  0  0  0  0  0  0
   29.6977   44.2456   -2.2774 N   0  0  0  0  0  0  0  0  0  0  0  0
   32.1120   41.4444    2.2771 C   0  0  1  0  0  0  0  0  0  0  0  0
   35.3943   41.6054    4.8619 C   0  0  1  0  0  0  0  0  0  0  0  0
   29.0164   38.3891    3.2168 C   0  0  2  0  0  0  0  0  0  0  0  0
   30.4472   38.2570    2.9257 N   0  0  0  0  0  0  0  0  0  0  0  0
   28.2827   42.3132   -1.6343 C   0  0  0  0  0  0  0  0  0  0  0  0
   32.5151   41.7874    3.7296 C   0  0  2  0  0  0  0  0  0  0  0  0
   33.3871   42.9210    3.7870 O   0  0  0  0  0  0  0  0  0  0  0  0
   36.9614   41.3502    4.8268 C   0  0  2  0  0  0  0  0  0  0  0  0
   37.3738   40.0128    5.3524 N   0  0  0  0  0  0  0  0  0  0  0  0
   28.2554   37.1312    2.7181 C   0  0  1  0  0  0  0  0  0  0  0  0
   28.8159   35.9580    3.3015 O   0  0  0  0  0  0  0  0  0  0  0  0
   28.2386   40.9330   -0.9164 C   0  0  2  0  0  0  0  0  0  0  0  0
   26.8604   40.4166   -1.0151 N   0  0  0  0  0  0  0  0  0  0  0  0
   33.1693   40.5017    4.2634 C   0  0  2  0  0  0  0  0  0  0  0  0
   34.6487   40.5419    4.1670 O   0  0  0  0  0  0  0  0  0  0  0  0
   37.7153   42.5020    5.6335 C   0  0  1  0  0  0  0  0  0  0  0  0
   37.5941   43.7757    4.9628 O   0  0  0  0  0  0  0  0  0  0  0  0
   26.7557   37.2537    3.0740 C   0  0  2  0  0  0  0  0  0  0  0  0
   26.0598   36.1046    2.6386 O   0  0  0  0  0  0  0  0  0  0  0  0
   28.7208   41.0839    0.5699 C   0  0  2  0  0  0  0  0  0  0  0  0
   32.5804   39.3990    3.3880 C   0  0  2  0  0  0  0  0  0  0  0  0
   32.1946   40.0221    2.1711 O   0  0  0  0  0  0  0  0  0  0  0  0
   37.1680   42.6526    7.1097 C   0  0  2  0  0  0  0  0  0  0  0  0
   37.5111   41.4776    7.8635 O   0  0  0  0  0  0  0  0  0  0  0  0
   26.1597   38.5231    2.4335 C   0  0  2  0  0  0  0  0  0  0  0  0
   26.9373   39.6906    2.9046 O   0  0  0  0  0  0  0  0  0  0  0  0
   30.2149   41.6838    0.5934 C   0  0  2  0  0  0  0  0  0  0  0  0
   30.7327   41.8885    1.9732 O   0  0  0  0  0  0  0  0  0  0  0  0
   31.3463   38.7369    3.9832 C   0  0  0  0  0  0  0  0  0  0  0  0
   35.5995   42.8610    7.0811 C   0  0  1  0  0  0  0  0  0  0  0  0
   34.9093   41.7959    6.2771 O   0  0  0  0  0  0  0  0  0  0  0  0
   24.6665   38.6478    2.8163 C   0  0  0  0  0  0  0  0  0  0  0  0
   23.9796   39.8293    2.2627 N   0  0  0  0  0  0  0  0  0  0  0  0
   30.2253   43.0632   -0.0994 C   0  0  1  0  0  0  0  0  0  0  0  0
   31.5528   43.5978   -0.0778 O   0  0  0  0  0  0  0  0  0  0  0  0
   34.9577   42.9699    8.5176 C   0  0  0  0  0  0  0  0  0  0  0  0
   35.4727   44.0714    9.3922 N   0  0  0  0  0  0  0  0  0  0  0  0
  1  2  1  6  0  0  0
  1  7  1  0  0  0  0
  1 30  1  0  0  0  0
  3  4  1  1  0  0  0
  3  9  1  0  0  0  0
  3 38  1  0  0  0  0
  5 10  1  0  0  0  0
  5 26  1  1  0  0  0
  5 32  1  0  0  0  0
  6 12  1  0  0  0  0
  6 35  1  0  0  0  0
  6 19  1  1  0  0  0
  7  8  1  6  0  0  0
  7 14  1  0  0  0  0
  8 33  1  0  0  0  0
  9 16  1  0  0  0  0
 10 11  1  6  0  0  0
 10 18  1  0  0  0  0
 12 13  1  1  0  0  0
 12 20  1  0  0  0  0
 14 15  1  1  0  0  0
 14 22  1  0  0  0  0
 16 17  1  1  0  0  0
 16 24  1  0  0  0  0
 18 19  1  6  0  0  0
 18 25  1  0  0  0  0
 20 21  1  6  0  0  0
 20 27  1  0  0  0  0
 22 23  1  6  0  0  0
 22 29  1  0  0  0  0
 24  2  1  6  0  0  0
 24 31  1  0  0  0  0
 25 26  1  6  0  0  0
 25 33  1  0  0  0  0
 27 28  1  1  0  0  0
 27 34  1  0  0  0  0
 29 30  1  0  0  0  0
 29 36  1  1  0  0  0
 31 32  1  1  0  0  0
 31 38  1  0  0  0  0
 34 35  1  0  0  0  0
 34 40  1  1  0  0  0
 36 37  1  0  0  0  0
 38 39  1  6  0  0  0
 40 41  1  0  0  0  0
M  END
>  <CHROM.1>
59.23155740,171.14180346,179.95071625,58.53142286,31.35863631,40.76951972
3.12284709,2.94099107,-0.53622590,-0.87862639

>  <Name>
ligand

>  <RI>
0

>  <Rbt.Current_Directory>
/home/itssahil/PROJECTS/Mol_Feturizer/New_Systems/rnas/1ZZ5

>  <Rbt.Executable>
rbdock ($Id: //depot/dev/client3/rdock/2013.1/src/exe/rbdock.cxx#4 $)

>  <Rbt.Library>
libRbt.so (2013.1, Build901 2013/11/27)

>  <Rbt.Parameter_File>
/export/apps/rDock/src/rDock_2013.1_src/data/scripts/dock_solv.prm

>  <Rbt.Receptor>
prm/pocket_docking_8.prm

>  <SCORE>
-15.6719

>  <SCORE.INTER>
-14.262

>  <SCORE.INTER.CONST>
1

>  <SCORE.INTER.POLAR>
0

>  <SCORE.INTER.ROT>
4

>  <SCORE.INTER.SOLV>
15.3331

>  <SCORE.INTER.VDW>
-20.8857

>  <SCORE.INTER.norm>
-0.347852

>  <SCORE.INTRA>
-1.41

>  <SCORE.INTRA.DIHEDRAL>
-4.56405

>  <SCORE.INTRA.DIHEDRAL.0>
5.18357

>  <SCORE.INTRA.POLAR>
0

>  <SCORE.INTRA.POLAR.0>
0

>  <SCORE.INTRA.REPUL>
0

>  <SCORE.INTRA.REPUL.0>
0

>  <SCORE.INTRA.SOLV>
-0.627543

>  <SCORE.INTRA.SOLV.lig_0>
-109.973

>  <SCORE.INTRA.VDW>
1.1858

>  <SCORE.INTRA.VDW.0>
-1.68646

>  <SCORE.INTRA.norm>
-0.0343902

>  <SCORE.RESTR>
0

>  <SCORE.RESTR.CAVITY>
0

>  <SCORE.RESTR.norm>
0

>  <SCORE.SYSTEM>
0

>  <SCORE.SYSTEM.CONST>
0

>  <SCORE.SYSTEM.DIHEDRAL>
0

>  <SCORE.SYSTEM.SOLV>
0

>  <SCORE.SYSTEM.norm>
0

>  <SCORE.heavy>
41

>  <SCORE.norm>
-0.382243

>  <RMSD>
9.136

$$$$
ligand
 OpenBabel11021811423D
libRbt.so/2013.1/901 2013/11/27
 41 45  0  0  0  0  0  0  0  0999 V2000
   35.4707   38.5504    6.9573 C   0  0  2  0  0  0  0  0  0  0  0  0
   36.0894   37.4968    6.1934 O   0  0  0  0  0  0  0  0  0  0  0  0
   39.4993   34.8565    6.7588 C   0  0  2  0  0  0  0  0  0  0  0  0
   40.8776   34.4064    7.0827 N   0  0  0  0  0  0  0  0  0  0  0  0
   35.6104   35.2985    9.5076 C   0  0  1  0  0  0  0  0  0  0  0  0
   33.1454   34.2721   12.8347 C   0  0  1  0  0  0  0  0  0  0  0  0
   33.9171   38.4633    6.8775 C   0  0  2  0  0  0  0  0  0  0  0  0
   33.3977   37.1479    7.2635 N   0  0  0  0  0  0  0  0  0  0  0  0
   39.5762   36.0019    5.7003 C   0  0  0  0  0  0  0  0  0  0  0  0
   35.0607   35.8276   10.8521 C   0  0  2  0  0  0  0  0  0  0  0  0
   35.6077   35.1173   11.9679 O   0  0  0  0  0  0  0  0  0  0  0  0
   32.4784   32.9200   13.3338 C   0  0  2  0  0  0  0  0  0  0  0  0
   31.0589   32.7432   12.8996 N   0  0  0  0  0  0  0  0  0  0  0  0
   33.4318   38.8266    5.4483 C   0  0  1  0  0  0  0  0  0  0  0  0
   32.0090   38.7720    5.3870 O   0  0  0  0  0  0  0  0  0  0  0  0
   38.1573   36.5206    5.3263 C   0  0  2  0  0  0  0  0  0  0  0  0
   38.3173   37.5875    4.3203 N   0  0  0  0  0  0  0  0  0  0  0  0
   33.5349   35.6729   10.7339 C   0  0  2  0  0  0  0  0  0  0  0  0
   33.0450   34.4276   11.3733 O   0  0  0  0  0  0  0  0  0  0  0  0
   32.5714   32.8256   14.9238 C   0  0  1  0  0  0  0  0  0  0  0  0
   33.9403   32.6748   15.3598 O   0  0  0  0  0  0  0  0  0  0  0  0
   33.9400   40.2364    5.0674 C   0  0  2  0  0  0  0  0  0  0  0  0
   33.4876   40.5808    3.7748 O   0  0  0  0  0  0  0  0  0  0  0  0
   37.4080   37.0141    6.6144 C   0  0  2  0  0  0  0  0  0  0  0  0
   33.2815   35.6674    9.2290 C   0  0  2  0  0  0  0  0  0  0  0  0
   34.4893   35.2261    8.6251 O   0  0  0  0  0  0  0  0  0  0  0  0
   31.9504   34.0951   15.6339 C   0  0  2  0  0  0  0  0  0  0  0  0
   30.5302   34.1139   15.4119 O   0  0  0  0  0  0  0  0  0  0  0  0
   35.4797   40.2815    5.1324 C   0  0  2  0  0  0  0  0  0  0  0  0
   35.8991   39.8920    6.4970 O   0  0  0  0  0  0  0  0  0  0  0  0
   37.3051   35.8062    7.6740 C   0  0  2  0  0  0  0  0  0  0  0  0
   36.6343   36.2054    8.9407 O   0  0  0  0  0  0  0  0  0  0  0  0
   32.9498   37.0382    8.6579 C   0  0  0  0  0  0  0  0  0  0  0  0
   32.6231   35.4099   15.0654 C   0  0  1  0  0  0  0  0  0  0  0  0
   32.5707   35.4599   13.5647 O   0  0  0  0  0  0  0  0  0  0  0  0
   35.9748   41.7019    4.7735 C   0  0  0  0  0  0  0  0  0  0  0  0
   35.5258   42.7665    5.6896 N   0  0  0  0  0  0  0  0  0  0  0  0
   38.7247   35.3295    8.0486 C   0  0  1  0  0  0  0  0  0  0  0  0
   38.6343   34.2565    8.9916 O   0  0  0  0  0  0  0  0  0  0  0  0
   32.0269   36.7334   15.6821 C   0  0  0  0  0  0  0  0  0  0  0  0
   32.6415   38.0174   15.2163 N   0  0  0  0  0  0  0  0  0  0  0  0
  1  2  1  6  0  0  0
  1  7  1  0  0  0  0
  1 30  1  0  0  0  0
  3  4  1  1  0  0  0
  3  9  1  0  0  0  0
  3 38  1  0  0  0  0
  5 10  1  0  0  0  0
  5 26  1  6  0  0  0
  5 32  1  0  0  0  0
  6 12  1  0  0  0  0
  6 35  1  0  0  0  0
  6 19  1  6  0  0  0
  7  8  1  6  0  0  0
  7 14  1  0  0  0  0
  8 33  1  0  0  0  0
  9 16  1  0  0  0  0
 10 11  1  1  0  0  0
 10 18  1  0  0  0  0
 12 13  1  1  0  0  0
 12 20  1  0  0  0  0
 14 15  1  1  0  0  0
 14 22  1  0  0  0  0
 16 17  1  6  0  0  0
 16 24  1  0  0  0  0
 18 19  1  6  0  0  0
 18 25  1  0  0  0  0
 20 21  1  6  0  0  0
 20 27  1  0  0  0  0
 22 23  1  6  0  0  0
 22 29  1  0  0  0  0
 24  2  1  6  0  0  0
 24 31  1  0  0  0  0
 25 26  1  6  0  0  0
 25 33  1  0  0  0  0
 27 28  1  6  0  0  0
 27 34  1  0  0  0  0
 29 30  1  0  0  0  0
 29 36  1  1  0  0  0
 31 32  1  1  0  0  0
 31 38  1  0  0  0  0
 34 35  1  0  0  0  0
 34 40  1  1  0  0  0
 36 37  1  0  0  0  0
 38 39  1  1  0  0  0
 40 41  1  0  0  0  0
M  END
>  <CHROM.1>
66.53700246,176.04519945,62.16244619,178.44622022,34.83004464,36.49054289
9.27039689,1.13768703,0.53163857,-0.88525739

>  <Name>
ligand

>  <RI>
0

>  <Rbt.Current_Directory>
/home/itssahil/PROJECTS/Mol_Feturizer/New_Systems/rnas/1ZZ5

>  <Rbt.Executable>
rbdock ($Id: //depot/dev/client3/rdock/2013.1/src/exe/rbdock.cxx#4 $)

>  <Rbt.Library>
libRbt.so (2013.1, Build901 2013/11/27)

>  <Rbt.Parameter_File>
/export/apps/rDock/src/rDock_2013.1_src/data/scripts/dock_solv.prm

>  <Rbt.Receptor>
prm/pocket_docking_7.prm

>  <SCORE>
-10.4467

>  <SCORE.INTER>
-8.82083

>  <SCORE.INTER.CONST>
1

>  <SCORE.INTER.POLAR>
0

>  <SCORE.INTER.ROT>
4

>  <SCORE.INTER.SOLV>
15.8091

>  <SCORE.INTER.VDW>
-17.4169

>  <SCORE.INTER.norm>
-0.215142

>  <SCORE.INTRA>
-1.6259

>  <SCORE.INTRA.DIHEDRAL>
-4.63886

>  <SCORE.INTRA.DIHEDRAL.0>
5.18357

>  <SCORE.INTRA.POLAR>
0

>  <SCORE.INTRA.POLAR.0>
0

>  <SCORE.INTRA.REPUL>
0

>  <SCORE.INTRA.REPUL.0>
0

>  <SCORE.INTRA.SOLV>
0.0810155

>  <SCORE.INTRA.SOLV.lig_0>
-109.973

>  <SCORE.INTRA.VDW>
0.653023

>  <SCORE.INTRA.VDW.0>
-1.68646

>  <SCORE.INTRA.norm>
-0.0396561

>  <SCORE.RESTR>
0

>  <SCORE.RESTR.CAVITY>
0

>  <SCORE.RESTR.norm>
0

>  <SCORE.SYSTEM>
0

>  <SCORE.SYSTEM.CONST>
0

>  <SCORE.SYSTEM.DIHEDRAL>
0

>  <SCORE.SYSTEM.SOLV>
0

>  <SCORE.SYSTEM.norm>
0

>  <SCORE.heavy>
41

>  <SCORE.norm>
-0.254798

>  <RMSD>
9.169

$$$$
ligand
 OpenBabel11021811423D
libRbt.so/2013.1/901 2013/11/27
 41 45  0  0  0  0  0  0  0  0999 V2000
   37.7771   41.5059    6.9219 C   0  0  2  0  0  0  0  0  0  0  0  0
   38.6071   40.6081    6.1592 O   0  0  0  0  0  0  0  0  0  0  0  0
   38.8812   36.2928    5.6900 C   0  0  2  0  0  0  0  0  0  0  0  0
   38.9488   34.8516    6.0444 N   0  0  0  0  0  0  0  0  0  0  0  0
   35.1416   39.1360    4.7921 C   0  0  1  0  0  0  0  0  0  0  0  0
   31.5098   41.3256    2.7315 C   0  0  1  0  0  0  0  0  0  0  0  0
   37.3836   42.7572    6.0809 C   0  0  2  0  0  0  0  0  0  0  0  0
   36.7604   42.4119    4.7997 N   0  0  0  0  0  0  0  0  0  0  0  0
   39.9994   37.0581    6.4658 C   0  0  0  0  0  0  0  0  0  0  0  0
   33.7394   39.5767    5.2708 C   0  0  2  0  0  0  0  0  0  0  0  0
   32.7858   38.5134    5.1775 O   0  0  0  0  0  0  0  0  0  0  0  0
   32.1386   42.7157    2.2907 C   0  0  2  0  0  0  0  0  0  0  0  0
   32.9616   43.3763    3.3495 N   0  0  0  0  0  0  0  0  0  0  0  0
   38.6271   43.6553    5.8409 C   0  0  1  0  0  0  0  0  0  0  0  0
   38.2574   44.8118    5.0947 O   0  0  0  0  0  0  0  0  0  0  0  0
   39.9728   38.5795    6.1388 C   0  0  2  0  0  0  0  0  0  0  0  0
   41.0598   39.2239    6.8997 N   0  0  0  0  0  0  0  0  0  0  0  0
   33.3855   40.7779    4.3775 C   0  0  2  0  0  0  0  0  0  0  0  0
   32.5353   40.3906    3.2257 O   0  0  0  0  0  0  0  0  0  0  0  0
   30.9820   43.7049    1.8117 C   0  0  1  0  0  0  0  0  0  0  0  0
   30.3696   43.2405    0.5885 O   0  0  0  0  0  0  0  0  0  0  0  0
   39.2494   44.0580    7.1978 C   0  0  2  0  0  0  0  0  0  0  0  0
   40.3711   44.8898    6.9877 O   0  0  0  0  0  0  0  0  0  0  0  0
   38.5620   39.1782    6.4786 C   0  0  2  0  0  0  0  0  0  0  0  0
   34.7416   41.3078    3.9200 C   0  0  2  0  0  0  0  0  0  0  0  0
   35.6419   40.2115    3.9959 O   0  0  0  0  0  0  0  0  0  0  0  0
   29.8552   43.8802    2.9076 C   0  0  2  0  0  0  0  0  0  0  0  0
   30.4016   44.5759    4.0408 O   0  0  0  0  0  0  0  0  0  0  0  0
   39.6495   42.7994    7.9932 C   0  0  2  0  0  0  0  0  0  0  0  0
   38.4460   41.9558    8.1651 O   0  0  0  0  0  0  0  0  0  0  0  0
   37.4300   38.4012    5.6375 C   0  0  2  0  0  0  0  0  0  0  0  0
   36.0557   38.8904    5.9306 O   0  0  0  0  0  0  0  0  0  0  0  0
   35.2917   42.4231    4.7969 C   0  0  0  0  0  0  0  0  0  0  0  0
   29.2993   42.4620    3.3364 C   0  0  1  0  0  0  0  0  0  0  0  0
   30.4048   41.5270    3.7378 O   0  0  0  0  0  0  0  0  0  0  0  0
   40.2479   43.2139    9.3577 C   0  0  0  0  0  0  0  0  0  0  0  0
   40.6825   42.0933   10.2119 N   0  0  0  0  0  0  0  0  0  0  0  0
   37.4596   36.9011    6.0005 C   0  0  1  0  0  0  0  0  0  0  0  0
   36.4528   36.2097    5.2542 O   0  0  0  0  0  0  0  0  0  0  0  0
   28.2028   42.5368    4.4675 C   0  0  0  0  0  0  0  0  0  0  0  0
   27.5620   41.2401    4.8565 N   0  0  0  0  0  0  0  0  0  0  0  0
  1  2  1  6  0  0  0
  1  7  1  0  0  0  0
  1 30  1  0  0  0  0
  3  4  1  1  0  0  0
  3  9  1  0  0  0  0
  3 38  1  0  0  0  0
  5 10  1  0  0  0  0
  5 26  1  6  0  0  0
  5 32  1  0  0  0  0
  6 12  1  0  0  0  0
  6 35  1  0  0  0  0
  6 19  1  1  0  0  0
  7  8  1  6  0  0  0
  7 14  1  0  0  0  0
  8 33  1  0  0  0  0
  9 16  1  0  0  0  0
 10 11  1  6  0  0  0
 10 18  1  0  0  0  0
 12 13  1  1  0  0  0
 12 20  1  0  0  0  0
 14 15  1  1  0  0  0
 14 22  1  0  0  0  0
 16 17  1  1  0  0  0
 16 24  1  0  0  0  0
 18 19  1  6  0  0  0
 18 25  1  0  0  0  0
 20 21  1  6  0  0  0
 20 27  1  0  0  0  0
 22 23  1  6  0  0  0
 22 29  1  0  0  0  0
 24  2  1  6  0  0  0
 24 31  1  0  0  0  0
 25 26  1  1  0  0  0
 25 33  1  0  0  0  0
 27 28  1  1  0  0  0
 27 34  1  0  0  0  0
 29 30  1  0  0  0  0
 29 36  1  1  0  0  0
 31 32  1  1  0  0  0
 31 38  1  0  0  0  0
 34 35  1  0  0  0  0
 34 40  1  1  0  0  0
 36 37  1  0  0  0  0
 38 39  1  6  0  0  0
 40 41  1  0  0  0  0
M  END
>  <CHROM.1>
145.53118629,58.27861527,-179.49815335,175.86766109,35.53471742,41.06801480
5.23614580,-0.19151462,-0.41566950,0.06269790

>  <Name>
ligand

>  <RI>
0

>  <Rbt.Current_Directory>
/home/itssahil/PROJECTS/Mol_Feturizer/New_Systems/rnas/1ZZ5

>  <Rbt.Executable>
rbdock ($Id: //depot/dev/client3/rdock/2013.1/src/exe/rbdock.cxx#4 $)

>  <Rbt.Library>
libRbt.so (2013.1, Build901 2013/11/27)

>  <Rbt.Parameter_File>
/export/apps/rDock/src/rDock_2013.1_src/data/scripts/dock_solv.prm

>  <Rbt.Receptor>
prm/pocket_docking_6.prm

>  <SCORE>
-10.141

>  <SCORE.INTER>
-11.5526

>  <SCORE.INTER.CONST>
1

>  <SCORE.INTER.POLAR>
0

>  <SCORE.INTER.ROT>
4

>  <SCORE.INTER.SOLV>
19.3179

>  <SCORE.INTER.VDW>
-20.4077

>  <SCORE.INTER.norm>
-0.281771

>  <SCORE.INTRA>
1.41158

>  <SCORE.INTRA.DIHEDRAL>
-0.489221

>  <SCORE.INTRA.DIHEDRAL.0>
5.18357

>  <SCORE.INTRA.POLAR>
0

>  <SCORE.INTRA.POLAR.0>
0

>  <SCORE.INTRA.REPUL>
0

>  <SCORE.INTRA.REPUL.0>
0

>  <SCORE.INTRA.SOLV>
1.61145

>  <SCORE.INTRA.SOLV.lig_0>
-109.973

>  <SCORE.INTRA.VDW>
0.850468

>  <SCORE.INTRA.VDW.0>
-1.68646

>  <SCORE.INTRA.norm>
0.0344289

>  <SCORE.RESTR>
0

>  <SCORE.RESTR.CAVITY>
0

>  <SCORE.RESTR.norm>
0

>  <SCORE.SYSTEM>
0

>  <SCORE.SYSTEM.CONST>
0

>  <SCORE.SYSTEM.DIHEDRAL>
0

>  <SCORE.SYSTEM.SOLV>
0

>  <SCORE.SYSTEM.norm>
0

>  <SCORE.heavy>
41

>  <SCORE.norm>
-0.247342

>  <RMSD>
9.212

$$$$
ligand
 OpenBabel11021811423D
libRbt.so/2013.1/901 2013/11/27
 41 45  0  0  0  0  0  0  0  0999 V2000
   44.0396   40.9267    5.7722 C   0  0  2  0  0  0  0  0  0  0  0  0
   43.5688   39.7474    6.4534 O   0  0  0  0  0  0  0  0  0  0  0  0
   41.7417   38.9252   10.3139 C   0  0  2  0  0  0  0  0  0  0  0  0
   41.5059   38.9511   11.7805 N   0  0  0  0  0  0  0  0  0  0  0  0
   40.1291   41.7670    6.8212 C   0  0  1  0  0  0  0  0  0  0  0  0
   37.2158   41.9752    5.0160 C   0  0  1  0  0  0  0  0  0  0  0  0
   43.6615   40.8904    4.2611 C   0  0  2  0  0  0  0  0  0  0  0  0
   42.2285   40.6793    4.0353 N   0  0  0  0  0  0  0  0  0  0  0  0
   43.2139   38.4798   10.0454 C   0  0  0  0  0  0  0  0  0  0  0  0
   39.9076   43.2312    6.3778 C   0  0  2  0  0  0  0  0  0  0  0  0
   38.9285   43.8908    7.1872 O   0  0  0  0  0  0  0  0  0  0  0  0
   35.6735   42.2099    4.7185 C   0  0  2  0  0  0  0  0  0  0  0  0
   35.0905   43.3952    5.4186 N   0  0  0  0  0  0  0  0  0  0  0  0
   44.4810   39.7937    3.5289 C   0  0  1  0  0  0  0  0  0  0  0  0
   44.1519   39.7821    2.1423 O   0  0  0  0  0  0  0  0  0  0  0  0
   43.5225   38.4412    8.5205 C   0  0  2  0  0  0  0  0  0  0  0  0
   44.9215   38.0041    8.3538 N   0  0  0  0  0  0  0  0  0  0  0  0
   39.4922   43.1293    4.9002 C   0  0  2  0  0  0  0  0  0  0  0  0
   38.0201   43.1747    4.7258 O   0  0  0  0  0  0  0  0  0  0  0  0
   34.8444   40.8999    5.0953 C   0  0  1  0  0  0  0  0  0  0  0  0
   35.1669   39.8042    4.2108 O   0  0  0  0  0  0  0  0  0  0  0  0
   45.9924   40.0516    3.7282 C   0  0  2  0  0  0  0  0  0  0  0  0
   46.7447   39.0675    3.0501 O   0  0  0  0  0  0  0  0  0  0  0  0
   43.2504   39.8487    7.8807 C   0  0  2  0  0  0  0  0  0  0  0  0
   40.0692   41.7908    4.4478 C   0  0  2  0  0  0  0  0  0  0  0  0
   40.1967   40.9976    5.6194 O   0  0  0  0  0  0  0  0  0  0  0  0
   35.1014   40.4397    6.5865 C   0  0  2  0  0  0  0  0  0  0  0  0
   34.5511   41.4178    7.4848 O   0  0  0  0  0  0  0  0  0  0  0  0
   46.3368   40.0569    5.2310 C   0  0  2  0  0  0  0  0  0  0  0  0
   45.5074   41.0872    5.8945 O   0  0  0  0  0  0  0  0  0  0  0  0
   41.7170   40.2687    8.1348 C   0  0  2  0  0  0  0  0  0  0  0  0
   41.3879   41.6117    7.5851 O   0  0  0  0  0  0  0  0  0  0  0  0
   41.4456   41.9010    3.8085 C   0  0  0  0  0  0  0  0  0  0  0  0
   36.6547   40.2646    6.8332 C   0  0  1  0  0  0  0  0  0  0  0  0
   37.4260   41.4885    6.4277 O   0  0  0  0  0  0  0  0  0  0  0  0
   47.8456   40.3398    5.4186 C   0  0  0  0  0  0  0  0  0  0  0  0
   48.3015   41.6453    4.9065 N   0  0  0  0  0  0  0  0  0  0  0  0
   41.4452   40.3263    9.6532 C   0  0  1  0  0  0  0  0  0  0  0  0
   40.0826   40.7009    9.8802 O   0  0  0  0  0  0  0  0  0  0  0  0
   37.0097   39.8550    8.3143 C   0  0  0  0  0  0  0  0  0  0  0  0
   36.4967   38.5256    8.7756 N   0  0  0  0  0  0  0  0  0  0  0  0
  1  2  1  6  0  0  0
  1  7  1  0  0  0  0
  1 30  1  0  0  0  0
  3  4  1  1  0  0  0
  3  9  1  0  0  0  0
  3 38  1  0  0  0  0
  5 10  1  0  0  0  0
  5 26  1  6  0  0  0
  5 32  1  0  0  0  0
  6 12  1  0  0  0  0
  6 35  1  0  0  0  0
  6 19  1  1  0  0  0
  7  8  1  1  0  0  0
  7 14  1  0  0  0  0
  8 33  1  0  0  0  0
  9 16  1  0  0  0  0
 10 11  1  1  0  0  0
 10 18  1  0  0  0  0
 12 13  1  1  0  0  0
 12 20  1  0  0  0  0
 14 15  1  6  0  0  0
 14 22  1  0  0  0  0
 16 17  1  1  0  0  0
 16 24  1  0  0  0  0
 18 19  1  1  0  0  0
 18 25  1  0  0  0  0
 20 21  1  6  0  0  0
 20 27  1  0  0  0  0
 22 23  1  6  0  0  0
 22 29  1  0  0  0  0
 24  2  1  6  0  0  0
 24 31  1  0  0  0  0
 25 26  1  1  0  0  0
 25 33  1  0  0  0  0
 27 28  1  1  0  0  0
 27 34  1  0  0  0  0
 29 30  1  0  0  0  0
 29 36  1  6  0  0  0
 31 32  1  1  0  0  0
 31 38  1  0  0  0  0
 34 35  1  0  0  0  0
 34 40  1  1  0  0  0
 36 37  1  0  0  0  0
 38 39  1  6  0  0  0
 40 41  1  0  0  0  0
M  END
>  <CHROM.1>
-77.44262738,-177.94208685,61.42459023,63.66831399,40.93828698,40.73783989
6.31142380,0.04231115,0.16673015,-1.22520114

>  <Name>
ligand

>  <RI>
0

>  <Rbt.Current_Directory>
/home/itssahil/PROJECTS/Mol_Feturizer/New_Systems/rnas/1ZZ5

>  <Rbt.Executable>
rbdock ($Id: //depot/dev/client3/rdock/2013.1/src/exe/rbdock.cxx#4 $)

>  <Rbt.Library>
libRbt.so (2013.1, Build901 2013/11/27)

>  <Rbt.Parameter_File>
/export/apps/rDock/src/rDock_2013.1_src/data/scripts/dock_solv.prm

>  <Rbt.Receptor>
prm/pocket_docking_5.prm

>  <SCORE>
-9.11277

>  <SCORE.INTER>
-7.74542

>  <SCORE.INTER.CONST>
1

>  <SCORE.INTER.POLAR>
0

>  <SCORE.INTER.ROT>
4

>  <SCORE.INTER.SOLV>
11.5597

>  <SCORE.INTER.VDW>
-15.2835

>  <SCORE.INTER.norm>
-0.188913

>  <SCORE.INTRA>
-1.36735

>  <SCORE.INTRA.DIHEDRAL>
-3.5

>  <SCORE.INTRA.DIHEDRAL.0>
5.18357

>  <SCORE.INTRA.POLAR>
0

>  <SCORE.INTRA.POLAR.0>
0

>  <SCORE.INTRA.REPUL>
0

>  <SCORE.INTRA.REPUL.0>
0

>  <SCORE.INTRA.SOLV>
1.25157

>  <SCORE.INTRA.SOLV.lig_0>
-109.973

>  <SCORE.INTRA.VDW>
-0.243131

>  <SCORE.INTRA.VDW.0>
-1.68646

>  <SCORE.INTRA.norm>
-0.0333499

>  <SCORE.RESTR>
0

>  <SCORE.RESTR.CAVITY>
0

>  <SCORE.RESTR.norm>
0

>  <SCORE.SYSTEM>
0

>  <SCORE.SYSTEM.CONST>
0

>  <SCORE.SYSTEM.DIHEDRAL>
0

>  <SCORE.SYSTEM.SOLV>
0

>  <SCORE.SYSTEM.norm>
0

>  <SCORE.heavy>
41

>  <SCORE.norm>
-0.222263

>  <RMSD>
9.247

$$$$
ligand
 OpenBabel11021811423D
libRbt.so/2013.1/901 2013/11/27
 41 45  0  0  0  0  0  0  0  0999 V2000
   35.8599   38.4837    9.2073 C   0  0  2  0  0  0  0  0  0  0  0  0
   34.8624   39.3303    9.8114 O   0  0  0  0  0  0  0  0  0  0  0  0
   34.3042   43.6204   10.2601 C   0  0  2  0  0  0  0  0  0  0  0  0
   34.6087   45.0445   10.5544 N   0  0  0  0  0  0  0  0  0  0  0  0
   34.6962   41.0934    6.2184 C   0  0  1  0  0  0  0  0  0  0  0  0
   32.7180   40.5952    3.3888 C   0  0  1  0  0  0  0  0  0  0  0  0
   35.2013   37.2842    8.4624 C   0  0  2  0  0  0  0  0  0  0  0  0
   34.1926   37.7029    7.4843 N   0  0  0  0  0  0  0  0  0  0  0  0
   34.6757   42.7552   11.5057 C   0  0  0  0  0  0  0  0  0  0  0  0
   35.6100   40.7525    5.0191 C   0  0  2  0  0  0  0  0  0  0  0  0
   35.8277   41.8879    4.1753 O   0  0  0  0  0  0  0  0  0  0  0  0
   31.6379   39.4316    3.4283 C   0  0  2  0  0  0  0  0  0  0  0  0
   31.6433   38.5527    2.2191 N   0  0  0  0  0  0  0  0  0  0  0  0
   34.5727   36.2979    9.4834 C   0  0  1  0  0  0  0  0  0  0  0  0
   33.9953   35.1890    8.7993 O   0  0  0  0  0  0  0  0  0  0  0  0
   34.3843   41.2475   11.2526 C   0  0  2  0  0  0  0  0  0  0  0  0
   34.7513   40.5055   12.4735 N   0  0  0  0  0  0  0  0  0  0  0  0
   34.8887   39.6009    4.2983 C   0  0  2  0  0  0  0  0  0  0  0  0
   34.0763   40.0763    3.1522 O   0  0  0  0  0  0  0  0  0  0  0  0
   30.1826   40.0514    3.6375 C   0  0  1  0  0  0  0  0  0  0  0  0
   30.0491   40.6422    4.9489 O   0  0  0  0  0  0  0  0  0  0  0  0
   35.6535   35.8204   10.4807 C   0  0  2  0  0  0  0  0  0  0  0  0
   35.0927   34.9091   11.4022 O   0  0  0  0  0  0  0  0  0  0  0  0
   35.1707   40.7526    9.9872 C   0  0  2  0  0  0  0  0  0  0  0  0
   34.0157   38.9774    5.3837 C   0  0  2  0  0  0  0  0  0  0  0  0
   33.7864   39.9991    6.3438 O   0  0  0  0  0  0  0  0  0  0  0  0
   29.8394   41.1478    2.5505 C   0  0  2  0  0  0  0  0  0  0  0  0
   29.7205   40.5175    1.2640 O   0  0  0  0  0  0  0  0  0  0  0  0
   36.2669   37.0277   11.2176 C   0  0  2  0  0  0  0  0  0  0  0  0
   36.8183   37.9580   10.2075 O   0  0  0  0  0  0  0  0  0  0  0  0
   34.7418   41.6318    8.7083 C   0  0  2  0  0  0  0  0  0  0  0  0
   35.4714   41.2442    7.4708 O   0  0  0  0  0  0  0  0  0  0  0  0
   34.6707   37.8052    6.0994 C   0  0  0  0  0  0  0  0  0  0  0  0
   30.9708   42.2540    2.5292 C   0  0  1  0  0  0  0  0  0  0  0  0
   32.3388   41.6508    2.3808 O   0  0  0  0  0  0  0  0  0  0  0  0
   37.3628   36.5402   12.1938 C   0  0  0  0  0  0  0  0  0  0  0  0
   36.8644   35.8038   13.3701 N   0  0  0  0  0  0  0  0  0  0  0  0
   35.0664   43.1173    8.9743 C   0  0  1  0  0  0  0  0  0  0  0  0
   34.6867   43.8996    7.8374 O   0  0  0  0  0  0  0  0  0  0  0  0
   30.7370   43.3656    1.4352 C   0  0  0  0  0  0  0  0  0  0  0  0
   30.6120   42.8882    0.0210 N   0  0  0  0  0  0  0  0  0  0  0  0
  1  2  1  1  0  0  0
  1  7  1  0  0  0  0
  1 30  1  0  0  0  0
  3  4  1  1  0  0  0
  3  9  1  0  0  0  0
  3 38  1  0  0  0  0
  5 10  1  0  0  0  0
  5 26  1  1  0  0  0
  5 32  1  0  0  0  0
  6 12  1  0  0  0  0
  6 35  1  0  0  0  0
  6 19  1  6  0  0  0
  7  8  1  6  0  0  0
  7 14  1  0  0  0  0
  8 33  1  0  0  0  0
  9 16  1  0  0  0  0
 10 11  1  6  0  0  0
 10 18  1  0  0  0  0
 12 13  1  6  0  0  0
 12 20  1  0  0  0  0
 14 15  1  6  0  0  0
 14 22  1  0  0  0  0
 16 17  1  1  0  0  0
 16 24  1  0  0  0  0
 18 19  1  6  0  0  0
 18 25  1  0  0  0  0
 20 21  1  1  0  0  0
 20 27  1  0  0  0  0
 22 23  1  1  0  0  0
 22 29  1  0  0  0  0
 24  2  1  6  0  0  0
 24 31  1  0  0  0  0
 25 26  1  1  0  0  0
 25 33  1  0  0  0  0
 27 28  1  6  0  0  0
 27 34  1  0  0  0  0
 29 30  1  0  0  0  0
 29 36  1  1  0  0  0
 31 32  1  6  0  0  0
 31 38  1  0  0  0  0
 34 35  1  0  0  0  0
 34 40  1  6  0  0  0
 36 37  1  0  0  0  0
 38 39  1  6  0  0  0
 40 41  1  0  0  0  0
M  END
>  <CHROM.1>
-83.31009793,-85.32444188,-70.41384042,-57.27788131,33.96281138,39.93061805
7.03999329,0.22307340,1.12699994,-3.02560541

>  <Name>
ligand

>  <RI>
0

>  <Rbt.Current_Directory>
/home/itssahil/PROJECTS/Mol_Feturizer/New_Systems/rnas/1ZZ5

>  <Rbt.Executable>
rbdock ($Id: //depot/dev/client3/rdock/2013.1/src/exe/rbdock.cxx#4 $)

>  <Rbt.Library>
libRbt.so (2013.1, Build901 2013/11/27)

>  <Rbt.Parameter_File>
/export/apps/rDock/src/rDock_2013.1_src/data/scripts/dock_solv.prm

>  <Rbt.Receptor>
prm/pocket_docking_7.prm

>  <SCORE>
-6.90635

>  <SCORE.INTER>
-8.67977

>  <SCORE.INTER.CONST>
1

>  <SCORE.INTER.POLAR>
0

>  <SCORE.INTER.ROT>
4

>  <SCORE.INTER.SOLV>
23.2694

>  <SCORE.INTER.VDW>
-19.8096

>  <SCORE.INTER.norm>
-0.211702

>  <SCORE.INTRA>
1.77341

>  <SCORE.INTRA.DIHEDRAL>
0.448451

>  <SCORE.INTRA.DIHEDRAL.0>
5.18357

>  <SCORE.INTRA.POLAR>
0

>  <SCORE.INTRA.POLAR.0>
0

>  <SCORE.INTRA.REPUL>
0

>  <SCORE.INTRA.REPUL.0>
0

>  <SCORE.INTRA.SOLV>
2.10848

>  <SCORE.INTRA.SOLV.lig_0>
-109.973

>  <SCORE.INTRA.VDW>
0.494946

>  <SCORE.INTRA.VDW.0>
-1.68646

>  <SCORE.INTRA.norm>
0.043254

>  <SCORE.RESTR>
0

>  <SCORE.RESTR.CAVITY>
0

>  <SCORE.RESTR.norm>
0

>  <SCORE.SYSTEM>
0

>  <SCORE.SYSTEM.CONST>
0

>  <SCORE.SYSTEM.DIHEDRAL>
0

>  <SCORE.SYSTEM.SOLV>
0

>  <SCORE.SYSTEM.norm>
0

>  <SCORE.heavy>
41

>  <SCORE.norm>
-0.168448

>  <RMSD>
9.253

$$$$
ligand
 OpenBabel11021811423D
libRbt.so/2013.1/901 2013/11/27
 41 45  0  0  0  0  0  0  0  0999 V2000
   36.2020   41.1313    8.2588 C   0  0  2  0  0  0  0  0  0  0  0  0
   37.4480   40.8586    7.5883 O   0  0  0  0  0  0  0  0  0  0  0  0
   39.0276   37.5804    5.2059 C   0  0  2  0  0  0  0  0  0  0  0  0
   39.3655   36.1956    4.7869 N   0  0  0  0  0  0  0  0  0  0  0  0
   35.1654   40.2685    4.3499 C   0  0  1  0  0  0  0  0  0  0  0  0
   32.4494   43.3955    2.3030 C   0  0  1  0  0  0  0  0  0  0  0  0
   35.7810   42.6204    8.0768 C   0  0  2  0  0  0  0  0  0  0  0  0
   35.7327   43.0331    6.6709 N   0  0  0  0  0  0  0  0  0  0  0  0
   39.5750   37.8209    6.6483 C   0  0  0  0  0  0  0  0  0  0  0  0
   33.6200   40.3003    4.3353 C   0  0  2  0  0  0  0  0  0  0  0  0
   33.0786   39.4358    3.3312 O   0  0  0  0  0  0  0  0  0  0  0  0
   31.0735   43.7102    3.0311 C   0  0  2  0  0  0  0  0  0  0  0  0
   30.0246   42.6637    2.8323 N   0  0  0  0  0  0  0  0  0  0  0  0
   36.7392   43.5498    8.8697 C   0  0  1  0  0  0  0  0  0  0  0  0
   36.3345   44.9083    8.7225 O   0  0  0  0  0  0  0  0  0  0  0  0
   39.2432   39.2579    7.1453 C   0  0  2  0  0  0  0  0  0  0  0  0
   39.8002   39.4059    8.5032 N   0  0  0  0  0  0  0  0  0  0  0  0
   33.2658   41.7795    4.1056 C   0  0  2  0  0  0  0  0  0  0  0  0
   32.9812   42.0746    2.6804 O   0  0  0  0  0  0  0  0  0  0  0  0
   30.5190   45.1270    2.5506 C   0  0  1  0  0  0  0  0  0  0  0  0
   31.3656   46.2035    3.0103 O   0  0  0  0  0  0  0  0  0  0  0  0
   36.7461   43.1417   10.3610 C   0  0  2  0  0  0  0  0  0  0  0  0
   37.6025   43.9942   11.0919 O   0  0  0  0  0  0  0  0  0  0  0  0
   37.6925   39.4980    7.1005 C   0  0  2  0  0  0  0  0  0  0  0  0
   34.4976   42.5333    4.5989 C   0  0  2  0  0  0  0  0  0  0  0  0
   35.5859   41.6262    4.4943 O   0  0  0  0  0  0  0  0  0  0  0  0
   30.3954   45.2166    0.9764 C   0  0  2  0  0  0  0  0  0  0  0  0
   29.3649   44.3187    0.5310 O   0  0  0  0  0  0  0  0  0  0  0  0
   37.1900   41.6726   10.5077 C   0  0  2  0  0  0  0  0  0  0  0  0
   36.2755   40.8284    9.7073 O   0  0  0  0  0  0  0  0  0  0  0  0
   37.1574   39.2843    5.5970 C   0  0  2  0  0  0  0  0  0  0  0  0
   35.6849   39.4622    5.4779 O   0  0  0  0  0  0  0  0  0  0  0  0
   34.4026   42.9803    6.0503 C   0  0  0  0  0  0  0  0  0  0  0  0
   31.7828   44.8516    0.3083 C   0  0  1  0  0  0  0  0  0  0  0  0
   32.3147   43.5383    0.8078 O   0  0  0  0  0  0  0  0  0  0  0  0
   37.1696   41.2688   12.0005 C   0  0  0  0  0  0  0  0  0  0  0  0
   35.8471   41.3483   12.6477 N   0  0  0  0  0  0  0  0  0  0  0  0
   37.4742   37.8446    5.1390 C   0  0  1  0  0  0  0  0  0  0  0  0
   36.9977   37.6532    3.8030 O   0  0  0  0  0  0  0  0  0  0  0  0
   31.7396   44.8650   -1.2682 C   0  0  0  0  0  0  0  0  0  0  0  0
   33.0421   44.6296   -1.9692 N   0  0  0  0  0  0  0  0  0  0  0  0
  1  2  1  1  0  0  0
  1  7  1  0  0  0  0
  1 30  1  0  0  0  0
  3  4  1  1  0  0  0
  3  9  1  0  0  0  0
  3 38  1  0  0  0  0
  5 10  1  0  0  0  0
  5 26  1  1  0  0  0
  5 32  1  0  0  0  0
  6 12  1  0  0  0  0
  6 35  1  0  0  0  0
  6 19  1  6  0  0  0
  7  8  1  6  0  0  0
  7 14  1  0  0  0  0
  8 33  1  0  0  0  0
  9 16  1  0  0  0  0
 10 11  1  6  0  0  0
 10 18  1  0  0  0  0
 12 13  1  6  0  0  0
 12 20  1  0  0  0  0
 14 15  1  1  0  0  0
 14 22  1  0  0  0  0
 16 17  1  1  0  0  0
 16 24  1  0  0  0  0
 18 19  1  6  0  0  0
 18 25  1  0  0  0  0
 20 21  1  6  0  0  0
 20 27  1  0  0  0  0
 22 23  1  1  0  0  0
 22 29  1  0  0  0  0
 24  2  1  6  0  0  0
 24 31  1  0  0  0  0
 25 26  1  1  0  0  0
 25 33  1  0  0  0  0
 27 28  1  6  0  0  0
 27 34  1  0  0  0  0
 29 30  1  0  0  0  0
 29 36  1  1  0  0  0
 31 32  1  1  0  0  0
 31 38  1  0  0  0  0
 34 35  1  0  0  0  0
 34 40  1  6  0  0  0
 36 37  1  0  0  0  0
 38 39  1  6  0  0  0
 40 41  1  0  0  0  0
M  END
>  <CHROM.1>
171.81106047,-58.70258676,61.31859036,175.57335479,35.04786789,41.76730087
5.37705814,0.45354958,-0.84216918,1.03266104

>  <Name>
ligand

>  <RI>
0

>  <Rbt.Current_Directory>
/home/itssahil/PROJECTS/Mol_Feturizer/New_Systems/rnas/1ZZ5

>  <Rbt.Executable>
rbdock ($Id: //depot/dev/client3/rdock/2013.1/src/exe/rbdock.cxx#4 $)

>  <Rbt.Library>
libRbt.so (2013.1, Build901 2013/11/27)

>  <Rbt.Parameter_File>
/export/apps/rDock/src/rDock_2013.1_src/data/scripts/dock_solv.prm

>  <Rbt.Receptor>
prm/pocket_docking_8.prm

>  <SCORE>
-11.8769

>  <SCORE.INTER>
-10.0105

>  <SCORE.INTER.CONST>
1

>  <SCORE.INTER.POLAR>
0

>  <SCORE.INTER.ROT>
4

>  <SCORE.INTER.SOLV>
11.9087

>  <SCORE.INTER.VDW>
-16.9099

>  <SCORE.INTER.norm>
-0.24416

>  <SCORE.INTRA>
-1.86639

>  <SCORE.INTRA.DIHEDRAL>
-4.53548

>  <SCORE.INTRA.DIHEDRAL.0>
5.18357

>  <SCORE.INTRA.POLAR>
0

>  <SCORE.INTRA.POLAR.0>
0

>  <SCORE.INTRA.REPUL>
0

>  <SCORE.INTRA.REPUL.0>
0

>  <SCORE.INTRA.SOLV>
0.0888991

>  <SCORE.INTRA.SOLV.lig_0>
-109.973

>  <SCORE.INTRA.VDW>
0.356896

>  <SCORE.INTRA.VDW.0>
-1.68646

>  <SCORE.INTRA.norm>
-0.0455218

>  <SCORE.RESTR>
0

>  <SCORE.RESTR.CAVITY>
0

>  <SCORE.RESTR.norm>
0

>  <SCORE.SYSTEM>
0

>  <SCORE.SYSTEM.CONST>
0

>  <SCORE.SYSTEM.DIHEDRAL>
0

>  <SCORE.SYSTEM.SOLV>
0

>  <SCORE.SYSTEM.norm>
0

>  <SCORE.heavy>
41

>  <SCORE.norm>
-0.289681

>  <RMSD>
9.262

$$$$
ligand
 OpenBabel11021811423D
libRbt.so/2013.1/901 2013/11/27
 41 45  0  0  0  0  0  0  0  0999 V2000
   37.5800   41.8085    6.9128 C   0  0  2  0  0  0  0  0  0  0  0  0
   38.3596   40.8665    6.1504 O   0  0  0  0  0  0  0  0  0  0  0  0
   38.4606   36.5362    5.7547 C   0  0  2  0  0  0  0  0  0  0  0  0
   38.4808   35.0999    6.1340 N   0  0  0  0  0  0  0  0  0  0  0  0
   34.8136   39.5042    4.8794 C   0  0  1  0  0  0  0  0  0  0  0  0
   32.0881   41.7388    2.1911 C   0  0  1  0  0  0  0  0  0  0  0  0
   37.2170   43.0590    6.0572 C   0  0  2  0  0  0  0  0  0  0  0  0
   36.5550   42.7154    4.7951 N   0  0  0  0  0  0  0  0  0  0  0  0
   39.6226   37.2718    6.4940 C   0  0  0  0  0  0  0  0  0  0  0  0
   33.4392   40.0064    5.3777 C   0  0  2  0  0  0  0  0  0  0  0  0
   32.4444   38.9788    5.3227 O   0  0  0  0  0  0  0  0  0  0  0  0
   31.7994   43.2325    2.6469 C   0  0  2  0  0  0  0  0  0  0  0  0
   30.6187   43.3767    3.5525 N   0  0  0  0  0  0  0  0  0  0  0  0
   38.4883   43.9046    5.7761 C   0  0  1  0  0  0  0  0  0  0  0  0
   38.1475   45.0612    5.0164 O   0  0  0  0  0  0  0  0  0  0  0  0
   39.6469   38.7871    6.1399 C   0  0  2  0  0  0  0  0  0  0  0  0
   40.7729   39.4027    6.8672 N   0  0  0  0  0  0  0  0  0  0  0  0
   33.1128   41.2044    4.4697 C   0  0  2  0  0  0  0  0  0  0  0  0
   32.2251   40.8298    3.3423 O   0  0  0  0  0  0  0  0  0  0  0  0
   31.6115   44.1626    1.3642 C   0  0  1  0  0  0  0  0  0  0  0  0
   32.8481   44.2968    0.6296 O   0  0  0  0  0  0  0  0  0  0  0  0
   39.1532   44.3070    7.1129 C   0  0  2  0  0  0  0  0  0  0  0  0
   40.3010   45.0914    6.8654 O   0  0  0  0  0  0  0  0  0  0  0  0
   38.2670   39.4451    6.4967 C   0  0  2  0  0  0  0  0  0  0  0  0
   34.4783   41.6740    3.9759 C   0  0  2  0  0  0  0  0  0  0  0  0
   35.3378   40.5457    4.0539 O   0  0  0  0  0  0  0  0  0  0  0  0
   30.4980   43.6113    0.3856 C   0  0  2  0  0  0  0  0  0  0  0  0
   29.2145   43.7110    1.0253 O   0  0  0  0  0  0  0  0  0  0  0  0
   39.5216   43.0481    7.9230 C   0  0  2  0  0  0  0  0  0  0  0  0
   38.2908   42.2542    8.1341 O   0  0  0  0  0  0  0  0  0  0  0  0
   37.0894   38.6973    5.6925 C   0  0  2  0  0  0  0  0  0  0  0  0
   35.7409   39.2437    6.0038 O   0  0  0  0  0  0  0  0  0  0  0  0
   35.0881   42.7826    4.8212 C   0  0  0  0  0  0  0  0  0  0  0  0
   30.8171   42.1094    0.0024 C   0  0  1  0  0  0  0  0  0  0  0  0
   31.0395   41.2577    1.2199 O   0  0  0  0  0  0  0  0  0  0  0  0
   40.1631   43.4632    9.2676 C   0  0  0  0  0  0  0  0  0  0  0  0
   39.2807   44.2294   10.1668 N   0  0  0  0  0  0  0  0  0  0  0  0
   37.0697   37.2038    6.0821 C   0  0  1  0  0  0  0  0  0  0  0  0
   36.0223   36.5384    5.3687 O   0  0  0  0  0  0  0  0  0  0  0  0
   29.7275   41.4587   -0.9339 C   0  0  0  0  0  0  0  0  0  0  0  0
   29.9679   40.0381   -1.3431 N   0  0  0  0  0  0  0  0  0  0  0  0
  1  2  1  6  0  0  0
  1  7  1  0  0  0  0
  1 30  1  0  0  0  0
  3  4  1  1  0  0  0
  3  9  1  0  0  0  0
  3 38  1  0  0  0  0
  5 10  1  0  0  0  0
  5 26  1  6  0  0  0
  5 32  1  0  0  0  0
  6 12  1  0  0  0  0
  6 35  1  0  0  0  0
  6 19  1  1  0  0  0
  7  8  1  6  0  0  0
  7 14  1  0  0  0  0
  8 33  1  0  0  0  0
  9 16  1  0  0  0  0
 10 11  1  6  0  0  0
 10 18  1  0  0  0  0
 12 13  1  1  0  0  0
 12 20  1  0  0  0  0
 14 15  1  1  0  0  0
 14 22  1  0  0  0  0
 16 17  1  1  0  0  0
 16 24  1  0  0  0  0
 18 19  1  6  0  0  0
 18 25  1  0  0  0  0
 20 21  1  6  0  0  0
 20 27  1  0  0  0  0
 22 23  1  6  0  0  0
 22 29  1  0  0  0  0
 24  2  1  6  0  0  0
 24 31  1  0  0  0  0
 25 26  1  1  0  0  0
 25 33  1  0  0  0  0
 27 28  1  1  0  0  0
 27 34  1  0  0  0  0
 29 30  1  0  0  0  0
 29 36  1  1  0  0  0
 31 32  1  1  0  0  0
 31 38  1  0  0  0  0
 34 35  1  0  0  0  0
 34 40  1  1  0  0  0
 36 37  1  0  0  0  0
 38 39  1  6  0  0  0
 40 41  1  0  0  0  0
M  END
>  <CHROM.1>
-164.22565941,-48.82662580,62.91461297,179.71776997,35.47583806,41.29366601
4.67668372,-0.11796099,-0.63914355,0.01313055

>  <Name>
ligand

>  <RI>
0

>  <Rbt.Current_Directory>
/home/itssahil/PROJECTS/Mol_Feturizer/New_Systems/rnas/1ZZ5

>  <Rbt.Executable>
rbdock ($Id: //depot/dev/client3/rdock/2013.1/src/exe/rbdock.cxx#4 $)

>  <Rbt.Library>
libRbt.so (2013.1, Build901 2013/11/27)

>  <Rbt.Parameter_File>
/export/apps/rDock/src/rDock_2013.1_src/data/scripts/dock_solv.prm

>  <Rbt.Receptor>
prm/pocket_docking_6.prm

>  <SCORE>
-6.87629

>  <SCORE.INTER>
-6.13838

>  <SCORE.INTER.CONST>
1

>  <SCORE.INTER.POLAR>
0

>  <SCORE.INTER.ROT>
4

>  <SCORE.INTER.SOLV>
23.71

>  <SCORE.INTER.VDW>
-18.2623

>  <SCORE.INTER.norm>
-0.149716

>  <SCORE.INTRA>
-0.737918

>  <SCORE.INTRA.DIHEDRAL>
-3.18858

>  <SCORE.INTRA.DIHEDRAL.0>
5.18357

>  <SCORE.INTRA.POLAR>
0

>  <SCORE.INTRA.POLAR.0>
0

>  <SCORE.INTRA.REPUL>
0

>  <SCORE.INTRA.REPUL.0>
0

>  <SCORE.INTRA.SOLV>
0.477696

>  <SCORE.INTRA.SOLV.lig_0>
-109.973

>  <SCORE.INTRA.VDW>
0.617524

>  <SCORE.INTRA.VDW.0>
-1.68646

>  <SCORE.INTRA.norm>
-0.017998

>  <SCORE.RESTR>
0

>  <SCORE.RESTR.CAVITY>
0

>  <SCORE.RESTR.norm>
0

>  <SCORE.SYSTEM>
0

>  <SCORE.SYSTEM.CONST>
0

>  <SCORE.SYSTEM.DIHEDRAL>
0

>  <SCORE.SYSTEM.SOLV>
0

>  <SCORE.SYSTEM.norm>
0

>  <SCORE.heavy>
41

>  <SCORE.norm>
-0.167714

>  <RMSD>
9.266

$$$$
ligand
 OpenBabel11021811423D
libRbt.so/2013.1/901 2013/11/27
 41 45  0  0  0  0  0  0  0  0999 V2000
   36.4623   41.0218    8.1993 C   0  0  2  0  0  0  0  0  0  0  0  0
   37.6659   40.7373    7.4599 O   0  0  0  0  0  0  0  0  0  0  0  0
   39.0830   37.4383    5.0050 C   0  0  2  0  0  0  0  0  0  0  0  0
   39.3864   36.0495    4.5732 N   0  0  0  0  0  0  0  0  0  0  0  0
   35.1976   40.1517    4.3599 C   0  0  1  0  0  0  0  0  0  0  0  0
   32.4596   43.3134    2.4454 C   0  0  1  0  0  0  0  0  0  0  0  0
   36.0423   42.5133    8.0354 C   0  0  2  0  0  0  0  0  0  0  0  0
   35.9165   42.9209    6.6329 N   0  0  0  0  0  0  0  0  0  0  0  0
   39.7137   37.6803    6.4127 C   0  0  0  0  0  0  0  0  0  0  0  0
   33.6541   40.1949    4.4335 C   0  0  2  0  0  0  0  0  0  0  0  0
   33.0499   39.3306    3.4658 O   0  0  0  0  0  0  0  0  0  0  0  0
   31.1131   43.6910    3.1981 C   0  0  2  0  0  0  0  0  0  0  0  0
   30.0123   42.6962    3.0152 N   0  0  0  0  0  0  0  0  0  0  0  0
   37.0509   43.4385    8.7682 C   0  0  1  0  0  0  0  0  0  0  0  0
   36.6483   44.7995    8.6386 O   0  0  0  0  0  0  0  0  0  0  0  0
   39.4212   39.1216    6.9218 C   0  0  2  0  0  0  0  0  0  0  0  0
   40.0561   39.2707    8.2449 N   0  0  0  0  0  0  0  0  0  0  0  0
   33.2979   41.6758    4.2182 C   0  0  2  0  0  0  0  0  0  0  0  0
   32.9344   41.9675    2.8103 O   0  0  0  0  0  0  0  0  0  0  0  0
   30.6185   45.1341    2.7307 C   0  0  1  0  0  0  0  0  0  0  0  0
   31.5233   46.1675    3.1782 O   0  0  0  0  0  0  0  0  0  0  0  0
   37.1403   43.0361   10.2585 C   0  0  2  0  0  0  0  0  0  0  0  0
   38.0431   43.8851   10.9355 O   0  0  0  0  0  0  0  0  0  0  0  0
   37.8723   39.3731    6.9646 C   0  0  2  0  0  0  0  0  0  0  0  0
   34.5614   42.4223    4.6370 C   0  0  2  0  0  0  0  0  0  0  0  0
   35.6353   41.5067    4.4742 O   0  0  0  0  0  0  0  0  0  0  0  0
   30.4721   45.2344    1.1591 C   0  0  2  0  0  0  0  0  0  0  0  0
   29.3924   44.3880    0.7297 O   0  0  0  0  0  0  0  0  0  0  0  0
   37.5812   41.5644   10.3857 C   0  0  2  0  0  0  0  0  0  0  0  0
   36.6164   40.7239    9.6426 O   0  0  0  0  0  0  0  0  0  0  0  0
   37.2505   39.1575    5.4951 C   0  0  2  0  0  0  0  0  0  0  0  0
   35.7750   39.3459    5.4597 O   0  0  0  0  0  0  0  0  0  0  0  0
   34.5528   42.8756    6.0895 C   0  0  0  0  0  0  0  0  0  0  0  0
   31.8287   44.8059    0.4661 C   0  0  1  0  0  0  0  0  0  0  0  0
   32.3061   43.4672    0.9531 O   0  0  0  0  0  0  0  0  0  0  0  0
   37.6434   41.1665   11.8789 C   0  0  0  0  0  0  0  0  0  0  0  0
   38.0557   39.7740   12.1344 N   0  0  0  0  0  0  0  0  0  0  0  0
   37.5302   37.7138    5.0260 C   0  0  1  0  0  0  0  0  0  0  0  0
   36.9767   37.5208    3.7202 O   0  0  0  0  0  0  0  0  0  0  0  0
   31.7589   44.8264   -1.1094 C   0  0  0  0  0  0  0  0  0  0  0  0
   30.7406   43.9268   -1.7396 N   0  0  0  0  0  0  0  0  0  0  0  0
  1  2  1  6  0  0  0
  1  7  1  0  0  0  0
  1 30  1  0  0  0  0
  3  4  1  1  0  0  0
  3  9  1  0  0  0  0
  3 38  1  0  0  0  0
  5 10  1  0  0  0  0
  5 26  1  1  0  0  0
  5 32  1  0  0  0  0
  6 12  1  0  0  0  0
  6 35  1  0  0  0  0
  6 19  1  6  0  0  0
  7  8  1  6  0  0  0
  7 14  1  0  0  0  0
  8 33  1  0  0  0  0
  9 16  1  0  0  0  0
 10 11  1  6  0  0  0
 10 18  1  0  0  0  0
 12 13  1  6  0  0  0
 12 20  1  0  0  0  0
 14 15  1  1  0  0  0
 14 22  1  0  0  0  0
 16 17  1  1  0  0  0
 16 24  1  0  0  0  0
 18 19  1  6  0  0  0
 18 25  1  0  0  0  0
 20 21  1  6  0  0  0
 20 27  1  0  0  0  0
 22 23  1  1  0  0  0
 22 29  1  0  0  0  0
 24  2  1  6  0  0  0
 24 31  1  0  0  0  0
 25 26  1  1  0  0  0
 25 33  1  0  0  0  0
 27 28  1  6  0  0  0
 27 34  1  0  0  0  0
 29 30  1  0  0  0  0
 29 36  1  1  0  0  0
 31 32  1  1  0  0  0
 31 38  1  0  0  0  0
 34 35  1  0  0  0  0
 34 40  1  6  0  0  0
 36 37  1  0  0  0  0
 38 39  1  6  0  0  0
 40 41  1  0  0  0  0
M  END
>  <CHROM.1>
175.08078811,-61.93772006,-179.98222975,-60.03888164,35.17646544,41.62529410
5.36201646,0.31533972,-0.82898213,0.90372604

>  <Name>
ligand

>  <RI>
0

>  <Rbt.Current_Directory>
/home/itssahil/PROJECTS/Mol_Feturizer/New_Systems/rnas/1ZZ5

>  <Rbt.Executable>
rbdock ($Id: //depot/dev/client3/rdock/2013.1/src/exe/rbdock.cxx#4 $)

>  <Rbt.Library>
libRbt.so (2013.1, Build901 2013/11/27)

>  <Rbt.Parameter_File>
/export/apps/rDock/src/rDock_2013.1_src/data/scripts/dock_solv.prm

>  <Rbt.Receptor>
prm/pocket_docking_7.prm

>  <SCORE>
-11.7738

>  <SCORE.INTER>
-9.83695

>  <SCORE.INTER.CONST>
1

>  <SCORE.INTER.POLAR>
0

>  <SCORE.INTER.ROT>
4

>  <SCORE.INTER.SOLV>
10.6344

>  <SCORE.INTER.VDW>
-16.3694

>  <SCORE.INTER.norm>
-0.239926

>  <SCORE.INTRA>
-1.93684

>  <SCORE.INTRA.DIHEDRAL>
-4.81305

>  <SCORE.INTRA.DIHEDRAL.0>
5.18357

>  <SCORE.INTRA.POLAR>
0

>  <SCORE.INTRA.POLAR.0>
0

>  <SCORE.INTRA.REPUL>
0

>  <SCORE.INTRA.REPUL.0>
0

>  <SCORE.INTRA.SOLV>
0.369559

>  <SCORE.INTRA.SOLV.lig_0>
-109.973

>  <SCORE.INTRA.VDW>
0.284908

>  <SCORE.INTRA.VDW.0>
-1.68646

>  <SCORE.INTRA.norm>
-0.0472399

>  <SCORE.RESTR>
0

>  <SCORE.RESTR.CAVITY>
0

>  <SCORE.RESTR.norm>
0

>  <SCORE.SYSTEM>
0

>  <SCORE.SYSTEM.CONST>
0

>  <SCORE.SYSTEM.DIHEDRAL>
0

>  <SCORE.SYSTEM.SOLV>
0

>  <SCORE.SYSTEM.norm>
0

>  <SCORE.heavy>
41

>  <SCORE.norm>
-0.287166

>  <RMSD>
9.308

$$$$
ligand
 OpenBabel11021811423D
libRbt.so/2013.1/901 2013/11/27
 41 45  0  0  0  0  0  0  0  0999 V2000
   39.5623   41.5115    6.5490 C   0  0  2  0  0  0  0  0  0  0  0  0
   40.2317   41.1123    5.3369 O   0  0  0  0  0  0  0  0  0  0  0  0
   41.3852   37.3215    3.5432 C   0  0  2  0  0  0  0  0  0  0  0  0
   41.9463   35.9520    3.4134 N   0  0  0  0  0  0  0  0  0  0  0  0
   37.0017   38.8221    4.7300 C   0  0  1  0  0  0  0  0  0  0  0  0
   32.5914   40.2424    4.3108 C   0  0  1  0  0  0  0  0  0  0  0  0
   38.5724   42.6850    6.2829 C   0  0  2  0  0  0  0  0  0  0  0  0
   37.6126   42.3920    5.2142 N   0  0  0  0  0  0  0  0  0  0  0  0
   42.4830   38.2654    4.1279 C   0  0  0  0  0  0  0  0  0  0  0  0
   35.8307   38.6571    5.7255 C   0  0  2  0  0  0  0  0  0  0  0  0
   35.2175   37.3682    5.6179 O   0  0  0  0  0  0  0  0  0  0  0  0
   31.3423   39.4388    3.7485 C   0  0  2  0  0  0  0  0  0  0  0  0
   31.6181   38.6878    2.4857 N   0  0  0  0  0  0  0  0  0  0  0  0
   39.3560   43.9834    5.9507 C   0  0  1  0  0  0  0  0  0  0  0  0
   38.4478   45.0602    5.7347 O   0  0  0  0  0  0  0  0  0  0  0  0
   41.9486   39.7176    4.2938 C   0  0  2  0  0  0  0  0  0  0  0  0
   43.0436   40.5422    4.8386 N   0  0  0  0  0  0  0  0  0  0  0  0
   34.8684   39.8078    5.3849 C   0  0  2  0  0  0  0  0  0  0  0  0
   33.7678   39.3741    4.4905 O   0  0  0  0  0  0  0  0  0  0  0  0
   30.1145   40.4333    3.5269 C   0  0  1  0  0  0  0  0  0  0  0  0
   29.6165   40.9383    4.7854 O   0  0  0  0  0  0  0  0  0  0  0  0
   40.3297   44.3149    7.1052 C   0  0  2  0  0  0  0  0  0  0  0  0
   41.0337   45.5048    6.8177 O   0  0  0  0  0  0  0  0  0  0  0  0
   40.6764   39.7209    5.2135 C   0  0  2  0  0  0  0  0  0  0  0  0
   35.7613   40.8465    4.7119 C   0  0  2  0  0  0  0  0  0  0  0  0
   36.8666   40.1324    4.1768 O   0  0  0  0  0  0  0  0  0  0  0  0
   30.4992   41.6598    2.6053 C   0  0  2  0  0  0  0  0  0  0  0  0
   30.7540   41.1877    1.2716 O   0  0  0  0  0  0  0  0  0  0  0  0
   41.3097   43.1454    7.3259 C   0  0  2  0  0  0  0  0  0  0  0  0
   40.5215   41.9236    7.6004 O   0  0  0  0  0  0  0  0  0  0  0  0
   39.5441   38.7738    4.5705 C   0  0  2  0  0  0  0  0  0  0  0  0
   38.3140   38.6976    5.4041 O   0  0  0  0  0  0  0  0  0  0  0  0
   36.3055   41.8985    5.6671 C   0  0  0  0  0  0  0  0  0  0  0  0
   31.7730   42.3925    3.1925 C   0  0  1  0  0  0  0  0  0  0  0  0
   32.9032   41.4344    3.4412 O   0  0  0  0  0  0  0  0  0  0  0  0
   42.2621   43.4780    8.4981 C   0  0  0  0  0  0  0  0  0  0  0  0
   41.5976   43.6936    9.7967 N   0  0  0  0  0  0  0  0  0  0  0  0
   40.0897   37.3355    4.4426 C   0  0  1  0  0  0  0  0  0  0  0  0
   39.0834   36.4925    3.8723 O   0  0  0  0  0  0  0  0  0  0  0  0
   32.2612   43.6026    2.3066 C   0  0  0  0  0  0  0  0  0  0  0  0
   31.2811   44.7179    2.1097 N   0  0  0  0  0  0  0  0  0  0  0  0
  1  2  1  6  0  0  0
  1  7  1  0  0  0  0
  1 30  1  0  0  0  0
  3  4  1  1  0  0  0
  3  9  1  0  0  0  0
  3 38  1  0  0  0  0
  5 10  1  0  0  0  0
  5 26  1  1  0  0  0
  5 32  1  0  0  0  0
  6 12  1  0  0  0  0
  6 35  1  0  0  0  0
  6 19  1  6  0  0  0
  7  8  1  6  0  0  0
  7 14  1  0  0  0  0
  8 33  1  0  0  0  0
  9 16  1  0  0  0  0
 10 11  1  6  0  0  0
 10 18  1  0  0  0  0
 12 13  1  6  0  0  0
 12 20  1  0  0  0  0
 14 15  1  1  0  0  0
 14 22  1  0  0  0  0
 16 17  1  1  0  0  0
 16 24  1  0  0  0  0
 18 19  1  6  0  0  0
 18 25  1  0  0  0  0
 20 21  1  1  0  0  0
 20 27  1  0  0  0  0
 22 23  1  6  0  0  0
 22 29  1  0  0  0  0
 24  2  1  6  0  0  0
 24 31  1  0  0  0  0
 25 26  1  1  0  0  0
 25 33  1  0  0  0  0
 27 28  1  6  0  0  0
 27 34  1  0  0  0  0
 29 30  1  0  0  0  0
 29 36  1  1  0  0  0
 31 32  1  1  0  0  0
 31 38  1  0  0  0  0
 34 35  1  0  0  0  0
 34 40  1  6  0  0  0
 36 37  1  0  0  0  0
 38 39  1  6  0  0  0
 40 41  1  0  0  0  0
M  END
>  <CHROM.1>
165.87093766,-160.60126153,61.05659045,60.45771275,37.04190973,40.81760343
4.88257978,0.09925304,-0.26360732,0.33074135

>  <Name>
ligand

>  <RI>
0

>  <Rbt.Current_Directory>
/home/itssahil/PROJECTS/Mol_Feturizer/New_Systems/rnas/1ZZ5

>  <Rbt.Executable>
rbdock ($Id: //depot/dev/client3/rdock/2013.1/src/exe/rbdock.cxx#4 $)

>  <Rbt.Library>
libRbt.so (2013.1, Build901 2013/11/27)

>  <Rbt.Parameter_File>
/export/apps/rDock/src/rDock_2013.1_src/data/scripts/dock_solv.prm

>  <Rbt.Receptor>
prm/pocket_docking_5.prm

>  <SCORE>
-7.99466

>  <SCORE.INTER>
-6.94754

>  <SCORE.INTER.CONST>
1

>  <SCORE.INTER.POLAR>
0

>  <SCORE.INTER.ROT>
4

>  <SCORE.INTER.SOLV>
16.026

>  <SCORE.INTER.VDW>
-16.2404

>  <SCORE.INTER.norm>
-0.169452

>  <SCORE.INTRA>
-1.04713

>  <SCORE.INTRA.DIHEDRAL>
-2.35528

>  <SCORE.INTRA.DIHEDRAL.0>
5.18357

>  <SCORE.INTRA.POLAR>
0

>  <SCORE.INTRA.POLAR.0>
0

>  <SCORE.INTRA.REPUL>
0

>  <SCORE.INTRA.REPUL.0>
0

>  <SCORE.INTRA.SOLV>
0.102444

>  <SCORE.INTRA.SOLV.lig_0>
-109.973

>  <SCORE.INTRA.VDW>
0.0792899

>  <SCORE.INTRA.VDW.0>
-1.68646

>  <SCORE.INTRA.norm>
-0.0255397

>  <SCORE.RESTR>
0

>  <SCORE.RESTR.CAVITY>
0

>  <SCORE.RESTR.norm>
0

>  <SCORE.SYSTEM>
0

>  <SCORE.SYSTEM.CONST>
0

>  <SCORE.SYSTEM.DIHEDRAL>
0

>  <SCORE.SYSTEM.SOLV>
0

>  <SCORE.SYSTEM.norm>
0

>  <SCORE.heavy>
41

>  <SCORE.norm>
-0.194992

>  <RMSD>
9.319

$$$$
ligand
 OpenBabel11021811423D
libRbt.so/2013.1/901 2013/11/27
 41 45  0  0  0  0  0  0  0  0999 V2000
   38.7579   37.8038    4.4876 C   0  0  2  0  0  0  0  0  0  0  0  0
   39.2870   38.8991    5.2603 O   0  0  0  0  0  0  0  0  0  0  0  0
   38.5410   43.1787    5.4765 C   0  0  2  0  0  0  0  0  0  0  0  0
   38.3188   44.5808    5.0384 N   0  0  0  0  0  0  0  0  0  0  0  0
   35.4630   39.5960    6.2281 C   0  0  1  0  0  0  0  0  0  0  0  0
   32.6894   36.7471    8.5485 C   0  0  1  0  0  0  0  0  0  0  0  0
   38.5738   36.5325    5.3693 C   0  0  2  0  0  0  0  0  0  0  0  0
   37.7664   36.7799    6.5677 N   0  0  0  0  0  0  0  0  0  0  0  0
   39.8728   42.6573    4.8499 C   0  0  0  0  0  0  0  0  0  0  0  0
   34.2488   38.8264    5.6596 C   0  0  2  0  0  0  0  0  0  0  0  0
   33.0771   39.6464    5.6029 O   0  0  0  0  0  0  0  0  0  0  0  0
   31.4856   37.1498    9.5028 C   0  0  2  0  0  0  0  0  0  0  0  0
   31.7212   38.4001   10.2878 N   0  0  0  0  0  0  0  0  0  0  0  0
   39.9570   35.9536    5.7719 C   0  0  1  0  0  0  0  0  0  0  0  0
   39.7841   34.7758    6.5555 O   0  0  0  0  0  0  0  0  0  0  0  0
   40.1553   41.1854    5.2692 C   0  0  2  0  0  0  0  0  0  0  0  0
   41.4282   40.7750    4.6471 N   0  0  0  0  0  0  0  0  0  0  0  0
   34.0868   37.6150    6.5936 C   0  0  2  0  0  0  0  0  0  0  0  0
   33.0627   37.8460    7.6411 O   0  0  0  0  0  0  0  0  0  0  0  0
   31.1555   35.9448   10.4950 C   0  0  1  0  0  0  0  0  0  0  0  0
   30.6174   34.8108    9.7800 O   0  0  0  0  0  0  0  0  0  0  0  0
   40.7838   35.6468    4.5019 C   0  0  2  0  0  0  0  0  0  0  0  0
   42.0370   35.1034    4.8600 O   0  0  0  0  0  0  0  0  0  0  0  0
   38.9546   40.2660    4.8480 C   0  0  2  0  0  0  0  0  0  0  0  0
   35.4755   37.4292    7.1987 C   0  0  2  0  0  0  0  0  0  0  0  0
   36.1106   38.6981    7.1311 O   0  0  0  0  0  0  0  0  0  0  0  0
   32.4289   35.4743   11.3065 C   0  0  2  0  0  0  0  0  0  0  0  0
   32.8234   36.5172   12.2139 O   0  0  0  0  0  0  0  0  0  0  0  0
   40.9681   36.9287    3.6655 C   0  0  2  0  0  0  0  0  0  0  0  0
   39.6292   37.4666    3.3376 O   0  0  0  0  0  0  0  0  0  0  0  0
   37.6005   40.7984    5.5377 C   0  0  2  0  0  0  0  0  0  0  0  0
   36.4061   39.9959    5.1591 O   0  0  0  0  0  0  0  0  0  0  0  0
   36.3446   36.4332    6.4449 C   0  0  0  0  0  0  0  0  0  0  0  0
   33.6049   35.1290   10.3055 C   0  0  1  0  0  0  0  0  0  0  0  0
   33.8705   36.2547    9.3465 O   0  0  0  0  0  0  0  0  0  0  0  0
   41.7751   36.6047    2.3866 C   0  0  0  0  0  0  0  0  0  0  0  0
   42.0769   37.7672    1.5311 N   0  0  0  0  0  0  0  0  0  0  0  0
   37.3291   42.2487    5.0841 C   0  0  1  0  0  0  0  0  0  0  0  0
   36.1249   42.7224    5.6957 O   0  0  0  0  0  0  0  0  0  0  0  0
   34.9368   34.6978   11.0316 C   0  0  0  0  0  0  0  0  0  0  0  0
   35.5793   35.7301   11.9062 N   0  0  0  0  0  0  0  0  0  0  0  0
  1  2  1  1  0  0  0
  1  7  1  0  0  0  0
  1 30  1  0  0  0  0
  3  4  1  6  0  0  0
  3  9  1  0  0  0  0
  3 38  1  0  0  0  0
  5 10  1  0  0  0  0
  5 26  1  1  0  0  0
  5 32  1  0  0  0  0
  6 12  1  0  0  0  0
  6 35  1  0  0  0  0
  6 19  1  1  0  0  0
  7  8  1  1  0  0  0
  7 14  1  0  0  0  0
  8 33  1  0  0  0  0
  9 16  1  0  0  0  0
 10 11  1  1  0  0  0
 10 18  1  0  0  0  0
 12 13  1  1  0  0  0
 12 20  1  0  0  0  0
 14 15  1  6  0  0  0
 14 22  1  0  0  0  0
 16 17  1  6  0  0  0
 16 24  1  0  0  0  0
 18 19  1  1  0  0  0
 18 25  1  0  0  0  0
 20 21  1  6  0  0  0
 20 27  1  0  0  0  0
 22 23  1  1  0  0  0
 22 29  1  0  0  0  0
 24  2  1  1  0  0  0
 24 31  1  0  0  0  0
 25 26  1  6  0  0  0
 25 33  1  0  0  0  0
 27 28  1  1  0  0  0
 27 34  1  0  0  0  0
 29 30  1  0  0  0  0
 29 36  1  6  0  0  0
 31 32  1  6  0  0  0
 31 38  1  0  0  0  0
 34 35  1  0  0  0  0
 34 40  1  1  0  0  0
 36 37  1  0  0  0  0
 38 39  1  1  0  0  0
 40 41  1  0  0  0  0
M  END
>  <CHROM.1>
174.49828790,-174.57095907,-177.11772901,-62.80533711,36.68783455,38.07194879
6.67184093,-0.46595152,-0.55543873,2.82714956

>  <Name>
ligand

>  <RI>
0

>  <Rbt.Current_Directory>
/home/itssahil/PROJECTS/Mol_Feturizer/New_Systems/rnas/1ZZ5

>  <Rbt.Executable>
rbdock ($Id: //depot/dev/client3/rdock/2013.1/src/exe/rbdock.cxx#4 $)

>  <Rbt.Library>
libRbt.so (2013.1, Build901 2013/11/27)

>  <Rbt.Parameter_File>
/export/apps/rDock/src/rDock_2013.1_src/data/scripts/dock_solv.prm

>  <Rbt.Receptor>
prm/pocket_docking_6.prm

>  <SCORE>
-10.2396

>  <SCORE.INTER>
-8.03869

>  <SCORE.INTER.CONST>
1

>  <SCORE.INTER.POLAR>
0

>  <SCORE.INTER.ROT>
4

>  <SCORE.INTER.SOLV>
21.0044

>  <SCORE.INTER.VDW>
-18.6273

>  <SCORE.INTER.norm>
-0.196066

>  <SCORE.INTRA>
-2.20092

>  <SCORE.INTRA.DIHEDRAL>
-4.59806

>  <SCORE.INTRA.DIHEDRAL.0>
5.18357

>  <SCORE.INTRA.POLAR>
0

>  <SCORE.INTRA.POLAR.0>
0

>  <SCORE.INTRA.REPUL>
0

>  <SCORE.INTRA.REPUL.0>
0

>  <SCORE.INTRA.SOLV>
0.0763149

>  <SCORE.INTRA.SOLV.lig_0>
-109.973

>  <SCORE.INTRA.VDW>
0.0599543

>  <SCORE.INTRA.VDW.0>
-1.68646

>  <SCORE.INTRA.norm>
-0.0536809

>  <SCORE.RESTR>
0

>  <SCORE.RESTR.CAVITY>
0

>  <SCORE.RESTR.norm>
0

>  <SCORE.SYSTEM>
0

>  <SCORE.SYSTEM.CONST>
0

>  <SCORE.SYSTEM.DIHEDRAL>
0

>  <SCORE.SYSTEM.SOLV>
0

>  <SCORE.SYSTEM.norm>
0

>  <SCORE.heavy>
41

>  <SCORE.norm>
-0.249747

>  <RMSD>
9.324

$$$$
ligand
 OpenBabel11021811423D
libRbt.so/2013.1/901 2013/11/27
 41 45  0  0  0  0  0  0  0  0999 V2000
   36.5532   42.2589    7.4383 C   0  0  2  0  0  0  0  0  0  0  0  0
   37.3139   41.0459    7.6012 O   0  0  0  0  0  0  0  0  0  0  0  0
   36.5677   37.1370    9.3566 C   0  0  2  0  0  0  0  0  0  0  0  0
   36.1329   36.1054   10.3333 N   0  0  0  0  0  0  0  0  0  0  0  0
   34.2101   39.2781    5.7884 C   0  0  1  0  0  0  0  0  0  0  0  0
   31.2845   39.7951    2.4383 C   0  0  1  0  0  0  0  0  0  0  0  0
   36.7972   42.8901    6.0348 C   0  0  2  0  0  0  0  0  0  0  0  0
   36.5493   41.9524    4.9355 N   0  0  0  0  0  0  0  0  0  0  0  0
   37.5392   38.1309   10.0684 C   0  0  0  0  0  0  0  0  0  0  0  0
   32.8986   39.9875    5.3803 C   0  0  2  0  0  0  0  0  0  0  0  0
   31.7791   39.0961    5.4096 O   0  0  0  0  0  0  0  0  0  0  0  0
   30.9639   41.2772    1.9663 C   0  0  2  0  0  0  0  0  0  0  0  0
   31.2651   42.3227    2.9916 N   0  0  0  0  0  0  0  0  0  0  0  0
   38.2432   43.4473    5.9408 C   0  0  1  0  0  0  0  0  0  0  0  0
   38.4533   44.0476    4.6655 O   0  0  0  0  0  0  0  0  0  0  0  0
   38.0237   39.2424    9.0927 C   0  0  2  0  0  0  0  0  0  0  0  0
   38.9394   40.1281    9.8363 N   0  0  0  0  0  0  0  0  0  0  0  0
   33.1821   40.5462    3.9754 C   0  0  2  0  0  0  0  0  0  0  0  0
   32.6753   39.6553    2.9035 O   0  0  0  0  0  0  0  0  0  0  0  0
   29.4358   41.3843    1.5203 C   0  0  1  0  0  0  0  0  0  0  0  0
   29.1855   40.6170    0.3221 O   0  0  0  0  0  0  0  0  0  0  0  0
   38.4812   44.4739    7.0723 C   0  0  2  0  0  0  0  0  0  0  0  0
   39.7894   44.9982    6.9825 O   0  0  0  0  0  0  0  0  0  0  0  0
   36.7909   40.0117    8.4988 C   0  0  2  0  0  0  0  0  0  0  0  0
   34.7024   40.6701    3.9291 C   0  0  2  0  0  0  0  0  0  0  0  0
   35.2057   39.7323    4.8700 O   0  0  0  0  0  0  0  0  0  0  0  0
   28.4479   40.8916    2.6530 C   0  0  2  0  0  0  0  0  0  0  0  0
   28.5067   41.8047    3.7617 O   0  0  0  0  0  0  0  0  0  0  0  0
   38.2559   43.8119    8.4463 C   0  0  2  0  0  0  0  0  0  0  0  0
   36.8825   43.2620    8.4780 O   0  0  0  0  0  0  0  0  0  0  0  0
   35.8249   38.9740    7.7356 C   0  0  2  0  0  0  0  0  0  0  0  0
   34.6112   39.6238    7.1711 O   0  0  0  0  0  0  0  0  0  0  0  0
   35.2178   42.0466    4.3230 C   0  0  0  0  0  0  0  0  0  0  0  0
   28.8438   39.4294    3.1106 C   0  0  1  0  0  0  0  0  0  0  0  0
   30.2968   39.3341    3.4804 O   0  0  0  0  0  0  0  0  0  0  0  0
   38.4728   44.8538    9.5684 C   0  0  0  0  0  0  0  0  0  0  0  0
   39.8641   45.3158    9.7270 N   0  0  0  0  0  0  0  0  0  0  0  0
   35.3371   37.8995    8.7307 C   0  0  1  0  0  0  0  0  0  0  0  0
   34.4772   36.9772    8.0535 O   0  0  0  0  0  0  0  0  0  0  0  0
   27.9404   38.8743    4.2781 C   0  0  0  0  0  0  0  0  0  0  0  0
   26.4783   38.7433    3.9802 N   0  0  0  0  0  0  0  0  0  0  0  0
  1  2  1  1  0  0  0
  1  7  1  0  0  0  0
  1 30  1  0  0  0  0
  3  4  1  1  0  0  0
  3  9  1  0  0  0  0
  3 38  1  0  0  0  0
  5 10  1  0  0  0  0
  5 26  1  6  0  0  0
  5 32  1  0  0  0  0
  6 12  1  0  0  0  0
  6 35  1  0  0  0  0
  6 19  1  1  0  0  0
  7  8  1  6  0  0  0
  7 14  1  0  0  0  0
  8 33  1  0  0  0  0
  9 16  1  0  0  0  0
 10 11  1  6  0  0  0
 10 18  1  0  0  0  0
 12 13  1  1  0  0  0
 12 20  1  0  0  0  0
 14 15  1  6  0  0  0
 14 22  1  0  0  0  0
 16 17  1  1  0  0  0
 16 24  1  0  0  0  0
 18 19  1  6  0  0  0
 18 25  1  0  0  0  0
 20 21  1  6  0  0  0
 20 27  1  0  0  0  0
 22 23  1  1  0  0  0
 22 29  1  0  0  0  0
 24  2  1  6  0  0  0
 24 31  1  0  0  0  0
 25 26  1  1  0  0  0
 25 33  1  0  0  0  0
 27 28  1  1  0  0  0
 27 34  1  0  0  0  0
 29 30  1  0  0  0  0
 29 36  1  1  0  0  0
 31 32  1  1  0  0  0
 31 38  1  0  0  0  0
 34 35  1  0  0  0  0
 34 40  1  1  0  0  0
 36 37  1  0  0  0  0
 38 39  1  6  0  0  0
 40 41  1  0  0  0  0
M  END
>  <CHROM.1>
87.27733894,55.14966155,-68.09887012,61.24106423,34.43429982,40.78756892
5.90378467,-0.13985559,-0.57529502,-0.59828312

>  <Name>
ligand

>  <RI>
0

>  <Rbt.Current_Directory>
/home/itssahil/PROJECTS/Mol_Feturizer/New_Systems/rnas/1ZZ5

>  <Rbt.Executable>
rbdock ($Id: //depot/dev/client3/rdock/2013.1/src/exe/rbdock.cxx#4 $)

>  <Rbt.Library>
libRbt.so (2013.1, Build901 2013/11/27)

>  <Rbt.Parameter_File>
/export/apps/rDock/src/rDock_2013.1_src/data/scripts/dock_solv.prm

>  <Rbt.Receptor>
prm/pocket_docking_7.prm

>  <SCORE>
-9.94003

>  <SCORE.INTER>
-11.49

>  <SCORE.INTER.CONST>
1

>  <SCORE.INTER.POLAR>
0

>  <SCORE.INTER.ROT>
4

>  <SCORE.INTER.SOLV>
12.6199

>  <SCORE.INTER.VDW>
-18.1333

>  <SCORE.INTER.norm>
-0.280245

>  <SCORE.INTRA>
1.55002

>  <SCORE.INTRA.DIHEDRAL>
-1.55101

>  <SCORE.INTRA.DIHEDRAL.0>
5.18357

>  <SCORE.INTRA.POLAR>
0

>  <SCORE.INTRA.POLAR.0>
0

>  <SCORE.INTRA.REPUL>
0

>  <SCORE.INTRA.REPUL.0>
0

>  <SCORE.INTRA.SOLV>
2.86765

>  <SCORE.INTRA.SOLV.lig_0>
-109.973

>  <SCORE.INTRA.VDW>
0.891697

>  <SCORE.INTRA.VDW.0>
-1.68646

>  <SCORE.INTRA.norm>
0.0378053

>  <SCORE.RESTR>
0

>  <SCORE.RESTR.CAVITY>
0

>  <SCORE.RESTR.norm>
0

>  <SCORE.SYSTEM>
0

>  <SCORE.SYSTEM.CONST>
0

>  <SCORE.SYSTEM.DIHEDRAL>
0

>  <SCORE.SYSTEM.SOLV>
0

>  <SCORE.SYSTEM.norm>
0

>  <SCORE.heavy>
41

>  <SCORE.norm>
-0.24244

>  <RMSD>
9.376

$$$$
ligand
 OpenBabel11021811423D
libRbt.so/2013.1/901 2013/11/27
 41 45  0  0  0  0  0  0  0  0999 V2000
   36.6348   42.1812    7.2971 C   0  0  2  0  0  0  0  0  0  0  0  0
   37.2934   40.9001    7.2622 O   0  0  0  0  0  0  0  0  0  0  0  0
   36.2847   36.8659    8.5372 C   0  0  2  0  0  0  0  0  0  0  0  0
   35.8032   35.7523    9.3948 N   0  0  0  0  0  0  0  0  0  0  0  0
   33.9748   39.6442    5.4036 C   0  0  1  0  0  0  0  0  0  0  0  0
   31.0436   40.9678    2.1850 C   0  0  1  0  0  0  0  0  0  0  0  0
   36.8737   42.9712    5.9756 C   0  0  2  0  0  0  0  0  0  0  0  0
   36.4997   42.2107    4.7794 N   0  0  0  0  0  0  0  0  0  0  0  0
   37.3677   37.6750    9.3187 C   0  0  0  0  0  0  0  0  0  0  0  0
   32.7139   40.5048    5.1599 C   0  0  2  0  0  0  0  0  0  0  0  0
   31.5235   39.7105    5.1334 O   0  0  0  0  0  0  0  0  0  0  0  0
   31.1001   42.4389    1.5891 C   0  0  2  0  0  0  0  0  0  0  0  0
   31.6632   43.4565    2.5284 N   0  0  0  0  0  0  0  0  0  0  0  0
   38.3575   43.4176    5.8778 C   0  0  1  0  0  0  0  0  0  0  0  0
   38.5654   44.1628    4.6809 O   0  0  0  0  0  0  0  0  0  0  0  0
   37.9056   38.8634    8.4699 C   0  0  2  0  0  0  0  0  0  0  0  0
   38.9250   39.5660    9.2718 N   0  0  0  0  0  0  0  0  0  0  0  0
   32.9859   41.2201    3.8256 C   0  0  2  0  0  0  0  0  0  0  0  0
   32.3593   40.5230    2.6762 O   0  0  0  0  0  0  0  0  0  0  0  0
   29.6434   42.8880    1.1181 C   0  0  1  0  0  0  0  0  0  0  0  0
   29.1977   42.1117   -0.0158 O   0  0  0  0  0  0  0  0  0  0  0  0
   38.7308   44.2625    7.1178 C   0  0  2  0  0  0  0  0  0  0  0  0
   40.0746   44.6869    7.0272 O   0  0  0  0  0  0  0  0  0  0  0  0
   36.7205   39.8015    8.0457 C   0  0  2  0  0  0  0  0  0  0  0  0
   34.5080   41.2262    3.7153 C   0  0  2  0  0  0  0  0  0  0  0  0
   34.9668   40.1344    4.5000 O   0  0  0  0  0  0  0  0  0  0  0  0
   28.5743   42.7536    2.2759 C   0  0  2  0  0  0  0  0  0  0  0  0
   28.8703   43.7110    3.3065 O   0  0  0  0  0  0  0  0  0  0  0  0
   38.5065   43.4445    8.4051 C   0  0  2  0  0  0  0  0  0  0  0  0
   37.0931   43.0078    8.4383 O   0  0  0  0  0  0  0  0  0  0  0  0
   35.6370   38.9554    7.2075 C   0  0  2  0  0  0  0  0  0  0  0  0
   34.4618   39.7700    6.7961 O   0  0  0  0  0  0  0  0  0  0  0  0
   35.1569   42.4922    4.2553 C   0  0  0  0  0  0  0  0  0  0  0  0
   28.5955   41.2817    2.8567 C   0  0  1  0  0  0  0  0  0  0  0  0
   29.9817   40.8564    3.2499 O   0  0  0  0  0  0  0  0  0  0  0  0
   38.8597   44.3076    9.6389 C   0  0  0  0  0  0  0  0  0  0  0  0
   37.9903   45.4803    9.8465 N   0  0  0  0  0  0  0  0  0  0  0  0
   35.0999   37.8013    8.0805 C   0  0  1  0  0  0  0  0  0  0  0  0
   34.1356   37.0493    7.3366 O   0  0  0  0  0  0  0  0  0  0  0  0
   27.5928   41.0687    4.0553 C   0  0  0  0  0  0  0  0  0  0  0  0
   27.4304   39.6615    4.5418 N   0  0  0  0  0  0  0  0  0  0  0  0
  1  2  1  6  0  0  0
  1  7  1  0  0  0  0
  1 30  1  0  0  0  0
  3  4  1  1  0  0  0
  3  9  1  0  0  0  0
  3 38  1  0  0  0  0
  5 10  1  0  0  0  0
  5 26  1  6  0  0  0
  5 32  1  0  0  0  0
  6 12  1  0  0  0  0
  6 35  1  0  0  0  0
  6 19  1  1  0  0  0
  7  8  1  6  0  0  0
  7 14  1  0  0  0  0
  8 33  1  0  0  0  0
  9 16  1  0  0  0  0
 10 11  1  6  0  0  0
 10 18  1  0  0  0  0
 12 13  1  1  0  0  0
 12 20  1  0  0  0  0
 14 15  1  6  0  0  0
 14 22  1  0  0  0  0
 16 17  1  1  0  0  0
 16 24  1  0  0  0  0
 18 19  1  6  0  0  0
 18 25  1  0  0  0  0
 20 21  1  6  0  0  0
 20 27  1  0  0  0  0
 22 23  1  6  0  0  0
 22 29  1  0  0  0  0
 24  2  1  6  0  0  0
 24 31  1  0  0  0  0
 25 26  1  1  0  0  0
 25 33  1  0  0  0  0
 27 28  1  1  0  0  0
 27 34  1  0  0  0  0
 29 30  1  0  0  0  0
 29 36  1  1  0  0  0
 31 32  1  1  0  0  0
 31 38  1  0  0  0  0
 34 35  1  0  0  0  0
 34 40  1  1  0  0  0
 36 37  1  0  0  0  0
 38 39  1  6  0  0  0
 40 41  1  0  0  0  0
M  END
>  <CHROM.1>
96.03847657,64.77276994,65.01877825,172.50878012,34.36799022,41.22404270
5.62014683,-0.26432489,-0.52801627,-0.47824678

>  <Name>
ligand

>  <RI>
0

>  <Rbt.Current_Directory>
/home/itssahil/PROJECTS/Mol_Feturizer/New_Systems/rnas/1ZZ5

>  <Rbt.Executable>
rbdock ($Id: //depot/dev/client3/rdock/2013.1/src/exe/rbdock.cxx#4 $)

>  <Rbt.Library>
libRbt.so (2013.1, Build901 2013/11/27)

>  <Rbt.Parameter_File>
/export/apps/rDock/src/rDock_2013.1_src/data/scripts/dock_solv.prm

>  <Rbt.Receptor>
prm/pocket_docking_6.prm

>  <SCORE>
-8.75787

>  <SCORE.INTER>
-9.80463

>  <SCORE.INTER.CONST>
1

>  <SCORE.INTER.POLAR>
0

>  <SCORE.INTER.ROT>
4

>  <SCORE.INTER.SOLV>
15.2086

>  <SCORE.INTER.VDW>
-17.8726

>  <SCORE.INTER.norm>
-0.239137

>  <SCORE.INTRA>
1.04676

>  <SCORE.INTRA.DIHEDRAL>
0.116423

>  <SCORE.INTRA.DIHEDRAL.0>
5.18357

>  <SCORE.INTRA.POLAR>
0

>  <SCORE.INTRA.POLAR.0>
0

>  <SCORE.INTRA.REPUL>
0

>  <SCORE.INTRA.REPUL.0>
0

>  <SCORE.INTRA.SOLV>
2.24225

>  <SCORE.INTRA.SOLV.lig_0>
-109.973

>  <SCORE.INTRA.VDW>
-0.132579

>  <SCORE.INTRA.VDW.0>
-1.68646

>  <SCORE.INTRA.norm>
0.0255307

>  <SCORE.RESTR>
0

>  <SCORE.RESTR.CAVITY>
0

>  <SCORE.RESTR.norm>
0

>  <SCORE.SYSTEM>
0

>  <SCORE.SYSTEM.CONST>
0

>  <SCORE.SYSTEM.DIHEDRAL>
0

>  <SCORE.SYSTEM.SOLV>
0

>  <SCORE.SYSTEM.norm>
0

>  <SCORE.heavy>
41

>  <SCORE.norm>
-0.213607

>  <RMSD>
9.397

$$$$
ligand
 OpenBabel11021811423D
libRbt.so/2013.1/901 2013/11/27
 41 45  0  0  0  0  0  0  0  0999 V2000
   37.7676   41.3233    6.7565 C   0  0  2  0  0  0  0  0  0  0  0  0
   38.6014   40.4525    5.9672 O   0  0  0  0  0  0  0  0  0  0  0  0
   39.0148   36.1476    5.5032 C   0  0  2  0  0  0  0  0  0  0  0  0
   39.1474   34.7115    5.8600 N   0  0  0  0  0  0  0  0  0  0  0  0
   35.1444   38.8496    4.7323 C   0  0  1  0  0  0  0  0  0  0  0  0
   31.8315   41.0203    2.3838 C   0  0  1  0  0  0  0  0  0  0  0  0
   37.2987   42.5555    5.9261 C   0  0  2  0  0  0  0  0  0  0  0  0
   36.6423   42.1818    4.6697 N   0  0  0  0  0  0  0  0  0  0  0  0
   40.1319   36.9566    6.2351 C   0  0  0  0  0  0  0  0  0  0  0  0
   33.7453   39.2416    5.2602 C   0  0  2  0  0  0  0  0  0  0  0  0
   32.8282   38.1440    5.2053 O   0  0  0  0  0  0  0  0  0  0  0  0
   30.8830   42.0046    3.1924 C   0  0  2  0  0  0  0  0  0  0  0  0
   29.8199   41.3139    3.9846 N   0  0  0  0  0  0  0  0  0  0  0  0
   38.4992   43.4968    5.6378 C   0  0  1  0  0  0  0  0  0  0  0  0
   38.0610   44.6356    4.9016 O   0  0  0  0  0  0  0  0  0  0  0  0
   40.0382   38.4744    5.9041 C   0  0  2  0  0  0  0  0  0  0  0  0
   41.1280   39.1614    6.6227 N   0  0  0  0  0  0  0  0  0  0  0  0
   33.3159   40.4249    4.3762 C   0  0  2  0  0  0  0  0  0  0  0  0
   32.4392   40.0016    3.2575 O   0  0  0  0  0  0  0  0  0  0  0  0
   30.2147   43.0539    2.1934 C   0  0  1  0  0  0  0  0  0  0  0  0
   31.2011   43.9556    1.6451 O   0  0  0  0  0  0  0  0  0  0  0  0
   39.1553   43.9283    6.9698 C   0  0  2  0  0  0  0  0  0  0  0  0
   40.2378   44.7990    6.7161 O   0  0  0  0  0  0  0  0  0  0  0  0
   38.6198   39.0233    6.2930 C   0  0  2  0  0  0  0  0  0  0  0  0
   34.6344   41.0013    3.8678 C   0  0  2  0  0  0  0  0  0  0  0  0
   35.5761   39.9386    3.9147 O   0  0  0  0  0  0  0  0  0  0  0  0
   29.4589   42.3430    0.9997 C   0  0  2  0  0  0  0  0  0  0  0  0
   28.3150   41.6413    1.5151 O   0  0  0  0  0  0  0  0  0  0  0  0
   39.6294   42.6888    7.7545 C   0  0  2  0  0  0  0  0  0  0  0  0
   38.4643   41.8030    7.9729 O   0  0  0  0  0  0  0  0  0  0  0  0
   37.4871   38.2019    5.4963 C   0  0  2  0  0  0  0  0  0  0  0  0
   36.1075   38.6425    5.8376 O   0  0  0  0  0  0  0  0  0  0  0  0
   35.1751   42.1399    4.7203 C   0  0  0  0  0  0  0  0  0  0  0  0
   30.4412   41.3458    0.2615 C   0  0  1  0  0  0  0  0  0  0  0  0
   31.0993   40.3967    1.2223 O   0  0  0  0  0  0  0  0  0  0  0  0
   40.2614   43.1311    9.0948 C   0  0  0  0  0  0  0  0  0  0  0  0
   40.7649   42.0309    9.9376 N   0  0  0  0  0  0  0  0  0  0  0  0
   37.5842   36.7057    5.8632 C   0  0  1  0  0  0  0  0  0  0  0  0
   36.5768   35.9748    5.1565 O   0  0  0  0  0  0  0  0  0  0  0  0
   29.7559   40.5512   -0.9159 C   0  0  0  0  0  0  0  0  0  0  0  0
   29.1678   41.3766   -2.0187 N   0  0  0  0  0  0  0  0  0  0  0  0
  1  2  1  6  0  0  0
  1  7  1  0  0  0  0
  1 30  1  0  0  0  0
  3  4  1  1  0  0  0
  3  9  1  0  0  0  0
  3 38  1  0  0  0  0
  5 10  1  0  0  0  0
  5 26  1  6  0  0  0
  5 32  1  0  0  0  0
  6 12  1  0  0  0  0
  6 35  1  0  0  0  0
  6 19  1  1  0  0  0
  7  8  1  6  0  0  0
  7 14  1  0  0  0  0
  8 33  1  0  0  0  0
  9 16  1  0  0  0  0
 10 11  1  6  0  0  0
 10 18  1  0  0  0  0
 12 13  1  6  0  0  0
 12 20  1  0  0  0  0
 14 15  1  1  0  0  0
 14 22  1  0  0  0  0
 16 17  1  1  0  0  0
 16 24  1  0  0  0  0
 18 19  1  6  0  0  0
 18 25  1  0  0  0  0
 20 21  1  6  0  0  0
 20 27  1  0  0  0  0
 22 23  1  6  0  0  0
 22 29  1  0  0  0  0
 24  2  1  6  0  0  0
 24 31  1  0  0  0  0
 25 26  1  1  0  0  0
 25 33  1  0  0  0  0
 27 28  1  1  0  0  0
 27 34  1  0  0  0  0
 29 30  1  0  0  0  0
 29 36  1  1  0  0  0
 31 32  1  1  0  0  0
 31 38  1  0  0  0  0
 34 35  1  0  0  0  0
 34 40  1  6  0  0  0
 36 37  1  0  0  0  0
 38 39  1  6  0  0  0
 40 41  1  0  0  0  0
M  END
>  <CHROM.1>
174.33544107,-60.92542875,-179.60218157,59.09856445,35.49584896,40.63852910
4.64512955,-0.05821643,-0.55614981,0.07263576

>  <Name>
ligand

>  <RI>
0

>  <Rbt.Current_Directory>
/home/itssahil/PROJECTS/Mol_Feturizer/New_Systems/rnas/1ZZ5

>  <Rbt.Executable>
rbdock ($Id: //depot/dev/client3/rdock/2013.1/src/exe/rbdock.cxx#4 $)

>  <Rbt.Library>
libRbt.so (2013.1, Build901 2013/11/27)

>  <Rbt.Parameter_File>
/export/apps/rDock/src/rDock_2013.1_src/data/scripts/dock_solv.prm

>  <Rbt.Receptor>
prm/pocket_docking_7.prm

>  <SCORE>
-10.8639

>  <SCORE.INTER>
-8.46212

>  <SCORE.INTER.CONST>
1

>  <SCORE.INTER.POLAR>
0

>  <SCORE.INTER.ROT>
4

>  <SCORE.INTER.SOLV>
18.6831

>  <SCORE.INTER.VDW>
-18.1358

>  <SCORE.INTER.norm>
-0.206393

>  <SCORE.INTRA>
-2.40182

>  <SCORE.INTRA.DIHEDRAL>
-4.7839

>  <SCORE.INTRA.DIHEDRAL.0>
5.18357

>  <SCORE.INTRA.POLAR>
0

>  <SCORE.INTRA.POLAR.0>
0

>  <SCORE.INTRA.REPUL>
0

>  <SCORE.INTRA.REPUL.0>
0

>  <SCORE.INTRA.SOLV>
-0.828834

>  <SCORE.INTRA.SOLV.lig_0>
-109.973

>  <SCORE.INTRA.VDW>
0.404549

>  <SCORE.INTRA.VDW.0>
-1.68646

>  <SCORE.INTRA.norm>
-0.058581

>  <SCORE.RESTR>
0

>  <SCORE.RESTR.CAVITY>
0

>  <SCORE.RESTR.norm>
0

>  <SCORE.SYSTEM>
0

>  <SCORE.SYSTEM.CONST>
0

>  <SCORE.SYSTEM.DIHEDRAL>
0

>  <SCORE.SYSTEM.SOLV>
0

>  <SCORE.SYSTEM.norm>
0

>  <SCORE.heavy>
41

>  <SCORE.norm>
-0.264974

>  <RMSD>
9.436

$$$$
ligand
 OpenBabel11021811423D
libRbt.so/2013.1/901 2013/11/27
 41 45  0  0  0  0  0  0  0  0999 V2000
   38.4383   41.7065    6.7034 C   0  0  2  0  0  0  0  0  0  0  0  0
   39.1304   41.0623    5.6160 O   0  0  0  0  0  0  0  0  0  0  0  0
   39.3474   37.0086    4.0545 C   0  0  2  0  0  0  0  0  0  0  0  0
   39.4843   35.5295    4.0249 N   0  0  0  0  0  0  0  0  0  0  0  0
   35.4909   39.7990    4.5190 C   0  0  1  0  0  0  0  0  0  0  0  0
   31.9730   42.4706    3.2447 C   0  0  1  0  0  0  0  0  0  0  0  0
   37.8979   43.1038    6.2753 C   0  0  2  0  0  0  0  0  0  0  0  0
   37.0656   43.0499    5.0697 N   0  0  0  0  0  0  0  0  0  0  0  0
   40.5775   37.6163    4.7998 C   0  0  0  0  0  0  0  0  0  0  0  0
   34.1891   40.0413    5.3168 C   0  0  2  0  0  0  0  0  0  0  0  0
   33.2406   38.9873    5.1220 O   0  0  0  0  0  0  0  0  0  0  0  0
   30.3996   42.2757    3.1515 C   0  0  2  0  0  0  0  0  0  0  0  0
   29.9788   41.0768    2.3639 N   0  0  0  0  0  0  0  0  0  0  0  0
   39.0756   44.0928    6.0630 C   0  0  1  0  0  0  0  0  0  0  0  0
   38.5756   45.3765    5.6980 O   0  0  0  0  0  0  0  0  0  0  0  0
   40.4852   39.1683    4.8686 C   0  0  2  0  0  0  0  0  0  0  0  0
   41.6828   39.6610    5.5749 N   0  0  0  0  0  0  0  0  0  0  0  0
   33.6791   41.4047    4.8197 C   0  0  2  0  0  0  0  0  0  0  0  0
   32.6458   41.2677    3.7647 O   0  0  0  0  0  0  0  0  0  0  0  0
   29.7276   43.5864    2.5381 C   0  0  1  0  0  0  0  0  0  0  0  0
   29.8476   44.7075    3.4412 O   0  0  0  0  0  0  0  0  0  0  0  0
   39.9197   44.1839    7.3553 C   0  0  2  0  0  0  0  0  0  0  0  0
   40.9831   45.0955    7.1753 O   0  0  0  0  0  0  0  0  0  0  0  0
   39.1501   39.5971    5.5744 C   0  0  2  0  0  0  0  0  0  0  0  0
   34.9327   42.0953    4.2901 C   0  0  2  0  0  0  0  0  0  0  0  0
   35.8397   41.0587    3.9424 O   0  0  0  0  0  0  0  0  0  0  0  0
   30.3630   43.9868    1.1462 C   0  0  2  0  0  0  0  0  0  0  0  0
   30.0293   42.9870    0.1687 O   0  0  0  0  0  0  0  0  0  0  0  0
   40.4588   42.7909    7.7370 C   0  0  2  0  0  0  0  0  0  0  0  0
   39.3083   41.8732    7.8911 O   0  0  0  0  0  0  0  0  0  0  0  0
   37.8953   38.9933    4.7660 C   0  0  2  0  0  0  0  0  0  0  0  0
   36.5889   39.3291    5.3940 O   0  0  0  0  0  0  0  0  0  0  0  0
   35.6184   42.9898    5.3124 C   0  0  0  0  0  0  0  0  0  0  0  0
   31.9327   44.1238    1.2932 C   0  0  1  0  0  0  0  0  0  0  0  0
   32.5439   42.9013    1.9170 O   0  0  0  0  0  0  0  0  0  0  0  0
   41.2805   42.8904    9.0434 C   0  0  0  0  0  0  0  0  0  0  0  0
   40.5083   43.2902   10.2343 N   0  0  0  0  0  0  0  0  0  0  0  0
   37.9966   37.4533    4.7364 C   0  0  1  0  0  0  0  0  0  0  0  0
   36.8808   36.9156    4.0191 O   0  0  0  0  0  0  0  0  0  0  0  0
   32.6589   44.4722   -0.0628 C   0  0  0  0  0  0  0  0  0  0  0  0
   32.3761   43.5631   -1.2190 N   0  0  0  0  0  0  0  0  0  0  0  0
  1  2  1  6  0  0  0
  1  7  1  0  0  0  0
  1 30  1  0  0  0  0
  3  4  1  1  0  0  0
  3  9  1  0  0  0  0
  3 38  1  0  0  0  0
  5 10  1  0  0  0  0
  5 26  1  1  0  0  0
  5 32  1  0  0  0  0
  6 12  1  0  0  0  0
  6 35  1  0  0  0  0
  6 19  1  6  0  0  0
  7  8  1  6  0  0  0
  7 14  1  0  0  0  0
  8 33  1  0  0  0  0
  9 16  1  0  0  0  0
 10 11  1  6  0  0  0
 10 18  1  0  0  0  0
 12 13  1  6  0  0  0
 12 20  1  0  0  0  0
 14 15  1  1  0  0  0
 14 22  1  0  0  0  0
 16 17  1  1  0  0  0
 16 24  1  0  0  0  0
 18 19  1  6  0  0  0
 18 25  1  0  0  0  0
 20 21  1  1  0  0  0
 20 27  1  0  0  0  0
 22 23  1  6  0  0  0
 22 29  1  0  0  0  0
 24  2  1  6  0  0  0
 24 31  1  0  0  0  0
 25 26  1  1  0  0  0
 25 33  1  0  0  0  0
 27 28  1  6  0  0  0
 27 34  1  0  0  0  0
 29 30  1  0  0  0  0
 29 36  1  1  0  0  0
 31 32  1  1  0  0  0
 31 38  1  0  0  0  0
 34 35  1  0  0  0  0
 34 40  1  6  0  0  0
 36 37  1  0  0  0  0
 38 39  1  6  0  0  0
 40 41  1  0  0  0  0
M  END
>  <CHROM.1>
175.43484056,-133.87019383,64.31439080,-53.75344721,36.08082285,41.56371832
4.57393021,-0.06579389,-0.51943862,0.26492685

>  <Name>
ligand

>  <RI>
0

>  <Rbt.Current_Directory>
/home/itssahil/PROJECTS/Mol_Feturizer/New_Systems/rnas/1ZZ5

>  <Rbt.Executable>
rbdock ($Id: //depot/dev/client3/rdock/2013.1/src/exe/rbdock.cxx#4 $)

>  <Rbt.Library>
libRbt.so (2013.1, Build901 2013/11/27)

>  <Rbt.Parameter_File>
/export/apps/rDock/src/rDock_2013.1_src/data/scripts/dock_solv.prm

>  <Rbt.Receptor>
prm/pocket_docking_6.prm

>  <SCORE>
-9.29304

>  <SCORE.INTER>
-10.8352

>  <SCORE.INTER.CONST>
1

>  <SCORE.INTER.POLAR>
0

>  <SCORE.INTER.ROT>
4

>  <SCORE.INTER.SOLV>
15.6282

>  <SCORE.INTER.VDW>
-18.6995

>  <SCORE.INTER.norm>
-0.264273

>  <SCORE.INTRA>
1.54217

>  <SCORE.INTRA.DIHEDRAL>
1.47782

>  <SCORE.INTRA.DIHEDRAL.0>
5.18357

>  <SCORE.INTRA.POLAR>
0

>  <SCORE.INTRA.POLAR.0>
0

>  <SCORE.INTRA.REPUL>
0

>  <SCORE.INTRA.REPUL.0>
0

>  <SCORE.INTRA.SOLV>
1.27137

>  <SCORE.INTRA.SOLV.lig_0>
-109.973

>  <SCORE.INTRA.VDW>
0.167574

>  <SCORE.INTRA.VDW.0>
-1.68646

>  <SCORE.INTRA.norm>
0.0376139

>  <SCORE.RESTR>
0

>  <SCORE.RESTR.CAVITY>
0

>  <SCORE.RESTR.norm>
0

>  <SCORE.SYSTEM>
0

>  <SCORE.SYSTEM.CONST>
0

>  <SCORE.SYSTEM.DIHEDRAL>
0

>  <SCORE.SYSTEM.SOLV>
0

>  <SCORE.SYSTEM.norm>
0

>  <SCORE.heavy>
41

>  <SCORE.norm>
-0.22666

>  <RMSD>
9.444

$$$$
ligand
 OpenBabel11021811423D
libRbt.so/2013.1/901 2013/11/27
 41 45  0  0  0  0  0  0  0  0999 V2000
   38.4066   41.7185    6.6815 C   0  0  2  0  0  0  0  0  0  0  0  0
   39.1028   41.0647    5.6025 O   0  0  0  0  0  0  0  0  0  0  0  0
   39.3354   36.9950    4.0854 C   0  0  2  0  0  0  0  0  0  0  0  0
   39.4768   35.5161    4.0722 N   0  0  0  0  0  0  0  0  0  0  0  0
   35.4694   39.7784    4.5118 C   0  0  1  0  0  0  0  0  0  0  0  0
   31.9638   42.4272    3.1839 C   0  0  1  0  0  0  0  0  0  0  0  0
   37.8628   43.1094    6.2371 C   0  0  2  0  0  0  0  0  0  0  0  0
   37.0332   43.0399    5.0305 N   0  0  0  0  0  0  0  0  0  0  0  0
   40.5621   37.6145    4.8266 C   0  0  0  0  0  0  0  0  0  0  0  0
   34.1653   40.0255    5.3043 C   0  0  2  0  0  0  0  0  0  0  0  0
   33.2204   38.9664    5.1190 O   0  0  0  0  0  0  0  0  0  0  0  0
   30.3843   42.2681    3.1397 C   0  0  2  0  0  0  0  0  0  0  0  0
   29.9139   41.0488    2.4139 N   0  0  0  0  0  0  0  0  0  0  0  0
   39.0379   44.0997    6.0165 C   0  0  1  0  0  0  0  0  0  0  0  0
   38.5348   45.3778    5.6366 O   0  0  0  0  0  0  0  0  0  0  0  0
   40.4649   39.1669    4.8785 C   0  0  2  0  0  0  0  0  0  0  0  0
   41.6596   39.6709    5.5818 N   0  0  0  0  0  0  0  0  0  0  0  0
   33.6521   41.3818    4.7914 C   0  0  2  0  0  0  0  0  0  0  0  0
   32.6215   41.2302    3.7359 O   0  0  0  0  0  0  0  0  0  0  0  0
   29.7275   43.5689    2.4900 C   0  0  1  0  0  0  0  0  0  0  0  0
   29.8986   44.7227    3.3423 O   0  0  0  0  0  0  0  0  0  0  0  0
   39.8790   44.2074    7.3095 C   0  0  2  0  0  0  0  0  0  0  0  0
   40.9401   45.1202    7.1217 O   0  0  0  0  0  0  0  0  0  0  0  0
   39.1271   39.5992    5.5768 C   0  0  2  0  0  0  0  0  0  0  0  0
   34.9048   42.0705    4.2569 C   0  0  2  0  0  0  0  0  0  0  0  0
   35.8156   41.0329    3.9223 O   0  0  0  0  0  0  0  0  0  0  0  0
   30.3345   43.8960    1.0666 C   0  0  2  0  0  0  0  0  0  0  0  0
   29.9507   42.8656    0.1406 O   0  0  0  0  0  0  0  0  0  0  0  0
   40.4216   42.8203    7.7074 C   0  0  2  0  0  0  0  0  0  0  0  0
   39.2736   41.9008    7.8691 O   0  0  0  0  0  0  0  0  0  0  0  0
   37.8758   38.9829    4.7725 C   0  0  2  0  0  0  0  0  0  0  0  0
   36.5671   39.3214    5.3942 O   0  0  0  0  0  0  0  0  0  0  0  0
   35.5856   42.9780    5.2709 C   0  0  0  0  0  0  0  0  0  0  0  0
   31.9104   43.9996    1.1669 C   0  0  1  0  0  0  0  0  0  0  0  0
   32.5088   42.7888    1.8251 O   0  0  0  0  0  0  0  0  0  0  0  0
   41.2402   42.9364    9.0143 C   0  0  0  0  0  0  0  0  0  0  0  0
   41.8336   41.6733    9.4903 N   0  0  0  0  0  0  0  0  0  0  0  0
   37.9819   37.4430    4.7597 C   0  0  1  0  0  0  0  0  0  0  0  0
   36.8692   36.8940    4.0461 O   0  0  0  0  0  0  0  0  0  0  0  0
   32.6079   44.2739   -0.2207 C   0  0  0  0  0  0  0  0  0  0  0  0
   32.2196   45.5407   -0.9190 N   0  0  0  0  0  0  0  0  0  0  0  0
  1  2  1  6  0  0  0
  1  7  1  0  0  0  0
  1 30  1  0  0  0  0
  3  4  1  1  0  0  0
  3  9  1  0  0  0  0
  3 38  1  0  0  0  0
  5 10  1  0  0  0  0
  5 26  1  1  0  0  0
  5 32  1  0  0  0  0
  6 12  1  0  0  0  0
  6 35  1  0  0  0  0
  6 19  1  6  0  0  0
  7  8  1  6  0  0  0
  7 14  1  0  0  0  0
  8 33  1  0  0  0  0
  9 16  1  0  0  0  0
 10 11  1  6  0  0  0
 10 18  1  0  0  0  0
 12 13  1  6  0  0  0
 12 20  1  0  0  0  0
 14 15  1  1  0  0  0
 14 22  1  0  0  0  0
 16 17  1  1  0  0  0
 16 24  1  0  0  0  0
 18 19  1  6  0  0  0
 18 25  1  0  0  0  0
 20 21  1  1  0  0  0
 20 27  1  0  0  0  0
 22 23  1  6  0  0  0
 22 29  1  0  0  0  0
 24  2  1  6  0  0  0
 24 31  1  0  0  0  0
 25 26  1  1  0  0  0
 25 33  1  0  0  0  0
 27 28  1  6  0  0  0
 27 34  1  0  0  0  0
 29 30  1  0  0  0  0
 29 36  1  1  0  0  0
 31 32  1  1  0  0  0
 31 38  1  0  0  0  0
 34 35  1  0  0  0  0
 34 40  1  6  0  0  0
 36 37  1  0  0  0  0
 38 39  1  6  0  0  0
 40 41  1  0  0  0  0
M  END
>  <CHROM.1>
176.55508609,-131.72837324,-179.07707782,60.32215465,36.08397054,41.55251636
4.53739348,-0.14132232,-0.51031248,0.17424318

>  <Name>
ligand

>  <RI>
0

>  <Rbt.Current_Directory>
/home/itssahil/PROJECTS/Mol_Feturizer/New_Systems/rnas/1ZZ5

>  <Rbt.Executable>
rbdock ($Id: //depot/dev/client3/rdock/2013.1/src/exe/rbdock.cxx#4 $)

>  <Rbt.Library>
libRbt.so (2013.1, Build901 2013/11/27)

>  <Rbt.Parameter_File>
/export/apps/rDock/src/rDock_2013.1_src/data/scripts/dock_solv.prm

>  <Rbt.Receptor>
prm/pocket_docking_6.prm

>  <SCORE>
-10.6632

>  <SCORE.INTER>
-11.0675

>  <SCORE.INTER.CONST>
1

>  <SCORE.INTER.POLAR>
0

>  <SCORE.INTER.ROT>
4

>  <SCORE.INTER.SOLV>
13.9096

>  <SCORE.INTER.VDW>
-18.2815

>  <SCORE.INTER.norm>
-0.269938

>  <SCORE.INTRA>
0.40423

>  <SCORE.INTRA.DIHEDRAL>
1.49257

>  <SCORE.INTRA.DIHEDRAL.0>
5.18357

>  <SCORE.INTRA.POLAR>
0

>  <SCORE.INTRA.POLAR.0>
0

>  <SCORE.INTRA.REPUL>
0

>  <SCORE.INTRA.REPUL.0>
0

>  <SCORE.INTRA.SOLV>
-1.30634

>  <SCORE.INTRA.SOLV.lig_0>
-109.973

>  <SCORE.INTRA.VDW>
0.311118

>  <SCORE.INTRA.VDW.0>
-1.68646

>  <SCORE.INTRA.norm>
0.00985928

>  <SCORE.RESTR>
0

>  <SCORE.RESTR.CAVITY>
0

>  <SCORE.RESTR.norm>
0

>  <SCORE.SYSTEM>
0

>  <SCORE.SYSTEM.CONST>
0

>  <SCORE.SYSTEM.DIHEDRAL>
0

>  <SCORE.SYSTEM.SOLV>
0

>  <SCORE.SYSTEM.norm>
0

>  <SCORE.heavy>
41

>  <SCORE.norm>
-0.260079

>  <RMSD>
9.455

$$$$
ligand
 OpenBabel11021811423D
libRbt.so/2013.1/901 2013/11/27
 41 45  0  0  0  0  0  0  0  0999 V2000
   38.1019   41.8411    7.0182 C   0  0  2  0  0  0  0  0  0  0  0  0
   38.8912   41.0746    6.0875 O   0  0  0  0  0  0  0  0  0  0  0  0
   39.0517   36.9029    4.8674 C   0  0  2  0  0  0  0  0  0  0  0  0
   39.0942   35.4209    4.9638 N   0  0  0  0  0  0  0  0  0  0  0  0
   35.3589   39.9292    4.5854 C   0  0  1  0  0  0  0  0  0  0  0  0
   32.2394   42.6790    2.6341 C   0  0  1  0  0  0  0  0  0  0  0  0
   37.7172   43.2270    6.4193 C   0  0  2  0  0  0  0  0  0  0  0  0
   37.0541   43.1224    5.1160 N   0  0  0  0  0  0  0  0  0  0  0  0
   40.2068   37.5000    5.7320 C   0  0  0  0  0  0  0  0  0  0  0  0
   33.9798   40.3059    5.1736 C   0  0  2  0  0  0  0  0  0  0  0  0
   32.9995   39.2933    4.9242 O   0  0  0  0  0  0  0  0  0  0  0  0
   30.8841   43.2106    3.2688 C   0  0  2  0  0  0  0  0  0  0  0  0
   29.8064   42.1785    3.3590 N   0  0  0  0  0  0  0  0  0  0  0  0
   38.9750   44.1296    6.3034 C   0  0  1  0  0  0  0  0  0  0  0  0
   38.6142   45.4054    5.7806 O   0  0  0  0  0  0  0  0  0  0  0  0
   40.2078   39.0552    5.6754 C   0  0  2  0  0  0  0  0  0  0  0  0
   41.3284   39.5365    6.5052 N   0  0  0  0  0  0  0  0  0  0  0  0
   33.6322   41.6510    4.5132 C   0  0  2  0  0  0  0  0  0  0  0  0
   32.7445   41.4867    3.3365 O   0  0  0  0  0  0  0  0  0  0  0  0
   30.3570   44.4693    2.4421 C   0  0  1  0  0  0  0  0  0  0  0  0
   31.2376   45.6037    2.5981 O   0  0  0  0  0  0  0  0  0  0  0  0
   39.6404   44.2777    7.6912 C   0  0  2  0  0  0  0  0  0  0  0  0
   40.7758   45.1120    7.5968 O   0  0  0  0  0  0  0  0  0  0  0  0
   38.8204   39.6120    6.1546 C   0  0  2  0  0  0  0  0  0  0  0  0
   34.9885   42.2269    4.1161 C   0  0  2  0  0  0  0  0  0  0  0  0
   35.8643   41.1174    3.9743 O   0  0  0  0  0  0  0  0  0  0  0  0
   30.2093   44.1507    0.9000 C   0  0  2  0  0  0  0  0  0  0  0  0
   29.1495   43.1976    0.7133 O   0  0  0  0  0  0  0  0  0  0  0  0
   40.0305   42.8924    8.2439 C   0  0  2  0  0  0  0  0  0  0  0  0
   38.8121   42.0545    8.3009 O   0  0  0  0  0  0  0  0  0  0  0  0
   37.6498   39.0151    5.2241 C   0  0  2  0  0  0  0  0  0  0  0  0
   36.2952   39.4714    5.6371 O   0  0  0  0  0  0  0  0  0  0  0  0
   35.5865   43.1615    5.1574 C   0  0  0  0  0  0  0  0  0  0  0  0
   31.5758   43.5858    0.3362 C   0  0  1  0  0  0  0  0  0  0  0  0
   32.0833   42.4326    1.1546 O   0  0  0  0  0  0  0  0  0  0  0  0
   40.6724   43.0511    9.6419 C   0  0  0  0  0  0  0  0  0  0  0  0
   41.0988   41.7904   10.2767 N   0  0  0  0  0  0  0  0  0  0  0  0
   37.6531   37.4744    5.3197 C   0  0  1  0  0  0  0  0  0  0  0  0
   36.6119   36.9429    4.4938 O   0  0  0  0  0  0  0  0  0  0  0  0
   31.5065   43.1909   -1.1891 C   0  0  0  0  0  0  0  0  0  0  0  0
   31.2227   44.3043   -2.1500 N   0  0  0  0  0  0  0  0  0  0  0  0
  1  2  1  6  0  0  0
  1  7  1  0  0  0  0
  1 30  1  0  0  0  0
  3  4  1  1  0  0  0
  3  9  1  0  0  0  0
  3 38  1  0  0  0  0
  5 10  1  0  0  0  0
  5 26  1  1  0  0  0
  5 32  1  0  0  0  0
  6 12  1  0  0  0  0
  6 35  1  0  0  0  0
  6 19  1  1  0  0  0
  7  8  1  6  0  0  0
  7 14  1  0  0  0  0
  8 33  1  0  0  0  0
  9 16  1  0  0  0  0
 10 11  1  6  0  0  0
 10 18  1  0  0  0  0
 12 13  1  6  0  0  0
 12 20  1  0  0  0  0
 14 15  1  1  0  0  0
 14 22  1  0  0  0  0
 16 17  1  1  0  0  0
 16 24  1  0  0  0  0
 18 19  1  6  0  0  0
 18 25  1  0  0  0  0
 20 21  1  6  0  0  0
 20 27  1  0  0  0  0
 22 23  1  6  0  0  0
 22 29  1  0  0  0  0
 24  2  1  6  0  0  0
 24 31  1  0  0  0  0
 25 26  1  1  0  0  0
 25 33  1  0  0  0  0
 27 28  1  1  0  0  0
 27 34  1  0  0  0  0
 29 30  1  0  0  0  0
 29 36  1  1  0  0  0
 31 32  1  1  0  0  0
 31 38  1  0  0  0  0
 34 35  1  0  0  0  0
 34 40  1  6  0  0  0
 36 37  1  0  0  0  0
 38 39  1  6  0  0  0
 40 41  1  0  0  0  0
M  END
>  <CHROM.1>
176.04229510,-88.03691695,-179.63604134,62.85024907,35.89881780,41.64922862
4.69588984,-0.12683644,-0.61270521,0.18481900

>  <Name>
ligand

>  <RI>
0

>  <Rbt.Current_Directory>
/home/itssahil/PROJECTS/Mol_Feturizer/New_Systems/rnas/1ZZ5

>  <Rbt.Executable>
rbdock ($Id: //depot/dev/client3/rdock/2013.1/src/exe/rbdock.cxx#4 $)

>  <Rbt.Library>
libRbt.so (2013.1, Build901 2013/11/27)

>  <Rbt.Parameter_File>
/export/apps/rDock/src/rDock_2013.1_src/data/scripts/dock_solv.prm

>  <Rbt.Receptor>
prm/pocket_docking_8.prm

>  <SCORE>
-11.0005

>  <SCORE.INTER>
-9.95281

>  <SCORE.INTER.CONST>
1

>  <SCORE.INTER.POLAR>
0

>  <SCORE.INTER.ROT>
4

>  <SCORE.INTER.SOLV>
14.6355

>  <SCORE.INTER.VDW>
-17.7804

>  <SCORE.INTER.norm>
-0.242752

>  <SCORE.INTRA>
-1.04764

>  <SCORE.INTRA.DIHEDRAL>
-1.69873

>  <SCORE.INTRA.DIHEDRAL.0>
5.18357

>  <SCORE.INTRA.POLAR>
0

>  <SCORE.INTRA.POLAR.0>
0

>  <SCORE.INTRA.REPUL>
0

>  <SCORE.INTRA.REPUL.0>
0

>  <SCORE.INTRA.SOLV>
-1.15831

>  <SCORE.INTRA.SOLV.lig_0>
-109.973

>  <SCORE.INTRA.VDW>
0.380872

>  <SCORE.INTRA.VDW.0>
-1.68646

>  <SCORE.INTRA.norm>
-0.0255523

>  <SCORE.RESTR>
0

>  <SCORE.RESTR.CAVITY>
0

>  <SCORE.RESTR.norm>
0

>  <SCORE.SYSTEM>
0

>  <SCORE.SYSTEM.CONST>
0

>  <SCORE.SYSTEM.DIHEDRAL>
0

>  <SCORE.SYSTEM.SOLV>
0

>  <SCORE.SYSTEM.norm>
0

>  <SCORE.heavy>
41

>  <SCORE.norm>
-0.268304

>  <RMSD>
9.459

$$$$
ligand
 OpenBabel11021811423D
libRbt.so/2013.1/901 2013/11/27
 41 45  0  0  0  0  0  0  0  0999 V2000
   36.8164   42.0615    7.3408 C   0  0  2  0  0  0  0  0  0  0  0  0
   37.5999   40.8555    7.2499 O   0  0  0  0  0  0  0  0  0  0  0  0
   37.1043   36.7371    8.5578 C   0  0  2  0  0  0  0  0  0  0  0  0
   36.8010   35.5786    9.4371 N   0  0  0  0  0  0  0  0  0  0  0  0
   34.3079   39.2645    5.6138 C   0  0  1  0  0  0  0  0  0  0  0  0
   31.0073   40.2059    2.6853 C   0  0  1  0  0  0  0  0  0  0  0  0
   36.8803   42.8735    6.0125 C   0  0  2  0  0  0  0  0  0  0  0  0
   36.5048   42.0796    4.8386 N   0  0  0  0  0  0  0  0  0  0  0  0
   38.1494   37.6532    9.2695 C   0  0  0  0  0  0  0  0  0  0  0  0
   32.9511   39.9901    5.4647 C   0  0  2  0  0  0  0  0  0  0  0  0
   31.8502   39.0768    5.5136 O   0  0  0  0  0  0  0  0  0  0  0  0
   30.0438   39.2724    3.5352 C   0  0  2  0  0  0  0  0  0  0  0  0
   30.3584   37.8146    3.4310 N   0  0  0  0  0  0  0  0  0  0  0  0
   38.2996   43.4714    5.8165 C   0  0  1  0  0  0  0  0  0  0  0  0
   38.3459   44.2355    4.6144 O   0  0  0  0  0  0  0  0  0  0  0  0
   38.5015   38.8919    8.3956 C   0  0  2  0  0  0  0  0  0  0  0  0
   39.4960   39.6955    9.1312 N   0  0  0  0  0  0  0  0  0  0  0  0
   33.0545   40.7313    4.1208 C   0  0  2  0  0  0  0  0  0  0  0  0
   32.4251   39.9743    3.0116 O   0  0  0  0  0  0  0  0  0  0  0  0
   28.5279   39.5284    3.1084 C   0  0  1  0  0  0  0  0  0  0  0  0
   28.0930   40.8518    3.4908 O   0  0  0  0  0  0  0  0  0  0  0  0
   38.6687   44.3490    7.0348 C   0  0  2  0  0  0  0  0  0  0  0  0
   39.9519   44.9105    6.8555 O   0  0  0  0  0  0  0  0  0  0  0  0
   37.1993   39.7026    8.0618 C   0  0  2  0  0  0  0  0  0  0  0  0
   34.5565   40.8952    3.9061 C   0  0  2  0  0  0  0  0  0  0  0  0
   35.1789   39.8560    4.6481 O   0  0  0  0  0  0  0  0  0  0  0  0
   28.3087   39.3530    1.5518 C   0  0  2  0  0  0  0  0  0  0  0  0
   28.4954   37.9716    1.2006 O   0  0  0  0  0  0  0  0  0  0  0  0
   38.6199   43.5107    8.3277 C   0  0  2  0  0  0  0  0  0  0  0  0
   37.2649   42.9298    8.4545 O   0  0  0  0  0  0  0  0  0  0  0  0
   36.1535   38.7497    7.2932 C   0  0  2  0  0  0  0  0  0  0  0  0
   34.8748   39.4386    6.9705 O   0  0  0  0  0  0  0  0  0  0  0  0
   35.1070   42.2210    4.4105 C   0  0  0  0  0  0  0  0  0  0  0  0
   29.3238   40.2738    0.7606 C   0  0  1  0  0  0  0  0  0  0  0  0
   30.7412   40.0557    1.2085 O   0  0  0  0  0  0  0  0  0  0  0  0
   38.9668   44.4043    9.5413 C   0  0  0  0  0  0  0  0  0  0  0  0
   38.9332   43.7198   10.8469 N   0  0  0  0  0  0  0  0  0  0  0  0
   35.8003   37.5451    8.1915 C   0  0  1  0  0  0  0  0  0  0  0  0
   34.8697   36.6981    7.5095 O   0  0  0  0  0  0  0  0  0  0  0  0
   29.2116   40.1251   -0.8055 C   0  0  0  0  0  0  0  0  0  0  0  0
   30.1043   41.0090   -1.6210 N   0  0  0  0  0  0  0  0  0  0  0  0
  1  2  1  6  0  0  0
  1  7  1  0  0  0  0
  1 30  1  0  0  0  0
  3  4  1  1  0  0  0
  3  9  1  0  0  0  0
  3 38  1  0  0  0  0
  5 10  1  0  0  0  0
  5 26  1  6  0  0  0
  5 32  1  0  0  0  0
  6 12  1  0  0  0  0
  6 35  1  0  0  0  0
  6 19  1  6  0  0  0
  7  8  1  6  0  0  0
  7 14  1  0  0  0  0
  8 33  1  0  0  0  0
  9 16  1  0  0  0  0
 10 11  1  6  0  0  0
 10 18  1  0  0  0  0
 12 13  1  6  0  0  0
 12 20  1  0  0  0  0
 14 15  1  6  0  0  0
 14 22  1  0  0  0  0
 16 17  1  1  0  0  0
 16 24  1  0  0  0  0
 18 19  1  6  0  0  0
 18 25  1  0  0  0  0
 20 21  1  6  0  0  0
 20 27  1  0  0  0  0
 22 23  1  6  0  0  0
 22 29  1  0  0  0  0
 24  2  1  6  0  0  0
 24 31  1  0  0  0  0
 25 26  1  1  0  0  0
 25 33  1  0  0  0  0
 27 28  1  6  0  0  0
 27 34  1  0  0  0  0
 29 30  1  0  0  0  0
 29 36  1  1  0  0  0
 31 32  1  1  0  0  0
 31 38  1  0  0  0  0
 34 35  1  0  0  0  0
 34 40  1  6  0  0  0
 36 37  1  0  0  0  0
 38 39  1  6  0  0  0
 40 41  1  0  0  0  0
M  END
>  <CHROM.1>
91.23794463,-88.08524113,179.08040507,177.57513768,34.60385046,40.45974602
5.46727494,-0.14299789,-0.65272078,-0.52933817

>  <Name>
ligand

>  <RI>
0

>  <Rbt.Current_Directory>
/home/itssahil/PROJECTS/Mol_Feturizer/New_Systems/rnas/1ZZ5

>  <Rbt.Executable>
rbdock ($Id: //depot/dev/client3/rdock/2013.1/src/exe/rbdock.cxx#4 $)

>  <Rbt.Library>
libRbt.so (2013.1, Build901 2013/11/27)

>  <Rbt.Parameter_File>
/export/apps/rDock/src/rDock_2013.1_src/data/scripts/dock_solv.prm

>  <Rbt.Receptor>
prm/pocket_docking_6.prm

>  <SCORE>
-7.86846

>  <SCORE.INTER>
-9.63952

>  <SCORE.INTER.CONST>
1

>  <SCORE.INTER.POLAR>
0

>  <SCORE.INTER.ROT>
4

>  <SCORE.INTER.SOLV>
19.5829

>  <SCORE.INTER.VDW>
-19.2207

>  <SCORE.INTER.norm>
-0.23511

>  <SCORE.INTRA>
1.77106

>  <SCORE.INTRA.DIHEDRAL>
2.02248

>  <SCORE.INTRA.DIHEDRAL.0>
5.18357

>  <SCORE.INTRA.POLAR>
0

>  <SCORE.INTRA.POLAR.0>
0

>  <SCORE.INTRA.REPUL>
0

>  <SCORE.INTRA.REPUL.0>
0

>  <SCORE.INTRA.SOLV>
0.172148

>  <SCORE.INTRA.SOLV.lig_0>
-109.973

>  <SCORE.INTRA.VDW>
0.673746

>  <SCORE.INTRA.VDW.0>
-1.68646

>  <SCORE.INTRA.norm>
0.0431966

>  <SCORE.RESTR>
0

>  <SCORE.RESTR.CAVITY>
0

>  <SCORE.RESTR.norm>
0

>  <SCORE.SYSTEM>
0

>  <SCORE.SYSTEM.CONST>
0

>  <SCORE.SYSTEM.DIHEDRAL>
0

>  <SCORE.SYSTEM.SOLV>
0

>  <SCORE.SYSTEM.norm>
0

>  <SCORE.heavy>
41

>  <SCORE.norm>
-0.191914

>  <RMSD>
9.460

$$$$
ligand
 OpenBabel11021811423D
libRbt.so/2013.1/901 2013/11/27
 41 45  0  0  0  0  0  0  0  0999 V2000
   43.3553   41.1845    5.1787 C   0  0  2  0  0  0  0  0  0  0  0  0
   43.1784   40.3163    6.3152 O   0  0  0  0  0  0  0  0  0  0  0  0
   42.8550   40.8757   10.6164 C   0  0  2  0  0  0  0  0  0  0  0  0
   43.1545   41.3651   11.9868 N   0  0  0  0  0  0  0  0  0  0  0  0
   40.0569   42.6733    7.1792 C   0  0  1  0  0  0  0  0  0  0  0  0
   36.3184   42.8110    4.8375 C   0  0  1  0  0  0  0  0  0  0  0  0
   42.4664   40.7307    3.9822 C   0  0  2  0  0  0  0  0  0  0  0  0
   41.0506   40.5999    4.3392 N   0  0  0  0  0  0  0  0  0  0  0  0
   44.1441   40.2309   10.0159 C   0  0  0  0  0  0  0  0  0  0  0  0
   39.6659   43.9499    6.4000 C   0  0  2  0  0  0  0  0  0  0  0  0
   39.0258   44.9135    7.2428 O   0  0  0  0  0  0  0  0  0  0  0  0
   34.8336   43.2349    5.2086 C   0  0  2  0  0  0  0  0  0  0  0  0
   34.5245   43.1596    6.6694 N   0  0  0  0  0  0  0  0  0  0  0  0
   42.9926   39.3909    3.4004 C   0  0  1  0  0  0  0  0  0  0  0  0
   42.1933   38.9935    2.2895 O   0  0  0  0  0  0  0  0  0  0  0  0
   43.8922   39.7049    8.5730 C   0  0  2  0  0  0  0  0  0  0  0  0
   45.1487   39.1057    8.0851 N   0  0  0  0  0  0  0  0  0  0  0  0
   38.7552   43.4475    5.2667 C   0  0  2  0  0  0  0  0  0  0  0  0
   37.3165   43.5794    5.6014 O   0  0  0  0  0  0  0  0  0  0  0  0
   33.7954   42.3405    4.3914 C   0  0  1  0  0  0  0  0  0  0  0  0
   33.8554   42.6296    2.9773 O   0  0  0  0  0  0  0  0  0  0  0  0
   44.4715   39.5506    2.9783 C   0  0  2  0  0  0  0  0  0  0  0  0
   44.9520   38.3404    2.4318 O   0  0  0  0  0  0  0  0  0  0  0  0
   43.3853   40.8733    7.6552 C   0  0  2  0  0  0  0  0  0  0  0  0
   39.1583   41.9860    5.0917 C   0  0  2  0  0  0  0  0  0  0  0  0
   39.7076   41.5746    6.3355 O   0  0  0  0  0  0  0  0  0  0  0  0
   34.0450   40.7931    4.6032 C   0  0  2  0  0  0  0  0  0  0  0  0
   33.7403   40.4469    5.9647 O   0  0  0  0  0  0  0  0  0  0  0  0
   45.3265   39.9756    4.1888 C   0  0  2  0  0  0  0  0  0  0  0  0
   44.7679   41.2326    4.7342 O   0  0  0  0  0  0  0  0  0  0  0  0
   42.0344   41.4956    8.2719 C   0  0  2  0  0  0  0  0  0  0  0  0
   41.5074   42.6354    7.4737 O   0  0  0  0  0  0  0  0  0  0  0  0
   40.2162   41.7657    4.0204 C   0  0  0  0  0  0  0  0  0  0  0  0
   35.5490   40.4409    4.2594 C   0  0  1  0  0  0  0  0  0  0  0  0
   36.5127   41.3244    4.9998 O   0  0  0  0  0  0  0  0  0  0  0  0
   46.7983   40.1558    3.7494 C   0  0  0  0  0  0  0  0  0  0  0  0
   47.7258   40.5439    4.8280 N   0  0  0  0  0  0  0  0  0  0  0  0
   42.3181   42.0341    9.6905 C   0  0  1  0  0  0  0  0  0  0  0  0
   41.1181   42.5888   10.2390 O   0  0  0  0  0  0  0  0  0  0  0  0
   35.9036   38.9219    4.4921 C   0  0  0  0  0  0  0  0  0  0  0  0
   35.8227   38.4310    5.9048 N   0  0  0  0  0  0  0  0  0  0  0  0
  1  2  1  1  0  0  0
  1  7  1  0  0  0  0
  1 30  1  0  0  0  0
  3  4  1  1  0  0  0
  3  9  1  0  0  0  0
  3 38  1  0  0  0  0
  5 10  1  0  0  0  0
  5 26  1  6  0  0  0
  5 32  1  0  0  0  0
  6 12  1  0  0  0  0
  6 35  1  0  0  0  0
  6 19  1  1  0  0  0
  7  8  1  1  0  0  0
  7 14  1  0  0  0  0
  8 33  1  0  0  0  0
  9 16  1  0  0  0  0
 10 11  1  1  0  0  0
 10 18  1  0  0  0  0
 12 13  1  1  0  0  0
 12 20  1  0  0  0  0
 14 15  1  6  0  0  0
 14 22  1  0  0  0  0
 16 17  1  6  0  0  0
 16 24  1  0  0  0  0
 18 19  1  1  0  0  0
 18 25  1  0  0  0  0
 20 21  1  6  0  0  0
 20 27  1  0  0  0  0
 22 23  1  1  0  0  0
 22 29  1  0  0  0  0
 24  2  1  6  0  0  0
 24 31  1  0  0  0  0
 25 26  1  1  0  0  0
 25 33  1  0  0  0  0
 27 28  1  1  0  0  0
 27 34  1  0  0  0  0
 29 30  1  0  0  0  0
 29 36  1  6  0  0  0
 31 32  1  6  0  0  0
 31 38  1  0  0  0  0
 34 35  1  0  0  0  0
 34 40  1  1  0  0  0
 36 37  1  0  0  0  0
 38 39  1  1  0  0  0
 40 41  1  0  0  0  0
M  END
>  <CHROM.1>
-162.24576318,-172.18374523,-179.10593682,-64.18235743,40.41029163,41.23397242
5.89983834,-0.05870393,0.19416871,-1.88757455

>  <Name>
ligand

>  <RI>
0

>  <Rbt.Current_Directory>
/home/itssahil/PROJECTS/Mol_Feturizer/New_Systems/rnas/1ZZ5

>  <Rbt.Executable>
rbdock ($Id: //depot/dev/client3/rdock/2013.1/src/exe/rbdock.cxx#4 $)

>  <Rbt.Library>
libRbt.so (2013.1, Build901 2013/11/27)

>  <Rbt.Parameter_File>
/export/apps/rDock/src/rDock_2013.1_src/data/scripts/dock_solv.prm

>  <Rbt.Receptor>
prm/pocket_docking_5.prm

>  <SCORE>
-15.6338

>  <SCORE.INTER>
-14.7995

>  <SCORE.INTER.CONST>
1

>  <SCORE.INTER.POLAR>
0

>  <SCORE.INTER.ROT>
4

>  <SCORE.INTER.SOLV>
16.0516

>  <SCORE.INTER.VDW>
-21.4835

>  <SCORE.INTER.norm>
-0.360963

>  <SCORE.INTRA>
-0.834344

>  <SCORE.INTRA.DIHEDRAL>
-3.15872

>  <SCORE.INTRA.DIHEDRAL.0>
5.18357

>  <SCORE.INTRA.POLAR>
0

>  <SCORE.INTRA.POLAR.0>
0

>  <SCORE.INTRA.REPUL>
0

>  <SCORE.INTRA.REPUL.0>
0

>  <SCORE.INTRA.SOLV>
0.185474

>  <SCORE.INTRA.SOLV.lig_0>
-109.973

>  <SCORE.INTRA.VDW>
0.652278

>  <SCORE.INTRA.VDW.0>
-1.68646

>  <SCORE.INTRA.norm>
-0.0203498

>  <SCORE.RESTR>
0

>  <SCORE.RESTR.CAVITY>
0

>  <SCORE.RESTR.norm>
0

>  <SCORE.SYSTEM>
0

>  <SCORE.SYSTEM.CONST>
0

>  <SCORE.SYSTEM.DIHEDRAL>
0

>  <SCORE.SYSTEM.SOLV>
0

>  <SCORE.SYSTEM.norm>
0

>  <SCORE.heavy>
41

>  <SCORE.norm>
-0.381313

>  <RMSD>
9.471

$$$$
ligand
 OpenBabel11021811423D
libRbt.so/2013.1/901 2013/11/27
 41 45  0  0  0  0  0  0  0  0999 V2000
   38.0475   41.8693    7.0449 C   0  0  2  0  0  0  0  0  0  0  0  0
   38.8518   41.0812    6.1458 O   0  0  0  0  0  0  0  0  0  0  0  0
   39.0218   36.8844    5.0164 C   0  0  2  0  0  0  0  0  0  0  0  0
   39.0575   35.4047    5.1445 N   0  0  0  0  0  0  0  0  0  0  0  0
   35.3451   39.9149    4.6005 C   0  0  1  0  0  0  0  0  0  0  0  0
   32.2390   42.6328    2.5570 C   0  0  1  0  0  0  0  0  0  0  0  0
   37.6788   43.2435    6.4099 C   0  0  2  0  0  0  0  0  0  0  0  0
   37.0404   43.1135    5.0966 N   0  0  0  0  0  0  0  0  0  0  0  0
   40.1621   37.4961    5.8903 C   0  0  0  0  0  0  0  0  0  0  0  0
   33.9563   40.3079    5.1541 C   0  0  2  0  0  0  0  0  0  0  0  0
   32.9775   39.2932    4.9071 O   0  0  0  0  0  0  0  0  0  0  0  0
   30.9601   43.2415    3.2754 C   0  0  2  0  0  0  0  0  0  0  0  0
   29.8594   42.2554    3.5004 N   0  0  0  0  0  0  0  0  0  0  0  0
   38.9416   44.1399    6.2993 C   0  0  1  0  0  0  0  0  0  0  0  0
   38.5951   45.4054    5.7431 O   0  0  0  0  0  0  0  0  0  0  0  0
   40.1693   39.0498    5.8013 C   0  0  2  0  0  0  0  0  0  0  0  0
   41.2755   39.5451    6.6421 N   0  0  0  0  0  0  0  0  0  0  0  0
   33.6257   41.6398    4.4592 C   0  0  2  0  0  0  0  0  0  0  0  0
   32.7602   41.4535    3.2694 O   0  0  0  0  0  0  0  0  0  0  0  0
   30.4088   44.4828    2.4381 C   0  0  1  0  0  0  0  0  0  0  0  0
   31.3374   45.5890    2.4697 O   0  0  0  0  0  0  0  0  0  0  0  0
   39.5809   44.3150    7.6962 C   0  0  2  0  0  0  0  0  0  0  0  0
   40.7206   45.1439    7.6062 O   0  0  0  0  0  0  0  0  0  0  0  0
   38.7749   39.6205    6.2420 C   0  0  2  0  0  0  0  0  0  0  0  0
   34.9913   42.2033    4.0762 C   0  0  2  0  0  0  0  0  0  0  0  0
   35.8660   41.0886    3.9745 O   0  0  0  0  0  0  0  0  0  0  0  0
   30.1225   44.1045    0.9293 C   0  0  2  0  0  0  0  0  0  0  0  0
   29.0191   43.1847    0.8735 O   0  0  0  0  0  0  0  0  0  0  0  0
   39.9557   42.9404    8.2851 C   0  0  2  0  0  0  0  0  0  0  0  0
   38.7337   42.1075    8.3363 O   0  0  0  0  0  0  0  0  0  0  0  0
   37.6203   39.0077    5.3018 C   0  0  2  0  0  0  0  0  0  0  0  0
   36.2595   39.4766    5.6793 O   0  0  0  0  0  0  0  0  0  0  0  0
   35.5724   43.1578    5.1090 C   0  0  0  0  0  0  0  0  0  0  0  0
   31.4173   43.4651    0.2821 C   0  0  1  0  0  0  0  0  0  0  0  0
   31.9519   42.3296    1.1079 O   0  0  0  0  0  0  0  0  0  0  0  0
   40.5713   43.1266    9.6915 C   0  0  0  0  0  0  0  0  0  0  0  0
   40.9977   41.8797   10.3533 N   0  0  0  0  0  0  0  0  0  0  0  0
   37.6167   37.4694    5.4297 C   0  0  1  0  0  0  0  0  0  0  0  0
   36.5897   36.9237    4.5953 O   0  0  0  0  0  0  0  0  0  0  0  0
   31.2078   43.0084   -1.2129 C   0  0  0  0  0  0  0  0  0  0  0  0
   30.1320   41.9941   -1.4517 N   0  0  0  0  0  0  0  0  0  0  0  0
  1  2  1  6  0  0  0
  1  7  1  0  0  0  0
  1 30  1  0  0  0  0
  3  4  1  1  0  0  0
  3  9  1  0  0  0  0
  3 38  1  0  0  0  0
  5 10  1  0  0  0  0
  5 26  1  1  0  0  0
  5 32  1  0  0  0  0
  6 12  1  0  0  0  0
  6 35  1  0  0  0  0
  6 19  1  1  0  0  0
  7  8  1  6  0  0  0
  7 14  1  0  0  0  0
  8 33  1  0  0  0  0
  9 16  1  0  0  0  0
 10 11  1  6  0  0  0
 10 18  1  0  0  0  0
 12 13  1  6  0  0  0
 12 20  1  0  0  0  0
 14 15  1  1  0  0  0
 14 22  1  0  0  0  0
 16 17  1  1  0  0  0
 16 24  1  0  0  0  0
 18 19  1  6  0  0  0
 18 25  1  0  0  0  0
 20 21  1  6  0  0  0
 20 27  1  0  0  0  0
 22 23  1  6  0  0  0
 22 29  1  0  0  0  0
 24  2  1  6  0  0  0
 24 31  1  0  0  0  0
 25 26  1  1  0  0  0
 25 33  1  0  0  0  0
 27 28  1  1  0  0  0
 27 34  1  0  0  0  0
 29 30  1  0  0  0  0
 29 36  1  1  0  0  0
 31 32  1  1  0  0  0
 31 38  1  0  0  0  0
 34 35  1  0  0  0  0
 34 40  1  6  0  0  0
 36 37  1  0  0  0  0
 38 39  1  6  0  0  0
 40 41  1  0  0  0  0
M  END
>  <CHROM.1>
174.18804351,-81.06251555,-178.86572603,-58.99288122,35.83273290,41.58872701
4.74082442,-0.08174901,-0.60425255,0.20199483

>  <Name>
ligand

>  <RI>
0

>  <Rbt.Current_Directory>
/home/itssahil/PROJECTS/Mol_Feturizer/New_Systems/rnas/1ZZ5

>  <Rbt.Executable>
rbdock ($Id: //depot/dev/client3/rdock/2013.1/src/exe/rbdock.cxx#4 $)

>  <Rbt.Library>
libRbt.so (2013.1, Build901 2013/11/27)

>  <Rbt.Parameter_File>
/export/apps/rDock/src/rDock_2013.1_src/data/scripts/dock_solv.prm

>  <Rbt.Receptor>
prm/pocket_docking_8.prm

>  <SCORE>
-10.3705

>  <SCORE.INTER>
-9.26018

>  <SCORE.INTER.CONST>
1

>  <SCORE.INTER.POLAR>
0

>  <SCORE.INTER.ROT>
4

>  <SCORE.INTER.SOLV>
16.0558

>  <SCORE.INTER.VDW>
-17.7921

>  <SCORE.INTER.norm>
-0.225858

>  <SCORE.INTRA>
-1.1103

>  <SCORE.INTRA.DIHEDRAL>
-2.85176

>  <SCORE.INTRA.DIHEDRAL.0>
5.18357

>  <SCORE.INTRA.POLAR>
0

>  <SCORE.INTRA.POLAR.0>
0

>  <SCORE.INTRA.REPUL>
0

>  <SCORE.INTRA.REPUL.0>
0

>  <SCORE.INTRA.SOLV>
0.183074

>  <SCORE.INTRA.SOLV.lig_0>
-109.973

>  <SCORE.INTRA.VDW>
0.224044

>  <SCORE.INTRA.VDW.0>
-1.68646

>  <SCORE.INTRA.norm>
-0.0270805

>  <SCORE.RESTR>
0

>  <SCORE.RESTR.CAVITY>
0

>  <SCORE.RESTR.norm>
0

>  <SCORE.SYSTEM>
0

>  <SCORE.SYSTEM.CONST>
0

>  <SCORE.SYSTEM.DIHEDRAL>
0

>  <SCORE.SYSTEM.SOLV>
0

>  <SCORE.SYSTEM.norm>
0

>  <SCORE.heavy>
41

>  <SCORE.norm>
-0.252939

>  <RMSD>
9.477

$$$$
ligand
 OpenBabel11021811423D
libRbt.so/2013.1/901 2013/11/27
 41 45  0  0  0  0  0  0  0  0999 V2000
   35.8417   41.0880    7.8035 C   0  0  2  0  0  0  0  0  0  0  0  0
   34.7754   41.6606    7.0214 O   0  0  0  0  0  0  0  0  0  0  0  0
   32.3973   40.3692    3.6163 C   0  0  2  0  0  0  0  0  0  0  0  0
   32.0572   39.8033    2.2854 N   0  0  0  0  0  0  0  0  0  0  0  0
   32.7978   38.2912    7.9054 C   0  0  1  0  0  0  0  0  0  0  0  0
   31.9848   35.3958   11.1988 C   0  0  1  0  0  0  0  0  0  0  0  0
   35.6539   41.3967    9.3192 C   0  0  2  0  0  0  0  0  0  0  0  0
   34.3405   40.9891    9.8271 N   0  0  0  0  0  0  0  0  0  0  0  0
   33.4655   41.4928    3.4309 C   0  0  0  0  0  0  0  0  0  0  0  0
   33.3881   37.0937    8.6847 C   0  0  2  0  0  0  0  0  0  0  0  0
   32.7953   35.8537    8.2852 O   0  0  0  0  0  0  0  0  0  0  0  0
   30.5929   34.9038   11.7842 C   0  0  2  0  0  0  0  0  0  0  0  0
   30.0177   35.8046   12.8294 N   0  0  0  0  0  0  0  0  0  0  0  0
   35.8823   42.9080    9.5915 C   0  0  1  0  0  0  0  0  0  0  0  0
   35.7363   43.1810   10.9826 O   0  0  0  0  0  0  0  0  0  0  0  0
   33.8677   42.1199    4.7974 C   0  0  2  0  0  0  0  0  0  0  0  0
   34.8668   43.1728    4.5344 N   0  0  0  0  0  0  0  0  0  0  0  0
   33.1319   37.4305   10.1635 C   0  0  2  0  0  0  0  0  0  0  0  0
   31.9085   36.7746   10.6856 O   0  0  0  0  0  0  0  0  0  0  0  0
   30.7439   33.4271   12.3693 C   0  0  1  0  0  0  0  0  0  0  0  0
   30.9924   32.4700   11.3162 O   0  0  0  0  0  0  0  0  0  0  0  0
   37.2893   43.3198    9.1000 C   0  0  2  0  0  0  0  0  0  0  0  0
   37.5108   44.6899    9.3605 O   0  0  0  0  0  0  0  0  0  0  0  0
   34.4063   41.0055    5.7630 C   0  0  2  0  0  0  0  0  0  0  0  0
   33.0019   38.9510   10.1770 C   0  0  2  0  0  0  0  0  0  0  0  0
   32.5929   39.3257    8.8692 O   0  0  0  0  0  0  0  0  0  0  0  0
   31.9092   33.3235   13.4336 C   0  0  2  0  0  0  0  0  0  0  0  0
   31.5507   34.0796   14.6025 O   0  0  0  0  0  0  0  0  0  0  0  0
   37.4333   43.0244    7.5938 C   0  0  2  0  0  0  0  0  0  0  0  0
   37.1702   41.5848    7.3750 O   0  0  0  0  0  0  0  0  0  0  0  0
   33.2743   39.8796    5.9711 C   0  0  2  0  0  0  0  0  0  0  0  0
   33.7223   38.7667    6.8513 O   0  0  0  0  0  0  0  0  0  0  0  0
   34.3049   39.6752   10.4823 C   0  0  0  0  0  0  0  0  0  0  0  0
   33.2570   33.8669   12.8072 C   0  0  1  0  0  0  0  0  0  0  0  0
   33.0857   35.2379   12.2173 O   0  0  0  0  0  0  0  0  0  0  0  0
   38.8518   43.4175    7.1192 C   0  0  0  0  0  0  0  0  0  0  0  0
   39.9467   42.6283    7.7130 N   0  0  0  0  0  0  0  0  0  0  0  0
   32.9139   39.2553    4.6062 C   0  0  1  0  0  0  0  0  0  0  0  0
   31.9085   38.2534    4.7903 O   0  0  0  0  0  0  0  0  0  0  0  0
   34.4673   33.8492   13.8183 C   0  0  0  0  0  0  0  0  0  0  0  0
   35.7053   34.5712   13.3831 N   0  0  0  0  0  0  0  0  0  0  0  0
  1  2  1  6  0  0  0
  1  7  1  0  0  0  0
  1 30  1  0  0  0  0
  3  4  1  6  0  0  0
  3  9  1  0  0  0  0
  3 38  1  0  0  0  0
  5 10  1  0  0  0  0
  5 26  1  1  0  0  0
  5 32  1  0  0  0  0
  6 12  1  0  0  0  0
  6 35  1  0  0  0  0
  6 19  1  1  0  0  0
  7  8  1  6  0  0  0
  7 14  1  0  0  0  0
  8 33  1  0  0  0  0
  9 16  1  0  0  0  0
 10 11  1  6  0  0  0
 10 18  1  0  0  0  0
 12 13  1  1  0  0  0
 12 20  1  0  0  0  0
 14 15  1  1  0  0  0
 14 22  1  0  0  0  0
 16 17  1  6  0  0  0
 16 24  1  0  0  0  0
 18 19  1  6  0  0  0
 18 25  1  0  0  0  0
 20 21  1  6  0  0  0
 20 27  1  0  0  0  0
 22 23  1  6  0  0  0
 22 29  1  0  0  0  0
 24  2  1  1  0  0  0
 24 31  1  0  0  0  0
 25 26  1  6  0  0  0
 25 33  1  0  0  0  0
 27 28  1  1  0  0  0
 27 34  1  0  0  0  0
 29 30  1  0  0  0  0
 29 36  1  1  0  0  0
 31 32  1  1  0  0  0
 31 38  1  0  0  0  0
 34 35  1  0  0  0  0
 34 40  1  1  0  0  0
 36 37  1  0  0  0  0
 38 39  1  1  0  0  0
 40 41  1  0  0  0  0
M  END
>  <CHROM.1>
85.31146733,176.83083510,64.80780171,-169.36140308,33.93673267,38.87293427
8.91271307,-1.04042151,0.80611094,2.10114975

>  <Name>
ligand

>  <RI>
0

>  <Rbt.Current_Directory>
/home/itssahil/PROJECTS/Mol_Feturizer/New_Systems/rnas/1ZZ5

>  <Rbt.Executable>
rbdock ($Id: //depot/dev/client3/rdock/2013.1/src/exe/rbdock.cxx#4 $)

>  <Rbt.Library>
libRbt.so (2013.1, Build901 2013/11/27)

>  <Rbt.Parameter_File>
/export/apps/rDock/src/rDock_2013.1_src/data/scripts/dock_solv.prm

>  <Rbt.Receptor>
prm/pocket_docking_6.prm

>  <SCORE>
-8.93841

>  <SCORE.INTER>
-8.22942

>  <SCORE.INTER.CONST>
1

>  <SCORE.INTER.POLAR>
0

>  <SCORE.INTER.ROT>
4

>  <SCORE.INTER.SOLV>
23.9868

>  <SCORE.INTER.VDW>
-19.7485

>  <SCORE.INTER.norm>
-0.200718

>  <SCORE.INTRA>
-0.710322

>  <SCORE.INTRA.DIHEDRAL>
-1.76442

>  <SCORE.INTRA.DIHEDRAL.0>
5.18357

>  <SCORE.INTRA.POLAR>
0

>  <SCORE.INTRA.POLAR.0>
0

>  <SCORE.INTRA.REPUL>
0

>  <SCORE.INTRA.REPUL.0>
0

>  <SCORE.INTRA.SOLV>
-0.0321448

>  <SCORE.INTRA.SOLV.lig_0>
-109.973

>  <SCORE.INTRA.VDW>
0.187959

>  <SCORE.INTRA.VDW.0>
-1.68646

>  <SCORE.INTRA.norm>
-0.0173249

>  <SCORE.RESTR>
0.0013409

>  <SCORE.RESTR.CAVITY>
0.0013409

>  <SCORE.RESTR.norm>
3.27048e-05

>  <SCORE.SYSTEM>
0

>  <SCORE.SYSTEM.CONST>
0

>  <SCORE.SYSTEM.DIHEDRAL>
0

>  <SCORE.SYSTEM.SOLV>
0

>  <SCORE.SYSTEM.norm>
0

>  <SCORE.heavy>
41

>  <SCORE.norm>
-0.21801

>  <RMSD>
9.502

$$$$
ligand
 OpenBabel11021811423D
libRbt.so/2013.1/901 2013/11/27
 41 45  0  0  0  0  0  0  0  0999 V2000
   43.3921   41.2243    5.1982 C   0  0  2  0  0  0  0  0  0  0  0  0
   43.2575   40.4108    6.3800 O   0  0  0  0  0  0  0  0  0  0  0  0
   43.0080   41.1785   10.6539 C   0  0  2  0  0  0  0  0  0  0  0  0
   43.3238   41.7423   11.9916 N   0  0  0  0  0  0  0  0  0  0  0  0
   40.1020   42.7410    7.1914 C   0  0  1  0  0  0  0  0  0  0  0  0
   36.3052   42.7518    4.8625 C   0  0  1  0  0  0  0  0  0  0  0  0
   42.4898   40.6921    4.0448 C   0  0  2  0  0  0  0  0  0  0  0  0
   41.0847   40.5493    4.4378 N   0  0  0  0  0  0  0  0  0  0  0  0
   44.2989   40.5319   10.0591 C   0  0  0  0  0  0  0  0  0  0  0  0
   39.6669   43.9682    6.3581 C   0  0  2  0  0  0  0  0  0  0  0  0
   39.0225   44.9591    7.1653 O   0  0  0  0  0  0  0  0  0  0  0  0
   34.8257   43.2107    5.2125 C   0  0  2  0  0  0  0  0  0  0  0  0
   34.4994   43.1585    6.6705 N   0  0  0  0  0  0  0  0  0  0  0  0
   43.0340   39.3364    3.5194 C   0  0  1  0  0  0  0  0  0  0  0  0
   42.2217   38.8667    2.4468 O   0  0  0  0  0  0  0  0  0  0  0  0
   44.0299   39.9289    8.6498 C   0  0  2  0  0  0  0  0  0  0  0  0
   45.2895   39.3329    8.1658 N   0  0  0  0  0  0  0  0  0  0  0  0
   38.7452   43.3902    5.2707 C   0  0  2  0  0  0  0  0  0  0  0  0
   37.3108   43.5080    5.6288 O   0  0  0  0  0  0  0  0  0  0  0  0
   33.7779   42.3289    4.3939 C   0  0  1  0  0  0  0  0  0  0  0  0
   33.8593   42.6006    2.9774 O   0  0  0  0  0  0  0  0  0  0  0  0
   44.5002   39.5062    3.0588 C   0  0  2  0  0  0  0  0  0  0  0  0
   44.9966   38.2806    2.5631 O   0  0  0  0  0  0  0  0  0  0  0  0
   43.4787   41.0386    7.6860 C   0  0  2  0  0  0  0  0  0  0  0  0
   39.1773   41.9307    5.1602 C   0  0  2  0  0  0  0  0  0  0  0  0
   39.7605   41.5940    6.4111 O   0  0  0  0  0  0  0  0  0  0  0  0
   33.9928   40.7792    4.6257 C   0  0  2  0  0  0  0  0  0  0  0  0
   33.6662   40.4549    5.9876 O   0  0  0  0  0  0  0  0  0  0  0  0
   45.3696   40.0096    4.2282 C   0  0  2  0  0  0  0  0  0  0  0  0
   44.7941   41.2802    4.7221 O   0  0  0  0  0  0  0  0  0  0  0  0
   42.1269   41.6622    8.2994 C   0  0  2  0  0  0  0  0  0  0  0  0
   41.5586   42.7489    7.4567 O   0  0  0  0  0  0  0  0  0  0  0  0
   40.2181   41.6795    4.0790 C   0  0  0  0  0  0  0  0  0  0  0  0
   35.4928   40.3919    4.3025 C   0  0  1  0  0  0  0  0  0  0  0  0
   36.4666   41.2634    5.0436 O   0  0  0  0  0  0  0  0  0  0  0  0
   46.8279   40.1989    3.7494 C   0  0  0  0  0  0  0  0  0  0  0  0
   47.7687   40.6565    4.7884 N   0  0  0  0  0  0  0  0  0  0  0  0
   42.4268   42.2772    9.6830 C   0  0  1  0  0  0  0  0  0  0  0  0
   41.2259   42.8329   10.2286 O   0  0  0  0  0  0  0  0  0  0  0  0
   35.8130   38.8685    4.5560 C   0  0  0  0  0  0  0  0  0  0  0  0
   37.2363   38.4478    4.3547 N   0  0  0  0  0  0  0  0  0  0  0  0
  1  2  1  1  0  0  0
  1  7  1  0  0  0  0
  1 30  1  0  0  0  0
  3  4  1  1  0  0  0
  3  9  1  0  0  0  0
  3 38  1  0  0  0  0
  5 10  1  0  0  0  0
  5 26  1  6  0  0  0
  5 32  1  0  0  0  0
  6 12  1  0  0  0  0
  6 35  1  0  0  0  0
  6 19  1  1  0  0  0
  7  8  1  1  0  0  0
  7 14  1  0  0  0  0
  8 33  1  0  0  0  0
  9 16  1  0  0  0  0
 10 11  1  1  0  0  0
 10 18  1  0  0  0  0
 12 13  1  1  0  0  0
 12 20  1  0  0  0  0
 14 15  1  6  0  0  0
 14 22  1  0  0  0  0
 16 17  1  6  0  0  0
 16 24  1  0  0  0  0
 18 19  1  1  0  0  0
 18 25  1  0  0  0  0
 20 21  1  6  0  0  0
 20 27  1  0  0  0  0
 22 23  1  1  0  0  0
 22 29  1  0  0  0  0
 24  2  1  6  0  0  0
 24 31  1  0  0  0  0
 25 26  1  1  0  0  0
 25 33  1  0  0  0  0
 27 28  1  1  0  0  0
 27 34  1  0  0  0  0
 29 30  1  0  0  0  0
 29 36  1  6  0  0  0
 31 32  1  6  0  0  0
 31 38  1  0  0  0  0
 34 35  1  0  0  0  0
 34 40  1  1  0  0  0
 36 37  1  0  0  0  0
 38 39  1  1  0  0  0
 40 41  1  0  0  0  0
M  END
>  <CHROM.1>
-166.50349027,-169.38400086,-178.93364870,-176.23302539,40.47781998,41.28078794
5.89518401,-0.06652401,0.19335081,-1.96074689

>  <Name>
ligand

>  <RI>
0

>  <Rbt.Current_Directory>
/home/itssahil/PROJECTS/Mol_Feturizer/New_Systems/rnas/1ZZ5

>  <Rbt.Executable>
rbdock ($Id: //depot/dev/client3/rdock/2013.1/src/exe/rbdock.cxx#4 $)

>  <Rbt.Library>
libRbt.so (2013.1, Build901 2013/11/27)

>  <Rbt.Parameter_File>
/export/apps/rDock/src/rDock_2013.1_src/data/scripts/dock_solv.prm

>  <Rbt.Receptor>
prm/pocket_docking_6.prm

>  <SCORE>
-15.3077

>  <SCORE.INTER>
-13.7366

>  <SCORE.INTER.CONST>
1

>  <SCORE.INTER.POLAR>
0

>  <SCORE.INTER.ROT>
4

>  <SCORE.INTER.SOLV>
17.8203

>  <SCORE.INTER.VDW>
-21.3645

>  <SCORE.INTER.norm>
-0.335039

>  <SCORE.INTRA>
-1.57107

>  <SCORE.INTRA.DIHEDRAL>
-3.52337

>  <SCORE.INTRA.DIHEDRAL.0>
5.18357

>  <SCORE.INTRA.POLAR>
0

>  <SCORE.INTRA.POLAR.0>
0

>  <SCORE.INTRA.REPUL>
0.0270562

>  <SCORE.INTRA.REPUL.0>
0

>  <SCORE.INTRA.SOLV>
-0.805685

>  <SCORE.INTRA.SOLV.lig_0>
-109.973

>  <SCORE.INTRA.VDW>
0.458175

>  <SCORE.INTRA.VDW.0>
-1.68646

>  <SCORE.INTRA.norm>
-0.0383188

>  <SCORE.RESTR>
0

>  <SCORE.RESTR.CAVITY>
0

>  <SCORE.RESTR.norm>
0

>  <SCORE.SYSTEM>
0

>  <SCORE.SYSTEM.CONST>
0

>  <SCORE.SYSTEM.DIHEDRAL>
0

>  <SCORE.SYSTEM.SOLV>
0

>  <SCORE.SYSTEM.norm>
0

>  <SCORE.heavy>
41

>  <SCORE.norm>
-0.373357

>  <RMSD>
9.529

$$$$
ligand
 OpenBabel11021811423D
libRbt.so/2013.1/901 2013/11/27
 41 45  0  0  0  0  0  0  0  0999 V2000
   35.8502   41.1084    7.7941 C   0  0  2  0  0  0  0  0  0  0  0  0
   34.7776   41.6891    7.0268 O   0  0  0  0  0  0  0  0  0  0  0  0
   32.3578   40.4254    3.6408 C   0  0  2  0  0  0  0  0  0  0  0  0
   32.0011   39.8683    2.3105 N   0  0  0  0  0  0  0  0  0  0  0  0
   32.7977   38.3217    7.9135 C   0  0  1  0  0  0  0  0  0  0  0  0
   32.0059   35.4035   11.1800 C   0  0  1  0  0  0  0  0  0  0  0  0
   35.6802   41.4091    9.3134 C   0  0  2  0  0  0  0  0  0  0  0  0
   34.3709   41.0033    9.8334 N   0  0  0  0  0  0  0  0  0  0  0  0
   33.4279   41.5463    3.4501 C   0  0  0  0  0  0  0  0  0  0  0  0
   33.3922   37.1178    8.6795 C   0  0  2  0  0  0  0  0  0  0  0  0
   32.7907   35.8821    8.2796 O   0  0  0  0  0  0  0  0  0  0  0  0
   30.6403   34.9352   11.8419 C   0  0  2  0  0  0  0  0  0  0  0  0
   30.1530   35.8314   12.9347 N   0  0  0  0  0  0  0  0  0  0  0  0
   35.9169   42.9180    9.5918 C   0  0  1  0  0  0  0  0  0  0  0  0
   35.7870   43.1837   10.9859 O   0  0  0  0  0  0  0  0  0  0  0  0
   33.8472   42.1642    4.8156 C   0  0  2  0  0  0  0  0  0  0  0  0
   34.8471   43.2151    4.5476 N   0  0  0  0  0  0  0  0  0  0  0  0
   33.1534   37.4471   10.1629 C   0  0  2  0  0  0  0  0  0  0  0  0
   31.9335   36.7925   10.6947 O   0  0  0  0  0  0  0  0  0  0  0  0
   30.7891   33.4453   12.3928 C   0  0  1  0  0  0  0  0  0  0  0  0
   30.9486   32.5010   11.3112 O   0  0  0  0  0  0  0  0  0  0  0  0
   37.3198   43.3277    9.0872 C   0  0  2  0  0  0  0  0  0  0  0  0
   37.5491   44.6956    9.3529 O   0  0  0  0  0  0  0  0  0  0  0  0
   34.3924   41.0425    5.7689 C   0  0  2  0  0  0  0  0  0  0  0  0
   33.0290   38.9679   10.1864 C   0  0  2  0  0  0  0  0  0  0  0  0
   32.6071   39.3514    8.8853 O   0  0  0  0  0  0  0  0  0  0  0  0
   32.0142   33.2946   13.3817 C   0  0  2  0  0  0  0  0  0  0  0  0
   31.7471   34.0386   14.5824 O   0  0  0  0  0  0  0  0  0  0  0  0
   37.4464   43.0403    7.5778 C   0  0  2  0  0  0  0  0  0  0  0  0
   37.1758   41.6029    7.3538 O   0  0  0  0  0  0  0  0  0  0  0  0
   33.2587   39.9194    5.9831 C   0  0  2  0  0  0  0  0  0  0  0  0
   33.7124   38.8000    6.8520 O   0  0  0  0  0  0  0  0  0  0  0  0
   34.3378   39.6858   10.4815 C   0  0  0  0  0  0  0  0  0  0  0  0
   33.3347   33.8159   12.6825 C   0  0  1  0  0  0  0  0  0  0  0  0
   33.1625   35.2009   12.1263 O   0  0  0  0  0  0  0  0  0  0  0  0
   38.8610   43.4311    7.0900 C   0  0  0  0  0  0  0  0  0  0  0  0
   39.9631   42.6685    7.7047 N   0  0  0  0  0  0  0  0  0  0  0  0
   32.8812   39.3042    4.6187 C   0  0  1  0  0  0  0  0  0  0  0  0
   31.8743   38.3047    4.8082 O   0  0  0  0  0  0  0  0  0  0  0  0
   34.6036   33.7510   13.6168 C   0  0  0  0  0  0  0  0  0  0  0  0
   34.5458   34.5675   14.8712 N   0  0  0  0  0  0  0  0  0  0  0  0
  1  2  1  6  0  0  0
  1  7  1  0  0  0  0
  1 30  1  0  0  0  0
  3  4  1  6  0  0  0
  3  9  1  0  0  0  0
  3 38  1  0  0  0  0
  5 10  1  0  0  0  0
  5 26  1  1  0  0  0
  5 32  1  0  0  0  0
  6 12  1  0  0  0  0
  6 35  1  0  0  0  0
  6 19  1  1  0  0  0
  7  8  1  6  0  0  0
  7 14  1  0  0  0  0
  8 33  1  0  0  0  0
  9 16  1  0  0  0  0
 10 11  1  6  0  0  0
 10 18  1  0  0  0  0
 12 13  1  1  0  0  0
 12 20  1  0  0  0  0
 14 15  1  1  0  0  0
 14 22  1  0  0  0  0
 16 17  1  6  0  0  0
 16 24  1  0  0  0  0
 18 19  1  6  0  0  0
 18 25  1  0  0  0  0
 20 21  1  6  0  0  0
 20 27  1  0  0  0  0
 22 23  1  6  0  0  0
 22 29  1  0  0  0  0
 24  2  1  1  0  0  0
 24 31  1  0  0  0  0
 25 26  1  6  0  0  0
 25 33  1  0  0  0  0
 27 28  1  1  0  0  0
 27 34  1  0  0  0  0
 29 30  1  0  0  0  0
 29 36  1  1  0  0  0
 31 32  1  1  0  0  0
 31 38  1  0  0  0  0
 34 35  1  0  0  0  0
 34 40  1  1  0  0  0
 36 37  1  0  0  0  0
 38 39  1  1  0  0  0
 40 41  1  0  0  0  0
M  END
>  <CHROM.1>
84.37376286,174.20101367,62.64538279,-61.09517944,33.93105150,38.88949597
8.94260892,-1.04991309,0.81171844,2.09725053

>  <Name>
ligand

>  <RI>
0

>  <Rbt.Current_Directory>
/home/itssahil/PROJECTS/Mol_Feturizer/New_Systems/rnas/1ZZ5

>  <Rbt.Executable>
rbdock ($Id: //depot/dev/client3/rdock/2013.1/src/exe/rbdock.cxx#4 $)

>  <Rbt.Library>
libRbt.so (2013.1, Build901 2013/11/27)

>  <Rbt.Parameter_File>
/export/apps/rDock/src/rDock_2013.1_src/data/scripts/dock_solv.prm

>  <Rbt.Receptor>
prm/pocket_docking_6.prm

>  <SCORE>
-9.47791

>  <SCORE.INTER>
-9.22492

>  <SCORE.INTER.CONST>
1

>  <SCORE.INTER.POLAR>
0

>  <SCORE.INTER.ROT>
4

>  <SCORE.INTER.SOLV>
21.1478

>  <SCORE.INTER.VDW>
-19.4659

>  <SCORE.INTER.norm>
-0.224998

>  <SCORE.INTRA>
-0.252982

>  <SCORE.INTRA.DIHEDRAL>
-2.235

>  <SCORE.INTRA.DIHEDRAL.0>
5.18357

>  <SCORE.INTRA.POLAR>
0

>  <SCORE.INTRA.POLAR.0>
0

>  <SCORE.INTRA.REPUL>
0

>  <SCORE.INTRA.REPUL.0>
0

>  <SCORE.INTRA.SOLV>
1.54001

>  <SCORE.INTRA.SOLV.lig_0>
-109.973

>  <SCORE.INTRA.VDW>
0.0945138

>  <SCORE.INTRA.VDW.0>
-1.68646

>  <SCORE.INTRA.norm>
-0.0061703

>  <SCORE.RESTR>
0

>  <SCORE.RESTR.CAVITY>
0

>  <SCORE.RESTR.norm>
0

>  <SCORE.SYSTEM>
0

>  <SCORE.SYSTEM.CONST>
0

>  <SCORE.SYSTEM.DIHEDRAL>
0

>  <SCORE.SYSTEM.SOLV>
0

>  <SCORE.SYSTEM.norm>
0

>  <SCORE.heavy>
41

>  <SCORE.norm>
-0.231168

>  <RMSD>
9.530

$$$$
ligand
 OpenBabel11021811423D
libRbt.so/2013.1/901 2013/11/27
 41 45  0  0  0  0  0  0  0  0999 V2000
   36.7722   41.6464    8.4953 C   0  0  2  0  0  0  0  0  0  0  0  0
   38.0383   41.8913    7.8523 O   0  0  0  0  0  0  0  0  0  0  0  0
   40.6878   39.6102    5.2649 C   0  0  2  0  0  0  0  0  0  0  0  0
   41.4953   38.4770    4.7443 N   0  0  0  0  0  0  0  0  0  0  0  0
   36.1306   40.8383    4.4911 C   0  0  1  0  0  0  0  0  0  0  0  0
   32.5413   43.0236    2.6087 C   0  0  1  0  0  0  0  0  0  0  0  0
   35.8538   42.9030    8.4231 C   0  0  2  0  0  0  0  0  0  0  0  0
   35.6714   43.4000    7.0560 N   0  0  0  0  0  0  0  0  0  0  0  0
   41.1063   39.8936    6.7423 C   0  0  0  0  0  0  0  0  0  0  0  0
   34.6735   40.3269    4.4203 C   0  0  2  0  0  0  0  0  0  0  0  0
   34.4783   39.4237    3.3272 O   0  0  0  0  0  0  0  0  0  0  0  0
   31.0979   42.7765    3.2233 C   0  0  2  0  0  0  0  0  0  0  0  0
   30.4724   41.4828    2.8111 N   0  0  0  0  0  0  0  0  0  0  0  0
   36.4174   44.0324    9.3272 C   0  0  1  0  0  0  0  0  0  0  0  0
   35.5601   45.1698    9.2793 O   0  0  0  0  0  0  0  0  0  0  0  0
   40.2856   41.0705    7.3452 C   0  0  2  0  0  0  0  0  0  0  0  0
   40.7463   41.2789    8.7309 N   0  0  0  0  0  0  0  0  0  0  0  0
   33.8214   41.6021    4.3023 C   0  0  2  0  0  0  0  0  0  0  0  0
   33.4596   41.9084    2.8971 O   0  0  0  0  0  0  0  0  0  0  0  0
   30.1325   43.9878    2.8408 C   0  0  1  0  0  0  0  0  0  0  0  0
   30.5419   45.2095    3.4939 O   0  0  0  0  0  0  0  0  0  0  0  0
   36.5589   43.5173   10.7782 C   0  0  2  0  0  0  0  0  0  0  0  0
   37.0548   44.5449   11.6101 O   0  0  0  0  0  0  0  0  0  0  0  0
   38.7502   40.7542    7.2616 C   0  0  2  0  0  0  0  0  0  0  0  0
   34.7049   42.6914    4.9038 C   0  0  2  0  0  0  0  0  0  0  0  0
   36.0439   42.2377    4.7649 O   0  0  0  0  0  0  0  0  0  0  0  0
   30.0816   44.2400    1.2802 C   0  0  2  0  0  0  0  0  0  0  0  0
   29.4387   43.1242    0.6415 O   0  0  0  0  0  0  0  0  0  0  0  0
   37.4919   42.2905   10.8178 C   0  0  2  0  0  0  0  0  0  0  0  0
   36.9391   41.2566    9.9150 O   0  0  0  0  0  0  0  0  0  0  0  0
   38.3341   40.5056    5.7261 C   0  0  2  0  0  0  0  0  0  0  0  0
   36.8944   40.1655    5.5663 O   0  0  0  0  0  0  0  0  0  0  0  0
   34.4494   42.9411    6.3829 C   0  0  0  0  0  0  0  0  0  0  0  0
   31.5489   44.4358    0.7209 C   0  0  1  0  0  0  0  0  0  0  0  0
   32.4574   43.3116    1.1309 O   0  0  0  0  0  0  0  0  0  0  0  0
   37.6063   41.7697   12.2695 C   0  0  0  0  0  0  0  0  0  0  0  0
   38.3364   42.6580   13.1926 N   0  0  0  0  0  0  0  0  0  0  0  0
   39.1415   39.3173    5.1613 C   0  0  1  0  0  0  0  0  0  0  0  0
   38.7714   39.0947    3.7968 O   0  0  0  0  0  0  0  0  0  0  0  0
   31.5991   44.6431   -0.8418 C   0  0  0  0  0  0  0  0  0  0  0  0
   32.9504   44.9037   -1.4330 N   0  0  0  0  0  0  0  0  0  0  0  0
  1  2  1  1  0  0  0
  1  7  1  0  0  0  0
  1 30  1  0  0  0  0
  3  4  1  1  0  0  0
  3  9  1  0  0  0  0
  3 38  1  0  0  0  0
  5 10  1  0  0  0  0
  5 26  1  1  0  0  0
  5 32  1  0  0  0  0
  6 12  1  0  0  0  0
  6 35  1  0  0  0  0
  6 19  1  6  0  0  0
  7  8  1  6  0  0  0
  7 14  1  0  0  0  0
  8 33  1  0  0  0  0
  9 16  1  0  0  0  0
 10 11  1  6  0  0  0
 10 18  1  0  0  0  0
 12 13  1  6  0  0  0
 12 20  1  0  0  0  0
 14 15  1  1  0  0  0
 14 22  1  0  0  0  0
 16 17  1  1  0  0  0
 16 24  1  0  0  0  0
 18 19  1  6  0  0  0
 18 25  1  0  0  0  0
 20 21  1  1  0  0  0
 20 27  1  0  0  0  0
 22 23  1  1  0  0  0
 22 29  1  0  0  0  0
 24  2  1  6  0  0  0
 24 31  1  0  0  0  0
 25 26  1  1  0  0  0
 25 33  1  0  0  0  0
 27 28  1  6  0  0  0
 27 34  1  0  0  0  0
 29 30  1  0  0  0  0
 29 36  1  1  0  0  0
 31 32  1  1  0  0  0
 31 38  1  0  0  0  0
 34 35  1  0  0  0  0
 34 40  1  6  0  0  0
 36 37  1  0  0  0  0
 38 39  1  6  0  0  0
 40 41  1  0  0  0  0
M  END
>  <CHROM.1>
174.33892459,-63.39395482,-69.03013094,177.02782702,35.56536091,42.16246233
5.62995786,0.66131768,-0.54593859,1.22521923

>  <Name>
ligand

>  <RI>
0

>  <Rbt.Current_Directory>
/home/itssahil/PROJECTS/Mol_Feturizer/New_Systems/rnas/1ZZ5

>  <Rbt.Executable>
rbdock ($Id: //depot/dev/client3/rdock/2013.1/src/exe/rbdock.cxx#4 $)

>  <Rbt.Library>
libRbt.so (2013.1, Build901 2013/11/27)

>  <Rbt.Parameter_File>
/export/apps/rDock/src/rDock_2013.1_src/data/scripts/dock_solv.prm

>  <Rbt.Receptor>
prm/pocket_docking_8.prm

>  <SCORE>
-10.9904

>  <SCORE.INTER>
-9.15242

>  <SCORE.INTER.CONST>
1

>  <SCORE.INTER.POLAR>
0

>  <SCORE.INTER.ROT>
4

>  <SCORE.INTER.SOLV>
12.2538

>  <SCORE.INTER.VDW>
-16.4529

>  <SCORE.INTER.norm>
-0.22323

>  <SCORE.INTRA>
-1.83799

>  <SCORE.INTRA.DIHEDRAL>
-4.41151

>  <SCORE.INTRA.DIHEDRAL.0>
5.18357

>  <SCORE.INTRA.POLAR>
0

>  <SCORE.INTRA.POLAR.0>
0

>  <SCORE.INTRA.REPUL>
0

>  <SCORE.INTRA.REPUL.0>
0

>  <SCORE.INTRA.SOLV>
-0.192406

>  <SCORE.INTRA.SOLV.lig_0>
-109.973

>  <SCORE.INTRA.VDW>
0.463968

>  <SCORE.INTRA.VDW.0>
-1.68646

>  <SCORE.INTRA.norm>
-0.044829

>  <SCORE.RESTR>
0

>  <SCORE.RESTR.CAVITY>
0

>  <SCORE.RESTR.norm>
0

>  <SCORE.SYSTEM>
0

>  <SCORE.SYSTEM.CONST>
0

>  <SCORE.SYSTEM.DIHEDRAL>
0

>  <SCORE.SYSTEM.SOLV>
0

>  <SCORE.SYSTEM.norm>
0

>  <SCORE.heavy>
41

>  <SCORE.norm>
-0.268059

>  <RMSD>
9.535

$$$$
ligand
 OpenBabel11021811423D
libRbt.so/2013.1/901 2013/11/27
 41 45  0  0  0  0  0  0  0  0999 V2000
   38.0746   34.9001    8.2936 C   0  0  2  0  0  0  0  0  0  0  0  0
   38.1379   36.2316    7.7462 O   0  0  0  0  0  0  0  0  0  0  0  0
   35.5437   38.6823    5.2599 C   0  0  2  0  0  0  0  0  0  0  0  0
   34.6458   39.0772    4.1441 N   0  0  0  0  0  0  0  0  0  0  0  0
   34.5883   36.7489    9.5288 C   0  0  1  0  0  0  0  0  0  0  0  0
   33.7640   36.5401   14.0566 C   0  0  1  0  0  0  0  0  0  0  0  0
   38.6145   34.8679    9.7548 C   0  0  2  0  0  0  0  0  0  0  0  0
   37.9508   35.8378   10.6310 N   0  0  0  0  0  0  0  0  0  0  0  0
   36.8697   38.1113    4.6650 C   0  0  0  0  0  0  0  0  0  0  0  0
   33.8007   35.6478   10.2750 C   0  0  2  0  0  0  0  0  0  0  0  0
   32.3872   35.8611   10.2020 O   0  0  0  0  0  0  0  0  0  0  0  0
   32.8301   37.5743   14.8183 C   0  0  2  0  0  0  0  0  0  0  0  0
   32.8612   38.9572   14.2512 N   0  0  0  0  0  0  0  0  0  0  0  0
   40.1486   35.1063    9.7655 C   0  0  1  0  0  0  0  0  0  0  0  0
   40.6424   35.0490   11.1012 O   0  0  0  0  0  0  0  0  0  0  0  0
   37.8502   37.6724    5.7911 C   0  0  2  0  0  0  0  0  0  0  0  0
   39.0741   37.1573    5.1487 N   0  0  0  0  0  0  0  0  0  0  0  0
   34.3394   35.6953   11.7150 C   0  0  2  0  0  0  0  0  0  0  0  0
   33.4730   36.4967   12.6131 O   0  0  0  0  0  0  0  0  0  0  0  0
   33.2195   37.6173   16.3650 C   0  0  1  0  0  0  0  0  0  0  0  0
   32.8990   36.3703   17.0200 O   0  0  0  0  0  0  0  0  0  0  0  0
   40.8471   34.0483    8.8804 C   0  0  2  0  0  0  0  0  0  0  0  0
   42.2449   34.2483    8.8994 O   0  0  0  0  0  0  0  0  0  0  0  0
   37.1628   36.6087    6.7187 C   0  0  2  0  0  0  0  0  0  0  0  0
   35.7244   36.3193   11.5689 C   0  0  2  0  0  0  0  0  0  0  0  0
   35.6896   37.0866   10.3738 O   0  0  0  0  0  0  0  0  0  0  0  0
   34.7551   37.9253   16.5851 C   0  0  2  0  0  0  0  0  0  0  0  0
   35.0329   39.2711   16.1631 O   0  0  0  0  0  0  0  0  0  0  0  0
   40.3086   34.1233    7.4378 C   0  0  2  0  0  0  0  0  0  0  0  0
   38.8421   33.9299    7.4782 O   0  0  0  0  0  0  0  0  0  0  0  0
   35.8206   37.2331    7.3520 C   0  0  2  0  0  0  0  0  0  0  0  0
   35.0907   36.2706    8.2208 O   0  0  0  0  0  0  0  0  0  0  0  0
   36.8455   35.2993   11.4343 C   0  0  0  0  0  0  0  0  0  0  0  0
   35.6315   36.8907   15.7690 C   0  0  1  0  0  0  0  0  0  0  0  0
   35.2199   36.8266   14.3255 O   0  0  0  0  0  0  0  0  0  0  0  0
   40.9964   33.0450    6.5683 C   0  0  0  0  0  0  0  0  0  0  0  0
   40.6390   33.0789    5.1381 N   0  0  0  0  0  0  0  0  0  0  0  0
   34.8553   37.6341    6.2162 C   0  0  1  0  0  0  0  0  0  0  0  0
   33.6612   38.1880    6.7783 O   0  0  0  0  0  0  0  0  0  0  0  0
   37.1819   37.1542   15.8889 C   0  0  0  0  0  0  0  0  0  0  0  0
   37.6829   38.4399   15.3063 N   0  0  0  0  0  0  0  0  0  0  0  0
  1  2  1  6  0  0  0
  1  7  1  0  0  0  0
  1 30  1  0  0  0  0
  3  4  1  6  0  0  0
  3  9  1  0  0  0  0
  3 38  1  0  0  0  0
  5 10  1  0  0  0  0
  5 26  1  1  0  0  0
  5 32  1  0  0  0  0
  6 12  1  0  0  0  0
  6 35  1  0  0  0  0
  6 19  1  6  0  0  0
  7  8  1  1  0  0  0
  7 14  1  0  0  0  0
  8 33  1  0  0  0  0
  9 16  1  0  0  0  0
 10 11  1  1  0  0  0
 10 18  1  0  0  0  0
 12 13  1  6  0  0  0
 12 20  1  0  0  0  0
 14 15  1  1  0  0  0
 14 22  1  0  0  0  0
 16 17  1  6  0  0  0
 16 24  1  0  0  0  0
 18 19  1  1  0  0  0
 18 25  1  0  0  0  0
 20 21  1  6  0  0  0
 20 27  1  0  0  0  0
 22 23  1  6  0  0  0
 22 29  1  0  0  0  0
 24  2  1  1  0  0  0
 24 31  1  0  0  0  0
 25 26  1  6  0  0  0
 25 33  1  0  0  0  0
 27 28  1  6  0  0  0
 27 34  1  0  0  0  0
 29 30  1  0  0  0  0
 29 36  1  6  0  0  0
 31 32  1  1  0  0  0
 31 38  1  0  0  0  0
 34 35  1  0  0  0  0
 34 40  1  6  0  0  0
 36 37  1  0  0  0  0
 38 39  1  1  0  0  0
 40 41  1  0  0  0  0
M  END
>  <CHROM.1>
173.96799556,173.56676004,-175.66341681,-64.79646218,36.48032699,36.43060381
10.27474743,-1.05141893,-0.46400871,1.62406279

>  <Name>
ligand

>  <RI>
0

>  <Rbt.Current_Directory>
/home/itssahil/PROJECTS/Mol_Feturizer/New_Systems/rnas/1ZZ5

>  <Rbt.Executable>
rbdock ($Id: //depot/dev/client3/rdock/2013.1/src/exe/rbdock.cxx#4 $)

>  <Rbt.Library>
libRbt.so (2013.1, Build901 2013/11/27)

>  <Rbt.Parameter_File>
/export/apps/rDock/src/rDock_2013.1_src/data/scripts/dock_solv.prm

>  <Rbt.Receptor>
prm/pocket_docking_8.prm

>  <SCORE>
-10.1099

>  <SCORE.INTER>
-8.06848

>  <SCORE.INTER.CONST>
1

>  <SCORE.INTER.POLAR>
0

>  <SCORE.INTER.ROT>
4

>  <SCORE.INTER.SOLV>
14.2586

>  <SCORE.INTER.VDW>
-16.3985

>  <SCORE.INTER.norm>
-0.196792

>  <SCORE.INTRA>
-2.04186

>  <SCORE.INTRA.DIHEDRAL>
-4.41824

>  <SCORE.INTRA.DIHEDRAL.0>
5.18357

>  <SCORE.INTRA.POLAR>
0

>  <SCORE.INTRA.POLAR.0>
0

>  <SCORE.INTRA.REPUL>
0

>  <SCORE.INTRA.REPUL.0>
0

>  <SCORE.INTRA.SOLV>
0.153133

>  <SCORE.INTRA.SOLV.lig_0>
-109.973

>  <SCORE.INTRA.VDW>
0.0906897

>  <SCORE.INTRA.VDW.0>
-1.68646

>  <SCORE.INTRA.norm>
-0.0498016

>  <SCORE.RESTR>
0.000455283

>  <SCORE.RESTR.CAVITY>
0.000455283

>  <SCORE.RESTR.norm>
1.11045e-05

>  <SCORE.SYSTEM>
0

>  <SCORE.SYSTEM.CONST>
0

>  <SCORE.SYSTEM.DIHEDRAL>
0

>  <SCORE.SYSTEM.SOLV>
0

>  <SCORE.SYSTEM.norm>
0

>  <SCORE.heavy>
41

>  <SCORE.norm>
-0.246583

>  <RMSD>
9.539

$$$$
ligand
 OpenBabel11021811423D
libRbt.so/2013.1/901 2013/11/27
 41 45  0  0  0  0  0  0  0  0999 V2000
   35.8438   41.0903    7.8202 C   0  0  2  0  0  0  0  0  0  0  0  0
   34.7801   41.6613    7.0334 O   0  0  0  0  0  0  0  0  0  0  0  0
   32.4178   40.3660    3.6187 C   0  0  2  0  0  0  0  0  0  0  0  0
   32.0840   39.7994    2.2865 N   0  0  0  0  0  0  0  0  0  0  0  0
   32.8032   38.2895    7.9099 C   0  0  1  0  0  0  0  0  0  0  0  0
   31.9785   35.3904   11.1920 C   0  0  1  0  0  0  0  0  0  0  0  0
   35.6493   41.3990    9.3349 C   0  0  2  0  0  0  0  0  0  0  0  0
   34.3343   40.9898    9.8375 N   0  0  0  0  0  0  0  0  0  0  0  0
   33.4854   41.4911    3.4376 C   0  0  0  0  0  0  0  0  0  0  0  0
   33.3918   37.0929    8.6919 C   0  0  2  0  0  0  0  0  0  0  0  0
   32.8024   35.8520    8.2903 O   0  0  0  0  0  0  0  0  0  0  0  0
   30.6038   34.9194   11.8327 C   0  0  2  0  0  0  0  0  0  0  0  0
   30.0874   35.8258   12.9035 N   0  0  0  0  0  0  0  0  0  0  0  0
   35.8745   42.9106    9.6079 C   0  0  1  0  0  0  0  0  0  0  0  0
   35.7223   43.1838   10.9984 O   0  0  0  0  0  0  0  0  0  0  0  0
   33.8810   42.1189    4.8056 C   0  0  2  0  0  0  0  0  0  0  0  0
   34.8798   43.1731    4.5465 N   0  0  0  0  0  0  0  0  0  0  0  0
   33.1290   37.4297   10.1696 C   0  0  2  0  0  0  0  0  0  0  0  0
   31.9044   36.7722   10.6867 O   0  0  0  0  0  0  0  0  0  0  0  0
   30.7538   33.4382   12.4065 C   0  0  1  0  0  0  0  0  0  0  0  0
   30.9427   32.4811   11.3411 O   0  0  0  0  0  0  0  0  0  0  0  0
   37.2830   43.3242    9.1222 C   0  0  2  0  0  0  0  0  0  0  0  0
   37.5017   44.6947    9.3833 O   0  0  0  0  0  0  0  0  0  0  0  0
   34.4171   41.0055    5.7737 C   0  0  2  0  0  0  0  0  0  0  0  0
   32.9970   38.9500   10.1822 C   0  0  2  0  0  0  0  0  0  0  0  0
   32.5930   39.3239    8.8726 O   0  0  0  0  0  0  0  0  0  0  0  0
   31.9601   33.3111   13.4216 C   0  0  2  0  0  0  0  0  0  0  0  0
   31.6628   34.0687   14.6066 O   0  0  0  0  0  0  0  0  0  0  0  0
   37.4338   43.0287    7.6167 C   0  0  2  0  0  0  0  0  0  0  0  0
   37.1734   41.5887    7.3971 O   0  0  0  0  0  0  0  0  0  0  0  0
   33.2857   39.8781    5.9773 C   0  0  2  0  0  0  0  0  0  0  0  0
   33.7315   38.7660    6.8596 O   0  0  0  0  0  0  0  0  0  0  0  0
   34.2977   39.6760   10.4928 C   0  0  0  0  0  0  0  0  0  0  0  0
   33.2899   33.8343   12.7418 C   0  0  1  0  0  0  0  0  0  0  0  0
   33.1175   35.2103   12.1638 O   0  0  0  0  0  0  0  0  0  0  0  0
   38.8536   43.4236    7.1479 C   0  0  0  0  0  0  0  0  0  0  0  0
   39.9489   42.6560    7.7688 N   0  0  0  0  0  0  0  0  0  0  0  0
   32.9318   39.2531    4.6110 C   0  0  1  0  0  0  0  0  0  0  0  0
   31.9270   38.2498    4.7912 O   0  0  0  0  0  0  0  0  0  0  0  0
   34.5403   33.7926   13.7021 C   0  0  0  0  0  0  0  0  0  0  0  0
   34.4491   34.6221   14.9458 N   0  0  0  0  0  0  0  0  0  0  0  0
  1  2  1  6  0  0  0
  1  7  1  0  0  0  0
  1 30  1  0  0  0  0
  3  4  1  6  0  0  0
  3  9  1  0  0  0  0
  3 38  1  0  0  0  0
  5 10  1  0  0  0  0
  5 26  1  1  0  0  0
  5 32  1  0  0  0  0
  6 12  1  0  0  0  0
  6 35  1  0  0  0  0
  6 19  1  1  0  0  0
  7  8  1  6  0  0  0
  7 14  1  0  0  0  0
  8 33  1  0  0  0  0
  9 16  1  0  0  0  0
 10 11  1  6  0  0  0
 10 18  1  0  0  0  0
 12 13  1  1  0  0  0
 12 20  1  0  0  0  0
 14 15  1  1  0  0  0
 14 22  1  0  0  0  0
 16 17  1  6  0  0  0
 16 24  1  0  0  0  0
 18 19  1  6  0  0  0
 18 25  1  0  0  0  0
 20 21  1  6  0  0  0
 20 27  1  0  0  0  0
 22 23  1  6  0  0  0
 22 29  1  0  0  0  0
 24  2  1  1  0  0  0
 24 31  1  0  0  0  0
 25 26  1  6  0  0  0
 25 33  1  0  0  0  0
 27 28  1  1  0  0  0
 27 34  1  0  0  0  0
 29 30  1  0  0  0  0
 29 36  1  1  0  0  0
 31 32  1  1  0  0  0
 31 38  1  0  0  0  0
 34 35  1  0  0  0  0
 34 40  1  1  0  0  0
 36 37  1  0  0  0  0
 38 39  1  1  0  0  0
 40 41  1  0  0  0  0
M  END
>  <CHROM.1>
84.89729666,174.25160454,63.51963173,-60.93202409,33.91760337,38.87288567
8.95772736,-1.03473726,0.82315958,2.07721020

>  <Name>
ligand

>  <RI>
0

>  <Rbt.Current_Directory>
/home/itssahil/PROJECTS/Mol_Feturizer/New_Systems/rnas/1ZZ5

>  <Rbt.Executable>
rbdock ($Id: //depot/dev/client3/rdock/2013.1/src/exe/rbdock.cxx#4 $)

>  <Rbt.Library>
libRbt.so (2013.1, Build901 2013/11/27)

>  <Rbt.Parameter_File>
/export/apps/rDock/src/rDock_2013.1_src/data/scripts/dock_solv.prm

>  <Rbt.Receptor>
prm/pocket_docking_6.prm

>  <SCORE>
-9.56665

>  <SCORE.INTER>
-9.35648

>  <SCORE.INTER.CONST>
1

>  <SCORE.INTER.POLAR>
0

>  <SCORE.INTER.ROT>
4

>  <SCORE.INTER.SOLV>
21.2947

>  <SCORE.INTER.VDW>
-19.6025

>  <SCORE.INTER.norm>
-0.228207

>  <SCORE.INTRA>
-0.212818

>  <SCORE.INTRA.DIHEDRAL>
-2.12629

>  <SCORE.INTRA.DIHEDRAL.0>
5.18357

>  <SCORE.INTRA.POLAR>
0

>  <SCORE.INTRA.POLAR.0>
0

>  <SCORE.INTRA.REPUL>
0

>  <SCORE.INTRA.REPUL.0>
0

>  <SCORE.INTRA.SOLV>
1.52335

>  <SCORE.INTRA.SOLV.lig_0>
-109.973

>  <SCORE.INTRA.VDW>
0.088651

>  <SCORE.INTRA.VDW.0>
-1.68646

>  <SCORE.INTRA.norm>
-0.00519069

>  <SCORE.RESTR>
0.00265239

>  <SCORE.RESTR.CAVITY>
0.00265239

>  <SCORE.RESTR.norm>
6.46924e-05

>  <SCORE.SYSTEM>
0

>  <SCORE.SYSTEM.CONST>
0

>  <SCORE.SYSTEM.DIHEDRAL>
0

>  <SCORE.SYSTEM.SOLV>
0

>  <SCORE.SYSTEM.norm>
0

>  <SCORE.heavy>
41

>  <SCORE.norm>
-0.233333

>  <RMSD>
9.548

$$$$
ligand
 OpenBabel11021811423D
libRbt.so/2013.1/901 2013/11/27
 41 45  0  0  0  0  0  0  0  0999 V2000
   39.0505   41.9886    7.4773 C   0  0  2  0  0  0  0  0  0  0  0  0
   39.9707   41.3941    6.5411 O   0  0  0  0  0  0  0  0  0  0  0  0
   40.7862   37.3572    5.1426 C   0  0  2  0  0  0  0  0  0  0  0  0
   41.0470   35.8949    5.1742 N   0  0  0  0  0  0  0  0  0  0  0  0
   36.6917   39.8138    4.8689 C   0  0  1  0  0  0  0  0  0  0  0  0
   32.4780   40.7071    3.7422 C   0  0  1  0  0  0  0  0  0  0  0  0
   38.4795   43.3301    6.9279 C   0  0  2  0  0  0  0  0  0  0  0  0
   37.8754   43.1927    5.5992 N   0  0  0  0  0  0  0  0  0  0  0  0
   41.8149   38.0753    6.0721 C   0  0  0  0  0  0  0  0  0  0  0  0
   35.2562   39.9530    5.4254 C   0  0  2  0  0  0  0  0  0  0  0  0
   34.4454   38.8199    5.0976 O   0  0  0  0  0  0  0  0  0  0  0  0
   32.1941   39.1580    3.5378 C   0  0  2  0  0  0  0  0  0  0  0  0
   32.7141   38.6072    2.2490 N   0  0  0  0  0  0  0  0  0  0  0  0
   39.5910   44.4135    6.8957 C   0  0  1  0  0  0  0  0  0  0  0  0
   39.0581   45.6460    6.4182 O   0  0  0  0  0  0  0  0  0  0  0  0
   41.5850   39.6145    6.0850 C   0  0  2  0  0  0  0  0  0  0  0  0
   42.5980   40.2149    6.9735 N   0  0  0  0  0  0  0  0  0  0  0  0
   34.7296   41.2626    4.8141 C   0  0  2  0  0  0  0  0  0  0  0  0
   33.9091   41.0268    3.6014 O   0  0  0  0  0  0  0  0  0  0  0  0
   30.6279   38.8754    3.6517 C   0  0  1  0  0  0  0  0  0  0  0  0
   30.1518   39.1024    4.9965 O   0  0  0  0  0  0  0  0  0  0  0  0
   40.1886   44.5900    8.3108 C   0  0  2  0  0  0  0  0  0  0  0  0
   41.1887   45.5868    8.2928 O   0  0  0  0  0  0  0  0  0  0  0  0
   40.1174   39.9355    6.5405 C   0  0  2  0  0  0  0  0  0  0  0  0
   35.9950   42.0517    4.4899 C   0  0  2  0  0  0  0  0  0  0  0  0
   37.0304   41.0924    4.3291 O   0  0  0  0  0  0  0  0  0  0  0  0
   29.7861   39.7728    2.6579 C   0  0  2  0  0  0  0  0  0  0  0  0
   30.0702   39.3756    1.3058 O   0  0  0  0  0  0  0  0  0  0  0  0
   40.7660   43.2521    8.8142 C   0  0  2  0  0  0  0  0  0  0  0  0
   39.6855   42.2414    8.7920 O   0  0  0  0  0  0  0  0  0  0  0  0
   39.0751   39.2185    5.5445 C   0  0  2  0  0  0  0  0  0  0  0  0
   37.6567   39.4485    5.9307 O   0  0  0  0  0  0  0  0  0  0  0  0
   36.4179   43.0122    5.5918 C   0  0  0  0  0  0  0  0  0  0  0  0
   30.1435   41.2983    2.8798 C   0  0  1  0  0  0  0  0  0  0  0  0
   31.6251   41.5395    2.8181 O   0  0  0  0  0  0  0  0  0  0  0  0
   41.3385   43.4351   10.2392 C   0  0  0  0  0  0  0  0  0  0  0  0
   42.5161   44.3182   10.3272 N   0  0  0  0  0  0  0  0  0  0  0  0
   39.3060   37.6925    5.5715 C   0  0  1  0  0  0  0  0  0  0  0  0
   38.3789   37.0541    4.6874 O   0  0  0  0  0  0  0  0  0  0  0  0
   29.3858   42.2673    1.8926 C   0  0  0  0  0  0  0  0  0  0  0  0
   27.8967   42.3321    2.0400 N   0  0  0  0  0  0  0  0  0  0  0  0
  1  2  1  6  0  0  0
  1  7  1  0  0  0  0
  1 30  1  0  0  0  0
  3  4  1  1  0  0  0
  3  9  1  0  0  0  0
  3 38  1  0  0  0  0
  5 10  1  0  0  0  0
  5 26  1  1  0  0  0
  5 32  1  0  0  0  0
  6 12  1  0  0  0  0
  6 35  1  0  0  0  0
  6 19  1  6  0  0  0
  7  8  1  6  0  0  0
  7 14  1  0  0  0  0
  8 33  1  0  0  0  0
  9 16  1  0  0  0  0
 10 11  1  6  0  0  0
 10 18  1  0  0  0  0
 12 13  1  6  0  0  0
 12 20  1  0  0  0  0
 14 15  1  1  0  0  0
 14 22  1  0  0  0  0
 16 17  1  1  0  0  0
 16 24  1  0  0  0  0
 18 19  1  6  0  0  0
 18 25  1  0  0  0  0
 20 21  1  1  0  0  0
 20 27  1  0  0  0  0
 22 23  1  6  0  0  0
 22 29  1  0  0  0  0
 24  2  1  6  0  0  0
 24 31  1  0  0  0  0
 25 26  1  1  0  0  0
 25 33  1  0  0  0  0
 27 28  1  6  0  0  0
 27 34  1  0  0  0  0
 29 30  1  0  0  0  0
 29 36  1  1  0  0  0
 31 32  1  1  0  0  0
 31 38  1  0  0  0  0
 34 35  1  0  0  0  0
 34 40  1  6  0  0  0
 36 37  1  0  0  0  0
 38 39  1  6  0  0  0
 40 41  1  0  0  0  0
M  END
>  <CHROM.1>
84.48447699,-102.53029388,-66.30923500,65.28756997,36.64993630,40.93584802
5.41480985,0.27958349,-0.37150574,0.32909623

>  <Name>
ligand

>  <RI>
0

>  <Rbt.Current_Directory>
/home/itssahil/PROJECTS/Mol_Feturizer/New_Systems/rnas/1ZZ5

>  <Rbt.Executable>
rbdock ($Id: //depot/dev/client3/rdock/2013.1/src/exe/rbdock.cxx#4 $)

>  <Rbt.Library>
libRbt.so (2013.1, Build901 2013/11/27)

>  <Rbt.Parameter_File>
/export/apps/rDock/src/rDock_2013.1_src/data/scripts/dock_solv.prm

>  <Rbt.Receptor>
prm/pocket_docking_5.prm

>  <SCORE>
-5.32414

>  <SCORE.INTER>
-8.15946

>  <SCORE.INTER.CONST>
1

>  <SCORE.INTER.POLAR>
0

>  <SCORE.INTER.ROT>
4

>  <SCORE.INTER.SOLV>
14.6687

>  <SCORE.INTER.VDW>
-16.5959

>  <SCORE.INTER.norm>
-0.199011

>  <SCORE.INTRA>
2.83203

>  <SCORE.INTRA.DIHEDRAL>
3.47426

>  <SCORE.INTRA.DIHEDRAL.0>
5.18357

>  <SCORE.INTRA.POLAR>
0

>  <SCORE.INTRA.POLAR.0>
0

>  <SCORE.INTRA.REPUL>
0

>  <SCORE.INTRA.REPUL.0>
0

>  <SCORE.INTRA.SOLV>
1.13024

>  <SCORE.INTRA.SOLV.lig_0>
-109.973

>  <SCORE.INTRA.VDW>
0.529785

>  <SCORE.INTRA.VDW.0>
-1.68646

>  <SCORE.INTRA.norm>
0.069074

>  <SCORE.RESTR>
0.00329251

>  <SCORE.RESTR.CAVITY>
0.00329251

>  <SCORE.RESTR.norm>
8.03052e-05

>  <SCORE.SYSTEM>
0

>  <SCORE.SYSTEM.CONST>
0

>  <SCORE.SYSTEM.DIHEDRAL>
0

>  <SCORE.SYSTEM.SOLV>
0

>  <SCORE.SYSTEM.norm>
0

>  <SCORE.heavy>
41

>  <SCORE.norm>
-0.129857

>  <RMSD>
9.554

$$$$
ligand
 OpenBabel11021811423D
libRbt.so/2013.1/901 2013/11/27
 41 45  0  0  0  0  0  0  0  0999 V2000
   43.3654   41.2937    5.2083 C   0  0  2  0  0  0  0  0  0  0  0  0
   43.2270   40.5115    6.4107 O   0  0  0  0  0  0  0  0  0  0  0  0
   42.9621   41.3915   10.6619 C   0  0  2  0  0  0  0  0  0  0  0  0
   43.2729   41.9905   11.9854 N   0  0  0  0  0  0  0  0  0  0  0  0
   40.0676   42.8606    7.1493 C   0  0  1  0  0  0  0  0  0  0  0  0
   36.2795   42.8054    4.8099 C   0  0  1  0  0  0  0  0  0  0  0  0
   42.4674   40.7308    4.0662 C   0  0  2  0  0  0  0  0  0  0  0  0
   41.0610   40.5976    4.4578 N   0  0  0  0  0  0  0  0  0  0  0  0
   44.2553   40.7302   10.0890 C   0  0  0  0  0  0  0  0  0  0  0  0
   39.6350   44.0652    6.2824 C   0  0  2  0  0  0  0  0  0  0  0  0
   38.9873   45.0767    7.0608 O   0  0  0  0  0  0  0  0  0  0  0  0
   34.7966   43.2056    5.2136 C   0  0  2  0  0  0  0  0  0  0  0  0
   34.5188   43.1187    6.6799 N   0  0  0  0  0  0  0  0  0  0  0  0
   43.0141   39.3620    3.5786 C   0  0  1  0  0  0  0  0  0  0  0  0
   42.2058   38.8637    2.5160 O   0  0  0  0  0  0  0  0  0  0  0  0
   43.9916   40.0900    8.6951 C   0  0  2  0  0  0  0  0  0  0  0  0
   45.2531   39.4822    8.2315 N   0  0  0  0  0  0  0  0  0  0  0  0
   38.7174   43.4583    5.2073 C   0  0  2  0  0  0  0  0  0  0  0  0
   37.2817   43.5847    5.5571 O   0  0  0  0  0  0  0  0  0  0  0  0
   33.7550   42.2999    4.4132 C   0  0  1  0  0  0  0  0  0  0  0  0
   33.7817   42.5967    2.9997 O   0  0  0  0  0  0  0  0  0  0  0  0
   44.4819   39.5203    3.1188 C   0  0  2  0  0  0  0  0  0  0  0  0
   44.9805   38.2823    2.6574 O   0  0  0  0  0  0  0  0  0  0  0  0
   43.4433   41.1737    7.7004 C   0  0  2  0  0  0  0  0  0  0  0  0
   39.1505   41.9966    5.1369 C   0  0  2  0  0  0  0  0  0  0  0  0
   39.7295   41.6934    6.3982 O   0  0  0  0  0  0  0  0  0  0  0  0
   34.0316   40.7554    4.6120 C   0  0  2  0  0  0  0  0  0  0  0  0
   33.7600   40.3982    5.9777 O   0  0  0  0  0  0  0  0  0  0  0  0
   45.3469   40.0549    4.2777 C   0  0  2  0  0  0  0  0  0  0  0  0
   44.7691   41.3378    4.7359 O   0  0  0  0  0  0  0  0  0  0  0  0
   42.0891   41.8125    8.2924 C   0  0  2  0  0  0  0  0  0  0  0  0
   41.5233   42.8763    7.4194 O   0  0  0  0  0  0  0  0  0  0  0  0
   40.1953   41.7175    4.0663 C   0  0  0  0  0  0  0  0  0  0  0  0
   35.5332   40.4271    4.2356 C   0  0  1  0  0  0  0  0  0  0  0  0
   36.4988   41.3210    4.9606 O   0  0  0  0  0  0  0  0  0  0  0  0
   46.8068   40.2322    3.7992 C   0  0  0  0  0  0  0  0  0  0  0  0
   47.7387   40.7410    4.8224 N   0  0  0  0  0  0  0  0  0  0  0  0
   42.3839   42.4639    9.6604 C   0  0  1  0  0  0  0  0  0  0  0  0
   41.1808   43.0332   10.1869 O   0  0  0  0  0  0  0  0  0  0  0  0
   35.9146   38.9123    4.4532 C   0  0  0  0  0  0  0  0  0  0  0  0
   35.8468   38.4072    5.8616 N   0  0  0  0  0  0  0  0  0  0  0  0
  1  2  1  1  0  0  0
  1  7  1  0  0  0  0
  1 30  1  0  0  0  0
  3  4  1  1  0  0  0
  3  9  1  0  0  0  0
  3 38  1  0  0  0  0
  5 10  1  0  0  0  0
  5 26  1  6  0  0  0
  5 32  1  0  0  0  0
  6 12  1  0  0  0  0
  6 35  1  0  0  0  0
  6 19  1  1  0  0  0
  7  8  1  1  0  0  0
  7 14  1  0  0  0  0
  8 33  1  0  0  0  0
  9 16  1  0  0  0  0
 10 11  1  1  0  0  0
 10 18  1  0  0  0  0
 12 13  1  1  0  0  0
 12 20  1  0  0  0  0
 14 15  1  6  0  0  0
 14 22  1  0  0  0  0
 16 17  1  6  0  0  0
 16 24  1  0  0  0  0
 18 19  1  1  0  0  0
 18 25  1  0  0  0  0
 20 21  1  6  0  0  0
 20 27  1  0  0  0  0
 22 23  1  1  0  0  0
 22 29  1  0  0  0  0
 24  2  1  6  0  0  0
 24 31  1  0  0  0  0
 25 26  1  1  0  0  0
 25 33  1  0  0  0  0
 27 28  1  1  0  0  0
 27 34  1  0  0  0  0
 29 30  1  0  0  0  0
 29 36  1  6  0  0  0
 31 32  1  6  0  0  0
 31 38  1  0  0  0  0
 34 35  1  0  0  0  0
 34 40  1  1  0  0  0
 36 37  1  0  0  0  0
 38 39  1  1  0  0  0
 40 41  1  0  0  0  0
M  END
>  <CHROM.1>
-166.34015344,-173.20876269,-179.99994681,-63.14547852,40.42605202,41.35257887
5.92832040,-0.06741581,0.17875933,-1.97366619

>  <Name>
ligand

>  <RI>
0

>  <Rbt.Current_Directory>
/home/itssahil/PROJECTS/Mol_Feturizer/New_Systems/rnas/1ZZ5

>  <Rbt.Executable>
rbdock ($Id: //depot/dev/client3/rdock/2013.1/src/exe/rbdock.cxx#4 $)

>  <Rbt.Library>
libRbt.so (2013.1, Build901 2013/11/27)

>  <Rbt.Parameter_File>
/export/apps/rDock/src/rDock_2013.1_src/data/scripts/dock_solv.prm

>  <Rbt.Receptor>
prm/pocket_docking_6.prm

>  <SCORE>
-15.9296

>  <SCORE.INTER>
-14.6399

>  <SCORE.INTER.CONST>
1

>  <SCORE.INTER.POLAR>
0

>  <SCORE.INTER.ROT>
4

>  <SCORE.INTER.SOLV>
15.9424

>  <SCORE.INTER.VDW>
-21.3408

>  <SCORE.INTER.norm>
-0.357071

>  <SCORE.INTRA>
-1.28969

>  <SCORE.INTRA.DIHEDRAL>
-3.81733

>  <SCORE.INTRA.DIHEDRAL.0>
5.18357

>  <SCORE.INTRA.POLAR>
0

>  <SCORE.INTRA.POLAR.0>
0

>  <SCORE.INTRA.REPUL>
0

>  <SCORE.INTRA.REPUL.0>
0

>  <SCORE.INTRA.SOLV>
0.170886

>  <SCORE.INTRA.SOLV.lig_0>
-109.973

>  <SCORE.INTRA.VDW>
0.533534

>  <SCORE.INTRA.VDW.0>
-1.68646

>  <SCORE.INTRA.norm>
-0.0314558

>  <SCORE.RESTR>
0

>  <SCORE.RESTR.CAVITY>
0

>  <SCORE.RESTR.norm>
0

>  <SCORE.SYSTEM>
0

>  <SCORE.SYSTEM.CONST>
0

>  <SCORE.SYSTEM.DIHEDRAL>
0

>  <SCORE.SYSTEM.SOLV>
0

>  <SCORE.SYSTEM.norm>
0

>  <SCORE.heavy>
41

>  <SCORE.norm>
-0.388527

>  <RMSD>
9.558

$$$$
ligand
 OpenBabel11021811423D
libRbt.so/2013.1/901 2013/11/27
 41 45  0  0  0  0  0  0  0  0999 V2000
   37.2250   41.8856    7.3181 C   0  0  2  0  0  0  0  0  0  0  0  0
   38.0531   40.7739    6.9244 O   0  0  0  0  0  0  0  0  0  0  0  0
   38.0427   36.4894    7.6733 C   0  0  2  0  0  0  0  0  0  0  0  0
   37.9671   35.2012    8.4096 N   0  0  0  0  0  0  0  0  0  0  0  0
   34.6311   39.1448    5.6277 C   0  0  1  0  0  0  0  0  0  0  0  0
   30.8853   39.6456    3.7257 C   0  0  1  0  0  0  0  0  0  0  0  0
   37.0088   42.8721    6.1316 C   0  0  2  0  0  0  0  0  0  0  0  0
   36.4852   42.2151    4.9301 N   0  0  0  0  0  0  0  0  0  0  0  0
   39.1373   37.3864    8.3332 C   0  0  0  0  0  0  0  0  0  0  0  0
   33.2272   39.7660    5.8095 C   0  0  2  0  0  0  0  0  0  0  0  0
   32.2090   38.7642    5.9012 O   0  0  0  0  0  0  0  0  0  0  0  0
   30.2331   39.0016    2.4288 C   0  0  2  0  0  0  0  0  0  0  0  0
   30.3312   39.8577    1.2072 N   0  0  0  0  0  0  0  0  0  0  0  0
   38.3338   43.6093    5.7982 C   0  0  1  0  0  0  0  0  0  0  0  0
   38.1251   44.5300    4.7305 O   0  0  0  0  0  0  0  0  0  0  0  0
   39.2570   38.7573    7.6062 C   0  0  2  0  0  0  0  0  0  0  0  0
   40.3128   39.5356    8.2810 N   0  0  0  0  0  0  0  0  0  0  0  0
   33.0515   40.6880    4.5909 C   0  0  2  0  0  0  0  0  0  0  0  0
   32.2873   40.0372    3.4992 O   0  0  0  0  0  0  0  0  0  0  0  0
   28.7049   38.6420    2.7135 C   0  0  1  0  0  0  0  0  0  0  0  0
   28.5900   37.5747    3.6801 O   0  0  0  0  0  0  0  0  0  0  0  0
   38.8536   44.3425    7.0563 C   0  0  2  0  0  0  0  0  0  0  0  0
   40.0500   45.0300    6.7559 O   0  0  0  0  0  0  0  0  0  0  0  0
   37.8697   39.4920    7.6115 C   0  0  2  0  0  0  0  0  0  0  0  0
   34.4810   41.0064    4.1618 C   0  0  2  0  0  0  0  0  0  0  0  0
   35.2844   39.9331    4.6315 O   0  0  0  0  0  0  0  0  0  0  0  0
   27.8860   39.8899    3.2366 C   0  0  2  0  0  0  0  0  0  0  0  0
   27.7795   40.8614    2.1825 O   0  0  0  0  0  0  0  0  0  0  0  0
   39.0802   43.3361    8.2020 C   0  0  2  0  0  0  0  0  0  0  0  0
   37.8054   42.6304    8.4599 O   0  0  0  0  0  0  0  0  0  0  0  0
   36.7669   38.5664    6.8907 C   0  0  2  0  0  0  0  0  0  0  0  0
   35.4121   39.1814    6.8851 O   0  0  0  0  0  0  0  0  0  0  0  0
   35.0285   42.2938    4.7602 C   0  0  0  0  0  0  0  0  0  0  0  0
   28.6068   40.5122    4.5006 C   0  0  1  0  0  0  0  0  0  0  0  0
   30.0566   40.7996    4.2314 O   0  0  0  0  0  0  0  0  0  0  0  0
   39.5764   44.0837    9.4616 C   0  0  0  0  0  0  0  0  0  0  0  0
   38.6400   45.0893    9.9966 N   0  0  0  0  0  0  0  0  0  0  0  0
   36.6483   37.2259    7.6468 C   0  0  1  0  0  0  0  0  0  0  0  0
   35.6672   36.4028    7.0076 O   0  0  0  0  0  0  0  0  0  0  0  0
   27.8850   41.7976    5.0612 C   0  0  0  0  0  0  0  0  0  0  0  0
   26.4467   41.6354    5.4464 N   0  0  0  0  0  0  0  0  0  0  0  0
  1  2  1  6  0  0  0
  1  7  1  0  0  0  0
  1 30  1  0  0  0  0
  3  4  1  1  0  0  0
  3  9  1  0  0  0  0
  3 38  1  0  0  0  0
  5 10  1  0  0  0  0
  5 26  1  6  0  0  0
  5 32  1  0  0  0  0
  6 12  1  0  0  0  0
  6 35  1  0  0  0  0
  6 19  1  6  0  0  0
  7  8  1  6  0  0  0
  7 14  1  0  0  0  0
  8 33  1  0  0  0  0
  9 16  1  0  0  0  0
 10 11  1  6  0  0  0
 10 18  1  0  0  0  0
 12 13  1  6  0  0  0
 12 20  1  0  0  0  0
 14 15  1  6  0  0  0
 14 22  1  0  0  0  0
 16 17  1  1  0  0  0
 16 24  1  0  0  0  0
 18 19  1  6  0  0  0
 18 25  1  0  0  0  0
 20 21  1  1  0  0  0
 20 27  1  0  0  0  0
 22 23  1  6  0  0  0
 22 29  1  0  0  0  0
 24  2  1  6  0  0  0
 24 31  1  0  0  0  0
 25 26  1  1  0  0  0
 25 33  1  0  0  0  0
 27 28  1  6  0  0  0
 27 34  1  0  0  0  0
 29 30  1  0  0  0  0
 29 36  1  1  0  0  0
 31 32  1  1  0  0  0
 31 38  1  0  0  0  0
 34 35  1  0  0  0  0
 34 40  1  6  0  0  0
 36 37  1  0  0  0  0
 38 39  1  6  0  0  0
 40 41  1  0  0  0  0
M  END
>  <CHROM.1>
63.45231566,178.50099140,61.24036995,56.88373140,34.70963400,40.50950077
5.82769528,0.10976475,-0.41825871,-0.11596908

>  <Name>
ligand

>  <RI>
0

>  <Rbt.Current_Directory>
/home/itssahil/PROJECTS/Mol_Feturizer/New_Systems/rnas/1ZZ5

>  <Rbt.Executable>
rbdock ($Id: //depot/dev/client3/rdock/2013.1/src/exe/rbdock.cxx#4 $)

>  <Rbt.Library>
libRbt.so (2013.1, Build901 2013/11/27)

>  <Rbt.Parameter_File>
/export/apps/rDock/src/rDock_2013.1_src/data/scripts/dock_solv.prm

>  <Rbt.Receptor>
prm/pocket_docking_7.prm

>  <SCORE>
-12.7551

>  <SCORE.INTER>
-11.4879

>  <SCORE.INTER.CONST>
1

>  <SCORE.INTER.POLAR>
0

>  <SCORE.INTER.ROT>
4

>  <SCORE.INTER.SOLV>
18.5517

>  <SCORE.INTER.VDW>
-20.1092

>  <SCORE.INTER.norm>
-0.280194

>  <SCORE.INTRA>
-1.26714

>  <SCORE.INTRA.DIHEDRAL>
-4.83404

>  <SCORE.INTRA.DIHEDRAL.0>
5.18357

>  <SCORE.INTRA.POLAR>
0

>  <SCORE.INTRA.POLAR.0>
0

>  <SCORE.INTRA.REPUL>
0

>  <SCORE.INTRA.REPUL.0>
0

>  <SCORE.INTRA.SOLV>
0.624926

>  <SCORE.INTRA.SOLV.lig_0>
-109.973

>  <SCORE.INTRA.VDW>
0.83742

>  <SCORE.INTRA.VDW.0>
-1.68646

>  <SCORE.INTRA.norm>
-0.0309058

>  <SCORE.RESTR>
0

>  <SCORE.RESTR.CAVITY>
0

>  <SCORE.RESTR.norm>
0

>  <SCORE.SYSTEM>
0

>  <SCORE.SYSTEM.CONST>
0

>  <SCORE.SYSTEM.DIHEDRAL>
0

>  <SCORE.SYSTEM.SOLV>
0

>  <SCORE.SYSTEM.norm>
0

>  <SCORE.heavy>
41

>  <SCORE.norm>
-0.3111

>  <RMSD>
9.558

$$$$
ligand
 OpenBabel11021811423D
libRbt.so/2013.1/901 2013/11/27
 41 45  0  0  0  0  0  0  0  0999 V2000
   37.9139   41.5149    6.9757 C   0  0  2  0  0  0  0  0  0  0  0  0
   38.7771   40.6376    6.2261 O   0  0  0  0  0  0  0  0  0  0  0  0
   39.1954   36.3293    5.8008 C   0  0  2  0  0  0  0  0  0  0  0  0
   39.3085   34.8946    6.1697 N   0  0  0  0  0  0  0  0  0  0  0  0
   35.3693   39.0391    4.8560 C   0  0  1  0  0  0  0  0  0  0  0  0
   31.3505   39.7338    3.4929 C   0  0  1  0  0  0  0  0  0  0  0  0
   37.4841   42.7444    6.1205 C   0  0  2  0  0  0  0  0  0  0  0  0
   36.8794   42.3664    4.8396 N   0  0  0  0  0  0  0  0  0  0  0  0
   40.2837   37.1385    6.5746 C   0  0  0  0  0  0  0  0  0  0  0  0
   33.9508   39.4380    5.3232 C   0  0  2  0  0  0  0  0  0  0  0  0
   33.0332   38.3430    5.2354 O   0  0  0  0  0  0  0  0  0  0  0  0
   30.6797   39.1862    2.1617 C   0  0  2  0  0  0  0  0  0  0  0  0
   30.7132   40.1508    1.0200 N   0  0  0  0  0  0  0  0  0  0  0  0
   38.6986   43.6806    5.8779 C   0  0  1  0  0  0  0  0  0  0  0  0
   38.2952   44.8171    5.1185 O   0  0  0  0  0  0  0  0  0  0  0  0
   40.2088   38.6550    6.2326 C   0  0  2  0  0  0  0  0  0  0  0  0
   41.2699   39.3422    6.9926 N   0  0  0  0  0  0  0  0  0  0  0  0
   33.5625   40.6182    4.4163 C   0  0  2  0  0  0  0  0  0  0  0  0
   32.7317   40.1920    3.2640 O   0  0  0  0  0  0  0  0  0  0  0  0
   29.1731   38.7504    2.4548 C   0  0  1  0  0  0  0  0  0  0  0  0
   29.1216   37.5977    3.3240 O   0  0  0  0  0  0  0  0  0  0  0  0
   39.3000   44.1167    7.2340 C   0  0  2  0  0  0  0  0  0  0  0  0
   40.3949   44.9829    7.0214 O   0  0  0  0  0  0  0  0  0  0  0  0
   38.7773   39.2101    6.5594 C   0  0  2  0  0  0  0  0  0  0  0  0
   34.9028   41.1880    3.9605 C   0  0  2  0  0  0  0  0  0  0  0  0
   35.8383   40.1228    4.0518 O   0  0  0  0  0  0  0  0  0  0  0  0
   28.3314   39.9177    3.1109 C   0  0  2  0  0  0  0  0  0  0  0  0
   28.1619   40.9752    2.1520 O   0  0  0  0  0  0  0  0  0  0  0  0
   39.7369   42.8797    8.0437 C   0  0  2  0  0  0  0  0  0  0  0  0
   38.5609   41.9987    8.2178 O   0  0  0  0  0  0  0  0  0  0  0  0
   37.6760   38.3882    5.7202 C   0  0  2  0  0  0  0  0  0  0  0  0
   36.2848   38.8347    6.0015 O   0  0  0  0  0  0  0  0  0  0  0  0
   35.4113   42.3292    4.8292 C   0  0  0  0  0  0  0  0  0  0  0  0
   29.0703   40.4491    4.4054 C   0  0  1  0  0  0  0  0  0  0  0  0
   30.5015   40.8090    4.1233 O   0  0  0  0  0  0  0  0  0  0  0  0
   40.3140   43.3269    9.4071 C   0  0  0  0  0  0  0  0  0  0  0  0
   39.3638   44.0405   10.2802 N   0  0  0  0  0  0  0  0  0  0  0  0
   37.7530   36.8935    6.0980 C   0  0  1  0  0  0  0  0  0  0  0  0
   36.7735   36.1622    5.3535 O   0  0  0  0  0  0  0  0  0  0  0  0
   28.3256   41.6537    5.0994 C   0  0  0  0  0  0  0  0  0  0  0  0
   26.9026   41.4118    5.4991 N   0  0  0  0  0  0  0  0  0  0  0  0
  1  2  1  6  0  0  0
  1  7  1  0  0  0  0
  1 30  1  0  0  0  0
  3  4  1  1  0  0  0
  3  9  1  0  0  0  0
  3 38  1  0  0  0  0
  5 10  1  0  0  0  0
  5 26  1  6  0  0  0
  5 32  1  0  0  0  0
  6 12  1  0  0  0  0
  6 35  1  0  0  0  0
  6 19  1  6  0  0  0
  7  8  1  6  0  0  0
  7 14  1  0  0  0  0
  8 33  1  0  0  0  0
  9 16  1  0  0  0  0
 10 11  1  6  0  0  0
 10 18  1  0  0  0  0
 12 13  1  6  0  0  0
 12 20  1  0  0  0  0
 14 15  1  1  0  0  0
 14 22  1  0  0  0  0
 16 17  1  1  0  0  0
 16 24  1  0  0  0  0
 18 19  1  6  0  0  0
 18 25  1  0  0  0  0
 20 21  1  1  0  0  0
 20 27  1  0  0  0  0
 22 23  1  6  0  0  0
 22 29  1  0  0  0  0
 24  2  1  6  0  0  0
 24 31  1  0  0  0  0
 25 26  1  1  0  0  0
 25 33  1  0  0  0  0
 27 28  1  6  0  0  0
 27 34  1  0  0  0  0
 29 30  1  0  0  0  0
 29 36  1  1  0  0  0
 31 32  1  1  0  0  0
 31 38  1  0  0  0  0
 34 35  1  0  0  0  0
 34 40  1  6  0  0  0
 36 37  1  0  0  0  0
 38 39  1  6  0  0  0
 40 41  1  0  0  0  0
M  END
>  <CHROM.1>
69.58231956,-174.27794707,61.92073924,56.46113852,35.35279932,40.37349959
5.34793423,0.17929056,-0.33115100,0.18996152

>  <Name>
ligand

>  <RI>
0

>  <Rbt.Current_Directory>
/home/itssahil/PROJECTS/Mol_Feturizer/New_Systems/rnas/1ZZ5

>  <Rbt.Executable>
rbdock ($Id: //depot/dev/client3/rdock/2013.1/src/exe/rbdock.cxx#4 $)

>  <Rbt.Library>
libRbt.so (2013.1, Build901 2013/11/27)

>  <Rbt.Parameter_File>
/export/apps/rDock/src/rDock_2013.1_src/data/scripts/dock_solv.prm

>  <Rbt.Receptor>
prm/pocket_docking_6.prm

>  <SCORE>
-12.5988

>  <SCORE.INTER>
-11.2077

>  <SCORE.INTER.CONST>
1

>  <SCORE.INTER.POLAR>
0

>  <SCORE.INTER.ROT>
4

>  <SCORE.INTER.SOLV>
20.2261

>  <SCORE.INTER.VDW>
-20.4805

>  <SCORE.INTER.norm>
-0.273359

>  <SCORE.INTRA>
-1.39113

>  <SCORE.INTRA.DIHEDRAL>
-4.29011

>  <SCORE.INTRA.DIHEDRAL.0>
5.18357

>  <SCORE.INTRA.POLAR>
0

>  <SCORE.INTRA.POLAR.0>
0

>  <SCORE.INTRA.REPUL>
0

>  <SCORE.INTRA.REPUL.0>
0

>  <SCORE.INTRA.SOLV>
0.478926

>  <SCORE.INTRA.SOLV.lig_0>
-109.973

>  <SCORE.INTRA.VDW>
0.514464

>  <SCORE.INTRA.VDW.0>
-1.68646

>  <SCORE.INTRA.norm>
-0.03393

>  <SCORE.RESTR>
0

>  <SCORE.RESTR.CAVITY>
0

>  <SCORE.RESTR.norm>
0

>  <SCORE.SYSTEM>
0

>  <SCORE.SYSTEM.CONST>
0

>  <SCORE.SYSTEM.DIHEDRAL>
0

>  <SCORE.SYSTEM.SOLV>
0

>  <SCORE.SYSTEM.norm>
0

>  <SCORE.heavy>
41

>  <SCORE.norm>
-0.307289

>  <RMSD>
9.576

$$$$
ligand
 OpenBabel11021811423D
libRbt.so/2013.1/901 2013/11/27
 41 45  0  0  0  0  0  0  0  0999 V2000
   37.2857   41.7749    7.1939 C   0  0  2  0  0  0  0  0  0  0  0  0
   38.1102   40.6989    6.7051 O   0  0  0  0  0  0  0  0  0  0  0  0
   38.1719   36.3779    7.1981 C   0  0  2  0  0  0  0  0  0  0  0  0
   38.1369   35.0476    7.8588 N   0  0  0  0  0  0  0  0  0  0  0  0
   34.6597   39.1063    5.4389 C   0  0  1  0  0  0  0  0  0  0  0  0
   30.8294   39.7059    3.6970 C   0  0  1  0  0  0  0  0  0  0  0  0
   37.0157   42.8269    6.0767 C   0  0  2  0  0  0  0  0  0  0  0  0
   36.4549   42.2355    4.8581 N   0  0  0  0  0  0  0  0  0  0  0  0
   39.2807   37.2480    7.8700 C   0  0  0  0  0  0  0  0  0  0  0  0
   33.2571   39.6981    5.7081 C   0  0  2  0  0  0  0  0  0  0  0  0
   32.2534   38.6800    5.7769 O   0  0  0  0  0  0  0  0  0  0  0  0
   30.1309   39.1519    2.3827 C   0  0  2  0  0  0  0  0  0  0  0  0
   30.2060   40.0808    1.2138 N   0  0  0  0  0  0  0  0  0  0  0  0
   38.3197   43.5991    5.7399 C   0  0  1  0  0  0  0  0  0  0  0  0
   38.0622   44.5784    4.7371 O   0  0  0  0  0  0  0  0  0  0  0  0
   39.3593   38.6608    7.2218 C   0  0  2  0  0  0  0  0  0  0  0  0
   40.4312   39.4111    7.9029 N   0  0  0  0  0  0  0  0  0  0  0  0
   33.0270   40.6881    4.5535 C   0  0  2  0  0  0  0  0  0  0  0  0
   32.2297   40.0933    3.4535 O   0  0  0  0  0  0  0  0  0  0  0  0
   28.6066   38.7945    2.6899 C   0  0  1  0  0  0  0  0  0  0  0  0
   28.5043   37.6708    3.5919 O   0  0  0  0  0  0  0  0  0  0  0  0
   38.8781   44.2632    7.0197 C   0  0  2  0  0  0  0  0  0  0  0  0
   40.0553   44.9822    6.7175 O   0  0  0  0  0  0  0  0  0  0  0  0
   37.9656   39.3765    7.3210 C   0  0  2  0  0  0  0  0  0  0  0  0
   34.4363   41.0491    4.0925 C   0  0  2  0  0  0  0  0  0  0  0  0
   35.2676   39.9601    4.4682 O   0  0  0  0  0  0  0  0  0  0  0  0
   27.8211   40.0177    3.3131 C   0  0  2  0  0  0  0  0  0  0  0  0
   27.6981   41.0540    2.3244 O   0  0  0  0  0  0  0  0  0  0  0  0
   39.1572   43.1939    8.0946 C   0  0  2  0  0  0  0  0  0  0  0  0
   37.9002   42.4583    8.3562 O   0  0  0  0  0  0  0  0  0  0  0  0
   36.8466   38.4813    6.5870 C   0  0  2  0  0  0  0  0  0  0  0  0
   35.4861   39.0785    6.6670 O   0  0  0  0  0  0  0  0  0  0  0  0
   34.9922   42.3058    4.7461 C   0  0  0  0  0  0  0  0  0  0  0  0
   28.5868   40.5514    4.5910 C   0  0  1  0  0  0  0  0  0  0  0  0
   30.0323   40.8367    4.2971 O   0  0  0  0  0  0  0  0  0  0  0  0
   39.6918   43.8721    9.3775 C   0  0  0  0  0  0  0  0  0  0  0  0
   41.0238   44.4905    9.2447 N   0  0  0  0  0  0  0  0  0  0  0  0
   36.7699   37.0971    7.2659 C   0  0  1  0  0  0  0  0  0  0  0  0
   35.7744   36.3009    6.6149 O   0  0  0  0  0  0  0  0  0  0  0  0
   27.9000   41.8084    5.2510 C   0  0  0  0  0  0  0  0  0  0  0  0
   27.7832   43.0284    4.3900 N   0  0  0  0  0  0  0  0  0  0  0  0
  1  2  1  6  0  0  0
  1  7  1  0  0  0  0
  1 30  1  0  0  0  0
  3  4  1  1  0  0  0
  3  9  1  0  0  0  0
  3 38  1  0  0  0  0
  5 10  1  0  0  0  0
  5 26  1  6  0  0  0
  5 32  1  0  0  0  0
  6 12  1  0  0  0  0
  6 35  1  0  0  0  0
  6 19  1  6  0  0  0
  7  8  1  6  0  0  0
  7 14  1  0  0  0  0
  8 33  1  0  0  0  0
  9 16  1  0  0  0  0
 10 11  1  6  0  0  0
 10 18  1  0  0  0  0
 12 13  1  6  0  0  0
 12 20  1  0  0  0  0
 14 15  1  6  0  0  0
 14 22  1  0  0  0  0
 16 17  1  1  0  0  0
 16 24  1  0  0  0  0
 18 19  1  6  0  0  0
 18 25  1  0  0  0  0
 20 21  1  1  0  0  0
 20 27  1  0  0  0  0
 22 23  1  6  0  0  0
 22 29  1  0  0  0  0
 24  2  1  6  0  0  0
 24 31  1  0  0  0  0
 25 26  1  1  0  0  0
 25 33  1  0  0  0  0
 27 28  1  6  0  0  0
 27 34  1  0  0  0  0
 29 30  1  0  0  0  0
 29 36  1  1  0  0  0
 31 32  1  1  0  0  0
 31 38  1  0  0  0  0
 34 35  1  0  0  0  0
 34 40  1  6  0  0  0
 36 37  1  0  0  0  0
 38 39  1  6  0  0  0
 40 41  1  0  0  0  0
M  END
>  <CHROM.1>
65.14510501,177.40554654,-67.10971686,-60.73934266,34.81744861,40.50613498
5.66123921,0.09314144,-0.39597110,-0.08744407

>  <Name>
ligand

>  <RI>
0

>  <Rbt.Current_Directory>
/home/itssahil/PROJECTS/Mol_Feturizer/New_Systems/rnas/1ZZ5

>  <Rbt.Executable>
rbdock ($Id: //depot/dev/client3/rdock/2013.1/src/exe/rbdock.cxx#4 $)

>  <Rbt.Library>
libRbt.so (2013.1, Build901 2013/11/27)

>  <Rbt.Parameter_File>
/export/apps/rDock/src/rDock_2013.1_src/data/scripts/dock_solv.prm

>  <Rbt.Receptor>
prm/pocket_docking_7.prm

>  <SCORE>
-12.506

>  <SCORE.INTER>
-11.7451

>  <SCORE.INTER.CONST>
1

>  <SCORE.INTER.POLAR>
0

>  <SCORE.INTER.ROT>
4

>  <SCORE.INTER.SOLV>
18.3836

>  <SCORE.INTER.VDW>
-20.2246

>  <SCORE.INTER.norm>
-0.286465

>  <SCORE.INTRA>
-0.760902

>  <SCORE.INTRA.DIHEDRAL>
-4.60347

>  <SCORE.INTRA.DIHEDRAL.0>
5.18357

>  <SCORE.INTRA.POLAR>
0

>  <SCORE.INTRA.POLAR.0>
0

>  <SCORE.INTRA.REPUL>
0

>  <SCORE.INTRA.REPUL.0>
0

>  <SCORE.INTRA.SOLV>
1.57749

>  <SCORE.INTRA.SOLV.lig_0>
-109.973

>  <SCORE.INTRA.VDW>
0.752089

>  <SCORE.INTRA.VDW.0>
-1.68646

>  <SCORE.INTRA.norm>
-0.0185586

>  <SCORE.RESTR>
0

>  <SCORE.RESTR.CAVITY>
0

>  <SCORE.RESTR.norm>
0

>  <SCORE.SYSTEM>
0

>  <SCORE.SYSTEM.CONST>
0

>  <SCORE.SYSTEM.DIHEDRAL>
0

>  <SCORE.SYSTEM.SOLV>
0

>  <SCORE.SYSTEM.norm>
0

>  <SCORE.heavy>
41

>  <SCORE.norm>
-0.305024

>  <RMSD>
9.576

$$$$
ligand
 OpenBabel11021811423D
libRbt.so/2013.1/901 2013/11/27
 41 45  0  0  0  0  0  0  0  0999 V2000
   37.1416   41.8810    7.2930 C   0  0  2  0  0  0  0  0  0  0  0  0
   37.9655   40.7640    6.9059 O   0  0  0  0  0  0  0  0  0  0  0  0
   37.9230   36.4801    7.6570 C   0  0  2  0  0  0  0  0  0  0  0  0
   37.8341   35.1928    8.3933 N   0  0  0  0  0  0  0  0  0  0  0  0
   34.5428   39.1555    5.5855 C   0  0  1  0  0  0  0  0  0  0  0  0
   30.8190   39.6636    3.6618 C   0  0  1  0  0  0  0  0  0  0  0  0
   36.9401   42.8682    6.1045 C   0  0  2  0  0  0  0  0  0  0  0  0
   36.4211   42.2138    4.8997 N   0  0  0  0  0  0  0  0  0  0  0  0
   39.0184   37.3706    8.3242 C   0  0  0  0  0  0  0  0  0  0  0  0
   33.1416   39.7856    5.7569 C   0  0  2  0  0  0  0  0  0  0  0  0
   32.1165   38.7902    5.8418 O   0  0  0  0  0  0  0  0  0  0  0  0
   30.1686   39.0325    2.3576 C   0  0  2  0  0  0  0  0  0  0  0  0
   30.2645   39.9024    1.1457 N   0  0  0  0  0  0  0  0  0  0  0  0
   38.2720   43.5970    5.7803 C   0  0  1  0  0  0  0  0  0  0  0  0
   38.0768   44.5183    4.7107 O   0  0  0  0  0  0  0  0  0  0  0  0
   39.1519   38.7403    7.5974 C   0  0  2  0  0  0  0  0  0  0  0  0
   40.2076   39.5123    8.2794 N   0  0  0  0  0  0  0  0  0  0  0  0
   32.9804   40.7080    4.5365 C   0  0  2  0  0  0  0  0  0  0  0  0
   32.2200   40.0613    3.4397 O   0  0  0  0  0  0  0  0  0  0  0  0
   28.6413   38.6657    2.6382 C   0  0  1  0  0  0  0  0  0  0  0  0
   28.5291   37.5874    3.5928 O   0  0  0  0  0  0  0  0  0  0  0  0
   38.7874   44.3276    7.0418 C   0  0  2  0  0  0  0  0  0  0  0  0
   39.9901   45.0075    6.7496 O   0  0  0  0  0  0  0  0  0  0  0  0
   37.7692   39.4837    7.5923 C   0  0  2  0  0  0  0  0  0  0  0  0
   34.4149   41.0172    4.1176 C   0  0  2  0  0  0  0  0  0  0  0  0
   35.2082   39.9392    4.5936 O   0  0  0  0  0  0  0  0  0  0  0  0
   27.8191   39.9055    3.1752 C   0  0  2  0  0  0  0  0  0  0  0  0
   27.7101   40.8885    2.1319 O   0  0  0  0  0  0  0  0  0  0  0  0
   38.9994   43.3204    8.1896 C   0  0  2  0  0  0  0  0  0  0  0  0
   37.7184   42.6228    8.4387 O   0  0  0  0  0  0  0  0  0  0  0  0
   36.6659   38.5645    6.8641 C   0  0  2  0  0  0  0  0  0  0  0  0
   35.3149   39.1880    6.8484 O   0  0  0  0  0  0  0  0  0  0  0  0
   34.9662   42.3016    4.7192 C   0  0  0  0  0  0  0  0  0  0  0  0
   28.5382   40.5156    4.4460 C   0  0  1  0  0  0  0  0  0  0  0  0
   29.9873   40.8097    4.1802 O   0  0  0  0  0  0  0  0  0  0  0  0
   39.4912   44.0656    9.4523 C   0  0  0  0  0  0  0  0  0  0  0  0
   38.5429   45.0530   10.0001 N   0  0  0  0  0  0  0  0  0  0  0  0
   36.5335   37.2252    7.6200 C   0  0  1  0  0  0  0  0  0  0  0  0
   35.5518   36.4079    6.9742 O   0  0  0  0  0  0  0  0  0  0  0  0
   27.8131   41.7927    5.0210 C   0  0  0  0  0  0  0  0  0  0  0  0
   26.3800   41.6181    5.4199 N   0  0  0  0  0  0  0  0  0  0  0  0
  1  2  1  6  0  0  0
  1  7  1  0  0  0  0
  1 30  1  0  0  0  0
  3  4  1  1  0  0  0
  3  9  1  0  0  0  0
  3 38  1  0  0  0  0
  5 10  1  0  0  0  0
  5 26  1  6  0  0  0
  5 32  1  0  0  0  0
  6 12  1  0  0  0  0
  6 35  1  0  0  0  0
  6 19  1  6  0  0  0
  7  8  1  6  0  0  0
  7 14  1  0  0  0  0
  8 33  1  0  0  0  0
  9 16  1  0  0  0  0
 10 11  1  6  0  0  0
 10 18  1  0  0  0  0
 12 13  1  6  0  0  0
 12 20  1  0  0  0  0
 14 15  1  6  0  0  0
 14 22  1  0  0  0  0
 16 17  1  1  0  0  0
 16 24  1  0  0  0  0
 18 19  1  6  0  0  0
 18 25  1  0  0  0  0
 20 21  1  1  0  0  0
 20 27  1  0  0  0  0
 22 23  1  6  0  0  0
 22 29  1  0  0  0  0
 24  2  1  6  0  0  0
 24 31  1  0  0  0  0
 25 26  1  1  0  0  0
 25 33  1  0  0  0  0
 27 28  1  6  0  0  0
 27 34  1  0  0  0  0
 29 30  1  0  0  0  0
 29 36  1  1  0  0  0
 31 32  1  1  0  0  0
 31 38  1  0  0  0  0
 34 35  1  0  0  0  0
 34 40  1  6  0  0  0
 36 37  1  0  0  0  0
 38 39  1  6  0  0  0
 40 41  1  0  0  0  0
M  END
>  <CHROM.1>
62.70320997,178.20041881,62.72605163,57.61000615,34.62820239,40.51099681
5.79271861,0.10559386,-0.42312045,-0.12065458

>  <Name>
ligand

>  <RI>
0

>  <Rbt.Current_Directory>
/home/itssahil/PROJECTS/Mol_Feturizer/New_Systems/rnas/1ZZ5

>  <Rbt.Executable>
rbdock ($Id: //depot/dev/client3/rdock/2013.1/src/exe/rbdock.cxx#4 $)

>  <Rbt.Library>
libRbt.so (2013.1, Build901 2013/11/27)

>  <Rbt.Parameter_File>
/export/apps/rDock/src/rDock_2013.1_src/data/scripts/dock_solv.prm

>  <Rbt.Receptor>
prm/pocket_docking_7.prm

>  <SCORE>
-12.9086

>  <SCORE.INTER>
-11.6738

>  <SCORE.INTER.CONST>
1

>  <SCORE.INTER.POLAR>
0

>  <SCORE.INTER.ROT>
4

>  <SCORE.INTER.SOLV>
18.3742

>  <SCORE.INTER.VDW>
-20.174

>  <SCORE.INTER.norm>
-0.284728

>  <SCORE.INTRA>
-1.23479

>  <SCORE.INTRA.DIHEDRAL>
-4.84574

>  <SCORE.INTRA.DIHEDRAL.0>
5.18357

>  <SCORE.INTRA.POLAR>
0

>  <SCORE.INTRA.POLAR.0>
0

>  <SCORE.INTRA.REPUL>
0

>  <SCORE.INTRA.REPUL.0>
0

>  <SCORE.INTRA.SOLV>
0.604566

>  <SCORE.INTRA.SOLV.lig_0>
-109.973

>  <SCORE.INTRA.VDW>
0.885796

>  <SCORE.INTRA.VDW.0>
-1.68646

>  <SCORE.INTRA.norm>
-0.0301169

>  <SCORE.RESTR>
0

>  <SCORE.RESTR.CAVITY>
0

>  <SCORE.RESTR.norm>
0

>  <SCORE.SYSTEM>
0

>  <SCORE.SYSTEM.CONST>
0

>  <SCORE.SYSTEM.DIHEDRAL>
0

>  <SCORE.SYSTEM.SOLV>
0

>  <SCORE.SYSTEM.norm>
0

>  <SCORE.heavy>
41

>  <SCORE.norm>
-0.314845

>  <RMSD>
9.582

$$$$
ligand
 OpenBabel11021811423D
libRbt.so/2013.1/901 2013/11/27
 41 45  0  0  0  0  0  0  0  0999 V2000
   43.3780   41.4005    5.3402 C   0  0  2  0  0  0  0  0  0  0  0  0
   43.2596   40.6611    6.5713 O   0  0  0  0  0  0  0  0  0  0  0  0
   42.9695   41.6944   10.7863 C   0  0  2  0  0  0  0  0  0  0  0  0
   43.2638   42.3513   12.0860 N   0  0  0  0  0  0  0  0  0  0  0  0
   40.0390   42.9524    7.2219 C   0  0  1  0  0  0  0  0  0  0  0  0
   36.2475   42.7585    4.8433 C   0  0  1  0  0  0  0  0  0  0  0  0
   42.4957   40.7712    4.2207 C   0  0  2  0  0  0  0  0  0  0  0  0
   41.0931   40.6159    4.6178 N   0  0  0  0  0  0  0  0  0  0  0  0
   44.2800   41.0462   10.2382 C   0  0  0  0  0  0  0  0  0  0  0  0
   39.5752   44.1114    6.3102 C   0  0  2  0  0  0  0  0  0  0  0  0
   38.9006   45.1342    7.0501 O   0  0  0  0  0  0  0  0  0  0  0  0
   34.7580   43.1880    5.1884 C   0  0  2  0  0  0  0  0  0  0  0  0
   34.4313   43.1396    6.6464 N   0  0  0  0  0  0  0  0  0  0  0  0
   43.0786   39.3998    3.7851 C   0  0  1  0  0  0  0  0  0  0  0  0
   42.2842   38.8404    2.7425 O   0  0  0  0  0  0  0  0  0  0  0  0
   44.0340   40.3470    8.8697 C   0  0  2  0  0  0  0  0  0  0  0  0
   45.3114   39.7555    8.4289 N   0  0  0  0  0  0  0  0  0  0  0  0
   38.6744   43.4401    5.2594 C   0  0  2  0  0  0  0  0  0  0  0  0
   37.2358   43.5418    5.6049 O   0  0  0  0  0  0  0  0  0  0  0  0
   33.7304   42.2777    4.3753 C   0  0  1  0  0  0  0  0  0  0  0  0
   33.8076   42.5406    2.9569 O   0  0  0  0  0  0  0  0  0  0  0  0
   44.5419   39.5793    3.3189 C   0  0  2  0  0  0  0  0  0  0  0  0
   45.0732   38.3383    2.9045 O   0  0  0  0  0  0  0  0  0  0  0  0
   43.4578   41.3773    7.8350 C   0  0  2  0  0  0  0  0  0  0  0  0
   39.1460   41.9888    5.2442 C   0  0  2  0  0  0  0  0  0  0  0  0
   39.7321   41.7490    6.5159 O   0  0  0  0  0  0  0  0  0  0  0  0
   33.9784   40.7348    4.6189 C   0  0  2  0  0  0  0  0  0  0  0  0
   33.6573   40.4137    5.9828 O   0  0  0  0  0  0  0  0  0  0  0  0
   45.3919   40.1801    4.4561 C   0  0  2  0  0  0  0  0  0  0  0  0
   44.7802   41.4637    4.8656 O   0  0  0  0  0  0  0  0  0  0  0  0
   42.0868   42.0021    8.4029 C   0  0  2  0  0  0  0  0  0  0  0  0
   41.4936   43.0167    7.4905 O   0  0  0  0  0  0  0  0  0  0  0  0
   40.1983   41.6970    4.1845 C   0  0  0  0  0  0  0  0  0  0  0  0
   35.4867   40.3775    4.3000 C   0  0  1  0  0  0  0  0  0  0  0  0
   36.4407   41.2753    5.0355 O   0  0  0  0  0  0  0  0  0  0  0  0
   46.8468   40.3776    3.9705 C   0  0  0  0  0  0  0  0  0  0  0  0
   47.6331   39.1367    3.8424 N   0  0  0  0  0  0  0  0  0  0  0  0
   42.3637   42.7125    9.7451 C   0  0  1  0  0  0  0  0  0  0  0  0
   41.1457   43.2694   10.2502 O   0  0  0  0  0  0  0  0  0  0  0  0
   35.8393   38.8633    4.5651 C   0  0  0  0  0  0  0  0  0  0  0  0
   37.2748   38.4755    4.3852 N   0  0  0  0  0  0  0  0  0  0  0  0
  1  2  1  1  0  0  0
  1  7  1  0  0  0  0
  1 30  1  0  0  0  0
  3  4  1  1  0  0  0
  3  9  1  0  0  0  0
  3 38  1  0  0  0  0
  5 10  1  0  0  0  0
  5 26  1  6  0  0  0
  5 32  1  0  0  0  0
  6 12  1  0  0  0  0
  6 35  1  0  0  0  0
  6 19  1  1  0  0  0
  7  8  1  1  0  0  0
  7 14  1  0  0  0  0
  8 33  1  0  0  0  0
  9 16  1  0  0  0  0
 10 11  1  1  0  0  0
 10 18  1  0  0  0  0
 12 13  1  1  0  0  0
 12 20  1  0  0  0  0
 14 15  1  6  0  0  0
 14 22  1  0  0  0  0
 16 17  1  6  0  0  0
 16 24  1  0  0  0  0
 18 19  1  1  0  0  0
 18 25  1  0  0  0  0
 20 21  1  6  0  0  0
 20 27  1  0  0  0  0
 22 23  1  1  0  0  0
 22 29  1  0  0  0  0
 24  2  1  6  0  0  0
 24 31  1  0  0  0  0
 25 26  1  1  0  0  0
 25 33  1  0  0  0  0
 27 28  1  1  0  0  0
 27 34  1  0  0  0  0
 29 30  1  0  0  0  0
 29 36  1  6  0  0  0
 31 32  1  6  0  0  0
 31 38  1  0  0  0  0
 34 35  1  0  0  0  0
 34 40  1  1  0  0  0
 36 37  1  0  0  0  0
 38 39  1  1  0  0  0
 40 41  1  0  0  0  0
M  END
>  <CHROM.1>
-169.36790368,-170.09572894,-73.67936311,-175.48960041,40.45275160,41.39395922
5.96311356,-0.06193699,0.19235554,-2.02990361

>  <Name>
ligand

>  <RI>
0

>  <Rbt.Current_Directory>
/home/itssahil/PROJECTS/Mol_Feturizer/New_Systems/rnas/1ZZ5

>  <Rbt.Executable>
rbdock ($Id: //depot/dev/client3/rdock/2013.1/src/exe/rbdock.cxx#4 $)

>  <Rbt.Library>
libRbt.so (2013.1, Build901 2013/11/27)

>  <Rbt.Parameter_File>
/export/apps/rDock/src/rDock_2013.1_src/data/scripts/dock_solv.prm

>  <Rbt.Receptor>
prm/pocket_docking_5.prm

>  <SCORE>
-13.4062

>  <SCORE.INTER>
-12.4712

>  <SCORE.INTER.CONST>
1

>  <SCORE.INTER.POLAR>
0

>  <SCORE.INTER.ROT>
4

>  <SCORE.INTER.SOLV>
20.4101

>  <SCORE.INTER.VDW>
-21.3842

>  <SCORE.INTER.norm>
-0.304175

>  <SCORE.INTRA>
-0.935043

>  <SCORE.INTRA.DIHEDRAL>
-3.23992

>  <SCORE.INTRA.DIHEDRAL.0>
5.18357

>  <SCORE.INTRA.POLAR>
0

>  <SCORE.INTRA.POLAR.0>
0

>  <SCORE.INTRA.REPUL>
0.0212326

>  <SCORE.INTRA.REPUL.0>
0

>  <SCORE.INTRA.SOLV>
0.253909

>  <SCORE.INTRA.SOLV.lig_0>
-109.973

>  <SCORE.INTRA.VDW>
0.4518

>  <SCORE.INTRA.VDW.0>
-1.68646

>  <SCORE.INTRA.norm>
-0.0228059

>  <SCORE.RESTR>
0

>  <SCORE.RESTR.CAVITY>
0

>  <SCORE.RESTR.norm>
0

>  <SCORE.SYSTEM>
0

>  <SCORE.SYSTEM.CONST>
0

>  <SCORE.SYSTEM.DIHEDRAL>
0

>  <SCORE.SYSTEM.SOLV>
0

>  <SCORE.SYSTEM.norm>
0

>  <SCORE.heavy>
41

>  <SCORE.norm>
-0.326981

>  <RMSD>
9.584

$$$$
ligand
 OpenBabel11021811423D
libRbt.so/2013.1/901 2013/11/27
 41 45  0  0  0  0  0  0  0  0999 V2000
   35.8303   41.4327    8.1625 C   0  0  2  0  0  0  0  0  0  0  0  0
   34.7648   41.8377    7.2808 O   0  0  0  0  0  0  0  0  0  0  0  0
   32.8565   40.1517    3.7546 C   0  0  2  0  0  0  0  0  0  0  0  0
   32.7010   39.5104    2.4235 N   0  0  0  0  0  0  0  0  0  0  0  0
   33.1783   38.2603    8.1357 C   0  0  1  0  0  0  0  0  0  0  0  0
   31.8250   36.8086   12.2943 C   0  0  1  0  0  0  0  0  0  0  0  0
   35.4827   41.7540    9.6470 C   0  0  2  0  0  0  0  0  0  0  0  0
   34.1971   41.1894   10.0682 N   0  0  0  0  0  0  0  0  0  0  0  0
   33.7807   41.4019    3.6097 C   0  0  0  0  0  0  0  0  0  0  0  0
   33.8550   37.1730    9.0014 C   0  0  2  0  0  0  0  0  0  0  0  0
   33.4628   35.8550    8.6042 O   0  0  0  0  0  0  0  0  0  0  0  0
   30.5016   35.9689   12.5505 C   0  0  2  0  0  0  0  0  0  0  0  0
   29.3741   36.3112   11.6305 N   0  0  0  0  0  0  0  0  0  0  0  0
   35.4897   43.2890    9.8798 C   0  0  1  0  0  0  0  0  0  0  0  0
   35.1980   43.5772   11.2447 O   0  0  0  0  0  0  0  0  0  0  0  0
   33.9867   42.1130    4.9787 C   0  0  2  0  0  0  0  0  0  0  0  0
   34.8579   43.2818    4.7537 N   0  0  0  0  0  0  0  0  0  0  0  0
   33.4392   37.5120   10.4430 C   0  0  2  0  0  0  0  0  0  0  0  0
   32.2737   36.7137   10.8943 O   0  0  0  0  0  0  0  0  0  0  0  0
   30.0336   36.1457   14.0655 C   0  0  1  0  0  0  0  0  0  0  0  0
   30.9708   35.5321   14.9776 O   0  0  0  0  0  0  0  0  0  0  0  0
   36.8659   43.8707    9.4820 C   0  0  2  0  0  0  0  0  0  0  0  0
   36.8855   45.2646    9.7077 O   0  0  0  0  0  0  0  0  0  0  0  0
   34.5865   41.1061    6.0230 C   0  0  2  0  0  0  0  0  0  0  0  0
   33.1116   39.0016   10.3903 C   0  0  2  0  0  0  0  0  0  0  0  0
   32.7637   39.2837    9.0422 O   0  0  0  0  0  0  0  0  0  0  0  0
   29.8617   37.6669   14.4630 C   0  0  2  0  0  0  0  0  0  0  0  0
   28.7545   38.2239   13.7347 O   0  0  0  0  0  0  0  0  0  0  0  0
   37.1678   43.5570    8.0030 C   0  0  2  0  0  0  0  0  0  0  0  0
   37.1129   42.0899    7.8182 O   0  0  0  0  0  0  0  0  0  0  0  0
   33.5977   39.8458    6.1859 C   0  0  2  0  0  0  0  0  0  0  0  0
   34.1147   38.8261    7.1382 O   0  0  0  0  0  0  0  0  0  0  0  0
   34.2803   39.9003   10.7669 C   0  0  0  0  0  0  0  0  0  0  0  0
   31.1950   38.4578   14.1453 C   0  0  1  0  0  0  0  0  0  0  0  0
   31.6487   38.2416   12.7294 O   0  0  0  0  0  0  0  0  0  0  0  0
   38.5565   44.1221    7.6236 C   0  0  0  0  0  0  0  0  0  0  0  0
   38.6716   45.5902    7.6986 N   0  0  0  0  0  0  0  0  0  0  0  0
   33.4326   39.1431    4.8215 C   0  0  1  0  0  0  0  0  0  0  0  0
   32.5547   38.0218    4.9655 O   0  0  0  0  0  0  0  0  0  0  0  0
   31.0976   39.9994   14.4636 C   0  0  0  0  0  0  0  0  0  0  0  0
   32.3558   40.7931   14.2895 N   0  0  0  0  0  0  0  0  0  0  0  0
  1  2  1  6  0  0  0
  1  7  1  0  0  0  0
  1 30  1  0  0  0  0
  3  4  1  6  0  0  0
  3  9  1  0  0  0  0
  3 38  1  0  0  0  0
  5 10  1  0  0  0  0
  5 26  1  1  0  0  0
  5 32  1  0  0  0  0
  6 12  1  0  0  0  0
  6 35  1  0  0  0  0
  6 19  1  6  0  0  0
  7  8  1  6  0  0  0
  7 14  1  0  0  0  0
  8 33  1  0  0  0  0
  9 16  1  0  0  0  0
 10 11  1  6  0  0  0
 10 18  1  0  0  0  0
 12 13  1  6  0  0  0
 12 20  1  0  0  0  0
 14 15  1  1  0  0  0
 14 22  1  0  0  0  0
 16 17  1  6  0  0  0
 16 24  1  0  0  0  0
 18 19  1  6  0  0  0
 18 25  1  0  0  0  0
 20 21  1  1  0  0  0
 20 27  1  0  0  0  0
 22 23  1  6  0  0  0
 22 29  1  0  0  0  0
 24  2  1  1  0  0  0
 24 31  1  0  0  0  0
 25 26  1  6  0  0  0
 25 33  1  0  0  0  0
 27 28  1  6  0  0  0
 27 34  1  0  0  0  0
 29 30  1  0  0  0  0
 29 36  1  1  0  0  0
 31 32  1  1  0  0  0
 31 38  1  0  0  0  0
 34 35  1  0  0  0  0
 34 40  1  6  0  0  0
 36 37  1  0  0  0  0
 38 39  1  1  0  0  0
 40 41  1  0  0  0  0
M  END
>  <CHROM.1>
173.81620376,175.57938464,-63.72118892,175.35562768,33.57207207,39.96081658
9.33723913,-0.61447743,0.91459561,1.40410882

>  <Name>
ligand

>  <RI>
0

>  <Rbt.Current_Directory>
/home/itssahil/PROJECTS/Mol_Feturizer/New_Systems/rnas/1ZZ5

>  <Rbt.Executable>
rbdock ($Id: //depot/dev/client3/rdock/2013.1/src/exe/rbdock.cxx#4 $)

>  <Rbt.Library>
libRbt.so (2013.1, Build901 2013/11/27)

>  <Rbt.Parameter_File>
/export/apps/rDock/src/rDock_2013.1_src/data/scripts/dock_solv.prm

>  <Rbt.Receptor>
prm/pocket_docking_7.prm

>  <SCORE>
-5.68128

>  <SCORE.INTER>
-3.88041

>  <SCORE.INTER.CONST>
1

>  <SCORE.INTER.POLAR>
0

>  <SCORE.INTER.ROT>
4

>  <SCORE.INTER.SOLV>
23.3002

>  <SCORE.INTER.VDW>
-16.6204

>  <SCORE.INTER.norm>
-0.0946442

>  <SCORE.INTRA>
-1.80086

>  <SCORE.INTRA.DIHEDRAL>
-4.53589

>  <SCORE.INTRA.DIHEDRAL.0>
5.18357

>  <SCORE.INTRA.POLAR>
0

>  <SCORE.INTRA.POLAR.0>
0

>  <SCORE.INTRA.REPUL>
0

>  <SCORE.INTRA.REPUL.0>
0

>  <SCORE.INTRA.SOLV>
0.338542

>  <SCORE.INTRA.SOLV.lig_0>
-109.973

>  <SCORE.INTRA.VDW>
0.297811

>  <SCORE.INTRA.VDW.0>
-1.68646

>  <SCORE.INTRA.norm>
-0.0439235

>  <SCORE.RESTR>
0

>  <SCORE.RESTR.CAVITY>
0

>  <SCORE.RESTR.norm>
0

>  <SCORE.SYSTEM>
0

>  <SCORE.SYSTEM.CONST>
0

>  <SCORE.SYSTEM.DIHEDRAL>
0

>  <SCORE.SYSTEM.SOLV>
0

>  <SCORE.SYSTEM.norm>
0

>  <SCORE.heavy>
41

>  <SCORE.norm>
-0.138568

>  <RMSD>
9.608

$$$$
ligand
 OpenBabel11021811423D
libRbt.so/2013.1/901 2013/11/27
 41 45  0  0  0  0  0  0  0  0999 V2000
   37.9746   40.2779    6.1026 C   0  0  2  0  0  0  0  0  0  0  0  0
   37.4758   40.2486    7.4542 O   0  0  0  0  0  0  0  0  0  0  0  0
   36.2206   43.2362   10.3553 C   0  0  2  0  0  0  0  0  0  0  0  0
   36.2352   44.4678   11.1862 N   0  0  0  0  0  0  0  0  0  0  0  0
   34.4308   42.4059    5.9984 C   0  0  1  0  0  0  0  0  0  0  0  0
   31.6961   43.1458    2.8769 C   0  0  1  0  0  0  0  0  0  0  0  0
   37.3510   39.1330    5.2494 C   0  0  2  0  0  0  0  0  0  0  0  0
   35.8853   39.1322    5.2780 N   0  0  0  0  0  0  0  0  0  0  0  0
   37.5592   42.4624   10.5731 C   0  0  0  0  0  0  0  0  0  0  0  0
   34.3282   42.9308    4.5480 C   0  0  2  0  0  0  0  0  0  0  0  0
   33.5886   44.1540    4.4750 O   0  0  0  0  0  0  0  0  0  0  0  0
   30.1162   43.1082    2.7197 C   0  0  2  0  0  0  0  0  0  0  0  0
   29.5941   41.8503    2.1033 N   0  0  0  0  0  0  0  0  0  0  0  0
   37.8914   37.7563    5.7215 C   0  0  1  0  0  0  0  0  0  0  0  0
   37.3394   36.7144    4.9210 O   0  0  0  0  0  0  0  0  0  0  0  0
   37.6045   41.1621    9.7192 C   0  0  2  0  0  0  0  0  0  0  0  0
   38.8892   40.4893    9.9889 N   0  0  0  0  0  0  0  0  0  0  0  0
   33.6653   41.7831    3.7673 C   0  0  2  0  0  0  0  0  0  0  0  0
   32.2027   41.9771    3.6169 O   0  0  0  0  0  0  0  0  0  0  0  0
   29.6269   44.3675    1.8710 C   0  0  1  0  0  0  0  0  0  0  0  0
   29.8366   45.5998    2.5951 O   0  0  0  0  0  0  0  0  0  0  0  0
   39.4355   37.7462    5.6401 C   0  0  2  0  0  0  0  0  0  0  0  0
   39.9334   36.4905    6.0515 O   0  0  0  0  0  0  0  0  0  0  0  0
   37.4128   41.5089    8.2002 C   0  0  2  0  0  0  0  0  0  0  0  0
   33.9837   40.5424    4.5969 C   0  0  2  0  0  0  0  0  0  0  0  0
   34.2003   40.9980    5.9249 O   0  0  0  0  0  0  0  0  0  0  0  0
   30.3635   44.4685    0.4750 C   0  0  2  0  0  0  0  0  0  0  0  0
   29.9588   43.3661   -0.3542 O   0  0  0  0  0  0  0  0  0  0  0  0
   40.0208   38.8738    6.5134 C   0  0  2  0  0  0  0  0  0  0  0  0
   39.4509   40.1603    6.0553 O   0  0  0  0  0  0  0  0  0  0  0  0
   36.0088   42.2696    7.9942 C   0  0  2  0  0  0  0  0  0  0  0  0
   35.7680   42.6633    6.5796 O   0  0  0  0  0  0  0  0  0  0  0  0
   35.2385   39.8089    4.1463 C   0  0  0  0  0  0  0  0  0  0  0  0
   31.9307   44.4584    0.6939 C   0  0  1  0  0  0  0  0  0  0  0  0
   32.3694   43.2938    1.5356 O   0  0  0  0  0  0  0  0  0  0  0  0
   41.5635   38.8693    6.4049 C   0  0  0  0  0  0  0  0  0  0  0  0
   42.2457   39.9040    7.2036 N   0  0  0  0  0  0  0  0  0  0  0  0
   36.0009   43.5679    8.8291 C   0  0  1  0  0  0  0  0  0  0  0  0
   34.7536   44.2456    8.6456 O   0  0  0  0  0  0  0  0  0  0  0  0
   32.7498   44.5044   -0.6530 C   0  0  0  0  0  0  0  0  0  0  0  0
   32.4884   43.3963   -1.6262 N   0  0  0  0  0  0  0  0  0  0  0  0
  1  2  1  1  0  0  0
  1  7  1  0  0  0  0
  1 30  1  0  0  0  0
  3  4  1  1  0  0  0
  3  9  1  0  0  0  0
  3 38  1  0  0  0  0
  5 10  1  0  0  0  0
  5 26  1  6  0  0  0
  5 32  1  0  0  0  0
  6 12  1  0  0  0  0
  6 35  1  0  0  0  0
  6 19  1  6  0  0  0
  7  8  1  1  0  0  0
  7 14  1  0  0  0  0
  8 33  1  0  0  0  0
  9 16  1  0  0  0  0
 10 11  1  1  0  0  0
 10 18  1  0  0  0  0
 12 13  1  6  0  0  0
 12 20  1  0  0  0  0
 14 15  1  6  0  0  0
 14 22  1  0  0  0  0
 16 17  1  6  0  0  0
 16 24  1  0  0  0  0
 18 19  1  1  0  0  0
 18 25  1  0  0  0  0
 20 21  1  1  0  0  0
 20 27  1  0  0  0  0
 22 23  1  1  0  0  0
 22 29  1  0  0  0  0
 24  2  1  6  0  0  0
 24 31  1  0  0  0  0
 25 26  1  1  0  0  0
 25 33  1  0  0  0  0
 27 28  1  6  0  0  0
 27 34  1  0  0  0  0
 29 30  1  0  0  0  0
 29 36  1  6  0  0  0
 31 32  1  6  0  0  0
 31 38  1  0  0  0  0
 34 35  1  0  0  0  0
 34 40  1  6  0  0  0
 36 37  1  0  0  0  0
 38 39  1  1  0  0  0
 40 41  1  0  0  0  0
M  END
>  <CHROM.1>
62.14596286,175.08120016,-179.75905992,-58.24802963,35.23879080,41.64529161
5.19669201,-0.34075014,0.69275755,-2.08799655

>  <Name>
ligand

>  <RI>
0

>  <Rbt.Current_Directory>
/home/itssahil/PROJECTS/Mol_Feturizer/New_Systems/rnas/1ZZ5

>  <Rbt.Executable>
rbdock ($Id: //depot/dev/client3/rdock/2013.1/src/exe/rbdock.cxx#4 $)

>  <Rbt.Library>
libRbt.so (2013.1, Build901 2013/11/27)

>  <Rbt.Parameter_File>
/export/apps/rDock/src/rDock_2013.1_src/data/scripts/dock_solv.prm

>  <Rbt.Receptor>
prm/pocket_docking_7.prm

>  <SCORE>
-10.0826

>  <SCORE.INTER>
-8.79828

>  <SCORE.INTER.CONST>
1

>  <SCORE.INTER.POLAR>
0

>  <SCORE.INTER.ROT>
4

>  <SCORE.INTER.SOLV>
13.4868

>  <SCORE.INTER.VDW>
-16.6278

>  <SCORE.INTER.norm>
-0.214592

>  <SCORE.INTRA>
-1.28431

>  <SCORE.INTRA.DIHEDRAL>
-4.80289

>  <SCORE.INTRA.DIHEDRAL.0>
5.18357

>  <SCORE.INTRA.POLAR>
0

>  <SCORE.INTRA.POLAR.0>
0

>  <SCORE.INTRA.REPUL>
0

>  <SCORE.INTRA.REPUL.0>
0

>  <SCORE.INTRA.SOLV>
0.47515

>  <SCORE.INTRA.SOLV.lig_0>
-109.973

>  <SCORE.INTRA.VDW>
0.879562

>  <SCORE.INTRA.VDW.0>
-1.68646

>  <SCORE.INTRA.norm>
-0.0313245

>  <SCORE.RESTR>
0

>  <SCORE.RESTR.CAVITY>
0

>  <SCORE.RESTR.norm>
0

>  <SCORE.SYSTEM>
0

>  <SCORE.SYSTEM.CONST>
0

>  <SCORE.SYSTEM.DIHEDRAL>
0

>  <SCORE.SYSTEM.SOLV>
0

>  <SCORE.SYSTEM.norm>
0

>  <SCORE.heavy>
41

>  <SCORE.norm>
-0.245917

>  <RMSD>
9.621

$$$$
ligand
 OpenBabel11021811423D
libRbt.so/2013.1/901 2013/11/27
 41 45  0  0  0  0  0  0  0  0999 V2000
   37.8459   40.0844    5.9805 C   0  0  2  0  0  0  0  0  0  0  0  0
   37.3804   40.0836    7.3443 O   0  0  0  0  0  0  0  0  0  0  0  0
   36.2555   43.1351   10.2323 C   0  0  2  0  0  0  0  0  0  0  0  0
   36.3145   44.3775   11.0448 N   0  0  0  0  0  0  0  0  0  0  0  0
   34.3422   42.2798    5.9331 C   0  0  1  0  0  0  0  0  0  0  0  0
   31.5455   43.0360    2.8792 C   0  0  1  0  0  0  0  0  0  0  0  0
   37.1792   38.9403    5.1594 C   0  0  2  0  0  0  0  0  0  0  0  0
   35.7150   38.9686    5.2240 N   0  0  0  0  0  0  0  0  0  0  0  0
   37.5839   42.3383   10.4281 C   0  0  0  0  0  0  0  0  0  0  0  0
   34.2136   42.7865    4.4783 C   0  0  2  0  0  0  0  0  0  0  0  0
   33.4961   44.0228    4.4060 O   0  0  0  0  0  0  0  0  0  0  0  0
   29.9673   42.9959    2.7057 C   0  0  2  0  0  0  0  0  0  0  0  0
   29.4547   41.7424    2.0726 N   0  0  0  0  0  0  0  0  0  0  0  0
   37.7047   37.5599    5.6376 C   0  0  1  0  0  0  0  0  0  0  0  0
   37.1129   36.5180    4.8660 O   0  0  0  0  0  0  0  0  0  0  0  0
   37.5829   41.0256    9.5921 C   0  0  2  0  0  0  0  0  0  0  0  0
   38.8608   40.3317    9.8396 N   0  0  0  0  0  0  0  0  0  0  0  0
   33.5095   41.6413    3.7307 C   0  0  2  0  0  0  0  0  0  0  0  0
   32.0476   41.8618    3.6135 O   0  0  0  0  0  0  0  0  0  0  0  0
   29.4834   44.2617    1.8636 C   0  0  1  0  0  0  0  0  0  0  0  0
   29.6826   45.4878    2.6011 O   0  0  0  0  0  0  0  0  0  0  0  0
   39.2457   37.5185    5.5184 C   0  0  2  0  0  0  0  0  0  0  0  0
   39.7295   36.2590    5.9355 O   0  0  0  0  0  0  0  0  0  0  0  0
   37.3602   41.3551    8.0735 C   0  0  2  0  0  0  0  0  0  0  0  0
   33.8245   40.4061    4.5698 C   0  0  2  0  0  0  0  0  0  0  0  0
   34.0828   40.8758    5.8854 O   0  0  0  0  0  0  0  0  0  0  0  0
   30.2337   44.3774    0.4761 C   0  0  2  0  0  0  0  0  0  0  0  0
   29.8404   43.2817   -0.3671 O   0  0  0  0  0  0  0  0  0  0  0  0
   39.8742   38.6463    6.3608 C   0  0  2  0  0  0  0  0  0  0  0  0
   39.3179   39.9373    5.8985 O   0  0  0  0  0  0  0  0  0  0  0  0
   35.9664   42.1403    7.8912 C   0  0  2  0  0  0  0  0  0  0  0  0
   35.6981   42.5190    6.4775 O   0  0  0  0  0  0  0  0  0  0  0  0
   35.0533   39.6421    4.0990 C   0  0  0  0  0  0  0  0  0  0  0  0
   31.7987   44.3692    0.7108 C   0  0  1  0  0  0  0  0  0  0  0  0
   32.2319   43.1980    1.5462 O   0  0  0  0  0  0  0  0  0  0  0  0
   41.4133   38.6101    6.2144 C   0  0  0  0  0  0  0  0  0  0  0  0
   42.1337   39.6557    6.9641 N   0  0  0  0  0  0  0  0  0  0  0  0
   36.0043   43.4499    8.7074 C   0  0  1  0  0  0  0  0  0  0  0  0
   34.7661   44.1492    8.5449 O   0  0  0  0  0  0  0  0  0  0  0  0
   32.6312   44.4296   -0.6273 C   0  0  0  0  0  0  0  0  0  0  0  0
   32.3571   43.3494   -1.6280 N   0  0  0  0  0  0  0  0  0  0  0  0
  1  2  1  1  0  0  0
  1  7  1  0  0  0  0
  1 30  1  0  0  0  0
  3  4  1  1  0  0  0
  3  9  1  0  0  0  0
  3 38  1  0  0  0  0
  5 10  1  0  0  0  0
  5 26  1  6  0  0  0
  5 32  1  0  0  0  0
  6 12  1  0  0  0  0
  6 35  1  0  0  0  0
  6 19  1  6  0  0  0
  7  8  1  1  0  0  0
  7 14  1  0  0  0  0
  8 33  1  0  0  0  0
  9 16  1  0  0  0  0
 10 11  1  1  0  0  0
 10 18  1  0  0  0  0
 12 13  1  6  0  0  0
 12 20  1  0  0  0  0
 14 15  1  6  0  0  0
 14 22  1  0  0  0  0
 16 17  1  6  0  0  0
 16 24  1  0  0  0  0
 18 19  1  1  0  0  0
 18 25  1  0  0  0  0
 20 21  1  1  0  0  0
 20 27  1  0  0  0  0
 22 23  1  1  0  0  0
 22 29  1  0  0  0  0
 24  2  1  6  0  0  0
 24 31  1  0  0  0  0
 25 26  1  1  0  0  0
 25 33  1  0  0  0  0
 27 28  1  6  0  0  0
 27 34  1  0  0  0  0
 29 30  1  0  0  0  0
 29 36  1  6  0  0  0
 31 32  1  6  0  0  0
 31 38  1  0  0  0  0
 34 35  1  0  0  0  0
 34 40  1  6  0  0  0
 36 37  1  0  0  0  0
 38 39  1  1  0  0  0
 40 41  1  0  0  0  0
M  END
>  <CHROM.1>
61.63578732,172.65856380,179.30419106,-56.73783936,35.12735976,41.50164798
5.12166743,-0.30051792,0.70040874,-2.12479841

>  <Name>
ligand

>  <RI>
0

>  <Rbt.Current_Directory>
/home/itssahil/PROJECTS/Mol_Feturizer/New_Systems/rnas/1ZZ5

>  <Rbt.Executable>
rbdock ($Id: //depot/dev/client3/rdock/2013.1/src/exe/rbdock.cxx#4 $)

>  <Rbt.Library>
libRbt.so (2013.1, Build901 2013/11/27)

>  <Rbt.Parameter_File>
/export/apps/rDock/src/rDock_2013.1_src/data/scripts/dock_solv.prm

>  <Rbt.Receptor>
prm/pocket_docking_8.prm

>  <SCORE>
-10.0445

>  <SCORE.INTER>
-8.87869

>  <SCORE.INTER.CONST>
1

>  <SCORE.INTER.POLAR>
0

>  <SCORE.INTER.ROT>
4

>  <SCORE.INTER.SOLV>
13.3588

>  <SCORE.INTER.VDW>
-16.6387

>  <SCORE.INTER.norm>
-0.216553

>  <SCORE.INTRA>
-1.16585

>  <SCORE.INTRA.DIHEDRAL>
-4.64706

>  <SCORE.INTRA.DIHEDRAL.0>
5.18357

>  <SCORE.INTRA.POLAR>
0

>  <SCORE.INTRA.POLAR.0>
0

>  <SCORE.INTRA.REPUL>
0

>  <SCORE.INTRA.REPUL.0>
0

>  <SCORE.INTRA.SOLV>
0.520711

>  <SCORE.INTRA.SOLV.lig_0>
-109.973

>  <SCORE.INTRA.VDW>
0.897323

>  <SCORE.INTRA.VDW.0>
-1.68646

>  <SCORE.INTRA.norm>
-0.0284354

>  <SCORE.RESTR>
0

>  <SCORE.RESTR.CAVITY>
0

>  <SCORE.RESTR.norm>
0

>  <SCORE.SYSTEM>
0

>  <SCORE.SYSTEM.CONST>
0

>  <SCORE.SYSTEM.DIHEDRAL>
0

>  <SCORE.SYSTEM.SOLV>
0

>  <SCORE.SYSTEM.norm>
0

>  <SCORE.heavy>
41

>  <SCORE.norm>
-0.244989

>  <RMSD>
9.636

$$$$
ligand
 OpenBabel11021811423D
libRbt.so/2013.1/901 2013/11/27
 41 45  0  0  0  0  0  0  0  0999 V2000
   35.9831   41.1916    8.1469 C   0  0  2  0  0  0  0  0  0  0  0  0
   37.2153   40.8282    7.4940 O   0  0  0  0  0  0  0  0  0  0  0  0
   38.5644   37.4733    5.0769 C   0  0  2  0  0  0  0  0  0  0  0  0
   38.7945   36.0730    4.6370 N   0  0  0  0  0  0  0  0  0  0  0  0
   34.9559   40.4886    4.2038 C   0  0  1  0  0  0  0  0  0  0  0  0
   31.7262   42.0526    1.8655 C   0  0  1  0  0  0  0  0  0  0  0  0
   35.6908   42.7136    7.9865 C   0  0  2  0  0  0  0  0  0  0  0  0
   35.7045   43.1541    6.5883 N   0  0  0  0  0  0  0  0  0  0  0  0
   39.1012   37.6414    6.5334 C   0  0  0  0  0  0  0  0  0  0  0  0
   33.4190   40.6493    4.1617 C   0  0  2  0  0  0  0  0  0  0  0  0
   32.8278   39.8510    3.1312 O   0  0  0  0  0  0  0  0  0  0  0  0
   31.5270   42.7514    0.4534 C   0  0  2  0  0  0  0  0  0  0  0  0
   31.5674   44.2451    0.5005 N   0  0  0  0  0  0  0  0  0  0  0  0
   36.7068   43.5456    8.8147 C   0  0  1  0  0  0  0  0  0  0  0  0
   36.4192   44.9355    8.6868 O   0  0  0  0  0  0  0  0  0  0  0  0
   38.8799   39.0919    7.0524 C   0  0  2  0  0  0  0  0  0  0  0  0
   39.4204   39.1685    8.4228 N   0  0  0  0  0  0  0  0  0  0  0  0
   33.1932   42.1567    3.9546 C   0  0  2  0  0  0  0  0  0  0  0  0
   32.9622   42.5000    2.5305 O   0  0  0  0  0  0  0  0  0  0  0  0
   30.1530   42.2699   -0.1994 C   0  0  1  0  0  0  0  0  0  0  0  0
   30.2034   40.8697   -0.5513 O   0  0  0  0  0  0  0  0  0  0  0  0
   36.6505   43.1115   10.2977 C   0  0  2  0  0  0  0  0  0  0  0  0
   37.5600   43.8765   11.0605 O   0  0  0  0  0  0  0  0  0  0  0  0
   37.3557   39.4611    6.9841 C   0  0  2  0  0  0  0  0  0  0  0  0
   34.4734   42.7962    4.4849 C   0  0  2  0  0  0  0  0  0  0  0  0
   35.4846   41.8037    4.3823 O   0  0  0  0  0  0  0  0  0  0  0  0
   28.9203   42.5064    0.7629 C   0  0  2  0  0  0  0  0  0  0  0  0
   28.7057   43.9194    0.9180 O   0  0  0  0  0  0  0  0  0  0  0  0
   36.9681   41.6082   10.4236 C   0  0  2  0  0  0  0  0  0  0  0  0
   36.0027   40.8576    9.5903 O   0  0  0  0  0  0  0  0  0  0  0  0
   36.8344   39.3197    5.4672 C   0  0  2  0  0  0  0  0  0  0  0  0
   35.3845   39.6217    5.3249 O   0  0  0  0  0  0  0  0  0  0  0  0
   34.3871   43.2235    5.9428 C   0  0  0  0  0  0  0  0  0  0  0  0
   29.1959   41.8251    2.1643 C   0  0  1  0  0  0  0  0  0  0  0  0
   30.5156   42.2513    2.7425 O   0  0  0  0  0  0  0  0  0  0  0  0
   36.8849   41.1807   11.9075 C   0  0  0  0  0  0  0  0  0  0  0  0
   35.5463   41.2998   12.5144 N   0  0  0  0  0  0  0  0  0  0  0  0
   37.0398   37.8671    4.9870 C   0  0  1  0  0  0  0  0  0  0  0  0
   36.5755   37.7401    3.6391 O   0  0  0  0  0  0  0  0  0  0  0  0
   28.0368   42.0543    3.2090 C   0  0  0  0  0  0  0  0  0  0  0  0
   27.7144   43.4791    3.5396 N   0  0  0  0  0  0  0  0  0  0  0  0
  1  2  1  1  0  0  0
  1  7  1  0  0  0  0
  1 30  1  0  0  0  0
  3  4  1  1  0  0  0
  3  9  1  0  0  0  0
  3 38  1  0  0  0  0
  5 10  1  0  0  0  0
  5 26  1  1  0  0  0
  5 32  1  0  0  0  0
  6 12  1  0  0  0  0
  6 35  1  0  0  0  0
  6 19  1  1  0  0  0
  7  8  1  6  0  0  0
  7 14  1  0  0  0  0
  8 33  1  0  0  0  0
  9 16  1  0  0  0  0
 10 11  1  6  0  0  0
 10 18  1  0  0  0  0
 12 13  1  1  0  0  0
 12 20  1  0  0  0  0
 14 15  1  1  0  0  0
 14 22  1  0  0  0  0
 16 17  1  1  0  0  0
 16 24  1  0  0  0  0
 18 19  1  6  0  0  0
 18 25  1  0  0  0  0
 20 21  1  1  0  0  0
 20 27  1  0  0  0  0
 22 23  1  1  0  0  0
 22 29  1  0  0  0  0
 24  2  1  6  0  0  0
 24 31  1  0  0  0  0
 25 26  1  1  0  0  0
 25 33  1  0  0  0  0
 27 28  1  1  0  0  0
 27 34  1  0  0  0  0
 29 30  1  0  0  0  0
 29 36  1  1  0  0  0
 31 32  1  1  0  0  0
 31 38  1  0  0  0  0
 34 35  1  0  0  0  0
 34 40  1  1  0  0  0
 36 37  1  0  0  0  0
 38 39  1  6  0  0  0
 40 41  1  0  0  0  0
M  END
>  <CHROM.1>
68.04381282,168.67077196,64.01533499,-58.77451501,34.49925978,41.31866813
5.35158924,0.49593866,-0.65588284,0.95712656

>  <Name>
ligand

>  <RI>
0

>  <Rbt.Current_Directory>
/home/itssahil/PROJECTS/Mol_Feturizer/New_Systems/rnas/1ZZ5

>  <Rbt.Executable>
rbdock ($Id: //depot/dev/client3/rdock/2013.1/src/exe/rbdock.cxx#4 $)

>  <Rbt.Library>
libRbt.so (2013.1, Build901 2013/11/27)

>  <Rbt.Parameter_File>
/export/apps/rDock/src/rDock_2013.1_src/data/scripts/dock_solv.prm

>  <Rbt.Receptor>
prm/pocket_docking_6.prm

>  <SCORE>
-8.7535

>  <SCORE.INTER>
-8.12943

>  <SCORE.INTER.CONST>
1

>  <SCORE.INTER.POLAR>
0

>  <SCORE.INTER.ROT>
4

>  <SCORE.INTER.SOLV>
12.9555

>  <SCORE.INTER.VDW>
-16.0048

>  <SCORE.INTER.norm>
-0.198279

>  <SCORE.INTRA>
-0.626511

>  <SCORE.INTRA.DIHEDRAL>
-3.97735

>  <SCORE.INTRA.DIHEDRAL.0>
5.18357

>  <SCORE.INTRA.POLAR>
0

>  <SCORE.INTRA.POLAR.0>
0

>  <SCORE.INTRA.REPUL>
0

>  <SCORE.INTRA.REPUL.0>
0

>  <SCORE.INTRA.SOLV>
1.77638

>  <SCORE.INTRA.SOLV.lig_0>
-109.973

>  <SCORE.INTRA.VDW>
0.473975

>  <SCORE.INTRA.VDW.0>
-1.68646

>  <SCORE.INTRA.norm>
-0.0152808

>  <SCORE.RESTR>
0.00244705

>  <SCORE.RESTR.CAVITY>
0.00244705

>  <SCORE.RESTR.norm>
5.96842e-05

>  <SCORE.SYSTEM>
0

>  <SCORE.SYSTEM.CONST>
0

>  <SCORE.SYSTEM.DIHEDRAL>
0

>  <SCORE.SYSTEM.SOLV>
0

>  <SCORE.SYSTEM.norm>
0

>  <SCORE.heavy>
41

>  <SCORE.norm>
-0.2135

>  <RMSD>
9.647

$$$$
ligand
 OpenBabel11021811423D
libRbt.so/2013.1/901 2013/11/27
 41 45  0  0  0  0  0  0  0  0999 V2000
   38.0927   41.6181    7.0019 C   0  0  2  0  0  0  0  0  0  0  0  0
   38.9005   40.7863    6.1462 O   0  0  0  0  0  0  0  0  0  0  0  0
   39.1471   36.5253    5.3092 C   0  0  2  0  0  0  0  0  0  0  0  0
   39.2179   35.0593    5.5395 N   0  0  0  0  0  0  0  0  0  0  0  0
   35.3972   39.4402    4.7460 C   0  0  1  0  0  0  0  0  0  0  0  0
   31.3102   41.0762    3.4611 C   0  0  1  0  0  0  0  0  0  0  0  0
   37.6835   42.9364    6.2791 C   0  0  2  0  0  0  0  0  0  0  0  0
   37.0278   42.7011    4.9891 N   0  0  0  0  0  0  0  0  0  0  0  0
   40.2867   37.2208    6.1188 C   0  0  0  0  0  0  0  0  0  0  0  0
   34.0087   39.8413    5.2945 C   0  0  2  0  0  0  0  0  0  0  0  0
   33.0493   38.7912    5.1356 O   0  0  0  0  0  0  0  0  0  0  0  0
   30.5746   39.9489    4.3039 C   0  0  2  0  0  0  0  0  0  0  0  0
   30.8163   38.5599    3.8068 N   0  0  0  0  0  0  0  0  0  0  0  0
   38.9240   43.8494    6.0848 C   0  0  1  0  0  0  0  0  0  0  0  0
   38.5405   45.0653    5.4478 O   0  0  0  0  0  0  0  0  0  0  0  0
   40.2578   38.7643    5.9217 C   0  0  2  0  0  0  0  0  0  0  0  0
   41.3654   39.3407    6.7070 N   0  0  0  0  0  0  0  0  0  0  0  0
   33.6376   41.1140    4.5143 C   0  0  2  0  0  0  0  0  0  0  0  0
   32.7581   40.8264    3.3553 O   0  0  0  0  0  0  0  0  0  0  0  0
   29.0066   40.2411    4.3454 C   0  0  1  0  0  0  0  0  0  0  0  0
   28.7169   41.4347    5.1060 O   0  0  0  0  0  0  0  0  0  0  0  0
   39.5808   44.1356    7.4550 C   0  0  2  0  0  0  0  0  0  0  0  0
   40.7001   44.9802    7.2880 O   0  0  0  0  0  0  0  0  0  0  0  0
   38.8579   39.3346    6.3453 C   0  0  2  0  0  0  0  0  0  0  0  0
   34.9841   41.6783    4.0697 C   0  0  2  0  0  0  0  0  0  0  0  0
   35.8819   40.5780    4.0310 O   0  0  0  0  0  0  0  0  0  0  0  0
   28.3911   40.4012    2.8973 C   0  0  2  0  0  0  0  0  0  0  0  0
   28.4476   39.1361    2.2169 O   0  0  0  0  0  0  0  0  0  0  0  0
   39.9955   42.8139    8.1317 C   0  0  2  0  0  0  0  0  0  0  0  0
   38.7934   41.9608    8.2616 O   0  0  0  0  0  0  0  0  0  0  0  0
   37.7029   38.6330    5.4700 C   0  0  2  0  0  0  0  0  0  0  0  0
   36.3380   39.0981    5.8370 O   0  0  0  0  0  0  0  0  0  0  0  0
   35.5596   42.7149    5.0234 C   0  0  0  0  0  0  0  0  0  0  0  0
   29.1913   41.5050    2.0939 C   0  0  1  0  0  0  0  0  0  0  0  0
   30.6704   41.2419    2.1057 O   0  0  0  0  0  0  0  0  0  0  0  0
   40.6286   43.1111    9.5110 C   0  0  0  0  0  0  0  0  0  0  0  0
   41.9201   43.8208    9.4621 N   0  0  0  0  0  0  0  0  0  0  0  0
   37.7358   37.1077    5.7047 C   0  0  1  0  0  0  0  0  0  0  0  0
   36.7085   36.4832    4.9280 O   0  0  0  0  0  0  0  0  0  0  0  0
   28.6773   41.6967    0.6152 C   0  0  0  0  0  0  0  0  0  0  0  0
   28.8049   40.5102   -0.2901 N   0  0  0  0  0  0  0  0  0  0  0  0
  1  2  1  6  0  0  0
  1  7  1  0  0  0  0
  1 30  1  0  0  0  0
  3  4  1  1  0  0  0
  3  9  1  0  0  0  0
  3 38  1  0  0  0  0
  5 10  1  0  0  0  0
  5 26  1  1  0  0  0
  5 32  1  0  0  0  0
  6 12  1  0  0  0  0
  6 35  1  0  0  0  0
  6 19  1  6  0  0  0
  7  8  1  6  0  0  0
  7 14  1  0  0  0  0
  8 33  1  0  0  0  0
  9 16  1  0  0  0  0
 10 11  1  6  0  0  0
 10 18  1  0  0  0  0
 12 13  1  6  0  0  0
 12 20  1  0  0  0  0
 14 15  1  1  0  0  0
 14 22  1  0  0  0  0
 16 17  1  1  0  0  0
 16 24  1  0  0  0  0
 18 19  1  6  0  0  0
 18 25  1  0  0  0  0
 20 21  1  1  0  0  0
 20 27  1  0  0  0  0
 22 23  1  6  0  0  0
 22 29  1  0  0  0  0
 24  2  1  6  0  0  0
 24 31  1  0  0  0  0
 25 26  1  1  0  0  0
 25 33  1  0  0  0  0
 27 28  1  6  0  0  0
 27 34  1  0  0  0  0
 29 30  1  0  0  0  0
 29 36  1  1  0  0  0
 31 32  1  1  0  0  0
 31 38  1  0  0  0  0
 34 35  1  0  0  0  0
 34 40  1  6  0  0  0
 36 37  1  0  0  0  0
 38 39  1  6  0  0  0
 40 41  1  0  0  0  0
M  END
>  <CHROM.1>
101.02162185,-76.63109889,-67.00713142,-62.68183242,35.54522195,40.64759491
5.13150587,0.14787890,-0.39257745,0.15366938

>  <Name>
ligand

>  <RI>
0

>  <Rbt.Current_Directory>
/home/itssahil/PROJECTS/Mol_Feturizer/New_Systems/rnas/1ZZ5

>  <Rbt.Executable>
rbdock ($Id: //depot/dev/client3/rdock/2013.1/src/exe/rbdock.cxx#4 $)

>  <Rbt.Library>
libRbt.so (2013.1, Build901 2013/11/27)

>  <Rbt.Parameter_File>
/export/apps/rDock/src/rDock_2013.1_src/data/scripts/dock_solv.prm

>  <Rbt.Receptor>
prm/pocket_docking_6.prm

>  <SCORE>
-6.45643

>  <SCORE.INTER>
-9.49876

>  <SCORE.INTER.CONST>
1

>  <SCORE.INTER.POLAR>
0

>  <SCORE.INTER.ROT>
4

>  <SCORE.INTER.SOLV>
15.4074

>  <SCORE.INTER.VDW>
-17.735

>  <SCORE.INTER.norm>
-0.231677

>  <SCORE.INTRA>
3.04233

>  <SCORE.INTRA.DIHEDRAL>
1.99809

>  <SCORE.INTRA.DIHEDRAL.0>
5.18357

>  <SCORE.INTRA.POLAR>
0

>  <SCORE.INTRA.POLAR.0>
0

>  <SCORE.INTRA.REPUL>
0

>  <SCORE.INTRA.REPUL.0>
0

>  <SCORE.INTRA.SOLV>
3.282

>  <SCORE.INTRA.SOLV.lig_0>
-109.973

>  <SCORE.INTRA.VDW>
0.402288

>  <SCORE.INTRA.VDW.0>
-1.68646

>  <SCORE.INTRA.norm>
0.0742033

>  <SCORE.RESTR>
0

>  <SCORE.RESTR.CAVITY>
0

>  <SCORE.RESTR.norm>
0

>  <SCORE.SYSTEM>
0

>  <SCORE.SYSTEM.CONST>
0

>  <SCORE.SYSTEM.DIHEDRAL>
0

>  <SCORE.SYSTEM.SOLV>
0

>  <SCORE.SYSTEM.norm>
0

>  <SCORE.heavy>
41

>  <SCORE.norm>
-0.157474

>  <RMSD>
9.658

$$$$
ligand
 OpenBabel11021811423D
libRbt.so/2013.1/901 2013/11/27
 41 45  0  0  0  0  0  0  0  0999 V2000
   38.1929   41.8597    7.0460 C   0  0  2  0  0  0  0  0  0  0  0  0
   39.0187   41.0844    6.1552 O   0  0  0  0  0  0  0  0  0  0  0  0
   39.3759   36.8679    5.1498 C   0  0  2  0  0  0  0  0  0  0  0  0
   39.4874   35.3964    5.3217 N   0  0  0  0  0  0  0  0  0  0  0  0
   35.5462   39.6999    4.7162 C   0  0  1  0  0  0  0  0  0  0  0  0
   31.4126   41.2920    3.5065 C   0  0  1  0  0  0  0  0  0  0  0  0
   37.7448   43.1938    6.3774 C   0  0  2  0  0  0  0  0  0  0  0  0
   37.0895   42.9918    5.0816 N   0  0  0  0  0  0  0  0  0  0  0  0
   40.5004   37.5617    5.9818 C   0  0  0  0  0  0  0  0  0  0  0  0
   34.1501   40.0413    5.2853 C   0  0  2  0  0  0  0  0  0  0  0  0
   33.2185   38.9726    5.0887 O   0  0  0  0  0  0  0  0  0  0  0  0
   30.7048   40.1608    4.3676 C   0  0  2  0  0  0  0  0  0  0  0  0
   30.9681   38.7711    3.8838 N   0  0  0  0  0  0  0  0  0  0  0  0
   38.9593   44.1471    6.2146 C   0  0  1  0  0  0  0  0  0  0  0  0
   38.5401   45.3762    5.6275 O   0  0  0  0  0  0  0  0  0  0  0  0
   40.4288   39.1104    5.8459 C   0  0  2  0  0  0  0  0  0  0  0  0
   41.5243   39.6853    6.6492 N   0  0  0  0  0  0  0  0  0  0  0  0
   33.7410   41.3332    4.5573 C   0  0  2  0  0  0  0  0  0  0  0  0
   32.8640   41.0676    3.3912 O   0  0  0  0  0  0  0  0  0  0  0  0
   29.1321   40.4247    4.4192 C   0  0  1  0  0  0  0  0  0  0  0  0
   28.8267   41.6211    5.1689 O   0  0  0  0  0  0  0  0  0  0  0  0
   39.6147   44.3968    7.5925 C   0  0  2  0  0  0  0  0  0  0  0  0
   40.7101   45.2774    7.4548 O   0  0  0  0  0  0  0  0  0  0  0  0
   39.0162   39.6254    6.2970 C   0  0  2  0  0  0  0  0  0  0  0  0
   35.0696   41.9508    4.1303 C   0  0  2  0  0  0  0  0  0  0  0  0
   35.9966   40.8777    4.0448 O   0  0  0  0  0  0  0  0  0  0  0  0
   28.5019   40.5573    2.9746 C   0  0  2  0  0  0  0  0  0  0  0  0
   28.5763   39.2860    2.3077 O   0  0  0  0  0  0  0  0  0  0  0  0
   40.0682   43.0612    8.2150 C   0  0  2  0  0  0  0  0  0  0  0  0
   38.8902   42.1714    8.3157 O   0  0  0  0  0  0  0  0  0  0  0  0
   37.8762   38.9277    5.3990 C   0  0  2  0  0  0  0  0  0  0  0  0
   36.5011   39.3408    5.7892 O   0  0  0  0  0  0  0  0  0  0  0  0
   35.6216   42.9644    5.1220 C   0  0  0  0  0  0  0  0  0  0  0  0
   29.2750   41.6666    2.1524 C   0  0  1  0  0  0  0  0  0  0  0  0
   30.7588   41.4308    2.1547 O   0  0  0  0  0  0  0  0  0  0  0  0
   40.6997   43.3210    9.6026 C   0  0  0  0  0  0  0  0  0  0  0  0
   41.2094   42.1192   10.2882 N   0  0  0  0  0  0  0  0  0  0  0  0
   37.9514   37.3958    5.5733 C   0  0  1  0  0  0  0  0  0  0  0  0
   36.9375   36.7747    4.7764 O   0  0  0  0  0  0  0  0  0  0  0  0
   28.7455   41.8323    0.6761 C   0  0  0  0  0  0  0  0  0  0  0  0
   27.3220   42.2740    0.5279 N   0  0  0  0  0  0  0  0  0  0  0  0
  1  2  1  6  0  0  0
  1  7  1  0  0  0  0
  1 30  1  0  0  0  0
  3  4  1  1  0  0  0
  3  9  1  0  0  0  0
  3 38  1  0  0  0  0
  5 10  1  0  0  0  0
  5 26  1  1  0  0  0
  5 32  1  0  0  0  0
  6 12  1  0  0  0  0
  6 35  1  0  0  0  0
  6 19  1  6  0  0  0
  7  8  1  6  0  0  0
  7 14  1  0  0  0  0
  8 33  1  0  0  0  0
  9 16  1  0  0  0  0
 10 11  1  6  0  0  0
 10 18  1  0  0  0  0
 12 13  1  6  0  0  0
 12 20  1  0  0  0  0
 14 15  1  1  0  0  0
 14 22  1  0  0  0  0
 16 17  1  1  0  0  0
 16 24  1  0  0  0  0
 18 19  1  6  0  0  0
 18 25  1  0  0  0  0
 20 21  1  1  0  0  0
 20 27  1  0  0  0  0
 22 23  1  6  0  0  0
 22 29  1  0  0  0  0
 24  2  1  6  0  0  0
 24 31  1  0  0  0  0
 25 26  1  1  0  0  0
 25 33  1  0  0  0  0
 27 28  1  6  0  0  0
 27 34  1  0  0  0  0
 29 30  1  0  0  0  0
 29 36  1  1  0  0  0
 31 32  1  1  0  0  0
 31 38  1  0  0  0  0
 34 35  1  0  0  0  0
 34 40  1  6  0  0  0
 36 37  1  0  0  0  0
 38 39  1  6  0  0  0
 40 41  1  0  0  0  0
M  END
>  <CHROM.1>
101.88541752,-74.21244713,-178.39243237,62.39969850,35.60585508,40.88704862
5.19168681,0.12402171,-0.38542984,0.19060296

>  <Name>
ligand

>  <RI>
0

>  <Rbt.Current_Directory>
/home/itssahil/PROJECTS/Mol_Feturizer/New_Systems/rnas/1ZZ5

>  <Rbt.Executable>
rbdock ($Id: //depot/dev/client3/rdock/2013.1/src/exe/rbdock.cxx#4 $)

>  <Rbt.Library>
libRbt.so (2013.1, Build901 2013/11/27)

>  <Rbt.Parameter_File>
/export/apps/rDock/src/rDock_2013.1_src/data/scripts/dock_solv.prm

>  <Rbt.Receptor>
prm/pocket_docking_6.prm

>  <SCORE>
-7.78195

>  <SCORE.INTER>
-9.56828

>  <SCORE.INTER.CONST>
1

>  <SCORE.INTER.POLAR>
0

>  <SCORE.INTER.ROT>
4

>  <SCORE.INTER.SOLV>
14.1286

>  <SCORE.INTER.VDW>
-17.355

>  <SCORE.INTER.norm>
-0.233373

>  <SCORE.INTRA>
1.78632

>  <SCORE.INTRA.DIHEDRAL>
1.6277

>  <SCORE.INTRA.DIHEDRAL.0>
5.18357

>  <SCORE.INTRA.POLAR>
0

>  <SCORE.INTRA.POLAR.0>
0

>  <SCORE.INTRA.REPUL>
0

>  <SCORE.INTRA.REPUL.0>
0

>  <SCORE.INTRA.SOLV>
0.91114

>  <SCORE.INTRA.SOLV.lig_0>
-109.973

>  <SCORE.INTRA.VDW>
0.516901

>  <SCORE.INTRA.VDW.0>
-1.68646

>  <SCORE.INTRA.norm>
0.0435688

>  <SCORE.RESTR>
0

>  <SCORE.RESTR.CAVITY>
0

>  <SCORE.RESTR.norm>
0

>  <SCORE.SYSTEM>
0

>  <SCORE.SYSTEM.CONST>
0

>  <SCORE.SYSTEM.DIHEDRAL>
0

>  <SCORE.SYSTEM.SOLV>
0

>  <SCORE.SYSTEM.norm>
0

>  <SCORE.heavy>
41

>  <SCORE.norm>
-0.189804

>  <RMSD>
9.688

$$$$
ligand
 OpenBabel11021811423D
libRbt.so/2013.1/901 2013/11/27
 41 45  0  0  0  0  0  0  0  0999 V2000
   37.7958   40.1379    6.0549 C   0  0  2  0  0  0  0  0  0  0  0  0
   37.3098   40.1517    7.4114 O   0  0  0  0  0  0  0  0  0  0  0  0
   36.1140   43.2324   10.2393 C   0  0  2  0  0  0  0  0  0  0  0  0
   36.1496   44.4864   11.0352 N   0  0  0  0  0  0  0  0  0  0  0  0
   34.2738   42.3003    5.9242 C   0  0  1  0  0  0  0  0  0  0  0  0
   31.5166   42.9100    2.7102 C   0  0  1  0  0  0  0  0  0  0  0  0
   37.1520   38.9765    5.2399 C   0  0  2  0  0  0  0  0  0  0  0  0
   35.6867   38.9923    5.2821 N   0  0  0  0  0  0  0  0  0  0  0  0
   37.4464   42.4506   10.4662 C   0  0  0  0  0  0  0  0  0  0  0  0
   34.1628   42.7857    4.4607 C   0  0  2  0  0  0  0  0  0  0  0  0
   33.4354   44.0143    4.3604 O   0  0  0  0  0  0  0  0  0  0  0  0
   29.9296   42.9360    2.6547 C   0  0  2  0  0  0  0  0  0  0  0  0
   29.3115   41.6349    2.2550 N   0  0  0  0  0  0  0  0  0  0  0  0
   37.6824   37.6077    5.7452 C   0  0  1  0  0  0  0  0  0  0  0  0
   37.1118   36.5499    4.9794 O   0  0  0  0  0  0  0  0  0  0  0  0
   37.4698   41.1265    9.6486 C   0  0  2  0  0  0  0  0  0  0  0  0
   38.7499   40.4477    9.9251 N   0  0  0  0  0  0  0  0  0  0  0  0
   33.4803   41.6239    3.7187 C   0  0  2  0  0  0  0  0  0  0  0  0
   32.0185   41.8293    3.5765 O   0  0  0  0  0  0  0  0  0  0  0  0
   29.4417   44.0903    1.6672 C   0  0  1  0  0  0  0  0  0  0  0  0
   29.7544   45.3978    2.1957 O   0  0  0  0  0  0  0  0  0  0  0  0
   39.2254   37.5787    5.6498 C   0  0  2  0  0  0  0  0  0  0  0  0
   39.7141   36.3296    6.0916 O   0  0  0  0  0  0  0  0  0  0  0  0
   37.2672   41.4329    8.1224 C   0  0  2  0  0  0  0  0  0  0  0  0
   33.7937   40.4034    4.5796 C   0  0  2  0  0  0  0  0  0  0  0  0
   34.0278   40.8934    5.8922 O   0  0  0  0  0  0  0  0  0  0  0  0
   30.0871   43.9574    0.2293 C   0  0  2  0  0  0  0  0  0  0  0  0
   29.5789   42.7742   -0.4097 O   0  0  0  0  0  0  0  0  0  0  0  0
   39.8309   38.7238    6.4857 C   0  0  2  0  0  0  0  0  0  0  0  0
   39.2703   40.0031    5.9972 O   0  0  0  0  0  0  0  0  0  0  0  0
   35.8693   42.2027    7.9082 C   0  0  2  0  0  0  0  0  0  0  0  0
   35.6192   42.5594    6.4855 O   0  0  0  0  0  0  0  0  0  0  0  0
   35.0362   39.6441    4.1380 C   0  0  0  0  0  0  0  0  0  0  0  0
   31.6635   43.8933    0.3533 C   0  0  1  0  0  0  0  0  0  0  0  0
   32.1047   42.8345    1.3236 O   0  0  0  0  0  0  0  0  0  0  0  0
   41.3724   38.6996    6.3630 C   0  0  0  0  0  0  0  0  0  0  0  0
   42.0721   39.7603    7.1110 N   0  0  0  0  0  0  0  0  0  0  0  0
   35.8831   43.5238    8.7066 C   0  0  1  0  0  0  0  0  0  0  0  0
   34.6414   44.2095    8.5158 O   0  0  0  0  0  0  0  0  0  0  0  0
   32.3920   43.7083   -1.0332 C   0  0  0  0  0  0  0  0  0  0  0  0
   32.2674   44.8420   -2.0041 N   0  0  0  0  0  0  0  0  0  0  0  0
  1  2  1  1  0  0  0
  1  7  1  0  0  0  0
  1 30  1  0  0  0  0
  3  4  1  1  0  0  0
  3  9  1  0  0  0  0
  3 38  1  0  0  0  0
  5 10  1  0  0  0  0
  5 26  1  6  0  0  0
  5 32  1  0  0  0  0
  6 12  1  0  0  0  0
  6 35  1  0  0  0  0
  6 19  1  1  0  0  0
  7  8  1  1  0  0  0
  7 14  1  0  0  0  0
  8 33  1  0  0  0  0
  9 16  1  0  0  0  0
 10 11  1  1  0  0  0
 10 18  1  0  0  0  0
 12 13  1  6  0  0  0
 12 20  1  0  0  0  0
 14 15  1  6  0  0  0
 14 22  1  0  0  0  0
 16 17  1  6  0  0  0
 16 24  1  0  0  0  0
 18 19  1  1  0  0  0
 18 25  1  0  0  0  0
 20 21  1  1  0  0  0
 20 27  1  0  0  0  0
 22 23  1  1  0  0  0
 22 29  1  0  0  0  0
 24  2  1  6  0  0  0
 24 31  1  0  0  0  0
 25 26  1  1  0  0  0
 25 33  1  0  0  0  0
 27 28  1  1  0  0  0
 27 34  1  0  0  0  0
 29 30  1  0  0  0  0
 29 36  1  6  0  0  0
 31 32  1  6  0  0  0
 31 38  1  0  0  0  0
 34 35  1  0  0  0  0
 34 40  1  6  0  0  0
 36 37  1  0  0  0  0
 38 39  1  1  0  0  0
 40 41  1  0  0  0  0
M  END
>  <CHROM.1>
67.62126068,178.17289303,179.42333384,65.64074316,35.05111325,41.50054991
5.10120756,-0.34097672,0.69912933,-2.12056378

>  <Name>
ligand

>  <RI>
0

>  <Rbt.Current_Directory>
/home/itssahil/PROJECTS/Mol_Feturizer/New_Systems/rnas/1ZZ5

>  <Rbt.Executable>
rbdock ($Id: //depot/dev/client3/rdock/2013.1/src/exe/rbdock.cxx#4 $)

>  <Rbt.Library>
libRbt.so (2013.1, Build901 2013/11/27)

>  <Rbt.Parameter_File>
/export/apps/rDock/src/rDock_2013.1_src/data/scripts/dock_solv.prm

>  <Rbt.Receptor>
prm/pocket_docking_7.prm

>  <SCORE>
-11.9103

>  <SCORE.INTER>
-9.79537

>  <SCORE.INTER.CONST>
1

>  <SCORE.INTER.POLAR>
0

>  <SCORE.INTER.ROT>
4

>  <SCORE.INTER.SOLV>
9.79912

>  <SCORE.INTER.VDW>
-16.0633

>  <SCORE.INTER.norm>
-0.238911

>  <SCORE.INTRA>
-2.11493

>  <SCORE.INTRA.DIHEDRAL>
-4.55337

>  <SCORE.INTRA.DIHEDRAL.0>
5.18357

>  <SCORE.INTRA.POLAR>
0

>  <SCORE.INTRA.POLAR.0>
0

>  <SCORE.INTRA.REPUL>
0

>  <SCORE.INTRA.REPUL.0>
0

>  <SCORE.INTRA.SOLV>
-0.968532

>  <SCORE.INTRA.SOLV.lig_0>
-109.973

>  <SCORE.INTRA.VDW>
0.646025

>  <SCORE.INTRA.VDW.0>
-1.68646

>  <SCORE.INTRA.norm>
-0.0515836

>  <SCORE.RESTR>
0

>  <SCORE.RESTR.CAVITY>
0

>  <SCORE.RESTR.norm>
0

>  <SCORE.SYSTEM>
0

>  <SCORE.SYSTEM.CONST>
0

>  <SCORE.SYSTEM.DIHEDRAL>
0

>  <SCORE.SYSTEM.SOLV>
0

>  <SCORE.SYSTEM.norm>
0

>  <SCORE.heavy>
41

>  <SCORE.norm>
-0.290495

>  <RMSD>
9.697

$$$$
ligand
 OpenBabel11021811423D
libRbt.so/2013.1/901 2013/11/27
 41 45  0  0  0  0  0  0  0  0999 V2000
   38.1656   41.8273    7.0345 C   0  0  2  0  0  0  0  0  0  0  0  0
   38.9834   41.0509    6.1374 O   0  0  0  0  0  0  0  0  0  0  0  0
   39.2828   36.8422    5.0817 C   0  0  2  0  0  0  0  0  0  0  0  0
   39.3720   35.3672    5.2361 N   0  0  0  0  0  0  0  0  0  0  0  0
   35.4969   39.7353    4.6682 C   0  0  1  0  0  0  0  0  0  0  0  0
   31.3860   41.3558    3.4762 C   0  0  1  0  0  0  0  0  0  0  0  0
   37.7398   43.1759    6.3805 C   0  0  2  0  0  0  0  0  0  0  0  0
   37.0868   42.9994    5.0798 N   0  0  0  0  0  0  0  0  0  0  0  0
   40.4140   37.5091    5.9265 C   0  0  0  0  0  0  0  0  0  0  0  0
   34.1036   40.0903    5.2361 C   0  0  2  0  0  0  0  0  0  0  0  0
   33.1572   39.0379    5.0229 O   0  0  0  0  0  0  0  0  0  0  0  0
   30.6874   40.1461    4.2317 C   0  0  2  0  0  0  0  0  0  0  0  0
   30.9687   38.8068    3.6300 N   0  0  0  0  0  0  0  0  0  0  0  0
   38.9688   44.1132    6.2340 C   0  0  1  0  0  0  0  0  0  0  0  0
   38.5700   45.3554    5.6605 O   0  0  0  0  0  0  0  0  0  0  0  0
   40.3657   39.0603    5.8093 C   0  0  2  0  0  0  0  0  0  0  0  0
   41.4663   39.6091    6.6237 N   0  0  0  0  0  0  0  0  0  0  0  0
   33.7165   41.3968    4.5224 C   0  0  2  0  0  0  0  0  0  0  0  0
   32.8403   41.1585    3.3498 O   0  0  0  0  0  0  0  0  0  0  0  0
   29.1116   40.3871    4.2974 C   0  0  1  0  0  0  0  0  0  0  0  0
   28.7890   41.5101    5.1469 O   0  0  0  0  0  0  0  0  0  0  0  0
   39.6223   44.3364    7.6174 C   0  0  2  0  0  0  0  0  0  0  0  0
   40.7310   45.2024    7.4946 O   0  0  0  0  0  0  0  0  0  0  0  0
   38.9589   39.5905    6.2612 C   0  0  2  0  0  0  0  0  0  0  0  0
   35.0557   42.0000    4.1081 C   0  0  2  0  0  0  0  0  0  0  0  0
   35.9671   40.9145    4.0130 O   0  0  0  0  0  0  0  0  0  0  0  0
   28.4863   40.6381    2.8665 C   0  0  2  0  0  0  0  0  0  0  0  0
   28.5783   39.4308    2.0917 O   0  0  0  0  0  0  0  0  0  0  0  0
   40.0536   42.9868    8.2252 C   0  0  2  0  0  0  0  0  0  0  0  0
   38.8623   42.1132    8.3105 O   0  0  0  0  0  0  0  0  0  0  0  0
   37.8125   38.9207    5.3504 C   0  0  2  0  0  0  0  0  0  0  0  0
   36.4420   39.3491    5.7404 O   0  0  0  0  0  0  0  0  0  0  0  0
   35.6185   42.9931    5.1143 C   0  0  0  0  0  0  0  0  0  0  0  0
   29.2503   41.8234    2.1483 C   0  0  1  0  0  0  0  0  0  0  0  0
   30.7366   41.6048    2.1381 O   0  0  0  0  0  0  0  0  0  0  0  0
   40.6832   43.2203    9.6183 C   0  0  0  0  0  0  0  0  0  0  0  0
   41.1414   41.9990   10.3059 N   0  0  0  0  0  0  0  0  0  0  0  0
   37.8645   37.3858    5.5062 C   0  0  1  0  0  0  0  0  0  0  0  0
   36.8448   36.7895    4.6979 O   0  0  0  0  0  0  0  0  0  0  0  0
   28.7255   42.1114    0.6892 C   0  0  0  0  0  0  0  0  0  0  0  0
   27.3083   42.5825    0.5752 N   0  0  0  0  0  0  0  0  0  0  0  0
  1  2  1  6  0  0  0
  1  7  1  0  0  0  0
  1 30  1  0  0  0  0
  3  4  1  1  0  0  0
  3  9  1  0  0  0  0
  3 38  1  0  0  0  0
  5 10  1  0  0  0  0
  5 26  1  1  0  0  0
  5 32  1  0  0  0  0
  6 12  1  0  0  0  0
  6 35  1  0  0  0  0
  6 19  1  6  0  0  0
  7  8  1  6  0  0  0
  7 14  1  0  0  0  0
  8 33  1  0  0  0  0
  9 16  1  0  0  0  0
 10 11  1  6  0  0  0
 10 18  1  0  0  0  0
 12 13  1  6  0  0  0
 12 20  1  0  0  0  0
 14 15  1  1  0  0  0
 14 22  1  0  0  0  0
 16 17  1  1  0  0  0
 16 24  1  0  0  0  0
 18 19  1  6  0  0  0
 18 25  1  0  0  0  0
 20 21  1  1  0  0  0
 20 27  1  0  0  0  0
 22 23  1  6  0  0  0
 22 29  1  0  0  0  0
 24  2  1  6  0  0  0
 24 31  1  0  0  0  0
 25 26  1  1  0  0  0
 25 33  1  0  0  0  0
 27 28  1  6  0  0  0
 27 34  1  0  0  0  0
 29 30  1  0  0  0  0
 29 36  1  1  0  0  0
 31 32  1  1  0  0  0
 31 38  1  0  0  0  0
 34 35  1  0  0  0  0
 34 40  1  6  0  0  0
 36 37  1  0  0  0  0
 38 39  1  6  0  0  0
 40 41  1  0  0  0  0
M  END
>  <CHROM.1>
99.67924548,-77.25133408,-179.87940163,63.92629425,35.57307274,40.90260489
5.15338594,0.11179618,-0.39315871,0.19288745

>  <Name>
ligand

>  <RI>
0

>  <Rbt.Current_Directory>
/home/itssahil/PROJECTS/Mol_Feturizer/New_Systems/rnas/1ZZ5

>  <Rbt.Executable>
rbdock ($Id: //depot/dev/client3/rdock/2013.1/src/exe/rbdock.cxx#4 $)

>  <Rbt.Library>
libRbt.so (2013.1, Build901 2013/11/27)

>  <Rbt.Parameter_File>
/export/apps/rDock/src/rDock_2013.1_src/data/scripts/dock_solv.prm

>  <Rbt.Receptor>
prm/pocket_docking_7.prm

>  <SCORE>
-7.93683

>  <SCORE.INTER>
-9.69469

>  <SCORE.INTER.CONST>
1

>  <SCORE.INTER.POLAR>
0

>  <SCORE.INTER.ROT>
4

>  <SCORE.INTER.SOLV>
13.8835

>  <SCORE.INTER.VDW>
-17.3576

>  <SCORE.INTER.norm>
-0.236456

>  <SCORE.INTRA>
1.75785

>  <SCORE.INTRA.DIHEDRAL>
1.71177

>  <SCORE.INTRA.DIHEDRAL.0>
5.18357

>  <SCORE.INTRA.POLAR>
0

>  <SCORE.INTRA.POLAR.0>
0

>  <SCORE.INTRA.REPUL>
0

>  <SCORE.INTRA.REPUL.0>
0

>  <SCORE.INTRA.SOLV>
0.820345

>  <SCORE.INTRA.SOLV.lig_0>
-109.973

>  <SCORE.INTRA.VDW>
0.491797

>  <SCORE.INTRA.VDW.0>
-1.68646

>  <SCORE.INTRA.norm>
0.0428745

>  <SCORE.RESTR>
0

>  <SCORE.RESTR.CAVITY>
0

>  <SCORE.RESTR.norm>
0

>  <SCORE.SYSTEM>
0

>  <SCORE.SYSTEM.CONST>
0

>  <SCORE.SYSTEM.DIHEDRAL>
0

>  <SCORE.SYSTEM.SOLV>
0

>  <SCORE.SYSTEM.norm>
0

>  <SCORE.heavy>
41

>  <SCORE.norm>
-0.193581

>  <RMSD>
9.698

$$$$
ligand
 OpenBabel11021811423D
libRbt.so/2013.1/901 2013/11/27
 41 45  0  0  0  0  0  0  0  0999 V2000
   43.9800   41.7267    5.6095 C   0  0  2  0  0  0  0  0  0  0  0  0
   43.8650   40.9592    6.8237 O   0  0  0  0  0  0  0  0  0  0  0  0
   43.5028   41.8975   11.0553 C   0  0  2  0  0  0  0  0  0  0  0  0
   43.7669   42.5338   12.3716 N   0  0  0  0  0  0  0  0  0  0  0  0
   40.5844   43.1612    7.4830 C   0  0  1  0  0  0  0  0  0  0  0  0
   36.8484   42.7995    5.1788 C   0  0  1  0  0  0  0  0  0  0  0  0
   43.1255   41.1006    4.4669 C   0  0  2  0  0  0  0  0  0  0  0  0
   41.7225   40.9045    4.8441 N   0  0  0  0  0  0  0  0  0  0  0  0
   44.8343   41.2914   10.5095 C   0  0  0  0  0  0  0  0  0  0  0  0
   40.1039   44.3279    6.5899 C   0  0  2  0  0  0  0  0  0  0  0  0
   39.3973   45.3192    7.3426 O   0  0  0  0  0  0  0  0  0  0  0  0
   35.3467   43.0589    5.6257 C   0  0  2  0  0  0  0  0  0  0  0  0
   35.1345   43.0182    7.1049 N   0  0  0  0  0  0  0  0  0  0  0  0
   43.7452   39.7524    4.0101 C   0  0  1  0  0  0  0  0  0  0  0  0
   42.9760   39.1966    2.9469 O   0  0  0  0  0  0  0  0  0  0  0  0
   44.6203   40.6153    9.1242 C   0  0  2  0  0  0  0  0  0  0  0  0
   45.9161   40.0629    8.6864 N   0  0  0  0  0  0  0  0  0  0  0  0
   39.2312   43.6579    5.5149 C   0  0  2  0  0  0  0  0  0  0  0  0
   37.7867   43.7190    5.8454 O   0  0  0  0  0  0  0  0  0  0  0  0
   34.3811   42.0071    4.9137 C   0  0  1  0  0  0  0  0  0  0  0  0
   34.3229   42.2320    3.4879 O   0  0  0  0  0  0  0  0  0  0  0  0
   45.2091   39.9754    3.5651 C   0  0  2  0  0  0  0  0  0  0  0  0
   45.7741   38.7560    3.1316 O   0  0  0  0  0  0  0  0  0  0  0  0
   44.0320   41.6533    8.1040 C   0  0  2  0  0  0  0  0  0  0  0  0
   39.7368   42.2186    5.4755 C   0  0  2  0  0  0  0  0  0  0  0  0
   40.3139   41.9659    6.7488 O   0  0  0  0  0  0  0  0  0  0  0  0
   34.8315   40.5133    5.1730 C   0  0  2  0  0  0  0  0  0  0  0  0
   34.6513   40.1997    6.5643 O   0  0  0  0  0  0  0  0  0  0  0  0
   46.0318   40.5719    4.7244 C   0  0  2  0  0  0  0  0  0  0  0  0
   45.3856   41.8322    5.1530 O   0  0  0  0  0  0  0  0  0  0  0  0
   42.6404   42.2342    8.6684 C   0  0  2  0  0  0  0  0  0  0  0  0
   42.0340   43.2536    7.7701 O   0  0  0  0  0  0  0  0  0  0  0  0
   40.8076   41.9733    4.4226 C   0  0  0  0  0  0  0  0  0  0  0  0
   36.3450   40.3287    4.7492 C   0  0  1  0  0  0  0  0  0  0  0  0
   37.2336   41.3569    5.3897 O   0  0  0  0  0  0  0  0  0  0  0  0
   47.4872   40.8131    4.2603 C   0  0  0  0  0  0  0  0  0  0  0  0
   48.3525   41.4812    5.2498 N   0  0  0  0  0  0  0  0  0  0  0  0
   42.8852   42.9227   10.0281 C   0  0  1  0  0  0  0  0  0  0  0  0
   41.6489   43.4406   10.5301 O   0  0  0  0  0  0  0  0  0  0  0  0
   36.8971   38.8766    5.0214 C   0  0  0  0  0  0  0  0  0  0  0  0
   36.3925   37.7950    4.1165 N   0  0  0  0  0  0  0  0  0  0  0  0
  1  2  1  1  0  0  0
  1  7  1  0  0  0  0
  1 30  1  0  0  0  0
  3  4  1  1  0  0  0
  3  9  1  0  0  0  0
  3 38  1  0  0  0  0
  5 10  1  0  0  0  0
  5 26  1  6  0  0  0
  5 32  1  0  0  0  0
  6 12  1  0  0  0  0
  6 35  1  0  0  0  0
  6 19  1  1  0  0  0
  7  8  1  1  0  0  0
  7 14  1  0  0  0  0
  8 33  1  0  0  0  0
  9 16  1  0  0  0  0
 10 11  1  1  0  0  0
 10 18  1  0  0  0  0
 12 13  1  1  0  0  0
 12 20  1  0  0  0  0
 14 15  1  6  0  0  0
 14 22  1  0  0  0  0
 16 17  1  6  0  0  0
 16 24  1  0  0  0  0
 18 19  1  1  0  0  0
 18 25  1  0  0  0  0
 20 21  1  6  0  0  0
 20 27  1  0  0  0  0
 22 23  1  1  0  0  0
 22 29  1  0  0  0  0
 24  2  1  6  0  0  0
 24 31  1  0  0  0  0
 25 26  1  1  0  0  0
 25 33  1  0  0  0  0
 27 28  1  1  0  0  0
 27 34  1  0  0  0  0
 29 30  1  0  0  0  0
 29 36  1  6  0  0  0
 31 32  1  6  0  0  0
 31 38  1  0  0  0  0
 34 35  1  0  0  0  0
 34 40  1  1  0  0  0
 36 37  1  0  0  0  0
 38 39  1  1  0  0  0
 40 41  1  0  0  0  0
M  END
>  <CHROM.1>
-161.31848503,-177.82618778,175.45135764,72.21801913,41.05022109,41.60094904
6.28800809,-0.10342720,0.12268570,-2.02876764

>  <Name>
ligand

>  <RI>
0

>  <Rbt.Current_Directory>
/home/itssahil/PROJECTS/Mol_Feturizer/New_Systems/rnas/1ZZ5

>  <Rbt.Executable>
rbdock ($Id: //depot/dev/client3/rdock/2013.1/src/exe/rbdock.cxx#4 $)

>  <Rbt.Library>
libRbt.so (2013.1, Build901 2013/11/27)

>  <Rbt.Parameter_File>
/export/apps/rDock/src/rDock_2013.1_src/data/scripts/dock_solv.prm

>  <Rbt.Receptor>
prm/pocket_docking_5.prm

>  <SCORE>
-10.2096

>  <SCORE.INTER>
-9.3425

>  <SCORE.INTER.CONST>
1

>  <SCORE.INTER.POLAR>
0

>  <SCORE.INTER.ROT>
4

>  <SCORE.INTER.SOLV>
14.7154

>  <SCORE.INTER.VDW>
-17.4001

>  <SCORE.INTER.norm>
-0.227866

>  <SCORE.INTRA>
-0.867151

>  <SCORE.INTRA.DIHEDRAL>
-2.80361

>  <SCORE.INTRA.DIHEDRAL.0>
5.18357

>  <SCORE.INTRA.POLAR>
0

>  <SCORE.INTRA.POLAR.0>
0

>  <SCORE.INTRA.REPUL>
0

>  <SCORE.INTRA.REPUL.0>
0

>  <SCORE.INTRA.SOLV>
-1.16113

>  <SCORE.INTRA.SOLV.lig_0>
-109.973

>  <SCORE.INTRA.VDW>
1.11522

>  <SCORE.INTRA.VDW.0>
-1.68646

>  <SCORE.INTRA.norm>
-0.02115

>  <SCORE.RESTR>
0

>  <SCORE.RESTR.CAVITY>
0

>  <SCORE.RESTR.norm>
0

>  <SCORE.SYSTEM>
0

>  <SCORE.SYSTEM.CONST>
0

>  <SCORE.SYSTEM.DIHEDRAL>
0

>  <SCORE.SYSTEM.SOLV>
0

>  <SCORE.SYSTEM.norm>
0

>  <SCORE.heavy>
41

>  <SCORE.norm>
-0.249016

>  <RMSD>
9.808

$$$$
ligand
 OpenBabel11021811423D
libRbt.so/2013.1/901 2013/11/27
 41 45  0  0  0  0  0  0  0  0999 V2000
   42.4295   42.6010    6.2258 C   0  0  2  0  0  0  0  0  0  0  0  0
   43.1596   43.5413    5.4138 O   0  0  0  0  0  0  0  0  0  0  0  0
   47.0460   45.4785    5.6594 C   0  0  2  0  0  0  0  0  0  0  0  0
   48.2050   46.2157    6.2256 N   0  0  0  0  0  0  0  0  0  0  0  0
   46.0773   40.7979    5.4908 C   0  0  1  0  0  0  0  0  0  0  0  0
   45.8418   36.4861    3.8364 C   0  0  1  0  0  0  0  0  0  0  0  0
   41.6940   41.5492    5.3423 C   0  0  2  0  0  0  0  0  0  0  0  0
   42.5889   40.8637    4.4052 N   0  0  0  0  0  0  0  0  0  0  0  0
   45.7492   46.3157    5.8948 C   0  0  0  0  0  0  0  0  0  0  0  0
   46.0366   39.4810    6.2994 C   0  0  2  0  0  0  0  0  0  0  0  0
   47.3448   39.0620    6.7017 O   0  0  0  0  0  0  0  0  0  0  0  0
   47.0215   35.4919    3.4594 C   0  0  2  0  0  0  0  0  0  0  0  0
   48.1705   36.1453    2.7610 N   0  0  0  0  0  0  0  0  0  0  0  0
   40.5279   42.2203    4.5675 C   0  0  1  0  0  0  0  0  0  0  0  0
   39.8412   41.2497    3.7818 O   0  0  0  0  0  0  0  0  0  0  0  0
   44.4965   45.5873    5.3271 C   0  0  2  0  0  0  0  0  0  0  0  0
   43.3227   46.4441    5.5800 N   0  0  0  0  0  0  0  0  0  0  0  0
   45.3470   38.4737    5.3636 C   0  0  2  0  0  0  0  0  0  0  0  0
   46.3215   37.6336    4.6259 O   0  0  0  0  0  0  0  0  0  0  0  0
   46.4569   34.2968    2.5658 C   0  0  1  0  0  0  0  0  0  0  0  0
   45.5689   33.4488    3.3269 O   0  0  0  0  0  0  0  0  0  0  0  0
   39.5601   42.8975    5.5653 C   0  0  2  0  0  0  0  0  0  0  0  0
   38.4872   43.4953    4.8685 O   0  0  0  0  0  0  0  0  0  0  0  0
   44.3580   44.1667    5.9807 C   0  0  2  0  0  0  0  0  0  0  0  0
   44.5325   39.3502    4.4163 C   0  0  2  0  0  0  0  0  0  0  0  0
   45.1732   40.6180    4.3995 O   0  0  0  0  0  0  0  0  0  0  0  0
   45.6860   34.8202    1.2878 C   0  0  2  0  0  0  0  0  0  0  0  0
   46.6210   35.4517    0.3971 O   0  0  0  0  0  0  0  0  0  0  0  0
   40.3130   43.9482    6.4056 C   0  0  2  0  0  0  0  0  0  0  0  0
   41.4362   43.2748    7.0945 O   0  0  0  0  0  0  0  0  0  0  0  0
   45.6888   43.3080    5.6908 C   0  0  2  0  0  0  0  0  0  0  0  0
   45.6486   41.9552    6.3089 O   0  0  0  0  0  0  0  0  0  0  0  0
   43.0932   39.5622    4.8622 C   0  0  0  0  0  0  0  0  0  0  0  0
   44.5542   35.8368    1.7237 C   0  0  1  0  0  0  0  0  0  0  0  0
   45.0930   36.9283    2.6044 O   0  0  0  0  0  0  0  0  0  0  0  0
   39.3410   44.6010    7.4159 C   0  0  0  0  0  0  0  0  0  0  0  0
   39.9392   45.6451    8.2681 N   0  0  0  0  0  0  0  0  0  0  0  0
   46.9111   44.0381    6.2873 C   0  0  1  0  0  0  0  0  0  0  0  0
   48.0945   43.2748    6.0312 O   0  0  0  0  0  0  0  0  0  0  0  0
   43.7639   36.4516    0.5052 C   0  0  0  0  0  0  0  0  0  0  0  0
   44.5690   37.2534   -0.4706 N   0  0  0  0  0  0  0  0  0  0  0  0
  1  2  1  6  0  0  0
  1  7  1  0  0  0  0
  1 30  1  0  0  0  0
  3  4  1  1  0  0  0
  3  9  1  0  0  0  0
  3 38  1  0  0  0  0
  5 10  1  0  0  0  0
  5 26  1  6  0  0  0
  5 32  1  0  0  0  0
  6 12  1  0  0  0  0
  6 35  1  0  0  0  0
  6 19  1  6  0  0  0
  7  8  1  6  0  0  0
  7 14  1  0  0  0  0
  8 33  1  0  0  0  0
  9 16  1  0  0  0  0
 10 11  1  6  0  0  0
 10 18  1  0  0  0  0
 12 13  1  6  0  0  0
 12 20  1  0  0  0  0
 14 15  1  1  0  0  0
 14 22  1  0  0  0  0
 16 17  1  1  0  0  0
 16 24  1  0  0  0  0
 18 19  1  6  0  0  0
 18 25  1  0  0  0  0
 20 21  1  1  0  0  0
 20 27  1  0  0  0  0
 22 23  1  6  0  0  0
 22 29  1  0  0  0  0
 24  2  1  6  0  0  0
 24 31  1  0  0  0  0
 25 26  1  1  0  0  0
 25 33  1  0  0  0  0
 27 28  1  6  0  0  0
 27 34  1  0  0  0  0
 29 30  1  0  0  0  0
 29 36  1  1  0  0  0
 31 32  1  1  0  0  0
 31 38  1  0  0  0  0
 34 35  1  0  0  0  0
 34 40  1  6  0  0  0
 36 37  1  0  0  0  0
 38 39  1  6  0  0  0
 40 41  1  0  0  0  0
M  END
>  <CHROM.1>
171.09228601,-164.26084198,-179.03414327,-61.31353031,44.29442750,40.71296576
4.68842841,1.90717857,-0.06913559,0.43506032

>  <Name>
ligand

>  <RI>
0

>  <Rbt.Current_Directory>
/home/itssahil/PROJECTS/Mol_Feturizer/New_Systems/rnas/1ZZ5

>  <Rbt.Executable>
rbdock ($Id: //depot/dev/client3/rdock/2013.1/src/exe/rbdock.cxx#4 $)

>  <Rbt.Library>
libRbt.so (2013.1, Build901 2013/11/27)

>  <Rbt.Parameter_File>
/export/apps/rDock/src/rDock_2013.1_src/data/scripts/dock_solv.prm

>  <Rbt.Receptor>
prm/pocket_docking_8.prm

>  <SCORE>
-7.49131

>  <SCORE.INTER>
-5.79322

>  <SCORE.INTER.CONST>
1

>  <SCORE.INTER.POLAR>
0

>  <SCORE.INTER.ROT>
4

>  <SCORE.INTER.SOLV>
16.6505

>  <SCORE.INTER.VDW>
-15.679

>  <SCORE.INTER.norm>
-0.141298

>  <SCORE.INTRA>
-1.701

>  <SCORE.INTRA.DIHEDRAL>
-3.4306

>  <SCORE.INTRA.DIHEDRAL.0>
5.18357

>  <SCORE.INTRA.POLAR>
0

>  <SCORE.INTRA.POLAR.0>
0

>  <SCORE.INTRA.REPUL>
0

>  <SCORE.INTRA.REPUL.0>
0

>  <SCORE.INTRA.SOLV>
-5.00484e-05

>  <SCORE.INTRA.SOLV.lig_0>
-109.973

>  <SCORE.INTRA.VDW>
0.0143249

>  <SCORE.INTRA.VDW.0>
-1.68646

>  <SCORE.INTRA.norm>
-0.0414878

>  <SCORE.RESTR>
0.00290363

>  <SCORE.RESTR.CAVITY>
0.00290363

>  <SCORE.RESTR.norm>
7.08203e-05

>  <SCORE.SYSTEM>
0

>  <SCORE.SYSTEM.CONST>
0

>  <SCORE.SYSTEM.DIHEDRAL>
0

>  <SCORE.SYSTEM.SOLV>
0

>  <SCORE.SYSTEM.norm>
0

>  <SCORE.heavy>
41

>  <SCORE.norm>
-0.182715

>  <RMSD>
9.809

$$$$
ligand
 OpenBabel11021811423D
libRbt.so/2013.1/901 2013/11/27
 41 45  0  0  0  0  0  0  0  0999 V2000
   40.4526   41.0142    4.1166 C   0  0  2  0  0  0  0  0  0  0  0  0
   40.8749   41.3997    5.4393 O   0  0  0  0  0  0  0  0  0  0  0  0
   40.8519   45.0888    7.7431 C   0  0  2  0  0  0  0  0  0  0  0  0
   41.0346   46.5235    8.0829 N   0  0  0  0  0  0  0  0  0  0  0  0
   37.1288   42.7565    5.8528 C   0  0  1  0  0  0  0  0  0  0  0  0
   32.8914   40.8844    5.0287 C   0  0  1  0  0  0  0  0  0  0  0  0
   39.7681   39.6145    4.1317 C   0  0  2  0  0  0  0  0  0  0  0  0
   38.6632   39.5289    5.0914 N   0  0  0  0  0  0  0  0  0  0  0  0
   42.2048   44.5177    7.2125 C   0  0  0  0  0  0  0  0  0  0  0  0
   36.0598   42.7666    4.7361 C   0  0  2  0  0  0  0  0  0  0  0  0
   35.1346   43.8472    4.8938 O   0  0  0  0  0  0  0  0  0  0  0  0
   32.9384   39.3023    4.8987 C   0  0  2  0  0  0  0  0  0  0  0  0
   34.1235   38.7868    4.1472 N   0  0  0  0  0  0  0  0  0  0  0  0
   40.8157   38.5079    4.4288 C   0  0  1  0  0  0  0  0  0  0  0  0
   40.1905   37.2273    4.4149 O   0  0  0  0  0  0  0  0  0  0  0  0
   42.0722   43.0144    6.8321 C   0  0  2  0  0  0  0  0  0  0  0  0
   43.3884   42.5522    6.3526 N   0  0  0  0  0  0  0  0  0  0  0  0
   35.3888   41.3857    4.8305 C   0  0  2  0  0  0  0  0  0  0  0  0
   34.1304   41.4247    5.6144 O   0  0  0  0  0  0  0  0  0  0  0  0
   31.5962   38.7756    4.2155 C   0  0  1  0  0  0  0  0  0  0  0  0
   30.4551   38.9815    5.0770 O   0  0  0  0  0  0  0  0  0  0  0  0
   41.9522   38.5710    3.3823 C   0  0  2  0  0  0  0  0  0  0  0  0
   42.9003   37.5556    3.6360 O   0  0  0  0  0  0  0  0  0  0  0  0
   40.9407   42.8285    5.7600 C   0  0  2  0  0  0  0  0  0  0  0  0
   36.4419   40.5106    5.5043 C   0  0  2  0  0  0  0  0  0  0  0  0
   37.2727   41.3911    6.2478 O   0  0  0  0  0  0  0  0  0  0  0  0
   31.3170   39.4806    2.8275 C   0  0  2  0  0  0  0  0  0  0  0  0
   32.3203   39.0755    1.8810 O   0  0  0  0  0  0  0  0  0  0  0  0
   42.6236   39.9585    3.4103 C   0  0  2  0  0  0  0  0  0  0  0  0
   41.5851   40.9828    3.1617 O   0  0  0  0  0  0  0  0  0  0  0  0
   39.5480   43.3869    6.3440 C   0  0  2  0  0  0  0  0  0  0  0  0
   38.4284   43.2764    5.3703 O   0  0  0  0  0  0  0  0  0  0  0  0
   37.3263   39.7520    4.5257 C   0  0  0  0  0  0  0  0  0  0  0  0
   31.3250   41.0521    3.0134 C   0  0  1  0  0  0  0  0  0  0  0  0
   32.5732   41.5266    3.7019 O   0  0  0  0  0  0  0  0  0  0  0  0
   43.7417   40.0177    2.3435 C   0  0  0  0  0  0  0  0  0  0  0  0
   44.8931   39.1331    2.6002 N   0  0  0  0  0  0  0  0  0  0  0  0
   39.6986   44.8844    6.6869 C   0  0  1  0  0  0  0  0  0  0  0  0
   38.4606   45.3821    7.2049 O   0  0  0  0  0  0  0  0  0  0  0  0
   31.1047   41.8415    1.6660 C   0  0  0  0  0  0  0  0  0  0  0  0
   30.9345   43.3247    1.7867 N   0  0  0  0  0  0  0  0  0  0  0  0
  1  2  1  1  0  0  0
  1  7  1  0  0  0  0
  1 30  1  0  0  0  0
  3  4  1  6  0  0  0
  3  9  1  0  0  0  0
  3 38  1  0  0  0  0
  5 10  1  0  0  0  0
  5 26  1  6  0  0  0
  5 32  1  0  0  0  0
  6 12  1  0  0  0  0
  6 35  1  0  0  0  0
  6 19  1  6  0  0  0
  7  8  1  1  0  0  0
  7 14  1  0  0  0  0
  8 33  1  0  0  0  0
  9 16  1  0  0  0  0
 10 11  1  1  0  0  0
 10 18  1  0  0  0  0
 12 13  1  6  0  0  0
 12 20  1  0  0  0  0
 14 15  1  6  0  0  0
 14 22  1  0  0  0  0
 16 17  1  6  0  0  0
 16 24  1  0  0  0  0
 18 19  1  1  0  0  0
 18 25  1  0  0  0  0
 20 21  1  1  0  0  0
 20 27  1  0  0  0  0
 22 23  1  1  0  0  0
 22 29  1  0  0  0  0
 24  2  1  1  0  0  0
 24 31  1  0  0  0  0
 25 26  1  6  0  0  0
 25 33  1  0  0  0  0
 27 28  1  6  0  0  0
 27 34  1  0  0  0  0
 29 30  1  0  0  0  0
 29 36  1  6  0  0  0
 31 32  1  6  0  0  0
 31 38  1  0  0  0  0
 34 35  1  0  0  0  0
 34 40  1  6  0  0  0
 36 37  1  0  0  0  0
 38 39  1  1  0  0  0
 40 41  1  0  0  0  0
M  END
>  <CHROM.1>
127.03145394,69.77900507,-66.63242641,172.85095971,37.67302237,41.25397745
4.72928995,-0.15308655,0.07926756,-2.63712304

>  <Name>
ligand

>  <RI>
0

>  <Rbt.Current_Directory>
/home/itssahil/PROJECTS/Mol_Feturizer/New_Systems/rnas/1ZZ5

>  <Rbt.Executable>
rbdock ($Id: //depot/dev/client3/rdock/2013.1/src/exe/rbdock.cxx#4 $)

>  <Rbt.Library>
libRbt.so (2013.1, Build901 2013/11/27)

>  <Rbt.Parameter_File>
/export/apps/rDock/src/rDock_2013.1_src/data/scripts/dock_solv.prm

>  <Rbt.Receptor>
prm/pocket_docking_8.prm

>  <SCORE>
-11.4048

>  <SCORE.INTER>
-13.8281

>  <SCORE.INTER.CONST>
1

>  <SCORE.INTER.POLAR>
0

>  <SCORE.INTER.ROT>
4

>  <SCORE.INTER.SOLV>
17.9906

>  <SCORE.INTER.VDW>
-21.4823

>  <SCORE.INTER.norm>
-0.337271

>  <SCORE.INTRA>
2.42332

>  <SCORE.INTRA.DIHEDRAL>
2.71718

>  <SCORE.INTRA.DIHEDRAL.0>
5.18357

>  <SCORE.INTRA.POLAR>
0

>  <SCORE.INTRA.POLAR.0>
0

>  <SCORE.INTRA.REPUL>
0

>  <SCORE.INTRA.REPUL.0>
0

>  <SCORE.INTRA.SOLV>
2.06283

>  <SCORE.INTRA.SOLV.lig_0>
-109.973

>  <SCORE.INTRA.VDW>
0.0333198

>  <SCORE.INTRA.VDW.0>
-1.68646

>  <SCORE.INTRA.norm>
0.0591055

>  <SCORE.RESTR>
0

>  <SCORE.RESTR.CAVITY>
0

>  <SCORE.RESTR.norm>
0

>  <SCORE.SYSTEM>
0

>  <SCORE.SYSTEM.CONST>
0

>  <SCORE.SYSTEM.DIHEDRAL>
0

>  <SCORE.SYSTEM.SOLV>
0

>  <SCORE.SYSTEM.norm>
0

>  <SCORE.heavy>
41

>  <SCORE.norm>
-0.278166

>  <RMSD>
9.811

$$$$
ligand
 OpenBabel11021811423D
libRbt.so/2013.1/901 2013/11/27
 41 45  0  0  0  0  0  0  0  0999 V2000
   37.5248   42.5550    8.2231 C   0  0  2  0  0  0  0  0  0  0  0  0
   38.4005   43.2316    7.3001 O   0  0  0  0  0  0  0  0  0  0  0  0
   41.3658   41.9889    4.3709 C   0  0  2  0  0  0  0  0  0  0  0  0
   42.5210   41.2721    3.7716 N   0  0  0  0  0  0  0  0  0  0  0  0
   36.7170   40.8764    4.5316 C   0  0  1  0  0  0  0  0  0  0  0  0
   32.2015   40.6197    3.3894 C   0  0  1  0  0  0  0  0  0  0  0  0
   36.1206   43.2291    8.2611 C   0  0  2  0  0  0  0  0  0  0  0  0
   35.5083   43.3495    6.9346 N   0  0  0  0  0  0  0  0  0  0  0  0
   41.8280   42.6774    5.6939 C   0  0  0  0  0  0  0  0  0  0  0  0
   35.6895   39.7587    4.8227 C   0  0  2  0  0  0  0  0  0  0  0  0
   35.7768   38.6934    3.8707 O   0  0  0  0  0  0  0  0  0  0  0  0
   31.3397   39.6290    4.2827 C   0  0  2  0  0  0  0  0  0  0  0  0
   31.5949   38.1817    4.0089 N   0  0  0  0  0  0  0  0  0  0  0  0
   36.2139   44.6265    8.9310 C   0  0  1  0  0  0  0  0  0  0  0  0
   34.9231   45.2279    8.9881 O   0  0  0  0  0  0  0  0  0  0  0  0
   40.6538   43.4405    6.3728 C   0  0  2  0  0  0  0  0  0  0  0  0
   41.1737   44.0668    7.6031 N   0  0  0  0  0  0  0  0  0  0  0  0
   34.3264   40.4711    4.8001 C   0  0  2  0  0  0  0  0  0  0  0  0
   33.6437   40.3370    3.4904 O   0  0  0  0  0  0  0  0  0  0  0  0
   29.7870   39.9466    4.0986 C   0  0  1  0  0  0  0  0  0  0  0  0
   29.4477   41.2371    4.6522 O   0  0  0  0  0  0  0  0  0  0  0  0
   36.8129   44.4860   10.3495 C   0  0  2  0  0  0  0  0  0  0  0  0
   36.8846   45.7516   10.9719 O   0  0  0  0  0  0  0  0  0  0  0  0
   39.4637   42.4563    6.6540 C   0  0  2  0  0  0  0  0  0  0  0  0
   34.6671   41.9264    5.1082 C   0  0  2  0  0  0  0  0  0  0  0  0
   36.0189   42.1097    4.7118 O   0  0  0  0  0  0  0  0  0  0  0  0
   29.3478   39.9156    2.5795 C   0  0  2  0  0  0  0  0  0  0  0  0
   29.4442   38.5686    2.0867 O   0  0  0  0  0  0  0  0  0  0  0  0
   38.2103   43.8392   10.2744 C   0  0  2  0  0  0  0  0  0  0  0  0
   38.0812   42.5304    9.5962 O   0  0  0  0  0  0  0  0  0  0  0  0
   38.9777   41.7895    5.2714 C   0  0  2  0  0  0  0  0  0  0  0  0
   37.8694   40.8146    5.4592 O   0  0  0  0  0  0  0  0  0  0  0  0
   34.5630   42.2815    6.5841 C   0  0  0  0  0  0  0  0  0  0  0  0
   30.2685   40.8874    1.7356 C   0  0  1  0  0  0  0  0  0  0  0  0
   31.7277   40.6073    1.9577 O   0  0  0  0  0  0  0  0  0  0  0  0
   38.7887   43.6816   11.7000 C   0  0  0  0  0  0  0  0  0  0  0  0
   40.1429   43.1013   11.7606 N   0  0  0  0  0  0  0  0  0  0  0  0
   40.1519   41.0169    4.6334 C   0  0  1  0  0  0  0  0  0  0  0  0
   39.7204   40.4227    3.4048 O   0  0  0  0  0  0  0  0  0  0  0  0
   29.9347   40.8820    0.1942 C   0  0  0  0  0  0  0  0  0  0  0  0
   28.5671   41.3572   -0.1897 N   0  0  0  0  0  0  0  0  0  0  0  0
  1  2  1  6  0  0  0
  1  7  1  0  0  0  0
  1 30  1  0  0  0  0
  3  4  1  1  0  0  0
  3  9  1  0  0  0  0
  3 38  1  0  0  0  0
  5 10  1  0  0  0  0
  5 26  1  1  0  0  0
  5 32  1  0  0  0  0
  6 12  1  0  0  0  0
  6 35  1  0  0  0  0
  6 19  1  6  0  0  0
  7  8  1  6  0  0  0
  7 14  1  0  0  0  0
  8 33  1  0  0  0  0
  9 16  1  0  0  0  0
 10 11  1  6  0  0  0
 10 18  1  0  0  0  0
 12 13  1  6  0  0  0
 12 20  1  0  0  0  0
 14 15  1  1  0  0  0
 14 22  1  0  0  0  0
 16 17  1  1  0  0  0
 16 24  1  0  0  0  0
 18 19  1  6  0  0  0
 18 25  1  0  0  0  0
 20 21  1  6  0  0  0
 20 27  1  0  0  0  0
 22 23  1  6  0  0  0
 22 29  1  0  0  0  0
 24  2  1  6  0  0  0
 24 31  1  0  0  0  0
 25 26  1  1  0  0  0
 25 33  1  0  0  0  0
 27 28  1  6  0  0  0
 27 34  1  0  0  0  0
 29 30  1  0  0  0  0
 29 36  1  1  0  0  0
 31 32  1  1  0  0  0
 31 38  1  0  0  0  0
 34 35  1  0  0  0  0
 34 40  1  6  0  0  0
 36 37  1  0  0  0  0
 38 39  1  6  0  0  0
 40 41  1  0  0  0  0
M  END
>  <CHROM.1>
163.18658831,-62.31550011,-178.58568691,62.91005920,35.74049949,41.79523948
5.68172302,0.64200262,0.00043875,1.07773001

>  <Name>
ligand

>  <RI>
0

>  <Rbt.Current_Directory>
/home/itssahil/PROJECTS/Mol_Feturizer/New_Systems/rnas/1ZZ5

>  <Rbt.Executable>
rbdock ($Id: //depot/dev/client3/rdock/2013.1/src/exe/rbdock.cxx#4 $)

>  <Rbt.Library>
libRbt.so (2013.1, Build901 2013/11/27)

>  <Rbt.Parameter_File>
/export/apps/rDock/src/rDock_2013.1_src/data/scripts/dock_solv.prm

>  <Rbt.Receptor>
prm/pocket_docking_8.prm

>  <SCORE>
-12.4057

>  <SCORE.INTER>
-10.5418

>  <SCORE.INTER.CONST>
1

>  <SCORE.INTER.POLAR>
0

>  <SCORE.INTER.ROT>
4

>  <SCORE.INTER.SOLV>
18.2253

>  <SCORE.INTER.VDW>
-19.3696

>  <SCORE.INTER.norm>
-0.257117

>  <SCORE.INTRA>
-1.86392

>  <SCORE.INTRA.DIHEDRAL>
-3.6019

>  <SCORE.INTRA.DIHEDRAL.0>
5.18357

>  <SCORE.INTRA.POLAR>
0

>  <SCORE.INTRA.POLAR.0>
0

>  <SCORE.INTRA.REPUL>
0

>  <SCORE.INTRA.REPUL.0>
0

>  <SCORE.INTRA.SOLV>
-0.785346

>  <SCORE.INTRA.SOLV.lig_0>
-109.973

>  <SCORE.INTRA.VDW>
0.329704

>  <SCORE.INTRA.VDW.0>
-1.68646

>  <SCORE.INTRA.norm>
-0.0454615

>  <SCORE.RESTR>
0

>  <SCORE.RESTR.CAVITY>
0

>  <SCORE.RESTR.norm>
0

>  <SCORE.SYSTEM>
0

>  <SCORE.SYSTEM.CONST>
0

>  <SCORE.SYSTEM.DIHEDRAL>
0

>  <SCORE.SYSTEM.SOLV>
0

>  <SCORE.SYSTEM.norm>
0

>  <SCORE.heavy>
41

>  <SCORE.norm>
-0.302578

>  <RMSD>
9.936

$$$$
ligand
 OpenBabel11021811423D
libRbt.so/2013.1/901 2013/11/27
 41 45  0  0  0  0  0  0  0  0999 V2000
   37.9970   42.3279    8.0630 C   0  0  2  0  0  0  0  0  0  0  0  0
   38.8588   42.9316    7.0784 O   0  0  0  0  0  0  0  0  0  0  0  0
   41.4540   41.4558    3.9154 C   0  0  2  0  0  0  0  0  0  0  0  0
   42.4850   40.6414    3.2218 N   0  0  0  0  0  0  0  0  0  0  0  0
   36.7468   40.7873    4.4351 C   0  0  1  0  0  0  0  0  0  0  0  0
   32.1050   40.7526    3.6900 C   0  0  1  0  0  0  0  0  0  0  0  0
   36.6710   43.1316    8.2165 C   0  0  2  0  0  0  0  0  0  0  0  0
   35.9715   43.3288    6.9433 N   0  0  0  0  0  0  0  0  0  0  0  0
   42.0818   42.0781    5.2026 C   0  0  0  0  0  0  0  0  0  0  0  0
   35.6428   39.7681    4.7985 C   0  0  2  0  0  0  0  0  0  0  0  0
   35.5532   38.7133    3.8352 O   0  0  0  0  0  0  0  0  0  0  0  0
   31.3808   39.5882    4.4911 C   0  0  2  0  0  0  0  0  0  0  0  0
   31.6922   38.2156    3.9873 N   0  0  0  0  0  0  0  0  0  0  0  0
   36.9497   44.5040    8.8867 C   0  0  1  0  0  0  0  0  0  0  0  0
   35.7308   45.2243    9.0498 O   0  0  0  0  0  0  0  0  0  0  0  0
   41.0426   42.9392    5.9775 C   0  0  2  0  0  0  0  0  0  0  0  0
   41.7144   43.4954    7.1672 N   0  0  0  0  0  0  0  0  0  0  0  0
   34.3566   40.6070    4.8887 C   0  0  2  0  0  0  0  0  0  0  0  0
   33.5642   40.5573    3.6361 O   0  0  0  0  0  0  0  0  0  0  0  0
   29.8026   39.8223    4.4769 C   0  0  1  0  0  0  0  0  0  0  0  0
   29.4406   40.9943    5.2398 O   0  0  0  0  0  0  0  0  0  0  0  0
   37.6412   44.2867   10.2525 C   0  0  2  0  0  0  0  0  0  0  0  0
   37.8821   45.5305   10.8761 O   0  0  0  0  0  0  0  0  0  0  0  0
   39.7892   42.0684    6.3449 C   0  0  2  0  0  0  0  0  0  0  0  0
   34.8581   42.0187    5.1791 C   0  0  2  0  0  0  0  0  0  0  0  0
   36.1862   42.0786    4.6785 O   0  0  0  0  0  0  0  0  0  0  0  0
   29.2360   39.9785    3.0085 C   0  0  2  0  0  0  0  0  0  0  0  0
   29.3648   38.7254    2.3160 O   0  0  0  0  0  0  0  0  0  0  0  0
   38.9602   43.5113   10.0626 C   0  0  2  0  0  0  0  0  0  0  0  0
   38.6538   42.2307    9.3876 O   0  0  0  0  0  0  0  0  0  0  0  0
   39.1353   41.4709    5.0004 C   0  0  2  0  0  0  0  0  0  0  0  0
   37.9567   40.6030    5.2683 O   0  0  0  0  0  0  0  0  0  0  0  0
   34.9038   42.3606    6.6612 C   0  0  0  0  0  0  0  0  0  0  0  0
   30.0242   41.1214    2.2488 C   0  0  1  0  0  0  0  0  0  0  0  0
   31.5106   40.9124    2.3134 O   0  0  0  0  0  0  0  0  0  0  0  0
   39.6302   43.2788   11.4369 C   0  0  0  0  0  0  0  0  0  0  0  0
   40.0803   44.5034   12.1240 N   0  0  0  0  0  0  0  0  0  0  0  0
   40.1767   40.5997    4.2661 C   0  0  1  0  0  0  0  0  0  0  0  0
   39.5959   40.0670    3.0713 O   0  0  0  0  0  0  0  0  0  0  0  0
   29.5590   41.3134    0.7541 C   0  0  0  0  0  0  0  0  0  0  0  0
   28.1285   41.7079    0.5504 N   0  0  0  0  0  0  0  0  0  0  0  0
  1  2  1  6  0  0  0
  1  7  1  0  0  0  0
  1 30  1  0  0  0  0
  3  4  1  1  0  0  0
  3  9  1  0  0  0  0
  3 38  1  0  0  0  0
  5 10  1  0  0  0  0
  5 26  1  1  0  0  0
  5 32  1  0  0  0  0
  6 12  1  0  0  0  0
  6 35  1  0  0  0  0
  6 19  1  6  0  0  0
  7  8  1  6  0  0  0
  7 14  1  0  0  0  0
  8 33  1  0  0  0  0
  9 16  1  0  0  0  0
 10 11  1  6  0  0  0
 10 18  1  0  0  0  0
 12 13  1  6  0  0  0
 12 20  1  0  0  0  0
 14 15  1  1  0  0  0
 14 22  1  0  0  0  0
 16 17  1  1  0  0  0
 16 24  1  0  0  0  0
 18 19  1  6  0  0  0
 18 25  1  0  0  0  0
 20 21  1  1  0  0  0
 20 27  1  0  0  0  0
 22 23  1  6  0  0  0
 22 29  1  0  0  0  0
 24  2  1  6  0  0  0
 24 31  1  0  0  0  0
 25 26  1  1  0  0  0
 25 33  1  0  0  0  0
 27 28  1  6  0  0  0
 27 34  1  0  0  0  0
 29 30  1  0  0  0  0
 29 36  1  1  0  0  0
 31 32  1  1  0  0  0
 31 38  1  0  0  0  0
 34 35  1  0  0  0  0
 34 40  1  6  0  0  0
 36 37  1  0  0  0  0
 38 39  1  6  0  0  0
 40 41  1  0  0  0  0
M  END
>  <CHROM.1>
152.76837080,-64.91346326,-65.37267521,61.30269583,35.93772330,41.70928658
5.67765804,0.56769346,-0.01205245,1.06036236

>  <Name>
ligand

>  <RI>
0

>  <Rbt.Current_Directory>
/home/itssahil/PROJECTS/Mol_Feturizer/New_Systems/rnas/1ZZ5

>  <Rbt.Executable>
rbdock ($Id: //depot/dev/client3/rdock/2013.1/src/exe/rbdock.cxx#4 $)

>  <Rbt.Library>
libRbt.so (2013.1, Build901 2013/11/27)

>  <Rbt.Parameter_File>
/export/apps/rDock/src/rDock_2013.1_src/data/scripts/dock_solv.prm

>  <Rbt.Receptor>
prm/pocket_docking_7.prm

>  <SCORE>
-9.27978

>  <SCORE.INTER>
-9.24418

>  <SCORE.INTER.CONST>
1

>  <SCORE.INTER.POLAR>
0

>  <SCORE.INTER.ROT>
4

>  <SCORE.INTER.SOLV>
17.2656

>  <SCORE.INTER.VDW>
-18.1847

>  <SCORE.INTER.norm>
-0.225468

>  <SCORE.INTRA>
-0.0534872

>  <SCORE.INTRA.DIHEDRAL>
-1.6862

>  <SCORE.INTRA.DIHEDRAL.0>
5.18357

>  <SCORE.INTRA.POLAR>
0

>  <SCORE.INTRA.POLAR.0>
0

>  <SCORE.INTRA.REPUL>
0

>  <SCORE.INTRA.REPUL.0>
0

>  <SCORE.INTRA.SOLV>
0.745571

>  <SCORE.INTRA.SOLV.lig_0>
-109.973

>  <SCORE.INTRA.VDW>
0.416828

>  <SCORE.INTRA.VDW.0>
-1.68646

>  <SCORE.INTRA.norm>
-0.00130457

>  <SCORE.RESTR>
0.0178941

>  <SCORE.RESTR.CAVITY>
0.0178941

>  <SCORE.RESTR.norm>
0.000436441

>  <SCORE.SYSTEM>
0

>  <SCORE.SYSTEM.CONST>
0

>  <SCORE.SYSTEM.DIHEDRAL>
0

>  <SCORE.SYSTEM.SOLV>
0

>  <SCORE.SYSTEM.norm>
0

>  <SCORE.heavy>
41

>  <SCORE.norm>
-0.226336

>  <RMSD>
9.994

$$$$
ligand
 OpenBabel11021811423D
libRbt.so/2013.1/901 2013/11/27
 41 45  0  0  0  0  0  0  0  0999 V2000
   37.6743   40.2298    5.3938 C   0  0  2  0  0  0  0  0  0  0  0  0
   37.3890   40.2920    6.8049 O   0  0  0  0  0  0  0  0  0  0  0  0
   36.5375   43.4668    9.6532 C   0  0  2  0  0  0  0  0  0  0  0  0
   36.6563   44.7540   10.3856 N   0  0  0  0  0  0  0  0  0  0  0  0
   34.1174   42.3173    5.6914 C   0  0  1  0  0  0  0  0  0  0  0  0
   30.6876   40.5164    3.7136 C   0  0  1  0  0  0  0  0  0  0  0  0
   36.9487   39.0228    4.7273 C   0  0  2  0  0  0  0  0  0  0  0  0
   35.5049   39.0125    4.9813 N   0  0  0  0  0  0  0  0  0  0  0  0
   37.9078   42.7208    9.7147 C   0  0  0  0  0  0  0  0  0  0  0  0
   33.7841   42.7378    4.2416 C   0  0  2  0  0  0  0  0  0  0  0  0
   33.0193   43.9469    4.1999 O   0  0  0  0  0  0  0  0  0  0  0  0
   30.7905   39.7096    2.3496 C   0  0  2  0  0  0  0  0  0  0  0  0
   30.5295   40.5353    1.1310 N   0  0  0  0  0  0  0  0  0  0  0  0
   37.5806   37.6870    5.2035 C   0  0  1  0  0  0  0  0  0  0  0  0
   36.9320   36.5870    4.5709 O   0  0  0  0  0  0  0  0  0  0  0  0
   37.8460   41.3639    8.9551 C   0  0  2  0  0  0  0  0  0  0  0  0
   39.1692   40.7220    9.0690 N   0  0  0  0  0  0  0  0  0  0  0  0
   33.0308   41.5327    3.6529 C   0  0  2  0  0  0  0  0  0  0  0  0
   31.5591   41.7041    3.7166 O   0  0  0  0  0  0  0  0  0  0  0  0
   29.7929   38.4648    2.3808 C   0  0  1  0  0  0  0  0  0  0  0  0
   30.2121   37.4827    3.3536 O   0  0  0  0  0  0  0  0  0  0  0  0
   39.0939   37.6834    4.8861 C   0  0  2  0  0  0  0  0  0  0  0  0
   39.6723   36.4638    5.3009 O   0  0  0  0  0  0  0  0  0  0  0  0
   37.4176   41.6012    7.4636 C   0  0  2  0  0  0  0  0  0  0  0  0
   33.4956   40.3561    4.5064 C   0  0  2  0  0  0  0  0  0  0  0  0
   33.9045   40.9059    5.7508 O   0  0  0  0  0  0  0  0  0  0  0  0
   28.3074   38.8990    2.7069 C   0  0  2  0  0  0  0  0  0  0  0  0
   27.7910   39.6764    1.6135 O   0  0  0  0  0  0  0  0  0  0  0  0
   39.7850   38.8743    5.5795 C   0  0  2  0  0  0  0  0  0  0  0  0
   39.1278   40.1208    5.1277 O   0  0  0  0  0  0  0  0  0  0  0  0
   35.9846   42.3345    7.4248 C   0  0  2  0  0  0  0  0  0  0  0  0
   35.5228   42.6255    6.0406 O   0  0  0  0  0  0  0  0  0  0  0  0
   34.6800   39.6026    3.9191 C   0  0  0  0  0  0  0  0  0  0  0  0
   28.2758   39.7336    4.0510 C   0  0  1  0  0  0  0  0  0  0  0  0
   29.2555   40.8724    4.0243 O   0  0  0  0  0  0  0  0  0  0  0  0
   41.2927   38.8743    5.2351 C   0  0  0  0  0  0  0  0  0  0  0  0
   41.6045   39.0861    3.8096 N   0  0  0  0  0  0  0  0  0  0  0  0
   36.0805   43.6883    8.1601 C   0  0  1  0  0  0  0  0  0  0  0  0
   34.8075   44.3415    8.1250 O   0  0  0  0  0  0  0  0  0  0  0  0
   26.8359   40.2541    4.4292 C   0  0  0  0  0  0  0  0  0  0  0  0
   26.7498   41.1612    5.6180 N   0  0  0  0  0  0  0  0  0  0  0  0
  1  2  1  1  0  0  0
  1  7  1  0  0  0  0
  1 30  1  0  0  0  0
  3  4  1  6  0  0  0
  3  9  1  0  0  0  0
  3 38  1  0  0  0  0
  5 10  1  0  0  0  0
  5 26  1  6  0  0  0
  5 32  1  0  0  0  0
  6 12  1  0  0  0  0
  6 35  1  0  0  0  0
  6 19  1  6  0  0  0
  7  8  1  1  0  0  0
  7 14  1  0  0  0  0
  8 33  1  0  0  0  0
  9 16  1  0  0  0  0
 10 11  1  1  0  0  0
 10 18  1  0  0  0  0
 12 13  1  6  0  0  0
 12 20  1  0  0  0  0
 14 15  1  6  0  0  0
 14 22  1  0  0  0  0
 16 17  1  6  0  0  0
 16 24  1  0  0  0  0
 18 19  1  1  0  0  0
 18 25  1  0  0  0  0
 20 21  1  1  0  0  0
 20 27  1  0  0  0  0
 22 23  1  1  0  0  0
 22 29  1  0  0  0  0
 24  2  1  6  0  0  0
 24 31  1  0  0  0  0
 25 26  1  1  0  0  0
 25 33  1  0  0  0  0
 27 28  1  6  0  0  0
 27 34  1  0  0  0  0
 29 30  1  0  0  0  0
 29 36  1  6  0  0  0
 31 32  1  6  0  0  0
 31 38  1  0  0  0  0
 34 35  1  0  0  0  0
 34 40  1  6  0  0  0
 36 37  1  0  0  0  0
 38 39  1  1  0  0  0
 40 41  1  0  0  0  0
M  END
>  <CHROM.1>
-155.96836944,-64.75016315,64.24469066,-174.35816107,34.54959088,40.53070002
5.29166531,-0.23153959,0.25594974,-2.43857561

>  <Name>
ligand

>  <RI>
0

>  <Rbt.Current_Directory>
/home/itssahil/PROJECTS/Mol_Feturizer/New_Systems/rnas/1ZZ5

>  <Rbt.Executable>
rbdock ($Id: //depot/dev/client3/rdock/2013.1/src/exe/rbdock.cxx#4 $)

>  <Rbt.Library>
libRbt.so (2013.1, Build901 2013/11/27)

>  <Rbt.Parameter_File>
/export/apps/rDock/src/rDock_2013.1_src/data/scripts/dock_solv.prm

>  <Rbt.Receptor>
prm/pocket_docking_8.prm

>  <SCORE>
-11.3314

>  <SCORE.INTER>
-10.9476

>  <SCORE.INTER.CONST>
1

>  <SCORE.INTER.POLAR>
0

>  <SCORE.INTER.ROT>
4

>  <SCORE.INTER.SOLV>
17.6359

>  <SCORE.INTER.VDW>
-19.4437

>  <SCORE.INTER.norm>
-0.267014

>  <SCORE.INTRA>
-0.383867

>  <SCORE.INTRA.DIHEDRAL>
-2.21646

>  <SCORE.INTRA.DIHEDRAL.0>
5.18357

>  <SCORE.INTRA.POLAR>
0

>  <SCORE.INTRA.POLAR.0>
0

>  <SCORE.INTRA.REPUL>
0

>  <SCORE.INTRA.REPUL.0>
0

>  <SCORE.INTRA.SOLV>
0.219697

>  <SCORE.INTRA.SOLV.lig_0>
-109.973

>  <SCORE.INTRA.VDW>
0.614513

>  <SCORE.INTRA.VDW.0>
-1.68646

>  <SCORE.INTRA.norm>
-0.00936262

>  <SCORE.RESTR>
0

>  <SCORE.RESTR.CAVITY>
0

>  <SCORE.RESTR.norm>
0

>  <SCORE.SYSTEM>
0

>  <SCORE.SYSTEM.CONST>
0

>  <SCORE.SYSTEM.DIHEDRAL>
0

>  <SCORE.SYSTEM.SOLV>
0

>  <SCORE.SYSTEM.norm>
0

>  <SCORE.heavy>
41

>  <SCORE.norm>
-0.276376

>  <RMSD>
10.013

$$$$
ligand
 OpenBabel11021811423D
libRbt.so/2013.1/901 2013/11/27
 41 45  0  0  0  0  0  0  0  0999 V2000
   37.5324   38.2930    7.3688 C   0  0  2  0  0  0  0  0  0  0  0  0
   37.3407   39.0100    8.6040 O   0  0  0  0  0  0  0  0  0  0  0  0
   37.5528   43.1782    9.8281 C   0  0  2  0  0  0  0  0  0  0  0  0
   38.0642   44.5652    9.9766 N   0  0  0  0  0  0  0  0  0  0  0  0
   34.7293   41.2084    6.5081 C   0  0  1  0  0  0  0  0  0  0  0  0
   30.8795   39.6913    4.4218 C   0  0  1  0  0  0  0  0  0  0  0  0
   36.4654   37.1702    7.2002 C   0  0  2  0  0  0  0  0  0  0  0  0
   35.0908   37.6648    7.3229 N   0  0  0  0  0  0  0  0  0  0  0  0
   38.6572   42.1784   10.2960 C   0  0  0  0  0  0  0  0  0  0  0  0
   34.4633   41.0648    4.9921 C   0  0  2  0  0  0  0  0  0  0  0  0
   34.0711   42.3074    4.3998 O   0  0  0  0  0  0  0  0  0  0  0  0
   30.9793   39.1461    2.9335 C   0  0  2  0  0  0  0  0  0  0  0  0
   31.1281   40.2162    1.9003 N   0  0  0  0  0  0  0  0  0  0  0  0
   36.7142   36.0344    8.2290 C   0  0  1  0  0  0  0  0  0  0  0  0
   35.7527   34.9972    8.0535 O   0  0  0  0  0  0  0  0  0  0  0  0
   38.1794   40.7039   10.1558 C   0  0  2  0  0  0  0  0  0  0  0  0
   39.2705   39.8292   10.6251 N   0  0  0  0  0  0  0  0  0  0  0  0
   33.3739   39.9836    4.8912 C   0  0  2  0  0  0  0  0  0  0  0  0
   32.0153   40.5647    4.7644 O   0  0  0  0  0  0  0  0  0  0  0  0
   29.7034   38.2483    2.5997 C   0  0  1  0  0  0  0  0  0  0  0  0
   29.7031   37.0301    3.3761 O   0  0  0  0  0  0  0  0  0  0  0  0
   38.1485   35.4823    8.0598 C   0  0  2  0  0  0  0  0  0  0  0  0
   38.3761   34.4365    8.9811 O   0  0  0  0  0  0  0  0  0  0  0  0
   37.7685   40.4105    8.6694 C   0  0  2  0  0  0  0  0  0  0  0  0
   33.5247   39.1881    6.1848 C   0  0  2  0  0  0  0  0  0  0  0  0
   34.1285   40.0675    7.1231 O   0  0  0  0  0  0  0  0  0  0  0  0
   28.3470   39.0178    2.8638 C   0  0  2  0  0  0  0  0  0  0  0  0
   28.2204   40.0919    1.9168 O   0  0  0  0  0  0  0  0  0  0  0  0
   39.1792   36.6118    8.2568 C   0  0  2  0  0  0  0  0  0  0  0  0
   38.8820   37.6872    7.2848 O   0  0  0  0  0  0  0  0  0  0  0  0
   36.6015   41.4258    8.2224 C   0  0  2  0  0  0  0  0  0  0  0  0
   36.1788   41.2326    6.8089 O   0  0  0  0  0  0  0  0  0  0  0  0
   34.4194   37.9645    6.0515 C   0  0  0  0  0  0  0  0  0  0  0  0
   28.3255   39.5727    4.3456 C   0  0  1  0  0  0  0  0  0  0  0  0
   29.5565   40.3748    4.6595 O   0  0  0  0  0  0  0  0  0  0  0  0
   40.6079   36.0531    8.0612 C   0  0  0  0  0  0  0  0  0  0  0  0
   41.0436   35.0876    9.0870 N   0  0  0  0  0  0  0  0  0  0  0  0
   37.1100   42.8782    8.3444 C   0  0  1  0  0  0  0  0  0  0  0  0
   36.0737   43.7815    7.9460 O   0  0  0  0  0  0  0  0  0  0  0  0
   27.0268   40.4014    4.6834 C   0  0  0  0  0  0  0  0  0  0  0  0
   25.7256   39.6671    4.5777 N   0  0  0  0  0  0  0  0  0  0  0  0
  1  2  1  1  0  0  0
  1  7  1  0  0  0  0
  1 30  1  0  0  0  0
  3  4  1  6  0  0  0
  3  9  1  0  0  0  0
  3 38  1  0  0  0  0
  5 10  1  0  0  0  0
  5 26  1  1  0  0  0
  5 32  1  0  0  0  0
  6 12  1  0  0  0  0
  6 35  1  0  0  0  0
  6 19  1  6  0  0  0
  7  8  1  1  0  0  0
  7 14  1  0  0  0  0
  8 33  1  0  0  0  0
  9 16  1  0  0  0  0
 10 11  1  1  0  0  0
 10 18  1  0  0  0  0
 12 13  1  6  0  0  0
 12 20  1  0  0  0  0
 14 15  1  6  0  0  0
 14 22  1  0  0  0  0
 16 17  1  6  0  0  0
 16 24  1  0  0  0  0
 18 19  1  1  0  0  0
 18 25  1  0  0  0  0
 20 21  1  1  0  0  0
 20 27  1  0  0  0  0
 22 23  1  1  0  0  0
 22 29  1  0  0  0  0
 24  2  1  1  0  0  0
 24 31  1  0  0  0  0
 25 26  1  1  0  0  0
 25 33  1  0  0  0  0
 27 28  1  6  0  0  0
 27 34  1  0  0  0  0
 29 30  1  0  0  0  0
 29 36  1  6  0  0  0
 31 32  1  6  0  0  0
 31 38  1  0  0  0  0
 34 35  1  0  0  0  0
 34 40  1  6  0  0  0
 36 37  1  0  0  0  0
 38 39  1  1  0  0  0
 40 41  1  0  0  0  0
M  END
>  <CHROM.1>
169.36932115,-68.46405194,-66.87932770,60.82053591,34.63536878,39.37325576
6.58358942,0.01494779,0.52040381,-2.98437402

>  <Name>
ligand

>  <RI>
0

>  <Rbt.Current_Directory>
/home/itssahil/PROJECTS/Mol_Feturizer/New_Systems/rnas/1ZZ5

>  <Rbt.Executable>
rbdock ($Id: //depot/dev/client3/rdock/2013.1/src/exe/rbdock.cxx#4 $)

>  <Rbt.Library>
libRbt.so (2013.1, Build901 2013/11/27)

>  <Rbt.Parameter_File>
/export/apps/rDock/src/rDock_2013.1_src/data/scripts/dock_solv.prm

>  <Rbt.Receptor>
prm/pocket_docking_8.prm

>  <SCORE>
-8.21724

>  <SCORE.INTER>
-6.81647

>  <SCORE.INTER.CONST>
1

>  <SCORE.INTER.POLAR>
0

>  <SCORE.INTER.ROT>
4

>  <SCORE.INTER.SOLV>
14.3276

>  <SCORE.INTER.VDW>
-15.5868

>  <SCORE.INTER.norm>
-0.166255

>  <SCORE.INTRA>
-1.40077

>  <SCORE.INTRA.DIHEDRAL>
-3.90265

>  <SCORE.INTRA.DIHEDRAL.0>
5.18357

>  <SCORE.INTRA.POLAR>
0

>  <SCORE.INTRA.POLAR.0>
0

>  <SCORE.INTRA.REPUL>
0

>  <SCORE.INTRA.REPUL.0>
0

>  <SCORE.INTRA.SOLV>
0.235538

>  <SCORE.INTRA.SOLV.lig_0>
-109.973

>  <SCORE.INTRA.VDW>
0.432786

>  <SCORE.INTRA.VDW.0>
-1.68646

>  <SCORE.INTRA.norm>
-0.0341652

>  <SCORE.RESTR>
0

>  <SCORE.RESTR.CAVITY>
0

>  <SCORE.RESTR.norm>
0

>  <SCORE.SYSTEM>
0

>  <SCORE.SYSTEM.CONST>
0

>  <SCORE.SYSTEM.DIHEDRAL>
0

>  <SCORE.SYSTEM.SOLV>
0

>  <SCORE.SYSTEM.norm>
0

>  <SCORE.heavy>
41

>  <SCORE.norm>
-0.20042

>  <RMSD>
10.072

$$$$
ligand
 OpenBabel11021811423D
libRbt.so/2013.1/901 2013/11/27
 41 45  0  0  0  0  0  0  0  0999 V2000
   40.3386   36.7402    7.8062 C   0  0  2  0  0  0  0  0  0  0  0  0
   40.5437   37.9127    8.6184 O   0  0  0  0  0  0  0  0  0  0  0  0
   40.1454   42.2020    8.0174 C   0  0  2  0  0  0  0  0  0  0  0  0
   40.2685   43.5402    7.3838 N   0  0  0  0  0  0  0  0  0  0  0  0
   36.7766   38.8312    7.6129 C   0  0  1  0  0  0  0  0  0  0  0  0
   33.0104   36.3777    8.6342 C   0  0  1  0  0  0  0  0  0  0  0  0
   39.6636   35.6004    8.6266 C   0  0  2  0  0  0  0  0  0  0  0  0
   38.4199   36.0238    9.2771 N   0  0  0  0  0  0  0  0  0  0  0  0
   41.5669   41.5680    8.1421 C   0  0  0  0  0  0  0  0  0  0  0  0
   35.8995   38.0263    6.6267 C   0  0  2  0  0  0  0  0  0  0  0  0
   34.9586   38.8625    5.9455 O   0  0  0  0  0  0  0  0  0  0  0  0
   31.6027   36.9995    9.0263 C   0  0  2  0  0  0  0  0  0  0  0  0
   31.6934   38.2727    9.8045 N   0  0  0  0  0  0  0  0  0  0  0  0
   40.6527   35.0428    9.6853 C   0  0  1  0  0  0  0  0  0  0  0  0
   40.0406   33.9826   10.4149 O   0  0  0  0  0  0  0  0  0  0  0  0
   41.4999   40.1567    8.7946 C   0  0  2  0  0  0  0  0  0  0  0  0
   42.8768   39.6350    8.8843 N   0  0  0  0  0  0  0  0  0  0  0  0
   35.2250   36.9522    7.4971 C   0  0  2  0  0  0  0  0  0  0  0  0
   33.8576   37.3452    7.9157 O   0  0  0  0  0  0  0  0  0  0  0  0
   30.7468   35.9287    9.8428 C   0  0  1  0  0  0  0  0  0  0  0  0
   30.3701   34.8127    9.0065 O   0  0  0  0  0  0  0  0  0  0  0  0
   41.9415   34.5507    8.9870 C   0  0  2  0  0  0  0  0  0  0  0  0
   42.8392   34.0258    9.9424 O   0  0  0  0  0  0  0  0  0  0  0  0
   40.5544   39.2223    7.9597 C   0  0  2  0  0  0  0  0  0  0  0  0
   36.1591   36.8104    8.6956 C   0  0  2  0  0  0  0  0  0  0  0  0
   36.8586   38.0424    8.8011 O   0  0  0  0  0  0  0  0  0  0  0  0
   31.5274   35.3769   11.1028 C   0  0  2  0  0  0  0  0  0  0  0  0
   31.6861   36.4358   12.0619 O   0  0  0  0  0  0  0  0  0  0  0  0
   42.5969   35.7068    8.2056 C   0  0  2  0  0  0  0  0  0  0  0  0
   41.6091   36.2325    7.2373 O   0  0  0  0  0  0  0  0  0  0  0  0
   39.0851   39.8759    7.8789 C   0  0  2  0  0  0  0  0  0  0  0  0
   38.1354   39.0627    7.0723 O   0  0  0  0  0  0  0  0  0  0  0  0
   37.1899   35.7018    8.5419 C   0  0  0  0  0  0  0  0  0  0  0  0
   32.9360   34.8114   10.6552 C   0  0  1  0  0  0  0  0  0  0  0  0
   33.7088   35.8141    9.8462 O   0  0  0  0  0  0  0  0  0  0  0  0
   43.8707   35.1971    7.4920 C   0  0  0  0  0  0  0  0  0  0  0  0
   44.9676   34.7940    8.3911 N   0  0  0  0  0  0  0  0  0  0  0  0
   39.1759   41.2611    7.2037 C   0  0  1  0  0  0  0  0  0  0  0  0
   37.8700   41.8424    7.1303 O   0  0  0  0  0  0  0  0  0  0  0  0
   33.8085   34.2843   11.8587 C   0  0  0  0  0  0  0  0  0  0  0  0
   34.1275   35.2791   12.9320 N   0  0  0  0  0  0  0  0  0  0  0  0
  1  2  1  1  0  0  0
  1  7  1  0  0  0  0
  1 30  1  0  0  0  0
  3  4  1  6  0  0  0
  3  9  1  0  0  0  0
  3 38  1  0  0  0  0
  5 10  1  0  0  0  0
  5 26  1  1  0  0  0
  5 32  1  0  0  0  0
  6 12  1  0  0  0  0
  6 35  1  0  0  0  0
  6 19  1  1  0  0  0
  7  8  1  1  0  0  0
  7 14  1  0  0  0  0
  8 33  1  0  0  0  0
  9 16  1  0  0  0  0
 10 11  1  1  0  0  0
 10 18  1  0  0  0  0
 12 13  1  1  0  0  0
 12 20  1  0  0  0  0
 14 15  1  6  0  0  0
 14 22  1  0  0  0  0
 16 17  1  6  0  0  0
 16 24  1  0  0  0  0
 18 19  1  1  0  0  0
 18 25  1  0  0  0  0
 20 21  1  6  0  0  0
 20 27  1  0  0  0  0
 22 23  1  1  0  0  0
 22 29  1  0  0  0  0
 24  2  1  1  0  0  0
 24 31  1  0  0  0  0
 25 26  1  6  0  0  0
 25 33  1  0  0  0  0
 27 28  1  1  0  0  0
 27 34  1  0  0  0  0
 29 30  1  0  0  0  0
 29 36  1  6  0  0  0
 31 32  1  6  0  0  0
 31 38  1  0  0  0  0
 34 35  1  0  0  0  0
 34 40  1  1  0  0  0
 36 37  1  0  0  0  0
 38 39  1  1  0  0  0
 40 41  1  0  0  0  0
M  END
>  <CHROM.1>
173.55918023,178.52775315,-66.54887686,-58.86763823,37.55928543,37.28193626
8.77190364,-0.22718293,-0.10207687,2.77452790

>  <Name>
ligand

>  <RI>
0

>  <Rbt.Current_Directory>
/home/itssahil/PROJECTS/Mol_Feturizer/New_Systems/rnas/1ZZ5

>  <Rbt.Executable>
rbdock ($Id: //depot/dev/client3/rdock/2013.1/src/exe/rbdock.cxx#4 $)

>  <Rbt.Library>
libRbt.so (2013.1, Build901 2013/11/27)

>  <Rbt.Parameter_File>
/export/apps/rDock/src/rDock_2013.1_src/data/scripts/dock_solv.prm

>  <Rbt.Receptor>
prm/pocket_docking_8.prm

>  <SCORE>
-7.82785

>  <SCORE.INTER>
-6.40882

>  <SCORE.INTER.CONST>
1

>  <SCORE.INTER.POLAR>
0

>  <SCORE.INTER.ROT>
4

>  <SCORE.INTER.SOLV>
14.7404

>  <SCORE.INTER.VDW>
-15.4527

>  <SCORE.INTER.norm>
-0.156313

>  <SCORE.INTRA>
-1.41903

>  <SCORE.INTRA.DIHEDRAL>
-4.58184

>  <SCORE.INTRA.DIHEDRAL.0>
5.18357

>  <SCORE.INTRA.POLAR>
0

>  <SCORE.INTRA.POLAR.0>
0

>  <SCORE.INTRA.REPUL>
0

>  <SCORE.INTRA.REPUL.0>
0

>  <SCORE.INTRA.SOLV>
1.31936

>  <SCORE.INTRA.SOLV.lig_0>
-109.973

>  <SCORE.INTRA.VDW>
0.212217

>  <SCORE.INTRA.VDW.0>
-1.68646

>  <SCORE.INTRA.norm>
-0.0346104

>  <SCORE.RESTR>
0

>  <SCORE.RESTR.CAVITY>
0

>  <SCORE.RESTR.norm>
0

>  <SCORE.SYSTEM>
0

>  <SCORE.SYSTEM.CONST>
0

>  <SCORE.SYSTEM.DIHEDRAL>
0

>  <SCORE.SYSTEM.SOLV>
0

>  <SCORE.SYSTEM.norm>
0

>  <SCORE.heavy>
41

>  <SCORE.norm>
-0.190923

>  <RMSD>
10.115

$$$$
ligand
 OpenBabel11021811423D
libRbt.so/2013.1/901 2013/11/27
 41 45  0  0  0  0  0  0  0  0999 V2000
   44.5499   39.6378    2.8531 C   0  0  2  0  0  0  0  0  0  0  0  0
   45.1080   38.7227    3.8163 O   0  0  0  0  0  0  0  0  0  0  0  0
   48.9873   38.2151    5.7165 C   0  0  2  0  0  0  0  0  0  0  0  0
   50.4601   38.0993    5.8740 N   0  0  0  0  0  0  0  0  0  0  0  0
   46.1030   42.0280    5.8486 C   0  0  1  0  0  0  0  0  0  0  0  0
   43.1947   45.2094    7.5383 C   0  0  1  0  0  0  0  0  0  0  0  0
   43.0954   40.0411    3.2396 C   0  0  2  0  0  0  0  0  0  0  0  0
   42.9922   40.5713    4.6024 N   0  0  0  0  0  0  0  0  0  0  0  0
   48.5095   37.1820    4.6477 C   0  0  0  0  0  0  0  0  0  0  0  0
   45.8898   43.4753    5.3489 C   0  0  2  0  0  0  0  0  0  0  0  0
   46.8789   44.3697    5.8691 O   0  0  0  0  0  0  0  0  0  0  0  0
   42.7219   46.3892    6.5862 C   0  0  2  0  0  0  0  0  0  0  0  0
   43.7548   47.4474    6.3666 N   0  0  0  0  0  0  0  0  0  0  0  0
   42.1390   38.8302    3.0678 C   0  0  1  0  0  0  0  0  0  0  0  0
   40.8054   39.2108    3.3963 O   0  0  0  0  0  0  0  0  0  0  0  0
   46.9700   37.2624    4.4340 C   0  0  2  0  0  0  0  0  0  0  0  0
   46.6012   36.2537    3.4228 N   0  0  0  0  0  0  0  0  0  0  0  0
   44.4632   43.8336    5.7989 C   0  0  2  0  0  0  0  0  0  0  0  0
   44.4498   44.5957    7.0711 O   0  0  0  0  0  0  0  0  0  0  0  0
   41.3888   47.0490    7.1636 C   0  0  1  0  0  0  0  0  0  0  0  0
   40.2769   46.1295    7.0927 O   0  0  0  0  0  0  0  0  0  0  0  0
   42.2144   38.3081    1.6144 C   0  0  2  0  0  0  0  0  0  0  0  0
   41.3336   37.2172    1.4459 O   0  0  0  0  0  0  0  0  0  0  0  0
   46.5609   38.7177    4.0108 C   0  0  2  0  0  0  0  0  0  0  0  0
   43.7743   42.4801    5.9489 C   0  0  2  0  0  0  0  0  0  0  0  0
   44.8065   41.5343    6.1898 O   0  0  0  0  0  0  0  0  0  0  0  0
   41.5591   47.5235    8.6627 C   0  0  2  0  0  0  0  0  0  0  0  0
   42.4872   48.6204    8.7091 O   0  0  0  0  0  0  0  0  0  0  0  0
   43.6599   37.8952    1.2726 C   0  0  2  0  0  0  0  0  0  0  0  0
   44.5406   39.0648    1.4867 O   0  0  0  0  0  0  0  0  0  0  0  0
   47.0274   39.7602    5.1458 C   0  0  2  0  0  0  0  0  0  0  0  0
   46.7040   41.1711    4.8014 O   0  0  0  0  0  0  0  0  0  0  0  0
   43.0173   42.0361    4.7059 C   0  0  0  0  0  0  0  0  0  0  0  0
   42.0719   46.3186    9.5513 C   0  0  1  0  0  0  0  0  0  0  0  0
   43.2991   45.6774    8.9681 O   0  0  0  0  0  0  0  0  0  0  0  0
   43.7275   37.3979   -0.1903 C   0  0  0  0  0  0  0  0  0  0  0  0
   45.0112   36.7858   -0.5798 N   0  0  0  0  0  0  0  0  0  0  0  0
   48.5593   39.6799    5.3183 C   0  0  1  0  0  0  0  0  0  0  0  0
   48.9751   40.6072    6.3261 O   0  0  0  0  0  0  0  0  0  0  0  0
   42.3200   46.7148   11.0576 C   0  0  0  0  0  0  0  0  0  0  0  0
   42.7822   45.6162   11.9646 N   0  0  0  0  0  0  0  0  0  0  0  0
  1  2  1  1  0  0  0
  1  7  1  0  0  0  0
  1 30  1  0  0  0  0
  3  4  1  6  0  0  0
  3  9  1  0  0  0  0
  3 38  1  0  0  0  0
  5 10  1  0  0  0  0
  5 26  1  6  0  0  0
  5 32  1  0  0  0  0
  6 12  1  0  0  0  0
  6 35  1  0  0  0  0
  6 19  1  6  0  0  0
  7  8  1  1  0  0  0
  7 14  1  0  0  0  0
  8 33  1  0  0  0  0
  9 16  1  0  0  0  0
 10 11  1  1  0  0  0
 10 18  1  0  0  0  0
 12 13  1  1  0  0  0
 12 20  1  0  0  0  0
 14 15  1  6  0  0  0
 14 22  1  0  0  0  0
 16 17  1  6  0  0  0
 16 24  1  0  0  0  0
 18 19  1  1  0  0  0
 18 25  1  0  0  0  0
 20 21  1  1  0  0  0
 20 27  1  0  0  0  0
 22 23  1  1  0  0  0
 22 29  1  0  0  0  0
 24  2  1  1  0  0  0
 24 31  1  0  0  0  0
 25 26  1  6  0  0  0
 25 33  1  0  0  0  0
 27 28  1  6  0  0  0
 27 34  1  0  0  0  0
 29 30  1  0  0  0  0
 29 36  1  6  0  0  0
 31 32  1  6  0  0  0
 31 38  1  0  0  0  0
 34 35  1  0  0  0  0
 34 40  1  1  0  0  0
 36 37  1  0  0  0  0
 38 39  1  1  0  0  0
 40 41  1  0  0  0  0
M  END
>  <CHROM.1>
170.14987342,-67.08828232,-171.30182874,178.88234423,44.46842558,41.67286251
5.28061523,1.28384738,0.37506746,-2.44348143

>  <Name>
ligand

>  <RI>
0

>  <Rbt.Current_Directory>
/home/itssahil/PROJECTS/Mol_Feturizer/New_Systems/rnas/1ZZ5

>  <Rbt.Executable>
rbdock ($Id: //depot/dev/client3/rdock/2013.1/src/exe/rbdock.cxx#4 $)

>  <Rbt.Library>
libRbt.so (2013.1, Build901 2013/11/27)

>  <Rbt.Parameter_File>
/export/apps/rDock/src/rDock_2013.1_src/data/scripts/dock_solv.prm

>  <Rbt.Receptor>
prm/pocket_docking_8.prm

>  <SCORE>
-8.76287

>  <SCORE.INTER>
-6.45854

>  <SCORE.INTER.CONST>
1

>  <SCORE.INTER.POLAR>
0

>  <SCORE.INTER.ROT>
4

>  <SCORE.INTER.SOLV>
12.6758

>  <SCORE.INTER.VDW>
-14.7976

>  <SCORE.INTER.norm>
-0.157525

>  <SCORE.INTRA>
-2.30433

>  <SCORE.INTRA.DIHEDRAL>
-3.9717

>  <SCORE.INTRA.DIHEDRAL.0>
5.18357

>  <SCORE.INTRA.POLAR>
0

>  <SCORE.INTRA.POLAR.0>
0

>  <SCORE.INTRA.REPUL>
0

>  <SCORE.INTRA.REPUL.0>
0

>  <SCORE.INTRA.SOLV>
-1.32804

>  <SCORE.INTRA.SOLV.lig_0>
-109.973

>  <SCORE.INTRA.VDW>
0.345539

>  <SCORE.INTRA.VDW.0>
-1.68646

>  <SCORE.INTRA.norm>
-0.0562032

>  <SCORE.RESTR>
0

>  <SCORE.RESTR.CAVITY>
0

>  <SCORE.RESTR.norm>
0

>  <SCORE.SYSTEM>
0

>  <SCORE.SYSTEM.CONST>
0

>  <SCORE.SYSTEM.DIHEDRAL>
0

>  <SCORE.SYSTEM.SOLV>
0

>  <SCORE.SYSTEM.norm>
0

>  <SCORE.heavy>
41

>  <SCORE.norm>
-0.213729

>  <RMSD>
10.271

$$$$
ligand
 OpenBabel11021811423D
libRbt.so/2013.1/901 2013/11/27
 41 45  0  0  0  0  0  0  0  0999 V2000
   43.1669   39.9959    7.8330 C   0  0  2  0  0  0  0  0  0  0  0  0
   43.7326   41.2316    8.3119 O   0  0  0  0  0  0  0  0  0  0  0  0
   45.8396   44.5779    6.5005 C   0  0  2  0  0  0  0  0  0  0  0  0
   46.8163   45.3269    5.6684 N   0  0  0  0  0  0  0  0  0  0  0  0
   41.4554   42.9495    5.4997 C   0  0  1  0  0  0  0  0  0  0  0  0
   36.8038   42.6828    4.9420 C   0  0  1  0  0  0  0  0  0  0  0  0
   41.8003   39.7006    8.5206 C   0  0  2  0  0  0  0  0  0  0  0  0
   40.8473   40.8077    8.3970 N   0  0  0  0  0  0  0  0  0  0  0  0
   46.6158   43.5826    7.4198 C   0  0  0  0  0  0  0  0  0  0  0  0
   40.5895   42.1873    4.4706 C   0  0  2  0  0  0  0  0  0  0  0  0
   40.4572   42.9129    3.2440 O   0  0  0  0  0  0  0  0  0  0  0  0
   36.2664   42.9583    6.4108 C   0  0  2  0  0  0  0  0  0  0  0  0
   37.0357   42.2568    7.4836 N   0  0  0  0  0  0  0  0  0  0  0  0
   42.0170   39.3520   10.0179 C   0  0  1  0  0  0  0  0  0  0  0  0
   40.7675   39.0564   10.6363 O   0  0  0  0  0  0  0  0  0  0  0  0
   45.6405   42.7616    8.3126 C   0  0  2  0  0  0  0  0  0  0  0  0
   46.4494   41.8582    9.1525 N   0  0  0  0  0  0  0  0  0  0  0  0
   39.2446   41.9675    5.1839 C   0  0  2  0  0  0  0  0  0  0  0  0
   38.2383   42.9925    4.8145 O   0  0  0  0  0  0  0  0  0  0  0  0
   34.7241   42.5609    6.5060 C   0  0  1  0  0  0  0  0  0  0  0  0
   33.9062   43.4435    5.7066 O   0  0  0  0  0  0  0  0  0  0  0  0
   42.9830   38.1508   10.1393 C   0  0  2  0  0  0  0  0  0  0  0  0
   43.1711   37.8167   11.4984 O   0  0  0  0  0  0  0  0  0  0  0  0
   44.6104   41.9889    7.4147 C   0  0  2  0  0  0  0  0  0  0  0  0
   39.5990   42.0389    6.6666 C   0  0  2  0  0  0  0  0  0  0  0  0
   40.7846   42.8165    6.7540 O   0  0  0  0  0  0  0  0  0  0  0  0
   34.4625   41.0710    6.0444 C   0  0  2  0  0  0  0  0  0  0  0  0
   35.0683   40.1705    6.9871 O   0  0  0  0  0  0  0  0  0  0  0  0
   44.3319   38.4842    9.4715 C   0  0  2  0  0  0  0  0  0  0  0  0
   44.0750   38.8473    8.0602 O   0  0  0  0  0  0  0  0  0  0  0  0
   43.7944   43.0380    6.5059 C   0  0  2  0  0  0  0  0  0  0  0  0
   42.8174   42.3775    5.5986 O   0  0  0  0  0  0  0  0  0  0  0  0
   39.8848   40.6827    7.2947 C   0  0  0  0  0  0  0  0  0  0  0  0
   35.0568   40.8468    4.5950 C   0  0  1  0  0  0  0  0  0  0  0  0
   36.4954   41.2714    4.5095 O   0  0  0  0  0  0  0  0  0  0  0  0
   45.2806   37.2675    9.5777 C   0  0  0  0  0  0  0  0  0  0  0  0
   46.6049   37.4560    8.9573 N   0  0  0  0  0  0  0  0  0  0  0  0
   44.7811   43.8186    5.6115 C   0  0  1  0  0  0  0  0  0  0  0  0
   44.0564   44.7506    4.8022 O   0  0  0  0  0  0  0  0  0  0  0  0
   34.8864   39.3687    4.0719 C   0  0  0  0  0  0  0  0  0  0  0  0
   35.5723   38.3007    4.8671 N   0  0  0  0  0  0  0  0  0  0  0  0
  1  2  1  1  0  0  0
  1  7  1  0  0  0  0
  1 30  1  0  0  0  0
  3  4  1  6  0  0  0
  3  9  1  0  0  0  0
  3 38  1  0  0  0  0
  5 10  1  0  0  0  0
  5 26  1  1  0  0  0
  5 32  1  0  0  0  0
  6 12  1  0  0  0  0
  6 35  1  0  0  0  0
  6 19  1  1  0  0  0
  7  8  1  1  0  0  0
  7 14  1  0  0  0  0
  8 33  1  0  0  0  0
  9 16  1  0  0  0  0
 10 11  1  6  0  0  0
 10 18  1  0  0  0  0
 12 13  1  1  0  0  0
 12 20  1  0  0  0  0
 14 15  1  6  0  0  0
 14 22  1  0  0  0  0
 16 17  1  6  0  0  0
 16 24  1  0  0  0  0
 18 19  1  6  0  0  0
 18 25  1  0  0  0  0
 20 21  1  6  0  0  0
 20 27  1  0  0  0  0
 22 23  1  1  0  0  0
 22 29  1  0  0  0  0
 24  2  1  1  0  0  0
 24 31  1  0  0  0  0
 25 26  1  6  0  0  0
 25 33  1  0  0  0  0
 27 28  1  1  0  0  0
 27 34  1  0  0  0  0
 29 30  1  0  0  0  0
 29 36  1  6  0  0  0
 31 32  1  6  0  0  0
 31 38  1  0  0  0  0
 34 35  1  0  0  0  0
 34 40  1  1  0  0  0
 36 37  1  0  0  0  0
 38 39  1  1  0  0  0
 40 41  1  0  0  0  0
M  END
>  <CHROM.1>
155.88706171,85.37001102,179.25683576,-61.83913540,40.96771810,41.35471719
6.93204137,0.21117236,0.20083550,2.48167340

>  <Name>
ligand

>  <RI>
0

>  <Rbt.Current_Directory>
/home/itssahil/PROJECTS/Mol_Feturizer/New_Systems/rnas/1ZZ5

>  <Rbt.Executable>
rbdock ($Id: //depot/dev/client3/rdock/2013.1/src/exe/rbdock.cxx#4 $)

>  <Rbt.Library>
libRbt.so (2013.1, Build901 2013/11/27)

>  <Rbt.Parameter_File>
/export/apps/rDock/src/rDock_2013.1_src/data/scripts/dock_solv.prm

>  <Rbt.Receptor>
prm/pocket_docking_7.prm

>  <SCORE>
-5.86527

>  <SCORE.INTER>
-7.70175

>  <SCORE.INTER.CONST>
1

>  <SCORE.INTER.POLAR>
0

>  <SCORE.INTER.ROT>
4

>  <SCORE.INTER.SOLV>
15.1059

>  <SCORE.INTER.VDW>
-16.4365

>  <SCORE.INTER.norm>
-0.187847

>  <SCORE.INTRA>
1.83647

>  <SCORE.INTRA.DIHEDRAL>
0.21216

>  <SCORE.INTRA.DIHEDRAL.0>
5.18357

>  <SCORE.INTRA.POLAR>
0

>  <SCORE.INTRA.POLAR.0>
0

>  <SCORE.INTRA.REPUL>
0

>  <SCORE.INTRA.REPUL.0>
0

>  <SCORE.INTRA.SOLV>
3.00902

>  <SCORE.INTRA.SOLV.lig_0>
-109.973

>  <SCORE.INTRA.VDW>
0.225883

>  <SCORE.INTRA.VDW.0>
-1.68646

>  <SCORE.INTRA.norm>
0.044792

>  <SCORE.RESTR>
0

>  <SCORE.RESTR.CAVITY>
0

>  <SCORE.RESTR.norm>
0

>  <SCORE.SYSTEM>
0

>  <SCORE.SYSTEM.CONST>
0

>  <SCORE.SYSTEM.DIHEDRAL>
0

>  <SCORE.SYSTEM.SOLV>
0

>  <SCORE.SYSTEM.norm>
0

>  <SCORE.heavy>
41

>  <SCORE.norm>
-0.143055

>  <RMSD>
10.302

$$$$
ligand
 OpenBabel11021811423D
libRbt.so/2013.1/901 2013/11/27
 41 45  0  0  0  0  0  0  0  0999 V2000
   37.5115   37.8706    6.3661 C   0  0  2  0  0  0  0  0  0  0  0  0
   37.7075   38.9951    7.2457 O   0  0  0  0  0  0  0  0  0  0  0  0
   38.5362   43.2317    6.7150 C   0  0  2  0  0  0  0  0  0  0  0  0
   39.1667   44.4781    6.2086 N   0  0  0  0  0  0  0  0  0  0  0  0
   34.7969   40.7227    5.1035 C   0  0  1  0  0  0  0  0  0  0  0  0
   30.4294   39.2054    4.2107 C   0  0  1  0  0  0  0  0  0  0  0  0
   36.3605   36.9528    6.8766 C   0  0  2  0  0  0  0  0  0  0  0  0
   35.1074   37.6794    7.1020 N   0  0  0  0  0  0  0  0  0  0  0  0
   39.6507   42.2903    7.2715 C   0  0  0  0  0  0  0  0  0  0  0  0
   34.1272   40.1046    3.8548 C   0  0  2  0  0  0  0  0  0  0  0  0
   33.6815   41.1086    2.9372 O   0  0  0  0  0  0  0  0  0  0  0  0
   30.2886   38.6190    2.7415 C   0  0  2  0  0  0  0  0  0  0  0  0
   30.4081   39.6451    1.6609 N   0  0  0  0  0  0  0  0  0  0  0  0
   36.7922   36.2236    8.1774 C   0  0  1  0  0  0  0  0  0  0  0  0
   35.7469   35.3649    8.6258 O   0  0  0  0  0  0  0  0  0  0  0  0
   39.0484   40.9606    7.8112 C   0  0  2  0  0  0  0  0  0  0  0  0
   40.1595   40.1372    8.3244 N   0  0  0  0  0  0  0  0  0  0  0  0
   32.9756   39.2526    4.4153 C   0  0  2  0  0  0  0  0  0  0  0  0
   31.6776   39.9691    4.3803 O   0  0  0  0  0  0  0  0  0  0  0  0
   28.9007   37.8451    2.5987 C   0  0  1  0  0  0  0  0  0  0  0  0
   28.8813   36.6512    3.4116 O   0  0  0  0  0  0  0  0  0  0  0  0
   38.0863   35.4178    7.9188 C   0  0  2  0  0  0  0  0  0  0  0  0
   38.4755   34.7375    9.0935 O   0  0  0  0  0  0  0  0  0  0  0  0
   38.2366   40.2387    6.6779 C   0  0  2  0  0  0  0  0  0  0  0  0
   33.4081   38.9459    5.8464 C   0  0  2  0  0  0  0  0  0  0  0  0
   34.3013   39.9847    6.2220 O   0  0  0  0  0  0  0  0  0  0  0  0
   27.6683   38.7516    3.0002 C   0  0  2  0  0  0  0  0  0  0  0  0
   27.5272   39.8109    2.0388 O   0  0  0  0  0  0  0  0  0  0  0  0
   39.2104   36.3577    7.4393 C   0  0  2  0  0  0  0  0  0  0  0  0
   38.7430   37.0591    6.2231 O   0  0  0  0  0  0  0  0  0  0  0  0
   37.0686   41.2121    6.1481 C   0  0  2  0  0  0  0  0  0  0  0  0
   36.2720   40.6101    5.0449 O   0  0  0  0  0  0  0  0  0  0  0  0
   34.1449   37.6228    5.9941 C   0  0  0  0  0  0  0  0  0  0  0  0
   27.8865   39.3397    4.4531 C   0  0  1  0  0  0  0  0  0  0  0  0
   29.2183   40.0223    4.5850 O   0  0  0  0  0  0  0  0  0  0  0  0
   40.4916   35.5376    7.1607 C   0  0  0  0  0  0  0  0  0  0  0  0
   41.6538   36.3309    6.7199 N   0  0  0  0  0  0  0  0  0  0  0  0
   37.6940   42.5100    5.5938 C   0  0  1  0  0  0  0  0  0  0  0  0
   36.6565   43.3754    5.1212 O   0  0  0  0  0  0  0  0  0  0  0  0
   26.7260   40.3009    4.9185 C   0  0  0  0  0  0  0  0  0  0  0  0
   26.4840   41.5090    4.0668 N   0  0  0  0  0  0  0  0  0  0  0  0
  1  2  1  1  0  0  0
  1  7  1  0  0  0  0
  1 30  1  0  0  0  0
  3  4  1  6  0  0  0
  3  9  1  0  0  0  0
  3 38  1  0  0  0  0
  5 10  1  0  0  0  0
  5 26  1  1  0  0  0
  5 32  1  0  0  0  0
  6 12  1  0  0  0  0
  6 35  1  0  0  0  0
  6 19  1  6  0  0  0
  7  8  1  1  0  0  0
  7 14  1  0  0  0  0
  8 33  1  0  0  0  0
  9 16  1  0  0  0  0
 10 11  1  6  0  0  0
 10 18  1  0  0  0  0
 12 13  1  6  0  0  0
 12 20  1  0  0  0  0
 14 15  1  6  0  0  0
 14 22  1  0  0  0  0
 16 17  1  6  0  0  0
 16 24  1  0  0  0  0
 18 19  1  1  0  0  0
 18 25  1  0  0  0  0
 20 21  1  1  0  0  0
 20 27  1  0  0  0  0
 22 23  1  1  0  0  0
 22 29  1  0  0  0  0
 24  2  1  1  0  0  0
 24 31  1  0  0  0  0
 25 26  1  6  0  0  0
 25 33  1  0  0  0  0
 27 28  1  6  0  0  0
 27 34  1  0  0  0  0
 29 30  1  0  0  0  0
 29 36  1  6  0  0  0
 31 32  1  6  0  0  0
 31 38  1  0  0  0  0
 34 35  1  0  0  0  0
 34 40  1  6  0  0  0
 36 37  1  0  0  0  0
 38 39  1  1  0  0  0
 40 41  1  0  0  0  0
M  END
>  <CHROM.1>
149.36781370,-70.96237490,-178.79490956,-59.34076707,34.65555618,39.18715064
5.61009906,0.16081283,0.32965171,2.90460589

>  <Name>
ligand

>  <RI>
0

>  <Rbt.Current_Directory>
/home/itssahil/PROJECTS/Mol_Feturizer/New_Systems/rnas/1ZZ5

>  <Rbt.Executable>
rbdock ($Id: //depot/dev/client3/rdock/2013.1/src/exe/rbdock.cxx#4 $)

>  <Rbt.Library>
libRbt.so (2013.1, Build901 2013/11/27)

>  <Rbt.Parameter_File>
/export/apps/rDock/src/rDock_2013.1_src/data/scripts/dock_solv.prm

>  <Rbt.Receptor>
prm/pocket_docking_6.prm

>  <SCORE>
-11.7728

>  <SCORE.INTER>
-11.9419

>  <SCORE.INTER.CONST>
1

>  <SCORE.INTER.POLAR>
0

>  <SCORE.INTER.ROT>
4

>  <SCORE.INTER.SOLV>
16.4693

>  <SCORE.INTER.VDW>
-19.7177

>  <SCORE.INTER.norm>
-0.291266

>  <SCORE.INTRA>
0.169121

>  <SCORE.INTRA.DIHEDRAL>
-0.71012

>  <SCORE.INTRA.DIHEDRAL.0>
5.18357

>  <SCORE.INTRA.POLAR>
0

>  <SCORE.INTRA.POLAR.0>
0

>  <SCORE.INTRA.REPUL>
0

>  <SCORE.INTRA.REPUL.0>
0

>  <SCORE.INTRA.SOLV>
0.782535

>  <SCORE.INTRA.SOLV.lig_0>
-109.973

>  <SCORE.INTRA.VDW>
0.132913

>  <SCORE.INTRA.VDW.0>
-1.68646

>  <SCORE.INTRA.norm>
0.00412489

>  <SCORE.RESTR>
0

>  <SCORE.RESTR.CAVITY>
0

>  <SCORE.RESTR.norm>
0

>  <SCORE.SYSTEM>
0

>  <SCORE.SYSTEM.CONST>
0

>  <SCORE.SYSTEM.DIHEDRAL>
0

>  <SCORE.SYSTEM.SOLV>
0

>  <SCORE.SYSTEM.norm>
0

>  <SCORE.heavy>
41

>  <SCORE.norm>
-0.287141

>  <RMSD>
10.365

$$$$
ligand
 OpenBabel11021811423D
libRbt.so/2013.1/901 2013/11/27
 41 45  0  0  0  0  0  0  0  0999 V2000
   37.8423   35.5256    7.5113 C   0  0  2  0  0  0  0  0  0  0  0  0
   37.9262   36.9641    7.4975 O   0  0  0  0  0  0  0  0  0  0  0  0
   35.5897   40.1837    5.7387 C   0  0  2  0  0  0  0  0  0  0  0  0
   34.8319   40.9687    4.7305 N   0  0  0  0  0  0  0  0  0  0  0  0
   34.1558   36.8410    8.8444 C   0  0  1  0  0  0  0  0  0  0  0  0
   32.6990   34.9397   12.8077 C   0  0  1  0  0  0  0  0  0  0  0  0
   38.1863   34.9570    8.9206 C   0  0  2  0  0  0  0  0  0  0  0  0
   37.3765   35.5496    9.9893 N   0  0  0  0  0  0  0  0  0  0  0  0
   37.0033   39.8520    5.1643 C   0  0  0  0  0  0  0  0  0  0  0  0
   33.3196   35.5536    9.0262 C   0  0  2  0  0  0  0  0  0  0  0  0
   31.9209   35.7963    8.8433 O   0  0  0  0  0  0  0  0  0  0  0  0
   32.3951   33.3810   12.8203 C   0  0  2  0  0  0  0  0  0  0  0  0
   31.1088   33.0047   12.1580 N   0  0  0  0  0  0  0  0  0  0  0  0
   39.6954   35.1562    9.2261 C   0  0  1  0  0  0  0  0  0  0  0  0
   40.0111   34.6106   10.5043 O   0  0  0  0  0  0  0  0  0  0  0  0
   37.8432   39.0212    6.1774 C   0  0  2  0  0  0  0  0  0  0  0  0
   39.1597   38.7602    5.5654 N   0  0  0  0  0  0  0  0  0  0  0  0
   33.6620   35.0670   10.4447 C   0  0  2  0  0  0  0  0  0  0  0  0
   32.6550   35.4972   11.4448 O   0  0  0  0  0  0  0  0  0  0  0  0
   32.4070   32.8397   14.3212 C   0  0  1  0  0  0  0  0  0  0  0  0
   33.7339   32.9009   14.8889 O   0  0  0  0  0  0  0  0  0  0  0  0
   40.5442   34.4844    8.1220 C   0  0  2  0  0  0  0  0  0  0  0  0
   41.9187   34.6465    8.4026 O   0  0  0  0  0  0  0  0  0  0  0  0
   37.0810   37.7014    6.5536 C   0  0  2  0  0  0  0  0  0  0  0  0
   35.0293   35.6842   10.7248 C   0  0  2  0  0  0  0  0  0  0  0  0
   35.1227   36.8342    9.8960 O   0  0  0  0  0  0  0  0  0  0  0  0
   31.4187   33.6481   15.2546 C   0  0  2  0  0  0  0  0  0  0  0  0
   30.0647   33.3885   14.8473 O   0  0  0  0  0  0  0  0  0  0  0  0
   40.1976   35.0860    6.7455 C   0  0  2  0  0  0  0  0  0  0  0  0
   38.7470   34.9093    6.5128 O   0  0  0  0  0  0  0  0  0  0  0  0
   35.6443   38.0690    7.1807 C   0  0  2  0  0  0  0  0  0  0  0  0
   34.8438   36.8654    7.5336 O   0  0  0  0  0  0  0  0  0  0  0  0
   36.1966   34.7694   10.3842 C   0  0  0  0  0  0  0  0  0  0  0  0
   31.7428   35.1946   15.1665 C   0  0  1  0  0  0  0  0  0  0  0  0
   31.7761   35.6780   13.7444 O   0  0  0  0  0  0  0  0  0  0  0  0
   41.0345   34.3898    5.6471 C   0  0  0  0  0  0  0  0  0  0  0  0
   40.7793   34.8668    4.2754 N   0  0  0  0  0  0  0  0  0  0  0  0
   34.8221   38.8678    6.1470 C   0  0  1  0  0  0  0  0  0  0  0  0
   33.5441   39.1939    6.7030 O   0  0  0  0  0  0  0  0  0  0  0  0
   30.7696   36.0868   16.0292 C   0  0  0  0  0  0  0  0  0  0  0  0
   31.0333   37.5611   16.0141 N   0  0  0  0  0  0  0  0  0  0  0  0
  1  2  1  1  0  0  0
  1  7  1  0  0  0  0
  1 30  1  0  0  0  0
  3  4  1  6  0  0  0
  3  9  1  0  0  0  0
  3 38  1  0  0  0  0
  5 10  1  0  0  0  0
  5 26  1  1  0  0  0
  5 32  1  0  0  0  0
  6 12  1  0  0  0  0
  6 35  1  0  0  0  0
  6 19  1  6  0  0  0
  7  8  1  1  0  0  0
  7 14  1  0  0  0  0
  8 33  1  0  0  0  0
  9 16  1  0  0  0  0
 10 11  1  1  0  0  0
 10 18  1  0  0  0  0
 12 13  1  1  0  0  0
 12 20  1  0  0  0  0
 14 15  1  1  0  0  0
 14 22  1  0  0  0  0
 16 17  1  6  0  0  0
 16 24  1  0  0  0  0
 18 19  1  1  0  0  0
 18 25  1  0  0  0  0
 20 21  1  1  0  0  0
 20 27  1  0  0  0  0
 22 23  1  1  0  0  0
 22 29  1  0  0  0  0
 24  2  1  1  0  0  0
 24 31  1  0  0  0  0
 25 26  1  6  0  0  0
 25 33  1  0  0  0  0
 27 28  1  6  0  0  0
 27 34  1  0  0  0  0
 29 30  1  0  0  0  0
 29 36  1  6  0  0  0
 31 32  1  6  0  0  0
 31 38  1  0  0  0  0
 34 35  1  0  0  0  0
 34 40  1  1  0  0  0
 36 37  1  0  0  0  0
 38 39  1  1  0  0  0
 40 41  1  0  0  0  0
M  END
>  <CHROM.1>
169.95006148,-65.57527737,179.20452069,178.89214229,35.49568881,35.96985224
9.59406060,-0.76105114,-0.43601894,2.26865389

>  <Name>
ligand

>  <RI>
0

>  <Rbt.Current_Directory>
/home/itssahil/PROJECTS/Mol_Feturizer/New_Systems/rnas/1ZZ5

>  <Rbt.Executable>
rbdock ($Id: //depot/dev/client3/rdock/2013.1/src/exe/rbdock.cxx#4 $)

>  <Rbt.Library>
libRbt.so (2013.1, Build901 2013/11/27)

>  <Rbt.Parameter_File>
/export/apps/rDock/src/rDock_2013.1_src/data/scripts/dock_solv.prm

>  <Rbt.Receptor>
prm/pocket_docking_7.prm

>  <SCORE>
-9.00728

>  <SCORE.INTER>
-6.54102

>  <SCORE.INTER.CONST>
1

>  <SCORE.INTER.POLAR>
0

>  <SCORE.INTER.ROT>
4

>  <SCORE.INTER.SOLV>
11.3659

>  <SCORE.INTER.VDW>
-14.416

>  <SCORE.INTER.norm>
-0.159537

>  <SCORE.INTRA>
-2.46626

>  <SCORE.INTRA.DIHEDRAL>
-4.31037

>  <SCORE.INTRA.DIHEDRAL.0>
5.18357

>  <SCORE.INTRA.POLAR>
0

>  <SCORE.INTRA.POLAR.0>
0

>  <SCORE.INTRA.REPUL>
0

>  <SCORE.INTRA.REPUL.0>
0

>  <SCORE.INTRA.SOLV>
-1.32929

>  <SCORE.INTRA.SOLV.lig_0>
-109.973

>  <SCORE.INTRA.VDW>
0.353568

>  <SCORE.INTRA.VDW.0>
-1.68646

>  <SCORE.INTRA.norm>
-0.0601527

>  <SCORE.RESTR>
0

>  <SCORE.RESTR.CAVITY>
0

>  <SCORE.RESTR.norm>
0

>  <SCORE.SYSTEM>
0

>  <SCORE.SYSTEM.CONST>
0

>  <SCORE.SYSTEM.DIHEDRAL>
0

>  <SCORE.SYSTEM.SOLV>
0

>  <SCORE.SYSTEM.norm>
0

>  <SCORE.heavy>
41

>  <SCORE.norm>
-0.21969

>  <RMSD>
10.378

$$$$
ligand
 OpenBabel11021811423D
libRbt.so/2013.1/901 2013/11/27
 41 45  0  0  0  0  0  0  0  0999 V2000
   27.4041   37.6362    1.6060 C   0  0  2  0  0  0  0  0  0  0  0  0
   28.1663   38.0299    0.4482 O   0  0  0  0  0  0  0  0  0  0  0  0
   29.1939   41.8100   -1.4419 C   0  0  2  0  0  0  0  0  0  0  0  0
   29.0388   43.1727   -2.0132 N   0  0  0  0  0  0  0  0  0  0  0  0
   30.1794   40.3618    3.0085 C   0  0  1  0  0  0  0  0  0  0  0  0
   32.9327   40.3656    4.8656 C   0  0  1  0  0  0  0  0  0  0  0  0
   28.1068   36.4759    2.3725 C   0  0  2  0  0  0  0  0  0  0  0  0
   29.4957   36.7834    2.7267 N   0  0  0  0  0  0  0  0  0  0  0  0
   28.1754   40.8511   -2.1356 C   0  0  0  0  0  0  0  0  0  0  0  0
   29.8366   40.5393    4.5054 C   0  0  2  0  0  0  0  0  0  0  0  0
   30.2052   41.8359    4.9865 O   0  0  0  0  0  0  0  0  0  0  0  0
   34.2818   40.6895    5.6384 C   0  0  2  0  0  0  0  0  0  0  0  0
   34.1127   41.6168    6.7988 N   0  0  0  0  0  0  0  0  0  0  0  0
   28.0494   35.1685    1.5372 C   0  0  1  0  0  0  0  0  0  0  0  0
   28.6692   34.1037    2.2535 O   0  0  0  0  0  0  0  0  0  0  0  0
   28.2868   39.4053   -1.5704 C   0  0  2  0  0  0  0  0  0  0  0  0
   27.3041   38.5657   -2.2812 N   0  0  0  0  0  0  0  0  0  0  0  0
   30.5923   39.4015    5.2128 C   0  0  2  0  0  0  0  0  0  0  0  0
   31.8907   39.8511    5.7709 O   0  0  0  0  0  0  0  0  0  0  0  0
   35.3568   41.2879    4.6226 C   0  0  1  0  0  0  0  0  0  0  0  0
   35.7805   40.2939    3.6637 O   0  0  0  0  0  0  0  0  0  0  0  0
   26.5783   34.8222    1.2109 C   0  0  2  0  0  0  0  0  0  0  0  0
   26.5172   33.6241    0.4657 O   0  0  0  0  0  0  0  0  0  0  0  0
   28.0593   39.4158   -0.0172 C   0  0  2  0  0  0  0  0  0  0  0  0
   30.7846   38.3532    4.1205 C   0  0  2  0  0  0  0  0  0  0  0  0
   30.7426   39.0547    2.8859 O   0  0  0  0  0  0  0  0  0  0  0  0
   34.8017   42.5442    3.8383 C   0  0  2  0  0  0  0  0  0  0  0  0
   34.6141   43.6317    4.7595 O   0  0  0  0  0  0  0  0  0  0  0  0
   25.9204   35.9787    0.4321 C   0  0  2  0  0  0  0  0  0  0  0  0
   26.0316   37.2097    1.2457 O   0  0  0  0  0  0  0  0  0  0  0  0
   29.1453   40.3785    0.6800 C   0  0  2  0  0  0  0  0  0  0  0  0
   28.9740   40.4683    2.1553 O   0  0  0  0  0  0  0  0  0  0  0  0
   29.6943   37.2922    4.0900 C   0  0  0  0  0  0  0  0  0  0  0  0
   33.4382   42.1721    3.1266 C   0  0  1  0  0  0  0  0  0  0  0  0
   32.4547   41.5650    4.0865 O   0  0  0  0  0  0  0  0  0  0  0  0
   24.4434   35.6314    0.1329 C   0  0  0  0  0  0  0  0  0  0  0  0
   23.6151   35.3615    1.3226 N   0  0  0  0  0  0  0  0  0  0  0  0
   28.9952   41.8102    0.1227 C   0  0  1  0  0  0  0  0  0  0  0  0
   29.9595   42.6671    0.7429 O   0  0  0  0  0  0  0  0  0  0  0  0
   32.7830   43.3843    2.3594 C   0  0  0  0  0  0  0  0  0  0  0  0
   31.8909   44.2760    3.1672 N   0  0  0  0  0  0  0  0  0  0  0  0
  1  2  1  6  0  0  0
  1  7  1  0  0  0  0
  1 30  1  0  0  0  0
  3  4  1  6  0  0  0
  3  9  1  0  0  0  0
  3 38  1  0  0  0  0
  5 10  1  0  0  0  0
  5 26  1  1  0  0  0
  5 32  1  0  0  0  0
  6 12  1  0  0  0  0
  6 35  1  0  0  0  0
  6 19  1  1  0  0  0
  7  8  1  6  0  0  0
  7 14  1  0  0  0  0
  8 33  1  0  0  0  0
  9 16  1  0  0  0  0
 10 11  1  1  0  0  0
 10 18  1  0  0  0  0
 12 13  1  1  0  0  0
 12 20  1  0  0  0  0
 14 15  1  1  0  0  0
 14 22  1  0  0  0  0
 16 17  1  6  0  0  0
 16 24  1  0  0  0  0
 18 19  1  6  0  0  0
 18 25  1  0  0  0  0
 20 21  1  6  0  0  0
 20 27  1  0  0  0  0
 22 23  1  6  0  0  0
 22 29  1  0  0  0  0
 24  2  1  1  0  0  0
 24 31  1  0  0  0  0
 25 26  1  6  0  0  0
 25 33  1  0  0  0  0
 27 28  1  1  0  0  0
 27 34  1  0  0  0  0
 29 30  1  0  0  0  0
 29 36  1  1  0  0  0
 31 32  1  1  0  0  0
 31 38  1  0  0  0  0
 34 35  1  0  0  0  0
 34 40  1  1  0  0  0
 36 37  1  0  0  0  0
 38 39  1  1  0  0  0
 40 41  1  0  0  0  0
M  END
>  <CHROM.1>
-61.77324136,-175.63446930,58.42221769,-86.89480588,29.92576301,39.45845697
2.25209484,-2.91731558,-0.74903180,-0.64985650

>  <Name>
ligand

>  <RI>
0

>  <Rbt.Current_Directory>
/home/itssahil/PROJECTS/Mol_Feturizer/New_Systems/rnas/1ZZ5

>  <Rbt.Executable>
rbdock ($Id: //depot/dev/client3/rdock/2013.1/src/exe/rbdock.cxx#4 $)

>  <Rbt.Library>
libRbt.so (2013.1, Build901 2013/11/27)

>  <Rbt.Parameter_File>
/export/apps/rDock/src/rDock_2013.1_src/data/scripts/dock_solv.prm

>  <Rbt.Receptor>
prm/blind_docking_60.prm

>  <SCORE>
78.2054

>  <SCORE.INTER>
55.6757

>  <SCORE.INTER.CONST>
1

>  <SCORE.INTER.POLAR>
0

>  <SCORE.INTER.ROT>
4

>  <SCORE.INTER.SOLV>
23.6229

>  <SCORE.INTER.VDW>
22.9762

>  <SCORE.INTER.norm>
1.35794

>  <SCORE.INTRA>
0.892913

>  <SCORE.INTRA.DIHEDRAL>
-2.66419

>  <SCORE.INTRA.DIHEDRAL.0>
5.18357

>  <SCORE.INTRA.POLAR>
0

>  <SCORE.INTRA.POLAR.0>
0

>  <SCORE.INTRA.REPUL>
0.0014428

>  <SCORE.INTRA.REPUL.0>
0

>  <SCORE.INTRA.SOLV>
4.12755

>  <SCORE.INTRA.SOLV.lig_0>
-109.973

>  <SCORE.INTRA.VDW>
0.154016

>  <SCORE.INTRA.VDW.0>
-1.68646

>  <SCORE.INTRA.norm>
0.0217784

>  <SCORE.RESTR>
21.6367

>  <SCORE.RESTR.CAVITY>
21.6367

>  <SCORE.RESTR.norm>
0.527726

>  <SCORE.SYSTEM>
0

>  <SCORE.SYSTEM.CONST>
0

>  <SCORE.SYSTEM.DIHEDRAL>
0

>  <SCORE.SYSTEM.SOLV>
0

>  <SCORE.SYSTEM.norm>
0

>  <SCORE.heavy>
41

>  <SCORE.norm>
1.90745

>  <RMSD>
10.395

$$$$
ligand
 OpenBabel11021811423D
libRbt.so/2013.1/901 2013/11/27
 41 45  0  0  0  0  0  0  0  0999 V2000
   27.3910   37.5717    1.6463 C   0  0  2  0  0  0  0  0  0  0  0  0
   28.1386   37.9888    0.4871 O   0  0  0  0  0  0  0  0  0  0  0  0
   29.0319   41.7976   -1.4136 C   0  0  2  0  0  0  0  0  0  0  0  0
   28.8288   43.1524   -1.9885 N   0  0  0  0  0  0  0  0  0  0  0  0
   30.0691   40.3970    3.0403 C   0  0  1  0  0  0  0  0  0  0  0  0
   32.8502   40.4342    4.8905 C   0  0  1  0  0  0  0  0  0  0  0  0
   28.1343   36.4389    2.4156 C   0  0  2  0  0  0  0  0  0  0  0  0
   29.5117   36.7960    2.7684 N   0  0  0  0  0  0  0  0  0  0  0  0
   28.0476   40.8015   -2.1043 C   0  0  0  0  0  0  0  0  0  0  0  0
   29.7207   40.5664    4.5369 C   0  0  2  0  0  0  0  0  0  0  0  0
   30.0436   41.8765    5.0143 O   0  0  0  0  0  0  0  0  0  0  0  0
   34.2198   40.6963    5.6506 C   0  0  2  0  0  0  0  0  0  0  0  0
   34.1014   41.6192    6.8207 N   0  0  0  0  0  0  0  0  0  0  0  0
   28.1227   35.1281    1.5839 C   0  0  1  0  0  0  0  0  0  0  0  0
   28.7799   34.0877    2.3028 O   0  0  0  0  0  0  0  0  0  0  0  0
   28.2100   39.3621   -1.5353 C   0  0  2  0  0  0  0  0  0  0  0  0
   27.2571   38.4865   -2.2434 N   0  0  0  0  0  0  0  0  0  0  0  0
   30.5163   39.4578    5.2470 C   0  0  2  0  0  0  0  0  0  0  0  0
   31.7983   39.9543    5.8034 O   0  0  0  0  0  0  0  0  0  0  0  0
   35.3069   41.2597    4.6277 C   0  0  1  0  0  0  0  0  0  0  0  0
   35.6792   40.2579    3.6556 O   0  0  0  0  0  0  0  0  0  0  0  0
   26.6646   34.7293    1.2590 C   0  0  2  0  0  0  0  0  0  0  0  0
   26.6455   33.5278    0.5172 O   0  0  0  0  0  0  0  0  0  0  0  0
   27.9827   39.3688    0.0180 C   0  0  2  0  0  0  0  0  0  0  0  0
   30.7450   38.4140    4.1574 C   0  0  2  0  0  0  0  0  0  0  0  0
   30.6780   39.1102    2.9209 O   0  0  0  0  0  0  0  0  0  0  0  0
   34.7946   42.5444    3.8605 C   0  0  2  0  0  0  0  0  0  0  0  0
   34.6616   43.6304    4.7929 O   0  0  0  0  0  0  0  0  0  0  0  0
   25.9662   35.8598    0.4775 C   0  0  2  0  0  0  0  0  0  0  0  0
   26.0343   37.0962    1.2877 O   0  0  0  0  0  0  0  0  0  0  0  0
   29.0344   40.3711    0.7122 C   0  0  2  0  0  0  0  0  0  0  0  0
   28.8605   40.4587    2.1873 O   0  0  0  0  0  0  0  0  0  0  0  0
   29.6927   37.3152    4.1303 C   0  0  0  0  0  0  0  0  0  0  0  0
   33.4093   42.2343    3.1613 C   0  0  1  0  0  0  0  0  0  0  0  0
   32.4127   41.6590    4.1272 O   0  0  0  0  0  0  0  0  0  0  0  0
   24.5022   35.4600    0.1798 C   0  0  0  0  0  0  0  0  0  0  0  0
   23.6889   35.1482    1.3696 N   0  0  0  0  0  0  0  0  0  0  0  0
   28.8339   41.7950    0.1510 C   0  0  1  0  0  0  0  0  0  0  0  0
   29.7675   42.6870    0.7685 O   0  0  0  0  0  0  0  0  0  0  0  0
   32.7955   43.4789    2.4119 C   0  0  0  0  0  0  0  0  0  0  0  0
   32.2372   43.2214    1.0461 N   0  0  0  0  0  0  0  0  0  0  0  0
  1  2  1  6  0  0  0
  1  7  1  0  0  0  0
  1 30  1  0  0  0  0
  3  4  1  6  0  0  0
  3  9  1  0  0  0  0
  3 38  1  0  0  0  0
  5 10  1  0  0  0  0
  5 26  1  1  0  0  0
  5 32  1  0  0  0  0
  6 12  1  0  0  0  0
  6 35  1  0  0  0  0
  6 19  1  1  0  0  0
  7  8  1  6  0  0  0
  7 14  1  0  0  0  0
  8 33  1  0  0  0  0
  9 16  1  0  0  0  0
 10 11  1  1  0  0  0
 10 18  1  0  0  0  0
 12 13  1  1  0  0  0
 12 20  1  0  0  0  0
 14 15  1  1  0  0  0
 14 22  1  0  0  0  0
 16 17  1  6  0  0  0
 16 24  1  0  0  0  0
 18 19  1  6  0  0  0
 18 25  1  0  0  0  0
 20 21  1  6  0  0  0
 20 27  1  0  0  0  0
 22 23  1  6  0  0  0
 22 29  1  0  0  0  0
 24  2  1  1  0  0  0
 24 31  1  0  0  0  0
 25 26  1  6  0  0  0
 25 33  1  0  0  0  0
 27 28  1  1  0  0  0
 27 34  1  0  0  0  0
 29 30  1  0  0  0  0
 29 36  1  1  0  0  0
 31 32  1  1  0  0  0
 31 38  1  0  0  0  0
 34 35  1  0  0  0  0
 34 40  1  1  0  0  0
 36 37  1  0  0  0  0
 38 39  1  1  0  0  0
 40 41  1  0  0  0  0
M  END
>  <CHROM.1>
-65.10868270,-170.63077717,57.70279454,135.53403008,29.89332816,39.41898668
2.23404983,-2.92039649,-0.74802372,-0.66691374

>  <Name>
ligand

>  <RI>
0

>  <Rbt.Current_Directory>
/home/itssahil/PROJECTS/Mol_Feturizer/New_Systems/rnas/1ZZ5

>  <Rbt.Executable>
rbdock ($Id: //depot/dev/client3/rdock/2013.1/src/exe/rbdock.cxx#4 $)

>  <Rbt.Library>
libRbt.so (2013.1, Build901 2013/11/27)

>  <Rbt.Parameter_File>
/export/apps/rDock/src/rDock_2013.1_src/data/scripts/dock_solv.prm

>  <Rbt.Receptor>
prm/blind_docking_60.prm

>  <SCORE>
82.2387

>  <SCORE.INTER>
58.1831

>  <SCORE.INTER.CONST>
1

>  <SCORE.INTER.POLAR>
0

>  <SCORE.INTER.ROT>
4

>  <SCORE.INTER.SOLV>
25.4427

>  <SCORE.INTER.VDW>
24.0412

>  <SCORE.INTER.norm>
1.4191

>  <SCORE.INTRA>
1.81585

>  <SCORE.INTRA.DIHEDRAL>
-0.0732218

>  <SCORE.INTRA.DIHEDRAL.0>
5.18357

>  <SCORE.INTRA.POLAR>
0

>  <SCORE.INTRA.POLAR.0>
0

>  <SCORE.INTRA.REPUL>
5.51325e-05

>  <SCORE.INTRA.REPUL.0>
0

>  <SCORE.INTRA.SOLV>
3.47702

>  <SCORE.INTRA.SOLV.lig_0>
-109.973

>  <SCORE.INTRA.VDW>
0.113674

>  <SCORE.INTRA.VDW.0>
-1.68646

>  <SCORE.INTRA.norm>
0.0442889

>  <SCORE.RESTR>
22.2397

>  <SCORE.RESTR.CAVITY>
22.2397

>  <SCORE.RESTR.norm>
0.542432

>  <SCORE.SYSTEM>
0

>  <SCORE.SYSTEM.CONST>
0

>  <SCORE.SYSTEM.DIHEDRAL>
0

>  <SCORE.SYSTEM.SOLV>
0

>  <SCORE.SYSTEM.norm>
0

>  <SCORE.heavy>
41

>  <SCORE.norm>
2.00582

>  <RMSD>
10.433

$$$$
ligand
 OpenBabel11021811423D
libRbt.so/2013.1/901 2013/11/27
 41 45  0  0  0  0  0  0  0  0999 V2000
   37.0290   37.9966    6.2439 C   0  0  2  0  0  0  0  0  0  0  0  0
   37.3337   39.1780    7.0106 O   0  0  0  0  0  0  0  0  0  0  0  0
   38.1493   43.3474    6.0783 C   0  0  2  0  0  0  0  0  0  0  0  0
   38.7351   44.5407    5.4149 N   0  0  0  0  0  0  0  0  0  0  0  0
   34.2261   40.8027    5.0744 C   0  0  1  0  0  0  0  0  0  0  0  0
   30.2448   40.2299    3.5224 C   0  0  1  0  0  0  0  0  0  0  0  0
   35.9302   37.1416    6.9434 C   0  0  2  0  0  0  0  0  0  0  0  0
   34.7181   37.9076    7.2488 N   0  0  0  0  0  0  0  0  0  0  0  0
   39.3069   42.4270    6.5792 C   0  0  0  0  0  0  0  0  0  0  0  0
   33.4161   40.1087    3.9554 C   0  0  2  0  0  0  0  0  0  0  0  0
   32.8843   41.0518    3.0193 O   0  0  0  0  0  0  0  0  0  0  0  0
   28.9434   41.1053    3.7721 C   0  0  2  0  0  0  0  0  0  0  0  0
   28.0700   40.5994    4.8749 N   0  0  0  0  0  0  0  0  0  0  0  0
   36.4934   36.5007    8.2404 C   0  0  1  0  0  0  0  0  0  0  0  0
   35.4936   35.6980    8.8625 O   0  0  0  0  0  0  0  0  0  0  0  0
   38.7518   41.1524    7.2788 C   0  0  2  0  0  0  0  0  0  0  0  0
   39.9027   40.3466    7.7283 N   0  0  0  0  0  0  0  0  0  0  0  0
   32.3230   39.3230    4.6997 C   0  0  2  0  0  0  0  0  0  0  0  0
   31.0376   40.0608    4.7525 O   0  0  0  0  0  0  0  0  0  0  0  0
   28.0986   41.2154    2.4231 C   0  0  1  0  0  0  0  0  0  0  0  0
   28.8037   41.9867    1.4257 O   0  0  0  0  0  0  0  0  0  0  0  0
   37.7416   35.6525    7.9036 C   0  0  2  0  0  0  0  0  0  0  0  0
   38.2493   35.0520    9.0766 O   0  0  0  0  0  0  0  0  0  0  0  0
   37.8120   40.3662    6.2975 C   0  0  2  0  0  0  0  0  0  0  0  0
   32.9064   39.1129    6.0942 C   0  0  2  0  0  0  0  0  0  0  0  0
   33.8477   40.1583    6.2919 O   0  0  0  0  0  0  0  0  0  0  0  0
   27.7557   39.7956    1.8165 C   0  0  2  0  0  0  0  0  0  0  0  0
   26.8426   39.1146    2.6934 O   0  0  0  0  0  0  0  0  0  0  0  0
   38.8173   36.5323    7.2361 C   0  0  2  0  0  0  0  0  0  0  0  0
   38.2276   37.1524    6.0289 O   0  0  0  0  0  0  0  0  0  0  0  0
   36.6045   41.3215    5.8265 C   0  0  2  0  0  0  0  0  0  0  0  0
   35.6845   40.6567    4.8644 O   0  0  0  0  0  0  0  0  0  0  0  0
   33.6392   37.7896    6.2593 C   0  0  0  0  0  0  0  0  0  0  0  0
   29.0847   38.9567    1.6313 C   0  0  1  0  0  0  0  0  0  0  0  0
   29.8924   38.9037    2.8970 O   0  0  0  0  0  0  0  0  0  0  0  0
   40.0504   35.6687    6.8819 C   0  0  0  0  0  0  0  0  0  0  0  0
   41.1588   36.4008    6.2418 N   0  0  0  0  0  0  0  0  0  0  0  0
   37.1806   42.5628    5.1122 C   0  0  1  0  0  0  0  0  0  0  0  0
   36.1078   43.4120    4.6919 O   0  0  0  0  0  0  0  0  0  0  0  0
   28.8328   37.5018    1.0770 C   0  0  0  0  0  0  0  0  0  0  0  0
   27.9979   36.6010    1.9342 N   0  0  0  0  0  0  0  0  0  0  0  0
  1  2  1  1  0  0  0
  1  7  1  0  0  0  0
  1 30  1  0  0  0  0
  3  4  1  6  0  0  0
  3  9  1  0  0  0  0
  3 38  1  0  0  0  0
  5 10  1  0  0  0  0
  5 26  1  1  0  0  0
  5 32  1  0  0  0  0
  6 12  1  0  0  0  0
  6 35  1  0  0  0  0
  6 19  1  1  0  0  0
  7  8  1  1  0  0  0
  7 14  1  0  0  0  0
  8 33  1  0  0  0  0
  9 16  1  0  0  0  0
 10 11  1  6  0  0  0
 10 18  1  0  0  0  0
 12 13  1  1  0  0  0
 12 20  1  0  0  0  0
 14 15  1  6  0  0  0
 14 22  1  0  0  0  0
 16 17  1  6  0  0  0
 16 24  1  0  0  0  0
 18 19  1  1  0  0  0
 18 25  1  0  0  0  0
 20 21  1  6  0  0  0
 20 27  1  0  0  0  0
 22 23  1  1  0  0  0
 22 29  1  0  0  0  0
 24  2  1  1  0  0  0
 24 31  1  0  0  0  0
 25 26  1  6  0  0  0
 25 33  1  0  0  0  0
 27 28  1  1  0  0  0
 27 34  1  0  0  0  0
 29 30  1  0  0  0  0
 29 36  1  6  0  0  0
 31 32  1  6  0  0  0
 31 38  1  0  0  0  0
 34 35  1  0  0  0  0
 34 40  1  1  0  0  0
 36 37  1  0  0  0  0
 38 39  1  1  0  0  0
 40 41  1  0  0  0  0
M  END
>  <CHROM.1>
70.59522661,-177.21369004,-179.64023670,-61.60689030,34.32469366,39.39146337
5.26279315,0.22251868,0.38349778,2.85940141

>  <Name>
ligand

>  <RI>
0

>  <Rbt.Current_Directory>
/home/itssahil/PROJECTS/Mol_Feturizer/New_Systems/rnas/1ZZ5

>  <Rbt.Executable>
rbdock ($Id: //depot/dev/client3/rdock/2013.1/src/exe/rbdock.cxx#4 $)

>  <Rbt.Library>
libRbt.so (2013.1, Build901 2013/11/27)

>  <Rbt.Parameter_File>
/export/apps/rDock/src/rDock_2013.1_src/data/scripts/dock_solv.prm

>  <Rbt.Receptor>
prm/pocket_docking_6.prm

>  <SCORE>
-10.8879

>  <SCORE.INTER>
-9.24354

>  <SCORE.INTER.CONST>
1

>  <SCORE.INTER.POLAR>
0

>  <SCORE.INTER.ROT>
4

>  <SCORE.INTER.SOLV>
18.6736

>  <SCORE.INTER.VDW>
-18.6536

>  <SCORE.INTER.norm>
-0.225452

>  <SCORE.INTRA>
-1.64439

>  <SCORE.INTRA.DIHEDRAL>
-4.36554

>  <SCORE.INTRA.DIHEDRAL.0>
5.18357

>  <SCORE.INTRA.POLAR>
0

>  <SCORE.INTRA.POLAR.0>
0

>  <SCORE.INTRA.REPUL>
0

>  <SCORE.INTRA.REPUL.0>
0

>  <SCORE.INTRA.SOLV>
0.271158

>  <SCORE.INTRA.SOLV.lig_0>
-109.973

>  <SCORE.INTRA.VDW>
0.402804

>  <SCORE.INTRA.VDW.0>
-1.68646

>  <SCORE.INTRA.norm>
-0.040107

>  <SCORE.RESTR>
0

>  <SCORE.RESTR.CAVITY>
0

>  <SCORE.RESTR.norm>
0

>  <SCORE.SYSTEM>
0

>  <SCORE.SYSTEM.CONST>
0

>  <SCORE.SYSTEM.DIHEDRAL>
0

>  <SCORE.SYSTEM.SOLV>
0

>  <SCORE.SYSTEM.norm>
0

>  <SCORE.heavy>
41

>  <SCORE.norm>
-0.265559

>  <RMSD>
10.479

$$$$
ligand
 OpenBabel11021811423D
libRbt.so/2013.1/901 2013/11/27
 41 45  0  0  0  0  0  0  0  0999 V2000
   44.0971   40.2889    7.6002 C   0  0  2  0  0  0  0  0  0  0  0  0
   44.2548   41.6302    8.1030 O   0  0  0  0  0  0  0  0  0  0  0  0
   45.2695   45.4868    6.3668 C   0  0  2  0  0  0  0  0  0  0  0  0
   45.9832   46.5102    5.5602 N   0  0  0  0  0  0  0  0  0  0  0  0
   41.5996   42.6216    5.2724 C   0  0  1  0  0  0  0  0  0  0  0  0
   37.2519   41.1986    5.0679 C   0  0  1  0  0  0  0  0  0  0  0  0
   42.8760   39.5819    8.2609 C   0  0  2  0  0  0  0  0  0  0  0  0
   41.6335   40.3496    8.1339 N   0  0  0  0  0  0  0  0  0  0  0  0
   46.2993   44.7591    7.2876 C   0  0  0  0  0  0  0  0  0  0  0  0
   41.0193   41.6495    4.2198 C   0  0  2  0  0  0  0  0  0  0  0  0
   40.6886   42.3206    2.9996 O   0  0  0  0  0  0  0  0  0  0  0  0
   36.0139   42.0200    4.5068 C   0  0  2  0  0  0  0  0  0  0  0  0
   36.1135   43.4962    4.7209 N   0  0  0  0  0  0  0  0  0  0  0  0
   43.1691   39.2912    9.7575 C   0  0  1  0  0  0  0  0  0  0  0  0
   42.0605   38.6205   10.3510 O   0  0  0  0  0  0  0  0  0  0  0  0
   45.6080   43.6666    8.1541 C   0  0  2  0  0  0  0  0  0  0  0  0
   46.6422   43.0377    8.9972 N   0  0  0  0  0  0  0  0  0  0  0  0
   39.7955   41.0205    4.9075 C   0  0  2  0  0  0  0  0  0  0  0  0
   38.5304   41.6978    4.5328 O   0  0  0  0  0  0  0  0  0  0  0  0
   34.6627   41.4715    5.1542 C   0  0  1  0  0  0  0  0  0  0  0  0
   34.3737   40.1298    4.7037 O   0  0  0  0  0  0  0  0  0  0  0  0
   44.4525   38.4378    9.8815 C   0  0  2  0  0  0  0  0  0  0  0  0
   44.7158   38.1547   11.2397 O   0  0  0  0  0  0  0  0  0  0  0  0
   44.8727   42.6325    7.2298 C   0  0  2  0  0  0  0  0  0  0  0  0
   40.0926   41.1719    6.3967 C   0  0  2  0  0  0  0  0  0  0  0  0
   40.9849   42.2711    6.5134 O   0  0  0  0  0  0  0  0  0  0  0  0
   34.7144   41.4751    6.7350 C   0  0  2  0  0  0  0  0  0  0  0  0
   34.7479   42.8335    7.2041 O   0  0  0  0  0  0  0  0  0  0  0  0
   45.6450   39.1756    9.2408 C   0  0  2  0  0  0  0  0  0  0  0  0
   45.3080   39.4664    7.8296 O   0  0  0  0  0  0  0  0  0  0  0  0
   43.7884   43.3992    6.3194 C   0  0  2  0  0  0  0  0  0  0  0  0
   43.0697   42.4883    5.3879 O   0  0  0  0  0  0  0  0  0  0  0  0
   40.7686   39.9564    7.0139 C   0  0  0  0  0  0  0  0  0  0  0  0
   35.9894   40.6800    7.2313 C   0  0  1  0  0  0  0  0  0  0  0  0
   37.2470   41.1761    6.5757 O   0  0  0  0  0  0  0  0  0  0  0  0
   46.9168   38.3025    9.3491 C   0  0  0  0  0  0  0  0  0  0  0  0
   46.8600   37.0274    8.6108 N   0  0  0  0  0  0  0  0  0  0  0  0
   44.5029   44.4567    5.4510 C   0  0  1  0  0  0  0  0  0  0  0  0
   43.5399   45.1379    4.6403 O   0  0  0  0  0  0  0  0  0  0  0  0
   36.1508   40.6751    8.8002 C   0  0  0  0  0  0  0  0  0  0  0  0
   36.3138   42.0127    9.4541 N   0  0  0  0  0  0  0  0  0  0  0  0
  1  2  1  1  0  0  0
  1  7  1  0  0  0  0
  1 30  1  0  0  0  0
  3  4  1  6  0  0  0
  3  9  1  0  0  0  0
  3 38  1  0  0  0  0
  5 10  1  0  0  0  0
  5 26  1  1  0  0  0
  5 32  1  0  0  0  0
  6 12  1  0  0  0  0
  6 35  1  0  0  0  0
  6 19  1  1  0  0  0
  7  8  1  1  0  0  0
  7 14  1  0  0  0  0
  8 33  1  0  0  0  0
  9 16  1  0  0  0  0
 10 11  1  6  0  0  0
 10 18  1  0  0  0  0
 12 13  1  1  0  0  0
 12 20  1  0  0  0  0
 14 15  1  6  0  0  0
 14 22  1  0  0  0  0
 16 17  1  6  0  0  0
 16 24  1  0  0  0  0
 18 19  1  1  0  0  0
 18 25  1  0  0  0  0
 20 21  1  6  0  0  0
 20 27  1  0  0  0  0
 22 23  1  1  0  0  0
 22 29  1  0  0  0  0
 24  2  1  1  0  0  0
 24 31  1  0  0  0  0
 25 26  1  6  0  0  0
 25 33  1  0  0  0  0
 27 28  1  6  0  0  0
 27 34  1  0  0  0  0
 29 30  1  0  0  0  0
 29 36  1  6  0  0  0
 31 32  1  6  0  0  0
 31 38  1  0  0  0  0
 34 35  1  0  0  0  0
 34 40  1  1  0  0  0
 36 37  1  0  0  0  0
 38 39  1  1  0  0  0
 40 41  1  0  0  0  0
M  END
>  <CHROM.1>
178.13523938,-177.79412663,63.76070631,-60.98408086,41.40670303,41.49746193
6.96570554,0.17915517,0.16518720,2.48571737

>  <Name>
ligand

>  <RI>
0

>  <Rbt.Current_Directory>
/home/itssahil/PROJECTS/Mol_Feturizer/New_Systems/rnas/1ZZ5

>  <Rbt.Executable>
rbdock ($Id: //depot/dev/client3/rdock/2013.1/src/exe/rbdock.cxx#4 $)

>  <Rbt.Library>
libRbt.so (2013.1, Build901 2013/11/27)

>  <Rbt.Parameter_File>
/export/apps/rDock/src/rDock_2013.1_src/data/scripts/dock_solv.prm

>  <Rbt.Receptor>
prm/pocket_docking_5.prm

>  <SCORE>
-4.64328

>  <SCORE.INTER>
-3.43871

>  <SCORE.INTER.CONST>
1

>  <SCORE.INTER.POLAR>
0

>  <SCORE.INTER.ROT>
4

>  <SCORE.INTER.SOLV>
15.7012

>  <SCORE.INTER.VDW>
-13.7929

>  <SCORE.INTER.norm>
-0.0838711

>  <SCORE.INTRA>
-1.59221

>  <SCORE.INTRA.DIHEDRAL>
-4.85177

>  <SCORE.INTRA.DIHEDRAL.0>
5.18357

>  <SCORE.INTRA.POLAR>
0

>  <SCORE.INTRA.POLAR.0>
0

>  <SCORE.INTRA.REPUL>
0

>  <SCORE.INTRA.REPUL.0>
0

>  <SCORE.INTRA.SOLV>
1.45091

>  <SCORE.INTRA.SOLV.lig_0>
-109.973

>  <SCORE.INTRA.VDW>
0.108217

>  <SCORE.INTRA.VDW.0>
-1.68646

>  <SCORE.INTRA.norm>
-0.0388344

>  <SCORE.RESTR>
0.387646

>  <SCORE.RESTR.CAVITY>
0.387646

>  <SCORE.RESTR.norm>
0.00945478

>  <SCORE.SYSTEM>
0

>  <SCORE.SYSTEM.CONST>
0

>  <SCORE.SYSTEM.DIHEDRAL>
0

>  <SCORE.SYSTEM.SOLV>
0

>  <SCORE.SYSTEM.norm>
0

>  <SCORE.heavy>
41

>  <SCORE.norm>
-0.113251

>  <RMSD>
10.542

$$$$
ligand
 OpenBabel11021811423D
libRbt.so/2013.1/901 2013/11/27
 41 45  0  0  0  0  0  0  0  0999 V2000
   37.2495   37.9843    5.9491 C   0  0  2  0  0  0  0  0  0  0  0  0
   37.4615   39.1215    6.8084 O   0  0  0  0  0  0  0  0  0  0  0  0
   38.1452   43.3738    6.2022 C   0  0  2  0  0  0  0  0  0  0  0  0
   38.7137   44.6320    5.6534 N   0  0  0  0  0  0  0  0  0  0  0  0
   34.3948   40.7513    4.8122 C   0  0  1  0  0  0  0  0  0  0  0  0
   30.0288   39.1099    4.1663 C   0  0  1  0  0  0  0  0  0  0  0  0
   36.1527   37.0407    6.5274 C   0  0  2  0  0  0  0  0  0  0  0  0
   34.8941   37.7356    6.8142 N   0  0  0  0  0  0  0  0  0  0  0  0
   39.3129   42.4676    6.7053 C   0  0  0  0  0  0  0  0  0  0  0  0
   33.6766   40.1044    3.6059 C   0  0  2  0  0  0  0  0  0  0  0  0
   33.1555   41.0878    2.7059 O   0  0  0  0  0  0  0  0  0  0  0  0
   29.7852   38.5713    2.6922 C   0  0  2  0  0  0  0  0  0  0  0  0
   29.7842   39.6383    1.6452 N   0  0  0  0  0  0  0  0  0  0  0  0
   36.6728   36.3350    7.8087 C   0  0  1  0  0  0  0  0  0  0  0  0
   35.6766   35.4528    8.3189 O   0  0  0  0  0  0  0  0  0  0  0  0
   38.7767   41.1272    7.2865 C   0  0  2  0  0  0  0  0  0  0  0  0
   39.9355   40.3384    7.7457 N   0  0  0  0  0  0  0  0  0  0  0  0
   32.5801   39.2269    4.2336 C   0  0  2  0  0  0  0  0  0  0  0  0
   31.2631   39.9082    4.2627 O   0  0  0  0  0  0  0  0  0  0  0  0
   28.4143   37.7573    2.6334 C   0  0  1  0  0  0  0  0  0  0  0  0
   28.4981   36.5354    3.3994 O   0  0  0  0  0  0  0  0  0  0  0  0
   37.9727   35.5618    7.4873 C   0  0  2  0  0  0  0  0  0  0  0  0
   38.4423   34.9028    8.6446 O   0  0  0  0  0  0  0  0  0  0  0  0
   37.9255   40.3736    6.2038 C   0  0  2  0  0  0  0  0  0  0  0  0
   33.0965   38.9448    5.6417 C   0  0  2  0  0  0  0  0  0  0  0  0
   33.9799   40.0105    5.9611 O   0  0  0  0  0  0  0  0  0  0  0  0
   27.1923   38.6075    3.1678 C   0  0  2  0  0  0  0  0  0  0  0  0
   26.9405   39.6949    2.2620 O   0  0  0  0  0  0  0  0  0  0  0  0
   39.0436   36.5270    6.9412 C   0  0  2  0  0  0  0  0  0  0  0  0
   38.4931   37.2048    5.7466 O   0  0  0  0  0  0  0  0  0  0  0  0
   36.7049   41.3107    5.7299 C   0  0  2  0  0  0  0  0  0  0  0  0
   35.8673   40.6777    4.6756 O   0  0  0  0  0  0  0  0  0  0  0  0
   33.8758   37.6433    5.7598 C   0  0  0  0  0  0  0  0  0  0  0  0
   27.5116   39.1509    4.6194 C   0  0  1  0  0  0  0  0  0  0  0  0
   28.8286   39.8724    4.6684 O   0  0  0  0  0  0  0  0  0  0  0  0
   40.3300   35.7390    6.6006 C   0  0  0  0  0  0  0  0  0  0  0  0
   41.4386   36.5565    6.0745 N   0  0  0  0  0  0  0  0  0  0  0  0
   37.2643   42.6198    5.1331 C   0  0  1  0  0  0  0  0  0  0  0  0
   36.1800   43.4529    4.7103 O   0  0  0  0  0  0  0  0  0  0  0  0
   26.3649   40.0560    5.2137 C   0  0  0  0  0  0  0  0  0  0  0  0
   26.0927   41.3401    4.4923 N   0  0  0  0  0  0  0  0  0  0  0  0
  1  2  1  1  0  0  0
  1  7  1  0  0  0  0
  1 30  1  0  0  0  0
  3  4  1  6  0  0  0
  3  9  1  0  0  0  0
  3 38  1  0  0  0  0
  5 10  1  0  0  0  0
  5 26  1  1  0  0  0
  5 32  1  0  0  0  0
  6 12  1  0  0  0  0
  6 35  1  0  0  0  0
  6 19  1  6  0  0  0
  7  8  1  1  0  0  0
  7 14  1  0  0  0  0
  8 33  1  0  0  0  0
  9 16  1  0  0  0  0
 10 11  1  6  0  0  0
 10 18  1  0  0  0  0
 12 13  1  6  0  0  0
 12 20  1  0  0  0  0
 14 15  1  6  0  0  0
 14 22  1  0  0  0  0
 16 17  1  6  0  0  0
 16 24  1  0  0  0  0
 18 19  1  1  0  0  0
 18 25  1  0  0  0  0
 20 21  1  1  0  0  0
 20 27  1  0  0  0  0
 22 23  1  1  0  0  0
 22 29  1  0  0  0  0
 24  2  1  1  0  0  0
 24 31  1  0  0  0  0
 25 26  1  6  0  0  0
 25 33  1  0  0  0  0
 27 28  1  6  0  0  0
 27 34  1  0  0  0  0
 29 30  1  0  0  0  0
 29 36  1  6  0  0  0
 31 32  1  6  0  0  0
 31 38  1  0  0  0  0
 34 35  1  0  0  0  0
 34 40  1  6  0  0  0
 36 37  1  0  0  0  0
 38 39  1  1  0  0  0
 40 41  1  0  0  0  0
M  END
>  <CHROM.1>
149.38169202,-74.03012579,-179.61294024,-64.12326273,34.31906519,39.22453779
5.35319023,0.12100726,0.27791573,2.90802077

>  <Name>
ligand

>  <RI>
0

>  <Rbt.Current_Directory>
/home/itssahil/PROJECTS/Mol_Feturizer/New_Systems/rnas/1ZZ5

>  <Rbt.Executable>
rbdock ($Id: //depot/dev/client3/rdock/2013.1/src/exe/rbdock.cxx#4 $)

>  <Rbt.Library>
libRbt.so (2013.1, Build901 2013/11/27)

>  <Rbt.Parameter_File>
/export/apps/rDock/src/rDock_2013.1_src/data/scripts/dock_solv.prm

>  <Rbt.Receptor>
prm/pocket_docking_7.prm

>  <SCORE>
-12.8976

>  <SCORE.INTER>
-13.1913

>  <SCORE.INTER.CONST>
1

>  <SCORE.INTER.POLAR>
0

>  <SCORE.INTER.ROT>
4

>  <SCORE.INTER.SOLV>
19.6837

>  <SCORE.INTER.VDW>
-21.6221

>  <SCORE.INTER.norm>
-0.32174

>  <SCORE.INTRA>
0.293716

>  <SCORE.INTRA.DIHEDRAL>
-0.307294

>  <SCORE.INTRA.DIHEDRAL.0>
5.18357

>  <SCORE.INTRA.POLAR>
0

>  <SCORE.INTRA.POLAR.0>
0

>  <SCORE.INTRA.REPUL>
0

>  <SCORE.INTRA.REPUL.0>
0

>  <SCORE.INTRA.SOLV>
0.700373

>  <SCORE.INTRA.SOLV.lig_0>
-109.973

>  <SCORE.INTRA.VDW>
0.097176

>  <SCORE.INTRA.VDW.0>
-1.68646

>  <SCORE.INTRA.norm>
0.00716379

>  <SCORE.RESTR>
0

>  <SCORE.RESTR.CAVITY>
0

>  <SCORE.RESTR.norm>
0

>  <SCORE.SYSTEM>
0

>  <SCORE.SYSTEM.CONST>
0

>  <SCORE.SYSTEM.DIHEDRAL>
0

>  <SCORE.SYSTEM.SOLV>
0

>  <SCORE.SYSTEM.norm>
0

>  <SCORE.heavy>
41

>  <SCORE.norm>
-0.314576

>  <RMSD>
10.544

$$$$
ligand
 OpenBabel11021811423D
libRbt.so/2013.1/901 2013/11/27
 41 45  0  0  0  0  0  0  0  0999 V2000
   44.1984   39.9958    7.2190 C   0  0  2  0  0  0  0  0  0  0  0  0
   44.3325   41.2616    7.8945 O   0  0  0  0  0  0  0  0  0  0  0  0
   45.1796   45.3483    6.6702 C   0  0  2  0  0  0  0  0  0  0  0  0
   45.8376   46.4941    5.9909 N   0  0  0  0  0  0  0  0  0  0  0  0
   41.5625   42.5366    5.2971 C   0  0  1  0  0  0  0  0  0  0  0  0
   37.2408   40.8972    4.7730 C   0  0  1  0  0  0  0  0  0  0  0  0
   43.0196   39.1662    7.8105 C   0  0  2  0  0  0  0  0  0  0  0  0
   41.7519   39.9024    7.8223 N   0  0  0  0  0  0  0  0  0  0  0  0
   46.2584   44.5378    7.4558 C   0  0  0  0  0  0  0  0  0  0  0  0
   40.9781   41.6963    4.1385 C   0  0  2  0  0  0  0  0  0  0  0  0
   40.5901   42.5142    3.0299 O   0  0  0  0  0  0  0  0  0  0  0  0
   35.9737   41.8401    4.6068 C   0  0  2  0  0  0  0  0  0  0  0  0
   36.0230   43.0809    5.4392 N   0  0  0  0  0  0  0  0  0  0  0  0
   43.3677   38.6866    9.2455 C   0  0  1  0  0  0  0  0  0  0  0  0
   42.2982   37.9057    9.7723 O   0  0  0  0  0  0  0  0  0  0  0  0
   45.6267   43.3164    8.1845 C   0  0  2  0  0  0  0  0  0  0  0  0
   46.7046   42.6142    8.9064 N   0  0  0  0  0  0  0  0  0  0  0  0
   39.7953   40.9403    4.7674 C   0  0  2  0  0  0  0  0  0  0  0  0
   38.4999   41.6196    4.5223 O   0  0  0  0  0  0  0  0  0  0  0  0
   34.6440   41.0224    4.9367 C   0  0  1  0  0  0  0  0  0  0  0  0
   34.4001   39.9989    3.9468 O   0  0  0  0  0  0  0  0  0  0  0  0
   44.6787   37.8672    9.2179 C   0  0  2  0  0  0  0  0  0  0  0  0
   44.9924   37.4127   10.5176 O   0  0  0  0  0  0  0  0  0  0  0  0
   44.8933   42.3923    7.1489 C   0  0  2  0  0  0  0  0  0  0  0  0
   40.1342   40.8996    6.2549 C   0  0  2  0  0  0  0  0  0  0  0  0
   40.9973   42.0020    6.4953 O   0  0  0  0  0  0  0  0  0  0  0  0
   34.6998   40.3437    6.3642 C   0  0  2  0  0  0  0  0  0  0  0  0
   34.6878   41.3659    7.3748 O   0  0  0  0  0  0  0  0  0  0  0  0
   45.8285   38.7236    8.6512 C   0  0  2  0  0  0  0  0  0  0  0  0
   45.4394   39.1905    7.3020 O   0  0  0  0  0  0  0  0  0  0  0  0
   43.7592   43.2382    6.3803 C   0  0  2  0  0  0  0  0  0  0  0  0
   43.0386   42.4377    5.3538 O   0  0  0  0  0  0  0  0  0  0  0  0
   40.8643   39.6351    6.6831 C   0  0  0  0  0  0  0  0  0  0  0  0
   36.0028   39.4537    6.4838 C   0  0  1  0  0  0  0  0  0  0  0  0
   37.2407   40.2247    6.1228 O   0  0  0  0  0  0  0  0  0  0  0  0
   47.1281   37.8864    8.6058 C   0  0  0  0  0  0  0  0  0  0  0  0
   47.1913   36.8957    7.5155 N   0  0  0  0  0  0  0  0  0  0  0  0
   44.4151   44.4261    5.6444 C   0  0  1  0  0  0  0  0  0  0  0  0
   43.4078   45.1780    4.9597 O   0  0  0  0  0  0  0  0  0  0  0  0
   36.1685   38.7760    7.8983 C   0  0  0  0  0  0  0  0  0  0  0  0
   35.0878   37.8232    8.3076 N   0  0  0  0  0  0  0  0  0  0  0  0
  1  2  1  1  0  0  0
  1  7  1  0  0  0  0
  1 30  1  0  0  0  0
  3  4  1  6  0  0  0
  3  9  1  0  0  0  0
  3 38  1  0  0  0  0
  5 10  1  0  0  0  0
  5 26  1  1  0  0  0
  5 32  1  0  0  0  0
  6 12  1  0  0  0  0
  6 35  1  0  0  0  0
  6 19  1  1  0  0  0
  7  8  1  1  0  0  0
  7 14  1  0  0  0  0
  8 33  1  0  0  0  0
  9 16  1  0  0  0  0
 10 11  1  6  0  0  0
 10 18  1  0  0  0  0
 12 13  1  1  0  0  0
 12 20  1  0  0  0  0
 14 15  1  6  0  0  0
 14 22  1  0  0  0  0
 16 17  1  6  0  0  0
 16 24  1  0  0  0  0
 18 19  1  1  0  0  0
 18 25  1  0  0  0  0
 20 21  1  6  0  0  0
 20 27  1  0  0  0  0
 22 23  1  1  0  0  0
 22 29  1  0  0  0  0
 24  2  1  1  0  0  0
 24 31  1  0  0  0  0
 25 26  1  6  0  0  0
 25 33  1  0  0  0  0
 27 28  1  1  0  0  0
 27 34  1  0  0  0  0
 29 30  1  0  0  0  0
 29 36  1  6  0  0  0
 31 32  1  6  0  0  0
 31 38  1  0  0  0  0
 34 35  1  0  0  0  0
 34 40  1  1  0  0  0
 36 37  1  0  0  0  0
 38 39  1  1  0  0  0
 40 41  1  0  0  0  0
M  END
>  <CHROM.1>
165.97674660,173.67923090,75.66318700,61.65220616,41.41472896,41.00360908
6.71986492,0.05645156,0.21235379,2.64110454

>  <Name>
ligand

>  <RI>
0

>  <Rbt.Current_Directory>
/home/itssahil/PROJECTS/Mol_Feturizer/New_Systems/rnas/1ZZ5

>  <Rbt.Executable>
rbdock ($Id: //depot/dev/client3/rdock/2013.1/src/exe/rbdock.cxx#4 $)

>  <Rbt.Library>
libRbt.so (2013.1, Build901 2013/11/27)

>  <Rbt.Parameter_File>
/export/apps/rDock/src/rDock_2013.1_src/data/scripts/dock_solv.prm

>  <Rbt.Receptor>
prm/pocket_docking_4.prm

>  <SCORE>
-2.93104

>  <SCORE.INTER>
-2.24186

>  <SCORE.INTER.CONST>
1

>  <SCORE.INTER.POLAR>
0

>  <SCORE.INTER.ROT>
4

>  <SCORE.INTER.SOLV>
12.04

>  <SCORE.INTER.VDW>
-11.7746

>  <SCORE.INTER.norm>
-0.0546795

>  <SCORE.INTRA>
-1.41814

>  <SCORE.INTRA.DIHEDRAL>
-2.99753

>  <SCORE.INTRA.DIHEDRAL.0>
5.18357

>  <SCORE.INTRA.POLAR>
0

>  <SCORE.INTRA.POLAR.0>
0

>  <SCORE.INTRA.REPUL>
0

>  <SCORE.INTRA.REPUL.0>
0

>  <SCORE.INTRA.SOLV>
0.0224492

>  <SCORE.INTRA.SOLV.lig_0>
-109.973

>  <SCORE.INTRA.VDW>
0.0693983

>  <SCORE.INTRA.VDW.0>
-1.68646

>  <SCORE.INTRA.norm>
-0.0345889

>  <SCORE.RESTR>
0.728959

>  <SCORE.RESTR.CAVITY>
0.728959

>  <SCORE.RESTR.norm>
0.0177795

>  <SCORE.SYSTEM>
0

>  <SCORE.SYSTEM.CONST>
0

>  <SCORE.SYSTEM.DIHEDRAL>
0

>  <SCORE.SYSTEM.SOLV>
0

>  <SCORE.SYSTEM.norm>
0

>  <SCORE.heavy>
41

>  <SCORE.norm>
-0.0714889

>  <RMSD>
10.572

$$$$
ligand
 OpenBabel11021811423D
libRbt.so/2013.1/901 2013/11/27
 41 45  0  0  0  0  0  0  0  0999 V2000
   37.0712   37.9298    6.5617 C   0  0  2  0  0  0  0  0  0  0  0  0
   37.3181   39.2013    7.1933 O   0  0  0  0  0  0  0  0  0  0  0  0
   37.9981   43.2665    5.8044 C   0  0  2  0  0  0  0  0  0  0  0  0
   38.5523   44.3987    5.0180 N   0  0  0  0  0  0  0  0  0  0  0  0
   34.1902   40.4755    5.0398 C   0  0  1  0  0  0  0  0  0  0  0  0
   30.1769   39.4204    3.5732 C   0  0  1  0  0  0  0  0  0  0  0  0
   35.9915   37.1179    7.3380 C   0  0  2  0  0  0  0  0  0  0  0  0
   34.7467   37.8664    7.5366 N   0  0  0  0  0  0  0  0  0  0  0  0
   39.1790   42.4540    6.4235 C   0  0  0  0  0  0  0  0  0  0  0  0
   33.4272   39.6287    3.9955 C   0  0  2  0  0  0  0  0  0  0  0  0
   32.8790   40.4386    2.9504 O   0  0  0  0  0  0  0  0  0  0  0  0
   29.0114   40.4986    3.5380 C   0  0  2  0  0  0  0  0  0  0  0  0
   28.1729   40.5314    4.7752 N   0  0  0  0  0  0  0  0  0  0  0  0
   36.5533   36.6501    8.7076 C   0  0  1  0  0  0  0  0  0  0  0  0
   35.5719   35.8852    9.4025 O   0  0  0  0  0  0  0  0  0  0  0  0
   38.6578   41.2464    7.2556 C   0  0  2  0  0  0  0  0  0  0  0  0
   39.8287   40.5415    7.8106 N   0  0  0  0  0  0  0  0  0  0  0  0
   32.3498   38.8909    4.8084 C   0  0  2  0  0  0  0  0  0  0  0  0
   31.0375   39.5800    4.7581 O   0  0  0  0  0  0  0  0  0  0  0  0
   28.0832   40.2503    2.2643 C   0  0  1  0  0  0  0  0  0  0  0  0
   28.7947   40.5236    1.0371 O   0  0  0  0  0  0  0  0  0  0  0  0
   37.8377   35.8179    8.4878 C   0  0  2  0  0  0  0  0  0  0  0  0
   38.3449   35.3740    9.7287 O   0  0  0  0  0  0  0  0  0  0  0  0
   37.7659   40.3186    6.3566 C   0  0  2  0  0  0  0  0  0  0  0  0
   32.9141   38.8626    6.2260 C   0  0  2  0  0  0  0  0  0  0  0  0
   33.8127   39.9591    6.3172 O   0  0  0  0  0  0  0  0  0  0  0  0
   27.5288   38.7701    2.2097 C   0  0  2  0  0  0  0  0  0  0  0  0
   26.6127   38.5676    3.2989 O   0  0  0  0  0  0  0  0  0  0  0  0
   38.8930   36.6571    7.7401 C   0  0  2  0  0  0  0  0  0  0  0  0
   38.3037   37.1134    6.4617 O   0  0  0  0  0  0  0  0  0  0  0  0
   36.5334   41.1673    5.7624 C   0  0  2  0  0  0  0  0  0  0  0  0
   35.6566   40.3629    4.8690 O   0  0  0  0  0  0  0  0  0  0  0  0
   33.6916   37.5957    6.5514 C   0  0  0  0  0  0  0  0  0  0  0  0
   28.7309   37.7442    2.2915 C   0  0  1  0  0  0  0  0  0  0  0  0
   29.6228   38.0218    3.4683 O   0  0  0  0  0  0  0  0  0  0  0  0
   40.1632   35.8070    7.5045 C   0  0  0  0  0  0  0  0  0  0  0  0
   41.2486   36.4979    6.7842 N   0  0  0  0  0  0  0  0  0  0  0  0
   37.0771   42.3409    4.9199 C   0  0  1  0  0  0  0  0  0  0  0  0
   35.9821   43.0953    4.3901 O   0  0  0  0  0  0  0  0  0  0  0  0
   28.2666   36.2370    2.2953 C   0  0  0  0  0  0  0  0  0  0  0  0
   27.4694   35.7858    1.1103 N   0  0  0  0  0  0  0  0  0  0  0  0
  1  2  1  1  0  0  0
  1  7  1  0  0  0  0
  1 30  1  0  0  0  0
  3  4  1  6  0  0  0
  3  9  1  0  0  0  0
  3 38  1  0  0  0  0
  5 10  1  0  0  0  0
  5 26  1  1  0  0  0
  5 32  1  0  0  0  0
  6 12  1  0  0  0  0
  6 35  1  0  0  0  0
  6 19  1  1  0  0  0
  7  8  1  1  0  0  0
  7 14  1  0  0  0  0
  8 33  1  0  0  0  0
  9 16  1  0  0  0  0
 10 11  1  6  0  0  0
 10 18  1  0  0  0  0
 12 13  1  1  0  0  0
 12 20  1  0  0  0  0
 14 15  1  6  0  0  0
 14 22  1  0  0  0  0
 16 17  1  6  0  0  0
 16 24  1  0  0  0  0
 18 19  1  1  0  0  0
 18 25  1  0  0  0  0
 20 21  1  6  0  0  0
 20 27  1  0  0  0  0
 22 23  1  1  0  0  0
 22 29  1  0  0  0  0
 24  2  1  1  0  0  0
 24 31  1  0  0  0  0
 25 26  1  6  0  0  0
 25 33  1  0  0  0  0
 27 28  1  1  0  0  0
 27 34  1  0  0  0  0
 29 30  1  0  0  0  0
 29 36  1  6  0  0  0
 31 32  1  6  0  0  0
 31 38  1  0  0  0  0
 34 35  1  0  0  0  0
 34 40  1  1  0  0  0
 36 37  1  0  0  0  0
 38 39  1  1  0  0  0
 40 41  1  0  0  0  0
M  END
>  <CHROM.1>
79.17697232,-165.57927804,179.51957996,58.90432848,34.26922350,39.08403647
5.42455031,0.16620815,0.39878755,2.76236074

>  <Name>
ligand

>  <RI>
0

>  <Rbt.Current_Directory>
/home/itssahil/PROJECTS/Mol_Feturizer/New_Systems/rnas/1ZZ5

>  <Rbt.Executable>
rbdock ($Id: //depot/dev/client3/rdock/2013.1/src/exe/rbdock.cxx#4 $)

>  <Rbt.Library>
libRbt.so (2013.1, Build901 2013/11/27)

>  <Rbt.Parameter_File>
/export/apps/rDock/src/rDock_2013.1_src/data/scripts/dock_solv.prm

>  <Rbt.Receptor>
prm/pocket_docking_7.prm

>  <SCORE>
-11.2238

>  <SCORE.INTER>
-9.80782

>  <SCORE.INTER.CONST>
1

>  <SCORE.INTER.POLAR>
0

>  <SCORE.INTER.ROT>
4

>  <SCORE.INTER.SOLV>
18.5651

>  <SCORE.INTER.VDW>
-18.9936

>  <SCORE.INTER.norm>
-0.239215

>  <SCORE.INTRA>
-1.41595

>  <SCORE.INTRA.DIHEDRAL>
-2.34148

>  <SCORE.INTRA.DIHEDRAL.0>
5.18357

>  <SCORE.INTRA.POLAR>
0

>  <SCORE.INTRA.POLAR.0>
0

>  <SCORE.INTRA.REPUL>
0

>  <SCORE.INTRA.REPUL.0>
0

>  <SCORE.INTRA.SOLV>
-1.05099

>  <SCORE.INTRA.SOLV.lig_0>
-109.973

>  <SCORE.INTRA.VDW>
0.280283

>  <SCORE.INTRA.VDW.0>
-1.68646

>  <SCORE.INTRA.norm>
-0.0345354

>  <SCORE.RESTR>
0

>  <SCORE.RESTR.CAVITY>
0

>  <SCORE.RESTR.norm>
0

>  <SCORE.SYSTEM>
0

>  <SCORE.SYSTEM.CONST>
0

>  <SCORE.SYSTEM.DIHEDRAL>
0

>  <SCORE.SYSTEM.SOLV>
0

>  <SCORE.SYSTEM.norm>
0

>  <SCORE.heavy>
41

>  <SCORE.norm>
-0.273751

>  <RMSD>
10.601

$$$$
ligand
 OpenBabel11021811423D
libRbt.so/2013.1/901 2013/11/27
 41 45  0  0  0  0  0  0  0  0999 V2000
   27.2932   37.4714    0.7742 C   0  0  2  0  0  0  0  0  0  0  0  0
   28.1585   37.9286   -0.2835 O   0  0  0  0  0  0  0  0  0  0  0  0
   29.3764   41.8085   -1.8265 C   0  0  2  0  0  0  0  0  0  0  0  0
   29.2822   43.2067   -2.3199 N   0  0  0  0  0  0  0  0  0  0  0  0
   29.9505   40.0669    2.5907 C   0  0  1  0  0  0  0  0  0  0  0  0
   32.5649   39.8166    4.6707 C   0  0  1  0  0  0  0  0  0  0  0  0
   27.9167   36.2558    1.5233 C   0  0  2  0  0  0  0  0  0  0  0  0
   29.2706   36.5226    2.0184 N   0  0  0  0  0  0  0  0  0  0  0  0
   28.4174   40.9086   -2.6684 C   0  0  0  0  0  0  0  0  0  0  0  0
   29.4766   40.1527    4.0597 C   0  0  2  0  0  0  0  0  0  0  0  0
   29.8096   41.4113    4.6544 O   0  0  0  0  0  0  0  0  0  0  0  0
   33.9114   39.7491    5.5101 C   0  0  2  0  0  0  0  0  0  0  0  0
   33.8564   40.4824    6.8117 N   0  0  0  0  0  0  0  0  0  0  0  0
   27.9253   35.0052    0.6034 C   0  0  1  0  0  0  0  0  0  0  0  0
   28.4715   33.8892    1.3014 O   0  0  0  0  0  0  0  0  0  0  0  0
   28.4681   39.4284   -2.1903 C   0  0  2  0  0  0  0  0  0  0  0  0
   27.5471   38.6483   -3.0382 N   0  0  0  0  0  0  0  0  0  0  0  0
   30.1584   38.9627    4.7562 C   0  0  2  0  0  0  0  0  0  0  0  0
   31.4048   39.3594    5.4552 O   0  0  0  0  0  0  0  0  0  0  0  0
   35.1243   40.3000    4.6321 C   0  0  1  0  0  0  0  0  0  0  0  0
   35.4077   39.4209    3.5214 O   0  0  0  0  0  0  0  0  0  0  0  0
   26.4869   34.6988    0.1261 C   0  0  2  0  0  0  0  0  0  0  0  0
   26.4845   33.5517   -0.6974 O   0  0  0  0  0  0  0  0  0  0  0  0
   28.1028   39.3426   -0.6659 C   0  0  2  0  0  0  0  0  0  0  0  0
   30.4404   37.9840    3.6197 C   0  0  2  0  0  0  0  0  0  0  0  0
   30.5136   38.7633    2.4342 O   0  0  0  0  0  0  0  0  0  0  0  0
   34.8431   41.7516    4.0705 C   0  0  2  0  0  0  0  0  0  0  0  0
   34.8103   42.6838    5.1643 O   0  0  0  0  0  0  0  0  0  0  0  0
   25.9091   35.9109   -0.6314 C   0  0  2  0  0  0  0  0  0  0  0  0
   25.9556   37.0859    0.2667 O   0  0  0  0  0  0  0  0  0  0  0  0
   29.1287   40.2452    0.1857 C   0  0  2  0  0  0  0  0  0  0  0  0
   28.8270   40.2427    1.6427 O   0  0  0  0  0  0  0  0  0  0  0  0
   29.3501   36.9408    3.4240 C   0  0  0  0  0  0  0  0  0  0  0  0
   33.4708   41.7648    3.2825 C   0  0  1  0  0  0  0  0  0  0  0  0
   32.3489   41.1979    4.1055 O   0  0  0  0  0  0  0  0  0  0  0  0
   24.4623   35.6019   -1.0823 C   0  0  0  0  0  0  0  0  0  0  0  0
   23.5236   35.2905    0.0113 N   0  0  0  0  0  0  0  0  0  0  0  0
   29.0387   41.7112   -0.2890 C   0  0  1  0  0  0  0  0  0  0  0  0
   29.9495   42.5147    0.4684 O   0  0  0  0  0  0  0  0  0  0  0  0
   33.0825   43.1894    2.7284 C   0  0  0  0  0  0  0  0  0  0  0  0
   32.5885   44.1809    3.7365 N   0  0  0  0  0  0  0  0  0  0  0  0
  1  2  1  6  0  0  0
  1  7  1  0  0  0  0
  1 30  1  0  0  0  0
  3  4  1  6  0  0  0
  3  9  1  0  0  0  0
  3 38  1  0  0  0  0
  5 10  1  0  0  0  0
  5 26  1  1  0  0  0
  5 32  1  0  0  0  0
  6 12  1  0  0  0  0
  6 35  1  0  0  0  0
  6 19  1  1  0  0  0
  7  8  1  6  0  0  0
  7 14  1  0  0  0  0
  8 33  1  0  0  0  0
  9 16  1  0  0  0  0
 10 11  1  1  0  0  0
 10 18  1  0  0  0  0
 12 13  1  1  0  0  0
 12 20  1  0  0  0  0
 14 15  1  1  0  0  0
 14 22  1  0  0  0  0
 16 17  1  6  0  0  0
 16 24  1  0  0  0  0
 18 19  1  6  0  0  0
 18 25  1  0  0  0  0
 20 21  1  6  0  0  0
 20 27  1  0  0  0  0
 22 23  1  6  0  0  0
 22 29  1  0  0  0  0
 24  2  1  1  0  0  0
 24 31  1  0  0  0  0
 25 26  1  6  0  0  0
 25 33  1  0  0  0  0
 27 28  1  1  0  0  0
 27 34  1  0  0  0  0
 29 30  1  0  0  0  0
 29 36  1  1  0  0  0
 31 32  1  1  0  0  0
 31 38  1  0  0  0  0
 34 35  1  0  0  0  0
 34 40  1  1  0  0  0
 36 37  1  0  0  0  0
 38 39  1  1  0  0  0
 40 41  1  0  0  0  0
M  END
>  <CHROM.1>
-66.62147506,-161.71985700,59.46530836,-74.58567111,29.84134148,39.15360515
1.78846326,-3.01539520,-0.79023912,-0.62419688

>  <Name>
ligand

>  <RI>
0

>  <Rbt.Current_Directory>
/home/itssahil/PROJECTS/Mol_Feturizer/New_Systems/rnas/1ZZ5

>  <Rbt.Executable>
rbdock ($Id: //depot/dev/client3/rdock/2013.1/src/exe/rbdock.cxx#4 $)

>  <Rbt.Library>
libRbt.so (2013.1, Build901 2013/11/27)

>  <Rbt.Parameter_File>
/export/apps/rDock/src/rDock_2013.1_src/data/scripts/dock_solv.prm

>  <Rbt.Receptor>
prm/blind_docking_60.prm

>  <SCORE>
32.0637

>  <SCORE.INTER>
3.57463

>  <SCORE.INTER.CONST>
1

>  <SCORE.INTER.POLAR>
0

>  <SCORE.INTER.ROT>
4

>  <SCORE.INTER.SOLV>
21.2674

>  <SCORE.INTER.VDW>
-10.9727

>  <SCORE.INTER.norm>
0.087186

>  <SCORE.INTRA>
-0.384602

>  <SCORE.INTRA.DIHEDRAL>
-2.51392

>  <SCORE.INTRA.DIHEDRAL.0>
5.18357

>  <SCORE.INTRA.POLAR>
0

>  <SCORE.INTRA.POLAR.0>
0

>  <SCORE.INTRA.REPUL>
0

>  <SCORE.INTRA.REPUL.0>
0

>  <SCORE.INTRA.SOLV>
2.53485

>  <SCORE.INTRA.SOLV.lig_0>
-109.973

>  <SCORE.INTRA.VDW>
-0.395072

>  <SCORE.INTRA.VDW.0>
-1.68646

>  <SCORE.INTRA.norm>
-0.00938054

>  <SCORE.RESTR>
28.8736

>  <SCORE.RESTR.CAVITY>
28.8736

>  <SCORE.RESTR.norm>
0.704235

>  <SCORE.SYSTEM>
0

>  <SCORE.SYSTEM.CONST>
0

>  <SCORE.SYSTEM.DIHEDRAL>
0

>  <SCORE.SYSTEM.SOLV>
0

>  <SCORE.SYSTEM.norm>
0

>  <SCORE.heavy>
41

>  <SCORE.norm>
0.78204

>  <RMSD>
10.696

$$$$
ligand
 OpenBabel11021811423D
libRbt.so/2013.1/901 2013/11/27
 41 45  0  0  0  0  0  0  0  0999 V2000
   27.2770   37.4881    0.7802 C   0  0  2  0  0  0  0  0  0  0  0  0
   28.1465   37.9336   -0.2791 O   0  0  0  0  0  0  0  0  0  0  0  0
   29.4041   41.7966   -1.8326 C   0  0  2  0  0  0  0  0  0  0  0  0
   29.3242   43.1944   -2.3296 N   0  0  0  0  0  0  0  0  0  0  0  0
   29.9622   40.0605    2.5888 C   0  0  1  0  0  0  0  0  0  0  0  0
   32.5677   39.8088    4.6696 C   0  0  1  0  0  0  0  0  0  0  0  0
   27.8882   36.2680    1.5322 C   0  0  2  0  0  0  0  0  0  0  0  0
   29.2450   36.5220    2.0260 N   0  0  0  0  0  0  0  0  0  0  0  0
   28.4354   40.9046   -2.6717 C   0  0  0  0  0  0  0  0  0  0  0  0
   29.4899   40.1550    4.0578 C   0  0  2  0  0  0  0  0  0  0  0  0
   29.8362   41.4116    4.6491 O   0  0  0  0  0  0  0  0  0  0  0  0
   33.9145   39.7503    5.5092 C   0  0  2  0  0  0  0  0  0  0  0  0
   33.8550   40.4843    6.8101 N   0  0  0  0  0  0  0  0  0  0  0  0
   27.8833   35.0151    0.6154 C   0  0  1  0  0  0  0  0  0  0  0  0
   28.4181   33.8952    1.3161 O   0  0  0  0  0  0  0  0  0  0  0  0
   28.4708   39.4252   -2.1898 C   0  0  2  0  0  0  0  0  0  0  0  0
   27.5413   38.6525   -3.0354 N   0  0  0  0  0  0  0  0  0  0  0  0
   30.1596   38.9597    4.7570 C   0  0  2  0  0  0  0  0  0  0  0  0
   31.4104   39.3453    5.4544 O   0  0  0  0  0  0  0  0  0  0  0  0
   35.1241   40.3077    4.6307 C   0  0  1  0  0  0  0  0  0  0  0  0
   35.4129   39.4294    3.5208 O   0  0  0  0  0  0  0  0  0  0  0  0
   26.4415   34.7225    0.1396 C   0  0  2  0  0  0  0  0  0  0  0  0
   26.4268   33.5733   -0.6810 O   0  0  0  0  0  0  0  0  0  0  0  0
   28.1054   39.3471   -0.6651 C   0  0  2  0  0  0  0  0  0  0  0  0
   30.4308   37.9752    3.6229 C   0  0  2  0  0  0  0  0  0  0  0  0
   30.5116   38.7507    2.4354 O   0  0  0  0  0  0  0  0  0  0  0  0
   34.8342   41.7570    4.0678 C   0  0  2  0  0  0  0  0  0  0  0  0
   34.7956   42.6900    5.1608 O   0  0  0  0  0  0  0  0  0  0  0  0
   25.8760   35.9385   -0.6208 C   0  0  2  0  0  0  0  0  0  0  0  0
   25.9352   37.1153    0.2743 O   0  0  0  0  0  0  0  0  0  0  0  0
   29.1411   40.2411    0.1837 C   0  0  2  0  0  0  0  0  0  0  0  0
   28.8400   40.2455    1.6408 O   0  0  0  0  0  0  0  0  0  0  0  0
   29.3295   36.9430    3.4305 C   0  0  0  0  0  0  0  0  0  0  0  0
   33.4618   41.7612    3.2798 C   0  0  1  0  0  0  0  0  0  0  0  0
   32.3434   41.1883    4.1032 O   0  0  0  0  0  0  0  0  0  0  0  0
   24.4259   35.6435   -1.0702 C   0  0  0  0  0  0  0  0  0  0  0  0
   23.7509   36.7573   -1.7617 N   0  0  0  0  0  0  0  0  0  0  0  0
   29.0662   41.7068   -0.2947 C   0  0  1  0  0  0  0  0  0  0  0  0
   29.9856   42.5027    0.4602 O   0  0  0  0  0  0  0  0  0  0  0  0
   33.0649   43.1830    2.7244 C   0  0  0  0  0  0  0  0  0  0  0  0
   32.5920   44.1815    3.7356 N   0  0  0  0  0  0  0  0  0  0  0  0
  1  2  1  6  0  0  0
  1  7  1  0  0  0  0
  1 30  1  0  0  0  0
  3  4  1  6  0  0  0
  3  9  1  0  0  0  0
  3 38  1  0  0  0  0
  5 10  1  0  0  0  0
  5 26  1  1  0  0  0
  5 32  1  0  0  0  0
  6 12  1  0  0  0  0
  6 35  1  0  0  0  0
  6 19  1  1  0  0  0
  7  8  1  6  0  0  0
  7 14  1  0  0  0  0
  8 33  1  0  0  0  0
  9 16  1  0  0  0  0
 10 11  1  1  0  0  0
 10 18  1  0  0  0  0
 12 13  1  1  0  0  0
 12 20  1  0  0  0  0
 14 15  1  1  0  0  0
 14 22  1  0  0  0  0
 16 17  1  6  0  0  0
 16 24  1  0  0  0  0
 18 19  1  6  0  0  0
 18 25  1  0  0  0  0
 20 21  1  6  0  0  0
 20 27  1  0  0  0  0
 22 23  1  6  0  0  0
 22 29  1  0  0  0  0
 24  2  1  1  0  0  0
 24 31  1  0  0  0  0
 25 26  1  6  0  0  0
 25 33  1  0  0  0  0
 27 28  1  1  0  0  0
 27 34  1  0  0  0  0
 29 30  1  0  0  0  0
 29 36  1  1  0  0  0
 31 32  1  1  0  0  0
 31 38  1  0  0  0  0
 34 35  1  0  0  0  0
 34 40  1  1  0  0  0
 36 37  1  0  0  0  0
 38 39  1  1  0  0  0
 40 41  1  0  0  0  0
M  END
>  <CHROM.1>
-65.64945688,-162.63677630,177.50463699,-73.35174392,29.84160863,39.19188898
1.74711781,-3.03539622,-0.79244349,-0.60260532

>  <Name>
ligand

>  <RI>
0

>  <Rbt.Current_Directory>
/home/itssahil/PROJECTS/Mol_Feturizer/New_Systems/rnas/1ZZ5

>  <Rbt.Executable>
rbdock ($Id: //depot/dev/client3/rdock/2013.1/src/exe/rbdock.cxx#4 $)

>  <Rbt.Library>
libRbt.so (2013.1, Build901 2013/11/27)

>  <Rbt.Parameter_File>
/export/apps/rDock/src/rDock_2013.1_src/data/scripts/dock_solv.prm

>  <Rbt.Receptor>
prm/blind_docking_60.prm

>  <SCORE>
31.8692

>  <SCORE.INTER>
3.45904

>  <SCORE.INTER.CONST>
1

>  <SCORE.INTER.POLAR>
0

>  <SCORE.INTER.ROT>
4

>  <SCORE.INTER.SOLV>
21.2443

>  <SCORE.INTER.VDW>
-11.0421

>  <SCORE.INTER.norm>
0.0843669

>  <SCORE.INTRA>
-1.0742

>  <SCORE.INTRA.DIHEDRAL>
-2.79643

>  <SCORE.INTRA.DIHEDRAL.0>
5.18357

>  <SCORE.INTRA.POLAR>
0

>  <SCORE.INTRA.POLAR.0>
0

>  <SCORE.INTRA.REPUL>
0

>  <SCORE.INTRA.REPUL.0>
0

>  <SCORE.INTRA.SOLV>
1.21815

>  <SCORE.INTRA.SOLV.lig_0>
-109.973

>  <SCORE.INTRA.VDW>
-0.285061

>  <SCORE.INTRA.VDW.0>
-1.68646

>  <SCORE.INTRA.norm>
-0.0262

>  <SCORE.RESTR>
29.4843

>  <SCORE.RESTR.CAVITY>
29.4843

>  <SCORE.RESTR.norm>
0.71913

>  <SCORE.SYSTEM>
0

>  <SCORE.SYSTEM.CONST>
0

>  <SCORE.SYSTEM.DIHEDRAL>
0

>  <SCORE.SYSTEM.SOLV>
0

>  <SCORE.SYSTEM.norm>
0

>  <SCORE.heavy>
41

>  <SCORE.norm>
0.777296

>  <RMSD>
10.702

$$$$
ligand
 OpenBabel11021811423D
libRbt.so/2013.1/901 2013/11/27
 41 45  0  0  0  0  0  0  0  0999 V2000
   27.2854   37.4967    0.7467 C   0  0  2  0  0  0  0  0  0  0  0  0
   28.1615   37.9520   -0.3029 O   0  0  0  0  0  0  0  0  0  0  0  0
   29.4211   41.8294   -1.8185 C   0  0  2  0  0  0  0  0  0  0  0  0
   29.3416   43.2307   -2.3056 N   0  0  0  0  0  0  0  0  0  0  0  0
   29.9515   40.0615    2.5938 C   0  0  1  0  0  0  0  0  0  0  0  0
   32.5393   39.8095    4.6922 C   0  0  1  0  0  0  0  0  0  0  0  0
   27.8940   36.2724    1.4940 C   0  0  2  0  0  0  0  0  0  0  0  0
   29.2466   36.5258    1.9994 N   0  0  0  0  0  0  0  0  0  0  0  0
   28.4606   40.9415   -2.6712 C   0  0  0  0  0  0  0  0  0  0  0  0
   29.4684   40.1440    4.0599 C   0  0  2  0  0  0  0  0  0  0  0  0
   29.8075   41.3969    4.6631 O   0  0  0  0  0  0  0  0  0  0  0  0
   33.8917   39.6886    5.5158 C   0  0  2  0  0  0  0  0  0  0  0  0
   33.8553   40.3606    6.8508 N   0  0  0  0  0  0  0  0  0  0  0  0
   27.8987   35.0263    0.5679 C   0  0  1  0  0  0  0  0  0  0  0  0
   28.4310   33.9025    1.2640 O   0  0  0  0  0  0  0  0  0  0  0  0
   28.4960   39.4586   -2.2001 C   0  0  2  0  0  0  0  0  0  0  0  0
   27.5744   38.6901   -3.0581 N   0  0  0  0  0  0  0  0  0  0  0  0
   30.1359   38.9451    4.7551 C   0  0  2  0  0  0  0  0  0  0  0  0
   31.3807   39.3283    5.4643 O   0  0  0  0  0  0  0  0  0  0  0  0
   35.1034   40.2672    4.6541 C   0  0  1  0  0  0  0  0  0  0  0  0
   35.3682   39.4382    3.5011 O   0  0  0  0  0  0  0  0  0  0  0  0
   26.4611   34.7340    0.0795 C   0  0  2  0  0  0  0  0  0  0  0  0
   26.4549   33.5909   -0.7497 O   0  0  0  0  0  0  0  0  0  0  0  0
   28.1198   39.3683   -0.6787 C   0  0  2  0  0  0  0  0  0  0  0  0
   30.4175   37.9697    3.6157 C   0  0  2  0  0  0  0  0  0  0  0  0
   30.5050   38.7542    2.4346 O   0  0  0  0  0  0  0  0  0  0  0  0
   34.8335   41.7464    4.1635 C   0  0  2  0  0  0  0  0  0  0  0  0
   34.8198   42.6266    5.2999 O   0  0  0  0  0  0  0  0  0  0  0  0
   25.8982   35.9544   -0.6758 C   0  0  2  0  0  0  0  0  0  0  0  0
   25.9481   37.1246    0.2284 O   0  0  0  0  0  0  0  0  0  0  0  0
   29.1473   40.2583    0.1842 C   0  0  2  0  0  0  0  0  0  0  0  0
   28.8357   40.2511    1.6391 O   0  0  0  0  0  0  0  0  0  0  0  0
   29.3201   36.9364    3.4076 C   0  0  0  0  0  0  0  0  0  0  0  0
   33.4551   41.8110    3.3889 C   0  0  1  0  0  0  0  0  0  0  0  0
   32.3338   41.2180    4.1940 O   0  0  0  0  0  0  0  0  0  0  0  0
   24.4521   35.6594   -1.1379 C   0  0  0  0  0  0  0  0  0  0  0  0
   23.7893   36.7671   -1.8507 N   0  0  0  0  0  0  0  0  0  0  0  0
   29.0724   41.7274   -0.2838 C   0  0  1  0  0  0  0  0  0  0  0  0
   29.9845   42.5196    0.4837 O   0  0  0  0  0  0  0  0  0  0  0  0
   33.0779   43.2640    2.9053 C   0  0  0  0  0  0  0  0  0  0  0  0
   31.6153   43.5728    2.8116 N   0  0  0  0  0  0  0  0  0  0  0  0
  1  2  1  6  0  0  0
  1  7  1  0  0  0  0
  1 30  1  0  0  0  0
  3  4  1  6  0  0  0
  3  9  1  0  0  0  0
  3 38  1  0  0  0  0
  5 10  1  0  0  0  0
  5 26  1  1  0  0  0
  5 32  1  0  0  0  0
  6 12  1  0  0  0  0
  6 35  1  0  0  0  0
  6 19  1  1  0  0  0
  7  8  1  6  0  0  0
  7 14  1  0  0  0  0
  8 33  1  0  0  0  0
  9 16  1  0  0  0  0
 10 11  1  1  0  0  0
 10 18  1  0  0  0  0
 12 13  1  1  0  0  0
 12 20  1  0  0  0  0
 14 15  1  1  0  0  0
 14 22  1  0  0  0  0
 16 17  1  6  0  0  0
 16 24  1  0  0  0  0
 18 19  1  6  0  0  0
 18 25  1  0  0  0  0
 20 21  1  6  0  0  0
 20 27  1  0  0  0  0
 22 23  1  6  0  0  0
 22 29  1  0  0  0  0
 24  2  1  1  0  0  0
 24 31  1  0  0  0  0
 25 26  1  6  0  0  0
 25 33  1  0  0  0  0
 27 28  1  1  0  0  0
 27 34  1  0  0  0  0
 29 30  1  0  0  0  0
 29 36  1  1  0  0  0
 31 32  1  1  0  0  0
 31 38  1  0  0  0  0
 34 35  1  0  0  0  0
 34 40  1  1  0  0  0
 36 37  1  0  0  0  0
 38 39  1  1  0  0  0
 40 41  1  0  0  0  0
M  END
>  <CHROM.1>
-65.21170322,-160.17254529,178.72089717,-150.17787568,29.82047197,39.18188561
1.72749237,-3.04574221,-0.79605902,-0.59504850

>  <Name>
ligand

>  <RI>
0

>  <Rbt.Current_Directory>
/home/itssahil/PROJECTS/Mol_Feturizer/New_Systems/rnas/1ZZ5

>  <Rbt.Executable>
rbdock ($Id: //depot/dev/client3/rdock/2013.1/src/exe/rbdock.cxx#4 $)

>  <Rbt.Library>
libRbt.so (2013.1, Build901 2013/11/27)

>  <Rbt.Parameter_File>
/export/apps/rDock/src/rDock_2013.1_src/data/scripts/dock_solv.prm

>  <Rbt.Receptor>
prm/blind_docking_60.prm

>  <SCORE>
31.2867

>  <SCORE.INTER>
0.86573

>  <SCORE.INTER.CONST>
1

>  <SCORE.INTER.POLAR>
0

>  <SCORE.INTER.ROT>
4

>  <SCORE.INTER.SOLV>
17.9866

>  <SCORE.INTER.VDW>
-11.6851

>  <SCORE.INTER.norm>
0.0211154

>  <SCORE.INTRA>
0.575791

>  <SCORE.INTRA.DIHEDRAL>
-0.60457

>  <SCORE.INTRA.DIHEDRAL.0>
5.18357

>  <SCORE.INTRA.POLAR>
0

>  <SCORE.INTRA.POLAR.0>
0

>  <SCORE.INTRA.REPUL>
0.00394458

>  <SCORE.INTRA.REPUL.0>
0

>  <SCORE.INTRA.SOLV>
2.39117

>  <SCORE.INTRA.SOLV.lig_0>
-109.973

>  <SCORE.INTRA.VDW>
-0.337232

>  <SCORE.INTRA.VDW.0>
-1.68646

>  <SCORE.INTRA.norm>
0.0140437

>  <SCORE.RESTR>
29.8451

>  <SCORE.RESTR.CAVITY>
29.8451

>  <SCORE.RESTR.norm>
0.72793

>  <SCORE.SYSTEM>
0

>  <SCORE.SYSTEM.CONST>
0

>  <SCORE.SYSTEM.DIHEDRAL>
0

>  <SCORE.SYSTEM.SOLV>
0

>  <SCORE.SYSTEM.norm>
0

>  <SCORE.heavy>
41

>  <SCORE.norm>
0.763089

>  <RMSD>
10.734

$$$$
ligand
 OpenBabel11021811423D
libRbt.so/2013.1/901 2013/11/27
 41 45  0  0  0  0  0  0  0  0999 V2000
   44.8684   39.4120    4.6212 C   0  0  2  0  0  0  0  0  0  0  0  0
   45.1681   40.2017    5.7887 O   0  0  0  0  0  0  0  0  0  0  0  0
   45.6721   44.4430    6.6104 C   0  0  2  0  0  0  0  0  0  0  0  0
   46.1349   45.8474    6.4664 N   0  0  0  0  0  0  0  0  0  0  0  0
   41.8282   42.2051    4.8522 C   0  0  1  0  0  0  0  0  0  0  0  0
   37.5278   40.4787    4.5884 C   0  0  1  0  0  0  0  0  0  0  0  0
   43.8792   38.2578    4.9631 C   0  0  2  0  0  0  0  0  0  0  0  0
   42.6551   38.7292    5.6177 N   0  0  0  0  0  0  0  0  0  0  0  0
   46.9159   43.4993    6.6291 C   0  0  0  0  0  0  0  0  0  0  0  0
   40.9700   41.9596    3.5901 C   0  0  2  0  0  0  0  0  0  0  0  0
   40.3124   43.1532    3.1523 O   0  0  0  0  0  0  0  0  0  0  0  0
   36.1514   41.2639    4.6932 C   0  0  2  0  0  0  0  0  0  0  0  0
   36.1269   42.3132    5.7577 N   0  0  0  0  0  0  0  0  0  0  0  0
   44.5805   37.1954    5.8519 C   0  0  1  0  0  0  0  0  0  0  0  0
   43.6806   36.1285    6.1398 O   0  0  0  0  0  0  0  0  0  0  0  0
   46.4911   42.0088    6.7710 C   0  0  2  0  0  0  0  0  0  0  0  0
   47.7177   41.1896    6.7905 N   0  0  0  0  0  0  0  0  0  0  0  0
   39.9863   40.8507    4.0009 C   0  0  2  0  0  0  0  0  0  0  0  0
   38.6703   41.3929    4.4177 O   0  0  0  0  0  0  0  0  0  0  0  0
   34.9566   40.2323    4.9258 C   0  0  1  0  0  0  0  0  0  0  0  0
   34.7503   39.4000    3.7633 O   0  0  0  0  0  0  0  0  0  0  0  0
   45.8426   36.6650    5.1331 C   0  0  2  0  0  0  0  0  0  0  0  0
   46.4763   35.6851    5.9283 O   0  0  0  0  0  0  0  0  0  0  0  0
   45.5201   41.6125    5.6030 C   0  0  2  0  0  0  0  0  0  0  0  0
   40.6915   40.1426    5.1542 C   0  0  2  0  0  0  0  0  0  0  0  0
   41.5861   41.0928    5.7154 O   0  0  0  0  0  0  0  0  0  0  0  0
   35.2088   39.3000    6.1782 C   0  0  2  0  0  0  0  0  0  0  0  0
   35.1637   40.0941    7.3757 O   0  0  0  0  0  0  0  0  0  0  0  0
   46.8100   37.8269    4.8316 C   0  0  2  0  0  0  0  0  0  0  0  0
   46.0908   38.8316    4.0175 O   0  0  0  0  0  0  0  0  0  0  0  0
   44.2271   42.5718    5.6282 C   0  0  2  0  0  0  0  0  0  0  0  0
   43.2706   42.2799    4.5265 O   0  0  0  0  0  0  0  0  0  0  0  0
   41.5078   38.9328    4.7237 C   0  0  0  0  0  0  0  0  0  0  0  0
   36.6109   38.5801    6.0367 C   0  0  1  0  0  0  0  0  0  0  0  0
   37.7176   39.5604    5.7695 O   0  0  0  0  0  0  0  0  0  0  0  0
   48.0565   37.2881    4.0915 C   0  0  0  0  0  0  0  0  0  0  0  0
   48.9296   36.4157    4.8982 N   0  0  0  0  0  0  0  0  0  0  0  0
   44.6734   44.0396    5.4582 C   0  0  1  0  0  0  0  0  0  0  0  0
   43.5245   44.8931    5.4793 O   0  0  0  0  0  0  0  0  0  0  0  0
   36.9707   37.6655    7.2702 C   0  0  0  0  0  0  0  0  0  0  0  0
   38.2682   36.9217    7.1880 N   0  0  0  0  0  0  0  0  0  0  0  0
  1  2  1  1  0  0  0
  1  7  1  0  0  0  0
  1 30  1  0  0  0  0
  3  4  1  6  0  0  0
  3  9  1  0  0  0  0
  3 38  1  0  0  0  0
  5 10  1  0  0  0  0
  5 26  1  1  0  0  0
  5 32  1  0  0  0  0
  6 12  1  0  0  0  0
  6 35  1  0  0  0  0
  6 19  1  1  0  0  0
  7  8  1  1  0  0  0
  7 14  1  0  0  0  0
  8 33  1  0  0  0  0
  9 16  1  0  0  0  0
 10 11  1  1  0  0  0
 10 18  1  0  0  0  0
 12 13  1  1  0  0  0
 12 20  1  0  0  0  0
 14 15  1  6  0  0  0
 14 22  1  0  0  0  0
 16 17  1  6  0  0  0
 16 24  1  0  0  0  0
 18 19  1  1  0  0  0
 18 25  1  0  0  0  0
 20 21  1  6  0  0  0
 20 27  1  0  0  0  0
 22 23  1  1  0  0  0
 22 29  1  0  0  0  0
 24  2  1  1  0  0  0
 24 31  1  0  0  0  0
 25 26  1  6  0  0  0
 25 33  1  0  0  0  0
 27 28  1  1  0  0  0
 27 34  1  0  0  0  0
 29 30  1  0  0  0  0
 29 36  1  6  0  0  0
 31 32  1  6  0  0  0
 31 38  1  0  0  0  0
 34 35  1  0  0  0  0
 34 40  1  1  0  0  0
 36 37  1  0  0  0  0
 38 39  1  1  0  0  0
 40 41  1  0  0  0  0
M  END
>  <CHROM.1>
168.01065526,-166.39538645,-67.75225584,178.35924253,42.07794626,40.24910041
5.38625460,0.00887226,0.00632942,3.13044257

>  <Name>
ligand

>  <RI>
0

>  <Rbt.Current_Directory>
/home/itssahil/PROJECTS/Mol_Feturizer/New_Systems/rnas/1ZZ5

>  <Rbt.Executable>
rbdock ($Id: //depot/dev/client3/rdock/2013.1/src/exe/rbdock.cxx#4 $)

>  <Rbt.Library>
libRbt.so (2013.1, Build901 2013/11/27)

>  <Rbt.Parameter_File>
/export/apps/rDock/src/rDock_2013.1_src/data/scripts/dock_solv.prm

>  <Rbt.Receptor>
prm/pocket_docking_6.prm

>  <SCORE>
-8.34726

>  <SCORE.INTER>
-6.74286

>  <SCORE.INTER.CONST>
1

>  <SCORE.INTER.POLAR>
0

>  <SCORE.INTER.ROT>
4

>  <SCORE.INTER.SOLV>
10.2536

>  <SCORE.INTER.VDW>
-14.1798

>  <SCORE.INTER.norm>
-0.16446

>  <SCORE.INTRA>
-1.6044

>  <SCORE.INTRA.DIHEDRAL>
-3.18986

>  <SCORE.INTRA.DIHEDRAL.0>
5.18357

>  <SCORE.INTRA.POLAR>
0

>  <SCORE.INTRA.POLAR.0>
0

>  <SCORE.INTRA.REPUL>
0

>  <SCORE.INTRA.REPUL.0>
0

>  <SCORE.INTRA.SOLV>
-0.311447

>  <SCORE.INTRA.SOLV.lig_0>
-109.973

>  <SCORE.INTRA.VDW>
0.146248

>  <SCORE.INTRA.VDW.0>
-1.68646

>  <SCORE.INTRA.norm>
-0.0391318

>  <SCORE.RESTR>
0

>  <SCORE.RESTR.CAVITY>
0

>  <SCORE.RESTR.norm>
0

>  <SCORE.SYSTEM>
0

>  <SCORE.SYSTEM.CONST>
0

>  <SCORE.SYSTEM.DIHEDRAL>
0

>  <SCORE.SYSTEM.SOLV>
0

>  <SCORE.SYSTEM.norm>
0

>  <SCORE.heavy>
41

>  <SCORE.norm>
-0.203592

>  <RMSD>
10.753

$$$$
ligand
 OpenBabel11021811423D
libRbt.so/2013.1/901 2013/11/27
 41 45  0  0  0  0  0  0  0  0999 V2000
   38.0764   34.8793    8.2106 C   0  0  2  0  0  0  0  0  0  0  0  0
   38.1953   36.2206    7.6974 O   0  0  0  0  0  0  0  0  0  0  0  0
   35.8583   38.7286    5.0204 C   0  0  2  0  0  0  0  0  0  0  0  0
   35.0728   39.1482    3.8312 N   0  0  0  0  0  0  0  0  0  0  0  0
   34.4919   36.7192    9.1399 C   0  0  1  0  0  0  0  0  0  0  0  0
   31.6966   35.9466   12.2584 C   0  0  1  0  0  0  0  0  0  0  0  0
   38.4732   34.8172    9.7160 C   0  0  2  0  0  0  0  0  0  0  0  0
   37.7306   35.7733   10.5428 N   0  0  0  0  0  0  0  0  0  0  0  0
   37.2340   38.1632    4.5451 C   0  0  0  0  0  0  0  0  0  0  0  0
   33.6335   35.6076    9.7858 C   0  0  2  0  0  0  0  0  0  0  0  0
   32.2341   35.8282    9.5812 O   0  0  0  0  0  0  0  0  0  0  0  0
   30.8980   36.8167   13.3201 C   0  0  2  0  0  0  0  0  0  0  0  0
   31.5620   36.9095   14.6563 N   0  0  0  0  0  0  0  0  0  0  0  0
   39.9997   35.0489    9.8788 C   0  0  1  0  0  0  0  0  0  0  0  0
   40.3625   34.9645   11.2544 O   0  0  0  0  0  0  0  0  0  0  0  0
   38.1005   37.6991    5.7516 C   0  0  2  0  0  0  0  0  0  0  0  0
   39.3793   37.1910    5.2201 N   0  0  0  0  0  0  0  0  0  0  0  0
   34.0313   35.6258   11.2716 C   0  0  2  0  0  0  0  0  0  0  0  0
   33.0843   36.4138   12.0973 O   0  0  0  0  0  0  0  0  0  0  0  0
   29.4206   36.2391   13.4914 C   0  0  1  0  0  0  0  0  0  0  0  0
   28.6425   36.4274   12.2890 O   0  0  0  0  0  0  0  0  0  0  0  0
   40.7776   34.0048    9.0448 C   0  0  2  0  0  0  0  0  0  0  0  0
   42.1675   34.1985    9.2020 O   0  0  0  0  0  0  0  0  0  0  0  0
   37.3245   36.6210    6.5882 C   0  0  2  0  0  0  0  0  0  0  0  0
   35.4254   36.2465   11.2712 C   0  0  2  0  0  0  0  0  0  0  0  0
   35.5076   37.0363   10.0932 O   0  0  0  0  0  0  0  0  0  0  0  0
   29.4206   34.7008   13.8593 C   0  0  2  0  0  0  0  0  0  0  0  0
   29.9698   34.5295   15.1766 O   0  0  0  0  0  0  0  0  0  0  0  0
   40.3805   34.1092    7.5588 C   0  0  2  0  0  0  0  0  0  0  0  0
   38.9165   33.9213    7.4544 O   0  0  0  0  0  0  0  0  0  0  0  0
   35.9291   37.2391    7.1014 C   0  0  2  0  0  0  0  0  0  0  0  0
   35.1167   36.2635    7.8774 O   0  0  0  0  0  0  0  0  0  0  0  0
   36.5518   35.2245   11.2256 C   0  0  0  0  0  0  0  0  0  0  0  0
   30.2655   33.8944   12.7915 C   0  0  1  0  0  0  0  0  0  0  0  0
   31.6365   34.4804   12.6063 O   0  0  0  0  0  0  0  0  0  0  0  0
   41.1462   33.0446    6.7390 C   0  0  0  0  0  0  0  0  0  0  0  0
   40.9279   33.1067    5.2821 N   0  0  0  0  0  0  0  0  0  0  0  0
   35.0785   37.6654    5.8859 C   0  0  1  0  0  0  0  0  0  0  0  0
   33.8372   38.2138    6.3411 O   0  0  0  0  0  0  0  0  0  0  0  0
   30.3634   32.3524   13.1078 C   0  0  0  0  0  0  0  0  0  0  0  0
   29.0689   31.6000   13.1460 N   0  0  0  0  0  0  0  0  0  0  0  0
  1  2  1  6  0  0  0
  1  7  1  0  0  0  0
  1 30  1  0  0  0  0
  3  4  1  6  0  0  0
  3  9  1  0  0  0  0
  3 38  1  0  0  0  0
  5 10  1  0  0  0  0
  5 26  1  1  0  0  0
  5 32  1  0  0  0  0
  6 12  1  0  0  0  0
  6 35  1  0  0  0  0
  6 19  1  1  0  0  0
  7  8  1  1  0  0  0
  7 14  1  0  0  0  0
  8 33  1  0  0  0  0
  9 16  1  0  0  0  0
 10 11  1  1  0  0  0
 10 18  1  0  0  0  0
 12 13  1  1  0  0  0
 12 20  1  0  0  0  0
 14 15  1  1  0  0  0
 14 22  1  0  0  0  0
 16 17  1  6  0  0  0
 16 24  1  0  0  0  0
 18 19  1  1  0  0  0
 18 25  1  0  0  0  0
 20 21  1  6  0  0  0
 20 27  1  0  0  0  0
 22 23  1  6  0  0  0
 22 29  1  0  0  0  0
 24  2  1  1  0  0  0
 24 31  1  0  0  0  0
 25 26  1  6  0  0  0
 25 33  1  0  0  0  0
 27 28  1  1  0  0  0
 27 34  1  0  0  0  0
 29 30  1  0  0  0  0
 29 36  1  6  0  0  0
 31 32  1  6  0  0  0
 31 38  1  0  0  0  0
 34 35  1  0  0  0  0
 34 40  1  1  0  0  0
 36 37  1  0  0  0  0
 38 39  1  1  0  0  0
 40 41  1  0  0  0  0
M  END
>  <CHROM.1>
65.87326453,172.67530602,-175.67560223,61.09684151,35.30570341,35.69093000
9.58212951,-0.53564511,-0.31333088,2.14202339

>  <Name>
ligand

>  <RI>
0

>  <Rbt.Current_Directory>
/home/itssahil/PROJECTS/Mol_Feturizer/New_Systems/rnas/1ZZ5

>  <Rbt.Executable>
rbdock ($Id: //depot/dev/client3/rdock/2013.1/src/exe/rbdock.cxx#4 $)

>  <Rbt.Library>
libRbt.so (2013.1, Build901 2013/11/27)

>  <Rbt.Parameter_File>
/export/apps/rDock/src/rDock_2013.1_src/data/scripts/dock_solv.prm

>  <Rbt.Receptor>
prm/pocket_docking_7.prm

>  <SCORE>
-10.8882

>  <SCORE.INTER>
-9.00686

>  <SCORE.INTER.CONST>
1

>  <SCORE.INTER.POLAR>
0

>  <SCORE.INTER.ROT>
4

>  <SCORE.INTER.SOLV>
17.9303

>  <SCORE.INTER.VDW>
-18.248

>  <SCORE.INTER.norm>
-0.219679

>  <SCORE.INTRA>
-1.88201

>  <SCORE.INTRA.DIHEDRAL>
-4.45745

>  <SCORE.INTRA.DIHEDRAL.0>
5.18357

>  <SCORE.INTRA.POLAR>
0

>  <SCORE.INTRA.POLAR.0>
0

>  <SCORE.INTRA.REPUL>
0

>  <SCORE.INTRA.REPUL.0>
0

>  <SCORE.INTRA.SOLV>
-0.792811

>  <SCORE.INTRA.SOLV.lig_0>
-109.973

>  <SCORE.INTRA.VDW>
0.743113

>  <SCORE.INTRA.VDW.0>
-1.68646

>  <SCORE.INTRA.norm>
-0.0459028

>  <SCORE.RESTR>
0.000688006

>  <SCORE.RESTR.CAVITY>
0.000688006

>  <SCORE.RESTR.norm>
1.67806e-05

>  <SCORE.SYSTEM>
0

>  <SCORE.SYSTEM.CONST>
0

>  <SCORE.SYSTEM.DIHEDRAL>
0

>  <SCORE.SYSTEM.SOLV>
0

>  <SCORE.SYSTEM.norm>
0

>  <SCORE.heavy>
41

>  <SCORE.norm>
-0.265565

>  <RMSD>
10.838

$$$$
ligand
 OpenBabel11021811423D
libRbt.so/2013.1/901 2013/11/27
 41 45  0  0  0  0  0  0  0  0999 V2000
   36.2627   35.5559    8.9635 C   0  0  2  0  0  0  0  0  0  0  0  0
   36.3002   36.9725    8.7020 O   0  0  0  0  0  0  0  0  0  0  0  0
   34.3685   39.6489    5.8695 C   0  0  2  0  0  0  0  0  0  0  0  0
   33.8590   40.1868    4.5817 N   0  0  0  0  0  0  0  0  0  0  0  0
   32.3197   36.7922    9.1124 C   0  0  1  0  0  0  0  0  0  0  0  0
   29.9904   35.4998   12.8995 C   0  0  1  0  0  0  0  0  0  0  0  0
   36.2650   35.2677   10.4947 C   0  0  2  0  0  0  0  0  0  0  0  0
   35.1966   35.9715   11.2105 N   0  0  0  0  0  0  0  0  0  0  0  0
   35.8904   39.3334    5.7199 C   0  0  0  0  0  0  0  0  0  0  0  0
   31.5072   35.4947    9.3270 C   0  0  2  0  0  0  0  0  0  0  0  0
   30.1903   35.5931    8.7749 O   0  0  0  0  0  0  0  0  0  0  0  0
   28.5340   35.9617   13.3327 C   0  0  2  0  0  0  0  0  0  0  0  0
   28.2437   37.4022   13.0579 N   0  0  0  0  0  0  0  0  0  0  0  0
   37.6439   35.6329   11.1076 C   0  0  1  0  0  0  0  0  0  0  0  0
   37.6505   35.3425   12.5029 O   0  0  0  0  0  0  0  0  0  0  0  0
   36.4797   38.7578    7.0403 C   0  0  2  0  0  0  0  0  0  0  0  0
   37.9147   38.4977    6.8186 N   0  0  0  0  0  0  0  0  0  0  0  0
   31.5030   35.2886   10.8513 C   0  0  2  0  0  0  0  0  0  0  0  0
   30.2659   35.8058   11.4851 O   0  0  0  0  0  0  0  0  0  0  0  0
   28.3067   35.6521   14.8813 C   0  0  1  0  0  0  0  0  0  0  0  0
   28.2670   34.2297   15.1301 O   0  0  0  0  0  0  0  0  0  0  0  0
   38.7614   34.8482   10.3823 C   0  0  2  0  0  0  0  0  0  0  0  0
   40.0174   35.1623   10.9463 O   0  0  0  0  0  0  0  0  0  0  0  0
   35.6917   37.4679    7.4638 C   0  0  2  0  0  0  0  0  0  0  0  0
   32.7372   36.0490   11.3284 C   0  0  2  0  0  0  0  0  0  0  0  0
   32.9954   37.0422   10.3461 O   0  0  0  0  0  0  0  0  0  0  0  0
   29.4313   36.2941   15.7893 C   0  0  2  0  0  0  0  0  0  0  0  0
   29.3152   37.7263   15.7443 O   0  0  0  0  0  0  0  0  0  0  0  0
   38.7473   35.1743    8.8755 C   0  0  2  0  0  0  0  0  0  0  0  0
   37.4063   34.8482    8.3417 O   0  0  0  0  0  0  0  0  0  0  0  0
   34.1331   37.8258    7.6514 C   0  0  2  0  0  0  0  0  0  0  0  0
   33.3100   36.6430    8.0219 O   0  0  0  0  0  0  0  0  0  0  0  0
   33.9818   35.1822   11.4518 C   0  0  0  0  0  0  0  0  0  0  0  0
   30.8576   35.8321   15.2829 C   0  0  1  0  0  0  0  0  0  0  0  0
   31.0374   36.0857   13.8131 O   0  0  0  0  0  0  0  0  0  0  0  0
   39.8528   34.3657    8.1572 C   0  0  0  0  0  0  0  0  0  0  0  0
   40.0134   34.6703    6.7235 N   0  0  0  0  0  0  0  0  0  0  0  0
   33.5671   38.3679    6.3215 C   0  0  1  0  0  0  0  0  0  0  0  0
   32.1813   38.6852    6.4869 O   0  0  0  0  0  0  0  0  0  0  0  0
   32.0468   36.4671   16.1013 C   0  0  0  0  0  0  0  0  0  0  0  0
   33.4261   36.0305   15.7136 N   0  0  0  0  0  0  0  0  0  0  0  0
  1  2  1  1  0  0  0
  1  7  1  0  0  0  0
  1 30  1  0  0  0  0
  3  4  1  6  0  0  0
  3  9  1  0  0  0  0
  3 38  1  0  0  0  0
  5 10  1  0  0  0  0
  5 26  1  1  0  0  0
  5 32  1  0  0  0  0
  6 12  1  0  0  0  0
  6 35  1  0  0  0  0
  6 19  1  6  0  0  0
  7  8  1  1  0  0  0
  7 14  1  0  0  0  0
  8 33  1  0  0  0  0
  9 16  1  0  0  0  0
 10 11  1  1  0  0  0
 10 18  1  0  0  0  0
 12 13  1  1  0  0  0
 12 20  1  0  0  0  0
 14 15  1  1  0  0  0
 14 22  1  0  0  0  0
 16 17  1  6  0  0  0
 16 24  1  0  0  0  0
 18 19  1  1  0  0  0
 18 25  1  0  0  0  0
 20 21  1  6  0  0  0
 20 27  1  0  0  0  0
 22 23  1  1  0  0  0
 22 29  1  0  0  0  0
 24  2  1  1  0  0  0
 24 31  1  0  0  0  0
 25 26  1  6  0  0  0
 25 33  1  0  0  0  0
 27 28  1  6  0  0  0
 27 34  1  0  0  0  0
 29 30  1  0  0  0  0
 29 36  1  6  0  0  0
 31 32  1  6  0  0  0
 31 38  1  0  0  0  0
 34 35  1  0  0  0  0
 34 40  1  1  0  0  0
 36 37  1  0  0  0  0
 38 39  1  1  0  0  0
 40 41  1  0  0  0  0
M  END
>  <CHROM.1>
170.08171800,-171.89859536,-175.34922824,177.57094687,33.80218773,36.42148966
10.42977602,-0.68121950,-0.24466567,1.97130270

>  <Name>
ligand

>  <RI>
0

>  <Rbt.Current_Directory>
/home/itssahil/PROJECTS/Mol_Feturizer/New_Systems/rnas/1ZZ5

>  <Rbt.Executable>
rbdock ($Id: //depot/dev/client3/rdock/2013.1/src/exe/rbdock.cxx#4 $)

>  <Rbt.Library>
libRbt.so (2013.1, Build901 2013/11/27)

>  <Rbt.Parameter_File>
/export/apps/rDock/src/rDock_2013.1_src/data/scripts/dock_solv.prm

>  <Rbt.Receptor>
prm/pocket_docking_8.prm

>  <SCORE>
-11.9435

>  <SCORE.INTER>
-9.34634

>  <SCORE.INTER.CONST>
1

>  <SCORE.INTER.POLAR>
0

>  <SCORE.INTER.ROT>
4

>  <SCORE.INTER.SOLV>
12.868

>  <SCORE.INTER.VDW>
-16.7869

>  <SCORE.INTER.norm>
-0.227959

>  <SCORE.INTRA>
-2.59721

>  <SCORE.INTRA.DIHEDRAL>
-4.06556

>  <SCORE.INTRA.DIHEDRAL.0>
5.18357

>  <SCORE.INTRA.POLAR>
0

>  <SCORE.INTRA.POLAR.0>
0

>  <SCORE.INTRA.REPUL>
0

>  <SCORE.INTRA.REPUL.0>
0

>  <SCORE.INTRA.SOLV>
-1.25246

>  <SCORE.INTRA.SOLV.lig_0>
-109.973

>  <SCORE.INTRA.VDW>
0.0617979

>  <SCORE.INTRA.VDW.0>
-1.68646

>  <SCORE.INTRA.norm>
-0.0633466

>  <SCORE.RESTR>
0

>  <SCORE.RESTR.CAVITY>
0

>  <SCORE.RESTR.norm>
0

>  <SCORE.SYSTEM>
0

>  <SCORE.SYSTEM.CONST>
0

>  <SCORE.SYSTEM.DIHEDRAL>
0

>  <SCORE.SYSTEM.SOLV>
0

>  <SCORE.SYSTEM.norm>
0

>  <SCORE.heavy>
41

>  <SCORE.norm>
-0.291306

>  <RMSD>
10.991

$$$$
ligand
 OpenBabel11021811423D
libRbt.so/2013.1/901 2013/11/27
 41 45  0  0  0  0  0  0  0  0999 V2000
   36.2172   35.5592    8.9161 C   0  0  2  0  0  0  0  0  0  0  0  0
   36.2416   36.9810    8.6825 O   0  0  0  0  0  0  0  0  0  0  0  0
   34.2418   39.7018    5.9411 C   0  0  2  0  0  0  0  0  0  0  0  0
   33.7052   40.2623    4.6742 N   0  0  0  0  0  0  0  0  0  0  0  0
   32.2706   36.7682    9.1633 C   0  0  1  0  0  0  0  0  0  0  0  0
   30.0634   35.4618   12.9891 C   0  0  1  0  0  0  0  0  0  0  0  0
   36.2498   35.2404   10.4408 C   0  0  2  0  0  0  0  0  0  0  0  0
   35.1910   35.9231   11.1904 N   0  0  0  0  0  0  0  0  0  0  0  0
   35.7624   39.3987    5.7568 C   0  0  0  0  0  0  0  0  0  0  0  0
   31.4697   35.4617    9.3668 C   0  0  2  0  0  0  0  0  0  0  0  0
   30.1422   35.5631    8.8414 O   0  0  0  0  0  0  0  0  0  0  0  0
   28.6483   35.9805   13.4897 C   0  0  2  0  0  0  0  0  0  0  0  0
   28.3861   37.4217   13.1913 N   0  0  0  0  0  0  0  0  0  0  0  0
   37.6379   35.6016   11.0352 C   0  0  1  0  0  0  0  0  0  0  0  0
   37.6723   35.2833   12.4239 O   0  0  0  0  0  0  0  0  0  0  0  0
   36.3797   38.8004    7.0541 C   0  0  2  0  0  0  0  0  0  0  0  0
   37.8117   38.5535    6.8005 N   0  0  0  0  0  0  0  0  0  0  0  0
   31.4953   35.2250   10.8865 C   0  0  2  0  0  0  0  0  0  0  0  0
   30.2674   35.7218   11.5535 O   0  0  0  0  0  0  0  0  0  0  0  0
   28.4997   35.7189   15.0566 C   0  0  1  0  0  0  0  0  0  0  0  0
   28.4317   34.3054   15.3470 O   0  0  0  0  0  0  0  0  0  0  0  0
   38.7461   34.8385   10.2734 C   0  0  2  0  0  0  0  0  0  0  0  0
   40.0106   35.1489   10.8202 O   0  0  0  0  0  0  0  0  0  0  0  0
   35.6072   37.4974    7.4661 C   0  0  2  0  0  0  0  0  0  0  0  0
   32.7339   35.9832   11.3557 C   0  0  2  0  0  0  0  0  0  0  0  0
   32.9679   36.9975   10.3890 O   0  0  0  0  0  0  0  0  0  0  0  0
   29.6927   36.3489   15.8822 C   0  0  2  0  0  0  0  0  0  0  0  0
   29.6171   37.7823   15.8037 O   0  0  0  0  0  0  0  0  0  0  0  0
   38.7019   35.1947    8.7741 C   0  0  2  0  0  0  0  0  0  0  0  0
   37.3530   34.8712    8.2588 O   0  0  0  0  0  0  0  0  0  0  0  0
   34.0504   37.8420    7.6900 C   0  0  2  0  0  0  0  0  0  0  0  0
   33.2411   36.6469    8.0518 O   0  0  0  0  0  0  0  0  0  0  0  0
   33.9855   35.1217   11.4384 C   0  0  0  0  0  0  0  0  0  0  0  0
   31.0736   35.8291   15.3102 C   0  0  1  0  0  0  0  0  0  0  0  0
   31.1774   36.0383   13.8261 O   0  0  0  0  0  0  0  0  0  0  0  0
   39.7983   34.4074    8.0192 C   0  0  0  0  0  0  0  0  0  0  0  0
   39.9330   34.7447    6.5900 N   0  0  0  0  0  0  0  0  0  0  0  0
   33.4564   38.4072    6.3820 C   0  0  1  0  0  0  0  0  0  0  0  0
   32.0721   38.7126    6.5796 O   0  0  0  0  0  0  0  0  0  0  0  0
   32.3257   36.4478   16.0430 C   0  0  0  0  0  0  0  0  0  0  0  0
   32.4595   36.1385   17.5024 N   0  0  0  0  0  0  0  0  0  0  0  0
  1  2  1  1  0  0  0
  1  7  1  0  0  0  0
  1 30  1  0  0  0  0
  3  4  1  6  0  0  0
  3  9  1  0  0  0  0
  3 38  1  0  0  0  0
  5 10  1  0  0  0  0
  5 26  1  1  0  0  0
  5 32  1  0  0  0  0
  6 12  1  0  0  0  0
  6 35  1  0  0  0  0
  6 19  1  6  0  0  0
  7  8  1  1  0  0  0
  7 14  1  0  0  0  0
  8 33  1  0  0  0  0
  9 16  1  0  0  0  0
 10 11  1  1  0  0  0
 10 18  1  0  0  0  0
 12 13  1  1  0  0  0
 12 20  1  0  0  0  0
 14 15  1  1  0  0  0
 14 22  1  0  0  0  0
 16 17  1  6  0  0  0
 16 24  1  0  0  0  0
 18 19  1  1  0  0  0
 18 25  1  0  0  0  0
 20 21  1  6  0  0  0
 20 27  1  0  0  0  0
 22 23  1  1  0  0  0
 22 29  1  0  0  0  0
 24  2  1  1  0  0  0
 24 31  1  0  0  0  0
 25 26  1  6  0  0  0
 25 33  1  0  0  0  0
 27 28  1  6  0  0  0
 27 34  1  0  0  0  0
 29 30  1  0  0  0  0
 29 36  1  6  0  0  0
 31 32  1  6  0  0  0
 31 38  1  0  0  0  0
 34 35  1  0  0  0  0
 34 40  1  1  0  0  0
 36 37  1  0  0  0  0
 38 39  1  1  0  0  0
 40 41  1  0  0  0  0
M  END
>  <CHROM.1>
174.12289542,-175.89664484,-175.17334326,62.38117273,33.78638483,36.42781019
10.48912529,-0.72710849,-0.25529043,1.95677653

>  <Name>
ligand

>  <RI>
0

>  <Rbt.Current_Directory>
/home/itssahil/PROJECTS/Mol_Feturizer/New_Systems/rnas/1ZZ5

>  <Rbt.Executable>
rbdock ($Id: //depot/dev/client3/rdock/2013.1/src/exe/rbdock.cxx#4 $)

>  <Rbt.Library>
libRbt.so (2013.1, Build901 2013/11/27)

>  <Rbt.Parameter_File>
/export/apps/rDock/src/rDock_2013.1_src/data/scripts/dock_solv.prm

>  <Rbt.Receptor>
prm/pocket_docking_8.prm

>  <SCORE>
-11.9071

>  <SCORE.INTER>
-9.23911

>  <SCORE.INTER.CONST>
1

>  <SCORE.INTER.POLAR>
0

>  <SCORE.INTER.ROT>
4

>  <SCORE.INTER.SOLV>
13.405

>  <SCORE.INTER.VDW>
-16.8944

>  <SCORE.INTER.norm>
-0.225344

>  <SCORE.INTRA>
-2.66802

>  <SCORE.INTRA.DIHEDRAL>
-4.6022

>  <SCORE.INTRA.DIHEDRAL.0>
5.18357

>  <SCORE.INTRA.POLAR>
0

>  <SCORE.INTRA.POLAR.0>
0

>  <SCORE.INTRA.REPUL>
0

>  <SCORE.INTRA.REPUL.0>
0

>  <SCORE.INTRA.SOLV>
-1.16402

>  <SCORE.INTRA.SOLV.lig_0>
-109.973

>  <SCORE.INTRA.VDW>
0.215086

>  <SCORE.INTRA.VDW.0>
-1.68646

>  <SCORE.INTRA.norm>
-0.0650737

>  <SCORE.RESTR>
0

>  <SCORE.RESTR.CAVITY>
0

>  <SCORE.RESTR.norm>
0

>  <SCORE.SYSTEM>
0

>  <SCORE.SYSTEM.CONST>
0

>  <SCORE.SYSTEM.DIHEDRAL>
0

>  <SCORE.SYSTEM.SOLV>
0

>  <SCORE.SYSTEM.norm>
0

>  <SCORE.heavy>
41

>  <SCORE.norm>
-0.290418

>  <RMSD>
10.995

$$$$
ligand
 OpenBabel11021811423D
libRbt.so/2013.1/901 2013/11/27
 41 45  0  0  0  0  0  0  0  0999 V2000
   36.2535   35.5612    8.9854 C   0  0  2  0  0  0  0  0  0  0  0  0
   36.2704   36.9825    8.7486 O   0  0  0  0  0  0  0  0  0  0  0  0
   34.3063   39.6785    5.9573 C   0  0  2  0  0  0  0  0  0  0  0  0
   33.7922   40.2310    4.6776 N   0  0  0  0  0  0  0  0  0  0  0  0
   32.2920   36.7355    9.1441 C   0  0  1  0  0  0  0  0  0  0  0  0
   29.9986   35.3901   12.9166 C   0  0  1  0  0  0  0  0  0  0  0  0
   36.2560   35.2465   10.5114 C   0  0  2  0  0  0  0  0  0  0  0  0
   35.1752   35.9216   11.2361 N   0  0  0  0  0  0  0  0  0  0  0  0
   35.8332   39.3885    5.8067 C   0  0  0  0  0  0  0  0  0  0  0  0
   31.4985   35.4224    9.3338 C   0  0  2  0  0  0  0  0  0  0  0  0
   30.1818   35.5107    8.7795 O   0  0  0  0  0  0  0  0  0  0  0  0
   28.5320   35.8095   13.3585 C   0  0  2  0  0  0  0  0  0  0  0  0
   28.1883   37.2333   13.0592 N   0  0  0  0  0  0  0  0  0  0  0  0
   37.6276   35.6216   11.1346 C   0  0  1  0  0  0  0  0  0  0  0  0
   37.6349   35.3071   12.5246 O   0  0  0  0  0  0  0  0  0  0  0  0
   36.4276   38.7989    7.1186 C   0  0  2  0  0  0  0  0  0  0  0  0
   37.8669   38.5643    6.8967 N   0  0  0  0  0  0  0  0  0  0  0  0
   31.4933   35.1898   10.8543 C   0  0  2  0  0  0  0  0  0  0  0  0
   30.2469   35.6773   11.4932 O   0  0  0  0  0  0  0  0  0  0  0  0
   28.3335   35.5231   14.9155 C   0  0  1  0  0  0  0  0  0  0  0  0
   28.3466   34.1054   15.1925 O   0  0  0  0  0  0  0  0  0  0  0  0
   38.7588   34.8665   10.3990 C   0  0  2  0  0  0  0  0  0  0  0  0
   40.0083   35.1895   10.9721 O   0  0  0  0  0  0  0  0  0  0  0  0
   35.6579   37.4902    7.5174 C   0  0  2  0  0  0  0  0  0  0  0  0
   32.7147   35.9602   11.3481 C   0  0  2  0  0  0  0  0  0  0  0  0
   32.9605   36.9741   10.3839 O   0  0  0  0  0  0  0  0  0  0  0  0
   29.4454   36.2219   15.7970 C   0  0  2  0  0  0  0  0  0  0  0  0
   29.2787   37.6479   15.7256 O   0  0  0  0  0  0  0  0  0  0  0  0
   38.7438   35.2184    8.8981 C   0  0  2  0  0  0  0  0  0  0  0  0
   37.4093   34.8817    8.3548 O   0  0  0  0  0  0  0  0  0  0  0  0
   34.0936   37.8214    7.7066 C   0  0  2  0  0  0  0  0  0  0  0  0
   33.2874   36.6201    8.0541 O   0  0  0  0  0  0  0  0  0  0  0  0
   33.9718   35.1101   11.4601 C   0  0  0  0  0  0  0  0  0  0  0  0
   30.8811   35.7998   15.2823 C   0  0  1  0  0  0  0  0  0  0  0  0
   31.0349   36.0302   13.8057 O   0  0  0  0  0  0  0  0  0  0  0  0
   39.8632   34.4391    8.1692 C   0  0  0  0  0  0  0  0  0  0  0  0
   39.9827   34.7258    6.7277 N   0  0  0  0  0  0  0  0  0  0  0  0
   33.5231   38.3780    6.3847 C   0  0  1  0  0  0  0  0  0  0  0  0
   32.1322   38.6716    6.5514 O   0  0  0  0  0  0  0  0  0  0  0  0
   32.0567   36.4920   16.0736 C   0  0  0  0  0  0  0  0  0  0  0  0
   32.1740   36.1436   17.5256 N   0  0  0  0  0  0  0  0  0  0  0  0
  1  2  1  1  0  0  0
  1  7  1  0  0  0  0
  1 30  1  0  0  0  0
  3  4  1  6  0  0  0
  3  9  1  0  0  0  0
  3 38  1  0  0  0  0
  5 10  1  0  0  0  0
  5 26  1  1  0  0  0
  5 32  1  0  0  0  0
  6 12  1  0  0  0  0
  6 35  1  0  0  0  0
  6 19  1  6  0  0  0
  7  8  1  1  0  0  0
  7 14  1  0  0  0  0
  8 33  1  0  0  0  0
  9 16  1  0  0  0  0
 10 11  1  1  0  0  0
 10 18  1  0  0  0  0
 12 13  1  1  0  0  0
 12 20  1  0  0  0  0
 14 15  1  1  0  0  0
 14 22  1  0  0  0  0
 16 17  1  6  0  0  0
 16 24  1  0  0  0  0
 18 19  1  1  0  0  0
 18 25  1  0  0  0  0
 20 21  1  6  0  0  0
 20 27  1  0  0  0  0
 22 23  1  1  0  0  0
 22 29  1  0  0  0  0
 24  2  1  1  0  0  0
 24 31  1  0  0  0  0
 25 26  1  6  0  0  0
 25 33  1  0  0  0  0
 27 28  1  6  0  0  0
 27 34  1  0  0  0  0
 29 30  1  0  0  0  0
 29 36  1  6  0  0  0
 31 32  1  6  0  0  0
 31 38  1  0  0  0  0
 34 35  1  0  0  0  0
 34 40  1  1  0  0  0
 36 37  1  0  0  0  0
 38 39  1  1  0  0  0
 40 41  1  0  0  0  0
M  END
>  <CHROM.1>
172.60543965,-171.83616359,-178.01425073,64.26909938,33.75534266,36.39483003
10.50170494,-0.70580711,-0.23513314,1.96374697

>  <Name>
ligand

>  <RI>
0

>  <Rbt.Current_Directory>
/home/itssahil/PROJECTS/Mol_Feturizer/New_Systems/rnas/1ZZ5

>  <Rbt.Executable>
rbdock ($Id: //depot/dev/client3/rdock/2013.1/src/exe/rbdock.cxx#4 $)

>  <Rbt.Library>
libRbt.so (2013.1, Build901 2013/11/27)

>  <Rbt.Parameter_File>
/export/apps/rDock/src/rDock_2013.1_src/data/scripts/dock_solv.prm

>  <Rbt.Receptor>
prm/pocket_docking_8.prm

>  <SCORE>
-11.9054

>  <SCORE.INTER>
-9.2978

>  <SCORE.INTER.CONST>
1

>  <SCORE.INTER.POLAR>
0

>  <SCORE.INTER.ROT>
4

>  <SCORE.INTER.SOLV>
13.3446

>  <SCORE.INTER.VDW>
-16.9134

>  <SCORE.INTER.norm>
-0.226776

>  <SCORE.INTRA>
-2.60755

>  <SCORE.INTRA.DIHEDRAL>
-4.30077

>  <SCORE.INTRA.DIHEDRAL.0>
5.18357

>  <SCORE.INTRA.POLAR>
0

>  <SCORE.INTRA.POLAR.0>
0

>  <SCORE.INTRA.REPUL>
0

>  <SCORE.INTRA.REPUL.0>
0

>  <SCORE.INTRA.SOLV>
-1.2439

>  <SCORE.INTRA.SOLV.lig_0>
-109.973

>  <SCORE.INTRA.VDW>
0.164779

>  <SCORE.INTRA.VDW.0>
-1.68646

>  <SCORE.INTRA.norm>
-0.0635989

>  <SCORE.RESTR>
0

>  <SCORE.RESTR.CAVITY>
0

>  <SCORE.RESTR.norm>
0

>  <SCORE.SYSTEM>
0

>  <SCORE.SYSTEM.CONST>
0

>  <SCORE.SYSTEM.DIHEDRAL>
0

>  <SCORE.SYSTEM.SOLV>
0

>  <SCORE.SYSTEM.norm>
0

>  <SCORE.heavy>
41

>  <SCORE.norm>
-0.290374

>  <RMSD>
11.069

$$$$
ligand
 OpenBabel11021811423D
libRbt.so/2013.1/901 2013/11/27
 41 45  0  0  0  0  0  0  0  0999 V2000
   30.4700   41.6309    1.7686 C   0  0  2  0  0  0  0  0  0  0  0  0
   31.6584   40.9402    2.2013 O   0  0  0  0  0  0  0  0  0  0  0  0
   33.3031   39.7166    6.0373 C   0  0  2  0  0  0  0  0  0  0  0  0
   33.7352   39.7864    7.4571 N   0  0  0  0  0  0  0  0  0  0  0  0
   29.1148   38.4846    4.0842 C   0  0  1  0  0  0  0  0  0  0  0  0
   27.3816   35.4478    2.6732 C   0  0  1  0  0  0  0  0  0  0  0  0
   29.8806   40.9808    0.4811 C   0  0  2  0  0  0  0  0  0  0  0  0
   29.6393   39.5421    0.6261 N   0  0  0  0  0  0  0  0  0  0  0  0
   33.9743   40.8832    5.2457 C   0  0  0  0  0  0  0  0  0  0  0  0
   27.5816   38.6725    4.1470 C   0  0  2  0  0  0  0  0  0  0  0  0
   27.0278   38.1356    5.3527 O   0  0  0  0  0  0  0  0  0  0  0  0
   27.1292   35.1624    1.1314 C   0  0  2  0  0  0  0  0  0  0  0  0
   25.6902   34.9726    0.7735 N   0  0  0  0  0  0  0  0  0  0  0  0
   30.8171   41.2421   -0.7293 C   0  0  1  0  0  0  0  0  0  0  0  0
   30.2610   40.6692   -1.9097 O   0  0  0  0  0  0  0  0  0  0  0  0
   33.5512   40.8654    3.7481 C   0  0  2  0  0  0  0  0  0  0  0  0
   34.2324   41.9863    3.0732 N   0  0  0  0  0  0  0  0  0  0  0  0
   27.0541   37.9729    2.8827 C   0  0  2  0  0  0  0  0  0  0  0  0
   26.5894   36.5916    3.1572 O   0  0  0  0  0  0  0  0  0  0  0  0
   27.9715   33.8875    0.6724 C   0  0  1  0  0  0  0  0  0  0  0  0
   29.3903   34.1568    0.7091 O   0  0  0  0  0  0  0  0  0  0  0  0
   31.0261   42.7637   -0.9081 C   0  0  2  0  0  0  0  0  0  0  0  0
   31.8633   43.0098   -2.0184 O   0  0  0  0  0  0  0  0  0  0  0  0
   31.9882   40.9507    3.6296 C   0  0  2  0  0  0  0  0  0  0  0  0
   28.2474   37.9842    1.9314 C   0  0  2  0  0  0  0  0  0  0  0  0
   29.4059   38.0669    2.7494 O   0  0  0  0  0  0  0  0  0  0  0  0
   27.6729   32.6204    1.5706 C   0  0  2  0  0  0  0  0  0  0  0  0
   26.3200   32.1894    1.3457 O   0  0  0  0  0  0  0  0  0  0  0  0
   31.6323   43.3708    0.3728 C   0  0  2  0  0  0  0  0  0  0  0  0
   30.7293   43.0656    1.5046 O   0  0  0  0  0  0  0  0  0  0  0  0
   31.3198   39.7164    4.4185 C   0  0  2  0  0  0  0  0  0  0  0  0
   29.8326   39.7450    4.3809 O   0  0  0  0  0  0  0  0  0  0  0  0
   28.2630   39.1726    0.9813 C   0  0  0  0  0  0  0  0  0  0  0  0
   27.9000   32.9787    3.0952 C   0  0  1  0  0  0  0  0  0  0  0  0
   27.1388   34.2095    3.4989 O   0  0  0  0  0  0  0  0  0  0  0  0
   31.8140   44.8958    0.1909 C   0  0  0  0  0  0  0  0  0  0  0  0
   31.5171   45.7041    1.3879 N   0  0  0  0  0  0  0  0  0  0  0  0
   31.7326   39.7732    5.9048 C   0  0  1  0  0  0  0  0  0  0  0  0
   31.1378   38.6771    6.6073 O   0  0  0  0  0  0  0  0  0  0  0  0
   27.5750   31.7843    4.0725 C   0  0  0  0  0  0  0  0  0  0  0  0
   26.1875   31.2251    3.9977 N   0  0  0  0  0  0  0  0  0  0  0  0
  1  2  1  6  0  0  0
  1  7  1  0  0  0  0
  1 30  1  0  0  0  0
  3  4  1  1  0  0  0
  3  9  1  0  0  0  0
  3 38  1  0  0  0  0
  5 10  1  0  0  0  0
  5 26  1  6  0  0  0
  5 32  1  0  0  0  0
  6 12  1  0  0  0  0
  6 35  1  0  0  0  0
  6 19  1  1  0  0  0
  7  8  1  1  0  0  0
  7 14  1  0  0  0  0
  8 33  1  0  0  0  0
  9 16  1  0  0  0  0
 10 11  1  1  0  0  0
 10 18  1  0  0  0  0
 12 13  1  1  0  0  0
 12 20  1  0  0  0  0
 14 15  1  6  0  0  0
 14 22  1  0  0  0  0
 16 17  1  6  0  0  0
 16 24  1  0  0  0  0
 18 19  1  1  0  0  0
 18 25  1  0  0  0  0
 20 21  1  1  0  0  0
 20 27  1  0  0  0  0
 22 23  1  6  0  0  0
 22 29  1  0  0  0  0
 24  2  1  6  0  0  0
 24 31  1  0  0  0  0
 25 26  1  1  0  0  0
 25 33  1  0  0  0  0
 27 28  1  1  0  0  0
 27 34  1  0  0  0  0
 29 30  1  0  0  0  0
 29 36  1  6  0  0  0
 31 32  1  1  0  0  0
 31 38  1  0  0  0  0
 34 35  1  0  0  0  0
 34 40  1  1  0  0  0
 36 37  1  0  0  0  0
 38 39  1  1  0  0  0
 40 41  1  0  0  0  0
M  END
>  <CHROM.1>
-108.21996271,-79.51997190,141.60242861,-57.62427914,29.72994424,38.61071560
2.48776926,0.62234551,-0.93538043,-0.93533151

>  <Name>
ligand

>  <RI>
0

>  <Rbt.Current_Directory>
/home/itssahil/PROJECTS/Mol_Feturizer/New_Systems/rnas/1ZZ5

>  <Rbt.Executable>
rbdock ($Id: //depot/dev/client3/rdock/2013.1/src/exe/rbdock.cxx#4 $)

>  <Rbt.Library>
libRbt.so (2013.1, Build901 2013/11/27)

>  <Rbt.Parameter_File>
/export/apps/rDock/src/rDock_2013.1_src/data/scripts/dock_solv.prm

>  <Rbt.Receptor>
prm/blind_docking_60.prm

>  <SCORE>
39.5319

>  <SCORE.INTER>
8.91011

>  <SCORE.INTER.CONST>
1

>  <SCORE.INTER.POLAR>
0

>  <SCORE.INTER.ROT>
4

>  <SCORE.INTER.SOLV>
30.9789

>  <SCORE.INTER.VDW>
-10.6529

>  <SCORE.INTER.norm>
0.21732

>  <SCORE.INTRA>
5.313

>  <SCORE.INTRA.DIHEDRAL>
6.96087

>  <SCORE.INTRA.DIHEDRAL.0>
5.18357

>  <SCORE.INTRA.POLAR>
0

>  <SCORE.INTRA.POLAR.0>
0

>  <SCORE.INTRA.REPUL>
0

>  <SCORE.INTRA.REPUL.0>
0

>  <SCORE.INTRA.SOLV>
1.20973

>  <SCORE.INTRA.SOLV.lig_0>
-109.973

>  <SCORE.INTRA.VDW>
1.2277

>  <SCORE.INTRA.VDW.0>
-1.68646

>  <SCORE.INTRA.norm>
0.129585

>  <SCORE.RESTR>
25.3088

>  <SCORE.RESTR.CAVITY>
25.3088

>  <SCORE.RESTR.norm>
0.617289

>  <SCORE.SYSTEM>
0

>  <SCORE.SYSTEM.CONST>
0

>  <SCORE.SYSTEM.DIHEDRAL>
0

>  <SCORE.SYSTEM.SOLV>
0

>  <SCORE.SYSTEM.norm>
0

>  <SCORE.heavy>
41

>  <SCORE.norm>
0.964194

>  <RMSD>
12.176

$$$$
ligand
 OpenBabel11021811423D
libRbt.so/2013.1/901 2013/11/27
 41 45  0  0  0  0  0  0  0  0999 V2000
   32.7318   40.6104    3.1634 C   0  0  2  0  0  0  0  0  0  0  0  0
   31.9675   41.7585    3.5807 O   0  0  0  0  0  0  0  0  0  0  0  0
   30.0104   45.0749    1.5586 C   0  0  2  0  0  0  0  0  0  0  0  0
   29.7988   46.2129    0.6273 N   0  0  0  0  0  0  0  0  0  0  0  0
   29.1939   40.3916    1.0343 C   0  0  1  0  0  0  0  0  0  0  0  0
   27.0397   36.2622    1.1555 C   0  0  1  0  0  0  0  0  0  0  0  0
   32.3487   39.3491    3.9941 C   0  0  2  0  0  0  0  0  0  0  0  0
   30.9100   39.0682    3.9763 N   0  0  0  0  0  0  0  0  0  0  0  0
   31.3087   45.3328    2.3868 C   0  0  0  0  0  0  0  0  0  0  0  0
   29.3685   39.1699    0.1033 C   0  0  2  0  0  0  0  0  0  0  0  0
   28.6058   39.3039   -1.1005 O   0  0  0  0  0  0  0  0  0  0  0  0
   26.7153   36.2559    2.7102 C   0  0  2  0  0  0  0  0  0  0  0  0
   27.8507   36.7056    3.5724 N   0  0  0  0  0  0  0  0  0  0  0  0
   32.8414   39.5008    5.4585 C   0  0  1  0  0  0  0  0  0  0  0  0
   32.5128   38.3339    6.2077 O   0  0  0  0  0  0  0  0  0  0  0  0
   31.5866   44.1657    3.3782 C   0  0  2  0  0  0  0  0  0  0  0  0
   32.8172   44.4903    4.1241 N   0  0  0  0  0  0  0  0  0  0  0  0
   28.9321   37.9673    0.9574 C   0  0  2  0  0  0  0  0  0  0  0  0
   27.5245   37.5769    0.7008 O   0  0  0  0  0  0  0  0  0  0  0  0
   26.2425   34.7993    3.1581 C   0  0  1  0  0  0  0  0  0  0  0  0
   24.9653   34.4611    2.5740 O   0  0  0  0  0  0  0  0  0  0  0  0
   34.3680   39.7456    5.4726 C   0  0  2  0  0  0  0  0  0  0  0  0
   34.8262   39.8673    6.8028 O   0  0  0  0  0  0  0  0  0  0  0  0
   31.6962   42.8094    2.5954 C   0  0  2  0  0  0  0  0  0  0  0  0
   29.1282   38.4458    2.3932 C   0  0  2  0  0  0  0  0  0  0  0  0
   29.0464   39.8635    2.3535 O   0  0  0  0  0  0  0  0  0  0  0  0
   27.2918   33.6838    2.7628 C   0  0  2  0  0  0  0  0  0  0  0  0
   28.4902   33.8666    3.5354 O   0  0  0  0  0  0  0  0  0  0  0  0
   34.7103   41.0126    4.6636 C   0  0  2  0  0  0  0  0  0  0  0  0
   34.1900   40.8413    3.2890 O   0  0  0  0  0  0  0  0  0  0  0  0
   30.3321   42.5449    1.7820 C   0  0  2  0  0  0  0  0  0  0  0  0
   30.3701   41.2895    0.9844 O   0  0  0  0  0  0  0  0  0  0  0  0
   30.4802   38.0742    2.9842 C   0  0  0  0  0  0  0  0  0  0  0  0
   27.6060   33.7684    1.2141 C   0  0  1  0  0  0  0  0  0  0  0  0
   28.0022   35.1572    0.7997 O   0  0  0  0  0  0  0  0  0  0  0  0
   36.2410   41.2334    4.6644 C   0  0  0  0  0  0  0  0  0  0  0  0
   36.7644   41.9532    5.8400 N   0  0  0  0  0  0  0  0  0  0  0  0
   30.0947   43.7016    0.7877 C   0  0  1  0  0  0  0  0  0  0  0  0
   28.8828   43.4667    0.0632 O   0  0  0  0  0  0  0  0  0  0  0  0
   28.6857   32.7221    0.7378 C   0  0  0  0  0  0  0  0  0  0  0  0
   28.6080   31.3606    1.3572 N   0  0  0  0  0  0  0  0  0  0  0  0
  1  2  1  1  0  0  0
  1  7  1  0  0  0  0
  1 30  1  0  0  0  0
  3  4  1  6  0  0  0
  3  9  1  0  0  0  0
  3 38  1  0  0  0  0
  5 10  1  0  0  0  0
  5 26  1  1  0  0  0
  5 32  1  0  0  0  0
  6 12  1  0  0  0  0
  6 35  1  0  0  0  0
  6 19  1  1  0  0  0
  7  8  1  1  0  0  0
  7 14  1  0  0  0  0
  8 33  1  0  0  0  0
  9 16  1  0  0  0  0
 10 11  1  6  0  0  0
 10 18  1  0  0  0  0
 12 13  1  1  0  0  0
 12 20  1  0  0  0  0
 14 15  1  1  0  0  0
 14 22  1  0  0  0  0
 16 17  1  6  0  0  0
 16 24  1  0  0  0  0
 18 19  1  1  0  0  0
 18 25  1  0  0  0  0
 20 21  1  6  0  0  0
 20 27  1  0  0  0  0
 22 23  1  1  0  0  0
 22 29  1  0  0  0  0
 24  2  1  1  0  0  0
 24 31  1  0  0  0  0
 25 26  1  6  0  0  0
 25 33  1  0  0  0  0
 27 28  1  1  0  0  0
 27 34  1  0  0  0  0
 29 30  1  0  0  0  0
 29 36  1  6  0  0  0
 31 32  1  6  0  0  0
 31 38  1  0  0  0  0
 34 35  1  0  0  0  0
 34 40  1  1  0  0  0
 36 37  1  0  0  0  0
 38 39  1  1  0  0  0
 40 41  1  0  0  0  0
M  END
>  <CHROM.1>
164.47107990,78.66164507,-84.60244858,39.10901711,30.35894365,39.29737779
2.64057844,-0.84209772,0.62764176,2.85621764

>  <Name>
ligand

>  <RI>
0

>  <Rbt.Current_Directory>
/home/itssahil/PROJECTS/Mol_Feturizer/New_Systems/rnas/1ZZ5

>  <Rbt.Executable>
rbdock ($Id: //depot/dev/client3/rdock/2013.1/src/exe/rbdock.cxx#4 $)

>  <Rbt.Library>
libRbt.so (2013.1, Build901 2013/11/27)

>  <Rbt.Parameter_File>
/export/apps/rDock/src/rDock_2013.1_src/data/scripts/dock_solv.prm

>  <Rbt.Receptor>
prm/blind_docking_60.prm

>  <SCORE>
22.1281

>  <SCORE.INTER>
-4.30959

>  <SCORE.INTER.CONST>
1

>  <SCORE.INTER.POLAR>
0

>  <SCORE.INTER.ROT>
4

>  <SCORE.INTER.SOLV>
25.68

>  <SCORE.INTER.VDW>
-17.6997

>  <SCORE.INTER.norm>
-0.105112

>  <SCORE.INTRA>
5.05413

>  <SCORE.INTRA.DIHEDRAL>
1.02331

>  <SCORE.INTRA.DIHEDRAL.0>
5.18357

>  <SCORE.INTRA.POLAR>
0

>  <SCORE.INTRA.POLAR.0>
0

>  <SCORE.INTRA.REPUL>
0

>  <SCORE.INTRA.REPUL.0>
0

>  <SCORE.INTRA.SOLV>
3.738

>  <SCORE.INTRA.SOLV.lig_0>
-109.973

>  <SCORE.INTRA.VDW>
2.67348

>  <SCORE.INTRA.VDW.0>
-1.68646

>  <SCORE.INTRA.norm>
0.123272

>  <SCORE.RESTR>
21.3836

>  <SCORE.RESTR.CAVITY>
21.3836

>  <SCORE.RESTR.norm>
0.52155

>  <SCORE.SYSTEM>
0

>  <SCORE.SYSTEM.CONST>
0

>  <SCORE.SYSTEM.DIHEDRAL>
0

>  <SCORE.SYSTEM.SOLV>
0

>  <SCORE.SYSTEM.norm>
0

>  <SCORE.heavy>
41

>  <SCORE.norm>
0.53971

>  <RMSD>
12.511

$$$$
ligand
 OpenBabel11021811423D
libRbt.so/2013.1/901 2013/11/27
 41 45  0  0  0  0  0  0  0  0999 V2000
   32.7155   40.5396    3.2033 C   0  0  2  0  0  0  0  0  0  0  0  0
   31.9546   41.7054    3.5754 O   0  0  0  0  0  0  0  0  0  0  0  0
   30.0589   44.9788    1.4286 C   0  0  2  0  0  0  0  0  0  0  0  0
   29.8722   46.0916    0.4620 N   0  0  0  0  0  0  0  0  0  0  0  0
   29.2102   40.2894    1.0243 C   0  0  1  0  0  0  0  0  0  0  0  0
   27.0244   36.1743    1.2099 C   0  0  1  0  0  0  0  0  0  0  0  0
   32.3083   39.3058    4.0632 C   0  0  2  0  0  0  0  0  0  0  0  0
   30.8676   39.0363    4.0301 N   0  0  0  0  0  0  0  0  0  0  0  0
   31.3461   45.2496    2.2700 C   0  0  0  0  0  0  0  0  0  0  0  0
   29.3890   39.0402    0.1313 C   0  0  2  0  0  0  0  0  0  0  0  0
   28.6469   39.1461   -1.0880 O   0  0  0  0  0  0  0  0  0  0  0  0
   26.7273   36.1761    2.7700 C   0  0  2  0  0  0  0  0  0  0  0  0
   27.8847   36.6093    3.6112 N   0  0  0  0  0  0  0  0  0  0  0  0
   32.7788   39.4952    5.5305 C   0  0  1  0  0  0  0  0  0  0  0  0
   32.4282   38.3528    6.3071 O   0  0  0  0  0  0  0  0  0  0  0  0
   31.5980   44.1090    3.2985 C   0  0  2  0  0  0  0  0  0  0  0  0
   32.8193   44.4446    4.0547 N   0  0  0  0  0  0  0  0  0  0  0  0
   28.9286   37.8661    1.0120 C   0  0  2  0  0  0  0  0  0  0  0  0
   27.5220   37.4801    0.7438 O   0  0  0  0  0  0  0  0  0  0  0  0
   26.2394   34.7281    3.2294 C   0  0  1  0  0  0  0  0  0  0  0  0
   24.9469   34.4092    2.6685 O   0  0  0  0  0  0  0  0  0  0  0  0
   34.3071   39.7277    5.5623 C   0  0  2  0  0  0  0  0  0  0  0  0
   34.7451   39.8835    6.8958 O   0  0  0  0  0  0  0  0  0  0  0  0
   31.7083   42.7301    2.5565 C   0  0  2  0  0  0  0  0  0  0  0  0
   29.1059   38.3837    2.4366 C   0  0  2  0  0  0  0  0  0  0  0  0
   29.0372   39.8003    2.3554 O   0  0  0  0  0  0  0  0  0  0  0  0
   27.2637   33.5953    2.8182 C   0  0  2  0  0  0  0  0  0  0  0  0
   28.4782   33.7604    3.5692 O   0  0  0  0  0  0  0  0  0  0  0  0
   34.6732   40.9682    4.7233 C   0  0  2  0  0  0  0  0  0  0  0  0
   34.1734   40.7621    3.3459 O   0  0  0  0  0  0  0  0  0  0  0  0
   30.3550   42.4537    1.7289 C   0  0  2  0  0  0  0  0  0  0  0  0
   30.3949   41.1757    0.9680 O   0  0  0  0  0  0  0  0  0  0  0  0
   30.4451   38.0180    3.0597 C   0  0  0  0  0  0  0  0  0  0  0  0
   27.5519   33.6719    1.2640 C   0  0  1  0  0  0  0  0  0  0  0  0
   27.9628   35.0533    0.8397 O   0  0  0  0  0  0  0  0  0  0  0  0
   36.2056   41.1763    4.7426 C   0  0  0  0  0  0  0  0  0  0  0  0
   36.7351   41.7811    5.9788 N   0  0  0  0  0  0  0  0  0  0  0  0
   30.1436   43.5834    0.6985 C   0  0  1  0  0  0  0  0  0  0  0  0
   28.9415   43.3380   -0.0386 O   0  0  0  0  0  0  0  0  0  0  0  0
   28.6063   32.6075    0.7712 C   0  0  0  0  0  0  0  0  0  0  0  0
   28.4974   31.2394    1.3711 N   0  0  0  0  0  0  0  0  0  0  0  0
  1  2  1  1  0  0  0
  1  7  1  0  0  0  0
  1 30  1  0  0  0  0
  3  4  1  6  0  0  0
  3  9  1  0  0  0  0
  3 38  1  0  0  0  0
  5 10  1  0  0  0  0
  5 26  1  1  0  0  0
  5 32  1  0  0  0  0
  6 12  1  0  0  0  0
  6 35  1  0  0  0  0
  6 19  1  1  0  0  0
  7  8  1  1  0  0  0
  7 14  1  0  0  0  0
  8 33  1  0  0  0  0
  9 16  1  0  0  0  0
 10 11  1  6  0  0  0
 10 18  1  0  0  0  0
 12 13  1  1  0  0  0
 12 20  1  0  0  0  0
 14 15  1  1  0  0  0
 14 22  1  0  0  0  0
 16 17  1  6  0  0  0
 16 24  1  0  0  0  0
 18 19  1  6  0  0  0
 18 25  1  0  0  0  0
 20 21  1  6  0  0  0
 20 27  1  0  0  0  0
 22 23  1  1  0  0  0
 22 29  1  0  0  0  0
 24  2  1  1  0  0  0
 24 31  1  0  0  0  0
 25 26  1  6  0  0  0
 25 33  1  0  0  0  0
 27 28  1  1  0  0  0
 27 34  1  0  0  0  0
 29 30  1  0  0  0  0
 29 36  1  6  0  0  0
 31 32  1  6  0  0  0
 31 38  1  0  0  0  0
 34 35  1  0  0  0  0
 34 40  1  1  0  0  0
 36 37  1  0  0  0  0
 38 39  1  1  0  0  0
 40 41  1  0  0  0  0
M  END
>  <CHROM.1>
163.54275800,76.76755920,-77.63396249,40.50147722,30.34686654,39.21782481
2.66001940,-0.82749848,0.64630727,2.82650709

>  <Name>
ligand

>  <RI>
0

>  <Rbt.Current_Directory>
/home/itssahil/PROJECTS/Mol_Feturizer/New_Systems/rnas/1ZZ5

>  <Rbt.Executable>
rbdock ($Id: //depot/dev/client3/rdock/2013.1/src/exe/rbdock.cxx#4 $)

>  <Rbt.Library>
libRbt.so (2013.1, Build901 2013/11/27)

>  <Rbt.Parameter_File>
/export/apps/rDock/src/rDock_2013.1_src/data/scripts/dock_solv.prm

>  <Rbt.Receptor>
prm/blind_docking_60.prm

>  <SCORE>
22.9621

>  <SCORE.INTER>
-2.98369

>  <SCORE.INTER.CONST>
1

>  <SCORE.INTER.POLAR>
0

>  <SCORE.INTER.ROT>
4

>  <SCORE.INTER.SOLV>
25.1722

>  <SCORE.INTER.VDW>
-16.6465

>  <SCORE.INTER.norm>
-0.0727729

>  <SCORE.INTRA>
4.76616

>  <SCORE.INTRA.DIHEDRAL>
-0.14594

>  <SCORE.INTRA.DIHEDRAL.0>
5.18357

>  <SCORE.INTRA.POLAR>
0

>  <SCORE.INTRA.POLAR.0>
0

>  <SCORE.INTRA.REPUL>
0

>  <SCORE.INTRA.REPUL.0>
0

>  <SCORE.INTRA.SOLV>
3.8802

>  <SCORE.INTRA.SOLV.lig_0>
-109.973

>  <SCORE.INTRA.VDW>
2.89903

>  <SCORE.INTRA.VDW.0>
-1.68646

>  <SCORE.INTRA.norm>
0.116248

>  <SCORE.RESTR>
21.1796

>  <SCORE.RESTR.CAVITY>
21.1796

>  <SCORE.RESTR.norm>
0.516576

>  <SCORE.SYSTEM>
0

>  <SCORE.SYSTEM.CONST>
0

>  <SCORE.SYSTEM.DIHEDRAL>
0

>  <SCORE.SYSTEM.SOLV>
0

>  <SCORE.SYSTEM.norm>
0

>  <SCORE.heavy>
41

>  <SCORE.norm>
0.560051

>  <RMSD>
12.523

$$$$
ligand
 OpenBabel11021811423D
libRbt.so/2013.1/901 2013/11/27
 41 45  0  0  0  0  0  0  0  0999 V2000
   32.6618   40.5590    3.3351 C   0  0  2  0  0  0  0  0  0  0  0  0
   31.8934   41.7304    3.6728 O   0  0  0  0  0  0  0  0  0  0  0  0
   30.0821   44.9933    1.4390 C   0  0  2  0  0  0  0  0  0  0  0  0
   29.9316   46.0990    0.4581 N   0  0  0  0  0  0  0  0  0  0  0  0
   29.2297   40.3038    1.0431 C   0  0  1  0  0  0  0  0  0  0  0  0
   27.0298   36.1895    1.1708 C   0  0  1  0  0  0  0  0  0  0  0  0
   32.2217   39.3334    4.1906 C   0  0  2  0  0  0  0  0  0  0  0  0
   30.7820   39.0687    4.1118 N   0  0  0  0  0  0  0  0  0  0  0  0
   31.3416   45.2662    2.3205 C   0  0  0  0  0  0  0  0  0  0  0  0
   29.4333   39.0470    0.1662 C   0  0  2  0  0  0  0  0  0  0  0  0
   28.7324   39.1459   -1.0777 O   0  0  0  0  0  0  0  0  0  0  0  0
   26.6922   36.1788    2.7225 C   0  0  2  0  0  0  0  0  0  0  0  0
   27.8280   36.6032    3.5971 N   0  0  0  0  0  0  0  0  0  0  0  0
   32.6441   39.5327    5.6712 C   0  0  1  0  0  0  0  0  0  0  0  0
   32.2637   38.3977    6.4446 O   0  0  0  0  0  0  0  0  0  0  0  0
   31.5551   44.1329    3.3656 C   0  0  2  0  0  0  0  0  0  0  0  0
   32.7519   44.4702    4.1592 N   0  0  0  0  0  0  0  0  0  0  0  0
   28.9397   37.8815    1.0403 C   0  0  2  0  0  0  0  0  0  0  0  0
   27.5413   37.4983    0.7286 O   0  0  0  0  0  0  0  0  0  0  0  0
   26.1904   34.7280    3.1570 C   0  0  1  0  0  0  0  0  0  0  0  0
   24.9125   34.4159    2.5601 O   0  0  0  0  0  0  0  0  0  0  0  0
   34.1714   39.7602    5.7518 C   0  0  2  0  0  0  0  0  0  0  0  0
   34.5655   39.9249    7.0978 O   0  0  0  0  0  0  0  0  0  0  0  0
   31.6848   42.7478    2.6383 C   0  0  2  0  0  0  0  0  0  0  0  0
   29.0716   38.4097    2.4660 C   0  0  2  0  0  0  0  0  0  0  0  0
   29.0109   39.8258    2.3715 O   0  0  0  0  0  0  0  0  0  0  0  0
   27.2234   33.5969    2.7631 C   0  0  2  0  0  0  0  0  0  0  0  0
   28.4182   33.7537    3.5469 O   0  0  0  0  0  0  0  0  0  0  0  0
   34.5697   40.9928    4.9159 C   0  0  2  0  0  0  0  0  0  0  0  0
   34.1151   40.7775    3.5242 O   0  0  0  0  0  0  0  0  0  0  0  0
   30.3586   42.4696    1.7685 C   0  0  2  0  0  0  0  0  0  0  0  0
   30.4189   41.1855    1.0192 O   0  0  0  0  0  0  0  0  0  0  0  0
   30.3881   38.0442    3.1359 C   0  0  0  0  0  0  0  0  0  0  0  0
   27.5521   33.6858    1.2177 C   0  0  1  0  0  0  0  0  0  0  0  0
   27.9759   35.0700    0.8158 O   0  0  0  0  0  0  0  0  0  0  0  0
   36.1013   41.1957    4.9843 C   0  0  0  0  0  0  0  0  0  0  0  0
   36.5805   42.4903    4.4660 N   0  0  0  0  0  0  0  0  0  0  0  0
   30.1857   43.5919    0.7229 C   0  0  1  0  0  0  0  0  0  0  0  0
   29.0077   43.3448   -0.0517 O   0  0  0  0  0  0  0  0  0  0  0  0
   28.6173   32.6238    0.7436 C   0  0  0  0  0  0  0  0  0  0  0  0
   28.5353   31.2717    1.3827 N   0  0  0  0  0  0  0  0  0  0  0  0
  1  2  1  1  0  0  0
  1  7  1  0  0  0  0
  1 30  1  0  0  0  0
  3  4  1  6  0  0  0
  3  9  1  0  0  0  0
  3 38  1  0  0  0  0
  5 10  1  0  0  0  0
  5 26  1  1  0  0  0
  5 32  1  0  0  0  0
  6 12  1  0  0  0  0
  6 35  1  0  0  0  0
  6 19  1  1  0  0  0
  7  8  1  1  0  0  0
  7 14  1  0  0  0  0
  8 33  1  0  0  0  0
  9 16  1  0  0  0  0
 10 11  1  6  0  0  0
 10 18  1  0  0  0  0
 12 13  1  1  0  0  0
 12 20  1  0  0  0  0
 14 15  1  1  0  0  0
 14 22  1  0  0  0  0
 16 17  1  6  0  0  0
 16 24  1  0  0  0  0
 18 19  1  6  0  0  0
 18 25  1  0  0  0  0
 20 21  1  6  0  0  0
 20 27  1  0  0  0  0
 22 23  1  1  0  0  0
 22 29  1  0  0  0  0
 24  2  1  1  0  0  0
 24 31  1  0  0  0  0
 25 26  1  6  0  0  0
 25 33  1  0  0  0  0
 27 28  1  1  0  0  0
 27 34  1  0  0  0  0
 29 30  1  0  0  0  0
 29 36  1  6  0  0  0
 31 32  1  6  0  0  0
 31 38  1  0  0  0  0
 34 35  1  0  0  0  0
 34 40  1  1  0  0  0
 36 37  1  0  0  0  0
 38 39  1  1  0  0  0
 40 41  1  0  0  0  0
M  END
>  <CHROM.1>
162.63765822,76.57126671,-167.79643889,37.40367763,30.31302263,39.25184587
2.66935987,-0.83049610,0.66284265,2.81326281

>  <Name>
ligand

>  <RI>
0

>  <Rbt.Current_Directory>
/home/itssahil/PROJECTS/Mol_Feturizer/New_Systems/rnas/1ZZ5

>  <Rbt.Executable>
rbdock ($Id: //depot/dev/client3/rdock/2013.1/src/exe/rbdock.cxx#4 $)

>  <Rbt.Library>
libRbt.so (2013.1, Build901 2013/11/27)

>  <Rbt.Parameter_File>
/export/apps/rDock/src/rDock_2013.1_src/data/scripts/dock_solv.prm

>  <Rbt.Receptor>
prm/blind_docking_60.prm

>  <SCORE>
23.0428

>  <SCORE.INTER>
-1.48588

>  <SCORE.INTER.CONST>
1

>  <SCORE.INTER.POLAR>
0

>  <SCORE.INTER.ROT>
4

>  <SCORE.INTER.SOLV>
30.8317

>  <SCORE.INTER.VDW>
-17.5345

>  <SCORE.INTER.norm>
-0.036241

>  <SCORE.INTRA>
4.06023

>  <SCORE.INTRA.DIHEDRAL>
-0.200528

>  <SCORE.INTRA.DIHEDRAL.0>
5.18357

>  <SCORE.INTRA.POLAR>
0

>  <SCORE.INTRA.POLAR.0>
0

>  <SCORE.INTRA.REPUL>
0

>  <SCORE.INTRA.REPUL.0>
0

>  <SCORE.INTRA.SOLV>
3.01449

>  <SCORE.INTRA.SOLV.lig_0>
-109.973

>  <SCORE.INTRA.VDW>
2.65325

>  <SCORE.INTRA.VDW.0>
-1.68646

>  <SCORE.INTRA.norm>
0.09903

>  <SCORE.RESTR>
20.4685

>  <SCORE.RESTR.CAVITY>
20.4685

>  <SCORE.RESTR.norm>
0.499231

>  <SCORE.SYSTEM>
0

>  <SCORE.SYSTEM.CONST>
0

>  <SCORE.SYSTEM.DIHEDRAL>
0

>  <SCORE.SYSTEM.SOLV>
0

>  <SCORE.SYSTEM.norm>
0

>  <SCORE.heavy>
41

>  <SCORE.norm>
0.56202

>  <RMSD>
12.524

$$$$
ligand
 OpenBabel11021811423D
libRbt.so/2013.1/901 2013/11/27
 41 45  0  0  0  0  0  0  0  0999 V2000
   32.6587   40.5396    3.3277 C   0  0  2  0  0  0  0  0  0  0  0  0
   31.8866   41.7097    3.6613 O   0  0  0  0  0  0  0  0  0  0  0  0
   30.0722   44.9637    1.4170 C   0  0  2  0  0  0  0  0  0  0  0  0
   29.9212   46.0672    0.4337 N   0  0  0  0  0  0  0  0  0  0  0  0
   29.2326   40.2713    1.0282 C   0  0  1  0  0  0  0  0  0  0  0  0
   27.0374   36.1589    1.1736 C   0  0  1  0  0  0  0  0  0  0  0  0
   32.2197   39.3145    4.1845 C   0  0  2  0  0  0  0  0  0  0  0  0
   30.7808   39.0461    4.1029 N   0  0  0  0  0  0  0  0  0  0  0  0
   31.3291   45.2415    2.3009 C   0  0  0  0  0  0  0  0  0  0  0  0
   29.4414   39.0134    0.1543 C   0  0  2  0  0  0  0  0  0  0  0  0
   28.7431   39.1081   -1.0915 O   0  0  0  0  0  0  0  0  0  0  0  0
   26.7020   36.1678    2.7259 C   0  0  2  0  0  0  0  0  0  0  0  0
   27.8402   36.5992    3.5938 N   0  0  0  0  0  0  0  0  0  0  0  0
   32.6382   39.5178    5.6657 C   0  0  1  0  0  0  0  0  0  0  0  0
   32.2588   38.3833    6.4404 O   0  0  0  0  0  0  0  0  0  0  0  0
   31.5430   44.1107    3.3486 C   0  0  2  0  0  0  0  0  0  0  0  0
   32.7370   44.4526    4.1444 N   0  0  0  0  0  0  0  0  0  0  0  0
   28.9487   37.8483    1.0294 C   0  0  2  0  0  0  0  0  0  0  0  0
   27.5520   37.4610    0.7152 O   0  0  0  0  0  0  0  0  0  0  0  0
   26.1967   34.7236    3.1783 C   0  0  1  0  0  0  0  0  0  0  0  0
   24.9170   34.4081    2.5869 O   0  0  0  0  0  0  0  0  0  0  0  0
   34.1646   39.7493    5.7494 C   0  0  2  0  0  0  0  0  0  0  0  0
   34.5552   39.9176    7.0960 O   0  0  0  0  0  0  0  0  0  0  0  0
   31.6778   42.7246    2.6243 C   0  0  2  0  0  0  0  0  0  0  0  0
   29.0760   38.3796    2.4544 C   0  0  2  0  0  0  0  0  0  0  0  0
   29.0119   39.7954    2.3570 O   0  0  0  0  0  0  0  0  0  0  0  0
   27.2259   33.5849    2.7965 C   0  0  2  0  0  0  0  0  0  0  0  0
   28.4222   33.7477    3.5767 O   0  0  0  0  0  0  0  0  0  0  0  0
   34.5618   40.9812    4.9120 C   0  0  2  0  0  0  0  0  0  0  0  0
   34.1110   40.7622    3.5198 O   0  0  0  0  0  0  0  0  0  0  0  0
   30.3544   42.4414    1.7520 C   0  0  2  0  0  0  0  0  0  0  0  0
   30.4196   41.1560    1.0054 O   0  0  0  0  0  0  0  0  0  0  0  0
   30.3918   38.0187    3.1281 C   0  0  0  0  0  0  0  0  0  0  0  0
   27.5526   33.6546    1.2497 C   0  0  1  0  0  0  0  0  0  0  0  0
   27.9798   35.0327    0.8307 O   0  0  0  0  0  0  0  0  0  0  0  0
   36.0928   41.1882    4.9836 C   0  0  0  0  0  0  0  0  0  0  0  0
   36.5671   42.4942    4.4901 N   0  0  0  0  0  0  0  0  0  0  0  0
   30.1810   43.5612    0.7038 C   0  0  1  0  0  0  0  0  0  0  0  0
   29.0055   43.3097   -0.0730 O   0  0  0  0  0  0  0  0  0  0  0  0
   28.6142   32.5839    0.7868 C   0  0  0  0  0  0  0  0  0  0  0  0
   28.4876   31.2199    1.3925 N   0  0  0  0  0  0  0  0  0  0  0  0
  1  2  1  1  0  0  0
  1  7  1  0  0  0  0
  1 30  1  0  0  0  0
  3  4  1  6  0  0  0
  3  9  1  0  0  0  0
  3 38  1  0  0  0  0
  5 10  1  0  0  0  0
  5 26  1  1  0  0  0
  5 32  1  0  0  0  0
  6 12  1  0  0  0  0
  6 35  1  0  0  0  0
  6 19  1  1  0  0  0
  7  8  1  1  0  0  0
  7 14  1  0  0  0  0
  8 33  1  0  0  0  0
  9 16  1  0  0  0  0
 10 11  1  6  0  0  0
 10 18  1  0  0  0  0
 12 13  1  1  0  0  0
 12 20  1  0  0  0  0
 14 15  1  1  0  0  0
 14 22  1  0  0  0  0
 16 17  1  6  0  0  0
 16 24  1  0  0  0  0
 18 19  1  6  0  0  0
 18 25  1  0  0  0  0
 20 21  1  6  0  0  0
 20 27  1  0  0  0  0
 22 23  1  1  0  0  0
 22 29  1  0  0  0  0
 24  2  1  1  0  0  0
 24 31  1  0  0  0  0
 25 26  1  6  0  0  0
 25 33  1  0  0  0  0
 27 28  1  1  0  0  0
 27 34  1  0  0  0  0
 29 30  1  0  0  0  0
 29 36  1  6  0  0  0
 31 32  1  6  0  0  0
 31 38  1  0  0  0  0
 34 35  1  0  0  0  0
 34 40  1  1  0  0  0
 36 37  1  0  0  0  0
 38 39  1  1  0  0  0
 40 41  1  0  0  0  0
M  END
>  <CHROM.1>
163.41678846,76.10279869,-166.56728450,40.29222501,30.31062763,39.22915958
2.66697426,-0.83049156,0.66501838,2.80888202

>  <Name>
ligand

>  <RI>
0

>  <Rbt.Current_Directory>
/home/itssahil/PROJECTS/Mol_Feturizer/New_Systems/rnas/1ZZ5

>  <Rbt.Executable>
rbdock ($Id: //depot/dev/client3/rdock/2013.1/src/exe/rbdock.cxx#4 $)

>  <Rbt.Library>
libRbt.so (2013.1, Build901 2013/11/27)

>  <Rbt.Parameter_File>
/export/apps/rDock/src/rDock_2013.1_src/data/scripts/dock_solv.prm

>  <Rbt.Receptor>
prm/blind_docking_60.prm

>  <SCORE>
23.63

>  <SCORE.INTER>
-0.891906

>  <SCORE.INTER.CONST>
1

>  <SCORE.INTER.POLAR>
0

>  <SCORE.INTER.ROT>
4

>  <SCORE.INTER.SOLV>
30.671

>  <SCORE.INTER.VDW>
-17.0849

>  <SCORE.INTER.norm>
-0.0217538

>  <SCORE.INTRA>
4.21522

>  <SCORE.INTRA.DIHEDRAL>
-0.618555

>  <SCORE.INTRA.DIHEDRAL.0>
5.18357

>  <SCORE.INTRA.POLAR>
0

>  <SCORE.INTRA.POLAR.0>
0

>  <SCORE.INTRA.REPUL>
0

>  <SCORE.INTRA.REPUL.0>
0

>  <SCORE.INTRA.SOLV>
3.00267

>  <SCORE.INTRA.SOLV.lig_0>
-109.973

>  <SCORE.INTRA.VDW>
3.02316

>  <SCORE.INTRA.VDW.0>
-1.68646

>  <SCORE.INTRA.norm>
0.10281

>  <SCORE.RESTR>
20.3067

>  <SCORE.RESTR.CAVITY>
20.3067

>  <SCORE.RESTR.norm>
0.495285

>  <SCORE.SYSTEM>
0

>  <SCORE.SYSTEM.CONST>
0

>  <SCORE.SYSTEM.DIHEDRAL>
0

>  <SCORE.SYSTEM.SOLV>
0

>  <SCORE.SYSTEM.norm>
0

>  <SCORE.heavy>
41

>  <SCORE.norm>
0.576341

>  <RMSD>
12.525

$$$$
ligand
 OpenBabel11021811423D
libRbt.so/2013.1/901 2013/11/27
 41 45  0  0  0  0  0  0  0  0999 V2000
   32.6767   40.5457    3.2926 C   0  0  2  0  0  0  0  0  0  0  0  0
   31.9105   41.7141    3.6455 O   0  0  0  0  0  0  0  0  0  0  0  0
   30.0714   44.9879    1.4507 C   0  0  2  0  0  0  0  0  0  0  0  0
   29.9090   46.0992    0.4782 N   0  0  0  0  0  0  0  0  0  0  0  0
   29.2204   40.2997    1.0362 C   0  0  1  0  0  0  0  0  0  0  0  0
   27.0247   36.1851    1.1696 C   0  0  1  0  0  0  0  0  0  0  0  0
   32.2473   39.3145    4.1455 C   0  0  2  0  0  0  0  0  0  0  0  0
   30.8071   39.0485    4.0806 N   0  0  0  0  0  0  0  0  0  0  0  0
   31.3400   45.2571    2.3203 C   0  0  0  0  0  0  0  0  0  0  0  0
   29.4161   39.0485    0.1497 C   0  0  2  0  0  0  0  0  0  0  0  0
   28.7017   39.1539   -1.0861 O   0  0  0  0  0  0  0  0  0  0  0  0
   26.6786   36.1811    2.7195 C   0  0  2  0  0  0  0  0  0  0  0  0
   27.8074   36.6158    3.5979 N   0  0  0  0  0  0  0  0  0  0  0  0
   32.6853   39.5055    5.6226 C   0  0  1  0  0  0  0  0  0  0  0  0
   32.3146   38.3655    6.3933 O   0  0  0  0  0  0  0  0  0  0  0  0
   31.5661   44.1180    3.3562 C   0  0  2  0  0  0  0  0  0  0  0  0
   32.7709   44.4520    4.1390 N   0  0  0  0  0  0  0  0  0  0  0  0
   28.9333   37.8772    1.0220 C   0  0  2  0  0  0  0  0  0  0  0  0
   27.5321   37.4940    0.7231 O   0  0  0  0  0  0  0  0  0  0  0  0
   26.1817   34.7301    3.1591 C   0  0  1  0  0  0  0  0  0  0  0  0
   24.9086   34.4084    2.5569 O   0  0  0  0  0  0  0  0  0  0  0  0
   34.2131   39.7345    5.6882 C   0  0  2  0  0  0  0  0  0  0  0  0
   34.6215   39.8917    7.0308 O   0  0  0  0  0  0  0  0  0  0  0  0
   31.6895   42.7373    2.6194 C   0  0  2  0  0  0  0  0  0  0  0  0
   29.0799   38.3970    2.4493 C   0  0  2  0  0  0  0  0  0  0  0  0
   29.0164   39.8136    2.3639 O   0  0  0  0  0  0  0  0  0  0  0  0
   27.2224   33.6021    2.7770 C   0  0  2  0  0  0  0  0  0  0  0  0
   28.4121   33.7692    3.5664 O   0  0  0  0  0  0  0  0  0  0  0  0
   34.6009   40.9725    4.8553 C   0  0  2  0  0  0  0  0  0  0  0  0
   34.1316   40.7650    3.4674 O   0  0  0  0  0  0  0  0  0  0  0  0
   30.3545   42.4627    1.7623 C   0  0  2  0  0  0  0  0  0  0  0  0
   30.4082   41.1831    1.0047 O   0  0  0  0  0  0  0  0  0  0  0  0
   30.4039   38.0293    3.1029 C   0  0  0  0  0  0  0  0  0  0  0  0
   27.5592   33.6843    1.2330 C   0  0  1  0  0  0  0  0  0  0  0  0
   27.9783   35.0685    0.8258 O   0  0  0  0  0  0  0  0  0  0  0  0
   36.1329   41.1770    4.9085 C   0  0  0  0  0  0  0  0  0  0  0  0
   36.5966   42.5124    4.4893 N   0  0  0  0  0  0  0  0  0  0  0  0
   30.1689   43.5909    0.7252 C   0  0  1  0  0  0  0  0  0  0  0  0
   28.9830   43.3470   -0.0381 O   0  0  0  0  0  0  0  0  0  0  0  0
   28.6323   32.6251    0.7705 C   0  0  0  0  0  0  0  0  0  0  0  0
   28.5120   31.2561    1.3659 N   0  0  0  0  0  0  0  0  0  0  0  0
  1  2  1  1  0  0  0
  1  7  1  0  0  0  0
  1 30  1  0  0  0  0
  3  4  1  6  0  0  0
  3  9  1  0  0  0  0
  3 38  1  0  0  0  0
  5 10  1  0  0  0  0
  5 26  1  1  0  0  0
  5 32  1  0  0  0  0
  6 12  1  0  0  0  0
  6 35  1  0  0  0  0
  6 19  1  1  0  0  0
  7  8  1  1  0  0  0
  7 14  1  0  0  0  0
  8 33  1  0  0  0  0
  9 16  1  0  0  0  0
 10 11  1  6  0  0  0
 10 18  1  0  0  0  0
 12 13  1  1  0  0  0
 12 20  1  0  0  0  0
 14 15  1  1  0  0  0
 14 22  1  0  0  0  0
 16 17  1  6  0  0  0
 16 24  1  0  0  0  0
 18 19  1  6  0  0  0
 18 25  1  0  0  0  0
 20 21  1  6  0  0  0
 20 27  1  0  0  0  0
 22 23  1  1  0  0  0
 22 29  1  0  0  0  0
 24  2  1  1  0  0  0
 24 31  1  0  0  0  0
 25 26  1  6  0  0  0
 25 33  1  0  0  0  0
 27 28  1  1  0  0  0
 27 34  1  0  0  0  0
 29 30  1  0  0  0  0
 29 36  1  6  0  0  0
 31 32  1  6  0  0  0
 31 38  1  0  0  0  0
 34 35  1  0  0  0  0
 34 40  1  1  0  0  0
 36 37  1  0  0  0  0
 38 39  1  1  0  0  0
 40 41  1  0  0  0  0
M  END
>  <CHROM.1>
162.97902379,77.51929778,-163.35040701,40.31962878,30.31818435,39.24412162
2.65430960,-0.83404107,0.65208982,2.81952126

>  <Name>
ligand

>  <RI>
0

>  <Rbt.Current_Directory>
/home/itssahil/PROJECTS/Mol_Feturizer/New_Systems/rnas/1ZZ5

>  <Rbt.Executable>
rbdock ($Id: //depot/dev/client3/rdock/2013.1/src/exe/rbdock.cxx#4 $)

>  <Rbt.Library>
libRbt.so (2013.1, Build901 2013/11/27)

>  <Rbt.Parameter_File>
/export/apps/rDock/src/rDock_2013.1_src/data/scripts/dock_solv.prm

>  <Rbt.Receptor>
prm/blind_docking_60.prm

>  <SCORE>
23.0994

>  <SCORE.INTER>
-1.38096

>  <SCORE.INTER.CONST>
1

>  <SCORE.INTER.POLAR>
0

>  <SCORE.INTER.ROT>
4

>  <SCORE.INTER.SOLV>
30.6436

>  <SCORE.INTER.VDW>
-17.4019

>  <SCORE.INTER.norm>
-0.033682

>  <SCORE.INTRA>
3.9941

>  <SCORE.INTRA.DIHEDRAL>
-0.0435989

>  <SCORE.INTRA.DIHEDRAL.0>
5.18357

>  <SCORE.INTRA.POLAR>
0

>  <SCORE.INTRA.POLAR.0>
0

>  <SCORE.INTRA.REPUL>
0

>  <SCORE.INTRA.REPUL.0>
0

>  <SCORE.INTRA.SOLV>
2.9262

>  <SCORE.INTRA.SOLV.lig_0>
-109.973

>  <SCORE.INTRA.VDW>
2.5528

>  <SCORE.INTRA.VDW.0>
-1.68646

>  <SCORE.INTRA.norm>
0.097417

>  <SCORE.RESTR>
20.4863

>  <SCORE.RESTR.CAVITY>
20.4863

>  <SCORE.RESTR.norm>
0.499666

>  <SCORE.SYSTEM>
0

>  <SCORE.SYSTEM.CONST>
0

>  <SCORE.SYSTEM.DIHEDRAL>
0

>  <SCORE.SYSTEM.SOLV>
0

>  <SCORE.SYSTEM.norm>
0

>  <SCORE.heavy>
41

>  <SCORE.norm>
0.563401

>  <RMSD>
12.527

$$$$
ligand
 OpenBabel11021811423D
libRbt.so/2013.1/901 2013/11/27
 41 45  0  0  0  0  0  0  0  0999 V2000
   32.6683   40.5300    3.3233 C   0  0  2  0  0  0  0  0  0  0  0  0
   31.9018   41.7066    3.6467 O   0  0  0  0  0  0  0  0  0  0  0  0
   30.1112   44.9547    1.3750 C   0  0  2  0  0  0  0  0  0  0  0  0
   29.9687   46.0521    0.3836 N   0  0  0  0  0  0  0  0  0  0  0  0
   29.2465   40.2644    1.0171 C   0  0  1  0  0  0  0  0  0  0  0  0
   27.0328   36.1590    1.1729 C   0  0  1  0  0  0  0  0  0  0  0  0
   32.2203   39.3134    4.1876 C   0  0  2  0  0  0  0  0  0  0  0  0
   30.7802   39.0523    4.1042 N   0  0  0  0  0  0  0  0  0  0  0  0
   31.3673   45.2317    2.2601 C   0  0  0  0  0  0  0  0  0  0  0  0
   29.4505   38.9992    0.1525 C   0  0  2  0  0  0  0  0  0  0  0  0
   28.7559   39.0891   -1.0957 O   0  0  0  0  0  0  0  0  0  0  0  0
   26.6988   36.1623    2.7255 C   0  0  2  0  0  0  0  0  0  0  0  0
   27.8392   36.5865    3.5941 N   0  0  0  0  0  0  0  0  0  0  0  0
   32.6362   39.5247    5.6683 C   0  0  1  0  0  0  0  0  0  0  0  0
   32.2486   38.3978    6.4500 O   0  0  0  0  0  0  0  0  0  0  0  0
   31.5723   44.1073    3.3164 C   0  0  2  0  0  0  0  0  0  0  0  0
   32.7663   44.4480    4.1127 N   0  0  0  0  0  0  0  0  0  0  0  0
   28.9491   37.8431    1.0345 C   0  0  2  0  0  0  0  0  0  0  0  0
   27.5511   37.4613    0.7195 O   0  0  0  0  0  0  0  0  0  0  0  0
   26.1893   34.7179    3.1723 C   0  0  1  0  0  0  0  0  0  0  0  0
   24.9081   34.4090    2.5809 O   0  0  0  0  0  0  0  0  0  0  0  0
   34.1637   39.7483    5.7544 C   0  0  2  0  0  0  0  0  0  0  0  0
   34.5519   39.9240    7.1007 O   0  0  0  0  0  0  0  0  0  0  0  0
   31.7012   42.7153    2.6021 C   0  0  2  0  0  0  0  0  0  0  0  0
   29.0758   38.3836    2.4561 C   0  0  2  0  0  0  0  0  0  0  0  0
   29.0198   39.7991    2.3486 O   0  0  0  0  0  0  0  0  0  0  0  0
   27.2145   33.5776    2.7848 C   0  0  2  0  0  0  0  0  0  0  0  0
   28.4122   33.7333    3.5645 O   0  0  0  0  0  0  0  0  0  0  0  0
   34.5698   40.9721    4.9093 C   0  0  2  0  0  0  0  0  0  0  0  0
   34.1212   40.7458    3.5175 O   0  0  0  0  0  0  0  0  0  0  0  0
   30.3785   42.4333    1.7285 C   0  0  2  0  0  0  0  0  0  0  0  0
   30.4384   41.1424    0.9910 O   0  0  0  0  0  0  0  0  0  0  0  0
   30.3879   38.0203    3.1356 C   0  0  0  0  0  0  0  0  0  0  0  0
   27.5401   33.6527    1.2379 C   0  0  1  0  0  0  0  0  0  0  0  0
   27.9712   35.0312    0.8244 O   0  0  0  0  0  0  0  0  0  0  0  0
   36.1017   41.1711    4.9834 C   0  0  0  0  0  0  0  0  0  0  0  0
   36.5828   42.4778    4.4983 N   0  0  0  0  0  0  0  0  0  0  0  0
   30.2139   43.5467    0.6720 C   0  0  1  0  0  0  0  0  0  0  0  0
   29.0390   43.2962   -0.1060 O   0  0  0  0  0  0  0  0  0  0  0  0
   28.5978   32.5806    0.7696 C   0  0  0  0  0  0  0  0  0  0  0  0
   28.4825   31.2214    1.3880 N   0  0  0  0  0  0  0  0  0  0  0  0
  1  2  1  1  0  0  0
  1  7  1  0  0  0  0
  1 30  1  0  0  0  0
  3  4  1  6  0  0  0
  3  9  1  0  0  0  0
  3 38  1  0  0  0  0
  5 10  1  0  0  0  0
  5 26  1  1  0  0  0
  5 32  1  0  0  0  0
  6 12  1  0  0  0  0
  6 35  1  0  0  0  0
  6 19  1  1  0  0  0
  7  8  1  1  0  0  0
  7 14  1  0  0  0  0
  8 33  1  0  0  0  0
  9 16  1  0  0  0  0
 10 11  1  6  0  0  0
 10 18  1  0  0  0  0
 12 13  1  1  0  0  0
 12 20  1  0  0  0  0
 14 15  1  1  0  0  0
 14 22  1  0  0  0  0
 16 17  1  6  0  0  0
 16 24  1  0  0  0  0
 18 19  1  6  0  0  0
 18 25  1  0  0  0  0
 20 21  1  6  0  0  0
 20 27  1  0  0  0  0
 22 23  1  1  0  0  0
 22 29  1  0  0  0  0
 24  2  1  1  0  0  0
 24 31  1  0  0  0  0
 25 26  1  6  0  0  0
 25 33  1  0  0  0  0
 27 28  1  1  0  0  0
 27 34  1  0  0  0  0
 29 30  1  0  0  0  0
 29 36  1  6  0  0  0
 31 32  1  6  0  0  0
 31 38  1  0  0  0  0
 34 35  1  0  0  0  0
 34 40  1  1  0  0  0
 36 37  1  0  0  0  0
 38 39  1  1  0  0  0
 40 41  1  0  0  0  0
M  END
>  <CHROM.1>
162.74322578,76.07568959,-165.80322316,39.23358445,30.31824106,39.22366962
2.65746181,-0.82398598,0.66776292,2.80079201

>  <Name>
ligand

>  <RI>
0

>  <Rbt.Current_Directory>
/home/itssahil/PROJECTS/Mol_Feturizer/New_Systems/rnas/1ZZ5

>  <Rbt.Executable>
rbdock ($Id: //depot/dev/client3/rdock/2013.1/src/exe/rbdock.cxx#4 $)

>  <Rbt.Library>
libRbt.so (2013.1, Build901 2013/11/27)

>  <Rbt.Parameter_File>
/export/apps/rDock/src/rDock_2013.1_src/data/scripts/dock_solv.prm

>  <Rbt.Receptor>
prm/blind_docking_60.prm

>  <SCORE>
23.4887

>  <SCORE.INTER>
-0.975952

>  <SCORE.INTER.CONST>
1

>  <SCORE.INTER.POLAR>
0

>  <SCORE.INTER.ROT>
4

>  <SCORE.INTER.SOLV>
30.6643

>  <SCORE.INTER.VDW>
-17.1387

>  <SCORE.INTER.norm>
-0.0238037

>  <SCORE.INTRA>
4.12651

>  <SCORE.INTRA.DIHEDRAL>
-0.331454

>  <SCORE.INTRA.DIHEDRAL.0>
5.18357

>  <SCORE.INTRA.POLAR>
0

>  <SCORE.INTRA.POLAR.0>
0

>  <SCORE.INTRA.REPUL>
0

>  <SCORE.INTRA.REPUL.0>
0

>  <SCORE.INTRA.SOLV>
2.99904

>  <SCORE.INTRA.SOLV.lig_0>
-109.973

>  <SCORE.INTRA.VDW>
2.79272

>  <SCORE.INTRA.VDW.0>
-1.68646

>  <SCORE.INTRA.norm>
0.100647

>  <SCORE.RESTR>
20.3382

>  <SCORE.RESTR.CAVITY>
20.3382

>  <SCORE.RESTR.norm>
0.496053

>  <SCORE.SYSTEM>
0

>  <SCORE.SYSTEM.CONST>
0

>  <SCORE.SYSTEM.DIHEDRAL>
0

>  <SCORE.SYSTEM.SOLV>
0

>  <SCORE.SYSTEM.norm>
0

>  <SCORE.heavy>
41

>  <SCORE.norm>
0.572896

>  <RMSD>
12.529

$$$$
ligand
 OpenBabel11021811423D
libRbt.so/2013.1/901 2013/11/27
 41 45  0  0  0  0  0  0  0  0999 V2000
   32.8101   40.8856    3.4224 C   0  0  2  0  0  0  0  0  0  0  0  0
   31.8467   41.9266    3.6769 O   0  0  0  0  0  0  0  0  0  0  0  0
   29.0962   44.2595    1.2460 C   0  0  2  0  0  0  0  0  0  0  0  0
   28.5850   45.0965    0.1300 N   0  0  0  0  0  0  0  0  0  0  0  0
   29.2690   39.5108    1.7889 C   0  0  1  0  0  0  0  0  0  0  0  0
   28.1804   34.9665    2.4431 C   0  0  1  0  0  0  0  0  0  0  0  0
   32.7615   39.7926    4.5318 C   0  0  2  0  0  0  0  0  0  0  0  0
   31.4183   39.2402    4.7315 N   0  0  0  0  0  0  0  0  0  0  0  0
   30.3607   44.9442    1.8545 C   0  0  0  0  0  0  0  0  0  0  0  0
   29.6396   38.1697    1.1153 C   0  0  2  0  0  0  0  0  0  0  0  0
   28.7885   37.8795    0.0017 O   0  0  0  0  0  0  0  0  0  0  0  0
   28.6414   34.1632    1.1530 C   0  0  2  0  0  0  0  0  0  0  0  0
   27.8864   34.5165   -0.0880 N   0  0  0  0  0  0  0  0  0  0  0  0
   33.3054   40.3615    5.8700 C   0  0  1  0  0  0  0  0  0  0  0  0
   33.2843   39.3509    6.8747 O   0  0  0  0  0  0  0  0  0  0  0  0
   30.9467   44.1059    3.0275 C   0  0  2  0  0  0  0  0  0  0  0  0
   32.1255   44.8225    3.5499 N   0  0  0  0  0  0  0  0  0  0  0  0
   29.5281   37.1276    2.2412 C   0  0  2  0  0  0  0  0  0  0  0  0
   28.2230   36.4232    2.2278 O   0  0  0  0  0  0  0  0  0  0  0  0
   28.5296   32.5948    1.4236 C   0  0  1  0  0  0  0  0  0  0  0  0
   29.4887   32.1653    2.4148 O   0  0  0  0  0  0  0  0  0  0  0  0
   34.7417   40.8957    5.6643 C   0  0  2  0  0  0  0  0  0  0  0  0
   35.2496   41.3991    6.8820 O   0  0  0  0  0  0  0  0  0  0  0  0
   31.2925   42.6567    2.5330 C   0  0  2  0  0  0  0  0  0  0  0  0
   29.7110   37.9443    3.5174 C   0  0  2  0  0  0  0  0  0  0  0  0
   29.3251   39.2733    3.1965 O   0  0  0  0  0  0  0  0  0  0  0  0
   27.0823   32.1740    1.9032 C   0  0  2  0  0  0  0  0  0  0  0  0
   26.1524   32.3643    0.8237 O   0  0  0  0  0  0  0  0  0  0  0  0
   34.7507   41.9911    4.5794 C   0  0  2  0  0  0  0  0  0  0  0  0
   34.1900   41.4183    3.3356 O   0  0  0  0  0  0  0  0  0  0  0  0
   29.9662   41.9563    1.9475 C   0  0  2  0  0  0  0  0  0  0  0  0
   30.2198   40.5861    1.4256 O   0  0  0  0  0  0  0  0  0  0  0  0
   31.1472   37.9851    4.0186 C   0  0  0  0  0  0  0  0  0  0  0  0
   26.6629   33.0367    3.1618 C   0  0  1  0  0  0  0  0  0  0  0  0
   26.8204   34.5090    2.9073 O   0  0  0  0  0  0  0  0  0  0  0  0
   36.1953   42.5002    4.3653 C   0  0  0  0  0  0  0  0  0  0  0  0
   36.7815   43.2093    5.5176 N   0  0  0  0  0  0  0  0  0  0  0  0
   29.4218   42.7919    0.7692 C   0  0  1  0  0  0  0  0  0  0  0  0
   28.2434   42.1693    0.2472 O   0  0  0  0  0  0  0  0  0  0  0  0
   25.2073   32.7195    3.6794 C   0  0  0  0  0  0  0  0  0  0  0  0
   25.0079   31.3792    4.3175 N   0  0  0  0  0  0  0  0  0  0  0  0
  1  2  1  1  0  0  0
  1  7  1  0  0  0  0
  1 30  1  0  0  0  0
  3  4  1  6  0  0  0
  3  9  1  0  0  0  0
  3 38  1  0  0  0  0
  5 10  1  0  0  0  0
  5 26  1  1  0  0  0
  5 32  1  0  0  0  0
  6 12  1  0  0  0  0
  6 35  1  0  0  0  0
  6 19  1  6  0  0  0
  7  8  1  1  0  0  0
  7 14  1  0  0  0  0
  8 33  1  0  0  0  0
  9 16  1  0  0  0  0
 10 11  1  6  0  0  0
 10 18  1  0  0  0  0
 12 13  1  6  0  0  0
 12 20  1  0  0  0  0
 14 15  1  1  0  0  0
 14 22  1  0  0  0  0
 16 17  1  6  0  0  0
 16 24  1  0  0  0  0
 18 19  1  1  0  0  0
 18 25  1  0  0  0  0
 20 21  1  1  0  0  0
 20 27  1  0  0  0  0
 22 23  1  1  0  0  0
 22 29  1  0  0  0  0
 24  2  1  1  0  0  0
 24 31  1  0  0  0  0
 25 26  1  6  0  0  0
 25 33  1  0  0  0  0
 27 28  1  6  0  0  0
 27 34  1  0  0  0  0
 29 30  1  0  0  0  0
 29 36  1  6  0  0  0
 31 32  1  6  0  0  0
 31 38  1  0  0  0  0
 34 35  1  0  0  0  0
 34 40  1  6  0  0  0
 36 37  1  0  0  0  0
 38 39  1  1  0  0  0
 40 41  1  0  0  0  0
M  END
>  <CHROM.1>
137.34684018,-76.22634490,-65.95535981,69.45308172,30.30700916,38.88314209
2.89069464,-0.86310810,0.63958583,2.84090056

>  <Name>
ligand

>  <RI>
0

>  <Rbt.Current_Directory>
/home/itssahil/PROJECTS/Mol_Feturizer/New_Systems/rnas/1ZZ5

>  <Rbt.Executable>
rbdock ($Id: //depot/dev/client3/rdock/2013.1/src/exe/rbdock.cxx#4 $)

>  <Rbt.Library>
libRbt.so (2013.1, Build901 2013/11/27)

>  <Rbt.Parameter_File>
/export/apps/rDock/src/rDock_2013.1_src/data/scripts/dock_solv.prm

>  <Rbt.Receptor>
prm/blind_docking_60.prm

>  <SCORE>
23.4517

>  <SCORE.INTER>
-1.46334

>  <SCORE.INTER.CONST>
1

>  <SCORE.INTER.POLAR>
0

>  <SCORE.INTER.ROT>
4

>  <SCORE.INTER.SOLV>
26.3086

>  <SCORE.INTER.VDW>
-16.0118

>  <SCORE.INTER.norm>
-0.0356912

>  <SCORE.INTRA>
1.89742

>  <SCORE.INTRA.DIHEDRAL>
2.39609

>  <SCORE.INTRA.DIHEDRAL.0>
5.18357

>  <SCORE.INTRA.POLAR>
0

>  <SCORE.INTRA.POLAR.0>
0

>  <SCORE.INTRA.REPUL>
0

>  <SCORE.INTRA.REPUL.0>
0

>  <SCORE.INTRA.SOLV>
0.851765

>  <SCORE.INTRA.SOLV.lig_0>
-109.973

>  <SCORE.INTRA.VDW>
0.273496

>  <SCORE.INTRA.VDW.0>
-1.68646

>  <SCORE.INTRA.norm>
0.0462786

>  <SCORE.RESTR>
23.0176

>  <SCORE.RESTR.CAVITY>
23.0176

>  <SCORE.RESTR.norm>
0.561404

>  <SCORE.SYSTEM>
0

>  <SCORE.SYSTEM.CONST>
0

>  <SCORE.SYSTEM.DIHEDRAL>
0

>  <SCORE.SYSTEM.SOLV>
0

>  <SCORE.SYSTEM.norm>
0

>  <SCORE.heavy>
41

>  <SCORE.norm>
0.571992

>  <RMSD>
12.580

$$$$
ligand
 OpenBabel11021811423D
libRbt.so/2013.1/901 2013/11/27
 41 45  0  0  0  0  0  0  0  0999 V2000
   32.8366   40.6293    3.4216 C   0  0  2  0  0  0  0  0  0  0  0  0
   31.9604   41.7544    3.6288 O   0  0  0  0  0  0  0  0  0  0  0  0
   29.5455   44.3093    1.0678 C   0  0  2  0  0  0  0  0  0  0  0  0
   29.1636   45.1815   -0.0727 N   0  0  0  0  0  0  0  0  0  0  0  0
   29.2643   39.5680    1.6298 C   0  0  1  0  0  0  0  0  0  0  0  0
   27.7480   35.2182    1.5207 C   0  0  1  0  0  0  0  0  0  0  0  0
   32.6389   39.5525    4.5302 C   0  0  2  0  0  0  0  0  0  0  0  0
   31.2436   39.1246    4.6691 N   0  0  0  0  0  0  0  0  0  0  0  0
   30.8375   44.8814    1.7323 C   0  0  0  0  0  0  0  0  0  0  0  0
   29.5428   38.1945    0.9774 C   0  0  2  0  0  0  0  0  0  0  0  0
   28.7209   37.9748   -0.1736 O   0  0  0  0  0  0  0  0  0  0  0  0
   26.2181   34.7938    1.4822 C   0  0  2  0  0  0  0  0  0  0  0  0
   25.5087   34.9489    2.7889 N   0  0  0  0  0  0  0  0  0  0  0  0
   33.1701   40.0789    5.8907 C   0  0  1  0  0  0  0  0  0  0  0  0
   33.0121   39.0811    6.8959 O   0  0  0  0  0  0  0  0  0  0  0  0
   31.2912   44.0015    2.9332 C   0  0  2  0  0  0  0  0  0  0  0  0
   32.5047   44.6126    3.5076 N   0  0  0  0  0  0  0  0  0  0  0  0
   29.2864   37.1742    2.0995 C   0  0  2  0  0  0  0  0  0  0  0  0
   27.9251   36.5900    2.0276 O   0  0  0  0  0  0  0  0  0  0  0  0
   26.0873   33.2872    0.9735 C   0  0  1  0  0  0  0  0  0  0  0  0
   26.4767   33.1672   -0.4124 O   0  0  0  0  0  0  0  0  0  0  0  0
   34.6566   40.4804    5.7502 C   0  0  2  0  0  0  0  0  0  0  0  0
   35.1517   40.9440    6.9888 O   0  0  0  0  0  0  0  0  0  0  0  0
   31.5272   42.5239    2.4587 C   0  0  2  0  0  0  0  0  0  0  0  0
   29.4837   37.9795    3.3807 C   0  0  2  0  0  0  0  0  0  0  0  0
   29.2343   39.3357    3.0391 O   0  0  0  0  0  0  0  0  0  0  0  0
   26.9621   32.2892    1.8339 C   0  0  2  0  0  0  0  0  0  0  0  0
   26.4203   32.2105    3.1631 O   0  0  0  0  0  0  0  0  0  0  0  0
   34.8141   41.5633    4.6642 C   0  0  2  0  0  0  0  0  0  0  0  0
   34.2614   41.0351    3.3972 O   0  0  0  0  0  0  0  0  0  0  0  0
   30.1713   41.9418    1.8143 C   0  0  2  0  0  0  0  0  0  0  0  0
   30.3238   40.5509    1.3081 O   0  0  0  0  0  0  0  0  0  0  0  0
   30.8933   37.8942    3.9476 C   0  0  0  0  0  0  0  0  0  0  0  0
   28.4637   32.7874    1.8702 C   0  0  1  0  0  0  0  0  0  0  0  0
   28.5656   34.2222    2.3040 O   0  0  0  0  0  0  0  0  0  0  0  0
   36.3069   41.9389    4.5157 C   0  0  0  0  0  0  0  0  0  0  0  0
   36.8303   42.8325    5.5654 N   0  0  0  0  0  0  0  0  0  0  0  0
   29.7589   42.8151    0.6102 C   0  0  1  0  0  0  0  0  0  0  0  0
   28.5543   42.2977    0.0359 O   0  0  0  0  0  0  0  0  0  0  0  0
   29.4026   31.8771    2.7517 C   0  0  0  0  0  0  0  0  0  0  0  0
   29.2681   30.3984    2.5543 N   0  0  0  0  0  0  0  0  0  0  0  0
  1  2  1  1  0  0  0
  1  7  1  0  0  0  0
  1 30  1  0  0  0  0
  3  4  1  6  0  0  0
  3  9  1  0  0  0  0
  3 38  1  0  0  0  0
  5 10  1  0  0  0  0
  5 26  1  1  0  0  0
  5 32  1  0  0  0  0
  6 12  1  0  0  0  0
  6 35  1  0  0  0  0
  6 19  1  1  0  0  0
  7  8  1  1  0  0  0
  7 14  1  0  0  0  0
  8 33  1  0  0  0  0
  9 16  1  0  0  0  0
 10 11  1  6  0  0  0
 10 18  1  0  0  0  0
 12 13  1  1  0  0  0
 12 20  1  0  0  0  0
 14 15  1  1  0  0  0
 14 22  1  0  0  0  0
 16 17  1  6  0  0  0
 16 24  1  0  0  0  0
 18 19  1  6  0  0  0
 18 25  1  0  0  0  0
 20 21  1  6  0  0  0
 20 27  1  0  0  0  0
 22 23  1  1  0  0  0
 22 29  1  0  0  0  0
 24  2  1  1  0  0  0
 24 31  1  0  0  0  0
 25 26  1  6  0  0  0
 25 33  1  0  0  0  0
 27 28  1  1  0  0  0
 27 34  1  0  0  0  0
 29 30  1  0  0  0  0
 29 36  1  6  0  0  0
 31 32  1  6  0  0  0
 31 38  1  0  0  0  0
 34 35  1  0  0  0  0
 34 40  1  1  0  0  0
 36 37  1  0  0  0  0
 38 39  1  1  0  0  0
 40 41  1  0  0  0  0
M  END
>  <CHROM.1>
104.35794164,-178.30641141,-77.72506393,45.76830505,30.38394986,38.80453324
2.76079120,-0.86108101,0.65621631,2.86621447

>  <Name>
ligand

>  <RI>
0

>  <Rbt.Current_Directory>
/home/itssahil/PROJECTS/Mol_Feturizer/New_Systems/rnas/1ZZ5

>  <Rbt.Executable>
rbdock ($Id: //depot/dev/client3/rdock/2013.1/src/exe/rbdock.cxx#4 $)

>  <Rbt.Library>
libRbt.so (2013.1, Build901 2013/11/27)

>  <Rbt.Parameter_File>
/export/apps/rDock/src/rDock_2013.1_src/data/scripts/dock_solv.prm

>  <Rbt.Receptor>
prm/blind_docking_60.prm

>  <SCORE>
21.8927

>  <SCORE.INTER>
-1.88086

>  <SCORE.INTER.CONST>
1

>  <SCORE.INTER.POLAR>
0

>  <SCORE.INTER.ROT>
4

>  <SCORE.INTER.SOLV>
25.3394

>  <SCORE.INTER.VDW>
-15.9671

>  <SCORE.INTER.norm>
-0.0458747

>  <SCORE.INTRA>
1.68107

>  <SCORE.INTRA.DIHEDRAL>
2.80243

>  <SCORE.INTRA.DIHEDRAL.0>
5.18357

>  <SCORE.INTRA.POLAR>
0

>  <SCORE.INTRA.POLAR.0>
0

>  <SCORE.INTRA.REPUL>
0

>  <SCORE.INTRA.REPUL.0>
0

>  <SCORE.INTRA.SOLV>
0.0446712

>  <SCORE.INTRA.SOLV.lig_0>
-109.973

>  <SCORE.INTRA.VDW>
0.257525

>  <SCORE.INTRA.VDW.0>
-1.68646

>  <SCORE.INTRA.norm>
0.0410018

>  <SCORE.RESTR>
22.0925

>  <SCORE.RESTR.CAVITY>
22.0925

>  <SCORE.RESTR.norm>
0.538841

>  <SCORE.SYSTEM>
0

>  <SCORE.SYSTEM.CONST>
0

>  <SCORE.SYSTEM.DIHEDRAL>
0

>  <SCORE.SYSTEM.SOLV>
0

>  <SCORE.SYSTEM.norm>
0

>  <SCORE.heavy>
41

>  <SCORE.norm>
0.533968

>  <RMSD>
12.607

$$$$
ligand
 OpenBabel11021811423D
libRbt.so/2013.1/901 2013/11/27
 41 45  0  0  0  0  0  0  0  0999 V2000
   32.8131   40.6042    3.4068 C   0  0  2  0  0  0  0  0  0  0  0  0
   31.9411   41.7325    3.6145 O   0  0  0  0  0  0  0  0  0  0  0  0
   29.5607   44.3171    1.0511 C   0  0  2  0  0  0  0  0  0  0  0  0
   29.1927   45.1990   -0.0865 N   0  0  0  0  0  0  0  0  0  0  0  0
   29.2505   39.5737    1.5784 C   0  0  1  0  0  0  0  0  0  0  0  0
   27.7130   35.2318    1.4291 C   0  0  1  0  0  0  0  0  0  0  0  0
   32.6007   39.5210    4.5064 C   0  0  2  0  0  0  0  0  0  0  0  0
   31.2022   39.0993    4.6308 N   0  0  0  0  0  0  0  0  0  0  0  0
   30.8500   44.8780    1.7302 C   0  0  0  0  0  0  0  0  0  0  0  0
   29.5274   38.2032    0.9189 C   0  0  2  0  0  0  0  0  0  0  0  0
   28.7139   37.9955   -0.2403 O   0  0  0  0  0  0  0  0  0  0  0  0
   26.1820   34.8121    1.3838 C   0  0  2  0  0  0  0  0  0  0  0  0
   25.4694   34.9616    2.6894 N   0  0  0  0  0  0  0  0  0  0  0  0
   33.1233   40.0354    5.8748 C   0  0  1  0  0  0  0  0  0  0  0  0
   32.9519   39.0315    6.8718 O   0  0  0  0  0  0  0  0  0  0  0  0
   31.2892   43.9876    2.9287 C   0  0  2  0  0  0  0  0  0  0  0  0
   32.5010   44.5885    3.5173 N   0  0  0  0  0  0  0  0  0  0  0  0
   29.2564   37.1766    2.0319 C   0  0  2  0  0  0  0  0  0  0  0  0
   27.8928   36.6000    1.9447 O   0  0  0  0  0  0  0  0  0  0  0  0
   26.0483   33.3090    0.8658 C   0  0  1  0  0  0  0  0  0  0  0  0
   26.4412   33.1961   -0.5197 O   0  0  0  0  0  0  0  0  0  0  0  0
   34.6130   40.4301    5.7493 C   0  0  2  0  0  0  0  0  0  0  0  0
   35.1002   40.8827    6.9951 O   0  0  0  0  0  0  0  0  0  0  0  0
   31.5216   42.5120    2.4461 C   0  0  2  0  0  0  0  0  0  0  0  0
   29.4472   37.9722    3.3201 C   0  0  2  0  0  0  0  0  0  0  0  0
   29.2076   39.3319    2.9857 O   0  0  0  0  0  0  0  0  0  0  0  0
   26.9177   32.3033    1.7226 C   0  0  2  0  0  0  0  0  0  0  0  0
   26.3719   32.2183    3.0498 O   0  0  0  0  0  0  0  0  0  0  0  0
   34.7850   41.5195    4.6721 C   0  0  2  0  0  0  0  0  0  0  0  0
   34.2402   41.0028    3.3970 O   0  0  0  0  0  0  0  0  0  0  0  0
   30.1681   41.9414    1.7866 C   0  0  2  0  0  0  0  0  0  0  0  0
   30.3176   40.5532    1.2722 O   0  0  0  0  0  0  0  0  0  0  0  0
   30.8515   37.8758    3.8981 C   0  0  0  0  0  0  0  0  0  0  0  0
   28.4206   32.7968    1.7661 C   0  0  1  0  0  0  0  0  0  0  0  0
   28.5256   34.2287    2.2088 O   0  0  0  0  0  0  0  0  0  0  0  0
   36.2809   41.8883    4.5385 C   0  0  0  0  0  0  0  0  0  0  0  0
   37.1841   40.7465    4.3045 N   0  0  0  0  0  0  0  0  0  0  0  0
   29.7702   42.8250    0.5851 C   0  0  1  0  0  0  0  0  0  0  0  0
   28.5678   42.3178   -0.0027 O   0  0  0  0  0  0  0  0  0  0  0  0
   29.3544   31.8785    2.6448 C   0  0  0  0  0  0  0  0  0  0  0  0
   28.6903   31.1327    3.7612 N   0  0  0  0  0  0  0  0  0  0  0  0
  1  2  1  1  0  0  0
  1  7  1  0  0  0  0
  1 30  1  0  0  0  0
  3  4  1  6  0  0  0
  3  9  1  0  0  0  0
  3 38  1  0  0  0  0
  5 10  1  0  0  0  0
  5 26  1  1  0  0  0
  5 32  1  0  0  0  0
  6 12  1  0  0  0  0
  6 35  1  0  0  0  0
  6 19  1  1  0  0  0
  7  8  1  1  0  0  0
  7 14  1  0  0  0  0
  8 33  1  0  0  0  0
  9 16  1  0  0  0  0
 10 11  1  6  0  0  0
 10 18  1  0  0  0  0
 12 13  1  1  0  0  0
 12 20  1  0  0  0  0
 14 15  1  1  0  0  0
 14 22  1  0  0  0  0
 16 17  1  6  0  0  0
 16 24  1  0  0  0  0
 18 19  1  6  0  0  0
 18 25  1  0  0  0  0
 20 21  1  6  0  0  0
 20 27  1  0  0  0  0
 22 23  1  1  0  0  0
 22 29  1  0  0  0  0
 24  2  1  1  0  0  0
 24 31  1  0  0  0  0
 25 26  1  6  0  0  0
 25 33  1  0  0  0  0
 27 28  1  1  0  0  0
 27 34  1  0  0  0  0
 29 30  1  0  0  0  0
 29 36  1  6  0  0  0
 31 32  1  6  0  0  0
 31 38  1  0  0  0  0
 34 35  1  0  0  0  0
 34 40  1  1  0  0  0
 36 37  1  0  0  0  0
 38 39  1  1  0  0  0
 40 41  1  0  0  0  0
M  END
>  <CHROM.1>
104.46085095,-178.68707260,53.32998430,-27.37391312,30.35514329,38.76506654
2.71559667,-0.84881106,0.63994772,2.85286605

>  <Name>
ligand

>  <RI>
0

>  <Rbt.Current_Directory>
/home/itssahil/PROJECTS/Mol_Feturizer/New_Systems/rnas/1ZZ5

>  <Rbt.Executable>
rbdock ($Id: //depot/dev/client3/rdock/2013.1/src/exe/rbdock.cxx#4 $)

>  <Rbt.Library>
libRbt.so (2013.1, Build901 2013/11/27)

>  <Rbt.Parameter_File>
/export/apps/rDock/src/rDock_2013.1_src/data/scripts/dock_solv.prm

>  <Rbt.Receptor>
prm/blind_docking_60.prm

>  <SCORE>
23.5382

>  <SCORE.INTER>
-2.30074

>  <SCORE.INTER.CONST>
1

>  <SCORE.INTER.POLAR>
0

>  <SCORE.INTER.ROT>
4

>  <SCORE.INTER.SOLV>
27.1172

>  <SCORE.INTER.VDW>
-16.8396

>  <SCORE.INTER.norm>
-0.0561157

>  <SCORE.INTRA>
3.32599

>  <SCORE.INTRA.DIHEDRAL>
4.06293

>  <SCORE.INTRA.DIHEDRAL.0>
5.18357

>  <SCORE.INTRA.POLAR>
0

>  <SCORE.INTRA.POLAR.0>
0

>  <SCORE.INTRA.REPUL>
0

>  <SCORE.INTRA.REPUL.0>
0

>  <SCORE.INTRA.SOLV>
1.6688

>  <SCORE.INTRA.SOLV.lig_0>
-109.973

>  <SCORE.INTRA.VDW>
0.460131

>  <SCORE.INTRA.VDW.0>
-1.68646

>  <SCORE.INTRA.norm>
0.0811218

>  <SCORE.RESTR>
22.5129

>  <SCORE.RESTR.CAVITY>
22.5129

>  <SCORE.RESTR.norm>
0.549096

>  <SCORE.SYSTEM>
0

>  <SCORE.SYSTEM.CONST>
0

>  <SCORE.SYSTEM.DIHEDRAL>
0

>  <SCORE.SYSTEM.SOLV>
0

>  <SCORE.SYSTEM.norm>
0

>  <SCORE.heavy>
41

>  <SCORE.norm>
0.574102

>  <RMSD>
12.618

$$$$
ligand
 OpenBabel11021811423D
libRbt.so/2013.1/901 2013/11/27
 41 45  0  0  0  0  0  0  0  0999 V2000
   32.5266   40.2179    3.4718 C   0  0  2  0  0  0  0  0  0  0  0  0
   31.8033   41.4530    3.6388 O   0  0  0  0  0  0  0  0  0  0  0  0
   30.2085   44.4911    0.9659 C   0  0  2  0  0  0  0  0  0  0  0  0
   30.1371   45.4738   -0.1461 N   0  0  0  0  0  0  0  0  0  0  0  0
   29.1538   39.8284    1.1117 C   0  0  1  0  0  0  0  0  0  0  0  0
   26.9108   35.6779    1.2077 C   0  0  1  0  0  0  0  0  0  0  0  0
   32.0063   39.1258    4.4538 C   0  0  2  0  0  0  0  0  0  0  0  0
   30.5588   38.9142    4.3585 N   0  0  0  0  0  0  0  0  0  0  0  0
   31.4533   44.8167    1.8504 C   0  0  0  0  0  0  0  0  0  0  0  0
   29.3247   38.4663    0.4009 C   0  0  2  0  0  0  0  0  0  0  0  0
   28.6651   38.4415   -0.8692 O   0  0  0  0  0  0  0  0  0  0  0  0
   25.8914   35.4814    2.4094 C   0  0  2  0  0  0  0  0  0  0  0  0
   26.3973   35.9770    3.7260 N   0  0  0  0  0  0  0  0  0  0  0  0
   32.3946   39.4870    5.9130 C   0  0  1  0  0  0  0  0  0  0  0  0
   31.9405   38.4722    6.8046 O   0  0  0  0  0  0  0  0  0  0  0  0
   31.5845   43.8120    3.0317 C   0  0  2  0  0  0  0  0  0  0  0  0
   32.7721   44.1933    3.8191 N   0  0  0  0  0  0  0  0  0  0  0  0
   28.7532   37.4383    1.3921 C   0  0  2  0  0  0  0  0  0  0  0  0
   27.3483   37.0789    1.0816 O   0  0  0  0  0  0  0  0  0  0  0  0
   25.4891   33.9423    2.5314 C   0  0  1  0  0  0  0  0  0  0  0  0
   24.7112   33.5130    1.3924 O   0  0  0  0  0  0  0  0  0  0  0  0
   33.9277   39.6583    6.0176 C   0  0  2  0  0  0  0  0  0  0  0  0
   34.2901   39.9699    7.3464 O   0  0  0  0  0  0  0  0  0  0  0  0
   31.6713   42.3440    2.4822 C   0  0  2  0  0  0  0  0  0  0  0  0
   28.8681   38.1310    2.7471 C   0  0  2  0  0  0  0  0  0  0  0  0
   28.8751   39.5263    2.4799 O   0  0  0  0  0  0  0  0  0  0  0  0
   26.7552   33.0035    2.6632 C   0  0  2  0  0  0  0  0  0  0  0  0
   27.3987   33.2516    3.9245 O   0  0  0  0  0  0  0  0  0  0  0  0
   34.4061   40.7614    5.0527 C   0  0  2  0  0  0  0  0  0  0  0  0
   33.9823   40.3967    3.6826 O   0  0  0  0  0  0  0  0  0  0  0  0
   30.3594   42.0174    1.6077 C   0  0  2  0  0  0  0  0  0  0  0  0
   30.3823   40.6499    1.0219 O   0  0  0  0  0  0  0  0  0  0  0  0
   30.1466   37.7954    3.5009 C   0  0  0  0  0  0  0  0  0  0  0  0
   27.7511   33.2755    1.4638 C   0  0  1  0  0  0  0  0  0  0  0  0
   28.0813   34.7352    1.3322 O   0  0  0  0  0  0  0  0  0  0  0  0
   35.9428   40.9067    5.1483 C   0  0  0  0  0  0  0  0  0  0  0  0
   36.7068   39.7173    4.7290 N   0  0  0  0  0  0  0  0  0  0  0  0
   30.2683   43.0095    0.4287 C   0  0  1  0  0  0  0  0  0  0  0  0
   29.1030   42.7191   -0.3501 O   0  0  0  0  0  0  0  0  0  0  0  0
   29.0716   32.4165    1.5415 C   0  0  0  0  0  0  0  0  0  0  0  0
   28.9219   31.0148    2.0477 N   0  0  0  0  0  0  0  0  0  0  0  0
  1  2  1  1  0  0  0
  1  7  1  0  0  0  0
  1 30  1  0  0  0  0
  3  4  1  6  0  0  0
  3  9  1  0  0  0  0
  3 38  1  0  0  0  0
  5 10  1  0  0  0  0
  5 26  1  1  0  0  0
  5 32  1  0  0  0  0
  6 12  1  0  0  0  0
  6 35  1  0  0  0  0
  6 19  1  1  0  0  0
  7  8  1  1  0  0  0
  7 14  1  0  0  0  0
  8 33  1  0  0  0  0
  9 16  1  0  0  0  0
 10 11  1  6  0  0  0
 10 18  1  0  0  0  0
 12 13  1  1  0  0  0
 12 20  1  0  0  0  0
 14 15  1  1  0  0  0
 14 22  1  0  0  0  0
 16 17  1  6  0  0  0
 16 24  1  0  0  0  0
 18 19  1  6  0  0  0
 18 25  1  0  0  0  0
 20 21  1  6  0  0  0
 20 27  1  0  0  0  0
 22 23  1  1  0  0  0
 22 29  1  0  0  0  0
 24  2  1  1  0  0  0
 24 31  1  0  0  0  0
 25 26  1  6  0  0  0
 25 33  1  0  0  0  0
 27 28  1  1  0  0  0
 27 34  1  0  0  0  0
 29 30  1  0  0  0  0
 29 36  1  6  0  0  0
 31 32  1  6  0  0  0
 31 38  1  0  0  0  0
 34 35  1  0  0  0  0
 34 40  1  1  0  0  0
 36 37  1  0  0  0  0
 38 39  1  1  0  0  0
 40 41  1  0  0  0  0
M  END
>  <CHROM.1>
139.72430392,111.47856699,63.54558924,37.28518344,30.15920052,38.79580147
2.71746262,-0.77895572,0.67133534,2.74628322

>  <Name>
ligand

>  <RI>
0

>  <Rbt.Current_Directory>
/home/itssahil/PROJECTS/Mol_Feturizer/New_Systems/rnas/1ZZ5

>  <Rbt.Executable>
rbdock ($Id: //depot/dev/client3/rdock/2013.1/src/exe/rbdock.cxx#4 $)

>  <Rbt.Library>
libRbt.so (2013.1, Build901 2013/11/27)

>  <Rbt.Parameter_File>
/export/apps/rDock/src/rDock_2013.1_src/data/scripts/dock_solv.prm

>  <Rbt.Receptor>
prm/blind_docking_60.prm

>  <SCORE>
29.5989

>  <SCORE.INTER>
2.9806

>  <SCORE.INTER.CONST>
1

>  <SCORE.INTER.POLAR>
0

>  <SCORE.INTER.ROT>
4

>  <SCORE.INTER.SOLV>
27.9831

>  <SCORE.INTER.VDW>
-13.6073

>  <SCORE.INTER.norm>
0.0726977

>  <SCORE.INTRA>
5.58744

>  <SCORE.INTRA.DIHEDRAL>
8.77996

>  <SCORE.INTRA.DIHEDRAL.0>
5.18357

>  <SCORE.INTRA.POLAR>
0

>  <SCORE.INTRA.POLAR.0>
0

>  <SCORE.INTRA.REPUL>
0

>  <SCORE.INTRA.REPUL.0>
0

>  <SCORE.INTRA.SOLV>
2.13839

>  <SCORE.INTRA.SOLV.lig_0>
-109.973

>  <SCORE.INTRA.VDW>
0.128261

>  <SCORE.INTRA.VDW.0>
-1.68646

>  <SCORE.INTRA.norm>
0.136279

>  <SCORE.RESTR>
21.0308

>  <SCORE.RESTR.CAVITY>
21.0308

>  <SCORE.RESTR.norm>
0.512947

>  <SCORE.SYSTEM>
0

>  <SCORE.SYSTEM.CONST>
0

>  <SCORE.SYSTEM.DIHEDRAL>
0

>  <SCORE.SYSTEM.SOLV>
0

>  <SCORE.SYSTEM.norm>
0

>  <SCORE.heavy>
41

>  <SCORE.norm>
0.721923

>  <RMSD>
12.690

$$$$
ligand
 OpenBabel11021811423D
libRbt.so/2013.1/901 2013/11/27
 41 45  0  0  0  0  0  0  0  0999 V2000
   32.1787   40.1535    3.1514 C   0  0  2  0  0  0  0  0  0  0  0  0
   31.3384   41.3132    3.3113 O   0  0  0  0  0  0  0  0  0  0  0  0
   29.2336   44.0047    0.6200 C   0  0  2  0  0  0  0  0  0  0  0  0
   28.9757   44.9076   -0.5313 N   0  0  0  0  0  0  0  0  0  0  0  0
   28.7084   39.2734    1.0824 C   0  0  1  0  0  0  0  0  0  0  0  0
   26.9418   34.9264    1.5796 C   0  0  1  0  0  0  0  0  0  0  0  0
   31.8527   39.0720    4.2246 C   0  0  2  0  0  0  0  0  0  0  0  0
   30.4339   38.7039    4.2526 N   0  0  0  0  0  0  0  0  0  0  0  0
   30.4955   44.5108    1.3879 C   0  0  0  0  0  0  0  0  0  0  0  0
   28.9760   37.8977    0.4301 C   0  0  2  0  0  0  0  0  0  0  0  0
   28.2339   37.7292   -0.7821 O   0  0  0  0  0  0  0  0  0  0  0  0
   27.4267   34.4720    3.0220 C   0  0  2  0  0  0  0  0  0  0  0  0
   28.8643   34.7694    3.3043 N   0  0  0  0  0  0  0  0  0  0  0  0
   32.3026   39.5568    5.6292 C   0  0  1  0  0  0  0  0  0  0  0  0
   32.0272   38.5538    6.6034 O   0  0  0  0  0  0  0  0  0  0  0  0
   30.8200   43.5964    2.6046 C   0  0  2  0  0  0  0  0  0  0  0  0
   32.0121   44.1461    3.2773 N   0  0  0  0  0  0  0  0  0  0  0  0
   28.5928   36.8750    1.5134 C   0  0  2  0  0  0  0  0  0  0  0  0
   27.2170   36.3521    1.3311 O   0  0  0  0  0  0  0  0  0  0  0  0
   27.1500   32.9131    3.2194 C   0  0  1  0  0  0  0  0  0  0  0  0
   25.7332   32.6351    3.2674 O   0  0  0  0  0  0  0  0  0  0  0  0
   33.8113   39.8945    5.6059 C   0  0  2  0  0  0  0  0  0  0  0  0
   34.2316   40.3198    6.8852 O   0  0  0  0  0  0  0  0  0  0  0  0
   31.0273   42.1161    2.1249 C   0  0  2  0  0  0  0  0  0  0  0  0
   28.7280   37.6541    2.8186 C   0  0  2  0  0  0  0  0  0  0  0  0
   28.5632   39.0243    2.4816 O   0  0  0  0  0  0  0  0  0  0  0  0
   27.7986   32.0419    2.0697 C   0  0  2  0  0  0  0  0  0  0  0  0
   29.2307   32.1130    2.1731 O   0  0  0  0  0  0  0  0  0  0  0  0
   34.0958   40.9835    4.5524 C   0  0  2  0  0  0  0  0  0  0  0  0
   33.6174   40.4966    3.2394 O   0  0  0  0  0  0  0  0  0  0  0  0
   29.6998   41.6025    1.3723 C   0  0  2  0  0  0  0  0  0  0  0  0
   29.8301   40.2130    0.8563 O   0  0  0  0  0  0  0  0  0  0  0  0
   30.0862   37.4997    3.4871 C   0  0  0  0  0  0  0  0  0  0  0  0
   27.3125   32.5688    0.6589 C   0  0  1  0  0  0  0  0  0  0  0  0
   27.5352   34.0469    0.5079 O   0  0  0  0  0  0  0  0  0  0  0  0
   35.6102   41.2952    4.5212 C   0  0  0  0  0  0  0  0  0  0  0  0
   35.9564   42.6499    4.0530 N   0  0  0  0  0  0  0  0  0  0  0  0
   29.4165   42.5088    0.1553 C   0  0  1  0  0  0  0  0  0  0  0  0
   28.2372   42.0522   -0.5152 O   0  0  0  0  0  0  0  0  0  0  0  0
   27.9518   31.7883   -0.5534 C   0  0  0  0  0  0  0  0  0  0  0  0
   27.4016   32.1052   -1.9099 N   0  0  0  0  0  0  0  0  0  0  0  0
  1  2  1  1  0  0  0
  1  7  1  0  0  0  0
  1 30  1  0  0  0  0
  3  4  1  6  0  0  0
  3  9  1  0  0  0  0
  3 38  1  0  0  0  0
  5 10  1  0  0  0  0
  5 26  1  1  0  0  0
  5 32  1  0  0  0  0
  6 12  1  0  0  0  0
  6 35  1  0  0  0  0
  6 19  1  6  0  0  0
  7  8  1  1  0  0  0
  7 14  1  0  0  0  0
  8 33  1  0  0  0  0
  9 16  1  0  0  0  0
 10 11  1  6  0  0  0
 10 18  1  0  0  0  0
 12 13  1  6  0  0  0
 12 20  1  0  0  0  0
 14 15  1  1  0  0  0
 14 22  1  0  0  0  0
 16 17  1  6  0  0  0
 16 24  1  0  0  0  0
 18 19  1  6  0  0  0
 18 25  1  0  0  0  0
 20 21  1  6  0  0  0
 20 27  1  0  0  0  0
 22 23  1  1  0  0  0
 22 29  1  0  0  0  0
 24  2  1  1  0  0  0
 24 31  1  0  0  0  0
 25 26  1  6  0  0  0
 25 33  1  0  0  0  0
 27 28  1  6  0  0  0
 27 34  1  0  0  0  0
 29 30  1  0  0  0  0
 29 36  1  6  0  0  0
 31 32  1  6  0  0  0
 31 38  1  0  0  0  0
 34 35  1  0  0  0  0
 34 40  1  6  0  0  0
 36 37  1  0  0  0  0
 38 39  1  1  0  0  0
 40 41  1  0  0  0  0
M  END
>  <CHROM.1>
140.57410772,53.65406112,-153.97771460,172.02987642,29.98406072,38.49461867
2.36863928,-0.85973930,0.77724330,2.80769901

>  <Name>
ligand

>  <RI>
0

>  <Rbt.Current_Directory>
/home/itssahil/PROJECTS/Mol_Feturizer/New_Systems/rnas/1ZZ5

>  <Rbt.Executable>
rbdock ($Id: //depot/dev/client3/rdock/2013.1/src/exe/rbdock.cxx#4 $)

>  <Rbt.Library>
libRbt.so (2013.1, Build901 2013/11/27)

>  <Rbt.Parameter_File>
/export/apps/rDock/src/rDock_2013.1_src/data/scripts/dock_solv.prm

>  <Rbt.Receptor>
prm/blind_docking_60.prm

>  <SCORE>
29.6422

>  <SCORE.INTER>
4.38271

>  <SCORE.INTER.CONST>
1

>  <SCORE.INTER.POLAR>
0

>  <SCORE.INTER.ROT>
4

>  <SCORE.INTER.SOLV>
32.4508

>  <SCORE.INTER.VDW>
-14.1618

>  <SCORE.INTER.norm>
0.106895

>  <SCORE.INTRA>
2.74276

>  <SCORE.INTRA.DIHEDRAL>
2.80693

>  <SCORE.INTRA.DIHEDRAL.0>
5.18357

>  <SCORE.INTRA.POLAR>
0

>  <SCORE.INTRA.POLAR.0>
0

>  <SCORE.INTRA.REPUL>
0

>  <SCORE.INTRA.REPUL.0>
0

>  <SCORE.INTRA.SOLV>
1.41144

>  <SCORE.INTRA.SOLV.lig_0>
-109.973

>  <SCORE.INTRA.VDW>
0.633574

>  <SCORE.INTRA.VDW.0>
-1.68646

>  <SCORE.INTRA.norm>
0.0668966

>  <SCORE.RESTR>
22.5168

>  <SCORE.RESTR.CAVITY>
22.5168

>  <SCORE.RESTR.norm>
0.549189

>  <SCORE.SYSTEM>
0

>  <SCORE.SYSTEM.CONST>
0

>  <SCORE.SYSTEM.DIHEDRAL>
0

>  <SCORE.SYSTEM.SOLV>
0

>  <SCORE.SYSTEM.norm>
0

>  <SCORE.heavy>
41

>  <SCORE.norm>
0.722981

>  <RMSD>
12.753

$$$$
ligand
 OpenBabel11021811423D
libRbt.so/2013.1/901 2013/11/27
 41 45  0  0  0  0  0  0  0  0999 V2000
   32.1047   40.7234    3.1300 C   0  0  2  0  0  0  0  0  0  0  0  0
   31.0455   41.6682    3.3789 O   0  0  0  0  0  0  0  0  0  0  0  0
   28.0465   43.6675    0.9445 C   0  0  2  0  0  0  0  0  0  0  0  0
   27.4408   44.4273   -0.1794 N   0  0  0  0  0  0  0  0  0  0  0  0
   28.6987   38.9712    1.5721 C   0  0  1  0  0  0  0  0  0  0  0  0
   28.0520   34.3956    2.5067 C   0  0  1  0  0  0  0  0  0  0  0  0
   32.1789   39.6530    4.2598 C   0  0  2  0  0  0  0  0  0  0  0  0
   30.9001   38.9738    4.4886 N   0  0  0  0  0  0  0  0  0  0  0  0
   29.2437   44.4864    1.5224 C   0  0  0  0  0  0  0  0  0  0  0  0
   29.1930   37.6605    0.9181 C   0  0  2  0  0  0  0  0  0  0  0  0
   28.3616   37.2653   -0.1778 O   0  0  0  0  0  0  0  0  0  0  0  0
   28.6639   33.4689    1.3714 C   0  0  2  0  0  0  0  0  0  0  0  0
   27.9564   33.5650    0.0580 N   0  0  0  0  0  0  0  0  0  0  0  0
   32.6797   40.2994    5.5795 C   0  0  1  0  0  0  0  0  0  0  0  0
   32.7719   39.3118    6.6028 O   0  0  0  0  0  0  0  0  0  0  0  0
   29.9247   43.7338    2.7023 C   0  0  2  0  0  0  0  0  0  0  0  0
   31.0324   44.5744    3.1946 N   0  0  0  0  0  0  0  0  0  0  0  0
   29.1997   36.6349    2.0645 C   0  0  2  0  0  0  0  0  0  0  0  0
   27.9714   35.8040    2.0824 O   0  0  0  0  0  0  0  0  0  0  0  0
   28.6828   31.9513    1.8636 C   0  0  1  0  0  0  0  0  0  0  0  0
   29.6156   31.7655    2.9509 O   0  0  0  0  0  0  0  0  0  0  0  0
   34.0529   40.9698    5.3438 C   0  0  2  0  0  0  0  0  0  0  0  0
   34.5230   41.5451    6.5447 O   0  0  0  0  0  0  0  0  0  0  0  0
   30.4073   42.3168    2.2296 C   0  0  2  0  0  0  0  0  0  0  0  0
   29.3159   37.4907    3.3227 C   0  0  2  0  0  0  0  0  0  0  0  0
   28.7955   38.7681    2.9829 O   0  0  0  0  0  0  0  0  0  0  0  0
   27.2547   31.4582    2.3313 C   0  0  2  0  0  0  0  0  0  0  0  0
   26.3786   31.3988    1.1931 O   0  0  0  0  0  0  0  0  0  0  0  0
   33.9394   42.0390    4.2389 C   0  0  2  0  0  0  0  0  0  0  0  0
   33.4234   41.3889    3.0139 O   0  0  0  0  0  0  0  0  0  0  0  0
   29.1504   41.4765    1.6759 C   0  0  2  0  0  0  0  0  0  0  0  0
   29.5330   40.1284    1.1758 O   0  0  0  0  0  0  0  0  0  0  0  0
   30.7468   37.6841    3.8028 C   0  0  0  0  0  0  0  0  0  0  0  0
   26.6804   32.4431    3.4287 C   0  0  1  0  0  0  0  0  0  0  0  0
   26.7150   33.8729    2.9687 O   0  0  0  0  0  0  0  0  0  0  0  0
   35.3232   42.6850    3.9951 C   0  0  0  0  0  0  0  0  0  0  0  0
   35.9579   43.2654    5.1929 N   0  0  0  0  0  0  0  0  0  0  0  0
   28.5110   42.2304    0.4903 C   0  0  1  0  0  0  0  0  0  0  0  0
   27.3944   41.4835   -0.0035 O   0  0  0  0  0  0  0  0  0  0  0  0
   25.2319   32.0565    3.9183 C   0  0  0  0  0  0  0  0  0  0  0  0
   25.1039   30.7540    4.6467 N   0  0  0  0  0  0  0  0  0  0  0  0
  1  2  1  1  0  0  0
  1  7  1  0  0  0  0
  1 30  1  0  0  0  0
  3  4  1  6  0  0  0
  3  9  1  0  0  0  0
  3 38  1  0  0  0  0
  5 10  1  0  0  0  0
  5 26  1  1  0  0  0
  5 32  1  0  0  0  0
  6 12  1  0  0  0  0
  6 35  1  0  0  0  0
  6 19  1  6  0  0  0
  7  8  1  1  0  0  0
  7 14  1  0  0  0  0
  8 33  1  0  0  0  0
  9 16  1  0  0  0  0
 10 11  1  6  0  0  0
 10 18  1  0  0  0  0
 12 13  1  6  0  0  0
 12 20  1  0  0  0  0
 14 15  1  1  0  0  0
 14 22  1  0  0  0  0
 16 17  1  6  0  0  0
 16 24  1  0  0  0  0
 18 19  1  1  0  0  0
 18 25  1  0  0  0  0
 20 21  1  1  0  0  0
 20 27  1  0  0  0  0
 22 23  1  1  0  0  0
 22 29  1  0  0  0  0
 24  2  1  1  0  0  0
 24 31  1  0  0  0  0
 25 26  1  6  0  0  0
 25 33  1  0  0  0  0
 27 28  1  6  0  0  0
 27 34  1  0  0  0  0
 29 30  1  0  0  0  0
 29 36  1  6  0  0  0
 31 32  1  6  0  0  0
 31 38  1  0  0  0  0
 34 35  1  0  0  0  0
 34 40  1  6  0  0  0
 36 37  1  0  0  0  0
 38 39  1  1  0  0  0
 40 41  1  0  0  0  0
M  END
>  <CHROM.1>
145.75766679,-76.73558305,-55.56887184,64.97543840,29.80518768,38.47276831
2.76690344,-0.99114641,0.64016364,2.87066881

>  <Name>
ligand

>  <RI>
0

>  <Rbt.Current_Directory>
/home/itssahil/PROJECTS/Mol_Feturizer/New_Systems/rnas/1ZZ5

>  <Rbt.Executable>
rbdock ($Id: //depot/dev/client3/rdock/2013.1/src/exe/rbdock.cxx#4 $)

>  <Rbt.Library>
libRbt.so (2013.1, Build901 2013/11/27)

>  <Rbt.Parameter_File>
/export/apps/rDock/src/rDock_2013.1_src/data/scripts/dock_solv.prm

>  <Rbt.Receptor>
prm/blind_docking_60.prm

>  <SCORE>
27.4724

>  <SCORE.INTER>
4.10645

>  <SCORE.INTER.CONST>
1

>  <SCORE.INTER.POLAR>
0

>  <SCORE.INTER.ROT>
4

>  <SCORE.INTER.SOLV>
25.5725

>  <SCORE.INTER.VDW>
-12.0532

>  <SCORE.INTER.norm>
0.100157

>  <SCORE.INTRA>
1.38904

>  <SCORE.INTRA.DIHEDRAL>
0.797085

>  <SCORE.INTRA.DIHEDRAL.0>
5.18357

>  <SCORE.INTRA.POLAR>
0

>  <SCORE.INTRA.POLAR.0>
0

>  <SCORE.INTRA.REPUL>
0

>  <SCORE.INTRA.REPUL.0>
0

>  <SCORE.INTRA.SOLV>
0.884007

>  <SCORE.INTRA.SOLV.lig_0>
-109.973

>  <SCORE.INTRA.VDW>
0.548499

>  <SCORE.INTRA.VDW.0>
-1.68646

>  <SCORE.INTRA.norm>
0.0338791

>  <SCORE.RESTR>
21.9769

>  <SCORE.RESTR.CAVITY>
21.9769

>  <SCORE.RESTR.norm>
0.536023

>  <SCORE.SYSTEM>
0

>  <SCORE.SYSTEM.CONST>
0

>  <SCORE.SYSTEM.DIHEDRAL>
0

>  <SCORE.SYSTEM.SOLV>
0

>  <SCORE.SYSTEM.norm>
0

>  <SCORE.heavy>
41

>  <SCORE.norm>
0.670059

>  <RMSD>
12.801

$$$$
ligand
 OpenBabel11021811423D
libRbt.so/2013.1/901 2013/11/27
 41 45  0  0  0  0  0  0  0  0999 V2000
   32.3048   40.2784    3.1270 C   0  0  2  0  0  0  0  0  0  0  0  0
   31.4652   41.4494    3.1402 O   0  0  0  0  0  0  0  0  0  0  0  0
   29.3728   43.7913    0.1310 C   0  0  2  0  0  0  0  0  0  0  0  0
   29.1200   44.5462   -1.1234 N   0  0  0  0  0  0  0  0  0  0  0  0
   28.8412   39.1529    1.1688 C   0  0  1  0  0  0  0  0  0  0  0  0
   27.1459   34.8344    1.6078 C   0  0  1  0  0  0  0  0  0  0  0  0
   31.9739   39.3370    4.3236 C   0  0  2  0  0  0  0  0  0  0  0  0
   30.5546   38.9760    4.3913 N   0  0  0  0  0  0  0  0  0  0  0  0
   30.6324   44.3872    0.8356 C   0  0  0  0  0  0  0  0  0  0  0  0
   29.1097   37.7073    0.6914 C   0  0  2  0  0  0  0  0  0  0  0  0
   28.3717   37.3917   -0.4937 O   0  0  0  0  0  0  0  0  0  0  0  0
   25.7780   34.3499    2.2530 C   0  0  2  0  0  0  0  0  0  0  0  0
   25.6122   34.7300    3.6892 N   0  0  0  0  0  0  0  0  0  0  0  0
   32.4192   39.9904    5.6597 C   0  0  1  0  0  0  0  0  0  0  0  0
   32.1393   39.1147    6.7487 O   0  0  0  0  0  0  0  0  0  0  0  0
   30.9516   43.6288    2.1566 C   0  0  2  0  0  0  0  0  0  0  0  0
   32.1419   44.2563    2.7612 N   0  0  0  0  0  0  0  0  0  0  0  0
   28.7216   36.8256    1.8906 C   0  0  2  0  0  0  0  0  0  0  0  0
   27.3459   36.2850    1.7689 O   0  0  0  0  0  0  0  0  0  0  0  0
   25.6351   32.7687    2.0941 C   0  0  1  0  0  0  0  0  0  0  0  0
   25.4733   32.3947    0.7082 O   0  0  0  0  0  0  0  0  0  0  0  0
   33.9284   40.3218    5.6007 C   0  0  2  0  0  0  0  0  0  0  0  0
   34.3445   40.9006    6.8197 O   0  0  0  0  0  0  0  0  0  0  0  0
   31.1592   42.1007    1.8631 C   0  0  2  0  0  0  0  0  0  0  0  0
   28.8529   37.7590    3.0908 C   0  0  2  0  0  0  0  0  0  0  0  0
   28.6906   39.0775    2.5875 O   0  0  0  0  0  0  0  0  0  0  0  0
   26.8812   31.9949    2.6856 C   0  0  2  0  0  0  0  0  0  0  0  0
   26.9044   32.1571    4.1138 O   0  0  0  0  0  0  0  0  0  0  0  0
   34.2177   41.2730    4.4225 C   0  0  2  0  0  0  0  0  0  0  0  0
   33.7436   40.6289    3.1775 O   0  0  0  0  0  0  0  0  0  0  0  0
   29.8339   41.4994    1.1743 C   0  0  2  0  0  0  0  0  0  0  0  0
   29.9646   40.0570    0.8332 O   0  0  0  0  0  0  0  0  0  0  0  0
   30.2085   37.6870    3.7782 C   0  0  0  0  0  0  0  0  0  0  0  0
   28.2139   32.5502    2.0376 C   0  0  1  0  0  0  0  0  0  0  0  0
   28.3098   34.0452    2.1523 O   0  0  0  0  0  0  0  0  0  0  0  0
   35.7326   41.5776    4.3589 C   0  0  0  0  0  0  0  0  0  0  0  0
   36.6017   40.3904    4.2618 N   0  0  0  0  0  0  0  0  0  0  0  0
   29.5558   42.2495   -0.1458 C   0  0  1  0  0  0  0  0  0  0  0  0
   28.3785   41.7148   -0.7595 O   0  0  0  0  0  0  0  0  0  0  0  0
   29.5169   31.8690    2.6083 C   0  0  0  0  0  0  0  0  0  0  0  0
   29.5092   30.3726    2.6717 N   0  0  0  0  0  0  0  0  0  0  0  0
  1  2  1  1  0  0  0
  1  7  1  0  0  0  0
  1 30  1  0  0  0  0
  3  4  1  6  0  0  0
  3  9  1  0  0  0  0
  3 38  1  0  0  0  0
  5 10  1  0  0  0  0
  5 26  1  1  0  0  0
  5 32  1  0  0  0  0
  6 12  1  0  0  0  0
  6 35  1  0  0  0  0
  6 19  1  1  0  0  0
  7  8  1  1  0  0  0
  7 14  1  0  0  0  0
  8 33  1  0  0  0  0
  9 16  1  0  0  0  0
 10 11  1  6  0  0  0
 10 18  1  0  0  0  0
 12 13  1  1  0  0  0
 12 20  1  0  0  0  0
 14 15  1  1  0  0  0
 14 22  1  0  0  0  0
 16 17  1  6  0  0  0
 16 24  1  0  0  0  0
 18 19  1  6  0  0  0
 18 25  1  0  0  0  0
 20 21  1  6  0  0  0
 20 27  1  0  0  0  0
 22 23  1  1  0  0  0
 22 29  1  0  0  0  0
 24  2  1  1  0  0  0
 24 31  1  0  0  0  0
 25 26  1  6  0  0  0
 25 33  1  0  0  0  0
 27 28  1  1  0  0  0
 27 34  1  0  0  0  0
 29 30  1  0  0  0  0
 29 36  1  6  0  0  0
 31 32  1  6  0  0  0
 31 38  1  0  0  0  0
 34 35  1  0  0  0  0
 34 40  1  1  0  0  0
 36 37  1  0  0  0  0
 38 39  1  1  0  0  0
 40 41  1  0  0  0  0
M  END
>  <CHROM.1>
113.92311891,149.14728659,55.97608936,48.32080925,29.98390873,38.42494187
2.56273155,-0.88063963,0.67152459,2.74272886

>  <Name>
ligand

>  <RI>
0

>  <Rbt.Current_Directory>
/home/itssahil/PROJECTS/Mol_Feturizer/New_Systems/rnas/1ZZ5

>  <Rbt.Executable>
rbdock ($Id: //depot/dev/client3/rdock/2013.1/src/exe/rbdock.cxx#4 $)

>  <Rbt.Library>
libRbt.so (2013.1, Build901 2013/11/27)

>  <Rbt.Parameter_File>
/export/apps/rDock/src/rDock_2013.1_src/data/scripts/dock_solv.prm

>  <Rbt.Receptor>
prm/blind_docking_60.prm

>  <SCORE>
27.2478

>  <SCORE.INTER>
2.75539

>  <SCORE.INTER.CONST>
1

>  <SCORE.INTER.POLAR>
0

>  <SCORE.INTER.ROT>
4

>  <SCORE.INTER.SOLV>
30.4762

>  <SCORE.INTER.VDW>
-14.5885

>  <SCORE.INTER.norm>
0.0672046

>  <SCORE.INTRA>
3.80984

>  <SCORE.INTRA.DIHEDRAL>
6.18782

>  <SCORE.INTRA.DIHEDRAL.0>
5.18357

>  <SCORE.INTRA.POLAR>
0

>  <SCORE.INTRA.POLAR.0>
0

>  <SCORE.INTRA.REPUL>
0

>  <SCORE.INTRA.REPUL.0>
0

>  <SCORE.INTRA.SOLV>
0.751466

>  <SCORE.INTRA.SOLV.lig_0>
-109.973

>  <SCORE.INTRA.VDW>
0.340193

>  <SCORE.INTRA.VDW.0>
-1.68646

>  <SCORE.INTRA.norm>
0.0929228

>  <SCORE.RESTR>
20.6825

>  <SCORE.RESTR.CAVITY>
20.6825

>  <SCORE.RESTR.norm>
0.504452

>  <SCORE.SYSTEM>
0

>  <SCORE.SYSTEM.CONST>
0

>  <SCORE.SYSTEM.DIHEDRAL>
0

>  <SCORE.SYSTEM.SOLV>
0

>  <SCORE.SYSTEM.norm>
0

>  <SCORE.heavy>
41

>  <SCORE.norm>
0.66458

>  <RMSD>
12.838

$$$$
ligand
 OpenBabel11021811423D
libRbt.so/2013.1/901 2013/11/27
 41 45  0  0  0  0  0  0  0  0999 V2000
   32.2855   40.2421    3.1025 C   0  0  2  0  0  0  0  0  0  0  0  0
   31.4512   41.4168    3.1276 O   0  0  0  0  0  0  0  0  0  0  0  0
   29.3717   43.8003    0.1423 C   0  0  2  0  0  0  0  0  0  0  0  0
   29.1233   44.5697   -1.1041 N   0  0  0  0  0  0  0  0  0  0  0  0
   28.8182   39.1535    1.1301 C   0  0  1  0  0  0  0  0  0  0  0  0
   27.0996   34.8331    1.5788 C   0  0  1  0  0  0  0  0  0  0  0  0
   31.9494   39.2895    4.2888 C   0  0  2  0  0  0  0  0  0  0  0  0
   30.5285   38.9343    4.3517 N   0  0  0  0  0  0  0  0  0  0  0  0
   30.6336   44.3828    0.8540 C   0  0  0  0  0  0  0  0  0  0  0  0
   29.0804   37.7119    0.6374 C   0  0  2  0  0  0  0  0  0  0  0  0
   28.3419   37.4124   -0.5515 O   0  0  0  0  0  0  0  0  0  0  0  0
   25.7508   34.3697    2.2775 C   0  0  2  0  0  0  0  0  0  0  0  0
   25.6310   34.7850    3.7086 N   0  0  0  0  0  0  0  0  0  0  0  0
   32.3968   39.9265    5.6321 C   0  0  1  0  0  0  0  0  0  0  0  0
   32.1121   39.0406    6.7114 O   0  0  0  0  0  0  0  0  0  0  0  0
   30.9483   43.6089    2.1671 C   0  0  2  0  0  0  0  0  0  0  0  0
   32.1410   44.2244    2.7791 N   0  0  0  0  0  0  0  0  0  0  0  0
   28.6874   36.8192    1.8269 C   0  0  2  0  0  0  0  0  0  0  0  0
   27.3094   36.2863    1.6985 O   0  0  0  0  0  0  0  0  0  0  0  0
   25.5978   32.7858    2.1614 C   0  0  1  0  0  0  0  0  0  0  0  0
   25.3917   32.3793    0.7906 O   0  0  0  0  0  0  0  0  0  0  0  0
   33.9075   40.2516    5.5776 C   0  0  2  0  0  0  0  0  0  0  0  0
   34.3254   40.8155    6.8030 O   0  0  0  0  0  0  0  0  0  0  0  0
   31.1492   42.0831    1.8574 C   0  0  2  0  0  0  0  0  0  0  0  0
   28.8221   37.7391    3.0371 C   0  0  2  0  0  0  0  0  0  0  0  0
   28.6663   39.0636    2.5478 O   0  0  0  0  0  0  0  0  0  0  0  0
   26.8591   32.0213    2.7325 C   0  0  2  0  0  0  0  0  0  0  0  0
   26.9272   32.2177    4.1549 O   0  0  0  0  0  0  0  0  0  0  0  0
   34.2020   41.2141    4.4099 C   0  0  2  0  0  0  0  0  0  0  0  0
   33.7258   40.5855    3.1578 O   0  0  0  0  0  0  0  0  0  0  0  0
   29.8216   41.4952    1.1613 C   0  0  2  0  0  0  0  0  0  0  0  0
   29.9460   40.0560    0.8049 O   0  0  0  0  0  0  0  0  0  0  0  0
   30.1769   37.6536    3.7246 C   0  0  0  0  0  0  0  0  0  0  0  0
   28.1728   32.5555    2.0302 C   0  0  1  0  0  0  0  0  0  0  0  0
   28.2772   34.0523    2.1058 O   0  0  0  0  0  0  0  0  0  0  0  0
   35.7183   41.5124    4.3505 C   0  0  0  0  0  0  0  0  0  0  0  0
   36.5827   40.3217    4.2534 N   0  0  0  0  0  0  0  0  0  0  0  0
   29.5479   42.2607   -0.1509 C   0  0  1  0  0  0  0  0  0  0  0  0
   28.3686   41.7379   -0.7711 O   0  0  0  0  0  0  0  0  0  0  0  0
   29.4906   31.8828    2.5765 C   0  0  0  0  0  0  0  0  0  0  0  0
   29.4638   30.3922    2.7199 N   0  0  0  0  0  0  0  0  0  0  0  0
  1  2  1  1  0  0  0
  1  7  1  0  0  0  0
  1 30  1  0  0  0  0
  3  4  1  6  0  0  0
  3  9  1  0  0  0  0
  3 38  1  0  0  0  0
  5 10  1  0  0  0  0
  5 26  1  1  0  0  0
  5 32  1  0  0  0  0
  6 12  1  0  0  0  0
  6 35  1  0  0  0  0
  6 19  1  1  0  0  0
  7  8  1  1  0  0  0
  7 14  1  0  0  0  0
  8 33  1  0  0  0  0
  9 16  1  0  0  0  0
 10 11  1  6  0  0  0
 10 18  1  0  0  0  0
 12 13  1  1  0  0  0
 12 20  1  0  0  0  0
 14 15  1  1  0  0  0
 14 22  1  0  0  0  0
 16 17  1  6  0  0  0
 16 24  1  0  0  0  0
 18 19  1  6  0  0  0
 18 25  1  0  0  0  0
 20 21  1  6  0  0  0
 20 27  1  0  0  0  0
 22 23  1  1  0  0  0
 22 29  1  0  0  0  0
 24  2  1  1  0  0  0
 24 31  1  0  0  0  0
 25 26  1  6  0  0  0
 25 33  1  0  0  0  0
 27 28  1  1  0  0  0
 27 34  1  0  0  0  0
 29 30  1  0  0  0  0
 29 36  1  6  0  0  0
 31 32  1  6  0  0  0
 31 38  1  0  0  0  0
 34 35  1  0  0  0  0
 34 40  1  1  0  0  0
 36 37  1  0  0  0  0
 38 39  1  1  0  0  0
 40 41  1  0  0  0  0
M  END
>  <CHROM.1>
116.48800461,146.35893784,55.45507628,46.32430281,29.96291667,38.41183373
2.55105720,-0.88067344,0.66677401,2.74052884

>  <Name>
ligand

>  <RI>
0

>  <Rbt.Current_Directory>
/home/itssahil/PROJECTS/Mol_Feturizer/New_Systems/rnas/1ZZ5

>  <Rbt.Executable>
rbdock ($Id: //depot/dev/client3/rdock/2013.1/src/exe/rbdock.cxx#4 $)

>  <Rbt.Library>
libRbt.so (2013.1, Build901 2013/11/27)

>  <Rbt.Parameter_File>
/export/apps/rDock/src/rDock_2013.1_src/data/scripts/dock_solv.prm

>  <Rbt.Receptor>
prm/blind_docking_60.prm

>  <SCORE>
26.9377

>  <SCORE.INTER>
1.92173

>  <SCORE.INTER.CONST>
1

>  <SCORE.INTER.POLAR>
0

>  <SCORE.INTER.ROT>
4

>  <SCORE.INTER.SOLV>
30.2719

>  <SCORE.INTER.VDW>
-15.0761

>  <SCORE.INTER.norm>
0.0468715

>  <SCORE.INTRA>
4.297

>  <SCORE.INTRA.DIHEDRAL>
6.99771

>  <SCORE.INTRA.DIHEDRAL.0>
5.18357

>  <SCORE.INTRA.POLAR>
0

>  <SCORE.INTRA.POLAR.0>
0

>  <SCORE.INTRA.REPUL>
0

>  <SCORE.INTRA.REPUL.0>
0

>  <SCORE.INTRA.SOLV>
0.872533

>  <SCORE.INTRA.SOLV.lig_0>
-109.973

>  <SCORE.INTRA.VDW>
0.361876

>  <SCORE.INTRA.VDW.0>
-1.68646

>  <SCORE.INTRA.norm>
0.104805

>  <SCORE.RESTR>
20.7189

>  <SCORE.RESTR.CAVITY>
20.7189

>  <SCORE.RESTR.norm>
0.50534

>  <SCORE.SYSTEM>
0

>  <SCORE.SYSTEM.CONST>
0

>  <SCORE.SYSTEM.DIHEDRAL>
0

>  <SCORE.SYSTEM.SOLV>
0

>  <SCORE.SYSTEM.norm>
0

>  <SCORE.heavy>
41

>  <SCORE.norm>
0.657016

>  <RMSD>
12.854

$$$$
ligand
 OpenBabel11021811423D
libRbt.so/2013.1/901 2013/11/27
 41 45  0  0  0  0  0  0  0  0999 V2000
   32.3030   40.2872    3.0639 C   0  0  2  0  0  0  0  0  0  0  0  0
   31.4636   41.4585    3.0661 O   0  0  0  0  0  0  0  0  0  0  0  0
   29.3578   43.7626    0.0371 C   0  0  2  0  0  0  0  0  0  0  0  0
   29.0993   44.5015   -1.2256 N   0  0  0  0  0  0  0  0  0  0  0  0
   28.8300   39.1378    1.1363 C   0  0  1  0  0  0  0  0  0  0  0  0
   27.1366   34.8277    1.6189 C   0  0  1  0  0  0  0  0  0  0  0  0
   31.9773   39.3613    4.2739 C   0  0  2  0  0  0  0  0  0  0  0  0
   30.5584   39.0015    4.3528 N   0  0  0  0  0  0  0  0  0  0  0  0
   30.6208   44.3670    0.7282 C   0  0  0  0  0  0  0  0  0  0  0  0
   29.0961   37.6862    0.6760 C   0  0  2  0  0  0  0  0  0  0  0  0
   28.3525   37.3558   -0.5015 O   0  0  0  0  0  0  0  0  0  0  0  0
   25.7710   34.3427    2.2684 C   0  0  2  0  0  0  0  0  0  0  0  0
   25.6099   34.7224    3.7053 N   0  0  0  0  0  0  0  0  0  0  0  0
   32.4290   40.0314    5.5995 C   0  0  1  0  0  0  0  0  0  0  0  0
   32.1540   39.1698    6.7008 O   0  0  0  0  0  0  0  0  0  0  0  0
   30.9459   43.6254    2.0573 C   0  0  2  0  0  0  0  0  0  0  0  0
   32.1391   44.2602    2.6483 N   0  0  0  0  0  0  0  0  0  0  0  0
   28.7133   36.8199    1.8881 C   0  0  2  0  0  0  0  0  0  0  0  0
   27.3370   36.2782    1.7797 O   0  0  0  0  0  0  0  0  0  0  0  0
   25.6279   32.7616    2.1096 C   0  0  1  0  0  0  0  0  0  0  0  0
   25.4615   32.3879    0.7241 O   0  0  0  0  0  0  0  0  0  0  0  0
   33.9379   40.3616    5.5293 C   0  0  2  0  0  0  0  0  0  0  0  0
   34.3599   40.9559    6.7389 O   0  0  0  0  0  0  0  0  0  0  0  0
   31.1519   42.0936    1.7822 C   0  0  2  0  0  0  0  0  0  0  0  0
   28.8503   37.7685    3.0758 C   0  0  2  0  0  0  0  0  0  0  0  0
   28.6860   39.0805    2.5564 O   0  0  0  0  0  0  0  0  0  0  0  0
   26.8761   31.9878    2.6967 C   0  0  2  0  0  0  0  0  0  0  0  0
   26.9040   32.1496    4.1248 O   0  0  0  0  0  0  0  0  0  0  0  0
   34.2220   41.2977    4.3378 C   0  0  2  0  0  0  0  0  0  0  0  0
   33.7420   40.6380    3.1033 O   0  0  0  0  0  0  0  0  0  0  0  0
   29.8232   41.4840    1.1073 C   0  0  2  0  0  0  0  0  0  0  0  0
   29.9521   40.0373    0.7840 O   0  0  0  0  0  0  0  0  0  0  0  0
   30.2091   37.7049    3.7577 C   0  0  0  0  0  0  0  0  0  0  0  0
   28.2065   32.5435    2.0445 C   0  0  1  0  0  0  0  0  0  0  0  0
   28.3025   34.0384    2.1593 O   0  0  0  0  0  0  0  0  0  0  0  0
   35.7367   41.6011    4.2633 C   0  0  0  0  0  0  0  0  0  0  0  0
   36.2404   42.5108    5.3087 N   0  0  0  0  0  0  0  0  0  0  0  0
   29.5392   42.2173   -0.2210 C   0  0  1  0  0  0  0  0  0  0  0  0
   28.3590   41.6751   -0.8224 O   0  0  0  0  0  0  0  0  0  0  0  0
   29.5115   31.8624    2.6106 C   0  0  0  0  0  0  0  0  0  0  0  0
   29.4837   30.3692    2.7251 N   0  0  0  0  0  0  0  0  0  0  0  0
  1  2  1  1  0  0  0
  1  7  1  0  0  0  0
  1 30  1  0  0  0  0
  3  4  1  6  0  0  0
  3  9  1  0  0  0  0
  3 38  1  0  0  0  0
  5 10  1  0  0  0  0
  5 26  1  1  0  0  0
  5 32  1  0  0  0  0
  6 12  1  0  0  0  0
  6 35  1  0  0  0  0
  6 19  1  1  0  0  0
  7  8  1  1  0  0  0
  7 14  1  0  0  0  0
  8 33  1  0  0  0  0
  9 16  1  0  0  0  0
 10 11  1  6  0  0  0
 10 18  1  0  0  0  0
 12 13  1  1  0  0  0
 12 20  1  0  0  0  0
 14 15  1  1  0  0  0
 14 22  1  0  0  0  0
 16 17  1  6  0  0  0
 16 24  1  0  0  0  0
 18 19  1  6  0  0  0
 18 25  1  0  0  0  0
 20 21  1  6  0  0  0
 20 27  1  0  0  0  0
 22 23  1  1  0  0  0
 22 29  1  0  0  0  0
 24  2  1  1  0  0  0
 24 31  1  0  0  0  0
 25 26  1  6  0  0  0
 25 33  1  0  0  0  0
 27 28  1  1  0  0  0
 27 34  1  0  0  0  0
 29 30  1  0  0  0  0
 29 36  1  6  0  0  0
 31 32  1  6  0  0  0
 31 38  1  0  0  0  0
 34 35  1  0  0  0  0
 34 40  1  1  0  0  0
 36 37  1  0  0  0  0
 38 39  1  1  0  0  0
 40 41  1  0  0  0  0
M  END
>  <CHROM.1>
113.06279359,149.54159742,-72.80709995,45.94831517,29.96986456,38.47579649
2.55078141,-0.85920142,0.70085998,2.71580390

>  <Name>
ligand

>  <RI>
0

>  <Rbt.Current_Directory>
/home/itssahil/PROJECTS/Mol_Feturizer/New_Systems/rnas/1ZZ5

>  <Rbt.Executable>
rbdock ($Id: //depot/dev/client3/rdock/2013.1/src/exe/rbdock.cxx#4 $)

>  <Rbt.Library>
libRbt.so (2013.1, Build901 2013/11/27)

>  <Rbt.Parameter_File>
/export/apps/rDock/src/rDock_2013.1_src/data/scripts/dock_solv.prm

>  <Rbt.Receptor>
prm/blind_docking_60.prm

>  <SCORE>
25.8932

>  <SCORE.INTER>
1.30797

>  <SCORE.INTER.CONST>
1

>  <SCORE.INTER.POLAR>
0

>  <SCORE.INTER.ROT>
4

>  <SCORE.INTER.SOLV>
28.4821

>  <SCORE.INTER.VDW>
-14.8887

>  <SCORE.INTER.norm>
0.0319017

>  <SCORE.INTRA>
3.97497

>  <SCORE.INTRA.DIHEDRAL>
6.776

>  <SCORE.INTRA.DIHEDRAL.0>
5.18357

>  <SCORE.INTRA.POLAR>
0

>  <SCORE.INTRA.POLAR.0>
0

>  <SCORE.INTRA.REPUL>
0

>  <SCORE.INTRA.REPUL.0>
0

>  <SCORE.INTRA.SOLV>
0.412796

>  <SCORE.INTRA.SOLV.lig_0>
-109.973

>  <SCORE.INTRA.VDW>
0.380578

>  <SCORE.INTRA.VDW.0>
-1.68646

>  <SCORE.INTRA.norm>
0.0969506

>  <SCORE.RESTR>
20.6103

>  <SCORE.RESTR.CAVITY>
20.6103

>  <SCORE.RESTR.norm>
0.50269

>  <SCORE.SYSTEM>
0

>  <SCORE.SYSTEM.CONST>
0

>  <SCORE.SYSTEM.DIHEDRAL>
0

>  <SCORE.SYSTEM.SOLV>
0

>  <SCORE.SYSTEM.norm>
0

>  <SCORE.heavy>
41

>  <SCORE.norm>
0.631542

>  <RMSD>
12.864

$$$$
ligand
 OpenBabel11021811423D
libRbt.so/2013.1/901 2013/11/27
 41 45  0  0  0  0  0  0  0  0999 V2000
   31.9238   39.9163    2.8747 C   0  0  2  0  0  0  0  0  0  0  0  0
   31.0701   41.0771    2.8893 O   0  0  0  0  0  0  0  0  0  0  0  0
   28.9313   43.3839   -0.1144 C   0  0  2  0  0  0  0  0  0  0  0  0
   28.6618   44.1316   -1.3696 N   0  0  0  0  0  0  0  0  0  0  0  0
   28.4623   38.7427    0.9412 C   0  0  1  0  0  0  0  0  0  0  0  0
   26.7808   34.4252    1.8126 C   0  0  1  0  0  0  0  0  0  0  0  0
   31.6115   38.9749    4.0763 C   0  0  2  0  0  0  0  0  0  0  0  0
   30.1972   38.5969    4.1538 N   0  0  0  0  0  0  0  0  0  0  0  0
   30.1879   43.9972    0.5806 C   0  0  0  0  0  0  0  0  0  0  0  0
   28.7454   37.2990    0.4667 C   0  0  2  0  0  0  0  0  0  0  0  0
   28.0042   36.9707   -0.7128 O   0  0  0  0  0  0  0  0  0  0  0  0
   27.4045   33.9634    3.1982 C   0  0  2  0  0  0  0  0  0  0  0  0
   28.8561   34.2858    3.3516 N   0  0  0  0  0  0  0  0  0  0  0  0
   32.0570   39.6379    5.4075 C   0  0  1  0  0  0  0  0  0  0  0  0
   31.7944   38.7625    6.5010 O   0  0  0  0  0  0  0  0  0  0  0  0
   30.5243   43.2470    1.9020 C   0  0  2  0  0  0  0  0  0  0  0  0
   31.7105   43.8908    2.4973 N   0  0  0  0  0  0  0  0  0  0  0  0
   28.3753   36.4165    1.6710 C   0  0  2  0  0  0  0  0  0  0  0  0
   27.0055   35.8589    1.5594 O   0  0  0  0  0  0  0  0  0  0  0  0
   27.1761   32.3972    3.3989 C   0  0  1  0  0  0  0  0  0  0  0  0
   25.7751   32.0908    3.5727 O   0  0  0  0  0  0  0  0  0  0  0  0
   33.5616   39.9873    5.3383 C   0  0  2  0  0  0  0  0  0  0  0  0
   33.9781   40.5751    6.5529 O   0  0  0  0  0  0  0  0  0  0  0  0
   30.7486   41.7206    1.6120 C   0  0  2  0  0  0  0  0  0  0  0  0
   28.5025   37.3553    2.8675 C   0  0  2  0  0  0  0  0  0  0  0  0
   28.3212   38.6701    2.3610 O   0  0  0  0  0  0  0  0  0  0  0  0
   27.7324   31.5526    2.1829 C   0  0  2  0  0  0  0  0  0  0  0  0
   29.1663   31.6507    2.1556 O   0  0  0  0  0  0  0  0  0  0  0  0
   33.8323   40.9382    4.1554 C   0  0  2  0  0  0  0  0  0  0  0  0
   33.3585   40.2844    2.9154 O   0  0  0  0  0  0  0  0  0  0  0  0
   29.4265   41.1011    0.9333 C   0  0  2  0  0  0  0  0  0  0  0  0
   29.5726   39.6593    0.5959 O   0  0  0  0  0  0  0  0  0  0  0  0
   29.8630   37.3019    3.5469 C   0  0  0  0  0  0  0  0  0  0  0  0
   27.1090   32.0865    0.8299 C   0  0  1  0  0  0  0  0  0  0  0  0
   27.2895   33.5704    0.6792 O   0  0  0  0  0  0  0  0  0  0  0  0
   35.3430   41.2609    4.0816 C   0  0  0  0  0  0  0  0  0  0  0  0
   35.7963   42.3261    4.9950 N   0  0  0  0  0  0  0  0  0  0  0  0
   29.1314   41.8435   -0.3875 C   0  0  1  0  0  0  0  0  0  0  0  0
   27.9570   41.2926   -0.9924 O   0  0  0  0  0  0  0  0  0  0  0  0
   27.6486   31.3332   -0.4464 C   0  0  0  0  0  0  0  0  0  0  0  0
   27.7205   29.8400   -0.3540 N   0  0  0  0  0  0  0  0  0  0  0  0
  1  2  1  1  0  0  0
  1  7  1  0  0  0  0
  1 30  1  0  0  0  0
  3  4  1  6  0  0  0
  3  9  1  0  0  0  0
  3 38  1  0  0  0  0
  5 10  1  0  0  0  0
  5 26  1  1  0  0  0
  5 32  1  0  0  0  0
  6 12  1  0  0  0  0
  6 35  1  0  0  0  0
  6 19  1  6  0  0  0
  7  8  1  1  0  0  0
  7 14  1  0  0  0  0
  8 33  1  0  0  0  0
  9 16  1  0  0  0  0
 10 11  1  6  0  0  0
 10 18  1  0  0  0  0
 12 13  1  6  0  0  0
 12 20  1  0  0  0  0
 14 15  1  1  0  0  0
 14 22  1  0  0  0  0
 16 17  1  6  0  0  0
 16 24  1  0  0  0  0
 18 19  1  6  0  0  0
 18 25  1  0  0  0  0
 20 21  1  6  0  0  0
 20 27  1  0  0  0  0
 22 23  1  1  0  0  0
 22 29  1  0  0  0  0
 24  2  1  1  0  0  0
 24 31  1  0  0  0  0
 25 26  1  6  0  0  0
 25 33  1  0  0  0  0
 27 28  1  6  0  0  0
 27 34  1  0  0  0  0
 29 30  1  0  0  0  0
 29 36  1  6  0  0  0
 31 32  1  6  0  0  0
 31 38  1  0  0  0  0
 34 35  1  0  0  0  0
 34 40  1  6  0  0  0
 36 37  1  0  0  0  0
 38 39  1  1  0  0  0
 40 41  1  0  0  0  0
M  END
>  <CHROM.1>
132.38521788,51.40522904,-82.07444446,44.89507130,29.78067405,38.08265872
2.25368334,-0.89566752,0.79026803,2.76138710

>  <Name>
ligand

>  <RI>
0

>  <Rbt.Current_Directory>
/home/itssahil/PROJECTS/Mol_Feturizer/New_Systems/rnas/1ZZ5

>  <Rbt.Executable>
rbdock ($Id: //depot/dev/client3/rdock/2013.1/src/exe/rbdock.cxx#4 $)

>  <Rbt.Library>
libRbt.so (2013.1, Build901 2013/11/27)

>  <Rbt.Parameter_File>
/export/apps/rDock/src/rDock_2013.1_src/data/scripts/dock_solv.prm

>  <Rbt.Receptor>
prm/blind_docking_60.prm

>  <SCORE>
31.578

>  <SCORE.INTER>
6.92431

>  <SCORE.INTER.CONST>
1

>  <SCORE.INTER.POLAR>
0

>  <SCORE.INTER.ROT>
4

>  <SCORE.INTER.SOLV>
26.6341

>  <SCORE.INTER.VDW>
-10.5285

>  <SCORE.INTER.norm>
0.168886

>  <SCORE.INTRA>
3.99935

>  <SCORE.INTRA.DIHEDRAL>
4.14342

>  <SCORE.INTRA.DIHEDRAL.0>
5.18357

>  <SCORE.INTRA.POLAR>
0

>  <SCORE.INTRA.POLAR.0>
0

>  <SCORE.INTRA.REPUL>
0

>  <SCORE.INTRA.REPUL.0>
0

>  <SCORE.INTRA.SOLV>
2.91068

>  <SCORE.INTRA.SOLV.lig_0>
-109.973

>  <SCORE.INTRA.VDW>
0.472296

>  <SCORE.INTRA.VDW.0>
-1.68646

>  <SCORE.INTRA.norm>
0.0975451

>  <SCORE.RESTR>
20.6544

>  <SCORE.RESTR.CAVITY>
20.6544

>  <SCORE.RESTR.norm>
0.503765

>  <SCORE.SYSTEM>
0

>  <SCORE.SYSTEM.CONST>
0

>  <SCORE.SYSTEM.DIHEDRAL>
0

>  <SCORE.SYSTEM.SOLV>
0

>  <SCORE.SYSTEM.norm>
0

>  <SCORE.heavy>
41

>  <SCORE.norm>
0.770196

>  <RMSD>
12.966

$$$$
ligand
 OpenBabel11021811423D
libRbt.so/2013.1/901 2013/11/27
 41 45  0  0  0  0  0  0  0  0999 V2000
   28.8842   39.9815    0.5574 C   0  0  2  0  0  0  0  0  0  0  0  0
   30.0821   39.5199    1.2121 O   0  0  0  0  0  0  0  0  0  0  0  0
   31.3657   39.0456    5.3407 C   0  0  2  0  0  0  0  0  0  0  0  0
   31.6052   39.3596    6.7729 N   0  0  0  0  0  0  0  0  0  0  0  0
   27.6298   37.0153    3.1508 C   0  0  1  0  0  0  0  0  0  0  0  0
   26.5526   33.8076    2.7314 C   0  0  1  0  0  0  0  0  0  0  0  0
   28.5416   39.0939   -0.6765 C   0  0  2  0  0  0  0  0  0  0  0  0
   28.4554   37.6677   -0.3484 N   0  0  0  0  0  0  0  0  0  0  0  0
   31.9886   40.1769    4.4631 C   0  0  0  0  0  0  0  0  0  0  0  0
   26.0895   37.0022    3.0200 C   0  0  2  0  0  0  0  0  0  0  0  0
   25.4561   36.5597    4.2249 O   0  0  0  0  0  0  0  0  0  0  0  0
   27.5000   33.3227    1.5527 C   0  0  2  0  0  0  0  0  0  0  0  0
   26.7772   32.6729    0.4168 N   0  0  0  0  0  0  0  0  0  0  0  0
   29.5851   39.3165   -1.8043 C   0  0  1  0  0  0  0  0  0  0  0  0
   29.2528   38.5233   -2.9407 O   0  0  0  0  0  0  0  0  0  0  0  0
   31.7616   39.9049    2.9476 C   0  0  2  0  0  0  0  0  0  0  0  0
   32.3852   41.0081    2.1926 N   0  0  0  0  0  0  0  0  0  0  0  0
   25.8108   36.0774    1.8230 C   0  0  2  0  0  0  0  0  0  0  0  0
   25.4813   34.6946    2.2458 O   0  0  0  0  0  0  0  0  0  0  0  0
   28.6094   32.3287    2.1245 C   0  0  1  0  0  0  0  0  0  0  0  0
   29.5303   33.0190    2.9976 O   0  0  0  0  0  0  0  0  0  0  0  0
   29.6341   40.8153   -2.1812 C   0  0  2  0  0  0  0  0  0  0  0  0
   30.5690   41.0228   -3.2190 O   0  0  0  0  0  0  0  0  0  0  0  0
   30.2267   39.7631    2.6505 C   0  0  2  0  0  0  0  0  0  0  0  0
   27.1042   36.1231    1.0142 C   0  0  2  0  0  0  0  0  0  0  0  0
   28.1331   36.4679    1.9310 O   0  0  0  0  0  0  0  0  0  0  0  0
   27.9730   31.1162    2.9159 C   0  0  2  0  0  0  0  0  0  0  0  0
   27.2552   30.2759    1.9966 O   0  0  0  0  0  0  0  0  0  0  0  0
   29.9992   41.6621   -0.9457 C   0  0  2  0  0  0  0  0  0  0  0  0
   29.0038   41.3905    0.1149 O   0  0  0  0  0  0  0  0  0  0  0  0
   29.6149   38.5653    3.5357 C   0  0  2  0  0  0  0  0  0  0  0  0
   28.1512   38.3887    3.3346 O   0  0  0  0  0  0  0  0  0  0  0  0
   27.0985   37.1668   -0.0930 C   0  0  0  0  0  0  0  0  0  0  0  0
   27.0084   31.6611    4.0460 C   0  0  1  0  0  0  0  0  0  0  0  0
   26.0012   32.6329    3.4997 O   0  0  0  0  0  0  0  0  0  0  0  0
   30.0212   43.1602   -1.3290 C   0  0  0  0  0  0  0  0  0  0  0  0
   30.4024   44.0754   -0.2375 N   0  0  0  0  0  0  0  0  0  0  0  0
   29.8285   38.8728    5.0332 C   0  0  1  0  0  0  0  0  0  0  0  0
   29.2837   37.8092    5.8210 O   0  0  0  0  0  0  0  0  0  0  0  0
   26.2868   30.5167    4.8564 C   0  0  0  0  0  0  0  0  0  0  0  0
   27.1619   29.4152    5.3705 N   0  0  0  0  0  0  0  0  0  0  0  0
  1  2  1  6  0  0  0
  1  7  1  0  0  0  0
  1 30  1  0  0  0  0
  3  4  1  1  0  0  0
  3  9  1  0  0  0  0
  3 38  1  0  0  0  0
  5 10  1  0  0  0  0
  5 26  1  6  0  0  0
  5 32  1  0  0  0  0
  6 12  1  0  0  0  0
  6 35  1  0  0  0  0
  6 19  1  6  0  0  0
  7  8  1  1  0  0  0
  7 14  1  0  0  0  0
  8 33  1  0  0  0  0
  9 16  1  0  0  0  0
 10 11  1  1  0  0  0
 10 18  1  0  0  0  0
 12 13  1  6  0  0  0
 12 20  1  0  0  0  0
 14 15  1  6  0  0  0
 14 22  1  0  0  0  0
 16 17  1  6  0  0  0
 16 24  1  0  0  0  0
 18 19  1  1  0  0  0
 18 25  1  0  0  0  0
 20 21  1  1  0  0  0
 20 27  1  0  0  0  0
 22 23  1  6  0  0  0
 22 29  1  0  0  0  0
 24  2  1  6  0  0  0
 24 31  1  0  0  0  0
 25 26  1  1  0  0  0
 25 33  1  0  0  0  0
 27 28  1  6  0  0  0
 27 34  1  0  0  0  0
 29 30  1  0  0  0  0
 29 36  1  6  0  0  0
 31 32  1  1  0  0  0
 31 38  1  0  0  0  0
 34 35  1  0  0  0  0
 34 40  1  6  0  0  0
 36 37  1  0  0  0  0
 38 39  1  1  0  0  0
 40 41  1  0  0  0  0
M  END
>  <CHROM.1>
-74.61875680,-72.42121744,-178.09793046,49.06180960,28.61858354,37.07982859
1.94694515,0.81267688,-1.07965658,-1.03466161

>  <Name>
ligand

>  <RI>
0

>  <Rbt.Current_Directory>
/home/itssahil/PROJECTS/Mol_Feturizer/New_Systems/rnas/1ZZ5

>  <Rbt.Executable>
rbdock ($Id: //depot/dev/client3/rdock/2013.1/src/exe/rbdock.cxx#4 $)

>  <Rbt.Library>
libRbt.so (2013.1, Build901 2013/11/27)

>  <Rbt.Parameter_File>
/export/apps/rDock/src/rDock_2013.1_src/data/scripts/dock_solv.prm

>  <Rbt.Receptor>
prm/blind_docking_60.prm

>  <SCORE>
63.336

>  <SCORE.INTER>
39.3474

>  <SCORE.INTER.CONST>
1

>  <SCORE.INTER.POLAR>
0

>  <SCORE.INTER.ROT>
4

>  <SCORE.INTER.SOLV>
29.4144

>  <SCORE.INTER.VDW>
10.1601

>  <SCORE.INTER.norm>
0.959692

>  <SCORE.INTRA>
-0.291934

>  <SCORE.INTRA.DIHEDRAL>
-2.80096

>  <SCORE.INTRA.DIHEDRAL.0>
5.18357

>  <SCORE.INTRA.POLAR>
0

>  <SCORE.INTRA.POLAR.0>
0

>  <SCORE.INTRA.REPUL>
0

>  <SCORE.INTRA.REPUL.0>
0

>  <SCORE.INTRA.SOLV>
0.591446

>  <SCORE.INTRA.SOLV.lig_0>
-109.973

>  <SCORE.INTRA.VDW>
0.812821

>  <SCORE.INTRA.VDW.0>
-1.68646

>  <SCORE.INTRA.norm>
-0.00712035

>  <SCORE.RESTR>
24.2805

>  <SCORE.RESTR.CAVITY>
24.2805

>  <SCORE.RESTR.norm>
0.592208

>  <SCORE.SYSTEM>
0

>  <SCORE.SYSTEM.CONST>
0

>  <SCORE.SYSTEM.DIHEDRAL>
0

>  <SCORE.SYSTEM.SOLV>
0

>  <SCORE.SYSTEM.norm>
0

>  <SCORE.heavy>
41

>  <SCORE.norm>
1.54478

>  <RMSD>
13.083

$$$$
ligand
 OpenBabel11021811423D
libRbt.so/2013.1/901 2013/11/27
 41 45  0  0  0  0  0  0  0  0999 V2000
   31.7213   39.6955    2.6772 C   0  0  2  0  0  0  0  0  0  0  0  0
   30.8659   40.8494    2.5619 O   0  0  0  0  0  0  0  0  0  0  0  0
   28.8055   42.8611   -0.6978 C   0  0  2  0  0  0  0  0  0  0  0  0
   28.5688   43.4888   -2.0234 N   0  0  0  0  0  0  0  0  0  0  0  0
   28.3147   38.3352    0.7686 C   0  0  1  0  0  0  0  0  0  0  0  0
   26.6216   34.1020    1.9620 C   0  0  1  0  0  0  0  0  0  0  0  0
   31.3780   38.8676    3.9518 C   0  0  2  0  0  0  0  0  0  0  0  0
   29.9627   38.4929    4.0260 N   0  0  0  0  0  0  0  0  0  0  0  0
   30.0420   43.5407   -0.0291 C   0  0  0  0  0  0  0  0  0  0  0  0
   28.6125   36.8550    0.4371 C   0  0  2  0  0  0  0  0  0  0  0  0
   27.9037   36.4164   -0.7265 O   0  0  0  0  0  0  0  0  0  0  0  0
   27.4145   33.6841    3.2730 C   0  0  2  0  0  0  0  0  0  0  0  0
   28.8812   33.9676    3.2156 N   0  0  0  0  0  0  0  0  0  0  0  0
   31.7866   39.6523    5.2276 C   0  0  1  0  0  0  0  0  0  0  0  0
   31.4958   38.8803    6.3897 O   0  0  0  0  0  0  0  0  0  0  0  0
   30.3437   42.9168    1.3644 C   0  0  2  0  0  0  0  0  0  0  0  0
   31.5126   43.6173    1.9292 N   0  0  0  0  0  0  0  0  0  0  0  0
   28.2113   36.0858    1.7074 C   0  0  2  0  0  0  0  0  0  0  0  0
   26.8459   35.5151    1.6111 O   0  0  0  0  0  0  0  0  0  0  0  0
   27.1763   32.1364    3.5789 C   0  0  1  0  0  0  0  0  0  0  0  0
   25.8043   31.8821    3.9527 O   0  0  0  0  0  0  0  0  0  0  0  0
   33.2921   39.9997    5.1666 C   0  0  2  0  0  0  0  0  0  0  0  0
   33.6749   40.6985    6.3325 O   0  0  0  0  0  0  0  0  0  0  0  0
   30.5779   41.3711    1.2226 C   0  0  2  0  0  0  0  0  0  0  0  0
   28.3049   37.1314    2.8151 C   0  0  2  0  0  0  0  0  0  0  0  0
   28.1355   38.3932    2.1847 O   0  0  0  0  0  0  0  0  0  0  0  0
   27.5427   31.2207    2.3425 C   0  0  2  0  0  0  0  0  0  0  0  0
   28.9619   31.2727    2.1195 O   0  0  0  0  0  0  0  0  0  0  0  0
   33.5932   40.8384    3.9086 C   0  0  2  0  0  0  0  0  0  0  0  0
   33.1538   40.0713    2.7220 O   0  0  0  0  0  0  0  0  0  0  0  0
   29.2754   40.6865    0.5688 C   0  0  2  0  0  0  0  0  0  0  0  0
   29.4326   39.2203    0.3700 O   0  0  0  0  0  0  0  0  0  0  0  0
   29.6468   37.1462    3.5325 C   0  0  0  0  0  0  0  0  0  0  0  0
   26.7563   31.7121    1.0601 C   0  0  1  0  0  0  0  0  0  0  0  0
   26.9517   33.1813    0.8141 O   0  0  0  0  0  0  0  0  0  0  0  0
   35.1048   41.1588    3.8457 C   0  0  0  0  0  0  0  0  0  0  0  0
   35.6007   42.0312    4.9262 N   0  0  0  0  0  0  0  0  0  0  0  0
   29.0150   41.3028   -0.8222 C   0  0  1  0  0  0  0  0  0  0  0  0
   27.8580   40.6940   -1.4048 O   0  0  0  0  0  0  0  0  0  0  0  0
   27.1003   30.8854   -0.2382 C   0  0  0  0  0  0  0  0  0  0  0  0
   28.4065   31.2020   -0.8992 N   0  0  0  0  0  0  0  0  0  0  0  0
  1  2  1  1  0  0  0
  1  7  1  0  0  0  0
  1 30  1  0  0  0  0
  3  4  1  6  0  0  0
  3  9  1  0  0  0  0
  3 38  1  0  0  0  0
  5 10  1  0  0  0  0
  5 26  1  1  0  0  0
  5 32  1  0  0  0  0
  6 12  1  0  0  0  0
  6 35  1  0  0  0  0
  6 19  1  6  0  0  0
  7  8  1  1  0  0  0
  7 14  1  0  0  0  0
  8 33  1  0  0  0  0
  9 16  1  0  0  0  0
 10 11  1  6  0  0  0
 10 18  1  0  0  0  0
 12 13  1  6  0  0  0
 12 20  1  0  0  0  0
 14 15  1  1  0  0  0
 14 22  1  0  0  0  0
 16 17  1  6  0  0  0
 16 24  1  0  0  0  0
 18 19  1  6  0  0  0
 18 25  1  0  0  0  0
 20 21  1  6  0  0  0
 20 27  1  0  0  0  0
 22 23  1  1  0  0  0
 22 29  1  0  0  0  0
 24  2  1  1  0  0  0
 24 31  1  0  0  0  0
 25 26  1  6  0  0  0
 25 33  1  0  0  0  0
 27 28  1  6  0  0  0
 27 34  1  0  0  0  0
 29 30  1  0  0  0  0
 29 36  1  6  0  0  0
 31 32  1  6  0  0  0
 31 38  1  0  0  0  0
 34 35  1  0  0  0  0
 34 40  1  6  0  0  0
 36 37  1  0  0  0  0
 38 39  1  1  0  0  0
 40 41  1  0  0  0  0
M  END
>  <CHROM.1>
131.08517098,42.36111005,-65.63005431,-76.98576025,29.61766752,37.83009630
2.09576889,-0.84920934,0.83125208,2.66378630

>  <Name>
ligand

>  <RI>
0

>  <Rbt.Current_Directory>
/home/itssahil/PROJECTS/Mol_Feturizer/New_Systems/rnas/1ZZ5

>  <Rbt.Executable>
rbdock ($Id: //depot/dev/client3/rdock/2013.1/src/exe/rbdock.cxx#4 $)

>  <Rbt.Library>
libRbt.so (2013.1, Build901 2013/11/27)

>  <Rbt.Parameter_File>
/export/apps/rDock/src/rDock_2013.1_src/data/scripts/dock_solv.prm

>  <Rbt.Receptor>
prm/blind_docking_60.prm

>  <SCORE>
34.5459

>  <SCORE.INTER>
9.14252

>  <SCORE.INTER.CONST>
1

>  <SCORE.INTER.POLAR>
0

>  <SCORE.INTER.ROT>
4

>  <SCORE.INTER.SOLV>
28.9794

>  <SCORE.INTER.VDW>
-9.83144

>  <SCORE.INTER.norm>
0.222988

>  <SCORE.INTRA>
4.89205

>  <SCORE.INTRA.DIHEDRAL>
4.05403

>  <SCORE.INTRA.DIHEDRAL.0>
5.18357

>  <SCORE.INTRA.POLAR>
0

>  <SCORE.INTRA.POLAR.0>
0

>  <SCORE.INTRA.REPUL>
0

>  <SCORE.INTRA.REPUL.0>
0

>  <SCORE.INTRA.SOLV>
4.07292

>  <SCORE.INTRA.SOLV.lig_0>
-109.973

>  <SCORE.INTRA.VDW>
0.828576

>  <SCORE.INTRA.VDW.0>
-1.68646

>  <SCORE.INTRA.norm>
0.119318

>  <SCORE.RESTR>
20.5114

>  <SCORE.RESTR.CAVITY>
20.5114

>  <SCORE.RESTR.norm>
0.500277

>  <SCORE.SYSTEM>
0

>  <SCORE.SYSTEM.CONST>
0

>  <SCORE.SYSTEM.DIHEDRAL>
0

>  <SCORE.SYSTEM.SOLV>
0

>  <SCORE.SYSTEM.norm>
0

>  <SCORE.heavy>
41

>  <SCORE.norm>
0.842584

>  <RMSD>
13.097

$$$$
ligand
 OpenBabel11021811423D
libRbt.so/2013.1/901 2013/11/27
 41 45  0  0  0  0  0  0  0  0999 V2000
   31.5834   39.5870    2.5692 C   0  0  2  0  0  0  0  0  0  0  0  0
   30.6800   40.6990    2.4148 O   0  0  0  0  0  0  0  0  0  0  0  0
   28.5267   42.4985   -0.9083 C   0  0  2  0  0  0  0  0  0  0  0  0
   28.2597   43.0655   -2.2553 N   0  0  0  0  0  0  0  0  0  0  0  0
   28.2310   38.0145    0.7290 C   0  0  1  0  0  0  0  0  0  0  0  0
   26.7684   33.7010    1.7213 C   0  0  1  0  0  0  0  0  0  0  0  0
   31.2793   38.7941    3.8755 C   0  0  2  0  0  0  0  0  0  0  0  0
   29.8812   38.3636    3.9705 N   0  0  0  0  0  0  0  0  0  0  0  0
   29.7357   43.2540   -0.2713 C   0  0  0  0  0  0  0  0  0  0  0  0
   28.5897   36.5366    0.4518 C   0  0  2  0  0  0  0  0  0  0  0  0
   27.8963   36.0253   -0.6912 O   0  0  0  0  0  0  0  0  0  0  0  0
   25.4967   33.2284    2.5468 C   0  0  2  0  0  0  0  0  0  0  0  0
   25.4308   33.7798    3.9348 N   0  0  0  0  0  0  0  0  0  0  0  0
   31.6585   39.6426    5.1191 C   0  0  1  0  0  0  0  0  0  0  0  0
   31.4041   38.9035    6.3107 O   0  0  0  0  0  0  0  0  0  0  0  0
   30.0677   42.6962    1.1431 C   0  0  2  0  0  0  0  0  0  0  0  0
   31.2078   43.4658    1.6758 N   0  0  0  0  0  0  0  0  0  0  0  0
   28.2251   35.7997    1.7519 C   0  0  2  0  0  0  0  0  0  0  0  0
   26.8846   35.1691    1.6836 O   0  0  0  0  0  0  0  0  0  0  0  0
   25.4464   31.6344    2.5973 C   0  0  1  0  0  0  0  0  0  0  0  0
   25.1907   31.0774    1.2892 O   0  0  0  0  0  0  0  0  0  0  0  0
   33.1479   40.0502    5.0381 C   0  0  2  0  0  0  0  0  0  0  0  0
   33.5046   40.8078    6.1751 O   0  0  0  0  0  0  0  0  0  0  0  0
   30.3661   41.1574    1.0582 C   0  0  2  0  0  0  0  0  0  0  0  0
   28.2783   36.8892    2.8192 C   0  0  2  0  0  0  0  0  0  0  0  0
   28.0540   38.1182    2.1428 O   0  0  0  0  0  0  0  0  0  0  0  0
   26.7877   31.0128    3.1594 C   0  0  2  0  0  0  0  0  0  0  0  0
   26.9234   31.3578    4.5483 O   0  0  0  0  0  0  0  0  0  0  0  0
   33.4095   40.8529    3.7481 C   0  0  2  0  0  0  0  0  0  0  0  0
   32.9990   40.0239    2.5932 O   0  0  0  0  0  0  0  0  0  0  0  0
   29.0915   40.3947    0.4367 C   0  0  2  0  0  0  0  0  0  0  0  0
   29.3095   38.9300    0.2923 O   0  0  0  0  0  0  0  0  0  0  0  0
   29.6205   36.9872    3.5292 C   0  0  0  0  0  0  0  0  0  0  0  0
   28.0194   31.5532    2.3256 C   0  0  1  0  0  0  0  0  0  0  0  0
   28.0251   33.0535    2.2465 O   0  0  0  0  0  0  0  0  0  0  0  0
   34.9062   41.2337    3.6661 C   0  0  0  0  0  0  0  0  0  0  0  0
   35.3954   42.0736    4.7749 N   0  0  0  0  0  0  0  0  0  0  0  0
   28.8010   40.9469   -0.9752 C   0  0  1  0  0  0  0  0  0  0  0  0
   27.6688   40.2686   -1.5290 O   0  0  0  0  0  0  0  0  0  0  0  0
   29.4093   31.0238    2.8503 C   0  0  0  0  0  0  0  0  0  0  0  0
   29.4235   29.6306    3.4000 N   0  0  0  0  0  0  0  0  0  0  0  0
  1  2  1  1  0  0  0
  1  7  1  0  0  0  0
  1 30  1  0  0  0  0
  3  4  1  6  0  0  0
  3  9  1  0  0  0  0
  3 38  1  0  0  0  0
  5 10  1  0  0  0  0
  5 26  1  1  0  0  0
  5 32  1  0  0  0  0
  6 12  1  0  0  0  0
  6 35  1  0  0  0  0
  6 19  1  1  0  0  0
  7  8  1  1  0  0  0
  7 14  1  0  0  0  0
  8 33  1  0  0  0  0
  9 16  1  0  0  0  0
 10 11  1  6  0  0  0
 10 18  1  0  0  0  0
 12 13  1  1  0  0  0
 12 20  1  0  0  0  0
 14 15  1  1  0  0  0
 14 22  1  0  0  0  0
 16 17  1  6  0  0  0
 16 24  1  0  0  0  0
 18 19  1  6  0  0  0
 18 25  1  0  0  0  0
 20 21  1  6  0  0  0
 20 27  1  0  0  0  0
 22 23  1  1  0  0  0
 22 29  1  0  0  0  0
 24  2  1  1  0  0  0
 24 31  1  0  0  0  0
 25 26  1  6  0  0  0
 25 33  1  0  0  0  0
 27 28  1  1  0  0  0
 27 34  1  0  0  0  0
 29 30  1  0  0  0  0
 29 36  1  6  0  0  0
 31 32  1  6  0  0  0
 31 38  1  0  0  0  0
 34 35  1  0  0  0  0
 34 40  1  1  0  0  0
 36 37  1  0  0  0  0
 38 39  1  1  0  0  0
 40 41  1  0  0  0  0
M  END
>  <CHROM.1>
114.25410442,142.74851635,-60.66903599,34.45503825,29.39824803,37.59276106
2.25064781,-0.92649434,0.74680577,2.63681096

>  <Name>
ligand

>  <RI>
0

>  <Rbt.Current_Directory>
/home/itssahil/PROJECTS/Mol_Feturizer/New_Systems/rnas/1ZZ5

>  <Rbt.Executable>
rbdock ($Id: //depot/dev/client3/rdock/2013.1/src/exe/rbdock.cxx#4 $)

>  <Rbt.Library>
libRbt.so (2013.1, Build901 2013/11/27)

>  <Rbt.Parameter_File>
/export/apps/rDock/src/rDock_2013.1_src/data/scripts/dock_solv.prm

>  <Rbt.Receptor>
prm/blind_docking_60.prm

>  <SCORE>
36.1349

>  <SCORE.INTER>
10.1538

>  <SCORE.INTER.CONST>
1

>  <SCORE.INTER.POLAR>
0

>  <SCORE.INTER.ROT>
4

>  <SCORE.INTER.SOLV>
26.2989

>  <SCORE.INTER.VDW>
-8.26373

>  <SCORE.INTER.norm>
0.247654

>  <SCORE.INTRA>
5.58081

>  <SCORE.INTRA.DIHEDRAL>
8.80319

>  <SCORE.INTRA.DIHEDRAL.0>
5.18357

>  <SCORE.INTRA.POLAR>
0

>  <SCORE.INTRA.POLAR.0>
0

>  <SCORE.INTRA.REPUL>
0

>  <SCORE.INTRA.REPUL.0>
0

>  <SCORE.INTRA.SOLV>
1.1011

>  <SCORE.INTRA.SOLV.lig_0>
-109.973

>  <SCORE.INTRA.VDW>
0.628661

>  <SCORE.INTRA.VDW.0>
-1.68646

>  <SCORE.INTRA.norm>
0.136117

>  <SCORE.RESTR>
20.4002

>  <SCORE.RESTR.CAVITY>
20.4002

>  <SCORE.RESTR.norm>
0.497567

>  <SCORE.SYSTEM>
0

>  <SCORE.SYSTEM.CONST>
0

>  <SCORE.SYSTEM.DIHEDRAL>
0

>  <SCORE.SYSTEM.SOLV>
0

>  <SCORE.SYSTEM.norm>
0

>  <SCORE.heavy>
41

>  <SCORE.norm>
0.881338

>  <RMSD>
13.294

$$$$
ligand
 OpenBabel11021811423D
libRbt.so/2013.1/901 2013/11/27
 41 45  0  0  0  0  0  0  0  0999 V2000
   31.5150   39.5825    2.6076 C   0  0  2  0  0  0  0  0  0  0  0  0
   30.5245   40.5885    2.3192 O   0  0  0  0  0  0  0  0  0  0  0  0
   28.2236   41.7520   -1.1836 C   0  0  2  0  0  0  0  0  0  0  0  0
   27.9079   42.1112   -2.5902 N   0  0  0  0  0  0  0  0  0  0  0  0
   28.2949   37.5172    1.0381 C   0  0  1  0  0  0  0  0  0  0  0  0
   27.0818   33.4815    3.1607 C   0  0  1  0  0  0  0  0  0  0  0  0
   31.2796   38.9492    4.0116 C   0  0  2  0  0  0  0  0  0  0  0  0
   29.9210   38.4254    4.1818 N   0  0  0  0  0  0  0  0  0  0  0  0
   29.3696   42.6793   -0.6691 C   0  0  0  0  0  0  0  0  0  0  0  0
   28.7708   36.0487    0.9546 C   0  0  2  0  0  0  0  0  0  0  0  0
   28.1176   35.3361   -0.1009 O   0  0  0  0  0  0  0  0  0  0  0  0
   28.4249   32.6358    3.1074 C   0  0  2  0  0  0  0  0  0  0  0  0
   28.8992   32.3305    1.7229 N   0  0  0  0  0  0  0  0  0  0  0  0
   31.5928   39.9835    5.1263 C   0  0  1  0  0  0  0  0  0  0  0  0
   31.4022   39.3920    6.4088 O   0  0  0  0  0  0  0  0  0  0  0  0
   29.7496   42.3433    0.8023 C   0  0  2  0  0  0  0  0  0  0  0  0
   30.8255   43.2652    1.2125 N   0  0  0  0  0  0  0  0  0  0  0  0
   28.4705   35.4652    2.3458 C   0  0  2  0  0  0  0  0  0  0  0  0
   27.1850   34.7265    2.3800 O   0  0  0  0  0  0  0  0  0  0  0  0
   28.2424   31.2786    3.9261 C   0  0  1  0  0  0  0  0  0  0  0  0
   28.0949   31.5362    5.3398 O   0  0  0  0  0  0  0  0  0  0  0  0
   33.0442   40.4936    4.9716 C   0  0  2  0  0  0  0  0  0  0  0  0
   33.3420   41.4221    5.9931 O   0  0  0  0  0  0  0  0  0  0  0  0
   30.1708   40.8355    0.9183 C   0  0  2  0  0  0  0  0  0  0  0  0
   28.4388   36.6881    3.2582 C   0  0  2  0  0  0  0  0  0  0  0  0
   28.1143   37.7941    2.4279 O   0  0  0  0  0  0  0  0  0  0  0  0
   26.9927   30.4460    3.4296 C   0  0  2  0  0  0  0  0  0  0  0  0
   27.2423   29.9673    2.0973 O   0  0  0  0  0  0  0  0  0  0  0  0
   33.2366   41.1354    3.5831 C   0  0  2  0  0  0  0  0  0  0  0  0
   32.8909   40.1298    2.5541 O   0  0  0  0  0  0  0  0  0  0  0  0
   28.9600   39.8980    0.4209 C   0  0  2  0  0  0  0  0  0  0  0  0
   29.2949   38.4490    0.4691 O   0  0  0  0  0  0  0  0  0  0  0  0
   29.7708   36.9862    3.9307 C   0  0  0  0  0  0  0  0  0  0  0  0
   25.6963   31.3529    3.4648 C   0  0  1  0  0  0  0  0  0  0  0  0
   25.9008   32.6479    2.7312 O   0  0  0  0  0  0  0  0  0  0  0  0
   34.6974   41.6196    3.4310 C   0  0  0  0  0  0  0  0  0  0  0  0
   35.1106   42.6597    4.3910 N   0  0  0  0  0  0  0  0  0  0  0  0
   28.6219   40.2320   -1.0478 C   0  0  1  0  0  0  0  0  0  0  0  0
   27.5465   39.3981   -1.4913 O   0  0  0  0  0  0  0  0  0  0  0  0
   24.4053   30.6176    2.9357 C   0  0  0  0  0  0  0  0  0  0  0  0
   24.0311   29.3480    3.6368 N   0  0  0  0  0  0  0  0  0  0  0  0
  1  2  1  1  0  0  0
  1  7  1  0  0  0  0
  1 30  1  0  0  0  0
  3  4  1  6  0  0  0
  3  9  1  0  0  0  0
  3 38  1  0  0  0  0
  5 10  1  0  0  0  0
  5 26  1  1  0  0  0
  5 32  1  0  0  0  0
  6 12  1  0  0  0  0
  6 35  1  0  0  0  0
  6 19  1  6  0  0  0
  7  8  1  6  0  0  0
  7 14  1  0  0  0  0
  8 33  1  0  0  0  0
  9 16  1  0  0  0  0
 10 11  1  6  0  0  0
 10 18  1  0  0  0  0
 12 13  1  6  0  0  0
 12 20  1  0  0  0  0
 14 15  1  1  0  0  0
 14 22  1  0  0  0  0
 16 17  1  6  0  0  0
 16 24  1  0  0  0  0
 18 19  1  6  0  0  0
 18 25  1  0  0  0  0
 20 21  1  1  0  0  0
 20 27  1  0  0  0  0
 22 23  1  1  0  0  0
 22 29  1  0  0  0  0
 24  2  1  1  0  0  0
 24 31  1  0  0  0  0
 25 26  1  6  0  0  0
 25 33  1  0  0  0  0
 27 28  1  6  0  0  0
 27 34  1  0  0  0  0
 29 30  1  0  0  0  0
 29 36  1  6  0  0  0
 31 32  1  6  0  0  0
 31 38  1  0  0  0  0
 34 35  1  0  0  0  0
 34 40  1  6  0  0  0
 36 37  1  0  0  0  0
 38 39  1  1  0  0  0
 40 41  1  0  0  0  0
M  END
>  <CHROM.1>
141.12088036,-35.97627299,-62.08367924,57.20485301,29.29561582,37.33067355
2.40454210,-0.87170010,0.80286743,2.52470764

>  <Name>
ligand

>  <RI>
0

>  <Rbt.Current_Directory>
/home/itssahil/PROJECTS/Mol_Feturizer/New_Systems/rnas/1ZZ5

>  <Rbt.Executable>
rbdock ($Id: //depot/dev/client3/rdock/2013.1/src/exe/rbdock.cxx#4 $)

>  <Rbt.Library>
libRbt.so (2013.1, Build901 2013/11/27)

>  <Rbt.Parameter_File>
/export/apps/rDock/src/rDock_2013.1_src/data/scripts/dock_solv.prm

>  <Rbt.Receptor>
prm/blind_docking_60.prm

>  <SCORE>
57.1904

>  <SCORE.INTER>
36.8016

>  <SCORE.INTER.CONST>
1

>  <SCORE.INTER.POLAR>
0

>  <SCORE.INTER.ROT>
4

>  <SCORE.INTER.SOLV>
27.6274

>  <SCORE.INTER.VDW>
9.0586

>  <SCORE.INTER.norm>
0.8976

>  <SCORE.INTRA>
2.92961

>  <SCORE.INTRA.DIHEDRAL>
2.67589

>  <SCORE.INTRA.DIHEDRAL.0>
5.18357

>  <SCORE.INTRA.POLAR>
0

>  <SCORE.INTRA.POLAR.0>
0

>  <SCORE.INTRA.REPUL>
0

>  <SCORE.INTRA.REPUL.0>
0

>  <SCORE.INTRA.SOLV>
1.70959

>  <SCORE.INTRA.SOLV.lig_0>
-109.973

>  <SCORE.INTRA.VDW>
0.736868

>  <SCORE.INTRA.VDW.0>
-1.68646

>  <SCORE.INTRA.norm>
0.0714539

>  <SCORE.RESTR>
17.4591

>  <SCORE.RESTR.CAVITY>
17.4591

>  <SCORE.RESTR.norm>
0.425833

>  <SCORE.SYSTEM>
0

>  <SCORE.SYSTEM.CONST>
0

>  <SCORE.SYSTEM.DIHEDRAL>
0

>  <SCORE.SYSTEM.SOLV>
0

>  <SCORE.SYSTEM.norm>
0

>  <SCORE.heavy>
41

>  <SCORE.norm>
1.39489

>  <RMSD>
13.333

$$$$
ligand
 OpenBabel11021811423D
libRbt.so/2013.1/901 2013/11/27
 41 45  0  0  0  0  0  0  0  0999 V2000
   31.4294   39.5186    2.5563 C   0  0  2  0  0  0  0  0  0  0  0  0
   30.4284   40.5073    2.2447 O   0  0  0  0  0  0  0  0  0  0  0  0
   28.1401   41.5863   -1.2932 C   0  0  2  0  0  0  0  0  0  0  0  0
   27.8308   41.9194   -2.7076 N   0  0  0  0  0  0  0  0  0  0  0  0
   28.2478   37.3881    0.9955 C   0  0  1  0  0  0  0  0  0  0  0  0
   27.0708   33.3685    3.1685 C   0  0  1  0  0  0  0  0  0  0  0  0
   31.1911   38.9045    3.9683 C   0  0  2  0  0  0  0  0  0  0  0  0
   29.8380   38.3662    4.1366 N   0  0  0  0  0  0  0  0  0  0  0  0
   29.2703   42.5361   -0.7848 C   0  0  0  0  0  0  0  0  0  0  0  0
   28.7428   35.9247    0.9387 C   0  0  2  0  0  0  0  0  0  0  0  0
   28.1068   35.1873   -0.1103 O   0  0  0  0  0  0  0  0  0  0  0  0
   28.4136   32.5228    3.1066 C   0  0  2  0  0  0  0  0  0  0  0  0
   28.8695   32.2024    1.7194 N   0  0  0  0  0  0  0  0  0  0  0  0
   31.4826   39.9600    5.0689 C   0  0  1  0  0  0  0  0  0  0  0  0
   31.2896   39.3863    6.3591 O   0  0  0  0  0  0  0  0  0  0  0  0
   29.6431   42.2281    0.6945 C   0  0  2  0  0  0  0  0  0  0  0  0
   30.7042   43.1700    1.0983 N   0  0  0  0  0  0  0  0  0  0  0  0
   28.4393   35.3592    2.3366 C   0  0  2  0  0  0  0  0  0  0  0  0
   27.1629   34.6049    2.3728 O   0  0  0  0  0  0  0  0  0  0  0  0
   28.2428   31.1747    3.9427 C   0  0  1  0  0  0  0  0  0  0  0  0
   28.1140   31.4479    5.3553 O   0  0  0  0  0  0  0  0  0  0  0  0
   32.9286   40.4861    4.9171 C   0  0  2  0  0  0  0  0  0  0  0  0
   33.2068   41.4342    5.9260 O   0  0  0  0  0  0  0  0  0  0  0  0
   30.0825   40.7278    0.8374 C   0  0  2  0  0  0  0  0  0  0  0  0
   28.3850   36.5958    3.2294 C   0  0  2  0  0  0  0  0  0  0  0  0
   28.0530   37.6844    2.3793 O   0  0  0  0  0  0  0  0  0  0  0  0
   26.9870   30.3361    3.4722 C   0  0  2  0  0  0  0  0  0  0  0  0
   27.2190   29.8428    2.1420 O   0  0  0  0  0  0  0  0  0  0  0  0
   33.1236   41.1084    3.5202 C   0  0  2  0  0  0  0  0  0  0  0  0
   32.7986   40.0825    2.5046 O   0  0  0  0  0  0  0  0  0  0  0  0
   28.8875   39.7672    0.3458 C   0  0  2  0  0  0  0  0  0  0  0  0
   29.2403   38.3236    0.4193 O   0  0  0  0  0  0  0  0  0  0  0  0
   29.7079   36.9214    3.9071 C   0  0  0  0  0  0  0  0  0  0  0  0
   25.6907   31.2428    3.5146 C   0  0  1  0  0  0  0  0  0  0  0  0
   25.8846   32.5298    2.7641 O   0  0  0  0  0  0  0  0  0  0  0  0
   34.5794   41.6088    3.3714 C   0  0  0  0  0  0  0  0  0  0  0  0
   35.5966   40.7639    4.0237 N   0  0  0  0  0  0  0  0  0  0  0  0
   28.5565   40.0739   -1.1304 C   0  0  1  0  0  0  0  0  0  0  0  0
   27.4952   39.2195   -1.5688 O   0  0  0  0  0  0  0  0  0  0  0  0
   24.3931   30.5012    3.0110 C   0  0  0  0  0  0  0  0  0  0  0  0
   24.0115   29.2563    3.7511 N   0  0  0  0  0  0  0  0  0  0  0  0
  1  2  1  1  0  0  0
  1  7  1  0  0  0  0
  1 30  1  0  0  0  0
  3  4  1  6  0  0  0
  3  9  1  0  0  0  0
  3 38  1  0  0  0  0
  5 10  1  0  0  0  0
  5 26  1  1  0  0  0
  5 32  1  0  0  0  0
  6 12  1  0  0  0  0
  6 35  1  0  0  0  0
  6 19  1  6  0  0  0
  7  8  1  6  0  0  0
  7 14  1  0  0  0  0
  8 33  1  0  0  0  0
  9 16  1  0  0  0  0
 10 11  1  6  0  0  0
 10 18  1  0  0  0  0
 12 13  1  6  0  0  0
 12 20  1  0  0  0  0
 14 15  1  1  0  0  0
 14 22  1  0  0  0  0
 16 17  1  6  0  0  0
 16 24  1  0  0  0  0
 18 19  1  6  0  0  0
 18 25  1  0  0  0  0
 20 21  1  1  0  0  0
 20 27  1  0  0  0  0
 22 23  1  1  0  0  0
 22 29  1  0  0  0  0
 24  2  1  1  0  0  0
 24 31  1  0  0  0  0
 25 26  1  6  0  0  0
 25 33  1  0  0  0  0
 27 28  1  6  0  0  0
 27 34  1  0  0  0  0
 29 30  1  0  0  0  0
 29 36  1  6  0  0  0
 31 32  1  6  0  0  0
 31 38  1  0  0  0  0
 34 35  1  0  0  0  0
 34 40  1  6  0  0  0
 36 37  1  0  0  0  0
 38 39  1  1  0  0  0
 40 41  1  0  0  0  0
M  END
>  <CHROM.1>
140.91162781,-37.27717483,36.44549175,58.55113798,29.24895221,37.19021203
2.36341426,-0.89331601,0.78783046,2.53021014

>  <Name>
ligand

>  <RI>
0

>  <Rbt.Current_Directory>
/home/itssahil/PROJECTS/Mol_Feturizer/New_Systems/rnas/1ZZ5

>  <Rbt.Executable>
rbdock ($Id: //depot/dev/client3/rdock/2013.1/src/exe/rbdock.cxx#4 $)

>  <Rbt.Library>
libRbt.so (2013.1, Build901 2013/11/27)

>  <Rbt.Parameter_File>
/export/apps/rDock/src/rDock_2013.1_src/data/scripts/dock_solv.prm

>  <Rbt.Receptor>
prm/blind_docking_60.prm

>  <SCORE>
59.4779

>  <SCORE.INTER>
38.2171

>  <SCORE.INTER.CONST>
1

>  <SCORE.INTER.POLAR>
0

>  <SCORE.INTER.ROT>
4

>  <SCORE.INTER.SOLV>
28.0513

>  <SCORE.INTER.VDW>
9.86096

>  <SCORE.INTER.norm>
0.932124

>  <SCORE.INTRA>
3.82877

>  <SCORE.INTRA.DIHEDRAL>
4.2137

>  <SCORE.INTRA.DIHEDRAL.0>
5.18357

>  <SCORE.INTRA.POLAR>
0

>  <SCORE.INTRA.POLAR.0>
0

>  <SCORE.INTRA.REPUL>
0

>  <SCORE.INTRA.REPUL.0>
0

>  <SCORE.INTRA.SOLV>
2.03952

>  <SCORE.INTRA.SOLV.lig_0>
-109.973

>  <SCORE.INTRA.VDW>
0.702158

>  <SCORE.INTRA.VDW.0>
-1.68646

>  <SCORE.INTRA.norm>
0.0933846

>  <SCORE.RESTR>
17.432

>  <SCORE.RESTR.CAVITY>
17.432

>  <SCORE.RESTR.norm>
0.425171

>  <SCORE.SYSTEM>
0

>  <SCORE.SYSTEM.CONST>
0

>  <SCORE.SYSTEM.DIHEDRAL>
0

>  <SCORE.SYSTEM.SOLV>
0

>  <SCORE.SYSTEM.norm>
0

>  <SCORE.heavy>
41

>  <SCORE.norm>
1.45068

>  <RMSD>
13.377

$$$$
ligand
 OpenBabel11021811423D
libRbt.so/2013.1/901 2013/11/27
 41 45  0  0  0  0  0  0  0  0999 V2000
   31.4320   39.5025    2.5565 C   0  0  2  0  0  0  0  0  0  0  0  0
   30.4356   40.4958    2.2452 O   0  0  0  0  0  0  0  0  0  0  0  0
   28.1526   41.5865   -1.2927 C   0  0  2  0  0  0  0  0  0  0  0  0
   27.8450   41.9214   -2.7070 N   0  0  0  0  0  0  0  0  0  0  0  0
   28.2411   37.3869    0.9944 C   0  0  1  0  0  0  0  0  0  0  0  0
   27.0371   33.3877    3.1887 C   0  0  1  0  0  0  0  0  0  0  0  0
   31.1908   38.8890    3.9682 C   0  0  2  0  0  0  0  0  0  0  0  0
   29.8352   38.3566    4.1361 N   0  0  0  0  0  0  0  0  0  0  0  0
   29.2870   42.5310   -0.7837 C   0  0  0  0  0  0  0  0  0  0  0  0
   28.7295   35.9213    0.9371 C   0  0  2  0  0  0  0  0  0  0  0  0
   28.0904   35.1872   -0.1123 O   0  0  0  0  0  0  0  0  0  0  0  0
   28.3622   32.5145    3.1252 C   0  0  2  0  0  0  0  0  0  0  0  0
   28.7943   32.1613    1.7383 N   0  0  0  0  0  0  0  0  0  0  0  0
   31.4869   39.9427    5.0693 C   0  0  1  0  0  0  0  0  0  0  0  0
   31.2911   39.3694    6.3592 O   0  0  0  0  0  0  0  0  0  0  0  0
   29.6582   42.2207    0.6955 C   0  0  2  0  0  0  0  0  0  0  0  0
   30.7234   43.1577    1.0997 N   0  0  0  0  0  0  0  0  0  0  0  0
   28.4232   35.3567    2.3348 C   0  0  2  0  0  0  0  0  0  0  0  0
   27.1435   34.6081    2.3705 O   0  0  0  0  0  0  0  0  0  0  0  0
   28.1754   31.1846    3.9865 C   0  0  1  0  0  0  0  0  0  0  0  0
   28.0697   31.4845    5.3957 O   0  0  0  0  0  0  0  0  0  0  0  0
   32.9353   40.4624    4.9179 C   0  0  2  0  0  0  0  0  0  0  0  0
   33.2176   41.4088    5.9272 O   0  0  0  0  0  0  0  0  0  0  0  0
   30.0908   40.7184    0.8379 C   0  0  2  0  0  0  0  0  0  0  0  0
   28.3744   36.5931    3.2281 C   0  0  2  0  0  0  0  0  0  0  0  0
   28.0474   37.6836    2.3784 O   0  0  0  0  0  0  0  0  0  0  0  0
   26.8976   30.3631    3.5461 C   0  0  2  0  0  0  0  0  0  0  0  0
   27.1033   29.8426    2.2220 O   0  0  0  0  0  0  0  0  0  0  0  0
   33.1332   41.0843    3.5212 C   0  0  2  0  0  0  0  0  0  0  0  0
   32.8038   40.0603    2.5052 O   0  0  0  0  0  0  0  0  0  0  0  0
   28.8916   39.7634    0.3457 C   0  0  2  0  0  0  0  0  0  0  0  0
   29.2379   38.3182    0.4188 O   0  0  0  0  0  0  0  0  0  0  0  0
   29.6987   36.9125    3.9060 C   0  0  0  0  0  0  0  0  0  0  0  0
   25.6200   31.2960    3.5885 C   0  0  1  0  0  0  0  0  0  0  0  0
   25.8297   32.5658    2.8134 O   0  0  0  0  0  0  0  0  0  0  0  0
   34.5912   41.5782    3.3728 C   0  0  0  0  0  0  0  0  0  0  0  0
   35.6035   40.7345    4.0344 N   0  0  0  0  0  0  0  0  0  0  0  0
   28.5622   40.0721   -1.1304 C   0  0  1  0  0  0  0  0  0  0  0  0
   27.4971   39.2226   -1.5693 O   0  0  0  0  0  0  0  0  0  0  0  0
   24.3019   30.5717    3.1137 C   0  0  0  0  0  0  0  0  0  0  0  0
   24.4145   29.7332    1.8778 N   0  0  0  0  0  0  0  0  0  0  0  0
  1  2  1  1  0  0  0
  1  7  1  0  0  0  0
  1 30  1  0  0  0  0
  3  4  1  6  0  0  0
  3  9  1  0  0  0  0
  3 38  1  0  0  0  0
  5 10  1  0  0  0  0
  5 26  1  1  0  0  0
  5 32  1  0  0  0  0
  6 12  1  0  0  0  0
  6 35  1  0  0  0  0
  6 19  1  6  0  0  0
  7  8  1  6  0  0  0
  7 14  1  0  0  0  0
  8 33  1  0  0  0  0
  9 16  1  0  0  0  0
 10 11  1  6  0  0  0
 10 18  1  0  0  0  0
 12 13  1  6  0  0  0
 12 20  1  0  0  0  0
 14 15  1  1  0  0  0
 14 22  1  0  0  0  0
 16 17  1  6  0  0  0
 16 24  1  0  0  0  0
 18 19  1  6  0  0  0
 18 25  1  0  0  0  0
 20 21  1  1  0  0  0
 20 27  1  0  0  0  0
 22 23  1  1  0  0  0
 22 29  1  0  0  0  0
 24  2  1  1  0  0  0
 24 31  1  0  0  0  0
 25 26  1  6  0  0  0
 25 33  1  0  0  0  0
 27 28  1  6  0  0  0
 27 34  1  0  0  0  0
 29 30  1  0  0  0  0
 29 36  1  6  0  0  0
 31 32  1  6  0  0  0
 31 38  1  0  0  0  0
 34 35  1  0  0  0  0
 34 40  1  6  0  0  0
 36 37  1  0  0  0  0
 38 39  1  1  0  0  0
 40 41  1  0  0  0  0
M  END
>  <CHROM.1>
142.21446441,-38.92745993,35.96254312,-44.41143886,29.24309996,37.19945201
2.33112583,-0.87687821,0.79234319,2.53565952

>  <Name>
ligand

>  <RI>
0

>  <Rbt.Current_Directory>
/home/itssahil/PROJECTS/Mol_Feturizer/New_Systems/rnas/1ZZ5

>  <Rbt.Executable>
rbdock ($Id: //depot/dev/client3/rdock/2013.1/src/exe/rbdock.cxx#4 $)

>  <Rbt.Library>
libRbt.so (2013.1, Build901 2013/11/27)

>  <Rbt.Parameter_File>
/export/apps/rDock/src/rDock_2013.1_src/data/scripts/dock_solv.prm

>  <Rbt.Receptor>
prm/blind_docking_60.prm

>  <SCORE>
60.5266

>  <SCORE.INTER>
37.7962

>  <SCORE.INTER.CONST>
1

>  <SCORE.INTER.POLAR>
0

>  <SCORE.INTER.ROT>
4

>  <SCORE.INTER.SOLV>
27.8447

>  <SCORE.INTER.VDW>
9.64921

>  <SCORE.INTER.norm>
0.921857

>  <SCORE.INTRA>
4.62884

>  <SCORE.INTRA.DIHEDRAL>
4.54319

>  <SCORE.INTRA.DIHEDRAL.0>
5.18357

>  <SCORE.INTRA.POLAR>
0

>  <SCORE.INTRA.POLAR.0>
0

>  <SCORE.INTRA.REPUL>
0

>  <SCORE.INTRA.REPUL.0>
0

>  <SCORE.INTRA.SOLV>
3.28943

>  <SCORE.INTRA.SOLV.lig_0>
-109.973

>  <SCORE.INTRA.VDW>
0.712528

>  <SCORE.INTRA.VDW.0>
-1.68646

>  <SCORE.INTRA.norm>
0.112899

>  <SCORE.RESTR>
18.1016

>  <SCORE.RESTR.CAVITY>
18.1016

>  <SCORE.RESTR.norm>
0.441502

>  <SCORE.SYSTEM>
0

>  <SCORE.SYSTEM.CONST>
0

>  <SCORE.SYSTEM.DIHEDRAL>
0

>  <SCORE.SYSTEM.SOLV>
0

>  <SCORE.SYSTEM.norm>
0

>  <SCORE.heavy>
41

>  <SCORE.norm>
1.47626

>  <RMSD>
13.378

$$$$
ligand
 OpenBabel11021811423D
libRbt.so/2013.1/901 2013/11/27
 41 45  0  0  0  0  0  0  0  0999 V2000
   31.2859   39.2438    2.3596 C   0  0  2  0  0  0  0  0  0  0  0  0
   30.3888   40.3302    2.0569 O   0  0  0  0  0  0  0  0  0  0  0  0
   28.3862   41.7852   -1.5194 C   0  0  2  0  0  0  0  0  0  0  0  0
   28.1798   42.2167   -2.9260 N   0  0  0  0  0  0  0  0  0  0  0  0
   28.0226   37.4802    0.5325 C   0  0  1  0  0  0  0  0  0  0  0  0
   26.4583   33.3715    2.2301 C   0  0  1  0  0  0  0  0  0  0  0  0
   30.9238   38.5802    3.7220 C   0  0  2  0  0  0  0  0  0  0  0  0
   29.5234   38.1528    3.7954 N   0  0  0  0  0  0  0  0  0  0  0  0
   29.5640   42.6060   -0.9054 C   0  0  0  0  0  0  0  0  0  0  0  0
   28.3955   35.9845    0.4172 C   0  0  2  0  0  0  0  0  0  0  0  0
   27.7554   35.3603   -0.7005 O   0  0  0  0  0  0  0  0  0  0  0  0
   27.4067   33.0907    3.4726 C   0  0  2  0  0  0  0  0  0  0  0  0
   28.8552   33.3452    3.2045 N   0  0  0  0  0  0  0  0  0  0  0  0
   31.2451   39.5479    4.8927 C   0  0  1  0  0  0  0  0  0  0  0  0
   30.9378   38.9269    6.1381 O   0  0  0  0  0  0  0  0  0  0  0  0
   29.8322   42.1906    0.5703 C   0  0  2  0  0  0  0  0  0  0  0  0
   30.9459   43.0149    1.0761 N   0  0  0  0  0  0  0  0  0  0  0  0
   27.9733   35.3756    1.7652 C   0  0  2  0  0  0  0  0  0  0  0  0
   26.6381   34.7336    1.6984 O   0  0  0  0  0  0  0  0  0  0  0  0
   27.2076   31.5901    3.9768 C   0  0  1  0  0  0  0  0  0  0  0  0
   25.8921   31.3983    4.5421 O   0  0  0  0  0  0  0  0  0  0  0  0
   32.7360   39.9542    4.8395 C   0  0  2  0  0  0  0  0  0  0  0  0
   33.0398   40.8211    5.9121 O   0  0  0  0  0  0  0  0  0  0  0  0
   30.1363   40.6525    0.6494 C   0  0  2  0  0  0  0  0  0  0  0  0
   27.9765   36.5642    2.7224 C   0  0  2  0  0  0  0  0  0  0  0  0
   27.7815   37.7201    1.9200 O   0  0  0  0  0  0  0  0  0  0  0  0
   27.4183   30.5376    2.8152 C   0  0  2  0  0  0  0  0  0  0  0  0
   28.7991   30.5444    2.4155 O   0  0  0  0  0  0  0  0  0  0  0  0
   33.0548   40.6290    3.4905 C   0  0  2  0  0  0  0  0  0  0  0  0
   32.6984   39.6892    2.4046 O   0  0  0  0  0  0  0  0  0  0  0  0
   28.8922   39.8256    0.0485 C   0  0  2  0  0  0  0  0  0  0  0  0
   29.1186   38.3551    0.0575 O   0  0  0  0  0  0  0  0  0  0  0  0
   29.2850   36.7385    3.4793 C   0  0  0  0  0  0  0  0  0  0  0  0
   26.4799   30.8945    1.5919 C   0  0  1  0  0  0  0  0  0  0  0  0
   26.6439   32.3244    1.1609 O   0  0  0  0  0  0  0  0  0  0  0  0
   34.5532   41.0087    3.4392 C   0  0  0  0  0  0  0  0  0  0  0  0
   35.4723   39.9843    3.9684 N   0  0  0  0  0  0  0  0  0  0  0  0
   28.6654   40.2360   -1.4222 C   0  0  1  0  0  0  0  0  0  0  0  0
   27.5604   39.5005   -1.9577 O   0  0  0  0  0  0  0  0  0  0  0  0
   26.6606   29.9239    0.3621 C   0  0  0  0  0  0  0  0  0  0  0  0
   28.0537   29.7785   -0.1686 N   0  0  0  0  0  0  0  0  0  0  0  0
  1  2  1  1  0  0  0
  1  7  1  0  0  0  0
  1 30  1  0  0  0  0
  3  4  1  6  0  0  0
  3  9  1  0  0  0  0
  3 38  1  0  0  0  0
  5 10  1  0  0  0  0
  5 26  1  1  0  0  0
  5 32  1  0  0  0  0
  6 12  1  0  0  0  0
  6 35  1  0  0  0  0
  6 19  1  6  0  0  0
  7  8  1  6  0  0  0
  7 14  1  0  0  0  0
  8 33  1  0  0  0  0
  9 16  1  0  0  0  0
 10 11  1  6  0  0  0
 10 18  1  0  0  0  0
 12 13  1  6  0  0  0
 12 20  1  0  0  0  0
 14 15  1  1  0  0  0
 14 22  1  0  0  0  0
 16 17  1  6  0  0  0
 16 24  1  0  0  0  0
 18 19  1  6  0  0  0
 18 25  1  0  0  0  0
 20 21  1  6  0  0  0
 20 27  1  0  0  0  0
 22 23  1  1  0  0  0
 22 29  1  0  0  0  0
 24  2  1  1  0  0  0
 24 31  1  0  0  0  0
 25 26  1  6  0  0  0
 25 33  1  0  0  0  0
 27 28  1  6  0  0  0
 27 34  1  0  0  0  0
 29 30  1  0  0  0  0
 29 36  1  1  0  0  0
 31 32  1  6  0  0  0
 31 38  1  0  0  0  0
 34 35  1  0  0  0  0
 34 40  1  6  0  0  0
 36 37  1  0  0  0  0
 38 39  1  1  0  0  0
 40 41  1  0  0  0  0
M  END
>  <CHROM.1>
131.06459532,32.48515891,42.33898118,-54.78121245,29.28128856,37.14694824
1.91346180,-0.89102263,0.86295369,2.57979847

>  <Name>
ligand

>  <RI>
0

>  <Rbt.Current_Directory>
/home/itssahil/PROJECTS/Mol_Feturizer/New_Systems/rnas/1ZZ5

>  <Rbt.Executable>
rbdock ($Id: //depot/dev/client3/rdock/2013.1/src/exe/rbdock.cxx#4 $)

>  <Rbt.Library>
libRbt.so (2013.1, Build901 2013/11/27)

>  <Rbt.Parameter_File>
/export/apps/rDock/src/rDock_2013.1_src/data/scripts/dock_solv.prm

>  <Rbt.Receptor>
prm/blind_docking_60.prm

>  <SCORE>
35.665

>  <SCORE.INTER>
9.6699

>  <SCORE.INTER.CONST>
1

>  <SCORE.INTER.POLAR>
0

>  <SCORE.INTER.ROT>
4

>  <SCORE.INTER.SOLV>
28.9384

>  <SCORE.INTER.VDW>
-9.46621

>  <SCORE.INTER.norm>
0.235851

>  <SCORE.INTRA>
6.46637

>  <SCORE.INTRA.DIHEDRAL>
5.76732

>  <SCORE.INTRA.DIHEDRAL.0>
5.18357

>  <SCORE.INTRA.POLAR>
0

>  <SCORE.INTRA.POLAR.0>
0

>  <SCORE.INTRA.REPUL>
0

>  <SCORE.INTRA.REPUL.0>
0

>  <SCORE.INTRA.SOLV>
4.51821

>  <SCORE.INTRA.SOLV.lig_0>
-109.973

>  <SCORE.INTRA.VDW>
1.3236

>  <SCORE.INTRA.VDW.0>
-1.68646

>  <SCORE.INTRA.norm>
0.157716

>  <SCORE.RESTR>
19.5287

>  <SCORE.RESTR.CAVITY>
19.5287

>  <SCORE.RESTR.norm>
0.476309

>  <SCORE.SYSTEM>
0

>  <SCORE.SYSTEM.CONST>
0

>  <SCORE.SYSTEM.DIHEDRAL>
0

>  <SCORE.SYSTEM.SOLV>
0

>  <SCORE.SYSTEM.norm>
0

>  <SCORE.heavy>
41

>  <SCORE.norm>
0.869877

>  <RMSD>
13.413

$$$$
ligand
 OpenBabel11021811423D
libRbt.so/2013.1/901 2013/11/27
 41 45  0  0  0  0  0  0  0  0999 V2000
   31.2657   39.2492    2.3541 C   0  0  2  0  0  0  0  0  0  0  0  0
   30.3648   40.3333    2.0544 O   0  0  0  0  0  0  0  0  0  0  0  0
   28.3497   41.7854   -1.5161 C   0  0  2  0  0  0  0  0  0  0  0  0
   28.1389   42.2175   -2.9218 N   0  0  0  0  0  0  0  0  0  0  0  0
   28.0033   37.4777    0.5330 C   0  0  1  0  0  0  0  0  0  0  0  0
   26.4551   33.3627    2.2299 C   0  0  1  0  0  0  0  0  0  0  0  0
   30.9087   38.5834    3.7168 C   0  0  2  0  0  0  0  0  0  0  0  0
   29.5097   38.1519    3.7930 N   0  0  0  0  0  0  0  0  0  0  0  0
   29.5265   42.6092   -0.9041 C   0  0  0  0  0  0  0  0  0  0  0  0
   28.3803   35.9831    0.4155 C   0  0  2  0  0  0  0  0  0  0  0  0
   27.7395   35.3580   -0.7013 O   0  0  0  0  0  0  0  0  0  0  0  0
   27.4023   33.0853    3.4741 C   0  0  2  0  0  0  0  0  0  0  0  0
   28.8501   33.3469    3.2092 N   0  0  0  0  0  0  0  0  0  0  0  0
   31.2298   39.5511    4.8876 C   0  0  1  0  0  0  0  0  0  0  0  0
   30.9272   38.9281    6.1331 O   0  0  0  0  0  0  0  0  0  0  0  0
   29.7993   42.1933    0.5706 C   0  0  2  0  0  0  0  0  0  0  0  0
   30.9118   43.0204    1.0746 N   0  0  0  0  0  0  0  0  0  0  0  0
   27.9630   35.3719    1.7640 C   0  0  2  0  0  0  0  0  0  0  0  0
   26.6295   34.7260    1.6997 O   0  0  0  0  0  0  0  0  0  0  0  0
   27.2092   31.5834    3.9767 C   0  0  1  0  0  0  0  0  0  0  0  0
   25.8934   31.3849    4.5390 O   0  0  0  0  0  0  0  0  0  0  0  0
   32.7194   39.9618    4.8312 C   0  0  2  0  0  0  0  0  0  0  0  0
   33.0231   40.8286    5.9039 O   0  0  0  0  0  0  0  0  0  0  0  0
   30.1081   40.6560    0.6477 C   0  0  2  0  0  0  0  0  0  0  0  0
   27.9649   36.5596    2.7222 C   0  0  2  0  0  0  0  0  0  0  0  0
   27.7647   37.7157    1.9212 O   0  0  0  0  0  0  0  0  0  0  0  0
   27.4273   30.5329    2.8146 C   0  0  2  0  0  0  0  0  0  0  0  0
   28.8089   30.5466    2.4178 O   0  0  0  0  0  0  0  0  0  0  0  0
   33.0332   40.6386    3.4821 C   0  0  2  0  0  0  0  0  0  0  0  0
   32.6769   39.6986    2.3962 O   0  0  0  0  0  0  0  0  0  0  0  0
   28.8650   39.8260    0.0489 C   0  0  2  0  0  0  0  0  0  0  0  0
   29.0957   38.3561    0.0562 O   0  0  0  0  0  0  0  0  0  0  0  0
   29.2746   36.7372    3.4762 C   0  0  0  0  0  0  0  0  0  0  0  0
   26.4898   30.8864    1.5897 C   0  0  1  0  0  0  0  0  0  0  0  0
   26.6479   32.3174    1.1602 O   0  0  0  0  0  0  0  0  0  0  0  0
   34.5303   41.0227    3.4277 C   0  0  0  0  0  0  0  0  0  0  0  0
   35.4516   40.0117    3.9784 N   0  0  0  0  0  0  0  0  0  0  0  0
   28.6336   40.2369   -1.4209 C   0  0  1  0  0  0  0  0  0  0  0  0
   27.5296   39.4987   -1.9545 O   0  0  0  0  0  0  0  0  0  0  0  0
   26.6777   29.9177    0.3594 C   0  0  0  0  0  0  0  0  0  0  0  0
   28.0785   29.7481   -0.1430 N   0  0  0  0  0  0  0  0  0  0  0  0
  1  2  1  1  0  0  0
  1  7  1  0  0  0  0
  1 30  1  0  0  0  0
  3  4  1  6  0  0  0
  3  9  1  0  0  0  0
  3 38  1  0  0  0  0
  5 10  1  0  0  0  0
  5 26  1  1  0  0  0
  5 32  1  0  0  0  0
  6 12  1  0  0  0  0
  6 35  1  0  0  0  0
  6 19  1  6  0  0  0
  7  8  1  6  0  0  0
  7 14  1  0  0  0  0
  8 33  1  0  0  0  0
  9 16  1  0  0  0  0
 10 11  1  6  0  0  0
 10 18  1  0  0  0  0
 12 13  1  6  0  0  0
 12 20  1  0  0  0  0
 14 15  1  1  0  0  0
 14 22  1  0  0  0  0
 16 17  1  6  0  0  0
 16 24  1  0  0  0  0
 18 19  1  6  0  0  0
 18 25  1  0  0  0  0
 20 21  1  6  0  0  0
 20 27  1  0  0  0  0
 22 23  1  1  0  0  0
 22 29  1  0  0  0  0
 24  2  1  1  0  0  0
 24 31  1  0  0  0  0
 25 26  1  6  0  0  0
 25 33  1  0  0  0  0
 27 28  1  6  0  0  0
 27 34  1  0  0  0  0
 29 30  1  0  0  0  0
 29 36  1  1  0  0  0
 31 32  1  6  0  0  0
 31 38  1  0  0  0  0
 34 35  1  0  0  0  0
 34 40  1  6  0  0  0
 36 37  1  0  0  0  0
 38 39  1  1  0  0  0
 40 41  1  0  0  0  0
M  END
>  <CHROM.1>
131.02717070,32.77388696,41.18221168,-53.04516081,29.26712020,37.14673858
1.91270484,-0.89785848,0.86247989,2.58555968

>  <Name>
ligand

>  <RI>
0

>  <Rbt.Current_Directory>
/home/itssahil/PROJECTS/Mol_Feturizer/New_Systems/rnas/1ZZ5

>  <Rbt.Executable>
rbdock ($Id: //depot/dev/client3/rdock/2013.1/src/exe/rbdock.cxx#4 $)

>  <Rbt.Library>
libRbt.so (2013.1, Build901 2013/11/27)

>  <Rbt.Parameter_File>
/export/apps/rDock/src/rDock_2013.1_src/data/scripts/dock_solv.prm

>  <Rbt.Receptor>
prm/blind_docking_60.prm

>  <SCORE>
35.467

>  <SCORE.INTER>
9.32626

>  <SCORE.INTER.CONST>
1

>  <SCORE.INTER.POLAR>
0

>  <SCORE.INTER.ROT>
4

>  <SCORE.INTER.SOLV>
28.7625

>  <SCORE.INTER.VDW>
-9.63666

>  <SCORE.INTER.norm>
0.22747

>  <SCORE.INTRA>
6.57617

>  <SCORE.INTRA.DIHEDRAL>
5.91805

>  <SCORE.INTRA.DIHEDRAL.0>
5.18357

>  <SCORE.INTRA.POLAR>
0

>  <SCORE.INTRA.POLAR.0>
0

>  <SCORE.INTRA.REPUL>
0

>  <SCORE.INTRA.REPUL.0>
0

>  <SCORE.INTRA.SOLV>
4.55002

>  <SCORE.INTRA.SOLV.lig_0>
-109.973

>  <SCORE.INTRA.VDW>
1.34213

>  <SCORE.INTRA.VDW.0>
-1.68646

>  <SCORE.INTRA.norm>
0.160394

>  <SCORE.RESTR>
19.5646

>  <SCORE.RESTR.CAVITY>
19.5646

>  <SCORE.RESTR.norm>
0.477184

>  <SCORE.SYSTEM>
0

>  <SCORE.SYSTEM.CONST>
0

>  <SCORE.SYSTEM.DIHEDRAL>
0

>  <SCORE.SYSTEM.SOLV>
0

>  <SCORE.SYSTEM.norm>
0

>  <SCORE.heavy>
41

>  <SCORE.norm>
0.865048

>  <RMSD>
13.418

$$$$
ligand
 OpenBabel11021811423D
libRbt.so/2013.1/901 2013/11/27
 41 45  0  0  0  0  0  0  0  0999 V2000
   31.2636   39.2918    2.3406 C   0  0  2  0  0  0  0  0  0  0  0  0
   30.3487   40.3650    2.0443 O   0  0  0  0  0  0  0  0  0  0  0  0
   28.3075   41.7965   -1.5197 C   0  0  2  0  0  0  0  0  0  0  0  0
   28.0881   42.2277   -2.9244 N   0  0  0  0  0  0  0  0  0  0  0  0
   28.0192   37.4823    0.5247 C   0  0  1  0  0  0  0  0  0  0  0  0
   26.5577   33.2962    2.0770 C   0  0  1  0  0  0  0  0  0  0  0  0
   30.9180   38.6199    3.7032 C   0  0  2  0  0  0  0  0  0  0  0  0
   29.5247   38.1711    3.7821 N   0  0  0  0  0  0  0  0  0  0  0  0
   29.4755   42.6340   -0.9094 C   0  0  0  0  0  0  0  0  0  0  0  0
   28.4144   35.9927    0.4045 C   0  0  2  0  0  0  0  0  0  0  0  0
   27.7788   35.3611   -0.7116 O   0  0  0  0  0  0  0  0  0  0  0  0
   27.3647   32.9711    3.4057 C   0  0  2  0  0  0  0  0  0  0  0  0
   28.8074   33.3594    3.3538 N   0  0  0  0  0  0  0  0  0  0  0  0
   31.2299   39.5901    4.8745 C   0  0  1  0  0  0  0  0  0  0  0  0
   30.9379   38.9619    6.1199 O   0  0  0  0  0  0  0  0  0  0  0  0
   29.7568   42.2197    0.5641 C   0  0  2  0  0  0  0  0  0  0  0  0
   30.8602   43.0599    1.0666 N   0  0  0  0  0  0  0  0  0  0  0  0
   28.0078   35.3746    1.7531 C   0  0  2  0  0  0  0  0  0  0  0  0
   26.6822   34.7124    1.6911 O   0  0  0  0  0  0  0  0  0  0  0  0
   27.2366   31.4185    3.7501 C   0  0  1  0  0  0  0  0  0  0  0  0
   25.8828   31.0742    4.1183 O   0  0  0  0  0  0  0  0  0  0  0  0
   32.7141   40.0192    4.8152 C   0  0  2  0  0  0  0  0  0  0  0  0
   33.0096   40.8884    5.8883 O   0  0  0  0  0  0  0  0  0  0  0  0
   30.0847   40.6863    0.6386 C   0  0  2  0  0  0  0  0  0  0  0  0
   27.9972   36.5612    2.7129 C   0  0  2  0  0  0  0  0  0  0  0  0
   27.7809   37.7156    1.9138 O   0  0  0  0  0  0  0  0  0  0  0  0
   27.6820   30.5007    2.5415 C   0  0  2  0  0  0  0  0  0  0  0  0
   29.0960   30.6505    2.3299 O   0  0  0  0  0  0  0  0  0  0  0  0
   33.0164   40.7016    3.4662 C   0  0  2  0  0  0  0  0  0  0  0  0
   32.6693   39.7586    2.3800 O   0  0  0  0  0  0  0  0  0  0  0  0
   28.8507   39.8417    0.0417 C   0  0  2  0  0  0  0  0  0  0  0  0
   29.0995   38.3748    0.0465 O   0  0  0  0  0  0  0  0  0  0  0  0
   29.3064   36.7540    3.4641 C   0  0  0  0  0  0  0  0  0  0  0  0
   26.8758   30.9002    1.2397 C   0  0  1  0  0  0  0  0  0  0  0  0
   26.9663   32.3729    0.9569 O   0  0  0  0  0  0  0  0  0  0  0  0
   34.5085   41.1042    3.4089 C   0  0  0  0  0  0  0  0  0  0  0  0
   34.9272   42.0848    4.4274 N   0  0  0  0  0  0  0  0  0  0  0  0
   28.6108   40.2516   -1.4271 C   0  0  1  0  0  0  0  0  0  0  0  0
   27.5148   39.5004   -1.9591 O   0  0  0  0  0  0  0  0  0  0  0  0
   27.2930   30.0678   -0.0333 C   0  0  0  0  0  0  0  0  0  0  0  0
   26.7219   30.5244   -1.3405 N   0  0  0  0  0  0  0  0  0  0  0  0
  1  2  1  1  0  0  0
  1  7  1  0  0  0  0
  1 30  1  0  0  0  0
  3  4  1  6  0  0  0
  3  9  1  0  0  0  0
  3 38  1  0  0  0  0
  5 10  1  0  0  0  0
  5 26  1  1  0  0  0
  5 32  1  0  0  0  0
  6 12  1  0  0  0  0
  6 35  1  0  0  0  0
  6 19  1  6  0  0  0
  7  8  1  6  0  0  0
  7 14  1  0  0  0  0
  8 33  1  0  0  0  0
  9 16  1  0  0  0  0
 10 11  1  6  0  0  0
 10 18  1  0  0  0  0
 12 13  1  6  0  0  0
 12 20  1  0  0  0  0
 14 15  1  1  0  0  0
 14 22  1  0  0  0  0
 16 17  1  6  0  0  0
 16 24  1  0  0  0  0
 18 19  1  6  0  0  0
 18 25  1  0  0  0  0
 20 21  1  6  0  0  0
 20 27  1  0  0  0  0
 22 23  1  1  0  0  0
 22 29  1  0  0  0  0
 24  2  1  1  0  0  0
 24 31  1  0  0  0  0
 25 26  1  6  0  0  0
 25 33  1  0  0  0  0
 27 28  1  6  0  0  0
 27 34  1  0  0  0  0
 29 30  1  0  0  0  0
 29 36  1  1  0  0  0
 31 32  1  6  0  0  0
 31 38  1  0  0  0  0
 34 35  1  0  0  0  0
 34 40  1  6  0  0  0
 36 37  1  0  0  0  0
 38 39  1  1  0  0  0
 40 41  1  0  0  0  0
M  END
>  <CHROM.1>
124.09861643,43.83479727,-62.33917576,-171.28420216,29.26650563,37.22521053
1.83760477,-0.85221635,0.90586530,2.57867325

>  <Name>
ligand

>  <RI>
0

>  <Rbt.Current_Directory>
/home/itssahil/PROJECTS/Mol_Feturizer/New_Systems/rnas/1ZZ5

>  <Rbt.Executable>
rbdock ($Id: //depot/dev/client3/rdock/2013.1/src/exe/rbdock.cxx#4 $)

>  <Rbt.Library>
libRbt.so (2013.1, Build901 2013/11/27)

>  <Rbt.Parameter_File>
/export/apps/rDock/src/rDock_2013.1_src/data/scripts/dock_solv.prm

>  <Rbt.Receptor>
prm/blind_docking_60.prm

>  <SCORE>
33.5696

>  <SCORE.INTER>
8.9459

>  <SCORE.INTER.CONST>
1

>  <SCORE.INTER.POLAR>
0

>  <SCORE.INTER.ROT>
4

>  <SCORE.INTER.SOLV>
26.5884

>  <SCORE.INTER.VDW>
-9.16555

>  <SCORE.INTER.norm>
0.218193

>  <SCORE.INTRA>
4.01799

>  <SCORE.INTRA.DIHEDRAL>
3.52236

>  <SCORE.INTRA.DIHEDRAL.0>
5.18357

>  <SCORE.INTRA.POLAR>
0

>  <SCORE.INTRA.POLAR.0>
0

>  <SCORE.INTRA.REPUL>
0

>  <SCORE.INTRA.REPUL.0>
0

>  <SCORE.INTRA.SOLV>
2.63007

>  <SCORE.INTRA.SOLV.lig_0>
-109.973

>  <SCORE.INTRA.VDW>
0.941776

>  <SCORE.INTRA.VDW.0>
-1.68646

>  <SCORE.INTRA.norm>
0.0979997

>  <SCORE.RESTR>
20.6058

>  <SCORE.RESTR.CAVITY>
20.6058

>  <SCORE.RESTR.norm>
0.50258

>  <SCORE.SYSTEM>
0

>  <SCORE.SYSTEM.CONST>
0

>  <SCORE.SYSTEM.DIHEDRAL>
0

>  <SCORE.SYSTEM.SOLV>
0

>  <SCORE.SYSTEM.norm>
0

>  <SCORE.heavy>
41

>  <SCORE.norm>
0.818772

>  <RMSD>
13.418

$$$$
ligand
 OpenBabel11021811423D
libRbt.so/2013.1/901 2013/11/27
 41 45  0  0  0  0  0  0  0  0999 V2000
   31.2604   39.2941    2.3382 C   0  0  2  0  0  0  0  0  0  0  0  0
   30.3453   40.3670    2.0414 O   0  0  0  0  0  0  0  0  0  0  0  0
   28.3068   41.7988   -1.5240 C   0  0  2  0  0  0  0  0  0  0  0  0
   28.0884   42.2303   -2.9288 N   0  0  0  0  0  0  0  0  0  0  0  0
   28.0182   37.4839    0.5189 C   0  0  1  0  0  0  0  0  0  0  0  0
   26.5565   33.2974    2.0708 C   0  0  1  0  0  0  0  0  0  0  0  0
   30.9138   38.6217    3.7003 C   0  0  2  0  0  0  0  0  0  0  0  0
   29.5206   38.1723    3.7779 N   0  0  0  0  0  0  0  0  0  0  0  0
   29.4739   42.6365   -0.9125 C   0  0  0  0  0  0  0  0  0  0  0  0
   28.4141   35.9944    0.3987 C   0  0  2  0  0  0  0  0  0  0  0  0
   27.7796   35.3629   -0.7181 O   0  0  0  0  0  0  0  0  0  0  0  0
   27.3618   32.9740    3.4009 C   0  0  2  0  0  0  0  0  0  0  0  0
   28.8045   33.3626    3.3505 N   0  0  0  0  0  0  0  0  0  0  0  0
   31.2243   39.5917    4.8721 C   0  0  1  0  0  0  0  0  0  0  0  0
   30.9314   38.9630    6.1171 O   0  0  0  0  0  0  0  0  0  0  0  0
   29.7541   42.2219    0.5612 C   0  0  2  0  0  0  0  0  0  0  0  0
   30.8567   43.0624    1.0649 N   0  0  0  0  0  0  0  0  0  0  0  0
   28.0065   35.3759    1.7468 C   0  0  2  0  0  0  0  0  0  0  0  0
   26.6812   34.7132    1.6834 O   0  0  0  0  0  0  0  0  0  0  0  0
   27.2336   31.4217    3.7469 C   0  0  1  0  0  0  0  0  0  0  0  0
   25.8794   31.0776    4.1136 O   0  0  0  0  0  0  0  0  0  0  0  0
   32.7085   40.0214    4.8143 C   0  0  2  0  0  0  0  0  0  0  0  0
   33.0026   40.8904    5.8879 O   0  0  0  0  0  0  0  0  0  0  0  0
   30.0825   40.6886    0.6356 C   0  0  2  0  0  0  0  0  0  0  0  0
   27.9946   36.5622    2.7069 C   0  0  2  0  0  0  0  0  0  0  0  0
   27.7786   37.7168    1.9079 O   0  0  0  0  0  0  0  0  0  0  0  0
   27.6808   30.5026    2.5399 C   0  0  2  0  0  0  0  0  0  0  0  0
   29.0950   30.6526    2.3300 O   0  0  0  0  0  0  0  0  0  0  0  0
   33.0117   40.7042    3.4658 C   0  0  2  0  0  0  0  0  0  0  0  0
   32.6659   39.7614    2.3790 O   0  0  0  0  0  0  0  0  0  0  0  0
   28.8493   39.8438    0.0373 C   0  0  2  0  0  0  0  0  0  0  0  0
   29.0986   38.3769    0.0420 O   0  0  0  0  0  0  0  0  0  0  0  0
   29.3031   36.7552    3.4593 C   0  0  0  0  0  0  0  0  0  0  0  0
   26.8763   30.9005    1.2366 C   0  0  1  0  0  0  0  0  0  0  0  0
   26.9668   32.3730    0.9522 O   0  0  0  0  0  0  0  0  0  0  0  0
   34.5037   41.1074    3.4099 C   0  0  0  0  0  0  0  0  0  0  0  0
   34.9202   42.0906    4.4267 N   0  0  0  0  0  0  0  0  0  0  0  0
   28.6105   40.2539   -1.4316 C   0  0  1  0  0  0  0  0  0  0  0  0
   27.5152   39.5024   -1.9647 O   0  0  0  0  0  0  0  0  0  0  0  0
   27.2954   30.0668   -0.0349 C   0  0  0  0  0  0  0  0  0  0  0  0
   26.7136   30.5123   -1.3412 N   0  0  0  0  0  0  0  0  0  0  0  0
  1  2  1  1  0  0  0
  1  7  1  0  0  0  0
  1 30  1  0  0  0  0
  3  4  1  6  0  0  0
  3  9  1  0  0  0  0
  3 38  1  0  0  0  0
  5 10  1  0  0  0  0
  5 26  1  1  0  0  0
  5 32  1  0  0  0  0
  6 12  1  0  0  0  0
  6 35  1  0  0  0  0
  6 19  1  6  0  0  0
  7  8  1  6  0  0  0
  7 14  1  0  0  0  0
  8 33  1  0  0  0  0
  9 16  1  0  0  0  0
 10 11  1  6  0  0  0
 10 18  1  0  0  0  0
 12 13  1  6  0  0  0
 12 20  1  0  0  0  0
 14 15  1  1  0  0  0
 14 22  1  0  0  0  0
 16 17  1  6  0  0  0
 16 24  1  0  0  0  0
 18 19  1  6  0  0  0
 18 25  1  0  0  0  0
 20 21  1  6  0  0  0
 20 27  1  0  0  0  0
 22 23  1  1  0  0  0
 22 29  1  0  0  0  0
 24  2  1  1  0  0  0
 24 31  1  0  0  0  0
 25 26  1  6  0  0  0
 25 33  1  0  0  0  0
 27 28  1  6  0  0  0
 27 34  1  0  0  0  0
 29 30  1  0  0  0  0
 29 36  1  1  0  0  0
 31 32  1  6  0  0  0
 31 38  1  0  0  0  0
 34 35  1  0  0  0  0
 34 40  1  6  0  0  0
 36 37  1  0  0  0  0
 38 39  1  1  0  0  0
 40 41  1  0  0  0  0
M  END
>  <CHROM.1>
124.18995826,43.81901234,-62.49939988,-171.95147591,29.26398558,37.22684270
1.83415905,-0.85206226,0.90660477,2.57837067

>  <Name>
ligand

>  <RI>
0

>  <Rbt.Current_Directory>
/home/itssahil/PROJECTS/Mol_Feturizer/New_Systems/rnas/1ZZ5

>  <Rbt.Executable>
rbdock ($Id: //depot/dev/client3/rdock/2013.1/src/exe/rbdock.cxx#4 $)

>  <Rbt.Library>
libRbt.so (2013.1, Build901 2013/11/27)

>  <Rbt.Parameter_File>
/export/apps/rDock/src/rDock_2013.1_src/data/scripts/dock_solv.prm

>  <Rbt.Receptor>
prm/blind_docking_60.prm

>  <SCORE>
33.3152

>  <SCORE.INTER>
8.65266

>  <SCORE.INTER.CONST>
1

>  <SCORE.INTER.POLAR>
0

>  <SCORE.INTER.ROT>
4

>  <SCORE.INTER.SOLV>
26.5428

>  <SCORE.INTER.VDW>
-9.34583

>  <SCORE.INTER.norm>
0.211041

>  <SCORE.INTRA>
3.99304

>  <SCORE.INTRA.DIHEDRAL>
3.48719

>  <SCORE.INTRA.DIHEDRAL.0>
5.18357

>  <SCORE.INTRA.POLAR>
0

>  <SCORE.INTRA.POLAR.0>
0

>  <SCORE.INTRA.REPUL>
0

>  <SCORE.INTRA.REPUL.0>
0

>  <SCORE.INTRA.SOLV>
2.61976

>  <SCORE.INTRA.SOLV.lig_0>
-109.973

>  <SCORE.INTRA.VDW>
0.939567

>  <SCORE.INTRA.VDW.0>
-1.68646

>  <SCORE.INTRA.norm>
0.0973913

>  <SCORE.RESTR>
20.6695

>  <SCORE.RESTR.CAVITY>
20.6695

>  <SCORE.RESTR.norm>
0.504135

>  <SCORE.SYSTEM>
0

>  <SCORE.SYSTEM.CONST>
0

>  <SCORE.SYSTEM.DIHEDRAL>
0

>  <SCORE.SYSTEM.SOLV>
0

>  <SCORE.SYSTEM.norm>
0

>  <SCORE.heavy>
41

>  <SCORE.norm>
0.812567

>  <RMSD>
13.421

$$$$
ligand
 OpenBabel11021811423D
libRbt.so/2013.1/901 2013/11/27
 41 45  0  0  0  0  0  0  0  0999 V2000
   31.2684   39.2974    2.3405 C   0  0  2  0  0  0  0  0  0  0  0  0
   30.3523   40.3721    2.0540 O   0  0  0  0  0  0  0  0  0  0  0  0
   28.2975   41.8245   -1.4936 C   0  0  2  0  0  0  0  0  0  0  0  0
   28.0727   42.2640   -2.8949 N   0  0  0  0  0  0  0  0  0  0  0  0
   28.0173   37.4983    0.5263 C   0  0  1  0  0  0  0  0  0  0  0  0
   26.5680   33.2940    2.0263 C   0  0  1  0  0  0  0  0  0  0  0  0
   30.9281   38.6174    3.7004 C   0  0  2  0  0  0  0  0  0  0  0  0
   29.5351   38.1679    3.7820 N   0  0  0  0  0  0  0  0  0  0  0  0
   29.4677   42.6585   -0.8828 C   0  0  0  0  0  0  0  0  0  0  0  0
   28.4121   36.0094    0.3958 C   0  0  2  0  0  0  0  0  0  0  0  0
   27.7723   35.3844   -0.7216 O   0  0  0  0  0  0  0  0  0  0  0  0
   27.3455   32.9425    3.3657 C   0  0  2  0  0  0  0  0  0  0  0  0
   28.7842   33.3486    3.3607 N   0  0  0  0  0  0  0  0  0  0  0  0
   31.2443   39.5806    4.8762 C   0  0  1  0  0  0  0  0  0  0  0  0
   30.9571   38.9450    6.1190 O   0  0  0  0  0  0  0  0  0  0  0  0
   29.7547   42.2355    0.5872 C   0  0  2  0  0  0  0  0  0  0  0  0
   30.8599   43.0729    1.0904 N   0  0  0  0  0  0  0  0  0  0  0  0
   28.0107   35.3834    1.7423 C   0  0  2  0  0  0  0  0  0  0  0  0
   26.6850   34.7214    1.6814 O   0  0  0  0  0  0  0  0  0  0  0  0
   27.2277   31.3799    3.6655 C   0  0  1  0  0  0  0  0  0  0  0  0
   25.8693   31.0104    3.9900 O   0  0  0  0  0  0  0  0  0  0  0  0
   32.7283   40.0102    4.8139 C   0  0  2  0  0  0  0  0  0  0  0  0
   33.0278   40.8731    5.8909 O   0  0  0  0  0  0  0  0  0  0  0  0
   30.0830   40.7017    0.6513 C   0  0  2  0  0  0  0  0  0  0  0  0
   28.0037   36.5642    2.7090 C   0  0  2  0  0  0  0  0  0  0  0  0
   27.7843   37.7234    1.9177 O   0  0  0  0  0  0  0  0  0  0  0  0
   27.7141   30.5000    2.4445 C   0  0  2  0  0  0  0  0  0  0  0  0
   29.1310   30.6716    2.2727 O   0  0  0  0  0  0  0  0  0  0  0  0
   33.0254   40.7006    3.4678 C   0  0  2  0  0  0  0  0  0  0  0  0
   32.6742   39.7640    2.3773 O   0  0  0  0  0  0  0  0  0  0  0  0
   28.8468   39.8606    0.0541 C   0  0  2  0  0  0  0  0  0  0  0  0
   29.0957   38.3937    0.0493 O   0  0  0  0  0  0  0  0  0  0  0  0
   29.3157   36.7527    3.4564 C   0  0  0  0  0  0  0  0  0  0  0  0
   26.9359   30.9251    1.1338 C   0  0  1  0  0  0  0  0  0  0  0  0
   27.0156   32.4059    0.8926 O   0  0  0  0  0  0  0  0  0  0  0  0
   34.5172   41.1037    3.4072 C   0  0  0  0  0  0  0  0  0  0  0  0
   34.9567   42.0221    4.4737 N   0  0  0  0  0  0  0  0  0  0  0  0
   28.6013   40.2791   -1.4113 C   0  0  1  0  0  0  0  0  0  0  0  0
   27.5032   39.5309   -1.9436 O   0  0  0  0  0  0  0  0  0  0  0  0
   27.3947   30.1321   -0.1499 C   0  0  0  0  0  0  0  0  0  0  0  0
   27.5531   28.6510    0.0071 N   0  0  0  0  0  0  0  0  0  0  0  0
  1  2  1  1  0  0  0
  1  7  1  0  0  0  0
  1 30  1  0  0  0  0
  3  4  1  6  0  0  0
  3  9  1  0  0  0  0
  3 38  1  0  0  0  0
  5 10  1  0  0  0  0
  5 26  1  1  0  0  0
  5 32  1  0  0  0  0
  6 12  1  0  0  0  0
  6 35  1  0  0  0  0
  6 19  1  6  0  0  0
  7  8  1  6  0  0  0
  7 14  1  0  0  0  0
  8 33  1  0  0  0  0
  9 16  1  0  0  0  0
 10 11  1  6  0  0  0
 10 18  1  0  0  0  0
 12 13  1  6  0  0  0
 12 20  1  0  0  0  0
 14 15  1  1  0  0  0
 14 22  1  0  0  0  0
 16 17  1  6  0  0  0
 16 24  1  0  0  0  0
 18 19  1  6  0  0  0
 18 25  1  0  0  0  0
 20 21  1  6  0  0  0
 20 27  1  0  0  0  0
 22 23  1  1  0  0  0
 22 29  1  0  0  0  0
 24  2  1  1  0  0  0
 24 31  1  0  0  0  0
 25 26  1  6  0  0  0
 25 33  1  0  0  0  0
 27 28  1  6  0  0  0
 27 34  1  0  0  0  0
 29 30  1  0  0  0  0
 29 36  1  1  0  0  0
 31 32  1  6  0  0  0
 31 38  1  0  0  0  0
 34 35  1  0  0  0  0
 34 40  1  6  0  0  0
 36 37  1  0  0  0  0
 38 39  1  1  0  0  0
 40 41  1  0  0  0  0
M  END
>  <CHROM.1>
122.54130174,46.26989846,-59.20210883,45.23959599,29.29448474,37.18500779
1.85676584,-0.90584923,0.89672851,2.62120005

>  <Name>
ligand

>  <RI>
0

>  <Rbt.Current_Directory>
/home/itssahil/PROJECTS/Mol_Feturizer/New_Systems/rnas/1ZZ5

>  <Rbt.Executable>
rbdock ($Id: //depot/dev/client3/rdock/2013.1/src/exe/rbdock.cxx#4 $)

>  <Rbt.Library>
libRbt.so (2013.1, Build901 2013/11/27)

>  <Rbt.Parameter_File>
/export/apps/rDock/src/rDock_2013.1_src/data/scripts/dock_solv.prm

>  <Rbt.Receptor>
prm/blind_docking_60.prm

>  <SCORE>
33.3426

>  <SCORE.INTER>
8.84233

>  <SCORE.INTER.CONST>
1

>  <SCORE.INTER.POLAR>
0

>  <SCORE.INTER.ROT>
4

>  <SCORE.INTER.SOLV>
26.4667

>  <SCORE.INTER.VDW>
-9.19401

>  <SCORE.INTER.norm>
0.215667

>  <SCORE.INTRA>
4.44197

>  <SCORE.INTRA.DIHEDRAL>
3.74593

>  <SCORE.INTRA.DIHEDRAL.0>
5.18357

>  <SCORE.INTRA.POLAR>
0

>  <SCORE.INTRA.POLAR.0>
0

>  <SCORE.INTRA.REPUL>
0

>  <SCORE.INTRA.REPUL.0>
0

>  <SCORE.INTRA.SOLV>
3.31591

>  <SCORE.INTRA.SOLV.lig_0>
-109.973

>  <SCORE.INTRA.VDW>
0.911054

>  <SCORE.INTRA.VDW.0>
-1.68646

>  <SCORE.INTRA.norm>
0.108341

>  <SCORE.RESTR>
20.0583

>  <SCORE.RESTR.CAVITY>
20.0583

>  <SCORE.RESTR.norm>
0.489227

>  <SCORE.SYSTEM>
0

>  <SCORE.SYSTEM.CONST>
0

>  <SCORE.SYSTEM.DIHEDRAL>
0

>  <SCORE.SYSTEM.SOLV>
0

>  <SCORE.SYSTEM.norm>
0

>  <SCORE.heavy>
41

>  <SCORE.norm>
0.813234

>  <RMSD>
13.425

$$$$
ligand
 OpenBabel11021811423D
libRbt.so/2013.1/901 2013/11/27
 41 45  0  0  0  0  0  0  0  0999 V2000
   31.2604   39.2422    2.3439 C   0  0  2  0  0  0  0  0  0  0  0  0
   30.3585   40.3254    2.0443 O   0  0  0  0  0  0  0  0  0  0  0  0
   28.3356   41.7712   -1.5243 C   0  0  2  0  0  0  0  0  0  0  0  0
   28.1217   42.2010   -2.9303 N   0  0  0  0  0  0  0  0  0  0  0  0
   27.9951   37.4666    0.5322 C   0  0  1  0  0  0  0  0  0  0  0  0
   26.4518   33.3539    2.2394 C   0  0  1  0  0  0  0  0  0  0  0  0
   30.9065   38.5783    3.7083 C   0  0  2  0  0  0  0  0  0  0  0  0
   29.5078   38.1465    3.7881 N   0  0  0  0  0  0  0  0  0  0  0  0
   29.5133   42.5963   -0.9161 C   0  0  0  0  0  0  0  0  0  0  0  0
   28.3724   35.9719    0.4163 C   0  0  2  0  0  0  0  0  0  0  0  0
   27.7295   35.3448   -0.6982 O   0  0  0  0  0  0  0  0  0  0  0  0
   27.4020   33.0791    3.4818 C   0  0  2  0  0  0  0  0  0  0  0  0
   28.8492   33.3403    3.2127 N   0  0  0  0  0  0  0  0  0  0  0  0
   31.2296   39.5480    4.8769 C   0  0  1  0  0  0  0  0  0  0  0  0
   30.9298   38.9269    6.1240 O   0  0  0  0  0  0  0  0  0  0  0  0
   29.7893   42.1828    0.5587 C   0  0  2  0  0  0  0  0  0  0  0  0
   30.9025   43.0112    1.0591 N   0  0  0  0  0  0  0  0  0  0  0  0
   27.9581   35.3626    1.7666 C   0  0  2  0  0  0  0  0  0  0  0  0
   26.6247   34.7162    1.7061 O   0  0  0  0  0  0  0  0  0  0  0  0
   27.2104   31.5781    3.9878 C   0  0  1  0  0  0  0  0  0  0  0  0
   25.8960   31.3807    4.5538 O   0  0  0  0  0  0  0  0  0  0  0  0
   32.7190   39.9592    4.8169 C   0  0  2  0  0  0  0  0  0  0  0  0
   33.0245   40.8278    5.8876 O   0  0  0  0  0  0  0  0  0  0  0  0
   30.0988   40.6459    0.6376 C   0  0  2  0  0  0  0  0  0  0  0  0
   27.9615   36.5519    2.7230 C   0  0  2  0  0  0  0  0  0  0  0  0
   27.7592   37.7066    1.9206 O   0  0  0  0  0  0  0  0  0  0  0  0
   27.4256   30.5253    2.8272 C   0  0  2  0  0  0  0  0  0  0  0  0
   28.8062   30.5383    2.4270 O   0  0  0  0  0  0  0  0  0  0  0  0
   33.0297   40.6340    3.4661 C   0  0  2  0  0  0  0  0  0  0  0  0
   32.6716   39.6922    2.3824 O   0  0  0  0  0  0  0  0  0  0  0  0
   28.8549   39.8145    0.0427 C   0  0  2  0  0  0  0  0  0  0  0  0
   29.0861   38.3446    0.0518 O   0  0  0  0  0  0  0  0  0  0  0  0
   29.2726   36.7312    3.4740 C   0  0  0  0  0  0  0  0  0  0  0  0
   26.4850   30.8763    1.6040 C   0  0  1  0  0  0  0  0  0  0  0  0
   26.6419   32.3065    1.1713 O   0  0  0  0  0  0  0  0  0  0  0  0
   34.5266   41.0186    3.4080 C   0  0  0  0  0  0  0  0  0  0  0  0
   34.9581   41.9920    4.4280 N   0  0  0  0  0  0  0  0  0  0  0  0
   28.6203   40.2230   -1.4273 C   0  0  1  0  0  0  0  0  0  0  0  0
   27.5155   39.4834   -1.9574 O   0  0  0  0  0  0  0  0  0  0  0  0
   26.6699   29.9052    0.3752 C   0  0  0  0  0  0  0  0  0  0  0  0
   28.0619   29.7731   -0.1619 N   0  0  0  0  0  0  0  0  0  0  0  0
  1  2  1  1  0  0  0
  1  7  1  0  0  0  0
  1 30  1  0  0  0  0
  3  4  1  6  0  0  0
  3  9  1  0  0  0  0
  3 38  1  0  0  0  0
  5 10  1  0  0  0  0
  5 26  1  1  0  0  0
  5 32  1  0  0  0  0
  6 12  1  0  0  0  0
  6 35  1  0  0  0  0
  6 19  1  6  0  0  0
  7  8  1  6  0  0  0
  7 14  1  0  0  0  0
  8 33  1  0  0  0  0
  9 16  1  0  0  0  0
 10 11  1  6  0  0  0
 10 18  1  0  0  0  0
 12 13  1  6  0  0  0
 12 20  1  0  0  0  0
 14 15  1  1  0  0  0
 14 22  1  0  0  0  0
 16 17  1  6  0  0  0
 16 24  1  0  0  0  0
 18 19  1  6  0  0  0
 18 25  1  0  0  0  0
 20 21  1  6  0  0  0
 20 27  1  0  0  0  0
 22 23  1  1  0  0  0
 22 29  1  0  0  0  0
 24  2  1  1  0  0  0
 24 31  1  0  0  0  0
 25 26  1  6  0  0  0
 25 33  1  0  0  0  0
 27 28  1  6  0  0  0
 27 34  1  0  0  0  0
 29 30  1  0  0  0  0
 29 36  1  1  0  0  0
 31 32  1  6  0  0  0
 31 38  1  0  0  0  0
 34 35  1  0  0  0  0
 34 40  1  6  0  0  0
 36 37  1  0  0  0  0
 38 39  1  1  0  0  0
 40 41  1  0  0  0  0
M  END
>  <CHROM.1>
131.05879120,32.72975082,-62.05722440,-55.18375996,29.24955831,37.18712406
1.92072241,-0.87385028,0.88706850,2.56461531

>  <Name>
ligand

>  <RI>
0

>  <Rbt.Current_Directory>
/home/itssahil/PROJECTS/Mol_Feturizer/New_Systems/rnas/1ZZ5

>  <Rbt.Executable>
rbdock ($Id: //depot/dev/client3/rdock/2013.1/src/exe/rbdock.cxx#4 $)

>  <Rbt.Library>
libRbt.so (2013.1, Build901 2013/11/27)

>  <Rbt.Parameter_File>
/export/apps/rDock/src/rDock_2013.1_src/data/scripts/dock_solv.prm

>  <Rbt.Receptor>
prm/blind_docking_60.prm

>  <SCORE>
33.6765

>  <SCORE.INTER>
8.26523

>  <SCORE.INTER.CONST>
1

>  <SCORE.INTER.POLAR>
0

>  <SCORE.INTER.ROT>
4

>  <SCORE.INTER.SOLV>
27.7401

>  <SCORE.INTER.VDW>
-10.0032

>  <SCORE.INTER.norm>
0.201591

>  <SCORE.INTRA>
5.84003

>  <SCORE.INTRA.DIHEDRAL>
4.67462

>  <SCORE.INTRA.DIHEDRAL.0>
5.18357

>  <SCORE.INTRA.POLAR>
0

>  <SCORE.INTRA.POLAR.0>
0

>  <SCORE.INTRA.REPUL>
0

>  <SCORE.INTRA.REPUL.0>
0

>  <SCORE.INTRA.SOLV>
4.21575

>  <SCORE.INTRA.SOLV.lig_0>
-109.973

>  <SCORE.INTRA.VDW>
1.39484

>  <SCORE.INTRA.VDW.0>
-1.68646

>  <SCORE.INTRA.norm>
0.14244

>  <SCORE.RESTR>
19.5712

>  <SCORE.RESTR.CAVITY>
19.5712

>  <SCORE.RESTR.norm>
0.477346

>  <SCORE.SYSTEM>
0

>  <SCORE.SYSTEM.CONST>
0

>  <SCORE.SYSTEM.DIHEDRAL>
0

>  <SCORE.SYSTEM.SOLV>
0

>  <SCORE.SYSTEM.norm>
0

>  <SCORE.heavy>
41

>  <SCORE.norm>
0.821377

>  <RMSD>
13.428

$$$$
ligand
 OpenBabel11021811423D
libRbt.so/2013.1/901 2013/11/27
 41 45  0  0  0  0  0  0  0  0999 V2000
   31.5785   39.3573    2.6401 C   0  0  2  0  0  0  0  0  0  0  0  0
   30.6920   40.4035    2.1974 O   0  0  0  0  0  0  0  0  0  0  0  0
   28.7312   41.4192   -1.5498 C   0  0  2  0  0  0  0  0  0  0  0  0
   28.5402   41.6755   -3.0007 N   0  0  0  0  0  0  0  0  0  0  0  0
   28.3187   37.4020    1.0128 C   0  0  1  0  0  0  0  0  0  0  0  0
   26.7971   33.3602    2.4333 C   0  0  1  0  0  0  0  0  0  0  0  0
   31.1998   38.8686    4.0703 C   0  0  2  0  0  0  0  0  0  0  0  0
   29.7958   38.4621    4.1823 N   0  0  0  0  0  0  0  0  0  0  0  0
   29.9094   42.3023   -1.0302 C   0  0  0  0  0  0  0  0  0  0  0  0
   28.6818   35.9011    1.0860 C   0  0  2  0  0  0  0  0  0  0  0  0
   28.0470   35.1480    0.0475 O   0  0  0  0  0  0  0  0  0  0  0  0
   25.2869   32.8733    2.4985 C   0  0  2  0  0  0  0  0  0  0  0  0
   24.5296   33.3899    3.6793 N   0  0  0  0  0  0  0  0  0  0  0  0
   31.5178   39.9712    5.1160 C   0  0  1  0  0  0  0  0  0  0  0  0
   31.1952   39.5101    6.4253 O   0  0  0  0  0  0  0  0  0  0  0  0
   30.1618   42.0700    0.4878 C   0  0  2  0  0  0  0  0  0  0  0  0
   31.2770   42.9436    0.8990 N   0  0  0  0  0  0  0  0  0  0  0  0
   28.2435   35.4655    2.4946 C   0  0  2  0  0  0  0  0  0  0  0  0
   26.9043   34.8282    2.4946 O   0  0  0  0  0  0  0  0  0  0  0  0
   25.2314   31.2789    2.4782 C   0  0  1  0  0  0  0  0  0  0  0  0
   25.6704   30.7562    1.2050 O   0  0  0  0  0  0  0  0  0  0  0  0
   33.0120   40.3588    5.0274 C   0  0  2  0  0  0  0  0  0  0  0  0
   33.3126   41.3493    5.9880 O   0  0  0  0  0  0  0  0  0  0  0  0
   30.4541   40.5516    0.7586 C   0  0  2  0  0  0  0  0  0  0  0  0
   28.2468   36.7628    3.2983 C   0  0  2  0  0  0  0  0  0  0  0  0
   28.0672   37.8123    2.3579 O   0  0  0  0  0  0  0  0  0  0  0  0
   26.1155   30.6366    3.6216 C   0  0  2  0  0  0  0  0  0  0  0  0
   25.5338   30.9459    4.8993 O   0  0  0  0  0  0  0  0  0  0  0  0
   33.3474   40.8604    3.6087 C   0  0  2  0  0  0  0  0  0  0  0  0
   32.9937   39.7962    2.6434 O   0  0  0  0  0  0  0  0  0  0  0  0
   29.2094   39.6646    0.2521 C   0  0  2  0  0  0  0  0  0  0  0  0
   29.4251   38.2050    0.4442 O   0  0  0  0  0  0  0  0  0  0  0  0
   29.5499   37.0211    4.0404 C   0  0  0  0  0  0  0  0  0  0  0  0
   27.5946   31.1918    3.5310 C   0  0  1  0  0  0  0  0  0  0  0  0
   27.6266   32.6935    3.5018 O   0  0  0  0  0  0  0  0  0  0  0  0
   34.8489   41.2218    3.5254 C   0  0  0  0  0  0  0  0  0  0  0  0
   35.2903   42.2651    4.4693 N   0  0  0  0  0  0  0  0  0  0  0  0
   28.9984   39.8921   -1.2600 C   0  0  1  0  0  0  0  0  0  0  0  0
   27.8929   39.1030   -1.7114 O   0  0  0  0  0  0  0  0  0  0  0  0
   28.5387   30.6424    4.6687 C   0  0  0  0  0  0  0  0  0  0  0  0
   28.7767   29.1637    4.6762 N   0  0  0  0  0  0  0  0  0  0  0  0
  1  2  1  1  0  0  0
  1  7  1  0  0  0  0
  1 30  1  0  0  0  0
  3  4  1  6  0  0  0
  3  9  1  0  0  0  0
  3 38  1  0  0  0  0
  5 10  1  0  0  0  0
  5 26  1  1  0  0  0
  5 32  1  0  0  0  0
  6 12  1  0  0  0  0
  6 35  1  0  0  0  0
  6 19  1  1  0  0  0
  7  8  1  6  0  0  0
  7 14  1  0  0  0  0
  8 33  1  0  0  0  0
  9 16  1  0  0  0  0
 10 11  1  6  0  0  0
 10 18  1  0  0  0  0
 12 13  1  1  0  0  0
 12 20  1  0  0  0  0
 14 15  1  1  0  0  0
 14 22  1  0  0  0  0
 16 17  1  6  0  0  0
 16 24  1  0  0  0  0
 18 19  1  6  0  0  0
 18 25  1  0  0  0  0
 20 21  1  6  0  0  0
 20 27  1  0  0  0  0
 22 23  1  1  0  0  0
 22 29  1  0  0  0  0
 24  2  1  1  0  0  0
 24 31  1  0  0  0  0
 25 26  1  6  0  0  0
 25 33  1  0  0  0  0
 27 28  1  1  0  0  0
 27 34  1  0  0  0  0
 29 30  1  0  0  0  0
 29 36  1  1  0  0  0
 31 32  1  6  0  0  0
 31 38  1  0  0  0  0
 34 35  1  0  0  0  0
 34 40  1  1  0  0  0
 36 37  1  0  0  0  0
 38 39  1  1  0  0  0
 40 41  1  0  0  0  0
M  END
>  <CHROM.1>
95.54289300,177.85662525,-59.32099362,63.03640734,29.28860998,37.23430294
2.40804904,-0.79892480,0.81047087,2.42038548

>  <Name>
ligand

>  <RI>
0

>  <Rbt.Current_Directory>
/home/itssahil/PROJECTS/Mol_Feturizer/New_Systems/rnas/1ZZ5

>  <Rbt.Executable>
rbdock ($Id: //depot/dev/client3/rdock/2013.1/src/exe/rbdock.cxx#4 $)

>  <Rbt.Library>
libRbt.so (2013.1, Build901 2013/11/27)

>  <Rbt.Parameter_File>
/export/apps/rDock/src/rDock_2013.1_src/data/scripts/dock_solv.prm

>  <Rbt.Receptor>
prm/blind_docking_60.prm

>  <SCORE>
53.8942

>  <SCORE.INTER>
34.5758

>  <SCORE.INTER.CONST>
1

>  <SCORE.INTER.POLAR>
0

>  <SCORE.INTER.ROT>
4

>  <SCORE.INTER.SOLV>
29.2666

>  <SCORE.INTER.VDW>
7.02837

>  <SCORE.INTER.norm>
0.843313

>  <SCORE.INTRA>
0.398083

>  <SCORE.INTRA.DIHEDRAL>
-0.329517

>  <SCORE.INTRA.DIHEDRAL.0>
5.18357

>  <SCORE.INTRA.POLAR>
0

>  <SCORE.INTRA.POLAR.0>
0

>  <SCORE.INTRA.REPUL>
0

>  <SCORE.INTRA.REPUL.0>
0

>  <SCORE.INTRA.SOLV>
0.145237

>  <SCORE.INTRA.SOLV.lig_0>
-109.973

>  <SCORE.INTRA.VDW>
0.490223

>  <SCORE.INTRA.VDW.0>
-1.68646

>  <SCORE.INTRA.norm>
0.00970934

>  <SCORE.RESTR>
18.9203

>  <SCORE.RESTR.CAVITY>
18.9203

>  <SCORE.RESTR.norm>
0.46147

>  <SCORE.SYSTEM>
0

>  <SCORE.SYSTEM.CONST>
0

>  <SCORE.SYSTEM.DIHEDRAL>
0

>  <SCORE.SYSTEM.SOLV>
0

>  <SCORE.SYSTEM.norm>
0

>  <SCORE.heavy>
41

>  <SCORE.norm>
1.31449

>  <RMSD>
13.431

$$$$
ligand
 OpenBabel11021811423D
libRbt.so/2013.1/901 2013/11/27
 41 45  0  0  0  0  0  0  0  0999 V2000
   31.3532   39.2209    2.3767 C   0  0  2  0  0  0  0  0  0  0  0  0
   30.4822   40.3220    2.0521 O   0  0  0  0  0  0  0  0  0  0  0  0
   28.5629   41.7876   -1.5654 C   0  0  2  0  0  0  0  0  0  0  0  0
   28.3865   42.2120   -2.9782 N   0  0  0  0  0  0  0  0  0  0  0  0
   28.0844   37.5066    0.5128 C   0  0  1  0  0  0  0  0  0  0  0  0
   26.4876   33.3367    1.8178 C   0  0  1  0  0  0  0  0  0  0  0  0
   30.9576   38.5749    3.7383 C   0  0  2  0  0  0  0  0  0  0  0  0
   29.5482   38.1753    3.7933 N   0  0  0  0  0  0  0  0  0  0  0  0
   29.7470   42.5902   -0.9395 C   0  0  0  0  0  0  0  0  0  0  0  0
   28.4299   36.0030    0.4145 C   0  0  2  0  0  0  0  0  0  0  0  0
   27.7949   35.3826   -0.7083 O   0  0  0  0  0  0  0  0  0  0  0  0
   25.2194   32.9454    2.6898 C   0  0  2  0  0  0  0  0  0  0  0  0
   25.1824   33.5918    4.0373 N   0  0  0  0  0  0  0  0  0  0  0  0
   31.2797   39.5454    4.9065 C   0  0  1  0  0  0  0  0  0  0  0  0
   30.9415   38.9401    6.1516 O   0  0  0  0  0  0  0  0  0  0  0  0
   29.9846   42.1812    0.5432 C   0  0  2  0  0  0  0  0  0  0  0  0
   31.1063   42.9877    1.0599 N   0  0  0  0  0  0  0  0  0  0  0  0
   27.9754   35.4129    1.7603 C   0  0  2  0  0  0  0  0  0  0  0  0
   26.6292   34.7963    1.6778 O   0  0  0  0  0  0  0  0  0  0  0  0
   25.1416   31.3599    2.8504 C   0  0  1  0  0  0  0  0  0  0  0  0
   24.8580   30.7194    1.5870 O   0  0  0  0  0  0  0  0  0  0  0  0
   32.7789   39.9224    4.8732 C   0  0  2  0  0  0  0  0  0  0  0  0
   33.0831   40.7915    5.9438 O   0  0  0  0  0  0  0  0  0  0  0  0
   30.2574   40.6382    0.6385 C   0  0  2  0  0  0  0  0  0  0  0  0
   27.9871   36.6086    2.7086 C   0  0  2  0  0  0  0  0  0  0  0  0
   27.8269   37.7618    1.8946 O   0  0  0  0  0  0  0  0  0  0  0  0
   26.4794   30.7534    3.4369 C   0  0  2  0  0  0  0  0  0  0  0  0
   26.6403   31.1902    4.7970 O   0  0  0  0  0  0  0  0  0  0  0  0
   33.1314   40.5803    3.5243 C   0  0  2  0  0  0  0  0  0  0  0  0
   32.7732   39.6391    2.4401 O   0  0  0  0  0  0  0  0  0  0  0  0
   29.0068   39.8309    0.0247 C   0  0  2  0  0  0  0  0  0  0  0  0
   29.2044   38.3563    0.0482 O   0  0  0  0  0  0  0  0  0  0  0  0
   29.2871   36.7635    3.4841 C   0  0  0  0  0  0  0  0  0  0  0  0
   27.7088   31.2125    2.5525 C   0  0  1  0  0  0  0  0  0  0  0  0
   27.7398   32.7035    2.3704 O   0  0  0  0  0  0  0  0  0  0  0  0
   34.6374   40.9305    3.4932 C   0  0  0  0  0  0  0  0  0  0  0  0
   35.5307   39.8793    4.0139 N   0  0  0  0  0  0  0  0  0  0  0  0
   28.8105   40.2340   -1.4523 C   0  0  1  0  0  0  0  0  0  0  0  0
   27.6997   39.5159   -1.9993 O   0  0  0  0  0  0  0  0  0  0  0  0
   29.0963   30.6946    3.0948 C   0  0  0  0  0  0  0  0  0  0  0  0
   29.1584   29.2495    3.4838 N   0  0  0  0  0  0  0  0  0  0  0  0
  1  2  1  1  0  0  0
  1  7  1  0  0  0  0
  1 30  1  0  0  0  0
  3  4  1  6  0  0  0
  3  9  1  0  0  0  0
  3 38  1  0  0  0  0
  5 10  1  0  0  0  0
  5 26  1  1  0  0  0
  5 32  1  0  0  0  0
  6 12  1  0  0  0  0
  6 35  1  0  0  0  0
  6 19  1  1  0  0  0
  7  8  1  6  0  0  0
  7 14  1  0  0  0  0
  8 33  1  0  0  0  0
  9 16  1  0  0  0  0
 10 11  1  6  0  0  0
 10 18  1  0  0  0  0
 12 13  1  1  0  0  0
 12 20  1  0  0  0  0
 14 15  1  1  0  0  0
 14 22  1  0  0  0  0
 16 17  1  6  0  0  0
 16 24  1  0  0  0  0
 18 19  1  6  0  0  0
 18 25  1  0  0  0  0
 20 21  1  6  0  0  0
 20 27  1  0  0  0  0
 22 23  1  1  0  0  0
 22 29  1  0  0  0  0
 24  2  1  1  0  0  0
 24 31  1  0  0  0  0
 25 26  1  6  0  0  0
 25 33  1  0  0  0  0
 27 28  1  1  0  0  0
 27 34  1  0  0  0  0
 29 30  1  0  0  0  0
 29 36  1  1  0  0  0
 31 32  1  6  0  0  0
 31 38  1  0  0  0  0
 34 35  1  0  0  0  0
 34 40  1  1  0  0  0
 36 37  1  0  0  0  0
 38 39  1  1  0  0  0
 40 41  1  0  0  0  0
M  END
>  <CHROM.1>
112.23220708,139.40469957,43.76057550,46.37771796,29.18768449,37.16850452
2.08672298,-0.89347994,0.76495657,2.52747412

>  <Name>
ligand

>  <RI>
0

>  <Rbt.Current_Directory>
/home/itssahil/PROJECTS/Mol_Feturizer/New_Systems/rnas/1ZZ5

>  <Rbt.Executable>
rbdock ($Id: //depot/dev/client3/rdock/2013.1/src/exe/rbdock.cxx#4 $)

>  <Rbt.Library>
libRbt.so (2013.1, Build901 2013/11/27)

>  <Rbt.Parameter_File>
/export/apps/rDock/src/rDock_2013.1_src/data/scripts/dock_solv.prm

>  <Rbt.Receptor>
prm/blind_docking_60.prm

>  <SCORE>
34.2282

>  <SCORE.INTER>
7.61454

>  <SCORE.INTER.CONST>
1

>  <SCORE.INTER.POLAR>
0

>  <SCORE.INTER.ROT>
4

>  <SCORE.INTER.SOLV>
27.3687

>  <SCORE.INTER.VDW>
-10.3132

>  <SCORE.INTER.norm>
0.185721

>  <SCORE.INTRA>
5.45153

>  <SCORE.INTRA.DIHEDRAL>
8.77124

>  <SCORE.INTRA.DIHEDRAL.0>
5.18357

>  <SCORE.INTRA.POLAR>
0

>  <SCORE.INTRA.POLAR.0>
0

>  <SCORE.INTRA.REPUL>
0

>  <SCORE.INTRA.REPUL.0>
0

>  <SCORE.INTRA.SOLV>
1.14178

>  <SCORE.INTRA.SOLV.lig_0>
-109.973

>  <SCORE.INTRA.VDW>
0.49502

>  <SCORE.INTRA.VDW.0>
-1.68646

>  <SCORE.INTRA.norm>
0.132964

>  <SCORE.RESTR>
21.1621

>  <SCORE.RESTR.CAVITY>
21.1621

>  <SCORE.RESTR.norm>
0.516149

>  <SCORE.SYSTEM>
0

>  <SCORE.SYSTEM.CONST>
0

>  <SCORE.SYSTEM.DIHEDRAL>
0

>  <SCORE.SYSTEM.SOLV>
0

>  <SCORE.SYSTEM.norm>
0

>  <SCORE.heavy>
41

>  <SCORE.norm>
0.834834

>  <RMSD>
13.536

$$$$
ligand
 OpenBabel11021811423D
libRbt.so/2013.1/901 2013/11/27
 41 45  0  0  0  0  0  0  0  0999 V2000
   31.3118   39.2286    2.3644 C   0  0  2  0  0  0  0  0  0  0  0  0
   30.4224   40.3153    2.0410 O   0  0  0  0  0  0  0  0  0  0  0  0
   28.4583   41.7369   -1.5699 C   0  0  2  0  0  0  0  0  0  0  0  0
   28.2664   42.1528   -2.9832 N   0  0  0  0  0  0  0  0  0  0  0  0
   28.0569   37.4581    0.5290 C   0  0  1  0  0  0  0  0  0  0  0  0
   26.5346   33.2668    1.8223 C   0  0  1  0  0  0  0  0  0  0  0  0
   30.9346   38.5826    3.7312 C   0  0  2  0  0  0  0  0  0  0  0  0
   29.5317   38.1624    3.7971 N   0  0  0  0  0  0  0  0  0  0  0  0
   29.6343   42.5597   -0.9551 C   0  0  0  0  0  0  0  0  0  0  0  0
   28.4240   35.9594    0.4346 C   0  0  2  0  0  0  0  0  0  0  0  0
   27.7911   35.3250   -0.6814 O   0  0  0  0  0  0  0  0  0  0  0  0
   25.2639   32.8332    2.6705 C   0  0  2  0  0  0  0  0  0  0  0  0
   25.1986   33.4501    4.0307 N   0  0  0  0  0  0  0  0  0  0  0  0
   31.2499   39.5626    4.8933 C   0  0  1  0  0  0  0  0  0  0  0  0
   30.9287   38.9577    6.1431 O   0  0  0  0  0  0  0  0  0  0  0  0
   29.8875   42.1605    0.5277 C   0  0  2  0  0  0  0  0  0  0  0  0
   31.0004   42.9858    1.0338 N   0  0  0  0  0  0  0  0  0  0  0  0
   27.9871   35.3683    1.7858 C   0  0  2  0  0  0  0  0  0  0  0  0
   26.6496   34.7315    1.7146 O   0  0  0  0  0  0  0  0  0  0  0  0
   25.2148   31.2434    2.7969 C   0  0  1  0  0  0  0  0  0  0  0  0
   24.9585   30.6245    1.5171 O   0  0  0  0  0  0  0  0  0  0  0  0
   32.7430   39.9617    4.8487 C   0  0  2  0  0  0  0  0  0  0  0  0
   33.0412   40.8397    5.9137 O   0  0  0  0  0  0  0  0  0  0  0  0
   30.1839   40.6221    0.6276 C   0  0  2  0  0  0  0  0  0  0  0  0
   27.9871   36.5681    2.7290 C   0  0  2  0  0  0  0  0  0  0  0  0
   27.8046   37.7154    1.9114 O   0  0  0  0  0  0  0  0  0  0  0  0
   26.5571   30.6502    3.3869 C   0  0  2  0  0  0  0  0  0  0  0  0
   26.6935   31.0612    4.7576 O   0  0  0  0  0  0  0  0  0  0  0  0
   33.0769   40.6191    3.4948 C   0  0  2  0  0  0  0  0  0  0  0  0
   32.7258   39.6681    2.4168 O   0  0  0  0  0  0  0  0  0  0  0  0
   28.9415   39.7938    0.0253 C   0  0  2  0  0  0  0  0  0  0  0  0
   29.1610   38.3224    0.0536 O   0  0  0  0  0  0  0  0  0  0  0  0
   29.2896   36.7455    3.4954 C   0  0  0  0  0  0  0  0  0  0  0  0
   27.7877   31.1512    2.5273 C   0  0  1  0  0  0  0  0  0  0  0  0
   27.7921   32.6460    2.3768 O   0  0  0  0  0  0  0  0  0  0  0  0
   34.5773   40.9915    3.4524 C   0  0  0  0  0  0  0  0  0  0  0  0
   35.4896   39.9557    3.9713 N   0  0  0  0  0  0  0  0  0  0  0  0
   28.7296   40.1878   -1.4521 C   0  0  1  0  0  0  0  0  0  0  0  0
   27.6261   39.4509   -1.9888 O   0  0  0  0  0  0  0  0  0  0  0  0
   29.1784   30.6483    3.0755 C   0  0  0  0  0  0  0  0  0  0  0  0
   29.2387   29.2189    3.5187 N   0  0  0  0  0  0  0  0  0  0  0  0
  1  2  1  1  0  0  0
  1  7  1  0  0  0  0
  1 30  1  0  0  0  0
  3  4  1  6  0  0  0
  3  9  1  0  0  0  0
  3 38  1  0  0  0  0
  5 10  1  0  0  0  0
  5 26  1  1  0  0  0
  5 32  1  0  0  0  0
  6 12  1  0  0  0  0
  6 35  1  0  0  0  0
  6 19  1  1  0  0  0
  7  8  1  6  0  0  0
  7 14  1  0  0  0  0
  8 33  1  0  0  0  0
  9 16  1  0  0  0  0
 10 11  1  6  0  0  0
 10 18  1  0  0  0  0
 12 13  1  1  0  0  0
 12 20  1  0  0  0  0
 14 15  1  1  0  0  0
 14 22  1  0  0  0  0
 16 17  1  6  0  0  0
 16 24  1  0  0  0  0
 18 19  1  6  0  0  0
 18 25  1  0  0  0  0
 20 21  1  6  0  0  0
 20 27  1  0  0  0  0
 22 23  1  1  0  0  0
 22 29  1  0  0  0  0
 24  2  1  1  0  0  0
 24 31  1  0  0  0  0
 25 26  1  6  0  0  0
 25 33  1  0  0  0  0
 27 28  1  1  0  0  0
 27 34  1  0  0  0  0
 29 30  1  0  0  0  0
 29 36  1  1  0  0  0
 31 32  1  6  0  0  0
 31 38  1  0  0  0  0
 34 35  1  0  0  0  0
 34 40  1  1  0  0  0
 36 37  1  0  0  0  0
 38 39  1  1  0  0  0
 40 41  1  0  0  0  0
M  END
>  <CHROM.1>
110.46215359,141.22377074,43.77331997,42.53169610,29.17197442,37.13511823
2.07796706,-0.91178358,0.77025234,2.54377512

>  <Name>
ligand

>  <RI>
0

>  <Rbt.Current_Directory>
/home/itssahil/PROJECTS/Mol_Feturizer/New_Systems/rnas/1ZZ5

>  <Rbt.Executable>
rbdock ($Id: //depot/dev/client3/rdock/2013.1/src/exe/rbdock.cxx#4 $)

>  <Rbt.Library>
libRbt.so (2013.1, Build901 2013/11/27)

>  <Rbt.Parameter_File>
/export/apps/rDock/src/rDock_2013.1_src/data/scripts/dock_solv.prm

>  <Rbt.Receptor>
prm/blind_docking_60.prm

>  <SCORE>
35.2605

>  <SCORE.INTER>
8.84783

>  <SCORE.INTER.CONST>
1

>  <SCORE.INTER.POLAR>
0

>  <SCORE.INTER.ROT>
4

>  <SCORE.INTER.SOLV>
27.28

>  <SCORE.INTER.VDW>
-9.46146

>  <SCORE.INTER.norm>
0.215801

>  <SCORE.INTRA>
5.44748

>  <SCORE.INTRA.DIHEDRAL>
8.71045

>  <SCORE.INTRA.DIHEDRAL.0>
5.18357

>  <SCORE.INTRA.POLAR>
0

>  <SCORE.INTRA.POLAR.0>
0

>  <SCORE.INTRA.REPUL>
0

>  <SCORE.INTRA.REPUL.0>
0

>  <SCORE.INTRA.SOLV>
1.19304

>  <SCORE.INTRA.SOLV.lig_0>
-109.973

>  <SCORE.INTRA.VDW>
0.495728

>  <SCORE.INTRA.VDW.0>
-1.68646

>  <SCORE.INTRA.norm>
0.132865

>  <SCORE.RESTR>
20.9652

>  <SCORE.RESTR.CAVITY>
20.9652

>  <SCORE.RESTR.norm>
0.511345

>  <SCORE.SYSTEM>
0

>  <SCORE.SYSTEM.CONST>
0

>  <SCORE.SYSTEM.DIHEDRAL>
0

>  <SCORE.SYSTEM.SOLV>
0

>  <SCORE.SYSTEM.norm>
0

>  <SCORE.heavy>
41

>  <SCORE.norm>
0.860011

>  <RMSD>
13.538

$$$$
ligand
 OpenBabel11021811423D
libRbt.so/2013.1/901 2013/11/27
 41 45  0  0  0  0  0  0  0  0999 V2000
   31.3361   39.2308    2.3639 C   0  0  2  0  0  0  0  0  0  0  0  0
   30.4653   40.3303    2.0332 O   0  0  0  0  0  0  0  0  0  0  0  0
   28.5446   41.7748   -1.5920 C   0  0  2  0  0  0  0  0  0  0  0  0
   28.3676   42.1909   -3.0072 N   0  0  0  0  0  0  0  0  0  0  0  0
   28.0658   37.5065    0.5120 C   0  0  1  0  0  0  0  0  0  0  0  0
   26.4697   33.3436    1.8290 C   0  0  1  0  0  0  0  0  0  0  0  0
   30.9410   38.5932    3.7296 C   0  0  2  0  0  0  0  0  0  0  0  0
   29.5314   38.1944    3.7877 N   0  0  0  0  0  0  0  0  0  0  0  0
   29.7293   42.5808   -0.9715 C   0  0  0  0  0  0  0  0  0  0  0  0
   28.4107   36.0022    0.4225 C   0  0  2  0  0  0  0  0  0  0  0  0
   27.7749   35.3754   -0.6962 O   0  0  0  0  0  0  0  0  0  0  0  0
   25.1984   32.9483    2.6948 C   0  0  2  0  0  0  0  0  0  0  0  0
   25.1552   33.5906    4.0441 N   0  0  0  0  0  0  0  0  0  0  0  0
   31.2640   39.5705    4.8918 C   0  0  1  0  0  0  0  0  0  0  0  0
   30.9262   38.9728    6.1407 O   0  0  0  0  0  0  0  0  0  0  0  0
   29.9675   42.1806    0.5134 C   0  0  2  0  0  0  0  0  0  0  0  0
   31.0898   42.9898    1.0248 N   0  0  0  0  0  0  0  0  0  0  0  0
   27.9567   35.4204    1.7721 C   0  0  2  0  0  0  0  0  0  0  0  0
   26.6102   34.8038    1.6940 O   0  0  0  0  0  0  0  0  0  0  0  0
   25.1217   31.3622    2.8503 C   0  0  1  0  0  0  0  0  0  0  0  0
   24.8439   30.7252    1.5839 O   0  0  0  0  0  0  0  0  0  0  0  0
   32.7633   39.9468    4.8555 C   0  0  2  0  0  0  0  0  0  0  0  0
   33.0684   40.8222    5.9207 O   0  0  0  0  0  0  0  0  0  0  0  0
   30.2399   40.6381    0.6178 C   0  0  2  0  0  0  0  0  0  0  0  0
   27.9693   36.6217    2.7132 C   0  0  2  0  0  0  0  0  0  0  0  0
   27.8091   37.7701    1.8924 O   0  0  0  0  0  0  0  0  0  0  0  0
   26.4579   30.7555    3.4404 C   0  0  2  0  0  0  0  0  0  0  0  0
   26.6128   31.1884    4.8024 O   0  0  0  0  0  0  0  0  0  0  0  0
   33.1153   40.5965    3.5024 C   0  0  2  0  0  0  0  0  0  0  0  0
   32.7563   39.6490    2.4241 O   0  0  0  0  0  0  0  0  0  0  0  0
   28.9887   39.8275    0.0095 C   0  0  2  0  0  0  0  0  0  0  0  0
   29.1857   38.3531    0.0418 O   0  0  0  0  0  0  0  0  0  0  0  0
   29.2697   36.7809    3.4871 C   0  0  0  0  0  0  0  0  0  0  0  0
   27.6903   31.2185    2.5623 C   0  0  1  0  0  0  0  0  0  0  0  0
   27.7204   32.7101    2.3848 O   0  0  0  0  0  0  0  0  0  0  0  0
   34.6214   40.9460    3.4685 C   0  0  0  0  0  0  0  0  0  0  0  0
   35.0535   41.9318    4.4763 N   0  0  0  0  0  0  0  0  0  0  0  0
   28.7917   40.2219   -1.4698 C   0  0  1  0  0  0  0  0  0  0  0  0
   27.6804   39.5009   -2.0118 O   0  0  0  0  0  0  0  0  0  0  0  0
   29.0761   30.7005    3.1087 C   0  0  0  0  0  0  0  0  0  0  0  0
   29.1448   29.2491    3.4720 N   0  0  0  0  0  0  0  0  0  0  0  0
  1  2  1  1  0  0  0
  1  7  1  0  0  0  0
  1 30  1  0  0  0  0
  3  4  1  6  0  0  0
  3  9  1  0  0  0  0
  3 38  1  0  0  0  0
  5 10  1  0  0  0  0
  5 26  1  1  0  0  0
  5 32  1  0  0  0  0
  6 12  1  0  0  0  0
  6 35  1  0  0  0  0
  6 19  1  1  0  0  0
  7  8  1  6  0  0  0
  7 14  1  0  0  0  0
  8 33  1  0  0  0  0
  9 16  1  0  0  0  0
 10 11  1  6  0  0  0
 10 18  1  0  0  0  0
 12 13  1  1  0  0  0
 12 20  1  0  0  0  0
 14 15  1  1  0  0  0
 14 22  1  0  0  0  0
 16 17  1  6  0  0  0
 16 24  1  0  0  0  0
 18 19  1  6  0  0  0
 18 25  1  0  0  0  0
 20 21  1  6  0  0  0
 20 27  1  0  0  0  0
 22 23  1  1  0  0  0
 22 29  1  0  0  0  0
 24  2  1  1  0  0  0
 24 31  1  0  0  0  0
 25 26  1  6  0  0  0
 25 33  1  0  0  0  0
 27 28  1  1  0  0  0
 27 34  1  0  0  0  0
 29 30  1  0  0  0  0
 29 36  1  1  0  0  0
 31 32  1  6  0  0  0
 31 38  1  0  0  0  0
 34 35  1  0  0  0  0
 34 40  1  1  0  0  0
 36 37  1  0  0  0  0
 38 39  1  1  0  0  0
 40 41  1  0  0  0  0
M  END
>  <CHROM.1>
111.61079548,139.92771759,-62.58522512,47.36510075,29.15837716,37.22342045
2.09090538,-0.86913164,0.79476886,2.50509539

>  <Name>
ligand

>  <RI>
0

>  <Rbt.Current_Directory>
/home/itssahil/PROJECTS/Mol_Feturizer/New_Systems/rnas/1ZZ5

>  <Rbt.Executable>
rbdock ($Id: //depot/dev/client3/rdock/2013.1/src/exe/rbdock.cxx#4 $)

>  <Rbt.Library>
libRbt.so (2013.1, Build901 2013/11/27)

>  <Rbt.Parameter_File>
/export/apps/rDock/src/rDock_2013.1_src/data/scripts/dock_solv.prm

>  <Rbt.Receptor>
prm/blind_docking_60.prm

>  <SCORE>
31.9473

>  <SCORE.INTER>
5.78207

>  <SCORE.INTER.CONST>
1

>  <SCORE.INTER.POLAR>
0

>  <SCORE.INTER.ROT>
4

>  <SCORE.INTER.SOLV>
26.2013

>  <SCORE.INTER.VDW>
-11.1457

>  <SCORE.INTER.norm>
0.141026

>  <SCORE.INTRA>
4.82718

>  <SCORE.INTRA.DIHEDRAL>
7.68207

>  <SCORE.INTRA.DIHEDRAL.0>
5.18357

>  <SCORE.INTRA.POLAR>
0

>  <SCORE.INTRA.POLAR.0>
0

>  <SCORE.INTRA.REPUL>
0

>  <SCORE.INTRA.REPUL.0>
0

>  <SCORE.INTRA.SOLV>
0.807164

>  <SCORE.INTRA.SOLV.lig_0>
-109.973

>  <SCORE.INTRA.VDW>
0.58256

>  <SCORE.INTRA.VDW.0>
-1.68646

>  <SCORE.INTRA.norm>
0.117736

>  <SCORE.RESTR>
21.338

>  <SCORE.RESTR.CAVITY>
21.338

>  <SCORE.RESTR.norm>
0.520439

>  <SCORE.SYSTEM>
0

>  <SCORE.SYSTEM.CONST>
0

>  <SCORE.SYSTEM.DIHEDRAL>
0

>  <SCORE.SYSTEM.SOLV>
0

>  <SCORE.SYSTEM.norm>
0

>  <SCORE.heavy>
41

>  <SCORE.norm>
0.779201

>  <RMSD>
13.554

$$$$
ligand
 OpenBabel11021811423D
libRbt.so/2013.1/901 2013/11/27
 41 45  0  0  0  0  0  0  0  0999 V2000
   31.1877   39.4554    2.3066 C   0  0  2  0  0  0  0  0  0  0  0  0
   30.1587   40.4271    2.0355 O   0  0  0  0  0  0  0  0  0  0  0  0
   27.8194   41.5672   -1.4495 C   0  0  2  0  0  0  0  0  0  0  0  0
   27.4920   41.9411   -2.8496 N   0  0  0  0  0  0  0  0  0  0  0  0
   28.0541   37.2959    0.6896 C   0  0  1  0  0  0  0  0  0  0  0  0
   26.9338   33.2794    2.8764 C   0  0  1  0  0  0  0  0  0  0  0  0
   30.9752   38.7860    3.6974 C   0  0  2  0  0  0  0  0  0  0  0  0
   29.6380   38.2059    3.8542 N   0  0  0  0  0  0  0  0  0  0  0  0
   28.9271   42.5287   -0.9143 C   0  0  0  0  0  0  0  0  0  0  0  0
   28.5875   35.8492    0.5787 C   0  0  2  0  0  0  0  0  0  0  0  0
   27.9646   35.1322   -0.4920 O   0  0  0  0  0  0  0  0  0  0  0  0
   28.3012   32.4811    2.9990 C   0  0  2  0  0  0  0  0  0  0  0  0
   28.8748   32.0485    1.6880 N   0  0  0  0  0  0  0  0  0  0  0  0
   31.2456   39.8098    4.8328 C   0  0  1  0  0  0  0  0  0  0  0  0
   31.0764   39.1863    6.1031 O   0  0  0  0  0  0  0  0  0  0  0  0
   29.3177   42.1793    0.5511 C   0  0  2  0  0  0  0  0  0  0  0  0
   30.3558   43.1346    0.9818 N   0  0  0  0  0  0  0  0  0  0  0  0
   28.3083   35.2272    1.9576 C   0  0  2  0  0  0  0  0  0  0  0  0
   27.0528   34.4380    1.9743 O   0  0  0  0  0  0  0  0  0  0  0  0
   28.1037   31.2122    3.9458 C   0  0  1  0  0  0  0  0  0  0  0  0
   27.8554   31.6122    5.3116 O   0  0  0  0  0  0  0  0  0  0  0  0
   32.6760   40.3797    4.6915 C   0  0  2  0  0  0  0  0  0  0  0  0
   32.9354   41.2990    5.7315 O   0  0  0  0  0  0  0  0  0  0  0  0
   29.7979   40.6873    0.6388 C   0  0  2  0  0  0  0  0  0  0  0  0
   28.2269   36.4299    2.8935 C   0  0  2  0  0  0  0  0  0  0  0  0
   27.8604   37.5383    2.0841 O   0  0  0  0  0  0  0  0  0  0  0  0
   26.9141   30.2880    3.4642 C   0  0  2  0  0  0  0  0  0  0  0  0
   27.2651   29.6806    2.2095 O   0  0  0  0  0  0  0  0  0  0  0  0
   32.8452   41.0555    3.3162 C   0  0  2  0  0  0  0  0  0  0  0  0
   32.5411   40.0574    2.2670 O   0  0  0  0  0  0  0  0  0  0  0  0
   28.6257   39.7126    0.1204 C   0  0  2  0  0  0  0  0  0  0  0  0
   29.0175   38.2773    0.1412 O   0  0  0  0  0  0  0  0  0  0  0  0
   29.5451   36.7670    3.5748 C   0  0  0  0  0  0  0  0  0  0  0  0
   25.5928   31.1468    3.3200 C   0  0  1  0  0  0  0  0  0  0  0  0
   25.8082   32.3637    2.4656 O   0  0  0  0  0  0  0  0  0  0  0  0
   34.2860   41.5997    3.1770 C   0  0  0  0  0  0  0  0  0  0  0  0
   35.3179   40.8130    3.8774 N   0  0  0  0  0  0  0  0  0  0  0  0
   28.2771   40.0617   -1.3423 C   0  0  1  0  0  0  0  0  0  0  0  0
   27.2361   39.1949   -1.8045 O   0  0  0  0  0  0  0  0  0  0  0  0
   24.3612   30.3144    2.7930 C   0  0  0  0  0  0  0  0  0  0  0  0
   23.9859   29.1061    3.5945 N   0  0  0  0  0  0  0  0  0  0  0  0
  1  2  1  1  0  0  0
  1  7  1  0  0  0  0
  1 30  1  0  0  0  0
  3  4  1  6  0  0  0
  3  9  1  0  0  0  0
  3 38  1  0  0  0  0
  5 10  1  0  0  0  0
  5 26  1  1  0  0  0
  5 32  1  0  0  0  0
  6 12  1  0  0  0  0
  6 35  1  0  0  0  0
  6 19  1  6  0  0  0
  7  8  1  6  0  0  0
  7 14  1  0  0  0  0
  8 33  1  0  0  0  0
  9 16  1  0  0  0  0
 10 11  1  6  0  0  0
 10 18  1  0  0  0  0
 12 13  1  6  0  0  0
 12 20  1  0  0  0  0
 14 15  1  1  0  0  0
 14 22  1  0  0  0  0
 16 17  1  6  0  0  0
 16 24  1  0  0  0  0
 18 19  1  6  0  0  0
 18 25  1  0  0  0  0
 20 21  1  1  0  0  0
 20 27  1  0  0  0  0
 22 23  1  1  0  0  0
 22 29  1  0  0  0  0
 24  2  1  1  0  0  0
 24 31  1  0  0  0  0
 25 26  1  6  0  0  0
 25 33  1  0  0  0  0
 27 28  1  6  0  0  0
 27 34  1  0  0  0  0
 29 30  1  0  0  0  0
 29 36  1  6  0  0  0
 31 32  1  6  0  0  0
 31 38  1  0  0  0  0
 34 35  1  0  0  0  0
 34 40  1  6  0  0  0
 36 37  1  0  0  0  0
 38 39  1  1  0  0  0
 40 41  1  0  0  0  0
M  END
>  <CHROM.1>
149.65085073,-36.95001717,32.16602328,56.65209239,29.05115350,37.11160843
2.15271389,-0.92971475,0.78894070,2.55051551

>  <Name>
ligand

>  <RI>
0

>  <Rbt.Current_Directory>
/home/itssahil/PROJECTS/Mol_Feturizer/New_Systems/rnas/1ZZ5

>  <Rbt.Executable>
rbdock ($Id: //depot/dev/client3/rdock/2013.1/src/exe/rbdock.cxx#4 $)

>  <Rbt.Library>
libRbt.so (2013.1, Build901 2013/11/27)

>  <Rbt.Parameter_File>
/export/apps/rDock/src/rDock_2013.1_src/data/scripts/dock_solv.prm

>  <Rbt.Receptor>
prm/blind_docking_60.prm

>  <SCORE>
44.087

>  <SCORE.INTER>
20.8362

>  <SCORE.INTER.CONST>
1

>  <SCORE.INTER.POLAR>
0

>  <SCORE.INTER.ROT>
4

>  <SCORE.INTER.SOLV>
26.8305

>  <SCORE.INTER.VDW>
-1.31938

>  <SCORE.INTER.norm>
0.508199

>  <SCORE.INTRA>
3.38516

>  <SCORE.INTRA.DIHEDRAL>
3.31807

>  <SCORE.INTRA.DIHEDRAL.0>
5.18357

>  <SCORE.INTRA.POLAR>
0

>  <SCORE.INTRA.POLAR.0>
0

>  <SCORE.INTRA.REPUL>
0

>  <SCORE.INTRA.REPUL.0>
0

>  <SCORE.INTRA.SOLV>
1.8309

>  <SCORE.INTRA.SOLV.lig_0>
-109.973

>  <SCORE.INTRA.VDW>
0.810671

>  <SCORE.INTRA.VDW.0>
-1.68646

>  <SCORE.INTRA.norm>
0.0825648

>  <SCORE.RESTR>
19.8657

>  <SCORE.RESTR.CAVITY>
19.8657

>  <SCORE.RESTR.norm>
0.484528

>  <SCORE.SYSTEM>
0

>  <SCORE.SYSTEM.CONST>
0

>  <SCORE.SYSTEM.DIHEDRAL>
0

>  <SCORE.SYSTEM.SOLV>
0

>  <SCORE.SYSTEM.norm>
0

>  <SCORE.heavy>
41

>  <SCORE.norm>
1.07529

>  <RMSD>
13.560

$$$$
ligand
 OpenBabel11021811423D
libRbt.so/2013.1/901 2013/11/27
 41 45  0  0  0  0  0  0  0  0999 V2000
   31.3169   39.1954    2.3676 C   0  0  2  0  0  0  0  0  0  0  0  0
   30.4537   40.2986    2.0297 O   0  0  0  0  0  0  0  0  0  0  0  0
   28.5584   41.7439   -1.6085 C   0  0  2  0  0  0  0  0  0  0  0  0
   28.3905   42.1572   -3.0256 N   0  0  0  0  0  0  0  0  0  0  0  0
   28.0463   37.4838    0.5044 C   0  0  1  0  0  0  0  0  0  0  0  0
   26.4173   33.3374    1.8604 C   0  0  1  0  0  0  0  0  0  0  0  0
   30.9118   38.5635    3.7329 C   0  0  2  0  0  0  0  0  0  0  0  0
   29.4998   38.1725    3.7853 N   0  0  0  0  0  0  0  0  0  0  0  0
   29.7444   42.5452   -0.9844 C   0  0  0  0  0  0  0  0  0  0  0  0
   28.3835   35.9775    0.4204 C   0  0  2  0  0  0  0  0  0  0  0  0
   27.7497   35.3512   -0.6997 O   0  0  0  0  0  0  0  0  0  0  0  0
   25.1617   32.9778    2.7640 C   0  0  2  0  0  0  0  0  0  0  0  0
   25.1562   33.6532    4.0976 N   0  0  0  0  0  0  0  0  0  0  0  0
   31.2345   39.5421    4.8942 C   0  0  1  0  0  0  0  0  0  0  0  0
   30.8875   38.9496    6.1429 O   0  0  0  0  0  0  0  0  0  0  0  0
   29.9732   42.1476    0.5027 C   0  0  2  0  0  0  0  0  0  0  0  0
   31.0974   42.9521    1.0174 N   0  0  0  0  0  0  0  0  0  0  0  0
   27.9199   35.4017    1.7694 C   0  0  2  0  0  0  0  0  0  0  0  0
   26.5704   34.7921    1.6863 O   0  0  0  0  0  0  0  0  0  0  0  0
   25.0714   31.3970    2.9602 C   0  0  1  0  0  0  0  0  0  0  0  0
   24.7581   30.7325    1.7164 O   0  0  0  0  0  0  0  0  0  0  0  0
   32.7360   39.9102    4.8641 C   0  0  2  0  0  0  0  0  0  0  0  0
   33.0406   40.7868    5.9285 O   0  0  0  0  0  0  0  0  0  0  0  0
   30.2368   40.6039    0.6125 C   0  0  2  0  0  0  0  0  0  0  0  0
   27.9344   36.6054    2.7073 C   0  0  2  0  0  0  0  0  0  0  0  0
   27.7844   37.7525    1.8828 O   0  0  0  0  0  0  0  0  0  0  0  0
   26.4140   30.7896    3.5349 C   0  0  2  0  0  0  0  0  0  0  0  0
   26.6045   31.2538    4.8820 O   0  0  0  0  0  0  0  0  0  0  0  0
   33.0980   40.5545    3.5111 C   0  0  2  0  0  0  0  0  0  0  0  0
   32.7390   39.6060    2.4335 O   0  0  0  0  0  0  0  0  0  0  0  0
   28.9842   39.7985    0.0003 C   0  0  2  0  0  0  0  0  0  0  0  0
   29.1731   38.3231    0.0373 O   0  0  0  0  0  0  0  0  0  0  0  0
   29.2319   36.7596    3.4871 C   0  0  0  0  0  0  0  0  0  0  0  0
   27.6311   31.2171    2.6183 C   0  0  1  0  0  0  0  0  0  0  0  0
   27.6732   32.7035    2.4034 O   0  0  0  0  0  0  0  0  0  0  0  0
   34.6061   40.8957    3.4835 C   0  0  0  0  0  0  0  0  0  0  0  0
   35.0289   41.9221    4.4542 N   0  0  0  0  0  0  0  0  0  0  0  0
   28.7965   40.1901   -1.4810 C   0  0  1  0  0  0  0  0  0  0  0  0
   27.6839   39.4736   -2.0265 O   0  0  0  0  0  0  0  0  0  0  0  0
   29.0233   30.6968    3.1460 C   0  0  0  0  0  0  0  0  0  0  0  0
   29.1114   29.2333    3.4520 N   0  0  0  0  0  0  0  0  0  0  0  0
  1  2  1  1  0  0  0
  1  7  1  0  0  0  0
  1 30  1  0  0  0  0
  3  4  1  6  0  0  0
  3  9  1  0  0  0  0
  3 38  1  0  0  0  0
  5 10  1  0  0  0  0
  5 26  1  1  0  0  0
  5 32  1  0  0  0  0
  6 12  1  0  0  0  0
  6 35  1  0  0  0  0
  6 19  1  1  0  0  0
  7  8  1  6  0  0  0
  7 14  1  0  0  0  0
  8 33  1  0  0  0  0
  9 16  1  0  0  0  0
 10 11  1  6  0  0  0
 10 18  1  0  0  0  0
 12 13  1  1  0  0  0
 12 20  1  0  0  0  0
 14 15  1  1  0  0  0
 14 22  1  0  0  0  0
 16 17  1  6  0  0  0
 16 24  1  0  0  0  0
 18 19  1  6  0  0  0
 18 25  1  0  0  0  0
 20 21  1  6  0  0  0
 20 27  1  0  0  0  0
 22 23  1  1  0  0  0
 22 29  1  0  0  0  0
 24  2  1  1  0  0  0
 24 31  1  0  0  0  0
 25 26  1  6  0  0  0
 25 33  1  0  0  0  0
 27 28  1  1  0  0  0
 27 34  1  0  0  0  0
 29 30  1  0  0  0  0
 29 36  1  1  0  0  0
 31 32  1  6  0  0  0
 31 38  1  0  0  0  0
 34 35  1  0  0  0  0
 34 40  1  1  0  0  0
 36 37  1  0  0  0  0
 38 39  1  1  0  0  0
 40 41  1  0  0  0  0
M  END
>  <CHROM.1>
113.23848862,137.66099027,-64.95458603,51.52070926,29.13502222,37.20721350
2.10425849,-0.86305328,0.79435371,2.49140965

>  <Name>
ligand

>  <RI>
0

>  <Rbt.Current_Directory>
/home/itssahil/PROJECTS/Mol_Feturizer/New_Systems/rnas/1ZZ5

>  <Rbt.Executable>
rbdock ($Id: //depot/dev/client3/rdock/2013.1/src/exe/rbdock.cxx#4 $)

>  <Rbt.Library>
libRbt.so (2013.1, Build901 2013/11/27)

>  <Rbt.Parameter_File>
/export/apps/rDock/src/rDock_2013.1_src/data/scripts/dock_solv.prm

>  <Rbt.Receptor>
prm/blind_docking_60.prm

>  <SCORE>
32.3146

>  <SCORE.INTER>
6.23253

>  <SCORE.INTER.CONST>
1

>  <SCORE.INTER.POLAR>
0

>  <SCORE.INTER.ROT>
4

>  <SCORE.INTER.SOLV>
26.4705

>  <SCORE.INTER.VDW>
-10.9351

>  <SCORE.INTER.norm>
0.152013

>  <SCORE.INTRA>
4.81843

>  <SCORE.INTRA.DIHEDRAL>
7.91308

>  <SCORE.INTRA.DIHEDRAL.0>
5.18357

>  <SCORE.INTRA.POLAR>
0

>  <SCORE.INTRA.POLAR.0>
0

>  <SCORE.INTRA.REPUL>
0

>  <SCORE.INTRA.REPUL.0>
0

>  <SCORE.INTRA.SOLV>
0.711553

>  <SCORE.INTRA.SOLV.lig_0>
-109.973

>  <SCORE.INTRA.VDW>
0.506114

>  <SCORE.INTRA.VDW.0>
-1.68646

>  <SCORE.INTRA.norm>
0.117523

>  <SCORE.RESTR>
21.2637

>  <SCORE.RESTR.CAVITY>
21.2637

>  <SCORE.RESTR.norm>
0.518626

>  <SCORE.SYSTEM>
0

>  <SCORE.SYSTEM.CONST>
0

>  <SCORE.SYSTEM.DIHEDRAL>
0

>  <SCORE.SYSTEM.SOLV>
0

>  <SCORE.SYSTEM.norm>
0

>  <SCORE.heavy>
41

>  <SCORE.norm>
0.788162

>  <RMSD>
13.568

$$$$
ligand
 OpenBabel11021811423D
libRbt.so/2013.1/901 2013/11/27
 41 45  0  0  0  0  0  0  0  0999 V2000
   31.2806   39.1244    2.3712 C   0  0  2  0  0  0  0  0  0  0  0  0
   30.4412   40.2439    2.0270 O   0  0  0  0  0  0  0  0  0  0  0  0
   28.5835   41.7127   -1.6212 C   0  0  2  0  0  0  0  0  0  0  0  0
   28.4269   42.1233   -3.0404 N   0  0  0  0  0  0  0  0  0  0  0  0
   27.9787   37.4733    0.5087 C   0  0  1  0  0  0  0  0  0  0  0  0
   26.2606   33.3680    1.8826 C   0  0  1  0  0  0  0  0  0  0  0  0
   30.8598   38.5070    3.7384 C   0  0  2  0  0  0  0  0  0  0  0  0
   29.4399   38.1457    3.7896 N   0  0  0  0  0  0  0  0  0  0  0  0
   29.7847   42.4918   -0.9982 C   0  0  0  0  0  0  0  0  0  0  0  0
   28.2846   35.9600    0.4319 C   0  0  2  0  0  0  0  0  0  0  0  0
   27.6401   35.3421   -0.6869 O   0  0  0  0  0  0  0  0  0  0  0  0
   24.9812   33.0403    2.7646 C   0  0  2  0  0  0  0  0  0  0  0  0
   24.9629   33.7275    4.0921 N   0  0  0  0  0  0  0  0  0  0  0  0
   31.2006   39.4836    4.8962 C   0  0  1  0  0  0  0  0  0  0  0  0
   30.8388   38.9038    6.1467 O   0  0  0  0  0  0  0  0  0  0  0  0
   30.0023   42.0959    0.4911 C   0  0  2  0  0  0  0  0  0  0  0  0
   31.1420   42.8790    1.0046 N   0  0  0  0  0  0  0  0  0  0  0  0
   27.8065   35.3997    1.7823 C   0  0  2  0  0  0  0  0  0  0  0  0
   26.4448   34.8180    1.6991 O   0  0  0  0  0  0  0  0  0  0  0  0
   24.8571   31.4633    2.9725 C   0  0  1  0  0  0  0  0  0  0  0  0
   24.5551   30.7938    1.7285 O   0  0  0  0  0  0  0  0  0  0  0  0
   32.7094   39.8202    4.8675 C   0  0  2  0  0  0  0  0  0  0  0  0
   33.0302   40.6948    5.9288 O   0  0  0  0  0  0  0  0  0  0  0  0
   30.2335   40.5476    0.6080 C   0  0  2  0  0  0  0  0  0  0  0  0
   27.8443   36.6069    2.7152 C   0  0  2  0  0  0  0  0  0  0  0  0
   27.7197   37.7533    1.8855 O   0  0  0  0  0  0  0  0  0  0  0  0
   26.1765   30.8358    3.5783 C   0  0  2  0  0  0  0  0  0  0  0  0
   26.3498   31.3083    4.9249 O   0  0  0  0  0  0  0  0  0  0  0  0
   33.0874   40.4510    3.5125 C   0  0  2  0  0  0  0  0  0  0  0  0
   32.7109   39.5056    2.4383 O   0  0  0  0  0  0  0  0  0  0  0  0
   28.9655   39.7658   -0.0033 C   0  0  2  0  0  0  0  0  0  0  0  0
   29.1236   38.2869    0.0404 O   0  0  0  0  0  0  0  0  0  0  0  0
   29.1432   36.7374    3.4969 C   0  0  0  0  0  0  0  0  0  0  0  0
   27.4189   31.2320    2.6819 C   0  0  1  0  0  0  0  0  0  0  0  0
   27.4936   32.7154    2.4553 O   0  0  0  0  0  0  0  0  0  0  0  0
   34.6024   40.7607    3.4866 C   0  0  0  0  0  0  0  0  0  0  0  0
   35.0507   41.7543    4.4795 N   0  0  0  0  0  0  0  0  0  0  0  0
   28.7889   40.1548   -1.4866 C   0  0  1  0  0  0  0  0  0  0  0  0
   27.6627   39.4593   -2.0314 O   0  0  0  0  0  0  0  0  0  0  0  0
   28.7905   30.6902    3.2410 C   0  0  0  0  0  0  0  0  0  0  0  0
   30.0301   31.2620    2.6245 N   0  0  0  0  0  0  0  0  0  0  0  0
  1  2  1  1  0  0  0
  1  7  1  0  0  0  0
  1 30  1  0  0  0  0
  3  4  1  6  0  0  0
  3  9  1  0  0  0  0
  3 38  1  0  0  0  0
  5 10  1  0  0  0  0
  5 26  1  1  0  0  0
  5 32  1  0  0  0  0
  6 12  1  0  0  0  0
  6 35  1  0  0  0  0
  6 19  1  1  0  0  0
  7  8  1  6  0  0  0
  7 14  1  0  0  0  0
  8 33  1  0  0  0  0
  9 16  1  0  0  0  0
 10 11  1  6  0  0  0
 10 18  1  0  0  0  0
 12 13  1  1  0  0  0
 12 20  1  0  0  0  0
 14 15  1  1  0  0  0
 14 22  1  0  0  0  0
 16 17  1  6  0  0  0
 16 24  1  0  0  0  0
 18 19  1  6  0  0  0
 18 25  1  0  0  0  0
 20 21  1  6  0  0  0
 20 27  1  0  0  0  0
 22 23  1  1  0  0  0
 22 29  1  0  0  0  0
 24  2  1  1  0  0  0
 24 31  1  0  0  0  0
 25 26  1  6  0  0  0
 25 33  1  0  0  0  0
 27 28  1  1  0  0  0
 27 34  1  0  0  0  0
 29 30  1  0  0  0  0
 29 36  1  1  0  0  0
 31 32  1  6  0  0  0
 31 38  1  0  0  0  0
 34 35  1  0  0  0  0
 34 40  1  1  0  0  0
 36 37  1  0  0  0  0
 38 39  1  1  0  0  0
 40 41  1  0  0  0  0
M  END
>  <CHROM.1>
113.39826741,138.60518261,-63.30825285,-167.28610823,29.08228716,37.23116997
2.09382788,-0.81281330,0.77976057,2.45871587

>  <Name>
ligand

>  <RI>
0

>  <Rbt.Current_Directory>
/home/itssahil/PROJECTS/Mol_Feturizer/New_Systems/rnas/1ZZ5

>  <Rbt.Executable>
rbdock ($Id: //depot/dev/client3/rdock/2013.1/src/exe/rbdock.cxx#4 $)

>  <Rbt.Library>
libRbt.so (2013.1, Build901 2013/11/27)

>  <Rbt.Parameter_File>
/export/apps/rDock/src/rDock_2013.1_src/data/scripts/dock_solv.prm

>  <Rbt.Receptor>
prm/blind_docking_60.prm

>  <SCORE>
36.0131

>  <SCORE.INTER>
9.3715

>  <SCORE.INTER.CONST>
1

>  <SCORE.INTER.POLAR>
0

>  <SCORE.INTER.ROT>
4

>  <SCORE.INTER.SOLV>
32.6445

>  <SCORE.INTER.VDW>
-10.9005

>  <SCORE.INTER.norm>
0.228573

>  <SCORE.INTRA>
4.66214

>  <SCORE.INTRA.DIHEDRAL>
7.98843

>  <SCORE.INTRA.DIHEDRAL.0>
5.18357

>  <SCORE.INTRA.POLAR>
0

>  <SCORE.INTRA.POLAR.0>
0

>  <SCORE.INTRA.REPUL>
0

>  <SCORE.INTRA.REPUL.0>
0

>  <SCORE.INTRA.SOLV>
0.278646

>  <SCORE.INTRA.SOLV.lig_0>
-109.973

>  <SCORE.INTRA.VDW>
0.528599

>  <SCORE.INTRA.VDW.0>
-1.68646

>  <SCORE.INTRA.norm>
0.113711

>  <SCORE.RESTR>
21.9795

>  <SCORE.RESTR.CAVITY>
21.9795

>  <SCORE.RESTR.norm>
0.536085

>  <SCORE.SYSTEM>
0

>  <SCORE.SYSTEM.CONST>
0

>  <SCORE.SYSTEM.DIHEDRAL>
0

>  <SCORE.SYSTEM.SOLV>
0

>  <SCORE.SYSTEM.norm>
0

>  <SCORE.heavy>
41

>  <SCORE.norm>
0.878368

>  <RMSD>
13.574

$$$$
ligand
 OpenBabel11021811423D
libRbt.so/2013.1/901 2013/11/27
 41 45  0  0  0  0  0  0  0  0999 V2000
   31.2732   39.1153    2.3753 C   0  0  2  0  0  0  0  0  0  0  0  0
   30.4310   40.2319    2.0281 O   0  0  0  0  0  0  0  0  0  0  0  0
   28.5586   41.6789   -1.6212 C   0  0  2  0  0  0  0  0  0  0  0  0
   28.3965   42.0819   -3.0420 N   0  0  0  0  0  0  0  0  0  0  0  0
   27.9672   37.4499    0.5329 C   0  0  1  0  0  0  0  0  0  0  0  0
   26.2624   33.3463    1.9116 C   0  0  1  0  0  0  0  0  0  0  0  0
   30.8580   38.5045    3.7472 C   0  0  2  0  0  0  0  0  0  0  0  0
   29.4389   38.1414    3.8052 N   0  0  0  0  0  0  0  0  0  0  0  0
   29.7608   42.4629   -1.0064 C   0  0  0  0  0  0  0  0  0  0  0  0
   28.2750   35.9366    0.4630 C   0  0  2  0  0  0  0  0  0  0  0  0
   27.6276   35.3120   -0.6503 O   0  0  0  0  0  0  0  0  0  0  0  0
   24.9459   33.0029    2.7307 C   0  0  2  0  0  0  0  0  0  0  0  0
   24.8581   33.6844    4.0584 N   0  0  0  0  0  0  0  0  0  0  0  0
   31.2014   39.4877    4.8986 C   0  0  1  0  0  0  0  0  0  0  0  0
   30.8449   38.9139    6.1535 O   0  0  0  0  0  0  0  0  0  0  0  0
   29.9842   42.0751    0.4842 C   0  0  2  0  0  0  0  0  0  0  0  0
   31.1245   42.8626    0.9896 N   0  0  0  0  0  0  0  0  0  0  0  0
   27.8024   35.3827    1.8179 C   0  0  2  0  0  0  0  0  0  0  0  0
   26.4413   34.7987    1.7425 O   0  0  0  0  0  0  0  0  0  0  0  0
   24.8270   31.4239    2.9266 C   0  0  1  0  0  0  0  0  0  0  0  0
   24.5907   30.7569    1.6672 O   0  0  0  0  0  0  0  0  0  0  0  0
   32.7097   39.8262    4.8630 C   0  0  2  0  0  0  0  0  0  0  0  0
   33.0329   40.7068    5.9186 O   0  0  0  0  0  0  0  0  0  0  0  0
   30.2180   40.5278    0.6083 C   0  0  2  0  0  0  0  0  0  0  0  0
   27.8417   36.5948    2.7443 C   0  0  2  0  0  0  0  0  0  0  0  0
   27.7127   37.7367    1.9091 O   0  0  0  0  0  0  0  0  0  0  0  0
   26.1221   30.8063    3.5920 C   0  0  2  0  0  0  0  0  0  0  0  0
   26.2269   31.2747    4.9470 O   0  0  0  0  0  0  0  0  0  0  0  0
   33.0820   40.4505    3.5034 C   0  0  2  0  0  0  0  0  0  0  0  0
   32.7032   39.4989    2.4354 O   0  0  0  0  0  0  0  0  0  0  0  0
   28.9490   39.7410    0.0055 C   0  0  2  0  0  0  0  0  0  0  0  0
   29.1094   38.2626    0.0564 O   0  0  0  0  0  0  0  0  0  0  0  0
   29.1431   36.7312    3.5209 C   0  0  0  0  0  0  0  0  0  0  0  0
   27.4018   31.2178    2.7570 C   0  0  1  0  0  0  0  0  0  0  0  0
   27.4730   32.7027    2.5397 O   0  0  0  0  0  0  0  0  0  0  0  0
   34.5965   40.7621    3.4706 C   0  0  0  0  0  0  0  0  0  0  0  0
   35.0480   41.7562    4.4617 N   0  0  0  0  0  0  0  0  0  0  0  0
   28.7667   40.1220   -1.4792 C   0  0  1  0  0  0  0  0  0  0  0  0
   27.6396   39.4221   -2.0164 O   0  0  0  0  0  0  0  0  0  0  0  0
   28.7505   30.6865    3.3785 C   0  0  0  0  0  0  0  0  0  0  0  0
   30.0085   31.0793    2.6669 N   0  0  0  0  0  0  0  0  0  0  0  0
  1  2  1  1  0  0  0
  1  7  1  0  0  0  0
  1 30  1  0  0  0  0
  3  4  1  6  0  0  0
  3  9  1  0  0  0  0
  3 38  1  0  0  0  0
  5 10  1  0  0  0  0
  5 26  1  1  0  0  0
  5 32  1  0  0  0  0
  6 12  1  0  0  0  0
  6 35  1  0  0  0  0
  6 19  1  1  0  0  0
  7  8  1  6  0  0  0
  7 14  1  0  0  0  0
  8 33  1  0  0  0  0
  9 16  1  0  0  0  0
 10 11  1  6  0  0  0
 10 18  1  0  0  0  0
 12 13  1  1  0  0  0
 12 20  1  0  0  0  0
 14 15  1  1  0  0  0
 14 22  1  0  0  0  0
 16 17  1  6  0  0  0
 16 24  1  0  0  0  0
 18 19  1  6  0  0  0
 18 25  1  0  0  0  0
 20 21  1  6  0  0  0
 20 27  1  0  0  0  0
 22 23  1  1  0  0  0
 22 29  1  0  0  0  0
 24  2  1  1  0  0  0
 24 31  1  0  0  0  0
 25 26  1  6  0  0  0
 25 33  1  0  0  0  0
 27 28  1  1  0  0  0
 27 34  1  0  0  0  0
 29 30  1  0  0  0  0
 29 36  1  1  0  0  0
 31 32  1  6  0  0  0
 31 38  1  0  0  0  0
 34 35  1  0  0  0  0
 34 40  1  1  0  0  0
 36 37  1  0  0  0  0
 38 39  1  1  0  0  0
 40 41  1  0  0  0  0
M  END
>  <CHROM.1>
112.37180822,141.97531241,-62.99022435,-177.90993850,29.06525779,37.20971653
2.10553455,-0.81368329,0.77746597,2.45916742

>  <Name>
ligand

>  <RI>
0

>  <Rbt.Current_Directory>
/home/itssahil/PROJECTS/Mol_Feturizer/New_Systems/rnas/1ZZ5

>  <Rbt.Executable>
rbdock ($Id: //depot/dev/client3/rdock/2013.1/src/exe/rbdock.cxx#4 $)

>  <Rbt.Library>
libRbt.so (2013.1, Build901 2013/11/27)

>  <Rbt.Parameter_File>
/export/apps/rDock/src/rDock_2013.1_src/data/scripts/dock_solv.prm

>  <Rbt.Receptor>
prm/blind_docking_60.prm

>  <SCORE>
35.7783

>  <SCORE.INTER>
9.79484

>  <SCORE.INTER.CONST>
1

>  <SCORE.INTER.POLAR>
0

>  <SCORE.INTER.ROT>
4

>  <SCORE.INTER.SOLV>
32.1305

>  <SCORE.INTER.VDW>
-10.4469

>  <SCORE.INTER.norm>
0.238898

>  <SCORE.INTRA>
3.99792

>  <SCORE.INTRA.DIHEDRAL>
6.86378

>  <SCORE.INTRA.DIHEDRAL.0>
5.18357

>  <SCORE.INTRA.POLAR>
0

>  <SCORE.INTRA.POLAR.0>
0

>  <SCORE.INTRA.REPUL>
0

>  <SCORE.INTRA.REPUL.0>
0

>  <SCORE.INTRA.SOLV>
0.0882098

>  <SCORE.INTRA.SOLV.lig_0>
-109.973

>  <SCORE.INTRA.VDW>
0.52192

>  <SCORE.INTRA.VDW.0>
-1.68646

>  <SCORE.INTRA.norm>
0.0975102

>  <SCORE.RESTR>
21.9856

>  <SCORE.RESTR.CAVITY>
21.9856

>  <SCORE.RESTR.norm>
0.536234

>  <SCORE.SYSTEM>
0

>  <SCORE.SYSTEM.CONST>
0

>  <SCORE.SYSTEM.DIHEDRAL>
0

>  <SCORE.SYSTEM.SOLV>
0

>  <SCORE.SYSTEM.norm>
0

>  <SCORE.heavy>
41

>  <SCORE.norm>
0.872642

>  <RMSD>
13.592

$$$$
ligand
 OpenBabel11021811423D
libRbt.so/2013.1/901 2013/11/27
 41 45  0  0  0  0  0  0  0  0999 V2000
   31.1277   39.4227    2.2772 C   0  0  2  0  0  0  0  0  0  0  0  0
   30.0905   40.3865    2.0092 O   0  0  0  0  0  0  0  0  0  0  0  0
   27.7249   41.5016   -1.4661 C   0  0  2  0  0  0  0  0  0  0  0  0
   27.3876   41.8698   -2.8654 N   0  0  0  0  0  0  0  0  0  0  0  0
   28.0009   37.2374    0.6820 C   0  0  1  0  0  0  0  0  0  0  0  0
   26.9115   33.2329    2.9015 C   0  0  1  0  0  0  0  0  0  0  0  0
   30.9272   38.7554    3.6708 C   0  0  2  0  0  0  0  0  0  0  0  0
   29.5950   38.1663    3.8360 N   0  0  0  0  0  0  0  0  0  0  0  0
   28.8287   42.4722   -0.9391 C   0  0  0  0  0  0  0  0  0  0  0  0
   28.5439   35.7942    0.5718 C   0  0  2  0  0  0  0  0  0  0  0  0
   27.9204   35.0702   -0.4939 O   0  0  0  0  0  0  0  0  0  0  0  0
   28.2736   32.4245    3.0157 C   0  0  2  0  0  0  0  0  0  0  0  0
   28.8229   31.9656    1.7032 N   0  0  0  0  0  0  0  0  0  0  0  0
   31.1964   39.7838    4.8022 C   0  0  1  0  0  0  0  0  0  0  0  0
   31.0382   39.1623    6.0749 O   0  0  0  0  0  0  0  0  0  0  0  0
   29.2294   42.1291    0.5251 C   0  0  2  0  0  0  0  0  0  0  0  0
   30.2630   43.0928    0.9479 N   0  0  0  0  0  0  0  0  0  0  0  0
   28.2763   35.1737    1.9536 C   0  0  2  0  0  0  0  0  0  0  0  0
   27.0265   34.3757    1.9789 O   0  0  0  0  0  0  0  0  0  0  0  0
   28.0800   31.1728    3.9861 C   0  0  1  0  0  0  0  0  0  0  0  0
   27.8566   31.5969    5.3488 O   0  0  0  0  0  0  0  0  0  0  0  0
   32.6220   40.3633    4.6520 C   0  0  2  0  0  0  0  0  0  0  0  0
   32.8804   41.2870    5.6884 O   0  0  0  0  0  0  0  0  0  0  0  0
   29.7205   40.6408    0.6138 C   0  0  2  0  0  0  0  0  0  0  0  0
   28.1914   36.3780    2.8871 C   0  0  2  0  0  0  0  0  0  0  0  0
   27.8128   37.4818    2.0770 O   0  0  0  0  0  0  0  0  0  0  0  0
   26.8749   30.2516    3.5381 C   0  0  2  0  0  0  0  0  0  0  0  0
   27.2009   29.6210    2.2881 O   0  0  0  0  0  0  0  0  0  0  0  0
   32.7791   41.0369    3.2742 C   0  0  2  0  0  0  0  0  0  0  0  0
   32.4766   40.0341    2.2291 O   0  0  0  0  0  0  0  0  0  0  0  0
   28.5525   39.6566    0.1039 C   0  0  2  0  0  0  0  0  0  0  0  0
   28.9544   38.2242    0.1262 O   0  0  0  0  0  0  0  0  0  0  0  0
   29.5107   36.7261    3.5606 C   0  0  0  0  0  0  0  0  0  0  0  0
   25.5590   31.1199    3.4005 C   0  0  1  0  0  0  0  0  0  0  0  0
   25.7717   32.3209    2.5232 O   0  0  0  0  0  0  0  0  0  0  0  0
   34.2154   41.5909    3.1261 C   0  0  0  0  0  0  0  0  0  0  0  0
   34.5904   42.6182    4.1152 N   0  0  0  0  0  0  0  0  0  0  0  0
   28.1937   39.9997   -1.3577 C   0  0  1  0  0  0  0  0  0  0  0  0
   27.1564   39.1245   -1.8123 O   0  0  0  0  0  0  0  0  0  0  0  0
   24.3122   30.2902    2.9062 C   0  0  0  0  0  0  0  0  0  0  0  0
   23.9377   29.0995    3.7341 N   0  0  0  0  0  0  0  0  0  0  0  0
  1  2  1  1  0  0  0
  1  7  1  0  0  0  0
  1 30  1  0  0  0  0
  3  4  1  6  0  0  0
  3  9  1  0  0  0  0
  3 38  1  0  0  0  0
  5 10  1  0  0  0  0
  5 26  1  1  0  0  0
  5 32  1  0  0  0  0
  6 12  1  0  0  0  0
  6 35  1  0  0  0  0
  6 19  1  6  0  0  0
  7  8  1  6  0  0  0
  7 14  1  0  0  0  0
  8 33  1  0  0  0  0
  9 16  1  0  0  0  0
 10 11  1  6  0  0  0
 10 18  1  0  0  0  0
 12 13  1  6  0  0  0
 12 20  1  0  0  0  0
 14 15  1  1  0  0  0
 14 22  1  0  0  0  0
 16 17  1  6  0  0  0
 16 24  1  0  0  0  0
 18 19  1  6  0  0  0
 18 25  1  0  0  0  0
 20 21  1  1  0  0  0
 20 27  1  0  0  0  0
 22 23  1  1  0  0  0
 22 29  1  0  0  0  0
 24  2  1  1  0  0  0
 24 31  1  0  0  0  0
 25 26  1  6  0  0  0
 25 33  1  0  0  0  0
 27 28  1  6  0  0  0
 27 34  1  0  0  0  0
 29 30  1  0  0  0  0
 29 36  1  6  0  0  0
 31 32  1  6  0  0  0
 31 38  1  0  0  0  0
 34 35  1  0  0  0  0
 34 40  1  6  0  0  0
 36 37  1  0  0  0  0
 38 39  1  1  0  0  0
 40 41  1  0  0  0  0
M  END
>  <CHROM.1>
150.72418679,-38.44330838,-61.21566024,56.73572818,28.98046689,37.11318511
2.16016256,-0.92379811,0.81366968,2.53439789

>  <Name>
ligand

>  <RI>
0

>  <Rbt.Current_Directory>
/home/itssahil/PROJECTS/Mol_Feturizer/New_Systems/rnas/1ZZ5

>  <Rbt.Executable>
rbdock ($Id: //depot/dev/client3/rdock/2013.1/src/exe/rbdock.cxx#4 $)

>  <Rbt.Library>
libRbt.so (2013.1, Build901 2013/11/27)

>  <Rbt.Parameter_File>
/export/apps/rDock/src/rDock_2013.1_src/data/scripts/dock_solv.prm

>  <Rbt.Receptor>
prm/blind_docking_60.prm

>  <SCORE>
41.0945

>  <SCORE.INTER>
19.4082

>  <SCORE.INTER.CONST>
1

>  <SCORE.INTER.POLAR>
0

>  <SCORE.INTER.ROT>
4

>  <SCORE.INTER.SOLV>
26.1013

>  <SCORE.INTER.VDW>
-2.02826

>  <SCORE.INTER.norm>
0.473372

>  <SCORE.INTRA>
1.68806

>  <SCORE.INTRA.DIHEDRAL>
0.527552

>  <SCORE.INTRA.DIHEDRAL.0>
5.18357

>  <SCORE.INTRA.POLAR>
0

>  <SCORE.INTRA.POLAR.0>
0

>  <SCORE.INTRA.REPUL>
0

>  <SCORE.INTRA.REPUL.0>
0

>  <SCORE.INTRA.SOLV>
1.37758

>  <SCORE.INTRA.SOLV.lig_0>
-109.973

>  <SCORE.INTRA.VDW>
0.73549

>  <SCORE.INTRA.VDW.0>
-1.68646

>  <SCORE.INTRA.norm>
0.0411721

>  <SCORE.RESTR>
19.9982

>  <SCORE.RESTR.CAVITY>
19.9982

>  <SCORE.RESTR.norm>
0.48776

>  <SCORE.SYSTEM>
0

>  <SCORE.SYSTEM.CONST>
0

>  <SCORE.SYSTEM.DIHEDRAL>
0

>  <SCORE.SYSTEM.SOLV>
0

>  <SCORE.SYSTEM.norm>
0

>  <SCORE.heavy>
41

>  <SCORE.norm>
1.0023

>  <RMSD>
13.600

$$$$
ligand
 OpenBabel11021811423D
libRbt.so/2013.1/901 2013/11/27
 41 45  0  0  0  0  0  0  0  0999 V2000
   31.0997   39.3862    2.2710 C   0  0  2  0  0  0  0  0  0  0  0  0
   30.0600   40.3457    1.9973 O   0  0  0  0  0  0  0  0  0  0  0  0
   27.7013   41.4435   -1.4882 C   0  0  2  0  0  0  0  0  0  0  0  0
   27.3670   41.8068   -2.8895 N   0  0  0  0  0  0  0  0  0  0  0  0
   27.9853   37.1858    0.6719 C   0  0  1  0  0  0  0  0  0  0  0  0
   26.8937   33.1983    2.9154 C   0  0  1  0  0  0  0  0  0  0  0  0
   30.8971   38.7218    3.6657 C   0  0  2  0  0  0  0  0  0  0  0  0
   29.5664   38.1285    3.8284 N   0  0  0  0  0  0  0  0  0  0  0  0
   28.8000   42.4193   -0.9604 C   0  0  0  0  0  0  0  0  0  0  0  0
   28.5337   35.7443    0.5672 C   0  0  2  0  0  0  0  0  0  0  0  0
   27.9160   35.0153   -0.4985 O   0  0  0  0  0  0  0  0  0  0  0  0
   28.2355   32.3538    3.0078 C   0  0  2  0  0  0  0  0  0  0  0  0
   28.7386   31.8612    1.6891 N   0  0  0  0  0  0  0  0  0  0  0  0
   31.1592   39.7541    4.7953 C   0  0  1  0  0  0  0  0  0  0  0  0
   30.9993   39.1354    6.0691 O   0  0  0  0  0  0  0  0  0  0  0  0
   29.1974   42.0814    0.5059 C   0  0  2  0  0  0  0  0  0  0  0  0
   30.2264   43.0498    0.9294 N   0  0  0  0  0  0  0  0  0  0  0  0
   28.2640   35.1264    1.9498 C   0  0  2  0  0  0  0  0  0  0  0  0
   27.0169   34.3242    1.9733 O   0  0  0  0  0  0  0  0  0  0  0  0
   28.0320   31.1220    4.0012 C   0  0  1  0  0  0  0  0  0  0  0  0
   27.8548   31.5715    5.3626 O   0  0  0  0  0  0  0  0  0  0  0  0
   32.5833   40.3382    4.6480 C   0  0  2  0  0  0  0  0  0  0  0  0
   32.8353   41.2655    5.6827 O   0  0  0  0  0  0  0  0  0  0  0  0
   29.6934   40.5950    0.6001 C   0  0  2  0  0  0  0  0  0  0  0  0
   28.1720   36.3329    2.8798 C   0  0  2  0  0  0  0  0  0  0  0  0
   27.7922   37.4333    2.0656 O   0  0  0  0  0  0  0  0  0  0  0  0
   26.7910   30.2286    3.5971 C   0  0  2  0  0  0  0  0  0  0  0  0
   27.0679   29.5713    2.3490 O   0  0  0  0  0  0  0  0  0  0  0  0
   32.7424   41.0087    3.2689 C   0  0  2  0  0  0  0  0  0  0  0  0
   32.4465   40.0021    2.2254 O   0  0  0  0  0  0  0  0  0  0  0  0
   28.5304   39.6055    0.0892 C   0  0  2  0  0  0  0  0  0  0  0  0
   28.9372   38.1745    0.1164 O   0  0  0  0  0  0  0  0  0  0  0  0
   29.4880   36.6873    3.5565 C   0  0  0  0  0  0  0  0  0  0  0  0
   25.4965   31.1312    3.4793 C   0  0  1  0  0  0  0  0  0  0  0  0
   25.7200   32.3132    2.5792 O   0  0  0  0  0  0  0  0  0  0  0  0
   34.1772   41.5673    3.1237 C   0  0  0  0  0  0  0  0  0  0  0  0
   35.2241   40.7724    3.7917 N   0  0  0  0  0  0  0  0  0  0  0  0
   28.1750   39.9434   -1.3744 C   0  0  1  0  0  0  0  0  0  0  0  0
   27.1421   39.0635   -1.8299 O   0  0  0  0  0  0  0  0  0  0  0  0
   24.2152   30.3297    3.0286 C   0  0  0  0  0  0  0  0  0  0  0  0
   24.3783   29.4325    1.8403 N   0  0  0  0  0  0  0  0  0  0  0  0
  1  2  1  1  0  0  0
  1  7  1  0  0  0  0
  1 30  1  0  0  0  0
  3  4  1  6  0  0  0
  3  9  1  0  0  0  0
  3 38  1  0  0  0  0
  5 10  1  0  0  0  0
  5 26  1  1  0  0  0
  5 32  1  0  0  0  0
  6 12  1  0  0  0  0
  6 35  1  0  0  0  0
  6 19  1  6  0  0  0
  7  8  1  6  0  0  0
  7 14  1  0  0  0  0
  8 33  1  0  0  0  0
  9 16  1  0  0  0  0
 10 11  1  6  0  0  0
 10 18  1  0  0  0  0
 12 13  1  6  0  0  0
 12 20  1  0  0  0  0
 14 15  1  1  0  0  0
 14 22  1  0  0  0  0
 16 17  1  6  0  0  0
 16 24  1  0  0  0  0
 18 19  1  6  0  0  0
 18 25  1  0  0  0  0
 20 21  1  1  0  0  0
 20 27  1  0  0  0  0
 22 23  1  1  0  0  0
 22 29  1  0  0  0  0
 24  2  1  1  0  0  0
 24 31  1  0  0  0  0
 25 26  1  6  0  0  0
 25 33  1  0  0  0  0
 27 28  1  6  0  0  0
 27 34  1  0  0  0  0
 29 30  1  0  0  0  0
 29 36  1  6  0  0  0
 31 32  1  6  0  0  0
 31 38  1  0  0  0  0
 34 35  1  0  0  0  0
 34 40  1  6  0  0  0
 36 37  1  0  0  0  0
 38 39  1  1  0  0  0
 40 41  1  0  0  0  0
M  END
>  <CHROM.1>
151.81237960,-41.29841757,33.93372443,-48.37788748,28.97332406,37.03842475
2.10923848,-0.92709730,0.79666984,2.55697237

>  <Name>
ligand

>  <RI>
0

>  <Rbt.Current_Directory>
/home/itssahil/PROJECTS/Mol_Feturizer/New_Systems/rnas/1ZZ5

>  <Rbt.Executable>
rbdock ($Id: //depot/dev/client3/rdock/2013.1/src/exe/rbdock.cxx#4 $)

>  <Rbt.Library>
libRbt.so (2013.1, Build901 2013/11/27)

>  <Rbt.Parameter_File>
/export/apps/rDock/src/rDock_2013.1_src/data/scripts/dock_solv.prm

>  <Rbt.Receptor>
prm/blind_docking_60.prm

>  <SCORE>
44.4123

>  <SCORE.INTER>
20.4806

>  <SCORE.INTER.CONST>
1

>  <SCORE.INTER.POLAR>
0

>  <SCORE.INTER.ROT>
4

>  <SCORE.INTER.SOLV>
26.3811

>  <SCORE.INTER.VDW>
-1.40665

>  <SCORE.INTER.norm>
0.499526

>  <SCORE.INTRA>
3.34152

>  <SCORE.INTRA.DIHEDRAL>
2.35496

>  <SCORE.INTRA.DIHEDRAL.0>
5.18357

>  <SCORE.INTRA.POLAR>
0

>  <SCORE.INTRA.POLAR.0>
0

>  <SCORE.INTRA.REPUL>
0

>  <SCORE.INTRA.REPUL.0>
0

>  <SCORE.INTRA.SOLV>
2.92087

>  <SCORE.INTRA.SOLV.lig_0>
-109.973

>  <SCORE.INTRA.VDW>
0.70361

>  <SCORE.INTRA.VDW.0>
-1.68646

>  <SCORE.INTRA.norm>
0.0815005

>  <SCORE.RESTR>
20.5902

>  <SCORE.RESTR.CAVITY>
20.5902

>  <SCORE.RESTR.norm>
0.5022

>  <SCORE.SYSTEM>
0

>  <SCORE.SYSTEM.CONST>
0

>  <SCORE.SYSTEM.DIHEDRAL>
0

>  <SCORE.SYSTEM.SOLV>
0

>  <SCORE.SYSTEM.norm>
0

>  <SCORE.heavy>
41

>  <SCORE.norm>
1.08323

>  <RMSD>
13.612

$$$$
ligand
 OpenBabel11021811423D
libRbt.so/2013.1/901 2013/11/27
 41 45  0  0  0  0  0  0  0  0999 V2000
   31.0936   39.3779    2.2674 C   0  0  2  0  0  0  0  0  0  0  0  0
   30.0538   40.3369    1.9924 O   0  0  0  0  0  0  0  0  0  0  0  0
   27.6963   41.4311   -1.4951 C   0  0  2  0  0  0  0  0  0  0  0  0
   27.3625   41.7931   -2.8969 N   0  0  0  0  0  0  0  0  0  0  0  0
   27.9803   37.1755    0.6690 C   0  0  1  0  0  0  0  0  0  0  0  0
   26.8849   33.1958    2.9223 C   0  0  1  0  0  0  0  0  0  0  0  0
   30.8906   38.7147    3.6626 C   0  0  2  0  0  0  0  0  0  0  0  0
   29.5599   38.1213    3.8253 N   0  0  0  0  0  0  0  0  0  0  0  0
   28.7946   42.4076   -0.9677 C   0  0  0  0  0  0  0  0  0  0  0  0
   28.5290   35.7339    0.5658 C   0  0  2  0  0  0  0  0  0  0  0  0
   27.9120   35.0039   -0.4995 O   0  0  0  0  0  0  0  0  0  0  0  0
   28.2264   32.3524    3.0269 C   0  0  2  0  0  0  0  0  0  0  0  0
   28.7355   31.8503    1.7140 N   0  0  0  0  0  0  0  0  0  0  0  0
   31.1520   39.7481    4.7913 C   0  0  1  0  0  0  0  0  0  0  0  0
   30.9917   39.1305    6.0656 O   0  0  0  0  0  0  0  0  0  0  0  0
   29.1915   42.0711    0.4991 C   0  0  2  0  0  0  0  0  0  0  0  0
   30.2201   43.0401    0.9221 N   0  0  0  0  0  0  0  0  0  0  0  0
   28.2589   35.1173    1.9488 C   0  0  2  0  0  0  0  0  0  0  0  0
   27.0119   34.3148    1.9726 O   0  0  0  0  0  0  0  0  0  0  0  0
   28.0187   31.1278    4.0284 C   0  0  1  0  0  0  0  0  0  0  0  0
   27.8354   31.5872    5.3856 O   0  0  0  0  0  0  0  0  0  0  0  0
   32.5760   40.3324    4.6441 C   0  0  2  0  0  0  0  0  0  0  0  0
   32.8273   41.2607    5.6781 O   0  0  0  0  0  0  0  0  0  0  0  0
   29.6877   40.5849    0.5948 C   0  0  2  0  0  0  0  0  0  0  0  0
   28.1663   36.3246    2.8778 C   0  0  2  0  0  0  0  0  0  0  0  0
   27.7865   37.4241    2.0624 O   0  0  0  0  0  0  0  0  0  0  0  0
   26.7798   30.2311    3.6253 C   0  0  2  0  0  0  0  0  0  0  0  0
   27.0623   29.5649    2.3832 O   0  0  0  0  0  0  0  0  0  0  0  0
   32.7355   41.0017    3.2645 C   0  0  2  0  0  0  0  0  0  0  0  0
   32.4403   39.9941    2.2218 O   0  0  0  0  0  0  0  0  0  0  0  0
   28.5252   39.5947    0.0843 C   0  0  2  0  0  0  0  0  0  0  0  0
   28.9322   38.1638    0.1130 O   0  0  0  0  0  0  0  0  0  0  0  0
   29.4819   36.6799    3.5546 C   0  0  0  0  0  0  0  0  0  0  0  0
   25.4856   31.1325    3.4951 C   0  0  1  0  0  0  0  0  0  0  0  0
   25.7129   32.3079    2.5873 O   0  0  0  0  0  0  0  0  0  0  0  0
   34.1703   41.5604    3.1194 C   0  0  0  0  0  0  0  0  0  0  0  0
   35.2182   40.7615    3.7810 N   0  0  0  0  0  0  0  0  0  0  0  0
   28.1702   39.9313   -1.3798 C   0  0  1  0  0  0  0  0  0  0  0  0
   27.1378   39.0507   -1.8349 O   0  0  0  0  0  0  0  0  0  0  0  0
   24.2065   30.3274    3.0445 C   0  0  0  0  0  0  0  0  0  0  0  0
   24.3789   29.4105    1.8728 N   0  0  0  0  0  0  0  0  0  0  0  0
  1  2  1  1  0  0  0
  1  7  1  0  0  0  0
  1 30  1  0  0  0  0
  3  4  1  6  0  0  0
  3  9  1  0  0  0  0
  3 38  1  0  0  0  0
  5 10  1  0  0  0  0
  5 26  1  1  0  0  0
  5 32  1  0  0  0  0
  6 12  1  0  0  0  0
  6 35  1  0  0  0  0
  6 19  1  6  0  0  0
  7  8  1  6  0  0  0
  7 14  1  0  0  0  0
  8 33  1  0  0  0  0
  9 16  1  0  0  0  0
 10 11  1  6  0  0  0
 10 18  1  0  0  0  0
 12 13  1  6  0  0  0
 12 20  1  0  0  0  0
 14 15  1  1  0  0  0
 14 22  1  0  0  0  0
 16 17  1  6  0  0  0
 16 24  1  0  0  0  0
 18 19  1  6  0  0  0
 18 25  1  0  0  0  0
 20 21  1  1  0  0  0
 20 27  1  0  0  0  0
 22 23  1  1  0  0  0
 22 29  1  0  0  0  0
 24  2  1  1  0  0  0
 24 31  1  0  0  0  0
 25 26  1  6  0  0  0
 25 33  1  0  0  0  0
 27 28  1  6  0  0  0
 27 34  1  0  0  0  0
 29 30  1  0  0  0  0
 29 36  1  6  0  0  0
 31 32  1  6  0  0  0
 31 38  1  0  0  0  0
 34 35  1  0  0  0  0
 34 40  1  6  0  0  0
 36 37  1  0  0  0  0
 38 39  1  1  0  0  0
 40 41  1  0  0  0  0
M  END
>  <CHROM.1>
152.24948165,-41.30526139,34.32268147,-47.73939695,28.96670415,37.03110894
2.11190574,-0.92703881,0.79664641,2.55388081

>  <Name>
ligand

>  <RI>
0

>  <Rbt.Current_Directory>
/home/itssahil/PROJECTS/Mol_Feturizer/New_Systems/rnas/1ZZ5

>  <Rbt.Executable>
rbdock ($Id: //depot/dev/client3/rdock/2013.1/src/exe/rbdock.cxx#4 $)

>  <Rbt.Library>
libRbt.so (2013.1, Build901 2013/11/27)

>  <Rbt.Parameter_File>
/export/apps/rDock/src/rDock_2013.1_src/data/scripts/dock_solv.prm

>  <Rbt.Receptor>
prm/blind_docking_60.prm

>  <SCORE>
44.5591

>  <SCORE.INTER>
20.7089

>  <SCORE.INTER.CONST>
1

>  <SCORE.INTER.POLAR>
0

>  <SCORE.INTER.ROT>
4

>  <SCORE.INTER.SOLV>
26.4257

>  <SCORE.INTER.VDW>
-1.26929

>  <SCORE.INTER.norm>
0.505096

>  <SCORE.INTRA>
3.29384

>  <SCORE.INTRA.DIHEDRAL>
2.26921

>  <SCORE.INTRA.DIHEDRAL.0>
5.18357

>  <SCORE.INTRA.POLAR>
0

>  <SCORE.INTRA.POLAR.0>
0

>  <SCORE.INTRA.REPUL>
0

>  <SCORE.INTRA.REPUL.0>
0

>  <SCORE.INTRA.SOLV>
2.90621

>  <SCORE.INTRA.SOLV.lig_0>
-109.973

>  <SCORE.INTRA.VDW>
0.706127

>  <SCORE.INTRA.VDW.0>
-1.68646

>  <SCORE.INTRA.norm>
0.0803375

>  <SCORE.RESTR>
20.5563

>  <SCORE.RESTR.CAVITY>
20.5563

>  <SCORE.RESTR.norm>
0.501373

>  <SCORE.SYSTEM>
0

>  <SCORE.SYSTEM.CONST>
0

>  <SCORE.SYSTEM.DIHEDRAL>
0

>  <SCORE.SYSTEM.SOLV>
0

>  <SCORE.SYSTEM.norm>
0

>  <SCORE.heavy>
41

>  <SCORE.norm>
1.08681

>  <RMSD>
13.616

$$$$
ligand
 OpenBabel11021811423D
libRbt.so/2013.1/901 2013/11/27
 41 45  0  0  0  0  0  0  0  0999 V2000
   31.0769   39.3690    2.2800 C   0  0  2  0  0  0  0  0  0  0  0  0
   30.0318   40.3273    2.0236 O   0  0  0  0  0  0  0  0  0  0  0  0
   27.6391   41.4471   -1.4316 C   0  0  2  0  0  0  0  0  0  0  0  0
   27.2913   41.8212   -2.8267 N   0  0  0  0  0  0  0  0  0  0  0  0
   27.9558   37.1721    0.6894 C   0  0  1  0  0  0  0  0  0  0  0  0
   26.8875   33.1769    2.9248 C   0  0  1  0  0  0  0  0  0  0  0  0
   30.8888   38.6920    3.6707 C   0  0  2  0  0  0  0  0  0  0  0  0
   29.5615   38.0929    3.8399 N   0  0  0  0  0  0  0  0  0  0  0  0
   28.7393   42.4219   -0.9050 C   0  0  0  0  0  0  0  0  0  0  0  0
   28.5079   35.7333    0.5675 C   0  0  2  0  0  0  0  0  0  0  0  0
   27.8832   35.0114   -0.4989 O   0  0  0  0  0  0  0  0  0  0  0  0
   28.2330   32.3396    3.0276 C   0  0  2  0  0  0  0  0  0  0  0  0
   28.7423   31.8394    1.7141 N   0  0  0  0  0  0  0  0  0  0  0  0
   31.1575   39.7155    4.8067 C   0  0  1  0  0  0  0  0  0  0  0  0
   31.0107   39.0854    6.0765 O   0  0  0  0  0  0  0  0  0  0  0  0
   29.1506   42.0729    0.5548 C   0  0  2  0  0  0  0  0  0  0  0  0
   30.1801   43.0410    0.9776 N   0  0  0  0  0  0  0  0  0  0  0  0
   28.2523   35.1028    1.9471 C   0  0  2  0  0  0  0  0  0  0  0  0
   27.0080   34.2962    1.9747 O   0  0  0  0  0  0  0  0  0  0  0  0
   28.0324   31.1143    4.0296 C   0  0  1  0  0  0  0  0  0  0  0  0
   27.8491   31.5732    5.3871 O   0  0  0  0  0  0  0  0  0  0  0  0
   32.5783   40.3055    4.6519 C   0  0  2  0  0  0  0  0  0  0  0  0
   32.8363   41.2248    5.6924 O   0  0  0  0  0  0  0  0  0  0  0  0
   29.6521   40.5873    0.6318 C   0  0  2  0  0  0  0  0  0  0  0  0
   28.1646   36.3009    2.8882 C   0  0  2  0  0  0  0  0  0  0  0  0
   27.7741   37.4070    2.0868 O   0  0  0  0  0  0  0  0  0  0  0  0
   26.7969   30.2119    3.6287 C   0  0  2  0  0  0  0  0  0  0  0  0
   27.0805   29.5467    2.3863 O   0  0  0  0  0  0  0  0  0  0  0  0
   32.7231   40.9883    3.2773 C   0  0  2  0  0  0  0  0  0  0  0  0
   32.4213   39.9897    2.2279 O   0  0  0  0  0  0  0  0  0  0  0  0
   28.4879   39.5984    0.1227 C   0  0  2  0  0  0  0  0  0  0  0  0
   28.8996   38.1686    0.1341 O   0  0  0  0  0  0  0  0  0  0  0  0
   29.4854   36.6539    3.5564 C   0  0  0  0  0  0  0  0  0  0  0  0
   25.4985   31.1074    3.5002 C   0  0  1  0  0  0  0  0  0  0  0  0
   25.7190   32.2836    2.5919 O   0  0  0  0  0  0  0  0  0  0  0  0
   34.1548   41.5528    3.1244 C   0  0  0  0  0  0  0  0  0  0  0  0
   34.5019   42.6309    4.0686 N   0  0  0  0  0  0  0  0  0  0  0  0
   28.1186   39.9477   -1.3348 C   0  0  1  0  0  0  0  0  0  0  0  0
   27.0846   39.0682   -1.7888 O   0  0  0  0  0  0  0  0  0  0  0  0
   24.2223   30.2964    3.0519 C   0  0  0  0  0  0  0  0  0  0  0  0
   24.3984   29.3761    1.8834 N   0  0  0  0  0  0  0  0  0  0  0  0
  1  2  1  1  0  0  0
  1  7  1  0  0  0  0
  1 30  1  0  0  0  0
  3  4  1  6  0  0  0
  3  9  1  0  0  0  0
  3 38  1  0  0  0  0
  5 10  1  0  0  0  0
  5 26  1  1  0  0  0
  5 32  1  0  0  0  0
  6 12  1  0  0  0  0
  6 35  1  0  0  0  0
  6 19  1  6  0  0  0
  7  8  1  6  0  0  0
  7 14  1  0  0  0  0
  8 33  1  0  0  0  0
  9 16  1  0  0  0  0
 10 11  1  6  0  0  0
 10 18  1  0  0  0  0
 12 13  1  6  0  0  0
 12 20  1  0  0  0  0
 14 15  1  1  0  0  0
 14 22  1  0  0  0  0
 16 17  1  6  0  0  0
 16 24  1  0  0  0  0
 18 19  1  6  0  0  0
 18 25  1  0  0  0  0
 20 21  1  1  0  0  0
 20 27  1  0  0  0  0
 22 23  1  1  0  0  0
 22 29  1  0  0  0  0
 24  2  1  1  0  0  0
 24 31  1  0  0  0  0
 25 26  1  6  0  0  0
 25 33  1  0  0  0  0
 27 28  1  6  0  0  0
 27 34  1  0  0  0  0
 29 30  1  0  0  0  0
 29 36  1  6  0  0  0
 31 32  1  6  0  0  0
 31 38  1  0  0  0  0
 34 35  1  0  0  0  0
 34 40  1  6  0  0  0
 36 37  1  0  0  0  0
 38 39  1  1  0  0  0
 40 41  1  0  0  0  0
M  END
>  <CHROM.1>
152.89917799,-41.19276276,-64.54473325,-47.51172430,28.93765555,37.06524239
2.13659778,-0.92392980,0.81814960,2.55374461

>  <Name>
ligand

>  <RI>
0

>  <Rbt.Current_Directory>
/home/itssahil/PROJECTS/Mol_Feturizer/New_Systems/rnas/1ZZ5

>  <Rbt.Executable>
rbdock ($Id: //depot/dev/client3/rdock/2013.1/src/exe/rbdock.cxx#4 $)

>  <Rbt.Library>
libRbt.so (2013.1, Build901 2013/11/27)

>  <Rbt.Parameter_File>
/export/apps/rDock/src/rDock_2013.1_src/data/scripts/dock_solv.prm

>  <Rbt.Receptor>
prm/blind_docking_60.prm

>  <SCORE>
42.3379

>  <SCORE.INTER>
19.8295

>  <SCORE.INTER.CONST>
1

>  <SCORE.INTER.POLAR>
0

>  <SCORE.INTER.ROT>
4

>  <SCORE.INTER.SOLV>
25.7656

>  <SCORE.INTER.VDW>
-1.63551

>  <SCORE.INTER.norm>
0.483647

>  <SCORE.INTRA>
1.96791

>  <SCORE.INTRA.DIHEDRAL>
0.211027

>  <SCORE.INTRA.DIHEDRAL.0>
5.18357

>  <SCORE.INTRA.POLAR>
0

>  <SCORE.INTRA.POLAR.0>
0

>  <SCORE.INTRA.REPUL>
0

>  <SCORE.INTRA.REPUL.0>
0

>  <SCORE.INTRA.SOLV>
2.44941

>  <SCORE.INTRA.SOLV.lig_0>
-109.973

>  <SCORE.INTRA.VDW>
0.637692

>  <SCORE.INTRA.VDW.0>
-1.68646

>  <SCORE.INTRA.norm>
0.0479979

>  <SCORE.RESTR>
20.5405

>  <SCORE.RESTR.CAVITY>
20.5405

>  <SCORE.RESTR.norm>
0.500987

>  <SCORE.SYSTEM>
0

>  <SCORE.SYSTEM.CONST>
0

>  <SCORE.SYSTEM.DIHEDRAL>
0

>  <SCORE.SYSTEM.SOLV>
0

>  <SCORE.SYSTEM.norm>
0

>  <SCORE.heavy>
41

>  <SCORE.norm>
1.03263

>  <RMSD>
13.621

$$$$
ligand
 OpenBabel11021811423D
libRbt.so/2013.1/901 2013/11/27
 41 45  0  0  0  0  0  0  0  0999 V2000
   31.0388   39.3725    2.2773 C   0  0  2  0  0  0  0  0  0  0  0  0
   29.9827   40.3253    2.0464 O   0  0  0  0  0  0  0  0  0  0  0  0
   27.5362   41.4678   -1.3635 C   0  0  2  0  0  0  0  0  0  0  0  0
   27.1673   41.8562   -2.7492 N   0  0  0  0  0  0  0  0  0  0  0  0
   27.9149   37.1698    0.7002 C   0  0  1  0  0  0  0  0  0  0  0  0
   26.9013   33.1495    2.9114 C   0  0  1  0  0  0  0  0  0  0  0  0
   30.8742   38.6770    3.6618 C   0  0  2  0  0  0  0  0  0  0  0  0
   29.5541   38.0650    3.8408 N   0  0  0  0  0  0  0  0  0  0  0  0
   28.6353   42.4451   -0.8391 C   0  0  0  0  0  0  0  0  0  0  0  0
   28.4769   35.7372    0.5533 C   0  0  2  0  0  0  0  0  0  0  0  0
   27.8442   35.0233   -0.5138 O   0  0  0  0  0  0  0  0  0  0  0  0
   28.2625   32.3393    3.0255 C   0  0  2  0  0  0  0  0  0  0  0  0
   28.7924   31.8491    1.7164 N   0  0  0  0  0  0  0  0  0  0  0  0
   31.1495   39.6886    4.8069 C   0  0  1  0  0  0  0  0  0  0  0  0
   31.0244   39.0417    6.0706 O   0  0  0  0  0  0  0  0  0  0  0  0
   29.0684   42.0815    0.6108 C   0  0  2  0  0  0  0  0  0  0  0  0
   30.0955   43.0527    1.0322 N   0  0  0  0  0  0  0  0  0  0  0  0
   28.2444   35.0877    1.9282 C   0  0  2  0  0  0  0  0  0  0  0  0
   27.0071   34.2707    1.9618 O   0  0  0  0  0  0  0  0  0  0  0  0
   28.0783   31.1105    4.0264 C   0  0  1  0  0  0  0  0  0  0  0  0
   27.8748   31.5660    5.3821 O   0  0  0  0  0  0  0  0  0  0  0  0
   32.5634   40.2921    4.6411 C   0  0  2  0  0  0  0  0  0  0  0  0
   32.8275   41.2006    5.6894 O   0  0  0  0  0  0  0  0  0  0  0  0
   29.5829   40.5993    0.6630 C   0  0  2  0  0  0  0  0  0  0  0  0
   28.1594   36.2734    2.8851 C   0  0  2  0  0  0  0  0  0  0  0  0
   27.7495   37.3860    2.1026 O   0  0  0  0  0  0  0  0  0  0  0  0
   26.8645   30.1834    3.6157 C   0  0  2  0  0  0  0  0  0  0  0  0
   27.1715   29.5236    2.3760 O   0  0  0  0  0  0  0  0  0  0  0  0
   32.6848   40.9929    3.2733 C   0  0  2  0  0  0  0  0  0  0  0  0
   32.3774   40.0048    2.2155 O   0  0  0  0  0  0  0  0  0  0  0  0
   28.4201   39.6072    0.1567 C   0  0  2  0  0  0  0  0  0  0  0  0
   28.8433   38.1808    0.1451 O   0  0  0  0  0  0  0  0  0  0  0  0
   29.4859   36.6290    3.5404 C   0  0  0  0  0  0  0  0  0  0  0  0
   25.5495   31.0527    3.4764 C   0  0  1  0  0  0  0  0  0  0  0  0
   25.7538   32.2328    2.5694 O   0  0  0  0  0  0  0  0  0  0  0  0
   34.1097   41.5710    3.1088 C   0  0  0  0  0  0  0  0  0  0  0  0
   34.4895   42.5828    4.1119 N   0  0  0  0  0  0  0  0  0  0  0  0
   28.0290   39.9713   -1.2915 C   0  0  1  0  0  0  0  0  0  0  0  0
   26.9963   39.0890   -1.7429 O   0  0  0  0  0  0  0  0  0  0  0  0
   24.2935   30.2161    3.0180 C   0  0  0  0  0  0  0  0  0  0  0  0
   23.9447   29.0280    3.8607 N   0  0  0  0  0  0  0  0  0  0  0  0
  1  2  1  1  0  0  0
  1  7  1  0  0  0  0
  1 30  1  0  0  0  0
  3  4  1  6  0  0  0
  3  9  1  0  0  0  0
  3 38  1  0  0  0  0
  5 10  1  0  0  0  0
  5 26  1  1  0  0  0
  5 32  1  0  0  0  0
  6 12  1  0  0  0  0
  6 35  1  0  0  0  0
  6 19  1  6  0  0  0
  7  8  1  1  0  0  0
  7 14  1  0  0  0  0
  8 33  1  0  0  0  0
  9 16  1  0  0  0  0
 10 11  1  6  0  0  0
 10 18  1  0  0  0  0
 12 13  1  6  0  0  0
 12 20  1  0  0  0  0
 14 15  1  1  0  0  0
 14 22  1  0  0  0  0
 16 17  1  6  0  0  0
 16 24  1  0  0  0  0
 18 19  1  6  0  0  0
 18 25  1  0  0  0  0
 20 21  1  1  0  0  0
 20 27  1  0  0  0  0
 22 23  1  1  0  0  0
 22 29  1  0  0  0  0
 24  2  1  1  0  0  0
 24 31  1  0  0  0  0
 25 26  1  6  0  0  0
 25 33  1  0  0  0  0
 27 28  1  6  0  0  0
 27 34  1  0  0  0  0
 29 30  1  0  0  0  0
 29 36  1  6  0  0  0
 31 32  1  6  0  0  0
 31 38  1  0  0  0  0
 34 35  1  0  0  0  0
 34 40  1  6  0  0  0
 36 37  1  0  0  0  0
 38 39  1  1  0  0  0
 40 41  1  0  0  0  0
M  END
>  <CHROM.1>
153.67262075,-40.15724454,-61.05133053,55.44405878,28.90744748,37.04812344
2.19176545,-0.95096481,0.80232487,2.55893210

>  <Name>
ligand

>  <RI>
0

>  <Rbt.Current_Directory>
/home/itssahil/PROJECTS/Mol_Feturizer/New_Systems/rnas/1ZZ5

>  <Rbt.Executable>
rbdock ($Id: //depot/dev/client3/rdock/2013.1/src/exe/rbdock.cxx#4 $)

>  <Rbt.Library>
libRbt.so (2013.1, Build901 2013/11/27)

>  <Rbt.Parameter_File>
/export/apps/rDock/src/rDock_2013.1_src/data/scripts/dock_solv.prm

>  <Rbt.Receptor>
prm/blind_docking_60.prm

>  <SCORE>
40.7092

>  <SCORE.INTER>
19.3328

>  <SCORE.INTER.CONST>
1

>  <SCORE.INTER.POLAR>
0

>  <SCORE.INTER.ROT>
4

>  <SCORE.INTER.SOLV>
25.4196

>  <SCORE.INTER.VDW>
-1.85132

>  <SCORE.INTER.norm>
0.471532

>  <SCORE.INTRA>
1.23305

>  <SCORE.INTRA.DIHEDRAL>
-0.258919

>  <SCORE.INTRA.DIHEDRAL.0>
5.18357

>  <SCORE.INTRA.POLAR>
0

>  <SCORE.INTRA.POLAR.0>
0

>  <SCORE.INTRA.REPUL>
0

>  <SCORE.INTRA.REPUL.0>
0

>  <SCORE.INTRA.SOLV>
1.29021

>  <SCORE.INTRA.SOLV.lig_0>
-109.973

>  <SCORE.INTRA.VDW>
0.71741

>  <SCORE.INTRA.VDW.0>
-1.68646

>  <SCORE.INTRA.norm>
0.0300745

>  <SCORE.RESTR>
20.1434

>  <SCORE.RESTR.CAVITY>
20.1434

>  <SCORE.RESTR.norm>
0.491302

>  <SCORE.SYSTEM>
0

>  <SCORE.SYSTEM.CONST>
0

>  <SCORE.SYSTEM.DIHEDRAL>
0

>  <SCORE.SYSTEM.SOLV>
0

>  <SCORE.SYSTEM.norm>
0

>  <SCORE.heavy>
41

>  <SCORE.norm>
0.992908

>  <RMSD>
13.631

$$$$
ligand
 OpenBabel11021811423D
libRbt.so/2013.1/901 2013/11/27
 41 45  0  0  0  0  0  0  0  0999 V2000
   31.0879   39.3768    2.2611 C   0  0  2  0  0  0  0  0  0  0  0  0
   30.0475   40.3347    1.9845 O   0  0  0  0  0  0  0  0  0  0  0  0
   27.6905   41.4230   -1.5052 C   0  0  2  0  0  0  0  0  0  0  0  0
   27.3570   41.7830   -2.9075 N   0  0  0  0  0  0  0  0  0  0  0  0
   27.9767   37.1702    0.6643 C   0  0  1  0  0  0  0  0  0  0  0  0
   26.8505   33.2449    2.9757 C   0  0  1  0  0  0  0  0  0  0  0  0
   30.8848   38.7152    3.6570 C   0  0  2  0  0  0  0  0  0  0  0  0
   29.5546   38.1211    3.8200 N   0  0  0  0  0  0  0  0  0  0  0  0
   28.7880   42.4009   -0.9786 C   0  0  0  0  0  0  0  0  0  0  0  0
   28.5264   35.7289    0.5631 C   0  0  2  0  0  0  0  0  0  0  0  0
   27.9102   34.9971   -0.5015 O   0  0  0  0  0  0  0  0  0  0  0  0
   28.0219   32.1754    2.8956 C   0  0  2  0  0  0  0  0  0  0  0  0
   28.2067   31.5732    1.5399 N   0  0  0  0  0  0  0  0  0  0  0  0
   31.1452   39.7501    4.7846 C   0  0  1  0  0  0  0  0  0  0  0  0
   30.9848   39.1340    6.0596 O   0  0  0  0  0  0  0  0  0  0  0  0
   29.1846   42.0665    0.4887 C   0  0  2  0  0  0  0  0  0  0  0  0
   30.2124   43.0367    0.9110 N   0  0  0  0  0  0  0  0  0  0  0  0
   28.2562   35.1138    1.9468 C   0  0  2  0  0  0  0  0  0  0  0  0
   27.0098   34.3105    1.9712 O   0  0  0  0  0  0  0  0  0  0  0  0
   27.7747   31.0210    3.9689 C   0  0  1  0  0  0  0  0  0  0  0  0
   27.9058   31.5233    5.3170 O   0  0  0  0  0  0  0  0  0  0  0  0
   32.5688   40.3352    4.6371 C   0  0  2  0  0  0  0  0  0  0  0  0
   32.8192   41.2649    5.6701 O   0  0  0  0  0  0  0  0  0  0  0  0
   29.6818   40.5807    0.5865 C   0  0  2  0  0  0  0  0  0  0  0  0
   28.1624   36.3222    2.8742 C   0  0  2  0  0  0  0  0  0  0  0  0
   27.7822   37.4205    2.0573 O   0  0  0  0  0  0  0  0  0  0  0  0
   26.3480   30.3566    3.8123 C   0  0  2  0  0  0  0  0  0  0  0  0
   26.2963   29.6345    2.5704 O   0  0  0  0  0  0  0  0  0  0  0  0
   32.7284   41.0029    3.2567 C   0  0  2  0  0  0  0  0  0  0  0  0
   32.4342   39.9938    2.2152 O   0  0  0  0  0  0  0  0  0  0  0  0
   28.5201   39.5891    0.0768 C   0  0  2  0  0  0  0  0  0  0  0  0
   28.9281   38.1585    0.1074 O   0  0  0  0  0  0  0  0  0  0  0  0
   29.4776   36.6792    3.5511 C   0  0  0  0  0  0  0  0  0  0  0  0
   25.2285   31.4741    3.8570 C   0  0  1  0  0  0  0  0  0  0  0  0
   25.5018   32.5779    2.8750 O   0  0  0  0  0  0  0  0  0  0  0  0
   34.1628   41.5624    3.1114 C   0  0  0  0  0  0  0  0  0  0  0  0
   35.2088   40.7747    3.7894 N   0  0  0  0  0  0  0  0  0  0  0  0
   28.1655   39.9236   -1.3878 C   0  0  1  0  0  0  0  0  0  0  0  0
   27.1337   39.0417   -1.8422 O   0  0  0  0  0  0  0  0  0  0  0  0
   23.7708   30.9063    3.6563 C   0  0  0  0  0  0  0  0  0  0  0  0
   23.2908   29.9325    4.6880 N   0  0  0  0  0  0  0  0  0  0  0  0
  1  2  1  1  0  0  0
  1  7  1  0  0  0  0
  1 30  1  0  0  0  0
  3  4  1  6  0  0  0
  3  9  1  0  0  0  0
  3 38  1  0  0  0  0
  5 10  1  0  0  0  0
  5 26  1  1  0  0  0
  5 32  1  0  0  0  0
  6 12  1  0  0  0  0
  6 35  1  0  0  0  0
  6 19  1  6  0  0  0
  7  8  1  6  0  0  0
  7 14  1  0  0  0  0
  8 33  1  0  0  0  0
  9 16  1  0  0  0  0
 10 11  1  6  0  0  0
 10 18  1  0  0  0  0
 12 13  1  6  0  0  0
 12 20  1  0  0  0  0
 14 15  1  1  0  0  0
 14 22  1  0  0  0  0
 16 17  1  6  0  0  0
 16 24  1  0  0  0  0
 18 19  1  6  0  0  0
 18 25  1  0  0  0  0
 20 21  1  1  0  0  0
 20 27  1  0  0  0  0
 22 23  1  1  0  0  0
 22 29  1  0  0  0  0
 24  2  1  1  0  0  0
 24 31  1  0  0  0  0
 25 26  1  6  0  0  0
 25 33  1  0  0  0  0
 27 28  1  6  0  0  0
 27 34  1  0  0  0  0
 29 30  1  0  0  0  0
 29 36  1  6  0  0  0
 31 32  1  6  0  0  0
 31 38  1  0  0  0  0
 34 35  1  0  0  0  0
 34 40  1  6  0  0  0
 36 37  1  0  0  0  0
 38 39  1  1  0  0  0
 40 41  1  0  0  0  0
M  END
>  <CHROM.1>
155.89901293,-56.93473786,33.54877899,61.86371344,28.86173869,37.06215217
2.20661172,-0.89589879,0.77070622,2.48394493

>  <Name>
ligand

>  <RI>
0

>  <Rbt.Current_Directory>
/home/itssahil/PROJECTS/Mol_Feturizer/New_Systems/rnas/1ZZ5

>  <Rbt.Executable>
rbdock ($Id: //depot/dev/client3/rdock/2013.1/src/exe/rbdock.cxx#4 $)

>  <Rbt.Library>
libRbt.so (2013.1, Build901 2013/11/27)

>  <Rbt.Parameter_File>
/export/apps/rDock/src/rDock_2013.1_src/data/scripts/dock_solv.prm

>  <Rbt.Receptor>
prm/blind_docking_60.prm

>  <SCORE>
41.8064

>  <SCORE.INTER>
19.8633

>  <SCORE.INTER.CONST>
1

>  <SCORE.INTER.POLAR>
0

>  <SCORE.INTER.ROT>
4

>  <SCORE.INTER.SOLV>
24.8596

>  <SCORE.INTER.VDW>
-1.31099

>  <SCORE.INTER.norm>
0.484471

>  <SCORE.INTRA>
1.05998

>  <SCORE.INTRA.DIHEDRAL>
-0.269539

>  <SCORE.INTRA.DIHEDRAL.0>
5.18357

>  <SCORE.INTRA.POLAR>
0

>  <SCORE.INTRA.POLAR.0>
0

>  <SCORE.INTRA.REPUL>
0

>  <SCORE.INTRA.REPUL.0>
0

>  <SCORE.INTRA.SOLV>
1.23179

>  <SCORE.INTRA.SOLV.lig_0>
-109.973

>  <SCORE.INTRA.VDW>
0.578859

>  <SCORE.INTRA.VDW.0>
-1.68646

>  <SCORE.INTRA.norm>
0.0258532

>  <SCORE.RESTR>
20.8831

>  <SCORE.RESTR.CAVITY>
20.8831

>  <SCORE.RESTR.norm>
0.509344

>  <SCORE.SYSTEM>
0

>  <SCORE.SYSTEM.CONST>
0

>  <SCORE.SYSTEM.DIHEDRAL>
0

>  <SCORE.SYSTEM.SOLV>
0

>  <SCORE.SYSTEM.norm>
0

>  <SCORE.heavy>
41

>  <SCORE.norm>
1.01967

>  <RMSD>
13.696

$$$$
ligand
 OpenBabel11021811423D
libRbt.so/2013.1/901 2013/11/27
 41 45  0  0  0  0  0  0  0  0999 V2000
   29.9242   40.0375    1.3931 C   0  0  2  0  0  0  0  0  0  0  0  0
   28.6802   40.5090    0.8395 O   0  0  0  0  0  0  0  0  0  0  0  0
   26.3427   39.6212   -2.7194 C   0  0  2  0  0  0  0  0  0  0  0  0
   26.0133   39.3671   -4.1457 N   0  0  0  0  0  0  0  0  0  0  0  0
   27.6498   36.6385    0.7834 C   0  0  1  0  0  0  0  0  0  0  0  0
   27.9014   32.8840    3.2913 C   0  0  1  0  0  0  0  0  0  0  0  0
   29.8224   39.8688    2.9387 C   0  0  2  0  0  0  0  0  0  0  0  0
   28.6997   39.0198    3.3483 N   0  0  0  0  0  0  0  0  0  0  0  0
   27.0924   40.9863   -2.6082 C   0  0  0  0  0  0  0  0  0  0  0  0
   28.5805   35.4663    1.1700 C   0  0  2  0  0  0  0  0  0  0  0  0
   28.2590   34.2711    0.4511 O   0  0  0  0  0  0  0  0  0  0  0  0
   28.1305   32.0797    1.9412 C   0  0  2  0  0  0  0  0  0  0  0  0
   26.9382   32.0482    1.0399 N   0  0  0  0  0  0  0  0  0  0  0  0
   29.7150   41.2575    3.6244 C   0  0  1  0  0  0  0  0  0  0  0  0
   29.6494   41.0998    5.0393 O   0  0  0  0  0  0  0  0  0  0  0  0
   27.4711   41.3034   -1.1323 C   0  0  2  0  0  0  0  0  0  0  0  0
   28.1627   42.6062   -1.1135 N   0  0  0  0  0  0  0  0  0  0  0  0
   28.4023   35.3162    2.6905 C   0  0  2  0  0  0  0  0  0  0  0  0
   27.4264   34.2556    3.0400 O   0  0  0  0  0  0  0  0  0  0  0  0
   28.5960   30.5898    2.2714 C   0  0  1  0  0  0  0  0  0  0  0  0
   29.9112   30.5729    2.8686 O   0  0  0  0  0  0  0  0  0  0  0  0
   30.9289   42.1298    3.2289 C   0  0  2  0  0  0  0  0  0  0  0  0
   30.8469   43.3889    3.8630 O   0  0  0  0  0  0  0  0  0  0  0  0
   28.3510   40.1452   -0.5419 C   0  0  2  0  0  0  0  0  0  0  0  0
   27.9202   36.6921    3.1416 C   0  0  2  0  0  0  0  0  0  0  0  0
   27.3053   37.2882    2.0082 O   0  0  0  0  0  0  0  0  0  0  0  0
   27.5890   29.8517    3.2424 C   0  0  2  0  0  0  0  0  0  0  0  0
   26.3432   29.6374    2.5579 O   0  0  0  0  0  0  0  0  0  0  0  0
   30.9863   42.2972    1.6974 C   0  0  2  0  0  0  0  0  0  0  0  0
   31.0486   40.9518    1.0845 O   0  0  0  0  0  0  0  0  0  0  0  0
   27.5424   38.7556   -0.6300 C   0  0  2  0  0  0  0  0  0  0  0  0
   28.3258   37.5988   -0.1183 O   0  0  0  0  0  0  0  0  0  0  0  0
   29.0402   37.6138    3.6017 C   0  0  0  0  0  0  0  0  0  0  0  0
   27.3687   30.7200    4.5469 C   0  0  1  0  0  0  0  0  0  0  0  0
   26.9786   32.1330    4.2179 O   0  0  0  0  0  0  0  0  0  0  0  0
   32.2174   43.1504    1.3124 C   0  0  0  0  0  0  0  0  0  0  0  0
   33.2351   43.2859    2.3707 N   0  0  0  0  0  0  0  0  0  0  0  0
   27.2037   38.4513   -2.1050 C   0  0  1  0  0  0  0  0  0  0  0  0
   26.4860   37.2155   -2.1845 O   0  0  0  0  0  0  0  0  0  0  0  0
   26.3354   30.0832    5.5539 C   0  0  0  0  0  0  0  0  0  0  0  0
   24.9146   30.0067    5.0860 N   0  0  0  0  0  0  0  0  0  0  0  0
  1  2  1  1  0  0  0
  1  7  1  0  0  0  0
  1 30  1  0  0  0  0
  3  4  1  6  0  0  0
  3  9  1  0  0  0  0
  3 38  1  0  0  0  0
  5 10  1  0  0  0  0
  5 26  1  1  0  0  0
  5 32  1  0  0  0  0
  6 12  1  0  0  0  0
  6 35  1  0  0  0  0
  6 19  1  6  0  0  0
  7  8  1  6  0  0  0
  7 14  1  0  0  0  0
  8 33  1  0  0  0  0
  9 16  1  0  0  0  0
 10 11  1  6  0  0  0
 10 18  1  0  0  0  0
 12 13  1  1  0  0  0
 12 20  1  0  0  0  0
 14 15  1  1  0  0  0
 14 22  1  0  0  0  0
 16 17  1  6  0  0  0
 16 24  1  0  0  0  0
 18 19  1  6  0  0  0
 18 25  1  0  0  0  0
 20 21  1  1  0  0  0
 20 27  1  0  0  0  0
 22 23  1  1  0  0  0
 22 29  1  0  0  0  0
 24  2  1  1  0  0  0
 24 31  1  0  0  0  0
 25 26  1  6  0  0  0
 25 33  1  0  0  0  0
 27 28  1  6  0  0  0
 27 34  1  0  0  0  0
 29 30  1  0  0  0  0
 29 36  1  1  0  0  0
 31 32  1  6  0  0  0
 31 38  1  0  0  0  0
 34 35  1  0  0  0  0
 34 40  1  1  0  0  0
 36 37  1  0  0  0  0
 38 39  1  1  0  0  0
 40 41  1  0  0  0  0
M  END
>  <CHROM.1>
92.48611222,-81.63948778,16.36138884,-66.46387000,28.39865622,37.08218962
1.65060445,-1.13091022,1.02283095,2.54070537

>  <Name>
ligand

>  <RI>
0

>  <Rbt.Current_Directory>
/home/itssahil/PROJECTS/Mol_Feturizer/New_Systems/rnas/1ZZ5

>  <Rbt.Executable>
rbdock ($Id: //depot/dev/client3/rdock/2013.1/src/exe/rbdock.cxx#4 $)

>  <Rbt.Library>
libRbt.so (2013.1, Build901 2013/11/27)

>  <Rbt.Parameter_File>
/export/apps/rDock/src/rDock_2013.1_src/data/scripts/dock_solv.prm

>  <Rbt.Receptor>
prm/blind_docking_60.prm

>  <SCORE>
35.7951

>  <SCORE.INTER>
6.39688

>  <SCORE.INTER.CONST>
1

>  <SCORE.INTER.POLAR>
0

>  <SCORE.INTER.ROT>
4

>  <SCORE.INTER.SOLV>
20.7056

>  <SCORE.INTER.VDW>
-8.90395

>  <SCORE.INTER.norm>
0.156021

>  <SCORE.INTRA>
6.19848

>  <SCORE.INTRA.DIHEDRAL>
5.61468

>  <SCORE.INTRA.DIHEDRAL.0>
5.18357

>  <SCORE.INTRA.POLAR>
0

>  <SCORE.INTRA.POLAR.0>
0

>  <SCORE.INTRA.REPUL>
0

>  <SCORE.INTRA.REPUL.0>
0

>  <SCORE.INTRA.SOLV>
3.95453

>  <SCORE.INTRA.SOLV.lig_0>
-109.973

>  <SCORE.INTRA.VDW>
1.41388

>  <SCORE.INTRA.VDW.0>
-1.68646

>  <SCORE.INTRA.norm>
0.151183

>  <SCORE.RESTR>
23.1997

>  <SCORE.RESTR.CAVITY>
23.1997

>  <SCORE.RESTR.norm>
0.565847

>  <SCORE.SYSTEM>
0

>  <SCORE.SYSTEM.CONST>
0

>  <SCORE.SYSTEM.DIHEDRAL>
0

>  <SCORE.SYSTEM.SOLV>
0

>  <SCORE.SYSTEM.norm>
0

>  <SCORE.heavy>
41

>  <SCORE.norm>
0.873051

>  <RMSD>
13.752

$$$$
ligand
 OpenBabel11021811423D
libRbt.so/2013.1/901 2013/11/27
 41 45  0  0  0  0  0  0  0  0999 V2000
   29.8758   39.8376    1.3144 C   0  0  2  0  0  0  0  0  0  0  0  0
   28.6126   40.3155    0.8119 O   0  0  0  0  0  0  0  0  0  0  0  0
   26.1302   39.4443   -2.6517 C   0  0  2  0  0  0  0  0  0  0  0  0
   25.7426   39.1942   -4.0640 N   0  0  0  0  0  0  0  0  0  0  0  0
   27.5637   36.4497    0.7910 C   0  0  1  0  0  0  0  0  0  0  0  0
   27.9048   32.6985    3.3187 C   0  0  1  0  0  0  0  0  0  0  0  0
   29.8354   39.6666    2.8625 C   0  0  2  0  0  0  0  0  0  0  0  0
   28.7262   38.8218    3.3155 N   0  0  0  0  0  0  0  0  0  0  0  0
   26.8898   40.8059   -2.5684 C   0  0  0  0  0  0  0  0  0  0  0  0
   28.5040   35.2727    1.1381 C   0  0  2  0  0  0  0  0  0  0  0  0
   28.1486   34.0803    0.4307 O   0  0  0  0  0  0  0  0  0  0  0  0
   28.1413   31.8802    1.9783 C   0  0  2  0  0  0  0  0  0  0  0  0
   26.9505   31.8299    1.0760 N   0  0  0  0  0  0  0  0  0  0  0  0
   29.7618   41.0546    3.5542 C   0  0  1  0  0  0  0  0  0  0  0  0
   29.7523   40.8946    4.9703 O   0  0  0  0  0  0  0  0  0  0  0  0
   27.3288   41.1187   -1.1085 C   0  0  2  0  0  0  0  0  0  0  0  0
   28.0264   42.4184   -1.1154 N   0  0  0  0  0  0  0  0  0  0  0  0
   28.3863   35.1207    2.6642 C   0  0  2  0  0  0  0  0  0  0  0  0
   27.4205   34.0637    3.0509 O   0  0  0  0  0  0  0  0  0  0  0  0
   28.6167   30.3975    2.3265 C   0  0  1  0  0  0  0  0  0  0  0  0
   29.9312   30.3967    2.9256 O   0  0  0  0  0  0  0  0  0  0  0  0
   30.9626   41.9223    3.1117 C   0  0  2  0  0  0  0  0  0  0  0  0
   30.9117   43.1806    3.7506 O   0  0  0  0  0  0  0  0  0  0  0  0
   28.2266   39.9556   -0.5557 C   0  0  2  0  0  0  0  0  0  0  0  0
   27.9288   36.4979    3.1366 C   0  0  2  0  0  0  0  0  0  0  0  0
   27.2715   37.0987    2.0297 O   0  0  0  0  0  0  0  0  0  0  0  0
   27.6135   29.6637    3.3046 C   0  0  2  0  0  0  0  0  0  0  0  0
   26.3702   29.4328    2.6211 O   0  0  0  0  0  0  0  0  0  0  0  0
   30.9592   42.0921    1.5794 C   0  0  2  0  0  0  0  0  0  0  0  0
   30.9909   40.7476    0.9623 O   0  0  0  0  0  0  0  0  0  0  0  0
   27.4089   38.5698   -0.6135 C   0  0  2  0  0  0  0  0  0  0  0  0
   28.2072   37.4086   -0.1356 O   0  0  0  0  0  0  0  0  0  0  0  0
   29.0704   37.4139    3.5528 C   0  0  0  0  0  0  0  0  0  0  0  0
   27.3854   30.5455    4.5987 C   0  0  1  0  0  0  0  0  0  0  0  0
   26.9858   31.9519    4.2528 O   0  0  0  0  0  0  0  0  0  0  0  0
   32.1776   42.9407    1.1466 C   0  0  0  0  0  0  0  0  0  0  0  0
   32.3380   44.2136    1.8733 N   0  0  0  0  0  0  0  0  0  0  0  0
   27.0100   38.2696   -2.0742 C   0  0  1  0  0  0  0  0  0  0  0  0
   26.2842   37.0371   -2.1268 O   0  0  0  0  0  0  0  0  0  0  0  0
   26.3551   29.9132    5.6117 C   0  0  0  0  0  0  0  0  0  0  0  0
   24.9284   29.8591    5.1590 N   0  0  0  0  0  0  0  0  0  0  0  0
  1  2  1  1  0  0  0
  1  7  1  0  0  0  0
  1 30  1  0  0  0  0
  3  4  1  6  0  0  0
  3  9  1  0  0  0  0
  3 38  1  0  0  0  0
  5 10  1  0  0  0  0
  5 26  1  1  0  0  0
  5 32  1  0  0  0  0
  6 12  1  0  0  0  0
  6 35  1  0  0  0  0
  6 19  1  6  0  0  0
  7  8  1  6  0  0  0
  7 14  1  0  0  0  0
  8 33  1  0  0  0  0
  9 16  1  0  0  0  0
 10 11  1  6  0  0  0
 10 18  1  0  0  0  0
 12 13  1  1  0  0  0
 12 20  1  0  0  0  0
 14 15  1  1  0  0  0
 14 22  1  0  0  0  0
 16 17  1  6  0  0  0
 16 24  1  0  0  0  0
 18 19  1  6  0  0  0
 18 25  1  0  0  0  0
 20 21  1  1  0  0  0
 20 27  1  0  0  0  0
 22 23  1  1  0  0  0
 22 29  1  0  0  0  0
 24  2  1  1  0  0  0
 24 31  1  0  0  0  0
 25 26  1  6  0  0  0
 25 33  1  0  0  0  0
 27 28  1  6  0  0  0
 27 34  1  0  0  0  0
 29 30  1  0  0  0  0
 29 36  1  1  0  0  0
 31 32  1  6  0  0  0
 31 38  1  0  0  0  0
 34 35  1  0  0  0  0
 34 40  1  1  0  0  0
 36 37  1  0  0  0  0
 38 39  1  1  0  0  0
 40 41  1  0  0  0  0
M  END
>  <CHROM.1>
94.25046553,-80.43374200,-51.03873432,-68.24018298,28.33359946,36.91802211
1.63256931,-1.16968614,1.00718602,2.56837053

>  <Name>
ligand

>  <RI>
0

>  <Rbt.Current_Directory>
/home/itssahil/PROJECTS/Mol_Feturizer/New_Systems/rnas/1ZZ5

>  <Rbt.Executable>
rbdock ($Id: //depot/dev/client3/rdock/2013.1/src/exe/rbdock.cxx#4 $)

>  <Rbt.Library>
libRbt.so (2013.1, Build901 2013/11/27)

>  <Rbt.Parameter_File>
/export/apps/rDock/src/rDock_2013.1_src/data/scripts/dock_solv.prm

>  <Rbt.Receptor>
prm/blind_docking_60.prm

>  <SCORE>
31.2464

>  <SCORE.INTER>
3.3113

>  <SCORE.INTER.CONST>
1

>  <SCORE.INTER.POLAR>
0

>  <SCORE.INTER.ROT>
4

>  <SCORE.INTER.SOLV>
18.1521

>  <SCORE.INTER.VDW>
-10.1098

>  <SCORE.INTER.norm>
0.0807635

>  <SCORE.INTRA>
3.82792

>  <SCORE.INTRA.DIHEDRAL>
1.74777

>  <SCORE.INTRA.DIHEDRAL.0>
5.18357

>  <SCORE.INTRA.POLAR>
0

>  <SCORE.INTRA.POLAR.0>
0

>  <SCORE.INTRA.REPUL>
0

>  <SCORE.INTRA.REPUL.0>
0

>  <SCORE.INTRA.SOLV>
3.59509

>  <SCORE.INTRA.SOLV.lig_0>
-109.973

>  <SCORE.INTRA.VDW>
1.15649

>  <SCORE.INTRA.VDW.0>
-1.68646

>  <SCORE.INTRA.norm>
0.0933639

>  <SCORE.RESTR>
24.1072

>  <SCORE.RESTR.CAVITY>
24.1072

>  <SCORE.RESTR.norm>
0.587981

>  <SCORE.SYSTEM>
0

>  <SCORE.SYSTEM.CONST>
0

>  <SCORE.SYSTEM.DIHEDRAL>
0

>  <SCORE.SYSTEM.SOLV>
0

>  <SCORE.SYSTEM.norm>
0

>  <SCORE.heavy>
41

>  <SCORE.norm>
0.762108

>  <RMSD>
13.809

$$$$
ligand
 OpenBabel11021811423D
libRbt.so/2013.1/901 2013/11/27
 41 45  0  0  0  0  0  0  0  0999 V2000
   41.4720   27.7258   -2.6814 C   0  0  2  0  0  0  0  0  0  0  0  0
   41.0665   27.2250   -1.3925 O   0  0  0  0  0  0  0  0  0  0  0  0
   43.0657   25.2605    1.9334 C   0  0  2  0  0  0  0  0  0  0  0  0
   43.9351   24.3117    2.6760 N   0  0  0  0  0  0  0  0  0  0  0  0
   43.9980   29.5509    0.0364 C   0  0  1  0  0  0  0  0  0  0  0  0
   44.4088   32.6139    1.3162 C   0  0  1  0  0  0  0  0  0  0  0  0
   40.7782   29.0842   -2.9993 C   0  0  2  0  0  0  0  0  0  0  0  0
   40.9780   30.0876   -1.9493 N   0  0  0  0  0  0  0  0  0  0  0  0
   42.0802   24.4478    1.0355 C   0  0  0  0  0  0  0  0  0  0  0  0
   44.9846   30.3680   -0.8289 C   0  0  2  0  0  0  0  0  0  0  0  0
   46.2550   30.5215   -0.1876 O   0  0  0  0  0  0  0  0  0  0  0  0
   45.0685   33.7721    2.1797 C   0  0  2  0  0  0  0  0  0  0  0  0
   46.5431   33.9167    1.9815 N   0  0  0  0  0  0  0  0  0  0  0  0
   39.2605   28.8674   -3.2439 C   0  0  1  0  0  0  0  0  0  0  0  0
   38.6348   30.1081   -3.5608 O   0  0  0  0  0  0  0  0  0  0  0  0
   41.1458   25.3924    0.2251 C   0  0  2  0  0  0  0  0  0  0  0  0
   40.2449   24.5506   -0.5846 N   0  0  0  0  0  0  0  0  0  0  0  0
   44.2696   31.7087   -1.0689 C   0  0  2  0  0  0  0  0  0  0  0  0
   44.7101   32.7586   -0.1186 O   0  0  0  0  0  0  0  0  0  0  0  0
   44.7528   33.5403    3.7264 C   0  0  1  0  0  0  0  0  0  0  0  0
   43.3455   33.7104    4.0044 O   0  0  0  0  0  0  0  0  0  0  0  0
   39.0569   27.8466   -4.3872 C   0  0  2  0  0  0  0  0  0  0  0  0
   37.6782   27.6576   -4.6272 O   0  0  0  0  0  0  0  0  0  0  0  0
   42.0020   26.3746   -0.6505 C   0  0  2  0  0  0  0  0  0  0  0  0
   42.7915   31.3743   -0.8891 C   0  0  2  0  0  0  0  0  0  0  0  0
   42.7432   30.2281   -0.0512 O   0  0  0  0  0  0  0  0  0  0  0  0
   45.1962   32.1035    4.2169 C   0  0  2  0  0  0  0  0  0  0  0  0
   46.6305   32.0133    4.1814 O   0  0  0  0  0  0  0  0  0  0  0  0
   39.7335   26.5079   -4.0308 C   0  0  2  0  0  0  0  0  0  0  0  0
   41.1666   26.7665   -3.7685 O   0  0  0  0  0  0  0  0  0  0  0  0
   42.9808   27.2298    0.2998 C   0  0  2  0  0  0  0  0  0  0  0  0
   43.8529   28.1642   -0.4619 O   0  0  0  0  0  0  0  0  0  0  0  0
   42.0780   31.0309   -2.1885 C   0  0  0  0  0  0  0  0  0  0  0  0
   44.5429   30.9968    3.2936 C   0  0  1  0  0  0  0  0  0  0  0  0
   44.8080   31.2564    1.8377 O   0  0  0  0  0  0  0  0  0  0  0  0
   39.5443   25.5035   -5.1914 C   0  0  0  0  0  0  0  0  0  0  0  0
   38.2189   24.8596   -5.2463 N   0  0  0  0  0  0  0  0  0  0  0  0
   43.9142   26.2718    1.0704 C   0  0  1  0  0  0  0  0  0  0  0  0
   44.7856   27.0313    1.9145 O   0  0  0  0  0  0  0  0  0  0  0  0
   44.9723   29.5289    3.6787 C   0  0  0  0  0  0  0  0  0  0  0  0
   46.3689   29.1294    3.3138 N   0  0  0  0  0  0  0  0  0  0  0  0
  1  2  1  1  0  0  0
  1  7  1  0  0  0  0
  1 30  1  0  0  0  0
  3  4  1  6  0  0  0
  3  9  1  0  0  0  0
  3 38  1  0  0  0  0
  5 10  1  0  0  0  0
  5 26  1  6  0  0  0
  5 32  1  0  0  0  0
  6 12  1  0  0  0  0
  6 35  1  0  0  0  0
  6 19  1  6  0  0  0
  7  8  1  1  0  0  0
  7 14  1  0  0  0  0
  8 33  1  0  0  0  0
  9 16  1  0  0  0  0
 10 11  1  1  0  0  0
 10 18  1  0  0  0  0
 12 13  1  1  0  0  0
 12 20  1  0  0  0  0
 14 15  1  6  0  0  0
 14 22  1  0  0  0  0
 16 17  1  6  0  0  0
 16 24  1  0  0  0  0
 18 19  1  1  0  0  0
 18 25  1  0  0  0  0
 20 21  1  6  0  0  0
 20 27  1  0  0  0  0
 22 23  1  1  0  0  0
 22 29  1  0  0  0  0
 24  2  1  1  0  0  0
 24 31  1  0  0  0  0
 25 26  1  1  0  0  0
 25 33  1  0  0  0  0
 27 28  1  6  0  0  0
 27 34  1  0  0  0  0
 29 30  1  0  0  0  0
 29 36  1  6  0  0  0
 31 32  1  6  0  0  0
 31 38  1  0  0  0  0
 34 35  1  0  0  0  0
 34 40  1  1  0  0  0
 36 37  1  0  0  0  0
 38 39  1  1  0  0  0
 40 41  1  0  0  0  0
M  END
>  <CHROM.1>
-65.81506430,175.10022163,-78.79930451,-73.66658167,42.78886875,29.08068494
-0.17724470,2.74687801,0.90529757,2.90881677

>  <Name>
ligand

>  <RI>
0

>  <Rbt.Current_Directory>
/home/itssahil/PROJECTS/Mol_Feturizer/New_Systems/rnas/1ZZ5

>  <Rbt.Executable>
rbdock ($Id: //depot/dev/client3/rdock/2013.1/src/exe/rbdock.cxx#4 $)

>  <Rbt.Library>
libRbt.so (2013.1, Build901 2013/11/27)

>  <Rbt.Parameter_File>
/export/apps/rDock/src/rDock_2013.1_src/data/scripts/dock_solv.prm

>  <Rbt.Receptor>
prm/blind_docking_100.prm

>  <SCORE>
49.99

>  <SCORE.INTER>
12.4579

>  <SCORE.INTER.CONST>
1

>  <SCORE.INTER.POLAR>
0

>  <SCORE.INTER.ROT>
4

>  <SCORE.INTER.SOLV>
16.8688

>  <SCORE.INTER.VDW>
-3.58435

>  <SCORE.INTER.norm>
0.30385

>  <SCORE.INTRA>
1.1039

>  <SCORE.INTRA.DIHEDRAL>
-2.84164

>  <SCORE.INTRA.DIHEDRAL.0>
5.18357

>  <SCORE.INTRA.POLAR>
0

>  <SCORE.INTRA.POLAR.0>
0

>  <SCORE.INTRA.REPUL>
0.00444199

>  <SCORE.INTRA.REPUL.0>
0

>  <SCORE.INTRA.SOLV>
4.45772

>  <SCORE.INTRA.SOLV.lig_0>
-109.973

>  <SCORE.INTRA.VDW>
0.273645

>  <SCORE.INTRA.VDW.0>
-1.68646

>  <SCORE.INTRA.norm>
0.0269243

>  <SCORE.RESTR>
36.4282

>  <SCORE.RESTR.CAVITY>
36.4282

>  <SCORE.RESTR.norm>
0.888493

>  <SCORE.SYSTEM>
0

>  <SCORE.SYSTEM.CONST>
0

>  <SCORE.SYSTEM.DIHEDRAL>
0

>  <SCORE.SYSTEM.SOLV>
0

>  <SCORE.SYSTEM.norm>
0

>  <SCORE.heavy>
41

>  <SCORE.norm>
1.21927

>  <RMSD>
14.188

$$$$
ligand
 OpenBabel11021811423D
libRbt.so/2013.1/901 2013/11/27
 41 45  0  0  0  0  0  0  0  0999 V2000
   41.4427   27.7311   -2.6932 C   0  0  2  0  0  0  0  0  0  0  0  0
   41.0301   27.2364   -1.4042 O   0  0  0  0  0  0  0  0  0  0  0  0
   43.0062   25.2657    1.9318 C   0  0  2  0  0  0  0  0  0  0  0  0
   43.8666   24.3124    2.6790 N   0  0  0  0  0  0  0  0  0  0  0  0
   43.9747   29.5444    0.0269 C   0  0  1  0  0  0  0  0  0  0  0  0
   44.4160   32.6010    1.3020 C   0  0  1  0  0  0  0  0  0  0  0  0
   40.7597   29.0937   -3.0163 C   0  0  2  0  0  0  0  0  0  0  0  0
   40.9640   30.0982   -1.9682 N   0  0  0  0  0  0  0  0  0  0  0  0
   42.0171   24.4580    1.0332 C   0  0  0  0  0  0  0  0  0  0  0  0
   44.9695   30.3523   -0.8378 C   0  0  2  0  0  0  0  0  0  0  0  0
   46.2392   30.4980   -0.1935 O   0  0  0  0  0  0  0  0  0  0  0  0
   45.0722   33.7637    2.1621 C   0  0  2  0  0  0  0  0  0  0  0  0
   46.5452   33.9171    1.9576 N   0  0  0  0  0  0  0  0  0  0  0  0
   39.2411   28.8874   -3.2644 C   0  0  1  0  0  0  0  0  0  0  0  0
   38.6253   30.1318   -3.5860 O   0  0  0  0  0  0  0  0  0  0  0  0
   41.0918   25.4073    0.2180 C   0  0  2  0  0  0  0  0  0  0  0  0
   40.1870   24.5700   -0.5920 N   0  0  0  0  0  0  0  0  0  0  0  0
   44.2649   31.6975   -1.0830 C   0  0  2  0  0  0  0  0  0  0  0  0
   44.7105   32.7465   -0.1340 O   0  0  0  0  0  0  0  0  0  0  0  0
   44.7644   33.5310    3.7103 C   0  0  1  0  0  0  0  0  0  0  0  0
   43.3572   33.6927    3.9939 O   0  0  0  0  0  0  0  0  0  0  0  0
   39.0331   27.8653   -4.4058 C   0  0  2  0  0  0  0  0  0  0  0  0
   37.6537   27.6857   -4.6490 O   0  0  0  0  0  0  0  0  0  0  0  0
   41.9574   26.3811   -0.6577 C   0  0  2  0  0  0  0  0  0  0  0  0
   42.7839   31.3743   -0.9063 C   0  0  2  0  0  0  0  0  0  0  0  0
   42.7251   30.2306   -0.0657 O   0  0  0  0  0  0  0  0  0  0  0  0
   45.2186   32.0973    4.1998 C   0  0  2  0  0  0  0  0  0  0  0  0
   46.6532   32.0158    4.1584 O   0  0  0  0  0  0  0  0  0  0  0  0
   39.6989   26.5226   -4.0444 C   0  0  2  0  0  0  0  0  0  0  0  0
   41.1332   26.7714   -3.7788 O   0  0  0  0  0  0  0  0  0  0  0  0
   42.9399   27.2315    0.2931 C   0  0  2  0  0  0  0  0  0  0  0  0
   43.8208   28.1577   -0.4685 O   0  0  0  0  0  0  0  0  0  0  0  0
   42.0714   31.0329   -2.2068 C   0  0  0  0  0  0  0  0  0  0  0  0
   44.5681   30.9860    3.2799 C   0  0  1  0  0  0  0  0  0  0  0  0
   44.8257   31.2463    1.8228 O   0  0  0  0  0  0  0  0  0  0  0  0
   39.5055   25.5167   -5.2030 C   0  0  0  0  0  0  0  0  0  0  0  0
   40.0550   24.1709   -4.9558 N   0  0  0  0  0  0  0  0  0  0  0  0
   43.8642   26.2687    1.0686 C   0  0  1  0  0  0  0  0  0  0  0  0
   44.7389   27.0238    1.9132 O   0  0  0  0  0  0  0  0  0  0  0  0
   45.0081   29.5210    3.6642 C   0  0  0  0  0  0  0  0  0  0  0  0
   46.4159   29.1405    3.3228 N   0  0  0  0  0  0  0  0  0  0  0  0
  1  2  1  1  0  0  0
  1  7  1  0  0  0  0
  1 30  1  0  0  0  0
  3  4  1  6  0  0  0
  3  9  1  0  0  0  0
  3 38  1  0  0  0  0
  5 10  1  0  0  0  0
  5 26  1  6  0  0  0
  5 32  1  0  0  0  0
  6 12  1  0  0  0  0
  6 35  1  0  0  0  0
  6 19  1  6  0  0  0
  7  8  1  1  0  0  0
  7 14  1  0  0  0  0
  8 33  1  0  0  0  0
  9 16  1  0  0  0  0
 10 11  1  1  0  0  0
 10 18  1  0  0  0  0
 12 13  1  1  0  0  0
 12 20  1  0  0  0  0
 14 15  1  6  0  0  0
 14 22  1  0  0  0  0
 16 17  1  6  0  0  0
 16 24  1  0  0  0  0
 18 19  1  1  0  0  0
 18 25  1  0  0  0  0
 20 21  1  6  0  0  0
 20 27  1  0  0  0  0
 22 23  1  1  0  0  0
 22 29  1  0  0  0  0
 24  2  1  1  0  0  0
 24 31  1  0  0  0  0
 25 26  1  1  0  0  0
 25 33  1  0  0  0  0
 27 28  1  6  0  0  0
 27 34  1  0  0  0  0
 29 30  1  0  0  0  0
 29 36  1  6  0  0  0
 31 32  1  6  0  0  0
 31 38  1  0  0  0  0
 34 35  1  0  0  0  0
 34 40  1  1  0  0  0
 36 37  1  0  0  0  0
 38 39  1  1  0  0  0
 40 41  1  0  0  0  0
M  END
>  <CHROM.1>
-65.20888607,175.48719208,-177.72161666,-72.27451680,42.81677145,29.06564643
-0.18198516,2.72266572,0.91635162,2.91883560

>  <Name>
ligand

>  <RI>
0

>  <Rbt.Current_Directory>
/home/itssahil/PROJECTS/Mol_Feturizer/New_Systems/rnas/1ZZ5

>  <Rbt.Executable>
rbdock ($Id: //depot/dev/client3/rdock/2013.1/src/exe/rbdock.cxx#4 $)

>  <Rbt.Library>
libRbt.so (2013.1, Build901 2013/11/27)

>  <Rbt.Parameter_File>
/export/apps/rDock/src/rDock_2013.1_src/data/scripts/dock_solv.prm

>  <Rbt.Receptor>
prm/blind_docking_100.prm

>  <SCORE>
48.7091

>  <SCORE.INTER>
13.2555

>  <SCORE.INTER.CONST>
1

>  <SCORE.INTER.POLAR>
0

>  <SCORE.INTER.ROT>
4

>  <SCORE.INTER.SOLV>
18.5773

>  <SCORE.INTER.VDW>
-3.62209

>  <SCORE.INTER.norm>
0.323306

>  <SCORE.INTRA>
-0.0498953

>  <SCORE.INTRA.DIHEDRAL>
-4.1703

>  <SCORE.INTRA.DIHEDRAL.0>
5.18357

>  <SCORE.INTRA.POLAR>
0

>  <SCORE.INTRA.POLAR.0>
0

>  <SCORE.INTRA.REPUL>
0.00497866

>  <SCORE.INTRA.REPUL.0>
0

>  <SCORE.INTRA.SOLV>
3.41181

>  <SCORE.INTRA.SOLV.lig_0>
-109.973

>  <SCORE.INTRA.VDW>
0.304459

>  <SCORE.INTRA.VDW.0>
-1.68646

>  <SCORE.INTRA.norm>
-0.00121696

>  <SCORE.RESTR>
35.5034

>  <SCORE.RESTR.CAVITY>
35.5034

>  <SCORE.RESTR.norm>
0.865937

>  <SCORE.SYSTEM>
0

>  <SCORE.SYSTEM.CONST>
0

>  <SCORE.SYSTEM.DIHEDRAL>
0

>  <SCORE.SYSTEM.SOLV>
0

>  <SCORE.SYSTEM.norm>
0

>  <SCORE.heavy>
41

>  <SCORE.norm>
1.18803

>  <RMSD>
14.218

$$$$
ligand
 OpenBabel11021811423D
libRbt.so/2013.1/901 2013/11/27
 41 45  0  0  0  0  0  0  0  0999 V2000
   41.4246   27.7098   -2.7041 C   0  0  2  0  0  0  0  0  0  0  0  0
   41.0022   27.2216   -1.4157 O   0  0  0  0  0  0  0  0  0  0  0  0
   42.9539   25.2723    1.9471 C   0  0  2  0  0  0  0  0  0  0  0  0
   43.8096   24.3245    2.7066 N   0  0  0  0  0  0  0  0  0  0  0  0
   43.9316   29.5420    0.0265 C   0  0  1  0  0  0  0  0  0  0  0  0
   44.3758   32.5964    1.2910 C   0  0  1  0  0  0  0  0  0  0  0  0
   40.7422   29.0696   -3.0402 C   0  0  2  0  0  0  0  0  0  0  0  0
   40.9364   30.0801   -1.9961 N   0  0  0  0  0  0  0  0  0  0  0  0
   41.9734   24.4582    1.0450 C   0  0  0  0  0  0  0  0  0  0  0  0
   44.9322   30.3466   -0.8345 C   0  0  2  0  0  0  0  0  0  0  0  0
   46.1964   30.4979   -0.1807 O   0  0  0  0  0  0  0  0  0  0  0  0
   45.0301   33.7615    2.1493 C   0  0  2  0  0  0  0  0  0  0  0  0
   46.5015   33.9217    1.9391 N   0  0  0  0  0  0  0  0  0  0  0  0
   39.2259   28.8596   -3.2996 C   0  0  1  0  0  0  0  0  0  0  0  0
   38.6110   30.1012   -3.6331 O   0  0  0  0  0  0  0  0  0  0  0  0
   41.0534   25.4016    0.2170 C   0  0  2  0  0  0  0  0  0  0  0  0
   40.1565   24.5585   -0.5957 N   0  0  0  0  0  0  0  0  0  0  0  0
   44.2277   31.6893   -1.0929 C   0  0  2  0  0  0  0  0  0  0  0  0
   44.6639   32.7443   -0.1461 O   0  0  0  0  0  0  0  0  0  0  0  0
   44.7294   33.5264    3.6985 C   0  0  1  0  0  0  0  0  0  0  0  0
   43.3226   33.6816    3.9878 O   0  0  0  0  0  0  0  0  0  0  0  0
   39.0288   27.8308   -4.4370 C   0  0  2  0  0  0  0  0  0  0  0  0
   37.6517   27.6478   -4.6904 O   0  0  0  0  0  0  0  0  0  0  0  0
   41.9247   26.3718   -0.6570 C   0  0  2  0  0  0  0  0  0  0  0  0
   42.7458   31.3649   -0.9265 C   0  0  2  0  0  0  0  0  0  0  0  0
   42.6818   30.2257   -0.0801 O   0  0  0  0  0  0  0  0  0  0  0  0
   45.1919   32.0944    4.1852 C   0  0  2  0  0  0  0  0  0  0  0  0
   46.6267   32.0194    4.1382 O   0  0  0  0  0  0  0  0  0  0  0  0
   39.6937   26.4912   -4.0627 C   0  0  2  0  0  0  0  0  0  0  0  0
   41.1254   26.7436   -3.7868 O   0  0  0  0  0  0  0  0  0  0  0  0
   42.8981   27.2290    0.2971 C   0  0  2  0  0  0  0  0  0  0  0  0
   43.7838   28.1523   -0.4624 O   0  0  0  0  0  0  0  0  0  0  0  0
   42.0444   31.0152   -2.2308 C   0  0  0  0  0  0  0  0  0  0  0  0
   44.5429   30.9808    3.2671 C   0  0  1  0  0  0  0  0  0  0  0  0
   44.7935   31.2433    1.8092 O   0  0  0  0  0  0  0  0  0  0  0  0
   39.5112   25.4786   -5.2172 C   0  0  0  0  0  0  0  0  0  0  0  0
   40.0393   24.1283   -4.9489 N   0  0  0  0  0  0  0  0  0  0  0  0
   43.8175   26.2719    1.0854 C   0  0  1  0  0  0  0  0  0  0  0  0
   44.6842   27.0330    1.9329 O   0  0  0  0  0  0  0  0  0  0  0  0
   44.9910   29.5176    3.6487 C   0  0  0  0  0  0  0  0  0  0  0  0
   46.4018   29.1465    3.3093 N   0  0  0  0  0  0  0  0  0  0  0  0
  1  2  1  1  0  0  0
  1  7  1  0  0  0  0
  1 30  1  0  0  0  0
  3  4  1  6  0  0  0
  3  9  1  0  0  0  0
  3 38  1  0  0  0  0
  5 10  1  0  0  0  0
  5 26  1  6  0  0  0
  5 32  1  0  0  0  0
  6 12  1  0  0  0  0
  6 35  1  0  0  0  0
  6 19  1  6  0  0  0
  7  8  1  1  0  0  0
  7 14  1  0  0  0  0
  8 33  1  0  0  0  0
  9 16  1  0  0  0  0
 10 11  1  1  0  0  0
 10 18  1  0  0  0  0
 12 13  1  1  0  0  0
 12 20  1  0  0  0  0
 14 15  1  6  0  0  0
 14 22  1  0  0  0  0
 16 17  1  6  0  0  0
 16 24  1  0  0  0  0
 18 19  1  1  0  0  0
 18 25  1  0  0  0  0
 20 21  1  6  0  0  0
 20 27  1  0  0  0  0
 22 23  1  1  0  0  0
 22 29  1  0  0  0  0
 24  2  1  1  0  0  0
 24 31  1  0  0  0  0
 25 26  1  1  0  0  0
 25 33  1  0  0  0  0
 27 28  1  6  0  0  0
 27 34  1  0  0  0  0
 29 30  1  0  0  0  0
 29 36  1  6  0  0  0
 31 32  1  6  0  0  0
 31 38  1  0  0  0  0
 34 35  1  0  0  0  0
 34 40  1  1  0  0  0
 36 37  1  0  0  0  0
 38 39  1  1  0  0  0
 40 41  1  0  0  0  0
M  END
>  <CHROM.1>
-64.29289311,175.06325454,-176.68646857,-71.90017866,42.78660497,29.05525851
-0.19136458,2.72814852,0.92123221,2.90975452

>  <Name>
ligand

>  <RI>
0

>  <Rbt.Current_Directory>
/home/itssahil/PROJECTS/Mol_Feturizer/New_Systems/rnas/1ZZ5

>  <Rbt.Executable>
rbdock ($Id: //depot/dev/client3/rdock/2013.1/src/exe/rbdock.cxx#4 $)

>  <Rbt.Library>
libRbt.so (2013.1, Build901 2013/11/27)

>  <Rbt.Parameter_File>
/export/apps/rDock/src/rDock_2013.1_src/data/scripts/dock_solv.prm

>  <Rbt.Receptor>
prm/blind_docking_100.prm

>  <SCORE>
48.9754

>  <SCORE.INTER>
13.3895

>  <SCORE.INTER.CONST>
1

>  <SCORE.INTER.POLAR>
0

>  <SCORE.INTER.ROT>
4

>  <SCORE.INTER.SOLV>
18.4345

>  <SCORE.INTER.VDW>
-3.48515

>  <SCORE.INTER.norm>
0.326574

>  <SCORE.INTRA>
0.121951

>  <SCORE.INTRA.DIHEDRAL>
-4.2024

>  <SCORE.INTRA.DIHEDRAL.0>
5.18357

>  <SCORE.INTRA.POLAR>
0

>  <SCORE.INTRA.POLAR.0>
0

>  <SCORE.INTRA.REPUL>
0.00540552

>  <SCORE.INTRA.REPUL.0>
0

>  <SCORE.INTRA.SOLV>
3.46667

>  <SCORE.INTRA.SOLV.lig_0>
-109.973

>  <SCORE.INTRA.VDW>
0.462791

>  <SCORE.INTRA.VDW.0>
-1.68646

>  <SCORE.INTRA.norm>
0.00297442

>  <SCORE.RESTR>
35.4639

>  <SCORE.RESTR.CAVITY>
35.4639

>  <SCORE.RESTR.norm>
0.864972

>  <SCORE.SYSTEM>
0

>  <SCORE.SYSTEM.CONST>
0

>  <SCORE.SYSTEM.DIHEDRAL>
0

>  <SCORE.SYSTEM.SOLV>
0

>  <SCORE.SYSTEM.norm>
0

>  <SCORE.heavy>
41

>  <SCORE.norm>
1.19452

>  <RMSD>
14.220

$$$$
ligand
 OpenBabel11021811423D
libRbt.so/2013.1/901 2013/11/27
 41 45  0  0  0  0  0  0  0  0999 V2000
   41.4344   27.0027   -0.9760 C   0  0  2  0  0  0  0  0  0  0  0  0
   41.2886   27.8520   -2.1310 O   0  0  0  0  0  0  0  0  0  0  0  0
   39.4619   31.7201   -2.9175 C   0  0  2  0  0  0  0  0  0  0  0  0
   38.4574   32.8147   -2.9206 N   0  0  0  0  0  0  0  0  0  0  0  0
   42.9567   30.6710    0.1745 C   0  0  1  0  0  0  0  0  0  0  0  0
   45.6158   32.2650    1.1955 C   0  0  1  0  0  0  0  0  0  0  0  0
   42.8533   26.3610   -0.9269 C   0  0  2  0  0  0  0  0  0  0  0  0
   43.9316   27.3515   -1.0011 N   0  0  0  0  0  0  0  0  0  0  0  0
   38.8004   30.4239   -3.4835 C   0  0  0  0  0  0  0  0  0  0  0  0
   43.3201   30.4970    1.6670 C   0  0  2  0  0  0  0  0  0  0  0  0
   43.2364   31.7332    2.3835 O   0  0  0  0  0  0  0  0  0  0  0  0
   45.1435   33.3723    2.2314 C   0  0  2  0  0  0  0  0  0  0  0  0
   43.9039   33.0131    2.9858 N   0  0  0  0  0  0  0  0  0  0  0  0
   43.0110   25.3189   -2.0669 C   0  0  1  0  0  0  0  0  0  0  0  0
   44.3002   24.7151   -2.0017 O   0  0  0  0  0  0  0  0  0  0  0  0
   39.8067   29.2368   -3.4975 C   0  0  2  0  0  0  0  0  0  0  0  0
   39.1100   28.0608   -4.0521 N   0  0  0  0  0  0  0  0  0  0  0  0
   44.7412   29.9085    1.6530 C   0  0  2  0  0  0  0  0  0  0  0  0
   45.7822   30.9488    1.8359 O   0  0  0  0  0  0  0  0  0  0  0  0
   44.9320   34.7627    1.4780 C   0  0  1  0  0  0  0  0  0  0  0  0
   46.1876   35.2975    1.0044 O   0  0  0  0  0  0  0  0  0  0  0  0
   41.9013   24.2484   -1.9522 C   0  0  2  0  0  0  0  0  0  0  0  0
   42.0489   23.2870   -2.9760 O   0  0  0  0  0  0  0  0  0  0  0  0
   40.3596   28.9830   -2.0503 C   0  0  2  0  0  0  0  0  0  0  0  0
   44.8494   29.2418    0.2845 C   0  0  2  0  0  0  0  0  0  0  0  0
   43.9190   29.9090   -0.5565 O   0  0  0  0  0  0  0  0  0  0  0  0
   43.9421   34.6319    0.2514 C   0  0  2  0  0  0  0  0  0  0  0  0
   42.6205   34.3448    0.7387 O   0  0  0  0  0  0  0  0  0  0  0  0
   40.5122   24.9128   -2.0289 C   0  0  2  0  0  0  0  0  0  0  0  0
   40.4198   25.9231   -0.9518 O   0  0  0  0  0  0  0  0  0  0  0  0
   41.0722   30.3193   -1.5037 C   0  0  2  0  0  0  0  0  0  0  0  0
   41.5951   30.1691   -0.1187 O   0  0  0  0  0  0  0  0  0  0  0  0
   44.4915   27.7628    0.2928 C   0  0  0  0  0  0  0  0  0  0  0  0
   44.4412   33.4869   -0.7203 C   0  0  1  0  0  0  0  0  0  0  0  0
   44.6824   32.1980    0.0130 O   0  0  0  0  0  0  0  0  0  0  0  0
   39.4112   23.8358   -1.8887 C   0  0  0  0  0  0  0  0  0  0  0  0
   38.0306   24.3536   -1.8981 N   0  0  0  0  0  0  0  0  0  0  0  0
   40.0467   31.4726   -1.4738 C   0  0  1  0  0  0  0  0  0  0  0  0
   40.6789   32.6608   -0.9867 O   0  0  0  0  0  0  0  0  0  0  0  0
   43.4831   33.2501   -1.9505 C   0  0  0  0  0  0  0  0  0  0  0  0
   43.7684   32.0433   -2.7904 N   0  0  0  0  0  0  0  0  0  0  0  0
  1  2  1  6  0  0  0
  1  7  1  0  0  0  0
  1 30  1  0  0  0  0
  3  4  1  1  0  0  0
  3  9  1  0  0  0  0
  3 38  1  0  0  0  0
  5 10  1  0  0  0  0
  5 26  1  6  0  0  0
  5 32  1  0  0  0  0
  6 12  1  0  0  0  0
  6 35  1  0  0  0  0
  6 19  1  1  0  0  0
  7  8  1  6  0  0  0
  7 14  1  0  0  0  0
  8 33  1  0  0  0  0
  9 16  1  0  0  0  0
 10 11  1  1  0  0  0
 10 18  1  0  0  0  0
 12 13  1  6  0  0  0
 12 20  1  0  0  0  0
 14 15  1  1  0  0  0
 14 22  1  0  0  0  0
 16 17  1  1  0  0  0
 16 24  1  0  0  0  0
 18 19  1  6  0  0  0
 18 25  1  0  0  0  0
 20 21  1  6  0  0  0
 20 27  1  0  0  0  0
 22 23  1  6  0  0  0
 22 29  1  0  0  0  0
 24  2  1  6  0  0  0
 24 31  1  0  0  0  0
 25 26  1  6  0  0  0
 25 33  1  0  0  0  0
 27 28  1  1  0  0  0
 27 34  1  0  0  0  0
 29 30  1  0  0  0  0
 29 36  1  1  0  0  0
 31 32  1  1  0  0  0
 31 38  1  0  0  0  0
 34 35  1  0  0  0  0
 34 40  1  6  0  0  0
 36 37  1  0  0  0  0
 38 39  1  6  0  0  0
 40 41  1  0  0  0  0
M  END
>  <CHROM.1>
-38.53853350,102.64388279,177.91607079,-170.50389539,42.47100943,29.76624967
-0.75863019,-2.04616331,-0.57471955,0.09899429

>  <Name>
ligand

>  <RI>
0

>  <Rbt.Current_Directory>
/home/itssahil/PROJECTS/Mol_Feturizer/New_Systems/rnas/1ZZ5

>  <Rbt.Executable>
rbdock ($Id: //depot/dev/client3/rdock/2013.1/src/exe/rbdock.cxx#4 $)

>  <Rbt.Library>
libRbt.so (2013.1, Build901 2013/11/27)

>  <Rbt.Parameter_File>
/export/apps/rDock/src/rDock_2013.1_src/data/scripts/dock_solv.prm

>  <Rbt.Receptor>
prm/blind_docking_100.prm

>  <SCORE>
61.8845

>  <SCORE.INTER>
0.123839

>  <SCORE.INTER.CONST>
1

>  <SCORE.INTER.POLAR>
0

>  <SCORE.INTER.ROT>
4

>  <SCORE.INTER.SOLV>
16.4287

>  <SCORE.INTER.VDW>
-11.6603

>  <SCORE.INTER.norm>
0.00302046

>  <SCORE.INTRA>
29.2715

>  <SCORE.INTRA.DIHEDRAL>
3.04241

>  <SCORE.INTRA.DIHEDRAL.0>
5.18357

>  <SCORE.INTRA.POLAR>
0

>  <SCORE.INTRA.POLAR.0>
0

>  <SCORE.INTRA.REPUL>
0

>  <SCORE.INTRA.REPUL.0>
0

>  <SCORE.INTRA.SOLV>
9.05096

>  <SCORE.INTRA.SOLV.lig_0>
-109.973

>  <SCORE.INTRA.VDW>
23.2248

>  <SCORE.INTRA.VDW.0>
-1.68646

>  <SCORE.INTRA.norm>
0.71394

>  <SCORE.RESTR>
32.4891

>  <SCORE.RESTR.CAVITY>
32.4891

>  <SCORE.RESTR.norm>
0.792417

>  <SCORE.SYSTEM>
0

>  <SCORE.SYSTEM.CONST>
0

>  <SCORE.SYSTEM.DIHEDRAL>
0

>  <SCORE.SYSTEM.SOLV>
0

>  <SCORE.SYSTEM.norm>
0

>  <SCORE.heavy>
41

>  <SCORE.norm>
1.50938

>  <RMSD>
14.285

$$$$
ligand
 OpenBabel11021811423D
libRbt.so/2013.1/901 2013/11/27
 41 45  0  0  0  0  0  0  0  0999 V2000
   41.5629   27.0200   -1.0172 C   0  0  2  0  0  0  0  0  0  0  0  0
   41.4148   27.8752   -2.1675 O   0  0  0  0  0  0  0  0  0  0  0  0
   39.4492   31.6715   -2.9690 C   0  0  2  0  0  0  0  0  0  0  0  0
   38.3996   32.7227   -2.9908 N   0  0  0  0  0  0  0  0  0  0  0  0
   42.8943   30.7361    0.2140 C   0  0  1  0  0  0  0  0  0  0  0  0
   45.6103   32.3267    1.1254 C   0  0  1  0  0  0  0  0  0  0  0  0
   43.0058   26.4381   -0.9326 C   0  0  2  0  0  0  0  0  0  0  0  0
   44.0427   27.4739   -0.9653 N   0  0  0  0  0  0  0  0  0  0  0  0
   38.8600   30.3550   -3.5670 C   0  0  0  0  0  0  0  0  0  0  0  0
   43.2212   30.5608    1.7148 C   0  0  2  0  0  0  0  0  0  0  0  0
   43.0644   31.7844    2.4407 O   0  0  0  0  0  0  0  0  0  0  0  0
   45.4593   33.6434    2.0005 C   0  0  2  0  0  0  0  0  0  0  0  0
   44.2923   33.6246    2.9346 N   0  0  0  0  0  0  0  0  0  0  0  0
   43.2405   25.4164   -2.0778 C   0  0  1  0  0  0  0  0  0  0  0  0
   44.5518   24.8667   -1.9807 O   0  0  0  0  0  0  0  0  0  0  0  0
   39.9157   29.2115   -3.5632 C   0  0  2  0  0  0  0  0  0  0  0  0
   39.2859   28.0135   -4.1497 N   0  0  0  0  0  0  0  0  0  0  0  0
   44.6658   30.0329    1.7368 C   0  0  2  0  0  0  0  0  0  0  0  0
   45.6560   31.1141    1.9606 O   0  0  0  0  0  0  0  0  0  0  0  0
   45.3656   34.9190    1.0467 C   0  0  1  0  0  0  0  0  0  0  0  0
   46.6133   35.1482    0.3556 O   0  0  0  0  0  0  0  0  0  0  0  0
   42.1744   24.2988   -2.0064 C   0  0  2  0  0  0  0  0  0  0  0  0
   42.3922   23.3560   -3.0349 O   0  0  0  0  0  0  0  0  0  0  0  0
   40.4367   28.9651   -2.1030 C   0  0  2  0  0  0  0  0  0  0  0  0
   44.8419   29.3867    0.3655 C   0  0  2  0  0  0  0  0  0  0  0  0
   43.9088   30.0235   -0.4958 O   0  0  0  0  0  0  0  0  0  0  0  0
   44.2110   34.7789   -0.0251 C   0  0  2  0  0  0  0  0  0  0  0  0
   42.9389   34.8042    0.6440 O   0  0  0  0  0  0  0  0  0  0  0  0
   40.7612   24.9049   -2.1175 C   0  0  2  0  0  0  0  0  0  0  0  0
   40.5948   25.8984   -1.0335 O   0  0  0  0  0  0  0  0  0  0  0  0
   41.0758   30.3241   -1.5223 C   0  0  2  0  0  0  0  0  0  0  0  0
   41.5642   30.1806   -0.1242 O   0  0  0  0  0  0  0  0  0  0  0  0
   44.5470   27.8940    0.3486 C   0  0  0  0  0  0  0  0  0  0  0  0
   44.3912   33.4306   -0.8338 C   0  0  1  0  0  0  0  0  0  0  0  0
   44.5269   32.2455    0.0796 O   0  0  0  0  0  0  0  0  0  0  0  0
   39.7033   23.7811   -2.0204 C   0  0  0  0  0  0  0  0  0  0  0  0
   38.3028   24.2400   -2.0689 N   0  0  0  0  0  0  0  0  0  0  0  0
   40.0018   31.4328   -1.5112 C   0  0  1  0  0  0  0  0  0  0  0  0
   40.5687   32.6409   -0.9939 O   0  0  0  0  0  0  0  0  0  0  0  0
   43.2508   33.1813   -1.8944 C   0  0  0  0  0  0  0  0  0  0  0  0
   43.4034   31.9679   -2.7591 N   0  0  0  0  0  0  0  0  0  0  0  0
  1  2  1  6  0  0  0
  1  7  1  0  0  0  0
  1 30  1  0  0  0  0
  3  4  1  1  0  0  0
  3  9  1  0  0  0  0
  3 38  1  0  0  0  0
  5 10  1  0  0  0  0
  5 26  1  6  0  0  0
  5 32  1  0  0  0  0
  6 12  1  0  0  0  0
  6 35  1  0  0  0  0
  6 19  1  1  0  0  0
  7  8  1  6  0  0  0
  7 14  1  0  0  0  0
  8 33  1  0  0  0  0
  9 16  1  0  0  0  0
 10 11  1  1  0  0  0
 10 18  1  0  0  0  0
 12 13  1  6  0  0  0
 12 20  1  0  0  0  0
 14 15  1  1  0  0  0
 14 22  1  0  0  0  0
 16 17  1  1  0  0  0
 16 24  1  0  0  0  0
 18 19  1  6  0  0  0
 18 25  1  0  0  0  0
 20 21  1  6  0  0  0
 20 27  1  0  0  0  0
 22 23  1  6  0  0  0
 22 29  1  0  0  0  0
 24  2  1  6  0  0  0
 24 31  1  0  0  0  0
 25 26  1  6  0  0  0
 25 33  1  0  0  0  0
 27 28  1  1  0  0  0
 27 34  1  0  0  0  0
 29 30  1  0  0  0  0
 29 36  1  1  0  0  0
 31 32  1  1  0  0  0
 31 38  1  0  0  0  0
 34 35  1  0  0  0  0
 34 40  1  6  0  0  0
 36 37  1  0  0  0  0
 38 39  1  6  0  0  0
 40 41  1  0  0  0  0
M  END
>  <CHROM.1>
-50.95205696,123.03411425,178.07019898,176.18193869,42.55882116,29.82378858
-0.81471099,-2.03349967,-0.57008997,0.10170393

>  <Name>
ligand

>  <RI>
0

>  <Rbt.Current_Directory>
/home/itssahil/PROJECTS/Mol_Feturizer/New_Systems/rnas/1ZZ5

>  <Rbt.Executable>
rbdock ($Id: //depot/dev/client3/rdock/2013.1/src/exe/rbdock.cxx#4 $)

>  <Rbt.Library>
libRbt.so (2013.1, Build901 2013/11/27)

>  <Rbt.Parameter_File>
/export/apps/rDock/src/rDock_2013.1_src/data/scripts/dock_solv.prm

>  <Rbt.Receptor>
prm/blind_docking_100.prm

>  <SCORE>
54.2202

>  <SCORE.INTER>
0.737618

>  <SCORE.INTER.CONST>
1

>  <SCORE.INTER.POLAR>
0

>  <SCORE.INTER.ROT>
4

>  <SCORE.INTER.SOLV>
16.862

>  <SCORE.INTER.VDW>
-11.3956

>  <SCORE.INTER.norm>
0.0179907

>  <SCORE.INTRA>
19.4667

>  <SCORE.INTRA.DIHEDRAL>
2.49263

>  <SCORE.INTRA.DIHEDRAL.0>
5.18357

>  <SCORE.INTRA.POLAR>
0

>  <SCORE.INTRA.POLAR.0>
0

>  <SCORE.INTRA.REPUL>
0

>  <SCORE.INTRA.REPUL.0>
0

>  <SCORE.INTRA.SOLV>
8.69119

>  <SCORE.INTRA.SOLV.lig_0>
-109.973

>  <SCORE.INTRA.VDW>
13.8748

>  <SCORE.INTRA.VDW.0>
-1.68646

>  <SCORE.INTRA.norm>
0.474798

>  <SCORE.RESTR>
34.0159

>  <SCORE.RESTR.CAVITY>
34.0159

>  <SCORE.RESTR.norm>
0.829656

>  <SCORE.SYSTEM>
0

>  <SCORE.SYSTEM.CONST>
0

>  <SCORE.SYSTEM.DIHEDRAL>
0

>  <SCORE.SYSTEM.SOLV>
0

>  <SCORE.SYSTEM.norm>
0

>  <SCORE.heavy>
41

>  <SCORE.norm>
1.32244

>  <RMSD>
14.310

$$$$
ligand
 OpenBabel11021811423D
libRbt.so/2013.1/901 2013/11/27
 41 45  0  0  0  0  0  0  0  0999 V2000
   40.2292   26.9740   -3.1737 C   0  0  2  0  0  0  0  0  0  0  0  0
   39.2554   26.8992   -2.1141 O   0  0  0  0  0  0  0  0  0  0  0  0
   38.5877   24.2842    1.2967 C   0  0  2  0  0  0  0  0  0  0  0  0
   38.4412   23.0386    2.0930 N   0  0  0  0  0  0  0  0  0  0  0  0
   42.4315   26.9595    0.3259 C   0  0  1  0  0  0  0  0  0  0  0  0
   45.2478   30.4564    0.8309 C   0  0  1  0  0  0  0  0  0  0  0  0
   40.6333   28.4511   -3.4611 C   0  0  2  0  0  0  0  0  0  0  0  0
   41.0913   29.1618   -2.2635 N   0  0  0  0  0  0  0  0  0  0  0  0
   37.6207   24.2193    0.0724 C   0  0  0  0  0  0  0  0  0  0  0  0
   43.9066   26.9403   -0.1362 C   0  0  2  0  0  0  0  0  0  0  0  0
   44.7567   26.3004    0.8212 O   0  0  0  0  0  0  0  0  0  0  0  0
   45.4986   30.9916    2.3049 C   0  0  2  0  0  0  0  0  0  0  0  0
   44.3919   30.6849    3.2620 N   0  0  0  0  0  0  0  0  0  0  0  0
   39.4482   29.2152   -4.1106 C   0  0  1  0  0  0  0  0  0  0  0  0
   39.8308   30.5579   -4.3966 O   0  0  0  0  0  0  0  0  0  0  0  0
   37.7359   25.4989   -0.8060 C   0  0  2  0  0  0  0  0  0  0  0  0
   36.7886   25.3628   -1.9284 N   0  0  0  0  0  0  0  0  0  0  0  0
   44.2620   28.4205   -0.3570 C   0  0  2  0  0  0  0  0  0  0  0  0
   44.9550   29.0127    0.8129 O   0  0  0  0  0  0  0  0  0  0  0  0
   45.7618   32.5649    2.2716 C   0  0  1  0  0  0  0  0  0  0  0  0
   47.0106   32.8727    1.6140 O   0  0  0  0  0  0  0  0  0  0  0  0
   39.0035   28.4886   -5.4010 C   0  0  2  0  0  0  0  0  0  0  0  0
   37.9367   29.1880   -6.0068 O   0  0  0  0  0  0  0  0  0  0  0  0
   39.2179   25.6892   -1.2876 C   0  0  2  0  0  0  0  0  0  0  0  0
   42.9131   29.0890   -0.6070 C   0  0  2  0  0  0  0  0  0  0  0  0
   41.9401   28.2656    0.0201 O   0  0  0  0  0  0  0  0  0  0  0  0
   44.5981   33.3490    1.5418 C   0  0  2  0  0  0  0  0  0  0  0  0
   43.3991   33.2569    2.3295 O   0  0  0  0  0  0  0  0  0  0  0  0
   38.5875   27.0396   -5.0783 C   0  0  2  0  0  0  0  0  0  0  0  0
   39.7304   26.3617   -4.4273 O   0  0  0  0  0  0  0  0  0  0  0  0
   40.1908   25.7940   -0.0089 C   0  0  2  0  0  0  0  0  0  0  0  0
   41.6229   25.9427   -0.3843 O   0  0  0  0  0  0  0  0  0  0  0  0
   42.5480   29.2013   -2.0799 C   0  0  0  0  0  0  0  0  0  0  0  0
   44.3671   32.7434    0.0981 C   0  0  1  0  0  0  0  0  0  0  0  0
   44.1697   31.2547    0.1421 O   0  0  0  0  0  0  0  0  0  0  0  0
   38.1683   26.3160   -6.3792 C   0  0  0  0  0  0  0  0  0  0  0  0
   38.0067   24.8558   -6.2536 N   0  0  0  0  0  0  0  0  0  0  0  0
   40.0781   24.5027    0.8293 C   0  0  1  0  0  0  0  0  0  0  0  0
   40.9436   24.5944    1.9655 O   0  0  0  0  0  0  0  0  0  0  0  0
   43.1858   33.4331   -0.6868 C   0  0  0  0  0  0  0  0  0  0  0  0
   43.3508   34.8914   -0.9860 N   0  0  0  0  0  0  0  0  0  0  0  0
  1  2  1  1  0  0  0
  1  7  1  0  0  0  0
  1 30  1  0  0  0  0
  3  4  1  6  0  0  0
  3  9  1  0  0  0  0
  3 38  1  0  0  0  0
  5 10  1  0  0  0  0
  5 26  1  6  0  0  0
  5 32  1  0  0  0  0
  6 12  1  0  0  0  0
  6 35  1  0  0  0  0
  6 19  1  1  0  0  0
  7  8  1  1  0  0  0
  7 14  1  0  0  0  0
  8 33  1  0  0  0  0
  9 16  1  0  0  0  0
 10 11  1  1  0  0  0
 10 18  1  0  0  0  0
 12 13  1  1  0  0  0
 12 20  1  0  0  0  0
 14 15  1  6  0  0  0
 14 22  1  0  0  0  0
 16 17  1  6  0  0  0
 16 24  1  0  0  0  0
 18 19  1  1  0  0  0
 18 25  1  0  0  0  0
 20 21  1  6  0  0  0
 20 27  1  0  0  0  0
 22 23  1  1  0  0  0
 22 29  1  0  0  0  0
 24  2  1  1  0  0  0
 24 31  1  0  0  0  0
 25 26  1  1  0  0  0
 25 33  1  0  0  0  0
 27 28  1  1  0  0  0
 27 34  1  0  0  0  0
 29 30  1  0  0  0  0
 29 36  1  6  0  0  0
 31 32  1  6  0  0  0
 31 38  1  0  0  0  0
 34 35  1  0  0  0  0
 34 40  1  1  0  0  0
 36 37  1  0  0  0  0
 38 39  1  1  0  0  0
 40 41  1  0  0  0  0
M  END
>  <CHROM.1>
-173.83470661,159.62364553,168.33643888,62.38153296,41.52694417,28.38555472
-0.96757559,2.97078798,0.84775425,2.38969152

>  <Name>
ligand

>  <RI>
0

>  <Rbt.Current_Directory>
/home/itssahil/PROJECTS/Mol_Feturizer/New_Systems/rnas/1ZZ5

>  <Rbt.Executable>
rbdock ($Id: //depot/dev/client3/rdock/2013.1/src/exe/rbdock.cxx#4 $)

>  <Rbt.Library>
libRbt.so (2013.1, Build901 2013/11/27)

>  <Rbt.Parameter_File>
/export/apps/rDock/src/rDock_2013.1_src/data/scripts/dock_solv.prm

>  <Rbt.Receptor>
prm/blind_docking_100.prm

>  <SCORE>
59.9606

>  <SCORE.INTER>
19.7787

>  <SCORE.INTER.CONST>
1

>  <SCORE.INTER.POLAR>
0

>  <SCORE.INTER.ROT>
4

>  <SCORE.INTER.SOLV>
16.7993

>  <SCORE.INTER.VDW>
1.31938

>  <SCORE.INTER.norm>
0.482408

>  <SCORE.INTRA>
-0.375491

>  <SCORE.INTRA.DIHEDRAL>
-2.45678

>  <SCORE.INTRA.DIHEDRAL.0>
5.18357

>  <SCORE.INTRA.POLAR>
0

>  <SCORE.INTRA.POLAR.0>
0

>  <SCORE.INTRA.REPUL>
0

>  <SCORE.INTRA.REPUL.0>
0

>  <SCORE.INTRA.SOLV>
-0.705162

>  <SCORE.INTRA.SOLV.lig_0>
-109.973

>  <SCORE.INTRA.VDW>
1.20548

>  <SCORE.INTRA.VDW.0>
-1.68646

>  <SCORE.INTRA.norm>
-0.00915831

>  <SCORE.RESTR>
40.5574

>  <SCORE.RESTR.CAVITY>
40.5574

>  <SCORE.RESTR.norm>
0.989204

>  <SCORE.SYSTEM>
0

>  <SCORE.SYSTEM.CONST>
0

>  <SCORE.SYSTEM.DIHEDRAL>
0

>  <SCORE.SYSTEM.SOLV>
0

>  <SCORE.SYSTEM.norm>
0

>  <SCORE.heavy>
41

>  <SCORE.norm>
1.46245

>  <RMSD>
14.331

$$$$
ligand
 OpenBabel11021811423D
libRbt.so/2013.1/901 2013/11/27
 41 45  0  0  0  0  0  0  0  0999 V2000
   41.5778   26.4878   -2.4078 C   0  0  2  0  0  0  0  0  0  0  0  0
   42.0501   25.8935   -1.1830 O   0  0  0  0  0  0  0  0  0  0  0  0
   45.8468   25.7733    0.9356 C   0  0  2  0  0  0  0  0  0  0  0  0
   47.3041   25.6209    1.1812 N   0  0  0  0  0  0  0  0  0  0  0  0
   43.2454   29.6040   -0.2616 C   0  0  1  0  0  0  0  0  0  0  0  0
   42.3956   32.3458    1.3356 C   0  0  1  0  0  0  0  0  0  0  0  0
   40.1496   27.0841   -2.2279 C   0  0  2  0  0  0  0  0  0  0  0  0
   40.0603   28.0260   -1.1080 N   0  0  0  0  0  0  0  0  0  0  0  0
   45.3148   24.4861    0.2299 C   0  0  0  0  0  0  0  0  0  0  0  0
   43.1473   30.8275   -1.2014 C   0  0  2  0  0  0  0  0  0  0  0  0
   44.1890   31.7766   -0.9512 O   0  0  0  0  0  0  0  0  0  0  0  0
   42.5993   33.7287    2.0893 C   0  0  2  0  0  0  0  0  0  0  0  0
   43.3513   34.7501    1.2980 N   0  0  0  0  0  0  0  0  0  0  0  0
   39.1110   25.9445   -2.0466 C   0  0  1  0  0  0  0  0  0  0  0  0
   37.8029   26.4932   -1.9095 O   0  0  0  0  0  0  0  0  0  0  0  0
   43.7894   24.5913   -0.0604 C   0  0  2  0  0  0  0  0  0  0  0  0
   43.3668   23.3387   -0.7148 N   0  0  0  0  0  0  0  0  0  0  0  0
   41.7425   31.3997   -0.9460 C   0  0  2  0  0  0  0  0  0  0  0  0
   41.7612   32.5262    0.0183 O   0  0  0  0  0  0  0  0  0  0  0  0
   43.3324   33.4813    3.4847 C   0  0  1  0  0  0  0  0  0  0  0  0
   42.4844   32.7524    4.3992 O   0  0  0  0  0  0  0  0  0  0  0  0
   39.1749   24.9833   -3.2560 C   0  0  2  0  0  0  0  0  0  0  0  0
   38.2203   23.9534   -3.1064 O   0  0  0  0  0  0  0  0  0  0  0  0
   43.4950   25.8591   -0.9382 C   0  0  2  0  0  0  0  0  0  0  0  0
   40.9544   30.2107   -0.4037 C   0  0  2  0  0  0  0  0  0  0  0  0
   41.9105   29.3275    0.1654 O   0  0  0  0  0  0  0  0  0  0  0  0
   44.6907   32.6895    3.3127 C   0  0  2  0  0  0  0  0  0  0  0  0
   45.6357   33.5175    2.6143 O   0  0  0  0  0  0  0  0  0  0  0  0
   40.5925   24.3927   -3.3909 C   0  0  2  0  0  0  0  0  0  0  0  0
   41.5519   25.5116   -3.5221 O   0  0  0  0  0  0  0  0  0  0  0  0
   44.0152   27.1769   -0.1732 C   0  0  2  0  0  0  0  0  0  0  0  0
   43.8016   28.4222   -0.9589 O   0  0  0  0  0  0  0  0  0  0  0  0
   40.1900   29.4429   -1.4722 C   0  0  0  0  0  0  0  0  0  0  0  0
   44.4307   31.3453    2.5191 C   0  0  1  0  0  0  0  0  0  0  0  0
   43.6965   31.5902    1.2314 O   0  0  0  0  0  0  0  0  0  0  0  0
   40.6506   23.4525   -4.6175 C   0  0  0  0  0  0  0  0  0  0  0  0
   42.0042   23.0050   -4.9939 N   0  0  0  0  0  0  0  0  0  0  0  0
   45.5338   27.0591    0.0776 C   0  0  1  0  0  0  0  0  0  0  0  0
   45.9974   28.2308    0.7566 O   0  0  0  0  0  0  0  0  0  0  0  0
   45.7433   30.5119    2.2553 C   0  0  0  0  0  0  0  0  0  0  0  0
   46.7131   31.0953    1.2742 N   0  0  0  0  0  0  0  0  0  0  0  0
  1  2  1  1  0  0  0
  1  7  1  0  0  0  0
  1 30  1  0  0  0  0
  3  4  1  6  0  0  0
  3  9  1  0  0  0  0
  3 38  1  0  0  0  0
  5 10  1  0  0  0  0
  5 26  1  6  0  0  0
  5 32  1  0  0  0  0
  6 12  1  0  0  0  0
  6 35  1  0  0  0  0
  6 19  1  6  0  0  0
  7  8  1  1  0  0  0
  7 14  1  0  0  0  0
  8 33  1  0  0  0  0
  9 16  1  0  0  0  0
 10 11  1  1  0  0  0
 10 18  1  0  0  0  0
 12 13  1  6  0  0  0
 12 20  1  0  0  0  0
 14 15  1  6  0  0  0
 14 22  1  0  0  0  0
 16 17  1  6  0  0  0
 16 24  1  0  0  0  0
 18 19  1  1  0  0  0
 18 25  1  0  0  0  0
 20 21  1  1  0  0  0
 20 27  1  0  0  0  0
 22 23  1  1  0  0  0
 22 29  1  0  0  0  0
 24  2  1  1  0  0  0
 24 31  1  0  0  0  0
 25 26  1  6  0  0  0
 25 33  1  0  0  0  0
 27 28  1  6  0  0  0
 27 34  1  0  0  0  0
 29 30  1  0  0  0  0
 29 36  1  6  0  0  0
 31 32  1  6  0  0  0
 31 38  1  0  0  0  0
 34 35  1  0  0  0  0
 34 40  1  6  0  0  0
 36 37  1  0  0  0  0
 38 39  1  1  0  0  0
 40 41  1  0  0  0  0
M  END
>  <CHROM.1>
-53.59690015,167.44832746,169.96469790,-69.81816768,42.76190009,28.52639962
-0.30877640,1.93322537,0.43409091,-2.75424365

>  <Name>
ligand

>  <RI>
0

>  <Rbt.Current_Directory>
/home/itssahil/PROJECTS/Mol_Feturizer/New_Systems/rnas/1ZZ5

>  <Rbt.Executable>
rbdock ($Id: //depot/dev/client3/rdock/2013.1/src/exe/rbdock.cxx#4 $)

>  <Rbt.Library>
libRbt.so (2013.1, Build901 2013/11/27)

>  <Rbt.Parameter_File>
/export/apps/rDock/src/rDock_2013.1_src/data/scripts/dock_solv.prm

>  <Rbt.Receptor>
prm/blind_docking_100.prm

>  <SCORE>
47.0778

>  <SCORE.INTER>
5.06277

>  <SCORE.INTER.CONST>
1

>  <SCORE.INTER.POLAR>
0

>  <SCORE.INTER.ROT>
4

>  <SCORE.INTER.SOLV>
14.94

>  <SCORE.INTER.VDW>
-7.87148

>  <SCORE.INTER.norm>
0.123482

>  <SCORE.INTRA>
5.88055

>  <SCORE.INTRA.DIHEDRAL>
-3.31512

>  <SCORE.INTRA.DIHEDRAL.0>
5.18357

>  <SCORE.INTRA.POLAR>
0

>  <SCORE.INTRA.POLAR.0>
0

>  <SCORE.INTRA.REPUL>
0.00515843

>  <SCORE.INTRA.REPUL.0>
0

>  <SCORE.INTRA.SOLV>
4.52922

>  <SCORE.INTRA.SOLV.lig_0>
-109.973

>  <SCORE.INTRA.VDW>
5.2477

>  <SCORE.INTRA.VDW.0>
-1.68646

>  <SCORE.INTRA.norm>
0.143428

>  <SCORE.RESTR>
36.1345

>  <SCORE.RESTR.CAVITY>
36.1345

>  <SCORE.RESTR.norm>
0.88133

>  <SCORE.SYSTEM>
0

>  <SCORE.SYSTEM.CONST>
0

>  <SCORE.SYSTEM.DIHEDRAL>
0

>  <SCORE.SYSTEM.SOLV>
0

>  <SCORE.SYSTEM.norm>
0

>  <SCORE.heavy>
41

>  <SCORE.norm>
1.14824

>  <RMSD>
15.136

$$$$
ligand
 OpenBabel11021811423D
libRbt.so/2013.1/901 2013/11/27
 41 45  0  0  0  0  0  0  0  0999 V2000
   40.5917   26.0535   -1.9688 C   0  0  2  0  0  0  0  0  0  0  0  0
   40.6107   27.2201   -2.8144 O   0  0  0  0  0  0  0  0  0  0  0  0
   39.9285   31.4761   -2.2321 C   0  0  2  0  0  0  0  0  0  0  0  0
   39.2869   32.7382   -1.7821 N   0  0  0  0  0  0  0  0  0  0  0  0
   43.1942   28.6868   -0.1274 C   0  0  1  0  0  0  0  0  0  0  0  0
   46.2640   29.1684    0.8740 C   0  0  1  0  0  0  0  0  0  0  0  0
   41.7633   25.0878   -2.3184 C   0  0  2  0  0  0  0  0  0  0  0  0
   43.0733   25.7454   -2.2919 N   0  0  0  0  0  0  0  0  0  0  0  0
   38.8788   30.6254   -3.0147 C   0  0  0  0  0  0  0  0  0  0  0  0
   43.6039   27.9827    1.1865 C   0  0  2  0  0  0  0  0  0  0  0  0
   43.9366   28.9226    2.2134 O   0  0  0  0  0  0  0  0  0  0  0  0
   46.2607   29.9671    2.2466 C   0  0  2  0  0  0  0  0  0  0  0  0
   45.0599   29.7102    3.0992 N   0  0  0  0  0  0  0  0  0  0  0  0
   41.5253   24.4356   -3.7070 C   0  0  1  0  0  0  0  0  0  0  0  0
   42.5854   23.5328   -4.0107 O   0  0  0  0  0  0  0  0  0  0  0  0
   39.4941   29.2830   -3.5063 C   0  0  2  0  0  0  0  0  0  0  0  0
   38.4466   28.5482   -4.2402 N   0  0  0  0  0  0  0  0  0  0  0  0
   44.7883   27.0845    0.7909 C   0  0  2  0  0  0  0  0  0  0  0  0
   46.0967   27.7195    1.0809 O   0  0  0  0  0  0  0  0  0  0  0  0
   46.3952   31.5314    1.9625 C   0  0  1  0  0  0  0  0  0  0  0  0
   47.6942   31.8547    1.4195 O   0  0  0  0  0  0  0  0  0  0  0  0
   40.1651   23.7002   -3.7116 C   0  0  2  0  0  0  0  0  0  0  0  0
   39.9496   23.0895   -4.9664 O   0  0  0  0  0  0  0  0  0  0  0  0
   40.0581   28.4712   -2.2868 C   0  0  2  0  0  0  0  0  0  0  0  0
   44.5944   26.8587   -0.7059 C   0  0  2  0  0  0  0  0  0  0  0  0
   43.8359   27.9630   -1.1786 O   0  0  0  0  0  0  0  0  0  0  0  0
   45.2846   32.0541    0.9650 C   0  0  2  0  0  0  0  0  0  0  0  0
   43.9988   31.9692    1.6022 O   0  0  0  0  0  0  0  0  0  0  0  0
   39.0264   24.6875   -3.3868 C   0  0  2  0  0  0  0  0  0  0  0  0
   39.3128   25.3131   -2.0767 O   0  0  0  0  0  0  0  0  0  0  0  0
   41.1666   29.3516   -1.5197 C   0  0  2  0  0  0  0  0  0  0  0  0
   41.7273   28.6614   -0.3267 O   0  0  0  0  0  0  0  0  0  0  0  0
   43.8251   25.5890   -1.0400 C   0  0  0  0  0  0  0  0  0  0  0  0
   45.3091   31.1936   -0.3629 C   0  0  1  0  0  0  0  0  0  0  0  0
   45.2309   29.7210   -0.0755 O   0  0  0  0  0  0  0  0  0  0  0  0
   37.6746   23.9364   -3.3702 C   0  0  0  0  0  0  0  0  0  0  0  0
   36.5104   24.7603   -2.9964 N   0  0  0  0  0  0  0  0  0  0  0  0
   40.5245   30.6630   -1.0192 C   0  0  1  0  0  0  0  0  0  0  0  0
   41.5089   31.4458   -0.3360 O   0  0  0  0  0  0  0  0  0  0  0  0
   44.1966   31.6127   -1.3992 C   0  0  0  0  0  0  0  0  0  0  0  0
   44.2410   33.0295   -1.8830 N   0  0  0  0  0  0  0  0  0  0  0  0
  1  2  1  6  0  0  0
  1  7  1  0  0  0  0
  1 30  1  0  0  0  0
  3  4  1  1  0  0  0
  3  9  1  0  0  0  0
  3 38  1  0  0  0  0
  5 10  1  0  0  0  0
  5 26  1  6  0  0  0
  5 32  1  0  0  0  0
  6 12  1  0  0  0  0
  6 35  1  0  0  0  0
  6 19  1  1  0  0  0
  7  8  1  6  0  0  0
  7 14  1  0  0  0  0
  8 33  1  0  0  0  0
  9 16  1  0  0  0  0
 10 11  1  1  0  0  0
 10 18  1  0  0  0  0
 12 13  1  6  0  0  0
 12 20  1  0  0  0  0
 14 15  1  1  0  0  0
 14 22  1  0  0  0  0
 16 17  1  1  0  0  0
 16 24  1  0  0  0  0
 18 19  1  6  0  0  0
 18 25  1  0  0  0  0
 20 21  1  6  0  0  0
 20 27  1  0  0  0  0
 22 23  1  6  0  0  0
 22 29  1  0  0  0  0
 24  2  1  6  0  0  0
 24 31  1  0  0  0  0
 25 26  1  1  0  0  0
 25 33  1  0  0  0  0
 27 28  1  1  0  0  0
 27 34  1  0  0  0  0
 29 30  1  0  0  0  0
 29 36  1  1  0  0  0
 31 32  1  1  0  0  0
 31 38  1  0  0  0  0
 34 35  1  0  0  0  0
 34 40  1  6  0  0  0
 36 37  1  0  0  0  0
 38 39  1  6  0  0  0
 40 41  1  0  0  0  0
M  END
>  <CHROM.1>
-37.55354702,104.23045878,176.76739387,59.47916973,42.39999402,28.32003131
-1.14197671,-2.38124696,-0.51492865,0.19586388

>  <Name>
ligand

>  <RI>
0

>  <Rbt.Current_Directory>
/home/itssahil/PROJECTS/Mol_Feturizer/New_Systems/rnas/1ZZ5

>  <Rbt.Executable>
rbdock ($Id: //depot/dev/client3/rdock/2013.1/src/exe/rbdock.cxx#4 $)

>  <Rbt.Library>
libRbt.so (2013.1, Build901 2013/11/27)

>  <Rbt.Parameter_File>
/export/apps/rDock/src/rDock_2013.1_src/data/scripts/dock_solv.prm

>  <Rbt.Receptor>
prm/blind_docking_100.prm

>  <SCORE>
107.137

>  <SCORE.INTER>
48.1055

>  <SCORE.INTER.CONST>
1

>  <SCORE.INTER.POLAR>
0

>  <SCORE.INTER.ROT>
4

>  <SCORE.INTER.SOLV>
20.7482

>  <SCORE.INTER.VDW>
18.8876

>  <SCORE.INTER.norm>
1.1733

>  <SCORE.INTRA>
29.0071

>  <SCORE.INTRA.DIHEDRAL>
3.16701

>  <SCORE.INTRA.DIHEDRAL.0>
5.18357

>  <SCORE.INTRA.POLAR>
0

>  <SCORE.INTRA.POLAR.0>
0

>  <SCORE.INTRA.REPUL>
0

>  <SCORE.INTRA.REPUL.0>
0

>  <SCORE.INTRA.SOLV>
5.96914

>  <SCORE.INTRA.SOLV.lig_0>
-109.973

>  <SCORE.INTRA.VDW>
24.439

>  <SCORE.INTRA.VDW.0>
-1.68646

>  <SCORE.INTRA.norm>
0.70749

>  <SCORE.RESTR>
30.0244

>  <SCORE.RESTR.CAVITY>
30.0244

>  <SCORE.RESTR.norm>
0.732303

>  <SCORE.SYSTEM>
0

>  <SCORE.SYSTEM.CONST>
0

>  <SCORE.SYSTEM.DIHEDRAL>
0

>  <SCORE.SYSTEM.SOLV>
0

>  <SCORE.SYSTEM.norm>
0

>  <SCORE.heavy>
41

>  <SCORE.norm>
2.6131

>  <RMSD>
15.206

$$$$
ligand
 OpenBabel11021811423D
libRbt.so/2013.1/901 2013/11/27
 41 45  0  0  0  0  0  0  0  0999 V2000
   43.8456   31.0419   -0.3799 C   0  0  2  0  0  0  0  0  0  0  0  0
   42.4385   31.1815   -0.1018 O   0  0  0  0  0  0  0  0  0  0  0  0
   38.7831   30.9574   -2.4482 C   0  0  2  0  0  0  0  0  0  0  0  0
   37.8193   31.1838   -3.5559 N   0  0  0  0  0  0  0  0  0  0  0  0
   42.1062   27.5763   -1.8159 C   0  0  1  0  0  0  0  0  0  0  0  0
   41.9679   24.3538   -1.0992 C   0  0  1  0  0  0  0  0  0  0  0  0
   44.5657   30.2508    0.7529 C   0  0  2  0  0  0  0  0  0  0  0  0
   43.9440   28.9518    1.0271 N   0  0  0  0  0  0  0  0  0  0  0  0
   39.2749   32.3398   -1.9142 C   0  0  0  0  0  0  0  0  0  0  0  0
   43.2660   26.7979   -2.4783 C   0  0  2  0  0  0  0  0  0  0  0  0
   42.8057   25.9610   -3.5442 O   0  0  0  0  0  0  0  0  0  0  0  0
   41.5779   22.8671   -1.4990 C   0  0  2  0  0  0  0  0  0  0  0  0
   42.0096   22.4719   -2.8746 N   0  0  0  0  0  0  0  0  0  0  0  0
   44.6160   31.0995    2.0520 C   0  0  1  0  0  0  0  0  0  0  0  0
   45.2991   30.3830    3.0772 O   0  0  0  0  0  0  0  0  0  0  0  0
   40.2963   32.1652   -0.7530 C   0  0  2  0  0  0  0  0  0  0  0  0
   40.7012   33.5099   -0.3018 N   0  0  0  0  0  0  0  0  0  0  0  0
   43.9057   26.0032   -1.3270 C   0  0  2  0  0  0  0  0  0  0  0  0
   43.4097   24.6069   -1.2643 O   0  0  0  0  0  0  0  0  0  0  0  0
   40.0027   22.6621   -1.3489 C   0  0  1  0  0  0  0  0  0  0  0  0
   39.5963   22.7269    0.0358 O   0  0  0  0  0  0  0  0  0  0  0  0
   45.3188   32.4471    1.7678 C   0  0  2  0  0  0  0  0  0  0  0  0
   45.3838   33.2174    2.9495 O   0  0  0  0  0  0  0  0  0  0  0  0
   41.5139   31.2985   -1.2333 C   0  0  2  0  0  0  0  0  0  0  0  0
   43.5208   26.7913   -0.0781 C   0  0  2  0  0  0  0  0  0  0  0  0
   42.3369   27.5037   -0.4079 O   0  0  0  0  0  0  0  0  0  0  0  0
   39.1806   23.7359   -2.1690 C   0  0  2  0  0  0  0  0  0  0  0  0
   39.3844   23.5150   -3.5748 O   0  0  0  0  0  0  0  0  0  0  0  0
   44.5683   33.2146    0.6613 C   0  0  2  0  0  0  0  0  0  0  0  0
   44.5101   32.3562   -0.5426 O   0  0  0  0  0  0  0  0  0  0  0  0
   40.9873   29.8641   -1.7410 C   0  0  2  0  0  0  0  0  0  0  0  0
   42.0829   28.9929   -2.2457 O   0  0  0  0  0  0  0  0  0  0  0  0
   44.5692   27.8060    0.3540 C   0  0  0  0  0  0  0  0  0  0  0  0
   39.6431   25.1927   -1.7587 C   0  0  1  0  0  0  0  0  0  0  0  0
   41.1335   25.3543   -1.8587 O   0  0  0  0  0  0  0  0  0  0  0  0
   45.2939   34.5487    0.3688 C   0  0  0  0  0  0  0  0  0  0  0  0
   45.3854   35.4708    1.5157 N   0  0  0  0  0  0  0  0  0  0  0  0
   39.9985   30.0643   -2.9092 C   0  0  1  0  0  0  0  0  0  0  0  0
   39.5308   28.7896   -3.3622 O   0  0  0  0  0  0  0  0  0  0  0  0
   38.9098   26.3315   -2.5666 C   0  0  0  0  0  0  0  0  0  0  0  0
   37.4129   26.2803   -2.5745 N   0  0  0  0  0  0  0  0  0  0  0  0
  1  2  1  1  0  0  0
  1  7  1  0  0  0  0
  1 30  1  0  0  0  0
  3  4  1  6  0  0  0
  3  9  1  0  0  0  0
  3 38  1  0  0  0  0
  5 10  1  0  0  0  0
  5 26  1  1  0  0  0
  5 32  1  0  0  0  0
  6 12  1  0  0  0  0
  6 35  1  0  0  0  0
  6 19  1  6  0  0  0
  7  8  1  1  0  0  0
  7 14  1  0  0  0  0
  8 33  1  0  0  0  0
  9 16  1  0  0  0  0
 10 11  1  6  0  0  0
 10 18  1  0  0  0  0
 12 13  1  6  0  0  0
 12 20  1  0  0  0  0
 14 15  1  1  0  0  0
 14 22  1  0  0  0  0
 16 17  1  6  0  0  0
 16 24  1  0  0  0  0
 18 19  1  1  0  0  0
 18 25  1  0  0  0  0
 20 21  1  1  0  0  0
 20 27  1  0  0  0  0
 22 23  1  1  0  0  0
 22 29  1  0  0  0  0
 24  2  1  1  0  0  0
 24 31  1  0  0  0  0
 25 26  1  6  0  0  0
 25 33  1  0  0  0  0
 27 28  1  6  0  0  0
 27 34  1  0  0  0  0
 29 30  1  0  0  0  0
 29 36  1  6  0  0  0
 31 32  1  6  0  0  0
 31 38  1  0  0  0  0
 34 35  1  0  0  0  0
 34 40  1  6  0  0  0
 36 37  1  0  0  0  0
 38 39  1  1  0  0  0
 40 41  1  0  0  0  0
M  END
>  <CHROM.1>
-58.41289093,162.30173215,-60.60384711,52.59134270,42.03227577,28.56143974
-0.95371695,-1.11211178,0.55654348,-3.05974096

>  <Name>
ligand

>  <RI>
0

>  <Rbt.Current_Directory>
/home/itssahil/PROJECTS/Mol_Feturizer/New_Systems/rnas/1ZZ5

>  <Rbt.Executable>
rbdock ($Id: //depot/dev/client3/rdock/2013.1/src/exe/rbdock.cxx#4 $)

>  <Rbt.Library>
libRbt.so (2013.1, Build901 2013/11/27)

>  <Rbt.Parameter_File>
/export/apps/rDock/src/rDock_2013.1_src/data/scripts/dock_solv.prm

>  <Rbt.Receptor>
prm/blind_docking_100.prm

>  <SCORE>
54.0973

>  <SCORE.INTER>
13.0284

>  <SCORE.INTER.CONST>
1

>  <SCORE.INTER.POLAR>
0

>  <SCORE.INTER.ROT>
4

>  <SCORE.INTER.SOLV>
18.2914

>  <SCORE.INTER.VDW>
-3.67822

>  <SCORE.INTER.norm>
0.317765

>  <SCORE.INTRA>
5.28492

>  <SCORE.INTRA.DIHEDRAL>
-3.32847

>  <SCORE.INTRA.DIHEDRAL.0>
5.18357

>  <SCORE.INTRA.POLAR>
0

>  <SCORE.INTRA.POLAR.0>
0

>  <SCORE.INTRA.REPUL>
0.0015565

>  <SCORE.INTRA.REPUL.0>
0

>  <SCORE.INTRA.SOLV>
3.4689

>  <SCORE.INTRA.SOLV.lig_0>
-109.973

>  <SCORE.INTRA.VDW>
5.20692

>  <SCORE.INTRA.VDW.0>
-1.68646

>  <SCORE.INTRA.norm>
0.1289

>  <SCORE.RESTR>
35.784

>  <SCORE.RESTR.CAVITY>
35.784

>  <SCORE.RESTR.norm>
0.87278

>  <SCORE.SYSTEM>
0

>  <SCORE.SYSTEM.CONST>
0

>  <SCORE.SYSTEM.DIHEDRAL>
0

>  <SCORE.SYSTEM.SOLV>
0

>  <SCORE.SYSTEM.norm>
0

>  <SCORE.heavy>
41

>  <SCORE.norm>
1.31945

>  <RMSD>
16.101

$$$$
ligand
 OpenBabel11021811423D
libRbt.so/2013.1/901 2013/11/27
 41 45  0  0  0  0  0  0  0  0999 V2000
   43.8728   31.0138   -0.3349 C   0  0  2  0  0  0  0  0  0  0  0  0
   42.4676   31.1624   -0.0522 O   0  0  0  0  0  0  0  0  0  0  0  0
   38.8055   30.9976   -2.3931 C   0  0  2  0  0  0  0  0  0  0  0  0
   37.8415   31.2453   -3.4960 N   0  0  0  0  0  0  0  0  0  0  0  0
   42.1003   27.5805   -1.8075 C   0  0  1  0  0  0  0  0  0  0  0  0
   41.9363   24.3510   -1.1192 C   0  0  1  0  0  0  0  0  0  0  0  0
   44.5883   30.2033    0.7870 C   0  0  2  0  0  0  0  0  0  0  0  0
   43.9558   28.9066    1.0474 N   0  0  0  0  0  0  0  0  0  0  0  0
   39.3105   32.3694   -1.8441 C   0  0  0  0  0  0  0  0  0  0  0  0
   43.2518   26.7998   -2.4814 C   0  0  2  0  0  0  0  0  0  0  0  0
   42.7821   25.9794   -3.5561 O   0  0  0  0  0  0  0  0  0  0  0  0
   41.5354   22.8627   -1.5017 C   0  0  2  0  0  0  0  0  0  0  0  0
   41.9584   22.4507   -2.8751 N   0  0  0  0  0  0  0  0  0  0  0  0
   44.6487   31.0362    2.0958 C   0  0  1  0  0  0  0  0  0  0  0  0
   45.3276   30.3019    3.1111 O   0  0  0  0  0  0  0  0  0  0  0  0
   40.3327   32.1723   -0.6872 C   0  0  2  0  0  0  0  0  0  0  0  0
   40.7503   33.5081   -0.2212 N   0  0  0  0  0  0  0  0  0  0  0  0
   43.8869   25.9862   -1.3409 C   0  0  2  0  0  0  0  0  0  0  0  0
   43.3788   24.5936   -1.2934 O   0  0  0  0  0  0  0  0  0  0  0  0
   39.9597   22.6690   -1.3424 C   0  0  1  0  0  0  0  0  0  0  0  0
   39.5601   22.7506    0.0435 O   0  0  0  0  0  0  0  0  0  0  0  0
   45.3627   32.3809    1.8258 C   0  0  2  0  0  0  0  0  0  0  0  0
   45.4369   33.1368    3.0163 O   0  0  0  0  0  0  0  0  0  0  0  0
   41.5417   31.3006   -1.1802 C   0  0  2  0  0  0  0  0  0  0  0  0
   43.5115   26.7629   -0.0821 C   0  0  2  0  0  0  0  0  0  0  0  0
   42.3332   27.4895   -0.4009 O   0  0  0  0  0  0  0  0  0  0  0  0
   39.1405   23.7393   -2.1699 C   0  0  2  0  0  0  0  0  0  0  0  0
   39.3364   23.5025   -3.5741 O   0  0  0  0  0  0  0  0  0  0  0  0
   44.6166   33.1678    0.7299 C   0  0  2  0  0  0  0  0  0  0  0  0
   44.5484   32.3241   -0.4838 O   0  0  0  0  0  0  0  0  0  0  0  0
   41.0016   29.8769   -1.7035 C   0  0  2  0  0  0  0  0  0  0  0  0
   42.0884   29.0022   -2.2207 O   0  0  0  0  0  0  0  0  0  0  0  0
   44.5697   27.7633    0.3595 C   0  0  0  0  0  0  0  0  0  0  0  0
   39.6137   25.1974   -1.7768 C   0  0  1  0  0  0  0  0  0  0  0  0
   41.1045   25.3488   -1.8852 O   0  0  0  0  0  0  0  0  0  0  0  0
   45.3532   34.4988    0.4514 C   0  0  0  0  0  0  0  0  0  0  0  0
   44.7219   35.3571   -0.5679 N   0  0  0  0  0  0  0  0  0  0  0  0
   40.0121   30.0994   -2.8672 C   0  0  1  0  0  0  0  0  0  0  0  0
   39.5324   28.8342   -3.3339 O   0  0  0  0  0  0  0  0  0  0  0  0
   38.8836   26.3322   -2.5931 C   0  0  0  0  0  0  0  0  0  0  0  0
   37.3865   26.2887   -2.5957 N   0  0  0  0  0  0  0  0  0  0  0  0
  1  2  1  1  0  0  0
  1  7  1  0  0  0  0
  1 30  1  0  0  0  0
  3  4  1  6  0  0  0
  3  9  1  0  0  0  0
  3 38  1  0  0  0  0
  5 10  1  0  0  0  0
  5 26  1  1  0  0  0
  5 32  1  0  0  0  0
  6 12  1  0  0  0  0
  6 35  1  0  0  0  0
  6 19  1  6  0  0  0
  7  8  1  1  0  0  0
  7 14  1  0  0  0  0
  8 33  1  0  0  0  0
  9 16  1  0  0  0  0
 10 11  1  6  0  0  0
 10 18  1  0  0  0  0
 12 13  1  6  0  0  0
 12 20  1  0  0  0  0
 14 15  1  1  0  0  0
 14 22  1  0  0  0  0
 16 17  1  6  0  0  0
 16 24  1  0  0  0  0
 18 19  1  1  0  0  0
 18 25  1  0  0  0  0
 20 21  1  1  0  0  0
 20 27  1  0  0  0  0
 22 23  1  1  0  0  0
 22 29  1  0  0  0  0
 24  2  1  1  0  0  0
 24 31  1  0  0  0  0
 25 26  1  6  0  0  0
 25 33  1  0  0  0  0
 27 28  1  6  0  0  0
 27 34  1  0  0  0  0
 29 30  1  0  0  0  0
 29 36  1  6  0  0  0
 31 32  1  6  0  0  0
 31 38  1  0  0  0  0
 34 35  1  0  0  0  0
 34 40  1  6  0  0  0
 36 37  1  0  0  0  0
 38 39  1  1  0  0  0
 40 41  1  0  0  0  0
M  END
>  <CHROM.1>
-58.81857378,163.73214264,-179.03445277,52.48673434,42.01884256,28.54856748
-0.98150360,-1.11541242,0.55728407,-3.07999630

>  <Name>
ligand

>  <RI>
0

>  <Rbt.Current_Directory>
/home/itssahil/PROJECTS/Mol_Feturizer/New_Systems/rnas/1ZZ5

>  <Rbt.Executable>
rbdock ($Id: //depot/dev/client3/rdock/2013.1/src/exe/rbdock.cxx#4 $)

>  <Rbt.Library>
libRbt.so (2013.1, Build901 2013/11/27)

>  <Rbt.Parameter_File>
/export/apps/rDock/src/rDock_2013.1_src/data/scripts/dock_solv.prm

>  <Rbt.Receptor>
prm/blind_docking_100.prm

>  <SCORE>
54.4751

>  <SCORE.INTER>
15.0289

>  <SCORE.INTER.CONST>
1

>  <SCORE.INTER.POLAR>
0

>  <SCORE.INTER.ROT>
4

>  <SCORE.INTER.SOLV>
19.4703

>  <SCORE.INTER.VDW>
-2.73752

>  <SCORE.INTER.norm>
0.366558

>  <SCORE.INTRA>
3.63477

>  <SCORE.INTRA.DIHEDRAL>
-3.53059

>  <SCORE.INTRA.DIHEDRAL.0>
5.18357

>  <SCORE.INTRA.POLAR>
0

>  <SCORE.INTRA.POLAR.0>
0

>  <SCORE.INTRA.REPUL>
0.00263184

>  <SCORE.INTRA.REPUL.0>
0

>  <SCORE.INTRA.SOLV>
2.0249

>  <SCORE.INTRA.SOLV.lig_0>
-109.973

>  <SCORE.INTRA.VDW>
4.37446

>  <SCORE.INTRA.VDW.0>
-1.68646

>  <SCORE.INTRA.norm>
0.088653

>  <SCORE.RESTR>
35.8114

>  <SCORE.RESTR.CAVITY>
35.8114

>  <SCORE.RESTR.norm>
0.873449

>  <SCORE.SYSTEM>
0

>  <SCORE.SYSTEM.CONST>
0

>  <SCORE.SYSTEM.DIHEDRAL>
0

>  <SCORE.SYSTEM.SOLV>
0

>  <SCORE.SYSTEM.norm>
0

>  <SCORE.heavy>
41

>  <SCORE.norm>
1.32866

>  <RMSD>
16.106

$$$$
ligand
 OpenBabel11021811423D
libRbt.so/2013.1/901 2013/11/27
 41 45  0  0  0  0  0  0  0  0999 V2000
   43.1598   30.3547    1.0062 C   0  0  2  0  0  0  0  0  0  0  0  0
   44.2450   30.0743    0.1006 O   0  0  0  0  0  0  0  0  0  0  0  0
   47.2504   26.9504   -0.2553 C   0  0  2  0  0  0  0  0  0  0  0  0
   48.3160   25.9884    0.1273 N   0  0  0  0  0  0  0  0  0  0  0  0
   42.4895   26.4997   -0.3310 C   0  0  1  0  0  0  0  0  0  0  0  0
   39.1203   25.8153   -2.6451 C   0  0  1  0  0  0  0  0  0  0  0  0
   41.9078   30.8745    0.2380 C   0  0  2  0  0  0  0  0  0  0  0  0
   41.4851   29.9758   -0.8404 N   0  0  0  0  0  0  0  0  0  0  0  0
   47.6751   28.3831    0.1973 C   0  0  0  0  0  0  0  0  0  0  0  0
   41.2481   26.0196    0.4552 C   0  0  2  0  0  0  0  0  0  0  0  0
   41.2481   24.5997    0.6359 O   0  0  0  0  0  0  0  0  0  0  0  0
   40.2303   25.3937   -3.6998 C   0  0  2  0  0  0  0  0  0  0  0  0
   41.5912   25.9367   -3.4035 N   0  0  0  0  0  0  0  0  0  0  0  0
   42.1775   32.2941   -0.3297 C   0  0  1  0  0  0  0  0  0  0  0  0
   41.0209   32.7766   -1.0082 O   0  0  0  0  0  0  0  0  0  0  0  0
   46.5901   29.4362   -0.1716 C   0  0  2  0  0  0  0  0  0  0  0  0
   47.0705   30.7562    0.2787 N   0  0  0  0  0  0  0  0  0  0  0  0
   40.0503   26.5176   -0.3715 C   0  0  2  0  0  0  0  0  0  0  0  0
   39.5103   25.4668   -1.2680 O   0  0  0  0  0  0  0  0  0  0  0  0
   39.7804   25.8371   -5.1650 C   0  0  1  0  0  0  0  0  0  0  0  0
   38.6299   25.0848   -5.6091 O   0  0  0  0  0  0  0  0  0  0  0  0
   42.5731   33.2492    0.8201 C   0  0  2  0  0  0  0  0  0  0  0  0
   42.8030   34.5471    0.3134 O   0  0  0  0  0  0  0  0  0  0  0  0
   45.2155   29.0418    0.4760 C   0  0  2  0  0  0  0  0  0  0  0  0
   40.6139   27.6943   -1.1631 C   0  0  2  0  0  0  0  0  0  0  0  0
   42.0130   27.4699   -1.2651 O   0  0  0  0  0  0  0  0  0  0  0  0
   39.4383   27.3793   -5.2427 C   0  0  2  0  0  0  0  0  0  0  0  0
   40.6420   28.1411   -5.0496 O   0  0  0  0  0  0  0  0  0  0  0  0
   43.8276   32.7196    1.5429 C   0  0  2  0  0  0  0  0  0  0  0  0
   43.5401   31.3532    2.0327 O   0  0  0  0  0  0  0  0  0  0  0  0
   44.7784   27.5793   -0.0362 C   0  0  2  0  0  0  0  0  0  0  0  0
   43.4962   27.1180    0.5614 O   0  0  0  0  0  0  0  0  0  0  0  0
   40.4070   29.0425   -0.4886 C   0  0  0  0  0  0  0  0  0  0  0  0
   38.3616   27.7455   -4.1424 C   0  0  1  0  0  0  0  0  0  0  0  0
   38.7777   27.2780   -2.7765 O   0  0  0  0  0  0  0  0  0  0  0  0
   44.1990   33.6695    2.7054 C   0  0  0  0  0  0  0  0  0  0  0  0
   45.4603   33.3430    3.3960 N   0  0  0  0  0  0  0  0  0  0  0  0
   45.8569   26.5508    0.3661 C   0  0  1  0  0  0  0  0  0  0  0  0
   45.4686   25.2501   -0.0877 O   0  0  0  0  0  0  0  0  0  0  0  0
   37.9962   29.2795   -4.1122 C   0  0  0  0  0  0  0  0  0  0  0  0
   39.1112   30.2200   -3.7723 N   0  0  0  0  0  0  0  0  0  0  0  0
  1  2  1  6  0  0  0
  1  7  1  0  0  0  0
  1 30  1  0  0  0  0
  3  4  1  1  0  0  0
  3  9  1  0  0  0  0
  3 38  1  0  0  0  0
  5 10  1  0  0  0  0
  5 26  1  6  0  0  0
  5 32  1  0  0  0  0
  6 12  1  0  0  0  0
  6 35  1  0  0  0  0
  6 19  1  1  0  0  0
  7  8  1  6  0  0  0
  7 14  1  0  0  0  0
  8 33  1  0  0  0  0
  9 16  1  0  0  0  0
 10 11  1  6  0  0  0
 10 18  1  0  0  0  0
 12 13  1  1  0  0  0
 12 20  1  0  0  0  0
 14 15  1  1  0  0  0
 14 22  1  0  0  0  0
 16 17  1  1  0  0  0
 16 24  1  0  0  0  0
 18 19  1  6  0  0  0
 18 25  1  0  0  0  0
 20 21  1  1  0  0  0
 20 27  1  0  0  0  0
 22 23  1  6  0  0  0
 22 29  1  0  0  0  0
 24  2  1  6  0  0  0
 24 31  1  0  0  0  0
 25 26  1  1  0  0  0
 25 33  1  0  0  0  0
 27 28  1  1  0  0  0
 27 34  1  0  0  0  0
 29 30  1  0  0  0  0
 29 36  1  1  0  0  0
 31 32  1  1  0  0  0
 31 38  1  0  0  0  0
 34 35  1  0  0  0  0
 34 40  1  1  0  0  0
 36 37  1  0  0  0  0
 38 39  1  6  0  0  0
 40 41  1  0  0  0  0
M  END
>  <CHROM.1>
-137.99995059,100.77610750,-174.35880582,-62.62345424,42.39973578,28.62235986
-0.93244425,0.72943628,-0.51657647,0.30449756

>  <Name>
ligand

>  <RI>
0

>  <Rbt.Current_Directory>
/home/itssahil/PROJECTS/Mol_Feturizer/New_Systems/rnas/1ZZ5

>  <Rbt.Executable>
rbdock ($Id: //depot/dev/client3/rdock/2013.1/src/exe/rbdock.cxx#4 $)

>  <Rbt.Library>
libRbt.so (2013.1, Build901 2013/11/27)

>  <Rbt.Parameter_File>
/export/apps/rDock/src/rDock_2013.1_src/data/scripts/dock_solv.prm

>  <Rbt.Receptor>
prm/blind_docking_100.prm

>  <SCORE>
64.317

>  <SCORE.INTER>
20.5832

>  <SCORE.INTER.CONST>
1

>  <SCORE.INTER.POLAR>
0

>  <SCORE.INTER.ROT>
4

>  <SCORE.INTER.SOLV>
20.5682

>  <SCORE.INTER.VDW>
0.599423

>  <SCORE.INTER.norm>
0.50203

>  <SCORE.INTRA>
8.24049

>  <SCORE.INTRA.DIHEDRAL>
6.22454

>  <SCORE.INTRA.DIHEDRAL.0>
5.18357

>  <SCORE.INTRA.POLAR>
0

>  <SCORE.INTRA.POLAR.0>
0

>  <SCORE.INTRA.REPUL>
0

>  <SCORE.INTRA.REPUL.0>
0

>  <SCORE.INTRA.SOLV>
5.89246

>  <SCORE.INTRA.SOLV.lig_0>
-109.973

>  <SCORE.INTRA.VDW>
2.18199

>  <SCORE.INTRA.VDW.0>
-1.68646

>  <SCORE.INTRA.norm>
0.200988

>  <SCORE.RESTR>
35.4933

>  <SCORE.RESTR.CAVITY>
35.4933

>  <SCORE.RESTR.norm>
0.865689

>  <SCORE.SYSTEM>
0

>  <SCORE.SYSTEM.CONST>
0

>  <SCORE.SYSTEM.DIHEDRAL>
0

>  <SCORE.SYSTEM.SOLV>
0

>  <SCORE.SYSTEM.norm>
0

>  <SCORE.heavy>
41

>  <SCORE.norm>
1.56871

>  <RMSD>
16.136

$$$$
ligand
 OpenBabel11021811423D
libRbt.so/2013.1/901 2013/11/27
 41 45  0  0  0  0  0  0  0  0999 V2000
   43.9064   30.7301   -0.3717 C   0  0  2  0  0  0  0  0  0  0  0  0
   42.4871   30.8289   -0.1429 O   0  0  0  0  0  0  0  0  0  0  0  0
   38.9260   30.5598   -2.6256 C   0  0  2  0  0  0  0  0  0  0  0  0
   37.9975   30.7838   -3.7635 N   0  0  0  0  0  0  0  0  0  0  0  0
   42.3099   27.2510   -1.9353 C   0  0  1  0  0  0  0  0  0  0  0  0
   42.2274   24.0127   -1.2997 C   0  0  1  0  0  0  0  0  0  0  0  0
   44.6051   29.9351    0.7717 C   0  0  2  0  0  0  0  0  0  0  0  0
   44.0075   28.6158    0.9985 N   0  0  0  0  0  0  0  0  0  0  0  0
   39.3625   31.9433   -2.0481 C   0  0  0  0  0  0  0  0  0  0  0  0
   43.5125   26.5150   -2.5692 C   0  0  2  0  0  0  0  0  0  0  0  0
   43.1128   25.6880   -3.6669 O   0  0  0  0  0  0  0  0  0  0  0  0
   41.7286   23.1050   -2.5036 C   0  0  2  0  0  0  0  0  0  0  0  0
   42.0507   23.6544   -3.8562 N   0  0  0  0  0  0  0  0  0  0  0  0
   44.5866   30.7590    2.0874 C   0  0  1  0  0  0  0  0  0  0  0  0
   45.2503   30.0398    3.1234 O   0  0  0  0  0  0  0  0  0  0  0  0
   40.3453   31.7714   -0.8537 C   0  0  2  0  0  0  0  0  0  0  0  0
   40.6989   33.1167   -0.3628 N   0  0  0  0  0  0  0  0  0  0  0  0
   44.1302   25.7140   -1.4104 C   0  0  2  0  0  0  0  0  0  0  0  0
   43.6684   24.3048   -1.3921 O   0  0  0  0  0  0  0  0  0  0  0  0
   40.1567   22.8606   -2.3816 C   0  0  1  0  0  0  0  0  0  0  0  0
   39.8415   22.0476   -1.2299 O   0  0  0  0  0  0  0  0  0  0  0  0
   45.2644   32.1291    1.8545 C   0  0  2  0  0  0  0  0  0  0  0  0
   45.2668   32.8774    3.0521 O   0  0  0  0  0  0  0  0  0  0  0  0
   41.6013   30.9450   -1.3051 C   0  0  2  0  0  0  0  0  0  0  0  0
   43.6803   26.4675   -0.1619 C   0  0  2  0  0  0  0  0  0  0  0  0
   42.4912   27.1565   -0.5214 O   0  0  0  0  0  0  0  0  0  0  0  0
   39.3483   24.2164   -2.2814 C   0  0  2  0  0  0  0  0  0  0  0  0
   39.4513   24.9219   -3.5296 O   0  0  0  0  0  0  0  0  0  0  0  0
   44.5349   32.8993    0.7358 C   0  0  2  0  0  0  0  0  0  0  0  0
   44.5424   32.0635   -0.4853 O   0  0  0  0  0  0  0  0  0  0  0  0
   41.1306   29.5082   -1.8586 C   0  0  2  0  0  0  0  0  0  0  0  0
   42.2657   28.6748   -2.3391 O   0  0  0  0  0  0  0  0  0  0  0  0
   44.6860   27.4994    0.3273 C   0  0  0  0  0  0  0  0  0  0  0  0
   39.9182   25.0936   -1.0940 C   0  0  1  0  0  0  0  0  0  0  0  0
   41.4063   25.2733   -1.1969 O   0  0  0  0  0  0  0  0  0  0  0  0
   45.2361   34.2565    0.4952 C   0  0  0  0  0  0  0  0  0  0  0  0
   44.5699   35.1353   -0.4837 N   0  0  0  0  0  0  0  0  0  0  0  0
   40.1798   29.7065   -3.0584 C   0  0  1  0  0  0  0  0  0  0  0  0
   39.7618   28.4297   -3.5520 O   0  0  0  0  0  0  0  0  0  0  0  0
   39.2028   26.4919   -0.9513 C   0  0  0  0  0  0  0  0  0  0  0  0
   39.8734   27.4919   -0.0605 N   0  0  0  0  0  0  0  0  0  0  0  0
  1  2  1  1  0  0  0
  1  7  1  0  0  0  0
  1 30  1  0  0  0  0
  3  4  1  6  0  0  0
  3  9  1  0  0  0  0
  3 38  1  0  0  0  0
  5 10  1  0  0  0  0
  5 26  1  1  0  0  0
  5 32  1  0  0  0  0
  6 12  1  0  0  0  0
  6 35  1  0  0  0  0
  6 19  1  6  0  0  0
  7  8  1  1  0  0  0
  7 14  1  0  0  0  0
  8 33  1  0  0  0  0
  9 16  1  0  0  0  0
 10 11  1  6  0  0  0
 10 18  1  0  0  0  0
 12 13  1  6  0  0  0
 12 20  1  0  0  0  0
 14 15  1  1  0  0  0
 14 22  1  0  0  0  0
 16 17  1  6  0  0  0
 16 24  1  0  0  0  0
 18 19  1  1  0  0  0
 18 25  1  0  0  0  0
 20 21  1  1  0  0  0
 20 27  1  0  0  0  0
 22 23  1  1  0  0  0
 22 29  1  0  0  0  0
 24  2  1  1  0  0  0
 24 31  1  0  0  0  0
 25 26  1  6  0  0  0
 25 33  1  0  0  0  0
 27 28  1  6  0  0  0
 27 34  1  0  0  0  0
 29 30  1  0  0  0  0
 29 36  1  6  0  0  0
 31 32  1  6  0  0  0
 31 38  1  0  0  0  0
 34 35  1  0  0  0  0
 34 40  1  6  0  0  0
 36 37  1  0  0  0  0
 38 39  1  1  0  0  0
 40 41  1  0  0  0  0
M  END
>  <CHROM.1>
-57.74503709,123.67348518,-175.53158374,-167.02249456,42.18911702,28.40623197
-1.01783910,-1.15578142,0.58156348,-3.02926401

>  <Name>
ligand

>  <RI>
0

>  <Rbt.Current_Directory>
/home/itssahil/PROJECTS/Mol_Feturizer/New_Systems/rnas/1ZZ5

>  <Rbt.Executable>
rbdock ($Id: //depot/dev/client3/rdock/2013.1/src/exe/rbdock.cxx#4 $)

>  <Rbt.Library>
libRbt.so (2013.1, Build901 2013/11/27)

>  <Rbt.Parameter_File>
/export/apps/rDock/src/rDock_2013.1_src/data/scripts/dock_solv.prm

>  <Rbt.Receptor>
prm/blind_docking_100.prm

>  <SCORE>
63.5422

>  <SCORE.INTER>
16.4313

>  <SCORE.INTER.CONST>
1

>  <SCORE.INTER.POLAR>
0

>  <SCORE.INTER.ROT>
4

>  <SCORE.INTER.SOLV>
22.9333

>  <SCORE.INTER.VDW>
-2.95688

>  <SCORE.INTER.norm>
0.400764

>  <SCORE.INTRA>
16.3746

>  <SCORE.INTRA.DIHEDRAL>
2.64524

>  <SCORE.INTRA.DIHEDRAL.0>
5.18357

>  <SCORE.INTRA.POLAR>
0

>  <SCORE.INTRA.POLAR.0>
0

>  <SCORE.INTRA.REPUL>
0.0228256

>  <SCORE.INTRA.REPUL.0>
0

>  <SCORE.INTRA.SOLV>
9.2457

>  <SCORE.INTRA.SOLV.lig_0>
-109.973

>  <SCORE.INTRA.VDW>
10.315

>  <SCORE.INTRA.VDW.0>
-1.68646

>  <SCORE.INTRA.norm>
0.399381

>  <SCORE.RESTR>
30.7363

>  <SCORE.RESTR.CAVITY>
30.7363

>  <SCORE.RESTR.norm>
0.749665

>  <SCORE.SYSTEM>
0

>  <SCORE.SYSTEM.CONST>
0

>  <SCORE.SYSTEM.DIHEDRAL>
0

>  <SCORE.SYSTEM.SOLV>
0

>  <SCORE.SYSTEM.norm>
0

>  <SCORE.heavy>
41

>  <SCORE.norm>
1.54981

>  <RMSD>
16.154

$$$$
ligand
 OpenBabel11021811423D
libRbt.so/2013.1/901 2013/11/27
 41 45  0  0  0  0  0  0  0  0999 V2000
   43.9021   30.7293   -0.3852 C   0  0  2  0  0  0  0  0  0  0  0  0
   42.4825   30.8286   -0.1582 O   0  0  0  0  0  0  0  0  0  0  0  0
   38.9243   30.5574   -2.6448 C   0  0  2  0  0  0  0  0  0  0  0  0
   37.9971   30.7804   -3.7840 N   0  0  0  0  0  0  0  0  0  0  0  0
   42.3068   27.2489   -1.9471 C   0  0  1  0  0  0  0  0  0  0  0  0
   42.2238   24.0111   -1.2985 C   0  0  1  0  0  0  0  0  0  0  0  0
   44.5993   29.9354    0.7599 C   0  0  2  0  0  0  0  0  0  0  0  0
   44.0012   28.6164    0.9873 N   0  0  0  0  0  0  0  0  0  0  0  0
   39.3603   31.9414   -2.0682 C   0  0  0  0  0  0  0  0  0  0  0  0
   43.5101   26.5120   -2.5788 C   0  0  2  0  0  0  0  0  0  0  0  0
   43.1115   25.6839   -3.6760 O   0  0  0  0  0  0  0  0  0  0  0  0
   41.7204   23.0938   -2.4932 C   0  0  2  0  0  0  0  0  0  0  0  0
   42.0367   23.6325   -3.8514 N   0  0  0  0  0  0  0  0  0  0  0  0
   44.5793   30.7607    2.0747 C   0  0  1  0  0  0  0  0  0  0  0  0
   45.2417   30.0425    3.1122 O   0  0  0  0  0  0  0  0  0  0  0  0
   40.3417   31.7707   -0.8725 C   0  0  2  0  0  0  0  0  0  0  0  0
   40.6949   33.1164   -0.3826 N   0  0  0  0  0  0  0  0  0  0  0  0
   44.1263   25.7122   -1.4184 C   0  0  2  0  0  0  0  0  0  0  0  0
   43.6642   24.3031   -1.3992 O   0  0  0  0  0  0  0  0  0  0  0  0
   40.1491   22.8498   -2.3628 C   0  0  1  0  0  0  0  0  0  0  0  0
   39.8389   22.0458   -1.2034 O   0  0  0  0  0  0  0  0  0  0  0  0
   45.2576   32.1304    1.8412 C   0  0  2  0  0  0  0  0  0  0  0  0
   45.2587   32.8800    3.0379 O   0  0  0  0  0  0  0  0  0  0  0  0
   41.5981   30.9436   -1.3216 C   0  0  2  0  0  0  0  0  0  0  0  0
   43.6751   26.4670   -0.1712 C   0  0  2  0  0  0  0  0  0  0  0  0
   42.4864   27.1558   -0.5328 O   0  0  0  0  0  0  0  0  0  0  0  0
   39.3406   24.2060   -2.2700 C   0  0  2  0  0  0  0  0  0  0  0  0
   39.4382   24.9017   -3.5242 O   0  0  0  0  0  0  0  0  0  0  0  0
   44.5296   32.8996    0.7208 C   0  0  2  0  0  0  0  0  0  0  0  0
   44.5384   32.0626   -0.4995 O   0  0  0  0  0  0  0  0  0  0  0  0
   41.1278   29.5063   -1.8741 C   0  0  2  0  0  0  0  0  0  0  0  0
   42.2633   28.6722   -2.3524 O   0  0  0  0  0  0  0  0  0  0  0  0
   44.6803   27.4993    0.3181 C   0  0  0  0  0  0  0  0  0  0  0  0
   39.9150   25.0928   -1.0920 C   0  0  1  0  0  0  0  0  0  0  0  0
   41.4026   25.2723   -1.2024 O   0  0  0  0  0  0  0  0  0  0  0  0
   45.2313   34.2565    0.4796 C   0  0  0  0  0  0  0  0  0  0  0  0
   44.5466   35.1494   -0.4733 N   0  0  0  0  0  0  0  0  0  0  0  0
   40.1785   29.7035   -3.0753 C   0  0  1  0  0  0  0  0  0  0  0  0
   39.7608   28.4263   -3.5680 O   0  0  0  0  0  0  0  0  0  0  0  0
   39.1996   26.4919   -0.9574 C   0  0  0  0  0  0  0  0  0  0  0  0
   39.8637   27.4928   -0.0626 N   0  0  0  0  0  0  0  0  0  0  0  0
  1  2  1  1  0  0  0
  1  7  1  0  0  0  0
  1 30  1  0  0  0  0
  3  4  1  6  0  0  0
  3  9  1  0  0  0  0
  3 38  1  0  0  0  0
  5 10  1  0  0  0  0
  5 26  1  1  0  0  0
  5 32  1  0  0  0  0
  6 12  1  0  0  0  0
  6 35  1  0  0  0  0
  6 19  1  6  0  0  0
  7  8  1  1  0  0  0
  7 14  1  0  0  0  0
  8 33  1  0  0  0  0
  9 16  1  0  0  0  0
 10 11  1  6  0  0  0
 10 18  1  0  0  0  0
 12 13  1  6  0  0  0
 12 20  1  0  0  0  0
 14 15  1  1  0  0  0
 14 22  1  0  0  0  0
 16 17  1  6  0  0  0
 16 24  1  0  0  0  0
 18 19  1  1  0  0  0
 18 25  1  0  0  0  0
 20 21  1  1  0  0  0
 20 27  1  0  0  0  0
 22 23  1  1  0  0  0
 22 29  1  0  0  0  0
 24  2  1  1  0  0  0
 24 31  1  0  0  0  0
 25 26  1  6  0  0  0
 25 33  1  0  0  0  0
 27 28  1  6  0  0  0
 27 34  1  0  0  0  0
 29 30  1  0  0  0  0
 29 36  1  6  0  0  0
 31 32  1  6  0  0  0
 31 38  1  0  0  0  0
 34 35  1  0  0  0  0
 34 40  1  6  0  0  0
 36 37  1  0  0  0  0
 38 39  1  1  0  0  0
 40 41  1  0  0  0  0
M  END
>  <CHROM.1>
-58.17579866,124.21301368,-173.93674114,-167.82295403,42.18377119,28.40398261
-1.02567904,-1.15625528,0.58263962,-3.03185704

>  <Name>
ligand

>  <RI>
0

>  <Rbt.Current_Directory>
/home/itssahil/PROJECTS/Mol_Feturizer/New_Systems/rnas/1ZZ5

>  <Rbt.Executable>
rbdock ($Id: //depot/dev/client3/rdock/2013.1/src/exe/rbdock.cxx#4 $)

>  <Rbt.Library>
libRbt.so (2013.1, Build901 2013/11/27)

>  <Rbt.Parameter_File>
/export/apps/rDock/src/rDock_2013.1_src/data/scripts/dock_solv.prm

>  <Rbt.Receptor>
prm/blind_docking_100.prm

>  <SCORE>
63.208

>  <SCORE.INTER>
16.4066

>  <SCORE.INTER.CONST>
1

>  <SCORE.INTER.POLAR>
0

>  <SCORE.INTER.ROT>
4

>  <SCORE.INTER.SOLV>
22.8222

>  <SCORE.INTER.VDW>
-2.93633

>  <SCORE.INTER.norm>
0.400161

>  <SCORE.INTRA>
15.9878

>  <SCORE.INTRA.DIHEDRAL>
2.61245

>  <SCORE.INTRA.DIHEDRAL.0>
5.18357

>  <SCORE.INTRA.POLAR>
0

>  <SCORE.INTRA.POLAR.0>
0

>  <SCORE.INTRA.REPUL>
0.02091

>  <SCORE.INTRA.REPUL.0>
0

>  <SCORE.INTRA.SOLV>
9.14342

>  <SCORE.INTRA.SOLV.lig_0>
-109.973

>  <SCORE.INTRA.VDW>
10.0053

>  <SCORE.INTRA.VDW.0>
-1.68646

>  <SCORE.INTRA.norm>
0.389945

>  <SCORE.RESTR>
30.8137

>  <SCORE.RESTR.CAVITY>
30.8137

>  <SCORE.RESTR.norm>
0.751553

>  <SCORE.SYSTEM>
0

>  <SCORE.SYSTEM.CONST>
0

>  <SCORE.SYSTEM.DIHEDRAL>
0

>  <SCORE.SYSTEM.SOLV>
0

>  <SCORE.SYSTEM.norm>
0

>  <SCORE.heavy>
41

>  <SCORE.norm>
1.54166

>  <RMSD>
16.158

$$$$
ligand
 OpenBabel11021811423D
libRbt.so/2013.1/901 2013/11/27
 41 45  0  0  0  0  0  0  0  0999 V2000
   44.2428   30.5744   -0.0331 C   0  0  2  0  0  0  0  0  0  0  0  0
   42.8420   30.7566    0.2517 O   0  0  0  0  0  0  0  0  0  0  0  0
   39.1956   30.8980   -2.1150 C   0  0  2  0  0  0  0  0  0  0  0  0
   38.2507   31.2596   -3.2029 N   0  0  0  0  0  0  0  0  0  0  0  0
   42.3533   27.3240   -1.7541 C   0  0  1  0  0  0  0  0  0  0  0  0
   42.0579   24.0652   -1.3269 C   0  0  1  0  0  0  0  0  0  0  0  0
   44.9178   29.6600    1.0327 C   0  0  2  0  0  0  0  0  0  0  0  0
   44.2344   28.3735    1.1974 N   0  0  0  0  0  0  0  0  0  0  0  0
   39.7478   32.2073   -1.4677 C   0  0  0  0  0  0  0  0  0  0  0  0
   43.4798   26.5489   -2.4752 C   0  0  2  0  0  0  0  0  0  0  0  0
   42.9880   25.8248   -3.6077 O   0  0  0  0  0  0  0  0  0  0  0  0
   41.4670   23.2564   -2.5593 C   0  0  2  0  0  0  0  0  0  0  0  0
   41.7938   23.8500   -3.8919 N   0  0  0  0  0  0  0  0  0  0  0  0
   44.9992   30.3959    2.3973 C   0  0  1  0  0  0  0  0  0  0  0  0
   45.6414   29.5664    3.3620 O   0  0  0  0  0  0  0  0  0  0  0  0
   40.7523   31.8901   -0.3221 C   0  0  2  0  0  0  0  0  0  0  0  0
   41.2165   33.1728    0.2393 N   0  0  0  0  0  0  0  0  0  0  0  0
   44.0741   25.6331   -1.3915 C   0  0  2  0  0  0  0  0  0  0  0  0
   43.5132   24.2613   -1.4453 O   0  0  0  0  0  0  0  0  0  0  0  0
   39.8852   23.1155   -2.4055 C   0  0  1  0  0  0  0  0  0  0  0  0
   39.5418   22.2690   -1.2864 O   0  0  0  0  0  0  0  0  0  0  0  0
   45.7659   31.7277    2.2269 C   0  0  2  0  0  0  0  0  0  0  0  0
   45.8590   32.3946    3.4682 O   0  0  0  0  0  0  0  0  0  0  0  0
   41.9313   31.0095   -0.8688 C   0  0  2  0  0  0  0  0  0  0  0  0
   43.7183   26.3333   -0.0830 C   0  0  2  0  0  0  0  0  0  0  0  0
   42.5710   27.1253   -0.3562 O   0  0  0  0  0  0  0  0  0  0  0  0
   39.1771   24.5171   -2.2166 C   0  0  2  0  0  0  0  0  0  0  0  0
   39.2990   25.2761   -3.4313 O   0  0  0  0  0  0  0  0  0  0  0  0
   45.0593   32.6179    1.1852 C   0  0  2  0  0  0  0  0  0  0  0  0
   44.9690   31.8649   -0.0854 O   0  0  0  0  0  0  0  0  0  0  0  0
   41.3418   29.6479   -1.4942 C   0  0  2  0  0  0  0  0  0  0  0  0
   42.3988   28.7706   -2.0660 O   0  0  0  0  0  0  0  0  0  0  0  0
   44.8100   27.2587    0.4339 C   0  0  0  0  0  0  0  0  0  0  0  0
   39.8364   25.2916   -1.0042 C   0  0  1  0  0  0  0  0  0  0  0  0
   41.3305   25.3729   -1.1398 O   0  0  0  0  0  0  0  0  0  0  0  0
   45.8482   33.9359    1.0055 C   0  0  0  0  0  0  0  0  0  0  0  0
   47.2570   33.7671    0.6044 N   0  0  0  0  0  0  0  0  0  0  0  0
   40.3710   29.9896   -2.6447 C   0  0  1  0  0  0  0  0  0  0  0  0
   39.8474   28.7798   -3.2022 O   0  0  0  0  0  0  0  0  0  0  0  0
   39.2250   26.7269   -0.7734 C   0  0  0  0  0  0  0  0  0  0  0  0
   40.0311   27.6625    0.0741 N   0  0  0  0  0  0  0  0  0  0  0  0
  1  2  1  1  0  0  0
  1  7  1  0  0  0  0
  1 30  1  0  0  0  0
  3  4  1  6  0  0  0
  3  9  1  0  0  0  0
  3 38  1  0  0  0  0
  5 10  1  0  0  0  0
  5 26  1  1  0  0  0
  5 32  1  0  0  0  0
  6 12  1  0  0  0  0
  6 35  1  0  0  0  0
  6 19  1  6  0  0  0
  7  8  1  1  0  0  0
  7 14  1  0  0  0  0
  8 33  1  0  0  0  0
  9 16  1  0  0  0  0
 10 11  1  6  0  0  0
 10 18  1  0  0  0  0
 12 13  1  6  0  0  0
 12 20  1  0  0  0  0
 14 15  1  1  0  0  0
 14 22  1  0  0  0  0
 16 17  1  6  0  0  0
 16 24  1  0  0  0  0
 18 19  1  1  0  0  0
 18 25  1  0  0  0  0
 20 21  1  1  0  0  0
 20 27  1  0  0  0  0
 22 23  1  1  0  0  0
 22 29  1  0  0  0  0
 24  2  1  1  0  0  0
 24 31  1  0  0  0  0
 25 26  1  6  0  0  0
 25 33  1  0  0  0  0
 27 28  1  6  0  0  0
 27 34  1  0  0  0  0
 29 30  1  0  0  0  0
 29 36  1  6  0  0  0
 31 32  1  6  0  0  0
 31 38  1  0  0  0  0
 34 35  1  0  0  0  0
 34 40  1  6  0  0  0
 36 37  1  0  0  0  0
 38 39  1  1  0  0  0
 40 41  1  0  0  0  0
M  END
>  <CHROM.1>
-57.44332403,124.39387791,57.22741393,-163.17319687,42.39504615,28.39340824
-0.75924040,-1.02935015,0.52983450,-3.00165181

>  <Name>
ligand

>  <RI>
0

>  <Rbt.Current_Directory>
/home/itssahil/PROJECTS/Mol_Feturizer/New_Systems/rnas/1ZZ5

>  <Rbt.Executable>
rbdock ($Id: //depot/dev/client3/rdock/2013.1/src/exe/rbdock.cxx#4 $)

>  <Rbt.Library>
libRbt.so (2013.1, Build901 2013/11/27)

>  <Rbt.Parameter_File>
/export/apps/rDock/src/rDock_2013.1_src/data/scripts/dock_solv.prm

>  <Rbt.Receptor>
prm/blind_docking_100.prm

>  <SCORE>
70.3855

>  <SCORE.INTER>
22.5863

>  <SCORE.INTER.CONST>
1

>  <SCORE.INTER.POLAR>
0

>  <SCORE.INTER.ROT>
4

>  <SCORE.INTER.SOLV>
21.7262

>  <SCORE.INTER.VDW>
1.54883

>  <SCORE.INTER.norm>
0.550886

>  <SCORE.INTRA>
17.7052

>  <SCORE.INTRA.DIHEDRAL>
2.93464

>  <SCORE.INTRA.DIHEDRAL.0>
5.18357

>  <SCORE.INTRA.POLAR>
0

>  <SCORE.INTRA.POLAR.0>
0

>  <SCORE.INTRA.REPUL>
0.0208827

>  <SCORE.INTRA.REPUL.0>
0

>  <SCORE.INTRA.SOLV>
11.255

>  <SCORE.INTRA.SOLV.lig_0>
-109.973

>  <SCORE.INTRA.VDW>
10.5059

>  <SCORE.INTRA.VDW.0>
-1.68646

>  <SCORE.INTRA.norm>
0.431834

>  <SCORE.RESTR>
30.094

>  <SCORE.RESTR.CAVITY>
30.094

>  <SCORE.RESTR.norm>
0.734

>  <SCORE.SYSTEM>
0

>  <SCORE.SYSTEM.CONST>
0

>  <SCORE.SYSTEM.DIHEDRAL>
0

>  <SCORE.SYSTEM.SOLV>
0

>  <SCORE.SYSTEM.norm>
0

>  <SCORE.heavy>
41

>  <SCORE.norm>
1.71672

>  <RMSD>
16.202

$$$$
ligand
 OpenBabel11021811423D
libRbt.so/2013.1/901 2013/11/27
 41 45  0  0  0  0  0  0  0  0999 V2000
   43.9003   30.7196   -0.4025 C   0  0  2  0  0  0  0  0  0  0  0  0
   42.4781   30.8118   -0.1891 O   0  0  0  0  0  0  0  0  0  0  0  0
   38.9438   30.4866   -2.7032 C   0  0  2  0  0  0  0  0  0  0  0  0
   38.0253   30.6895   -3.8531 N   0  0  0  0  0  0  0  0  0  0  0  0
   42.3423   27.2098   -1.9363 C   0  0  1  0  0  0  0  0  0  0  0  0
   42.2996   23.9638   -1.6015 C   0  0  1  0  0  0  0  0  0  0  0  0
   44.5927   29.9442    0.7580 C   0  0  2  0  0  0  0  0  0  0  0  0
   44.0016   28.6240    0.9961 N   0  0  0  0  0  0  0  0  0  0  0  0
   39.3654   31.8803   -2.1396 C   0  0  0  0  0  0  0  0  0  0  0  0
   43.5560   26.4737   -2.5485 C   0  0  2  0  0  0  0  0  0  0  0  0
   43.1728   25.6298   -3.6392 O   0  0  0  0  0  0  0  0  0  0  0  0
   42.0779   23.4074   -3.0724 C   0  0  2  0  0  0  0  0  0  0  0  0
   42.6060   24.3004   -4.1487 N   0  0  0  0  0  0  0  0  0  0  0  0
   44.5556   30.7850    2.0626 C   0  0  1  0  0  0  0  0  0  0  0  0
   45.2136   30.0838    3.1145 O   0  0  0  0  0  0  0  0  0  0  0  0
   40.3374   31.7306   -0.9333 C   0  0  2  0  0  0  0  0  0  0  0  0
   40.6772   33.0845   -0.4566 N   0  0  0  0  0  0  0  0  0  0  0  0
   44.1674   25.6920   -1.3733 C   0  0  2  0  0  0  0  0  0  0  0  0
   43.7147   24.2801   -1.3412 O   0  0  0  0  0  0  0  0  0  0  0  0
   40.5261   23.1283   -3.3169 C   0  0  1  0  0  0  0  0  0  0  0  0
   40.0559   22.0349   -2.4982 O   0  0  0  0  0  0  0  0  0  0  0  0
   45.2267   32.1565    1.8186 C   0  0  2  0  0  0  0  0  0  0  0  0
   45.2122   32.9203    3.0062 O   0  0  0  0  0  0  0  0  0  0  0  0
   41.6033   30.9069   -1.3614 C   0  0  2  0  0  0  0  0  0  0  0  0
   43.7001   26.4587   -0.1392 C   0  0  2  0  0  0  0  0  0  0  0  0
   42.5101   27.1349   -0.5195 O   0  0  0  0  0  0  0  0  0  0  0  0
   39.6370   24.4022   -3.0202 C   0  0  2  0  0  0  0  0  0  0  0  0
   39.9223   25.4163   -3.9983 O   0  0  0  0  0  0  0  0  0  0  0  0
   44.5034   32.9071    0.6827 C   0  0  2  0  0  0  0  0  0  0  0  0
   44.5286   32.0556   -0.5272 O   0  0  0  0  0  0  0  0  0  0  0  0
   41.1475   29.4598   -1.9008 C   0  0  2  0  0  0  0  0  0  0  0  0
   42.2928   28.6279   -2.3590 O   0  0  0  0  0  0  0  0  0  0  0  0
   44.6940   27.5035    0.3464 C   0  0  0  0  0  0  0  0  0  0  0  0
   39.9333   24.9343   -1.5596 C   0  0  1  0  0  0  0  0  0  0  0  0
   41.4029   25.1454   -1.3297 O   0  0  0  0  0  0  0  0  0  0  0  0
   45.1980   34.2658    0.4314 C   0  0  0  0  0  0  0  0  0  0  0  0
   44.5810   35.0939   -0.6212 N   0  0  0  0  0  0  0  0  0  0  0  0
   40.2075   29.6362   -3.1124 C   0  0  1  0  0  0  0  0  0  0  0  0
   39.8028   28.3503   -3.5934 O   0  0  0  0  0  0  0  0  0  0  0  0
   39.1253   26.2385   -1.1941 C   0  0  0  0  0  0  0  0  0  0  0  0
   39.6733   27.0652   -0.0718 N   0  0  0  0  0  0  0  0  0  0  0  0
  1  2  1  1  0  0  0
  1  7  1  0  0  0  0
  1 30  1  0  0  0  0
  3  4  1  6  0  0  0
  3  9  1  0  0  0  0
  3 38  1  0  0  0  0
  5 10  1  0  0  0  0
  5 26  1  1  0  0  0
  5 32  1  0  0  0  0
  6 12  1  0  0  0  0
  6 35  1  0  0  0  0
  6 19  1  6  0  0  0
  7  8  1  1  0  0  0
  7 14  1  0  0  0  0
  8 33  1  0  0  0  0
  9 16  1  0  0  0  0
 10 11  1  6  0  0  0
 10 18  1  0  0  0  0
 12 13  1  6  0  0  0
 12 20  1  0  0  0  0
 14 15  1  1  0  0  0
 14 22  1  0  0  0  0
 16 17  1  6  0  0  0
 16 24  1  0  0  0  0
 18 19  1  1  0  0  0
 18 25  1  0  0  0  0
 20 21  1  1  0  0  0
 20 27  1  0  0  0  0
 22 23  1  1  0  0  0
 22 29  1  0  0  0  0
 24  2  1  1  0  0  0
 24 31  1  0  0  0  0
 25 26  1  6  0  0  0
 25 33  1  0  0  0  0
 27 28  1  6  0  0  0
 27 34  1  0  0  0  0
 29 30  1  0  0  0  0
 29 36  1  6  0  0  0
 31 32  1  6  0  0  0
 31 38  1  0  0  0  0
 34 35  1  0  0  0  0
 34 40  1  6  0  0  0
 36 37  1  0  0  0  0
 38 39  1  1  0  0  0
 40 41  1  0  0  0  0
M  END
>  <CHROM.1>
-42.33333040,102.30352535,-178.92107548,-159.33356849,42.24264564,28.41047281
-1.17356193,-1.17039877,0.59471042,-2.97227848

>  <Name>
ligand

>  <RI>
0

>  <Rbt.Current_Directory>
/home/itssahil/PROJECTS/Mol_Feturizer/New_Systems/rnas/1ZZ5

>  <Rbt.Executable>
rbdock ($Id: //depot/dev/client3/rdock/2013.1/src/exe/rbdock.cxx#4 $)

>  <Rbt.Library>
libRbt.so (2013.1, Build901 2013/11/27)

>  <Rbt.Parameter_File>
/export/apps/rDock/src/rDock_2013.1_src/data/scripts/dock_solv.prm

>  <Rbt.Receptor>
prm/blind_docking_100.prm

>  <SCORE>
74.0315

>  <SCORE.INTER>
15.9096

>  <SCORE.INTER.CONST>
1

>  <SCORE.INTER.POLAR>
0

>  <SCORE.INTER.ROT>
4

>  <SCORE.INTER.SOLV>
24.0357

>  <SCORE.INTER.VDW>
-3.67219

>  <SCORE.INTER.norm>
0.388038

>  <SCORE.INTRA>
29.2189

>  <SCORE.INTRA.DIHEDRAL>
3.40354

>  <SCORE.INTRA.DIHEDRAL.0>
5.18357

>  <SCORE.INTRA.POLAR>
0

>  <SCORE.INTRA.POLAR.0>
0

>  <SCORE.INTRA.REPUL>
0.222633

>  <SCORE.INTRA.REPUL.0>
0

>  <SCORE.INTRA.SOLV>
9.55077

>  <SCORE.INTRA.SOLV.lig_0>
-109.973

>  <SCORE.INTRA.VDW>
21.6286

>  <SCORE.INTRA.VDW.0>
-1.68646

>  <SCORE.INTRA.norm>
0.712656

>  <SCORE.RESTR>
28.903

>  <SCORE.RESTR.CAVITY>
28.903

>  <SCORE.RESTR.norm>
0.704951

>  <SCORE.SYSTEM>
0

>  <SCORE.SYSTEM.CONST>
0

>  <SCORE.SYSTEM.DIHEDRAL>
0

>  <SCORE.SYSTEM.SOLV>
0

>  <SCORE.SYSTEM.norm>
0

>  <SCORE.heavy>
41

>  <SCORE.norm>
1.80565

>  <RMSD>
16.215

$$$$
ligand
 OpenBabel11021811423D
libRbt.so/2013.1/901 2013/11/27
 41 45  0  0  0  0  0  0  0  0999 V2000
   43.5382   30.8332    0.8858 C   0  0  2  0  0  0  0  0  0  0  0  0
   44.6101   29.9733    0.4520 O   0  0  0  0  0  0  0  0  0  0  0  0
   45.5713   25.7558    0.9063 C   0  0  2  0  0  0  0  0  0  0  0  0
   45.7771   24.4324    1.5493 N   0  0  0  0  0  0  0  0  0  0  0  0
   41.6901   27.7083   -1.0934 C   0  0  1  0  0  0  0  0  0  0  0  0
   39.8093   26.8884   -3.6317 C   0  0  1  0  0  0  0  0  0  0  0  0
   43.1294   31.8312   -0.2387 C   0  0  2  0  0  0  0  0  0  0  0  0
   42.8015   31.1650   -1.5028 N   0  0  0  0  0  0  0  0  0  0  0  0
   46.4124   26.8265    1.6706 C   0  0  0  0  0  0  0  0  0  0  0  0
   40.1766   27.9765   -0.9281 C   0  0  2  0  0  0  0  0  0  0  0  0
   39.4154   26.7646   -0.9471 O   0  0  0  0  0  0  0  0  0  0  0  0
   38.8652   25.6943   -3.1792 C   0  0  2  0  0  0  0  0  0  0  0  0
   38.5277   25.7015   -1.7228 N   0  0  0  0  0  0  0  0  0  0  0  0
   44.2560   32.8749   -0.4659 C   0  0  1  0  0  0  0  0  0  0  0  0
   43.8667   33.8017   -1.4760 O   0  0  0  0  0  0  0  0  0  0  0  0
   46.2301   28.2395    1.0442 C   0  0  2  0  0  0  0  0  0  0  0  0
   47.0606   29.1851    1.8136 N   0  0  0  0  0  0  0  0  0  0  0  0
   39.8228   28.9237   -2.0873 C   0  0  2  0  0  0  0  0  0  0  0  0
   39.2568   28.2001   -3.2515 O   0  0  0  0  0  0  0  0  0  0  0  0
   39.5326   24.2989   -3.5707 C   0  0  1  0  0  0  0  0  0  0  0  0
   39.5832   24.1272   -5.0042 O   0  0  0  0  0  0  0  0  0  0  0  0
   44.5613   33.6098    0.8598 C   0  0  2  0  0  0  0  0  0  0  0  0
   45.5735   34.5734    0.6568 O   0  0  0  0  0  0  0  0  0  0  0  0
   44.7110   28.6352    1.0420 C   0  0  2  0  0  0  0  0  0  0  0  0
   41.1503   29.5920   -2.4341 C   0  0  2  0  0  0  0  0  0  0  0  0
   42.1681   28.6983   -2.0057 O   0  0  0  0  0  0  0  0  0  0  0  0
   40.9971   24.1547   -2.9911 C   0  0  2  0  0  0  0  0  0  0  0  0
   40.9321   24.0701   -1.5575 O   0  0  0  0  0  0  0  0  0  0  0  0
   44.9858   32.5979    1.9427 C   0  0  2  0  0  0  0  0  0  0  0  0
   43.9025   31.6021    2.0988 O   0  0  0  0  0  0  0  0  0  0  0  0
   43.8699   27.5394    0.2147 C   0  0  2  0  0  0  0  0  0  0  0  0
   42.4102   27.8270    0.1948 O   0  0  0  0  0  0  0  0  0  0  0  0
   41.3707   30.9213   -1.7272 C   0  0  0  0  0  0  0  0  0  0  0  0
   41.8752   25.3924   -3.4395 C   0  0  1  0  0  0  0  0  0  0  0  0
   41.2104   26.6982   -3.1076 O   0  0  0  0  0  0  0  0  0  0  0  0
   45.2647   33.3415    3.2697 C   0  0  0  0  0  0  0  0  0  0  0  0
   45.7119   32.4822    4.3814 N   0  0  0  0  0  0  0  0  0  0  0  0
   44.0456   26.1538    0.8722 C   0  0  1  0  0  0  0  0  0  0  0  0
   43.2972   25.1792    0.1383 O   0  0  0  0  0  0  0  0  0  0  0  0
   43.3427   25.3588   -2.8625 C   0  0  0  0  0  0  0  0  0  0  0  0
   44.2403   24.2850   -3.3960 N   0  0  0  0  0  0  0  0  0  0  0  0
  1  2  1  6  0  0  0
  1  7  1  0  0  0  0
  1 30  1  0  0  0  0
  3  4  1  1  0  0  0
  3  9  1  0  0  0  0
  3 38  1  0  0  0  0
  5 10  1  0  0  0  0
  5 26  1  6  0  0  0
  5 32  1  0  0  0  0
  6 12  1  0  0  0  0
  6 35  1  0  0  0  0
  6 19  1  1  0  0  0
  7  8  1  6  0  0  0
  7 14  1  0  0  0  0
  8 33  1  0  0  0  0
  9 16  1  0  0  0  0
 10 11  1  6  0  0  0
 10 18  1  0  0  0  0
 12 13  1  1  0  0  0
 12 20  1  0  0  0  0
 14 15  1  6  0  0  0
 14 22  1  0  0  0  0
 16 17  1  1  0  0  0
 16 24  1  0  0  0  0
 18 19  1  6  0  0  0
 18 25  1  0  0  0  0
 20 21  1  6  0  0  0
 20 27  1  0  0  0  0
 22 23  1  6  0  0  0
 22 29  1  0  0  0  0
 24  2  1  6  0  0  0
 24 31  1  0  0  0  0
 25 26  1  1  0  0  0
 25 33  1  0  0  0  0
 27 28  1  1  0  0  0
 27 34  1  0  0  0  0
 29 30  1  0  0  0  0
 29 36  1  1  0  0  0
 31 32  1  1  0  0  0
 31 38  1  0  0  0  0
 34 35  1  0  0  0  0
 34 40  1  1  0  0  0
 36 37  1  0  0  0  0
 38 39  1  6  0  0  0
 40 41  1  0  0  0  0
M  END
>  <CHROM.1>
-38.79311310,103.31790451,-178.63422226,68.44227723,42.80050265,28.39234649
-0.71163593,0.90295460,-0.66565688,0.11335947

>  <Name>
ligand

>  <RI>
0

>  <Rbt.Current_Directory>
/home/itssahil/PROJECTS/Mol_Feturizer/New_Systems/rnas/1ZZ5

>  <Rbt.Executable>
rbdock ($Id: //depot/dev/client3/rdock/2013.1/src/exe/rbdock.cxx#4 $)

>  <Rbt.Library>
libRbt.so (2013.1, Build901 2013/11/27)

>  <Rbt.Parameter_File>
/export/apps/rDock/src/rDock_2013.1_src/data/scripts/dock_solv.prm

>  <Rbt.Receptor>
prm/blind_docking_100.prm

>  <SCORE>
62.3538

>  <SCORE.INTER>
4.06197

>  <SCORE.INTER.CONST>
1

>  <SCORE.INTER.POLAR>
0

>  <SCORE.INTER.ROT>
4

>  <SCORE.INTER.SOLV>
16.5721

>  <SCORE.INTER.VDW>
-9.08271

>  <SCORE.INTER.norm>
0.0990725

>  <SCORE.INTRA>
27.9768

>  <SCORE.INTRA.DIHEDRAL>
3.02565

>  <SCORE.INTRA.DIHEDRAL.0>
5.18357

>  <SCORE.INTRA.POLAR>
0

>  <SCORE.INTRA.POLAR.0>
0

>  <SCORE.INTRA.REPUL>
0

>  <SCORE.INTRA.REPUL.0>
0

>  <SCORE.INTRA.SOLV>
5.55581

>  <SCORE.INTRA.SOLV.lig_0>
-109.973

>  <SCORE.INTRA.VDW>
23.6861

>  <SCORE.INTRA.VDW.0>
-1.68646

>  <SCORE.INTRA.norm>
0.682361

>  <SCORE.RESTR>
30.315

>  <SCORE.RESTR.CAVITY>
30.315

>  <SCORE.RESTR.norm>
0.739391

>  <SCORE.SYSTEM>
0

>  <SCORE.SYSTEM.CONST>
0

>  <SCORE.SYSTEM.DIHEDRAL>
0

>  <SCORE.SYSTEM.SOLV>
0

>  <SCORE.SYSTEM.norm>
0

>  <SCORE.heavy>
41

>  <SCORE.norm>
1.52082

>  <RMSD>
16.270

$$$$
ligand
 OpenBabel11021811423D
libRbt.so/2013.1/901 2013/11/27
 41 45  0  0  0  0  0  0  0  0999 V2000
   43.0590   30.2583    0.7979 C   0  0  2  0  0  0  0  0  0  0  0  0
   44.1895   29.8348    0.0111 O   0  0  0  0  0  0  0  0  0  0  0  0
   47.0051   26.5235    0.1710 C   0  0  2  0  0  0  0  0  0  0  0  0
   47.9741   25.5405    0.7204 N   0  0  0  0  0  0  0  0  0  0  0  0
   42.2445   26.3430   -0.2530 C   0  0  1  0  0  0  0  0  0  0  0  0
   38.9220   25.6751   -2.7386 C   0  0  1  0  0  0  0  0  0  0  0  0
   41.9053   30.7775   -0.1115 C   0  0  2  0  0  0  0  0  0  0  0  0
   41.5084   29.8105   -1.1394 N   0  0  0  0  0  0  0  0  0  0  0  0
   47.4859   27.9646    0.5318 C   0  0  0  0  0  0  0  0  0  0  0  0
   40.9186   26.0085    0.4679 C   0  0  2  0  0  0  0  0  0  0  0  0
   40.8131   24.6133    0.7694 O   0  0  0  0  0  0  0  0  0  0  0  0
   40.0933   25.2894   -3.7393 C   0  0  2  0  0  0  0  0  0  0  0  0
   41.4053   25.9306   -3.4193 N   0  0  0  0  0  0  0  0  0  0  0  0
   42.3085   32.1218   -0.7753 C   0  0  1  0  0  0  0  0  0  0  0  0
   41.2403   32.6065   -1.5847 O   0  0  0  0  0  0  0  0  0  0  0  0
   46.5024   29.0405   -0.0134 C   0  0  2  0  0  0  0  0  0  0  0  0
   47.0314   30.3661    0.3594 N   0  0  0  0  0  0  0  0  0  0  0  0
   39.8217   26.4976   -0.4933 C   0  0  2  0  0  0  0  0  0  0  0  0
   39.2847   25.4026   -1.3370 O   0  0  0  0  0  0  0  0  0  0  0  0
   39.6680   25.6494   -5.2344 C   0  0  1  0  0  0  0  0  0  0  0  0
   38.5845   24.8080   -5.6871 O   0  0  0  0  0  0  0  0  0  0  0  0
   42.6764   33.1530    0.3165 C   0  0  2  0  0  0  0  0  0  0  0  0
   43.0276   34.3841   -0.2796 O   0  0  0  0  0  0  0  0  0  0  0  0
   45.0600   28.7865    0.5516 C   0  0  2  0  0  0  0  0  0  0  0  0
   40.5188   27.5631   -1.3346 C   0  0  2  0  0  0  0  0  0  0  0  0
   41.9041   27.2501   -1.3027 O   0  0  0  0  0  0  0  0  0  0  0  0
   39.2306   27.1622   -5.3821 C   0  0  2  0  0  0  0  0  0  0  0  0
   40.3753   28.0075   -5.1787 O   0  0  0  0  0  0  0  0  0  0  0  0
   43.8355   32.6198    1.1818 C   0  0  2  0  0  0  0  0  0  0  0  0
   43.4239   31.3224    1.7623 O   0  0  0  0  0  0  0  0  0  0  0  0
   44.5694   27.3111    0.1332 C   0  0  2  0  0  0  0  0  0  0  0  0
   43.2184   26.9807    0.6619 O   0  0  0  0  0  0  0  0  0  0  0  0
   40.3487   28.9767   -0.7976 C   0  0  0  0  0  0  0  0  0  0  0  0
   38.0943   27.4965   -4.3326 C   0  0  1  0  0  0  0  0  0  0  0  0
   38.4911   27.1066   -2.9370 O   0  0  0  0  0  0  0  0  0  0  0  0
   44.1781   33.6484    2.2847 C   0  0  0  0  0  0  0  0  0  0  0  0
   45.3481   33.3043    3.1136 N   0  0  0  0  0  0  0  0  0  0  0  0
   45.5455   26.2630    0.7089 C   0  0  1  0  0  0  0  0  0  0  0  0
   45.1096   24.9509    0.3386 O   0  0  0  0  0  0  0  0  0  0  0  0
   37.6305   29.0033   -4.3731 C   0  0  0  0  0  0  0  0  0  0  0  0
   37.2388   29.5406   -5.7152 N   0  0  0  0  0  0  0  0  0  0  0  0
  1  2  1  6  0  0  0
  1  7  1  0  0  0  0
  1 30  1  0  0  0  0
  3  4  1  1  0  0  0
  3  9  1  0  0  0  0
  3 38  1  0  0  0  0
  5 10  1  0  0  0  0
  5 26  1  6  0  0  0
  5 32  1  0  0  0  0
  6 12  1  0  0  0  0
  6 35  1  0  0  0  0
  6 19  1  1  0  0  0
  7  8  1  6  0  0  0
  7 14  1  0  0  0  0
  8 33  1  0  0  0  0
  9 16  1  0  0  0  0
 10 11  1  6  0  0  0
 10 18  1  0  0  0  0
 12 13  1  1  0  0  0
 12 20  1  0  0  0  0
 14 15  1  1  0  0  0
 14 22  1  0  0  0  0
 16 17  1  1  0  0  0
 16 24  1  0  0  0  0
 18 19  1  6  0  0  0
 18 25  1  0  0  0  0
 20 21  1  1  0  0  0
 20 27  1  0  0  0  0
 22 23  1  6  0  0  0
 22 29  1  0  0  0  0
 24  2  1  6  0  0  0
 24 31  1  0  0  0  0
 25 26  1  1  0  0  0
 25 33  1  0  0  0  0
 27 28  1  1  0  0  0
 27 34  1  0  0  0  0
 29 30  1  0  0  0  0
 29 36  1  1  0  0  0
 31 32  1  1  0  0  0
 31 38  1  0  0  0  0
 34 35  1  0  0  0  0
 34 40  1  1  0  0  0
 36 37  1  0  0  0  0
 38 39  1  6  0  0  0
 40 41  1  0  0  0  0
M  END
>  <CHROM.1>
-142.88880308,96.15664710,-175.19149977,52.08041864,42.21498309,28.43276286
-1.06265243,0.57728373,-0.60075248,0.17865236

>  <Name>
ligand

>  <RI>
0

>  <Rbt.Current_Directory>
/home/itssahil/PROJECTS/Mol_Feturizer/New_Systems/rnas/1ZZ5

>  <Rbt.Executable>
rbdock ($Id: //depot/dev/client3/rdock/2013.1/src/exe/rbdock.cxx#4 $)

>  <Rbt.Library>
libRbt.so (2013.1, Build901 2013/11/27)

>  <Rbt.Parameter_File>
/export/apps/rDock/src/rDock_2013.1_src/data/scripts/dock_solv.prm

>  <Rbt.Receptor>
prm/blind_docking_100.prm

>  <SCORE>
56.1616

>  <SCORE.INTER>
12.4426

>  <SCORE.INTER.CONST>
1

>  <SCORE.INTER.POLAR>
0

>  <SCORE.INTER.ROT>
4

>  <SCORE.INTER.SOLV>
17.6034

>  <SCORE.INTER.VDW>
-3.83938

>  <SCORE.INTER.norm>
0.303479

>  <SCORE.INTRA>
5.62848

>  <SCORE.INTRA.DIHEDRAL>
4.8343

>  <SCORE.INTRA.DIHEDRAL.0>
5.18357

>  <SCORE.INTRA.POLAR>
0

>  <SCORE.INTRA.POLAR.0>
0

>  <SCORE.INTRA.REPUL>
0

>  <SCORE.INTRA.REPUL.0>
0

>  <SCORE.INTRA.SOLV>
3.31189

>  <SCORE.INTRA.SOLV.lig_0>
-109.973

>  <SCORE.INTRA.VDW>
1.55539

>  <SCORE.INTRA.VDW.0>
-1.68646

>  <SCORE.INTRA.norm>
0.13728

>  <SCORE.RESTR>
38.0905

>  <SCORE.RESTR.CAVITY>
38.0905

>  <SCORE.RESTR.norm>
0.929036

>  <SCORE.SYSTEM>
0

>  <SCORE.SYSTEM.CONST>
0

>  <SCORE.SYSTEM.DIHEDRAL>
0

>  <SCORE.SYSTEM.SOLV>
0

>  <SCORE.SYSTEM.norm>
0

>  <SCORE.heavy>
41

>  <SCORE.norm>
1.3698

>  <RMSD>
16.296

$$$$
ligand
 OpenBabel11021811423D
libRbt.so/2013.1/901 2013/11/27
 41 45  0  0  0  0  0  0  0  0999 V2000
   44.4447   30.6035    0.2239 C   0  0  2  0  0  0  0  0  0  0  0  0
   43.0599   30.8478    0.5386 O   0  0  0  0  0  0  0  0  0  0  0  0
   39.3872   31.2425   -1.7578 C   0  0  2  0  0  0  0  0  0  0  0  0
   38.4444   31.6832   -2.8181 N   0  0  0  0  0  0  0  0  0  0  0  0
   42.3640   27.5045   -1.5552 C   0  0  1  0  0  0  0  0  0  0  0  0
   41.9133   24.2504   -1.1866 C   0  0  1  0  0  0  0  0  0  0  0  0
   45.0895   29.6252    1.2510 C   0  0  2  0  0  0  0  0  0  0  0  0
   44.3442   28.3706    1.3911 N   0  0  0  0  0  0  0  0  0  0  0  0
   40.0160   32.5027   -1.0835 C   0  0  0  0  0  0  0  0  0  0  0  0
   43.4376   26.6951   -2.3180 C   0  0  2  0  0  0  0  0  0  0  0  0
   42.8912   26.0304   -3.4618 O   0  0  0  0  0  0  0  0  0  0  0  0
   41.3806   22.8437   -1.6963 C   0  0  2  0  0  0  0  0  0  0  0  0
   41.7610   22.5214   -3.1056 N   0  0  0  0  0  0  0  0  0  0  0  0
   45.2305   30.3156    2.6344 C   0  0  1  0  0  0  0  0  0  0  0  0
   45.8452   29.4268    3.5634 O   0  0  0  0  0  0  0  0  0  0  0  0
   41.0216   32.1017    0.0346 C   0  0  2  0  0  0  0  0  0  0  0  0
   41.5597   33.3422    0.6241 N   0  0  0  0  0  0  0  0  0  0  0  0
   44.0021   25.7191   -1.2716 C   0  0  2  0  0  0  0  0  0  0  0  0
   43.3711   24.3795   -1.3545 O   0  0  0  0  0  0  0  0  0  0  0  0
   39.7944   22.7761   -1.5374 C   0  0  1  0  0  0  0  0  0  0  0  0
   39.4080   22.7675   -0.1455 O   0  0  0  0  0  0  0  0  0  0  0  0
   46.0612   31.6115    2.4884 C   0  0  2  0  0  0  0  0  0  0  0  0
   46.2085   32.2360    3.7463 O   0  0  0  0  0  0  0  0  0  0  0  0
   42.1450   31.1791   -0.5578 C   0  0  2  0  0  0  0  0  0  0  0  0
   43.7038   26.3976    0.0624 C   0  0  2  0  0  0  0  0  0  0  0  0
   42.5941   27.2542   -0.1677 O   0  0  0  0  0  0  0  0  0  0  0  0
   39.0709   23.9847   -2.2567 C   0  0  2  0  0  0  0  0  0  0  0  0
   39.2406   23.8590   -3.6786 O   0  0  0  0  0  0  0  0  0  0  0  0
   45.3840   32.5665    1.4853 C   0  0  2  0  0  0  0  0  0  0  0  0
   45.2348   31.8566    0.1955 O   0  0  0  0  0  0  0  0  0  0  0  0
   41.4767   29.8680   -1.2112 C   0  0  2  0  0  0  0  0  0  0  0  0
   42.4782   28.9556   -1.8265 O   0  0  0  0  0  0  0  0  0  0  0  0
   44.8496   27.2511    0.5860 C   0  0  0  0  0  0  0  0  0  0  0  0
   39.6730   25.3540   -1.7400 C   0  0  1  0  0  0  0  0  0  0  0  0
   41.1710   25.3825   -1.8510 O   0  0  0  0  0  0  0  0  0  0  0  0
   46.2361   33.8476    1.3292 C   0  0  0  0  0  0  0  0  0  0  0  0
   47.4673   33.6822    0.5349 N   0  0  0  0  0  0  0  0  0  0  0  0
   40.5060   30.2919   -2.3341 C   0  0  1  0  0  0  0  0  0  0  0  0
   39.9124   29.1270   -2.9165 O   0  0  0  0  0  0  0  0  0  0  0  0
   39.0440   26.6177   -2.4434 C   0  0  0  0  0  0  0  0  0  0  0  0
   39.3022   26.7560   -3.9123 N   0  0  0  0  0  0  0  0  0  0  0  0
  1  2  1  1  0  0  0
  1  7  1  0  0  0  0
  1 30  1  0  0  0  0
  3  4  1  6  0  0  0
  3  9  1  0  0  0  0
  3 38  1  0  0  0  0
  5 10  1  0  0  0  0
  5 26  1  1  0  0  0
  5 32  1  0  0  0  0
  6 12  1  0  0  0  0
  6 35  1  0  0  0  0
  6 19  1  6  0  0  0
  7  8  1  1  0  0  0
  7 14  1  0  0  0  0
  8 33  1  0  0  0  0
  9 16  1  0  0  0  0
 10 11  1  6  0  0  0
 10 18  1  0  0  0  0
 12 13  1  6  0  0  0
 12 20  1  0  0  0  0
 14 15  1  1  0  0  0
 14 22  1  0  0  0  0
 16 17  1  6  0  0  0
 16 24  1  0  0  0  0
 18 19  1  1  0  0  0
 18 25  1  0  0  0  0
 20 21  1  1  0  0  0
 20 27  1  0  0  0  0
 22 23  1  1  0  0  0
 22 29  1  0  0  0  0
 24  2  1  1  0  0  0
 24 31  1  0  0  0  0
 25 26  1  6  0  0  0
 25 33  1  0  0  0  0
 27 28  1  6  0  0  0
 27 34  1  0  0  0  0
 29 30  1  0  0  0  0
 29 36  1  6  0  0  0
 31 32  1  6  0  0  0
 31 38  1  0  0  0  0
 34 35  1  0  0  0  0
 34 40  1  6  0  0  0
 36 37  1  0  0  0  0
 38 39  1  1  0  0  0
 40 41  1  0  0  0  0
M  END
>  <CHROM.1>
-58.77416834,164.23840316,74.52779918,-64.84768492,42.45956315,28.35969554
-0.67084199,-0.98135012,0.57462002,-3.04203755

>  <Name>
ligand

>  <RI>
0

>  <Rbt.Current_Directory>
/home/itssahil/PROJECTS/Mol_Feturizer/New_Systems/rnas/1ZZ5

>  <Rbt.Executable>
rbdock ($Id: //depot/dev/client3/rdock/2013.1/src/exe/rbdock.cxx#4 $)

>  <Rbt.Library>
libRbt.so (2013.1, Build901 2013/11/27)

>  <Rbt.Parameter_File>
/export/apps/rDock/src/rDock_2013.1_src/data/scripts/dock_solv.prm

>  <Rbt.Receptor>
prm/blind_docking_100.prm

>  <SCORE>
59.9714

>  <SCORE.INTER>
19.5117

>  <SCORE.INTER.CONST>
1

>  <SCORE.INTER.POLAR>
0

>  <SCORE.INTER.ROT>
4

>  <SCORE.INTER.SOLV>
15.9659

>  <SCORE.INTER.VDW>
1.41916

>  <SCORE.INTER.norm>
0.475894

>  <SCORE.INTRA>
5.52989

>  <SCORE.INTRA.DIHEDRAL>
-2.9932

>  <SCORE.INTRA.DIHEDRAL.0>
5.18357

>  <SCORE.INTRA.POLAR>
0

>  <SCORE.INTRA.POLAR.0>
0

>  <SCORE.INTRA.REPUL>
0.00318962

>  <SCORE.INTRA.REPUL.0>
0

>  <SCORE.INTRA.SOLV>
6.02814

>  <SCORE.INTRA.SOLV.lig_0>
-109.973

>  <SCORE.INTRA.VDW>
3.99647

>  <SCORE.INTRA.VDW.0>
-1.68646

>  <SCORE.INTRA.norm>
0.134875

>  <SCORE.RESTR>
34.9299

>  <SCORE.RESTR.CAVITY>
34.9299

>  <SCORE.RESTR.norm>
0.851948

>  <SCORE.SYSTEM>
0

>  <SCORE.SYSTEM.CONST>
0

>  <SCORE.SYSTEM.DIHEDRAL>
0

>  <SCORE.SYSTEM.SOLV>
0

>  <SCORE.SYSTEM.norm>
0

>  <SCORE.heavy>
41

>  <SCORE.norm>
1.46272

>  <RMSD>
16.317

$$$$
ligand
 OpenBabel11021811423D
libRbt.so/2013.1/901 2013/11/27
 41 45  0  0  0  0  0  0  0  0999 V2000
   43.5120   30.7251    0.7976 C   0  0  2  0  0  0  0  0  0  0  0  0
   44.5813   29.8496    0.3894 O   0  0  0  0  0  0  0  0  0  0  0  0
   45.5313   25.6451    0.9698 C   0  0  2  0  0  0  0  0  0  0  0  0
   45.7339   24.3410    1.6522 N   0  0  0  0  0  0  0  0  0  0  0  0
   41.6542   27.5471   -1.0858 C   0  0  1  0  0  0  0  0  0  0  0  0
   39.8852   26.7483   -3.7158 C   0  0  1  0  0  0  0  0  0  0  0  0
   43.1051   31.6899   -0.3562 C   0  0  2  0  0  0  0  0  0  0  0  0
   42.7748   30.9869   -1.5995 N   0  0  0  0  0  0  0  0  0  0  0  0
   46.3757   26.7360    1.7011 C   0  0  0  0  0  0  0  0  0  0  0  0
   40.1416   27.8243   -0.9278 C   0  0  2  0  0  0  0  0  0  0  0  0
   39.3771   26.6144   -0.9101 O   0  0  0  0  0  0  0  0  0  0  0  0
   38.9086   25.4968   -3.6706 C   0  0  2  0  0  0  0  0  0  0  0  0
   38.2739   25.2659   -2.3369 N   0  0  0  0  0  0  0  0  0  0  0  0
   44.2345   32.7232   -0.6152 C   0  0  1  0  0  0  0  0  0  0  0  0
   43.8471   33.6203   -1.6526 O   0  0  0  0  0  0  0  0  0  0  0  0
   46.1969   28.1300    1.0326 C   0  0  2  0  0  0  0  0  0  0  0  0
   47.0304   29.0960    1.7728 N   0  0  0  0  0  0  0  0  0  0  0  0
   39.7897   28.7372   -2.1149 C   0  0  2  0  0  0  0  0  0  0  0  0
   39.2210   27.9804   -3.2565 O   0  0  0  0  0  0  0  0  0  0  0  0
   39.6903   24.1839   -4.1298 C   0  0  1  0  0  0  0  0  0  0  0  0
   40.0455   24.2489   -5.5286 O   0  0  0  0  0  0  0  0  0  0  0  0
   44.5425   33.4969    0.6877 C   0  0  2  0  0  0  0  0  0  0  0  0
   45.5572   34.4511    0.4552 O   0  0  0  0  0  0  0  0  0  0  0  0
   44.6788   28.5296    1.0192 C   0  0  2  0  0  0  0  0  0  0  0  0
   41.1187   29.3911   -2.4822 C   0  0  2  0  0  0  0  0  0  0  0  0
   42.1343   28.5080   -2.0277 O   0  0  0  0  0  0  0  0  0  0  0  0
   41.0052   23.9459   -3.2837 C   0  0  2  0  0  0  0  0  0  0  0  0
   40.6448   23.6280   -1.9289 O   0  0  0  0  0  0  0  0  0  0  0  0
   44.9649   32.5169    1.8002 C   0  0  2  0  0  0  0  0  0  0  0  0
   43.8790   31.5291    1.9868 O   0  0  0  0  0  0  0  0  0  0  0  0
   43.8343   27.4117    0.2257 C   0  0  2  0  0  0  0  0  0  0  0  0
   42.3754   27.7026    0.1979 O   0  0  0  0  0  0  0  0  0  0  0  0
   41.3431   30.7405   -1.8157 C   0  0  0  0  0  0  0  0  0  0  0  0
   41.9150   25.2398   -3.3319 C   0  0  1  0  0  0  0  0  0  0  0  0
   41.1514   26.4741   -2.9439 O   0  0  0  0  0  0  0  0  0  0  0  0
   45.2466   33.2992    3.1042 C   0  0  0  0  0  0  0  0  0  0  0  0
   45.6941   32.4728    4.2404 N   0  0  0  0  0  0  0  0  0  0  0  0
   44.0066   26.0461    0.9245 C   0  0  1  0  0  0  0  0  0  0  0  0
   43.2552   25.0519    0.2205 O   0  0  0  0  0  0  0  0  0  0  0  0
   43.2296   25.1114   -2.4700 C   0  0  0  0  0  0  0  0  0  0  0  0
   44.1078   26.3235   -2.4158 N   0  0  0  0  0  0  0  0  0  0  0  0
  1  2  1  6  0  0  0
  1  7  1  0  0  0  0
  1 30  1  0  0  0  0
  3  4  1  1  0  0  0
  3  9  1  0  0  0  0
  3 38  1  0  0  0  0
  5 10  1  0  0  0  0
  5 26  1  6  0  0  0
  5 32  1  0  0  0  0
  6 12  1  0  0  0  0
  6 35  1  0  0  0  0
  6 19  1  1  0  0  0
  7  8  1  6  0  0  0
  7 14  1  0  0  0  0
  8 33  1  0  0  0  0
  9 16  1  0  0  0  0
 10 11  1  6  0  0  0
 10 18  1  0  0  0  0
 12 13  1  1  0  0  0
 12 20  1  0  0  0  0
 14 15  1  6  0  0  0
 14 22  1  0  0  0  0
 16 17  1  1  0  0  0
 16 24  1  0  0  0  0
 18 19  1  6  0  0  0
 18 25  1  0  0  0  0
 20 21  1  6  0  0  0
 20 27  1  0  0  0  0
 22 23  1  6  0  0  0
 22 29  1  0  0  0  0
 24  2  1  6  0  0  0
 24 31  1  0  0  0  0
 25 26  1  1  0  0  0
 25 33  1  0  0  0  0
 27 28  1  1  0  0  0
 27 34  1  0  0  0  0
 29 30  1  0  0  0  0
 29 36  1  1  0  0  0
 31 32  1  1  0  0  0
 31 38  1  0  0  0  0
 34 35  1  0  0  0  0
 34 40  1  1  0  0  0
 36 37  1  0  0  0  0
 38 39  1  6  0  0  0
 40 41  1  0  0  0  0
M  END
>  <CHROM.1>
-47.26244334,122.35550383,-178.54587393,-177.17166931,42.77695169,28.29735084
-0.77992251,0.85269079,-0.70422590,0.06422102

>  <Name>
ligand

>  <RI>
0

>  <Rbt.Current_Directory>
/home/itssahil/PROJECTS/Mol_Feturizer/New_Systems/rnas/1ZZ5

>  <Rbt.Executable>
rbdock ($Id: //depot/dev/client3/rdock/2013.1/src/exe/rbdock.cxx#4 $)

>  <Rbt.Library>
libRbt.so (2013.1, Build901 2013/11/27)

>  <Rbt.Parameter_File>
/export/apps/rDock/src/rDock_2013.1_src/data/scripts/dock_solv.prm

>  <Rbt.Receptor>
prm/blind_docking_100.prm

>  <SCORE>
57.6296

>  <SCORE.INTER>
4.33205

>  <SCORE.INTER.CONST>
1

>  <SCORE.INTER.POLAR>
0

>  <SCORE.INTER.ROT>
4

>  <SCORE.INTER.SOLV>
17.9285

>  <SCORE.INTER.VDW>
-9.3548

>  <SCORE.INTER.norm>
0.10566

>  <SCORE.INTRA>
23.2035

>  <SCORE.INTRA.DIHEDRAL>
2.83788

>  <SCORE.INTRA.DIHEDRAL.0>
5.18357

>  <SCORE.INTRA.POLAR>
0

>  <SCORE.INTRA.POLAR.0>
0

>  <SCORE.INTRA.REPUL>
0

>  <SCORE.INTRA.REPUL.0>
0

>  <SCORE.INTRA.SOLV>
9.96178

>  <SCORE.INTRA.SOLV.lig_0>
-109.973

>  <SCORE.INTRA.VDW>
16.8036

>  <SCORE.INTRA.VDW.0>
-1.68646

>  <SCORE.INTRA.norm>
0.565938

>  <SCORE.RESTR>
30.0941

>  <SCORE.RESTR.CAVITY>
30.0941

>  <SCORE.RESTR.norm>
0.734002

>  <SCORE.SYSTEM>
0

>  <SCORE.SYSTEM.CONST>
0

>  <SCORE.SYSTEM.DIHEDRAL>
0

>  <SCORE.SYSTEM.SOLV>
0

>  <SCORE.SYSTEM.norm>
0

>  <SCORE.heavy>
41

>  <SCORE.norm>
1.4056

>  <RMSD>
16.338

$$$$
ligand
 OpenBabel11021811423D
libRbt.so/2013.1/901 2013/11/27
 41 45  0  0  0  0  0  0  0  0999 V2000
   43.5116   30.7046    0.8134 C   0  0  2  0  0  0  0  0  0  0  0  0
   44.5803   29.8314    0.3989 O   0  0  0  0  0  0  0  0  0  0  0  0
   45.5361   25.6260    0.9640 C   0  0  2  0  0  0  0  0  0  0  0  0
   45.7423   24.3203    1.6420 N   0  0  0  0  0  0  0  0  0  0  0  0
   41.6502   27.5304   -1.0727 C   0  0  1  0  0  0  0  0  0  0  0  0
   39.8729   26.7375   -3.6989 C   0  0  1  0  0  0  0  0  0  0  0  0
   43.0999   31.6724   -0.3362 C   0  0  2  0  0  0  0  0  0  0  0  0
   42.7659   30.9727   -1.5804 N   0  0  0  0  0  0  0  0  0  0  0  0
   46.3821   26.7157    1.6955 C   0  0  0  0  0  0  0  0  0  0  0  0
   40.1379   27.8057   -0.9088 C   0  0  2  0  0  0  0  0  0  0  0  0
   39.3746   26.5951   -0.8919 O   0  0  0  0  0  0  0  0  0  0  0  0
   38.9003   25.4831   -3.6454 C   0  0  2  0  0  0  0  0  0  0  0  0
   38.2776   25.2504   -2.3064 N   0  0  0  0  0  0  0  0  0  0  0  0
   44.2274   32.7075   -0.5961 C   0  0  1  0  0  0  0  0  0  0  0  0
   43.8356   33.6072   -1.6296 O   0  0  0  0  0  0  0  0  0  0  0  0
   46.1997   28.1114    1.0316 C   0  0  2  0  0  0  0  0  0  0  0  0
   47.0348   29.0761    1.7718 N   0  0  0  0  0  0  0  0  0  0  0  0
   39.7811   28.7216   -2.0920 C   0  0  2  0  0  0  0  0  0  0  0  0
   39.2092   27.9677   -3.2339 O   0  0  0  0  0  0  0  0  0  0  0  0
   39.6817   24.1725   -4.1115 C   0  0  1  0  0  0  0  0  0  0  0  0
   40.0247   24.2386   -5.5132 O   0  0  0  0  0  0  0  0  0  0  0  0
   44.5392   33.4778    0.7078 C   0  0  2  0  0  0  0  0  0  0  0  0
   45.5522   34.4336    0.4747 O   0  0  0  0  0  0  0  0  0  0  0  0
   44.6812   28.5096    1.0247 C   0  0  2  0  0  0  0  0  0  0  0  0
   41.1083   29.3779   -2.4620 C   0  0  2  0  0  0  0  0  0  0  0  0
   42.1263   28.4944   -2.0135 O   0  0  0  0  0  0  0  0  0  0  0  0
   41.0045   23.9382   -3.2766 C   0  0  2  0  0  0  0  0  0  0  0  0
   40.6565   23.6192   -1.9188 O   0  0  0  0  0  0  0  0  0  0  0  0
   44.9663   32.4949    1.8161 C   0  0  2  0  0  0  0  0  0  0  0  0
   43.8820   31.5056    2.0036 O   0  0  0  0  0  0  0  0  0  0  0  0
   43.8350   27.3932    0.2309 C   0  0  2  0  0  0  0  0  0  0  0  0
   42.3757   27.6829    0.2089 O   0  0  0  0  0  0  0  0  0  0  0  0
   41.3337   30.7256   -1.7924 C   0  0  0  0  0  0  0  0  0  0  0  0
   41.9102   25.2346   -3.3325 C   0  0  1  0  0  0  0  0  0  0  0  0
   41.1464   26.4668   -2.9379 O   0  0  0  0  0  0  0  0  0  0  0  0
   45.2517   33.2738    3.1214 C   0  0  0  0  0  0  0  0  0  0  0  0
   45.6799   32.4415    4.2607 N   0  0  0  0  0  0  0  0  0  0  0  0
   44.0109   26.0258    0.9251 C   0  0  1  0  0  0  0  0  0  0  0  0
   43.2580   25.0329    0.2209 O   0  0  0  0  0  0  0  0  0  0  0  0
   43.2324   25.1099   -2.4819 C   0  0  0  0  0  0  0  0  0  0  0  0
   44.1084   26.3239   -2.4363 N   0  0  0  0  0  0  0  0  0  0  0  0
  1  2  1  6  0  0  0
  1  7  1  0  0  0  0
  1 30  1  0  0  0  0
  3  4  1  1  0  0  0
  3  9  1  0  0  0  0
  3 38  1  0  0  0  0
  5 10  1  0  0  0  0
  5 26  1  6  0  0  0
  5 32  1  0  0  0  0
  6 12  1  0  0  0  0
  6 35  1  0  0  0  0
  6 19  1  1  0  0  0
  7  8  1  6  0  0  0
  7 14  1  0  0  0  0
  8 33  1  0  0  0  0
  9 16  1  0  0  0  0
 10 11  1  6  0  0  0
 10 18  1  0  0  0  0
 12 13  1  1  0  0  0
 12 20  1  0  0  0  0
 14 15  1  6  0  0  0
 14 22  1  0  0  0  0
 16 17  1  1  0  0  0
 16 24  1  0  0  0  0
 18 19  1  6  0  0  0
 18 25  1  0  0  0  0
 20 21  1  6  0  0  0
 20 27  1  0  0  0  0
 22 23  1  6  0  0  0
 22 29  1  0  0  0  0
 24  2  1  6  0  0  0
 24 31  1  0  0  0  0
 25 26  1  1  0  0  0
 25 33  1  0  0  0  0
 27 28  1  1  0  0  0
 27 34  1  0  0  0  0
 29 30  1  0  0  0  0
 29 36  1  1  0  0  0
 31 32  1  1  0  0  0
 31 38  1  0  0  0  0
 34 35  1  0  0  0  0
 34 40  1  1  0  0  0
 36 37  1  0  0  0  0
 38 39  1  6  0  0  0
 40 41  1  0  0  0  0
M  END
>  <CHROM.1>
-47.25927780,122.00276752,-179.62740434,-177.23477927,42.77424244,28.28151076
-0.76850179,0.85442081,-0.70086122,0.06820012

>  <Name>
ligand

>  <RI>
0

>  <Rbt.Current_Directory>
/home/itssahil/PROJECTS/Mol_Feturizer/New_Systems/rnas/1ZZ5

>  <Rbt.Executable>
rbdock ($Id: //depot/dev/client3/rdock/2013.1/src/exe/rbdock.cxx#4 $)

>  <Rbt.Library>
libRbt.so (2013.1, Build901 2013/11/27)

>  <Rbt.Parameter_File>
/export/apps/rDock/src/rDock_2013.1_src/data/scripts/dock_solv.prm

>  <Rbt.Receptor>
prm/blind_docking_100.prm

>  <SCORE>
57.7662

>  <SCORE.INTER>
4.51298

>  <SCORE.INTER.CONST>
1

>  <SCORE.INTER.POLAR>
0

>  <SCORE.INTER.ROT>
4

>  <SCORE.INTER.SOLV>
18.0414

>  <SCORE.INTER.VDW>
-9.27182

>  <SCORE.INTER.norm>
0.110073

>  <SCORE.INTRA>
23.2003

>  <SCORE.INTRA.DIHEDRAL>
2.83741

>  <SCORE.INTRA.DIHEDRAL.0>
5.18357

>  <SCORE.INTRA.POLAR>
0

>  <SCORE.INTRA.POLAR.0>
0

>  <SCORE.INTRA.REPUL>
0

>  <SCORE.INTRA.REPUL.0>
0

>  <SCORE.INTRA.SOLV>
9.90869

>  <SCORE.INTRA.SOLV.lig_0>
-109.973

>  <SCORE.INTRA.VDW>
16.8272

>  <SCORE.INTRA.VDW.0>
-1.68646

>  <SCORE.INTRA.norm>
0.565861

>  <SCORE.RESTR>
30.0529

>  <SCORE.RESTR.CAVITY>
30.0529

>  <SCORE.RESTR.norm>
0.732998

>  <SCORE.SYSTEM>
0

>  <SCORE.SYSTEM.CONST>
0

>  <SCORE.SYSTEM.DIHEDRAL>
0

>  <SCORE.SYSTEM.SOLV>
0

>  <SCORE.SYSTEM.norm>
0

>  <SCORE.heavy>
41

>  <SCORE.norm>
1.40893

>  <RMSD>
16.343

$$$$
ligand
 OpenBabel11021811423D
libRbt.so/2013.1/901 2013/11/27
 41 45  0  0  0  0  0  0  0  0999 V2000
   43.5735   30.6149    0.8835 C   0  0  2  0  0  0  0  0  0  0  0  0
   44.6359   29.7514    0.4338 O   0  0  0  0  0  0  0  0  0  0  0  0
   45.5963   25.5333    0.8849 C   0  0  2  0  0  0  0  0  0  0  0  0
   45.8107   24.2116    1.5286 N   0  0  0  0  0  0  0  0  0  0  0  0
   41.6846   27.4875   -1.0529 C   0  0  1  0  0  0  0  0  0  0  0  0
   39.8712   26.7582   -3.6728 C   0  0  1  0  0  0  0  0  0  0  0  0
   43.1470   31.6101   -0.2370 C   0  0  2  0  0  0  0  0  0  0  0  0
   42.7957   30.9405   -1.4929 N   0  0  0  0  0  0  0  0  0  0  0  0
   46.4528   26.6048    1.6308 C   0  0  0  0  0  0  0  0  0  0  0  0
   40.1748   27.7594   -0.8620 C   0  0  2  0  0  0  0  0  0  0  0  0
   39.4110   26.5490   -0.8637 O   0  0  0  0  0  0  0  0  0  0  0  0
   38.8953   25.5056   -3.6450 C   0  0  2  0  0  0  0  0  0  0  0  0
   38.2827   25.2389   -2.3077 N   0  0  0  0  0  0  0  0  0  0  0  0
   44.2717   32.6507   -0.4872 C   0  0  1  0  0  0  0  0  0  0  0  0
   43.8666   33.5751   -1.4934 O   0  0  0  0  0  0  0  0  0  0  0  0
   46.2625   28.0161    1.0031 C   0  0  2  0  0  0  0  0  0  0  0  0
   47.1082   28.9624    1.7548 N   0  0  0  0  0  0  0  0  0  0  0  0
   39.8027   28.7036   -2.0179 C   0  0  2  0  0  0  0  0  0  0  0  0
   39.2149   27.9774   -3.1697 O   0  0  0  0  0  0  0  0  0  0  0  0
   39.6690   24.2058   -4.1522 C   0  0  1  0  0  0  0  0  0  0  0  0
   40.0010   24.3084   -5.5544 O   0  0  0  0  0  0  0  0  0  0  0  0
   44.6016   33.3893    0.8305 C   0  0  2  0  0  0  0  0  0  0  0  0
   45.6120   34.3501    0.6066 O   0  0  0  0  0  0  0  0  0  0  0  0
   44.7443   28.4149    1.0262 C   0  0  2  0  0  0  0  0  0  0  0  0
   41.1252   29.3680   -2.3900 C   0  0  2  0  0  0  0  0  0  0  0  0
   42.1486   28.4735   -1.9766 O   0  0  0  0  0  0  0  0  0  0  0  0
   40.9977   23.9455   -3.3346 C   0  0  2  0  0  0  0  0  0  0  0  0
   40.6597   23.5913   -1.9831 O   0  0  0  0  0  0  0  0  0  0  0  0
   45.0430   32.3800    1.9091 C   0  0  2  0  0  0  0  0  0  0  0  0
   43.9606   31.3869    2.0874 O   0  0  0  0  0  0  0  0  0  0  0  0
   43.8867   27.3182    0.2174 C   0  0  2  0  0  0  0  0  0  0  0  0
   42.4274   27.6089    0.2221 O   0  0  0  0  0  0  0  0  0  0  0  0
   41.3607   30.6991   -1.6915 C   0  0  0  0  0  0  0  0  0  0  0  0
   41.9068   25.2405   -3.3631 C   0  0  1  0  0  0  0  0  0  0  0  0
   41.1499   26.4638   -2.9296 O   0  0  0  0  0  0  0  0  0  0  0  0
   45.3465   33.1272    3.2286 C   0  0  0  0  0  0  0  0  0  0  0  0
   44.1728   33.7335    3.8837 N   0  0  0  0  0  0  0  0  0  0  0  0
   44.0710   25.9345    0.8762 C   0  0  1  0  0  0  0  0  0  0  0  0
   43.3079   24.9590    0.1587 O   0  0  0  0  0  0  0  0  0  0  0  0
   43.2355   25.0894   -2.5269 C   0  0  0  0  0  0  0  0  0  0  0  0
   44.1157   26.2992   -2.4563 N   0  0  0  0  0  0  0  0  0  0  0  0
  1  2  1  6  0  0  0
  1  7  1  0  0  0  0
  1 30  1  0  0  0  0
  3  4  1  1  0  0  0
  3  9  1  0  0  0  0
  3 38  1  0  0  0  0
  5 10  1  0  0  0  0
  5 26  1  6  0  0  0
  5 32  1  0  0  0  0
  6 12  1  0  0  0  0
  6 35  1  0  0  0  0
  6 19  1  1  0  0  0
  7  8  1  6  0  0  0
  7 14  1  0  0  0  0
  8 33  1  0  0  0  0
  9 16  1  0  0  0  0
 10 11  1  6  0  0  0
 10 18  1  0  0  0  0
 12 13  1  1  0  0  0
 12 20  1  0  0  0  0
 14 15  1  6  0  0  0
 14 22  1  0  0  0  0
 16 17  1  1  0  0  0
 16 24  1  0  0  0  0
 18 19  1  6  0  0  0
 18 25  1  0  0  0  0
 20 21  1  6  0  0  0
 20 27  1  0  0  0  0
 22 23  1  6  0  0  0
 22 29  1  0  0  0  0
 24  2  1  6  0  0  0
 24 31  1  0  0  0  0
 25 26  1  1  0  0  0
 25 33  1  0  0  0  0
 27 28  1  1  0  0  0
 27 34  1  0  0  0  0
 29 30  1  0  0  0  0
 29 36  1  1  0  0  0
 31 32  1  1  0  0  0
 31 38  1  0  0  0  0
 34 35  1  0  0  0  0
 34 40  1  1  0  0  0
 36 37  1  0  0  0  0
 38 39  1  6  0  0  0
 40 41  1  0  0  0  0
M  END
>  <CHROM.1>
-47.24321883,122.37092576,67.39295983,-177.25806410,42.77238540,28.26511236
-0.75679995,0.90966588,-0.67000856,0.12075876

>  <Name>
ligand

>  <RI>
0

>  <Rbt.Current_Directory>
/home/itssahil/PROJECTS/Mol_Feturizer/New_Systems/rnas/1ZZ5

>  <Rbt.Executable>
rbdock ($Id: //depot/dev/client3/rdock/2013.1/src/exe/rbdock.cxx#4 $)

>  <Rbt.Library>
libRbt.so (2013.1, Build901 2013/11/27)

>  <Rbt.Parameter_File>
/export/apps/rDock/src/rDock_2013.1_src/data/scripts/dock_solv.prm

>  <Rbt.Receptor>
prm/blind_docking_100.prm

>  <SCORE>
57.8579

>  <SCORE.INTER>
3.95851

>  <SCORE.INTER.CONST>
1

>  <SCORE.INTER.POLAR>
0

>  <SCORE.INTER.ROT>
4

>  <SCORE.INTER.SOLV>
16.9042

>  <SCORE.INTER.VDW>
-9.26241

>  <SCORE.INTER.norm>
0.0965489

>  <SCORE.INTRA>
23.8823

>  <SCORE.INTRA.DIHEDRAL>
3.02578

>  <SCORE.INTRA.DIHEDRAL.0>
5.18357

>  <SCORE.INTRA.POLAR>
0

>  <SCORE.INTRA.POLAR.0>
0

>  <SCORE.INTRA.REPUL>
0

>  <SCORE.INTRA.REPUL.0>
0

>  <SCORE.INTRA.SOLV>
11.2354

>  <SCORE.INTRA.SOLV.lig_0>
-109.973

>  <SCORE.INTRA.VDW>
16.7517

>  <SCORE.INTRA.VDW.0>
-1.68646

>  <SCORE.INTRA.norm>
0.582494

>  <SCORE.RESTR>
30.0172

>  <SCORE.RESTR.CAVITY>
30.0172

>  <SCORE.RESTR.norm>
0.732126

>  <SCORE.SYSTEM>
0

>  <SCORE.SYSTEM.CONST>
0

>  <SCORE.SYSTEM.DIHEDRAL>
0

>  <SCORE.SYSTEM.SOLV>
0

>  <SCORE.SYSTEM.norm>
0

>  <SCORE.heavy>
41

>  <SCORE.norm>
1.41117

>  <RMSD>
16.345

$$$$
ligand
 OpenBabel11021811423D
libRbt.so/2013.1/901 2013/11/27
 41 45  0  0  0  0  0  0  0  0999 V2000
   43.5714   30.6063    0.8877 C   0  0  2  0  0  0  0  0  0  0  0  0
   44.6287   29.7363    0.4387 O   0  0  0  0  0  0  0  0  0  0  0  0
   45.5502   25.5075    0.8701 C   0  0  2  0  0  0  0  0  0  0  0  0
   45.7497   24.1802    1.5070 N   0  0  0  0  0  0  0  0  0  0  0  0
   41.6662   27.5068   -1.0773 C   0  0  1  0  0  0  0  0  0  0  0  0
   39.8596   26.8073   -3.7097 C   0  0  1  0  0  0  0  0  0  0  0  0
   43.1596   31.6117   -0.2291 C   0  0  2  0  0  0  0  0  0  0  0  0
   42.8095   30.9526   -1.4909 N   0  0  0  0  0  0  0  0  0  0  0  0
   46.4119   26.5671    1.6269 C   0  0  0  0  0  0  0  0  0  0  0  0
   40.1578   27.7906   -0.8929 C   0  0  2  0  0  0  0  0  0  0  0  0
   39.3835   26.5869   -0.9060 O   0  0  0  0  0  0  0  0  0  0  0  0
   38.8716   25.5641   -3.6929 C   0  0  2  0  0  0  0  0  0  0  0  0
   38.2493   25.2972   -2.3600 N   0  0  0  0  0  0  0  0  0  0  0  0
   44.2946   32.6440   -0.4671 C   0  0  1  0  0  0  0  0  0  0  0  0
   43.9030   33.5777   -1.4700 O   0  0  0  0  0  0  0  0  0  0  0  0
   46.2372   27.9837    1.0066 C   0  0  2  0  0  0  0  0  0  0  0  0
   47.0869   28.9182    1.7684 N   0  0  0  0  0  0  0  0  0  0  0  0
   39.8002   28.7447   -2.0453 C   0  0  2  0  0  0  0  0  0  0  0  0
   39.2124   28.0304   -3.2045 O   0  0  0  0  0  0  0  0  0  0  0  0
   39.6354   24.2591   -4.2020 C   0  0  1  0  0  0  0  0  0  0  0  0
   39.9758   24.3649   -5.6019 O   0  0  0  0  0  0  0  0  0  0  0  0
   44.6236   33.3720    0.8567 C   0  0  2  0  0  0  0  0  0  0  0  0
   45.6435   34.3252    0.6440 O   0  0  0  0  0  0  0  0  0  0  0  0
   44.7224   28.3955    1.0238 C   0  0  2  0  0  0  0  0  0  0  0  0
   41.1304   29.3998   -2.4063 C   0  0  2  0  0  0  0  0  0  0  0  0
   42.1437   28.4942   -1.9927 O   0  0  0  0  0  0  0  0  0  0  0  0
   40.9572   23.9823   -3.3787 C   0  0  2  0  0  0  0  0  0  0  0  0
   40.6086   23.6253   -2.0306 O   0  0  0  0  0  0  0  0  0  0  0  0
   45.0504   32.3526    1.9317 C   0  0  2  0  0  0  0  0  0  0  0  0
   43.9585   31.3679    2.0983 O   0  0  0  0  0  0  0  0  0  0  0  0
   43.8598   27.3110    0.2039 C   0  0  2  0  0  0  0  0  0  0  0  0
   42.4031   27.6142    0.2024 O   0  0  0  0  0  0  0  0  0  0  0  0
   41.3735   30.7248   -1.6986 C   0  0  0  0  0  0  0  0  0  0  0  0
   41.8789   25.2686   -3.3964 C   0  0  1  0  0  0  0  0  0  0  0  0
   41.1315   26.4971   -2.9613 O   0  0  0  0  0  0  0  0  0  0  0  0
   45.3531   33.0894    3.2573 C   0  0  0  0  0  0  0  0  0  0  0  0
   44.1806   33.6988    3.9114 N   0  0  0  0  0  0  0  0  0  0  0  0
   44.0285   25.9219    0.8555 C   0  0  1  0  0  0  0  0  0  0  0  0
   43.2610   24.9573    0.1281 O   0  0  0  0  0  0  0  0  0  0  0  0
   43.2016   25.1008   -2.5540 C   0  0  0  0  0  0  0  0  0  0  0  0
   44.1086   26.2915   -2.4997 N   0  0  0  0  0  0  0  0  0  0  0  0
  1  2  1  6  0  0  0
  1  7  1  0  0  0  0
  1 30  1  0  0  0  0
  3  4  1  1  0  0  0
  3  9  1  0  0  0  0
  3 38  1  0  0  0  0
  5 10  1  0  0  0  0
  5 26  1  6  0  0  0
  5 32  1  0  0  0  0
  6 12  1  0  0  0  0
  6 35  1  0  0  0  0
  6 19  1  1  0  0  0
  7  8  1  6  0  0  0
  7 14  1  0  0  0  0
  8 33  1  0  0  0  0
  9 16  1  0  0  0  0
 10 11  1  6  0  0  0
 10 18  1  0  0  0  0
 12 13  1  1  0  0  0
 12 20  1  0  0  0  0
 14 15  1  6  0  0  0
 14 22  1  0  0  0  0
 16 17  1  1  0  0  0
 16 24  1  0  0  0  0
 18 19  1  6  0  0  0
 18 25  1  0  0  0  0
 20 21  1  6  0  0  0
 20 27  1  0  0  0  0
 22 23  1  6  0  0  0
 22 29  1  0  0  0  0
 24  2  1  6  0  0  0
 24 31  1  0  0  0  0
 25 26  1  1  0  0  0
 25 33  1  0  0  0  0
 27 28  1  1  0  0  0
 27 34  1  0  0  0  0
 29 30  1  0  0  0  0
 29 36  1  1  0  0  0
 31 32  1  1  0  0  0
 31 38  1  0  0  0  0
 34 35  1  0  0  0  0
 34 40  1  1  0  0  0
 36 37  1  0  0  0  0
 38 39  1  6  0  0  0
 40 41  1  0  0  0  0
M  END
>  <CHROM.1>
-47.13707090,122.29664128,67.55611107,-178.64031952,42.75860327,28.27241952
-0.77040475,0.89972026,-0.67592362,0.12043078

>  <Name>
ligand

>  <RI>
0

>  <Rbt.Current_Directory>
/home/itssahil/PROJECTS/Mol_Feturizer/New_Systems/rnas/1ZZ5

>  <Rbt.Executable>
rbdock ($Id: //depot/dev/client3/rdock/2013.1/src/exe/rbdock.cxx#4 $)

>  <Rbt.Library>
libRbt.so (2013.1, Build901 2013/11/27)

>  <Rbt.Parameter_File>
/export/apps/rDock/src/rDock_2013.1_src/data/scripts/dock_solv.prm

>  <Rbt.Receptor>
prm/blind_docking_100.prm

>  <SCORE>
58.3

>  <SCORE.INTER>
4.52263

>  <SCORE.INTER.CONST>
1

>  <SCORE.INTER.POLAR>
0

>  <SCORE.INTER.ROT>
4

>  <SCORE.INTER.SOLV>
17.1621

>  <SCORE.INTER.VDW>
-8.97229

>  <SCORE.INTER.norm>
0.110308

>  <SCORE.INTRA>
23.8588

>  <SCORE.INTRA.DIHEDRAL>
3.03143

>  <SCORE.INTRA.DIHEDRAL.0>
5.18357

>  <SCORE.INTRA.POLAR>
0

>  <SCORE.INTRA.POLAR.0>
0

>  <SCORE.INTRA.REPUL>
0

>  <SCORE.INTRA.REPUL.0>
0

>  <SCORE.INTRA.SOLV>
11.0931

>  <SCORE.INTRA.SOLV.lig_0>
-109.973

>  <SCORE.INTRA.VDW>
16.7966

>  <SCORE.INTRA.VDW.0>
-1.68646

>  <SCORE.INTRA.norm>
0.581923

>  <SCORE.RESTR>
29.9185

>  <SCORE.RESTR.CAVITY>
29.9185

>  <SCORE.RESTR.norm>
0.72972

>  <SCORE.SYSTEM>
0

>  <SCORE.SYSTEM.CONST>
0

>  <SCORE.SYSTEM.DIHEDRAL>
0

>  <SCORE.SYSTEM.SOLV>
0

>  <SCORE.SYSTEM.norm>
0

>  <SCORE.heavy>
41

>  <SCORE.norm>
1.42195

>  <RMSD>
16.345

$$$$
ligand
 OpenBabel11021811423D
libRbt.so/2013.1/901 2013/11/27
 41 45  0  0  0  0  0  0  0  0999 V2000
   43.4881   30.5774    0.9338 C   0  0  2  0  0  0  0  0  0  0  0  0
   44.5704   29.7305    0.5003 O   0  0  0  0  0  0  0  0  0  0  0  0
   45.5389   25.5074    0.8807 C   0  0  2  0  0  0  0  0  0  0  0  0
   45.7385   24.1712    1.4987 N   0  0  0  0  0  0  0  0  0  0  0  0
   41.6858   27.4897   -1.1437 C   0  0  1  0  0  0  0  0  0  0  0  0
   39.8165   26.6948   -3.7011 C   0  0  1  0  0  0  0  0  0  0  0  0
   43.0950   31.5980   -0.1760 C   0  0  2  0  0  0  0  0  0  0  0  0
   42.7915   30.9580   -1.4595 N   0  0  0  0  0  0  0  0  0  0  0  0
   46.3628   26.5642    1.6822 C   0  0  0  0  0  0  0  0  0  0  0  0
   40.1687   27.7494   -0.9990 C   0  0  2  0  0  0  0  0  0  0  0  0
   39.4124   26.5356   -1.0572 O   0  0  0  0  0  0  0  0  0  0  0  0
   38.8207   25.5263   -3.2946 C   0  0  2  0  0  0  0  0  0  0  0  0
   38.4268   25.5342   -1.8525 N   0  0  0  0  0  0  0  0  0  0  0  0
   44.2217   32.6500   -0.3611 C   0  0  1  0  0  0  0  0  0  0  0  0
   43.8465   33.5971   -1.3578 O   0  0  0  0  0  0  0  0  0  0  0  0
   46.1862   27.9897    1.0832 C   0  0  2  0  0  0  0  0  0  0  0  0
   46.9999   28.9213    1.8871 N   0  0  0  0  0  0  0  0  0  0  0  0
   39.8316   28.7201   -2.1436 C   0  0  2  0  0  0  0  0  0  0  0  0
   39.2884   28.0198   -3.3328 O   0  0  0  0  0  0  0  0  0  0  0  0
   39.4615   24.1143   -3.6705 C   0  0  1  0  0  0  0  0  0  0  0  0
   39.5630   23.9504   -5.1022 O   0  0  0  0  0  0  0  0  0  0  0  0
   44.5012   33.3573    0.9851 C   0  0  2  0  0  0  0  0  0  0  0  0
   45.5133   34.3283    0.8204 O   0  0  0  0  0  0  0  0  0  0  0  0
   44.6659   28.3804    1.0631 C   0  0  2  0  0  0  0  0  0  0  0  0
   41.1624   29.4000   -2.4529 C   0  0  2  0  0  0  0  0  0  0  0  0
   42.1759   28.5007   -2.0262 O   0  0  0  0  0  0  0  0  0  0  0  0
   40.8973   23.9229   -3.0355 C   0  0  2  0  0  0  0  0  0  0  0  0
   40.7739   23.8311   -1.6062 O   0  0  0  0  0  0  0  0  0  0  0  0
   44.9107   32.3238    2.0532 C   0  0  2  0  0  0  0  0  0  0  0  0
   43.8285   31.3212    2.1692 O   0  0  0  0  0  0  0  0  0  0  0  0
   43.8433   27.2999    0.1981 C   0  0  2  0  0  0  0  0  0  0  0  0
   42.3831   27.5831    0.1590 O   0  0  0  0  0  0  0  0  0  0  0  0
   41.3657   30.7146   -1.7139 C   0  0  0  0  0  0  0  0  0  0  0  0
   41.8284   25.1369   -3.4400 C   0  0  1  0  0  0  0  0  0  0  0  0
   41.1898   26.4597   -3.1243 O   0  0  0  0  0  0  0  0  0  0  0  0
   45.1639   33.0395    3.4006 C   0  0  0  0  0  0  0  0  0  0  0  0
   46.3297   33.9422    3.4153 N   0  0  0  0  0  0  0  0  0  0  0  0
   44.0126   25.9011    0.8287 C   0  0  1  0  0  0  0  0  0  0  0  0
   43.2806   24.9400    0.0611 O   0  0  0  0  0  0  0  0  0  0  0  0
   43.2705   25.0559   -2.8067 C   0  0  0  0  0  0  0  0  0  0  0  0
   44.0318   26.3432   -2.7247 N   0  0  0  0  0  0  0  0  0  0  0  0
  1  2  1  6  0  0  0
  1  7  1  0  0  0  0
  1 30  1  0  0  0  0
  3  4  1  1  0  0  0
  3  9  1  0  0  0  0
  3 38  1  0  0  0  0
  5 10  1  0  0  0  0
  5 26  1  6  0  0  0
  5 32  1  0  0  0  0
  6 12  1  0  0  0  0
  6 35  1  0  0  0  0
  6 19  1  1  0  0  0
  7  8  1  6  0  0  0
  7 14  1  0  0  0  0
  8 33  1  0  0  0  0
  9 16  1  0  0  0  0
 10 11  1  6  0  0  0
 10 18  1  0  0  0  0
 12 13  1  1  0  0  0
 12 20  1  0  0  0  0
 14 15  1  6  0  0  0
 14 22  1  0  0  0  0
 16 17  1  1  0  0  0
 16 24  1  0  0  0  0
 18 19  1  6  0  0  0
 18 25  1  0  0  0  0
 20 21  1  6  0  0  0
 20 27  1  0  0  0  0
 22 23  1  6  0  0  0
 22 29  1  0  0  0  0
 24  2  1  6  0  0  0
 24 31  1  0  0  0  0
 25 26  1  1  0  0  0
 25 33  1  0  0  0  0
 27 28  1  1  0  0  0
 27 34  1  0  0  0  0
 29 30  1  0  0  0  0
 29 36  1  1  0  0  0
 31 32  1  1  0  0  0
 31 38  1  0  0  0  0
 34 35  1  0  0  0  0
 34 40  1  1  0  0  0
 36 37  1  0  0  0  0
 38 39  1  6  0  0  0
 40 41  1  0  0  0  0
M  END
>  <CHROM.1>
-36.44850460,103.44862175,-66.86494318,-159.07387180,42.77344834,28.25667084
-0.71985439,0.88197267,-0.66712551,0.09215458

>  <Name>
ligand

>  <RI>
0

>  <Rbt.Current_Directory>
/home/itssahil/PROJECTS/Mol_Feturizer/New_Systems/rnas/1ZZ5

>  <Rbt.Executable>
rbdock ($Id: //depot/dev/client3/rdock/2013.1/src/exe/rbdock.cxx#4 $)

>  <Rbt.Library>
libRbt.so (2013.1, Build901 2013/11/27)

>  <Rbt.Parameter_File>
/export/apps/rDock/src/rDock_2013.1_src/data/scripts/dock_solv.prm

>  <Rbt.Receptor>
prm/blind_docking_100.prm

>  <SCORE>
64.0108

>  <SCORE.INTER>
2.17959

>  <SCORE.INTER.CONST>
1

>  <SCORE.INTER.POLAR>
0

>  <SCORE.INTER.ROT>
4

>  <SCORE.INTER.SOLV>
17.1836

>  <SCORE.INTER.VDW>
-10.5415

>  <SCORE.INTER.norm>
0.0531608

>  <SCORE.INTRA>
32.7488

>  <SCORE.INTRA.DIHEDRAL>
4.72423

>  <SCORE.INTRA.DIHEDRAL.0>
5.18357

>  <SCORE.INTRA.POLAR>
0

>  <SCORE.INTRA.POLAR.0>
0

>  <SCORE.INTRA.REPUL>
0

>  <SCORE.INTRA.REPUL.0>
0

>  <SCORE.INTRA.SOLV>
11.9448

>  <SCORE.INTRA.SOLV.lig_0>
-109.973

>  <SCORE.INTRA.VDW>
24.4143

>  <SCORE.INTRA.VDW.0>
-1.68646

>  <SCORE.INTRA.norm>
0.798751

>  <SCORE.RESTR>
29.0824

>  <SCORE.RESTR.CAVITY>
29.0824

>  <SCORE.RESTR.norm>
0.709328

>  <SCORE.SYSTEM>
0

>  <SCORE.SYSTEM.CONST>
0

>  <SCORE.SYSTEM.DIHEDRAL>
0

>  <SCORE.SYSTEM.SOLV>
0

>  <SCORE.SYSTEM.norm>
0

>  <SCORE.heavy>
41

>  <SCORE.norm>
1.56124

>  <RMSD>
16.351

$$$$
ligand
 OpenBabel11021811423D
libRbt.so/2013.1/901 2013/11/27
 41 45  0  0  0  0  0  0  0  0999 V2000
   43.5694   30.5795    0.9135 C   0  0  2  0  0  0  0  0  0  0  0  0
   44.6328   29.7231    0.4528 O   0  0  0  0  0  0  0  0  0  0  0  0
   45.6012   25.5020    0.8548 C   0  0  2  0  0  0  0  0  0  0  0  0
   45.8186   24.1733    1.4831 N   0  0  0  0  0  0  0  0  0  0  0  0
   41.6839   27.4711   -1.0564 C   0  0  1  0  0  0  0  0  0  0  0  0
   39.8638   26.7632   -3.6767 C   0  0  1  0  0  0  0  0  0  0  0  0
   43.1399   31.5867   -0.1951 C   0  0  2  0  0  0  0  0  0  0  0  0
   42.7884   30.9309   -1.4582 N   0  0  0  0  0  0  0  0  0  0  0  0
   46.4566   26.5664    1.6120 C   0  0  0  0  0  0  0  0  0  0  0  0
   40.1739   27.7381   -0.8608 C   0  0  2  0  0  0  0  0  0  0  0  0
   39.4122   26.5264   -0.8756 O   0  0  0  0  0  0  0  0  0  0  0  0
   38.8864   25.5117   -3.6513 C   0  0  2  0  0  0  0  0  0  0  0  0
   38.2788   25.2391   -2.3129 N   0  0  0  0  0  0  0  0  0  0  0  0
   44.2624   32.6321   -0.4346 C   0  0  1  0  0  0  0  0  0  0  0  0
   43.8546   33.5672   -1.4298 O   0  0  0  0  0  0  0  0  0  0  0  0
   46.2631   27.9844    1.0006 C   0  0  2  0  0  0  0  0  0  0  0  0
   47.1080   28.9236    1.7622 N   0  0  0  0  0  0  0  0  0  0  0  0
   39.7988   28.6947   -2.0055 C   0  0  2  0  0  0  0  0  0  0  0  0
   39.2111   27.9807   -3.1649 O   0  0  0  0  0  0  0  0  0  0  0  0
   39.6565   24.2134   -4.1681 C   0  0  1  0  0  0  0  0  0  0  0  0
   39.9831   24.3227   -5.5710 O   0  0  0  0  0  0  0  0  0  0  0  0
   44.5924   33.3563    0.8911 C   0  0  2  0  0  0  0  0  0  0  0  0
   45.6009   34.3213    0.6771 O   0  0  0  0  0  0  0  0  0  0  0  0
   44.7443   28.3802    1.0299 C   0  0  2  0  0  0  0  0  0  0  0  0
   41.1198   29.3657   -2.3715 C   0  0  2  0  0  0  0  0  0  0  0  0
   42.1451   28.4684   -1.9694 O   0  0  0  0  0  0  0  0  0  0  0  0
   40.9881   23.9474   -3.3571 C   0  0  2  0  0  0  0  0  0  0  0  0
   40.6550   23.5869   -2.0060 O   0  0  0  0  0  0  0  0  0  0  0  0
   45.0367   32.3355    1.9576 C   0  0  2  0  0  0  0  0  0  0  0  0
   43.9563   31.3385    2.1258 O   0  0  0  0  0  0  0  0  0  0  0  0
   43.8877   27.2913    0.2095 C   0  0  2  0  0  0  0  0  0  0  0  0
   42.4279   27.5792    0.2191 O   0  0  0  0  0  0  0  0  0  0  0  0
   41.3536   30.6892   -1.6580 C   0  0  0  0  0  0  0  0  0  0  0  0
   41.8987   25.2414   -3.3827 C   0  0  1  0  0  0  0  0  0  0  0  0
   41.1451   26.4634   -2.9401 O   0  0  0  0  0  0  0  0  0  0  0  0
   45.3404   33.0682    3.2853 C   0  0  0  0  0  0  0  0  0  0  0  0
   44.1774   33.7193    3.9159 N   0  0  0  0  0  0  0  0  0  0  0  0
   44.0752   25.9004    0.8523 C   0  0  1  0  0  0  0  0  0  0  0  0
   43.3131   24.9319    0.1245 O   0  0  0  0  0  0  0  0  0  0  0  0
   43.2305   25.0844   -2.5525 C   0  0  0  0  0  0  0  0  0  0  0  0
   44.1093   26.2947   -2.4739 N   0  0  0  0  0  0  0  0  0  0  0  0
  1  2  1  6  0  0  0
  1  7  1  0  0  0  0
  1 30  1  0  0  0  0
  3  4  1  1  0  0  0
  3  9  1  0  0  0  0
  3 38  1  0  0  0  0
  5 10  1  0  0  0  0
  5 26  1  6  0  0  0
  5 32  1  0  0  0  0
  6 12  1  0  0  0  0
  6 35  1  0  0  0  0
  6 19  1  1  0  0  0
  7  8  1  6  0  0  0
  7 14  1  0  0  0  0
  8 33  1  0  0  0  0
  9 16  1  0  0  0  0
 10 11  1  6  0  0  0
 10 18  1  0  0  0  0
 12 13  1  1  0  0  0
 12 20  1  0  0  0  0
 14 15  1  6  0  0  0
 14 22  1  0  0  0  0
 16 17  1  1  0  0  0
 16 24  1  0  0  0  0
 18 19  1  6  0  0  0
 18 25  1  0  0  0  0
 20 21  1  6  0  0  0
 20 27  1  0  0  0  0
 22 23  1  6  0  0  0
 22 29  1  0  0  0  0
 24  2  1  6  0  0  0
 24 31  1  0  0  0  0
 25 26  1  1  0  0  0
 25 33  1  0  0  0  0
 27 28  1  1  0  0  0
 27 34  1  0  0  0  0
 29 30  1  0  0  0  0
 29 36  1  1  0  0  0
 31 32  1  1  0  0  0
 31 38  1  0  0  0  0
 34 35  1  0  0  0  0
 34 40  1  1  0  0  0
 36 37  1  0  0  0  0
 38 39  1  6  0  0  0
 40 41  1  0  0  0  0
M  END
>  <CHROM.1>
-46.82030483,121.92217626,64.63157129,-176.97181802,42.76843952,28.24709031
-0.74967195,0.91233323,-0.66673305,0.13217676

>  <Name>
ligand

>  <RI>
0

>  <Rbt.Current_Directory>
/home/itssahil/PROJECTS/Mol_Feturizer/New_Systems/rnas/1ZZ5

>  <Rbt.Executable>
rbdock ($Id: //depot/dev/client3/rdock/2013.1/src/exe/rbdock.cxx#4 $)

>  <Rbt.Library>
libRbt.so (2013.1, Build901 2013/11/27)

>  <Rbt.Parameter_File>
/export/apps/rDock/src/rDock_2013.1_src/data/scripts/dock_solv.prm

>  <Rbt.Receptor>
prm/blind_docking_100.prm

>  <SCORE>
57.9661

>  <SCORE.INTER>
3.68566

>  <SCORE.INTER.CONST>
1

>  <SCORE.INTER.POLAR>
0

>  <SCORE.INTER.ROT>
4

>  <SCORE.INTER.SOLV>
16.8348

>  <SCORE.INTER.VDW>
-9.42117

>  <SCORE.INTER.norm>
0.0898943

>  <SCORE.INTRA>
24.3057

>  <SCORE.INTRA.DIHEDRAL>
2.97158

>  <SCORE.INTRA.DIHEDRAL.0>
5.18357

>  <SCORE.INTRA.POLAR>
0

>  <SCORE.INTRA.POLAR.0>
0

>  <SCORE.INTRA.REPUL>
0

>  <SCORE.INTRA.REPUL.0>
0

>  <SCORE.INTRA.SOLV>
11.3177

>  <SCORE.INTRA.SOLV.lig_0>
-109.973

>  <SCORE.INTRA.VDW>
17.1611

>  <SCORE.INTRA.VDW.0>
-1.68646

>  <SCORE.INTRA.norm>
0.592823

>  <SCORE.RESTR>
29.9747

>  <SCORE.RESTR.CAVITY>
29.9747

>  <SCORE.RESTR.norm>
0.73109

>  <SCORE.SYSTEM>
0

>  <SCORE.SYSTEM.CONST>
0

>  <SCORE.SYSTEM.DIHEDRAL>
0

>  <SCORE.SYSTEM.SOLV>
0

>  <SCORE.SYSTEM.norm>
0

>  <SCORE.heavy>
41

>  <SCORE.norm>
1.41381

>  <RMSD>
16.356

$$$$
ligand
 OpenBabel11021811423D
libRbt.so/2013.1/901 2013/11/27
 41 45  0  0  0  0  0  0  0  0999 V2000
   43.5504   30.7486    0.8571 C   0  0  2  0  0  0  0  0  0  0  0  0
   44.6229   29.8859    0.4303 O   0  0  0  0  0  0  0  0  0  0  0  0
   45.6225   25.6884    0.9770 C   0  0  2  0  0  0  0  0  0  0  0  0
   45.8472   24.3831    1.6502 N   0  0  0  0  0  0  0  0  0  0  0  0
   41.6997   27.5613   -1.0176 C   0  0  1  0  0  0  0  0  0  0  0  0
   39.9246   26.7791   -3.6527 C   0  0  1  0  0  0  0  0  0  0  0  0
   43.1187   31.7149   -0.2864 C   0  0  2  0  0  0  0  0  0  0  0  0
   42.7789   31.0147   -1.5287 N   0  0  0  0  0  0  0  0  0  0  0  0
   46.4656   26.7842    1.7026 C   0  0  0  0  0  0  0  0  0  0  0  0
   40.1866   27.8225   -0.8383 C   0  0  2  0  0  0  0  0  0  0  0  0
   39.4345   26.6049   -0.8165 O   0  0  0  0  0  0  0  0  0  0  0  0
   38.9971   25.4918   -3.5860 C   0  0  2  0  0  0  0  0  0  0  0  0
   38.4224   25.2232   -2.2323 N   0  0  0  0  0  0  0  0  0  0  0  0
   44.2341   32.7608   -0.5551 C   0  0  1  0  0  0  0  0  0  0  0  0
   43.8241   33.6590   -1.5828 O   0  0  0  0  0  0  0  0  0  0  0  0
   46.2640   28.1796    1.0435 C   0  0  2  0  0  0  0  0  0  0  0  0
   47.0976   29.1503    1.7775 N   0  0  0  0  0  0  0  0  0  0  0  0
   39.8099   28.7376   -2.0159 C   0  0  2  0  0  0  0  0  0  0  0  0
   39.2337   27.9807   -3.1538 O   0  0  0  0  0  0  0  0  0  0  0  0
   39.8083   24.2138   -4.0904 C   0  0  1  0  0  0  0  0  0  0  0  0
   40.1074   24.3071   -5.5006 O   0  0  0  0  0  0  0  0  0  0  0  0
   44.5516   33.5312    0.7474 C   0  0  2  0  0  0  0  0  0  0  0  0
   45.5535   34.4967    0.5064 O   0  0  0  0  0  0  0  0  0  0  0  0
   44.7420   28.5639    1.0522 C   0  0  2  0  0  0  0  0  0  0  0  0
   41.1273   29.4067   -2.3976 C   0  0  2  0  0  0  0  0  0  0  0  0
   42.1576   28.5315   -1.9609 O   0  0  0  0  0  0  0  0  0  0  0  0
   41.1623   24.0157   -3.2973 C   0  0  2  0  0  0  0  0  0  0  0  0
   40.8656   23.6701   -1.9338 O   0  0  0  0  0  0  0  0  0  0  0  0
   44.9985   32.5500    1.8494 C   0  0  2  0  0  0  0  0  0  0  0  0
   43.9251   31.5504    2.0453 O   0  0  0  0  0  0  0  0  0  0  0  0
   43.8983   27.4414    0.2644 C   0  0  2  0  0  0  0  0  0  0  0  0
   42.4362   27.7178    0.2573 O   0  0  0  0  0  0  0  0  0  0  0  0
   41.3470   30.7549   -1.7273 C   0  0  0  0  0  0  0  0  0  0  0  0
   42.0216   25.3429   -3.3639 C   0  0  1  0  0  0  0  0  0  0  0  0
   41.2285   26.5438   -2.9324 O   0  0  0  0  0  0  0  0  0  0  0  0
   45.2896   33.3287    3.1534 C   0  0  0  0  0  0  0  0  0  0  0  0
   46.4705   34.2101    3.1005 N   0  0  0  0  0  0  0  0  0  0  0  0
   44.0934   26.0742    0.9539 C   0  0  1  0  0  0  0  0  0  0  0  0
   43.3427   25.0760    0.2550 O   0  0  0  0  0  0  0  0  0  0  0  0
   43.3718   25.2541   -2.5538 C   0  0  0  0  0  0  0  0  0  0  0  0
   44.4381   24.3783   -3.1363 N   0  0  0  0  0  0  0  0  0  0  0  0
  1  2  1  6  0  0  0
  1  7  1  0  0  0  0
  1 30  1  0  0  0  0
  3  4  1  1  0  0  0
  3  9  1  0  0  0  0
  3 38  1  0  0  0  0
  5 10  1  0  0  0  0
  5 26  1  6  0  0  0
  5 32  1  0  0  0  0
  6 12  1  0  0  0  0
  6 35  1  0  0  0  0
  6 19  1  1  0  0  0
  7  8  1  6  0  0  0
  7 14  1  0  0  0  0
  8 33  1  0  0  0  0
  9 16  1  0  0  0  0
 10 11  1  6  0  0  0
 10 18  1  0  0  0  0
 12 13  1  1  0  0  0
 12 20  1  0  0  0  0
 14 15  1  6  0  0  0
 14 22  1  0  0  0  0
 16 17  1  1  0  0  0
 16 24  1  0  0  0  0
 18 19  1  6  0  0  0
 18 25  1  0  0  0  0
 20 21  1  6  0  0  0
 20 27  1  0  0  0  0
 22 23  1  6  0  0  0
 22 29  1  0  0  0  0
 24  2  1  6  0  0  0
 24 31  1  0  0  0  0
 25 26  1  1  0  0  0
 25 33  1  0  0  0  0
 27 28  1  1  0  0  0
 27 34  1  0  0  0  0
 29 30  1  0  0  0  0
 29 36  1  1  0  0  0
 31 32  1  1  0  0  0
 31 38  1  0  0  0  0
 34 35  1  0  0  0  0
 34 40  1  1  0  0  0
 36 37  1  0  0  0  0
 38 39  1  6  0  0  0
 40 41  1  0  0  0  0
M  END
>  <CHROM.1>
-48.99515422,121.71707973,-68.28925655,71.39122715,42.86140761,28.32345152
-0.78212992,0.92077075,-0.66003009,0.10627465

>  <Name>
ligand

>  <RI>
0

>  <Rbt.Current_Directory>
/home/itssahil/PROJECTS/Mol_Feturizer/New_Systems/rnas/1ZZ5

>  <Rbt.Executable>
rbdock ($Id: //depot/dev/client3/rdock/2013.1/src/exe/rbdock.cxx#4 $)

>  <Rbt.Library>
libRbt.so (2013.1, Build901 2013/11/27)

>  <Rbt.Parameter_File>
/export/apps/rDock/src/rDock_2013.1_src/data/scripts/dock_solv.prm

>  <Rbt.Receptor>
prm/blind_docking_100.prm

>  <SCORE>
56.8422

>  <SCORE.INTER>
4.34651

>  <SCORE.INTER.CONST>
1

>  <SCORE.INTER.POLAR>
0

>  <SCORE.INTER.ROT>
4

>  <SCORE.INTER.SOLV>
14.3765

>  <SCORE.INTER.VDW>
-8.16115

>  <SCORE.INTER.norm>
0.106012

>  <SCORE.INTRA>
20.627

>  <SCORE.INTRA.DIHEDRAL>
3.29484

>  <SCORE.INTRA.DIHEDRAL.0>
5.18357

>  <SCORE.INTRA.POLAR>
0

>  <SCORE.INTRA.POLAR.0>
0

>  <SCORE.INTRA.REPUL>
0

>  <SCORE.INTRA.REPUL.0>
0

>  <SCORE.INTRA.SOLV>
5.68295

>  <SCORE.INTRA.SOLV.lig_0>
-109.973

>  <SCORE.INTRA.VDW>
16.1381

>  <SCORE.INTRA.VDW.0>
-1.68646

>  <SCORE.INTRA.norm>
0.503099

>  <SCORE.RESTR>
31.8686

>  <SCORE.RESTR.CAVITY>
31.8686

>  <SCORE.RESTR.norm>
0.777284

>  <SCORE.SYSTEM>
0

>  <SCORE.SYSTEM.CONST>
0

>  <SCORE.SYSTEM.DIHEDRAL>
0

>  <SCORE.SYSTEM.SOLV>
0

>  <SCORE.SYSTEM.norm>
0

>  <SCORE.heavy>
41

>  <SCORE.norm>
1.38639

>  <RMSD>
16.373

$$$$
ligand
 OpenBabel11021811423D
libRbt.so/2013.1/901 2013/11/27
 41 45  0  0  0  0  0  0  0  0999 V2000
   43.5498   30.6534    0.8429 C   0  0  2  0  0  0  0  0  0  0  0  0
   44.6138   29.7860    0.4049 O   0  0  0  0  0  0  0  0  0  0  0  0
   45.5762   25.5737    0.9034 C   0  0  2  0  0  0  0  0  0  0  0  0
   45.7900   24.2591    1.5617 N   0  0  0  0  0  0  0  0  0  0  0  0
   41.6675   27.5041   -1.0641 C   0  0  1  0  0  0  0  0  0  0  0  0
   39.8626   26.7474   -3.6824 C   0  0  1  0  0  0  0  0  0  0  0  0
   43.1251   31.6363   -0.2891 C   0  0  2  0  0  0  0  0  0  0  0  0
   42.7772   30.9530   -1.5386 N   0  0  0  0  0  0  0  0  0  0  0  0
   46.4303   26.6537    1.6397 C   0  0  0  0  0  0  0  0  0  0  0  0
   40.1571   27.7769   -0.8795 C   0  0  2  0  0  0  0  0  0  0  0  0
   39.3941   26.5660   -0.8700 O   0  0  0  0  0  0  0  0  0  0  0  0
   38.8908   25.4920   -3.6420 C   0  0  2  0  0  0  0  0  0  0  0  0
   38.2790   25.2367   -2.3021 N   0  0  0  0  0  0  0  0  0  0  0  0
   44.2496   32.6750   -0.5480 C   0  0  1  0  0  0  0  0  0  0  0  0
   43.8462   33.5882   -1.5650 O   0  0  0  0  0  0  0  0  0  0  0  0
   46.2403   28.0581    0.9965 C   0  0  2  0  0  0  0  0  0  0  0  0
   47.0837   29.0130    1.7399 N   0  0  0  0  0  0  0  0  0  0  0  0
   39.7870   28.7083   -2.0463 C   0  0  2  0  0  0  0  0  0  0  0  0
   39.2023   27.9694   -3.1916 O   0  0  0  0  0  0  0  0  0  0  0  0
   39.6688   24.1896   -4.1361 C   0  0  1  0  0  0  0  0  0  0  0  0
   40.0005   24.2792   -5.5393 O   0  0  0  0  0  0  0  0  0  0  0  0
   44.5760   33.4279    0.7625 C   0  0  2  0  0  0  0  0  0  0  0  0
   45.5862   34.3870    0.5306 O   0  0  0  0  0  0  0  0  0  0  0  0
   44.7219   28.4560    1.0119 C   0  0  2  0  0  0  0  0  0  0  0  0
   41.1098   29.3697   -2.4226 C   0  0  2  0  0  0  0  0  0  0  0  0
   42.1329   28.4805   -1.9973 O   0  0  0  0  0  0  0  0  0  0  0  0
   40.9983   23.9419   -3.3160 C   0  0  2  0  0  0  0  0  0  0  0  0
   40.6614   23.6002   -1.9609 O   0  0  0  0  0  0  0  0  0  0  0  0
   45.0156   32.4306    1.8528 C   0  0  2  0  0  0  0  0  0  0  0  0
   43.9335   31.4387    2.0393 O   0  0  0  0  0  0  0  0  0  0  0  0
   43.8668   27.3501    0.2130 C   0  0  2  0  0  0  0  0  0  0  0  0
   42.4074   27.6397    0.2112 O   0  0  0  0  0  0  0  0  0  0  0  0
   41.3428   30.7084   -1.7378 C   0  0  0  0  0  0  0  0  0  0  0  0
   41.9031   25.2396   -3.3575 C   0  0  1  0  0  0  0  0  0  0  0  0
   41.1422   26.4646   -2.9363 O   0  0  0  0  0  0  0  0  0  0  0  0
   45.3157   33.1921    3.1649 C   0  0  0  0  0  0  0  0  0  0  0  0
   45.7389   32.3428    4.2936 N   0  0  0  0  0  0  0  0  0  0  0  0
   44.0506   25.9736    0.8870 C   0  0  1  0  0  0  0  0  0  0  0  0
   43.2899   24.9900    0.1782 O   0  0  0  0  0  0  0  0  0  0  0  0
   43.2322   25.1012   -2.5198 C   0  0  0  0  0  0  0  0  0  0  0  0
   44.1077   26.3150   -2.4601 N   0  0  0  0  0  0  0  0  0  0  0  0
  1  2  1  6  0  0  0
  1  7  1  0  0  0  0
  1 30  1  0  0  0  0
  3  4  1  1  0  0  0
  3  9  1  0  0  0  0
  3 38  1  0  0  0  0
  5 10  1  0  0  0  0
  5 26  1  6  0  0  0
  5 32  1  0  0  0  0
  6 12  1  0  0  0  0
  6 35  1  0  0  0  0
  6 19  1  1  0  0  0
  7  8  1  6  0  0  0
  7 14  1  0  0  0  0
  8 33  1  0  0  0  0
  9 16  1  0  0  0  0
 10 11  1  6  0  0  0
 10 18  1  0  0  0  0
 12 13  1  1  0  0  0
 12 20  1  0  0  0  0
 14 15  1  6  0  0  0
 14 22  1  0  0  0  0
 16 17  1  1  0  0  0
 16 24  1  0  0  0  0
 18 19  1  6  0  0  0
 18 25  1  0  0  0  0
 20 21  1  6  0  0  0
 20 27  1  0  0  0  0
 22 23  1  6  0  0  0
 22 29  1  0  0  0  0
 24  2  1  6  0  0  0
 24 31  1  0  0  0  0
 25 26  1  1  0  0  0
 25 33  1  0  0  0  0
 27 28  1  1  0  0  0
 27 34  1  0  0  0  0
 29 30  1  0  0  0  0
 29 36  1  1  0  0  0
 31 32  1  1  0  0  0
 31 38  1  0  0  0  0
 34 35  1  0  0  0  0
 34 40  1  1  0  0  0
 36 37  1  0  0  0  0
 38 39  1  6  0  0  0
 40 41  1  0  0  0  0
M  END
>  <CHROM.1>
-47.40621065,122.31303460,179.57283523,-177.19049296,42.79457646,28.25141482
-0.76366945,0.85354484,-0.69027564,0.08125267

>  <Name>
ligand

>  <RI>
0

>  <Rbt.Current_Directory>
/home/itssahil/PROJECTS/Mol_Feturizer/New_Systems/rnas/1ZZ5

>  <Rbt.Executable>
rbdock ($Id: //depot/dev/client3/rdock/2013.1/src/exe/rbdock.cxx#4 $)

>  <Rbt.Library>
libRbt.so (2013.1, Build901 2013/11/27)

>  <Rbt.Parameter_File>
/export/apps/rDock/src/rDock_2013.1_src/data/scripts/dock_solv.prm

>  <Rbt.Receptor>
prm/blind_docking_100.prm

>  <SCORE>
57.7362

>  <SCORE.INTER>
4.61145

>  <SCORE.INTER.CONST>
1

>  <SCORE.INTER.POLAR>
0

>  <SCORE.INTER.ROT>
4

>  <SCORE.INTER.SOLV>
18.1954

>  <SCORE.INTER.VDW>
-9.2575

>  <SCORE.INTER.norm>
0.112474

>  <SCORE.INTRA>
23.0547

>  <SCORE.INTRA.DIHEDRAL>
2.8151

>  <SCORE.INTRA.DIHEDRAL.0>
5.18357

>  <SCORE.INTRA.POLAR>
0

>  <SCORE.INTRA.POLAR.0>
0

>  <SCORE.INTRA.REPUL>
0

>  <SCORE.INTRA.REPUL.0>
0

>  <SCORE.INTRA.SOLV>
9.93286

>  <SCORE.INTRA.SOLV.lig_0>
-109.973

>  <SCORE.INTRA.VDW>
16.6808

>  <SCORE.INTRA.VDW.0>
-1.68646

>  <SCORE.INTRA.norm>
0.562311

>  <SCORE.RESTR>
30.0701

>  <SCORE.RESTR.CAVITY>
30.0701

>  <SCORE.RESTR.norm>
0.733416

>  <SCORE.SYSTEM>
0

>  <SCORE.SYSTEM.CONST>
0

>  <SCORE.SYSTEM.DIHEDRAL>
0

>  <SCORE.SYSTEM.SOLV>
0

>  <SCORE.SYSTEM.norm>
0

>  <SCORE.heavy>
41

>  <SCORE.norm>
1.4082

>  <RMSD>
16.375

$$$$
ligand
 OpenBabel11021811423D
libRbt.so/2013.1/901 2013/11/27
 41 45  0  0  0  0  0  0  0  0999 V2000
   43.5231   30.5761    0.8955 C   0  0  2  0  0  0  0  0  0  0  0  0
   44.5901   29.7105    0.4609 O   0  0  0  0  0  0  0  0  0  0  0  0
   45.5335   25.4897    0.9216 C   0  0  2  0  0  0  0  0  0  0  0  0
   45.7350   24.1667    1.5669 N   0  0  0  0  0  0  0  0  0  0  0  0
   41.6563   27.4554   -1.0728 C   0  0  1  0  0  0  0  0  0  0  0  0
   39.8829   26.7354   -3.7228 C   0  0  1  0  0  0  0  0  0  0  0  0
   43.1160   31.5736   -0.2301 C   0  0  2  0  0  0  0  0  0  0  0  0
   42.7822   30.9063   -1.4920 N   0  0  0  0  0  0  0  0  0  0  0  0
   46.3812   26.5582    1.6816 C   0  0  0  0  0  0  0  0  0  0  0  0
   40.1444   27.7308   -0.9044 C   0  0  2  0  0  0  0  0  0  0  0  0
   39.3778   26.5222   -0.9192 O   0  0  0  0  0  0  0  0  0  0  0  0
   38.9065   25.4829   -3.7109 C   0  0  2  0  0  0  0  0  0  0  0  0
   38.2757   25.2136   -2.3825 N   0  0  0  0  0  0  0  0  0  0  0  0
   44.2468   32.6117   -0.4622 C   0  0  1  0  0  0  0  0  0  0  0  0
   43.8592   33.5382   -1.4733 O   0  0  0  0  0  0  0  0  0  0  0  0
   46.2038   27.9707    1.0528 C   0  0  2  0  0  0  0  0  0  0  0  0
   47.0403   28.9141    1.8183 N   0  0  0  0  0  0  0  0  0  0  0  0
   39.7921   28.6771   -2.0648 C   0  0  2  0  0  0  0  0  0  0  0  0
   39.2200   27.9536   -3.2262 O   0  0  0  0  0  0  0  0  0  0  0  0
   39.6868   24.1839   -4.2102 C   0  0  1  0  0  0  0  0  0  0  0  0
   40.0378   24.2894   -5.6076 O   0  0  0  0  0  0  0  0  0  0  0  0
   44.5585   33.3481    0.8613 C   0  0  2  0  0  0  0  0  0  0  0  0
   45.5745   34.3067    0.6538 O   0  0  0  0  0  0  0  0  0  0  0  0
   44.6864   28.3732    1.0534 C   0  0  2  0  0  0  0  0  0  0  0  0
   41.1217   29.3387   -2.4161 C   0  0  2  0  0  0  0  0  0  0  0  0
   42.1365   28.4414   -1.9883 O   0  0  0  0  0  0  0  0  0  0  0  0
   41.0042   23.9218   -3.3753 C   0  0  2  0  0  0  0  0  0  0  0  0
   40.6479   23.5648   -2.0291 O   0  0  0  0  0  0  0  0  0  0  0  0
   44.9811   32.3365    1.9452 C   0  0  2  0  0  0  0  0  0  0  0  0
   43.8938   31.3458    2.1060 O   0  0  0  0  0  0  0  0  0  0  0  0
   43.8385   27.2794    0.2304 C   0  0  2  0  0  0  0  0  0  0  0  0
   42.3800   27.5736    0.2134 O   0  0  0  0  0  0  0  0  0  0  0  0
   41.3497   30.6685   -1.7125 C   0  0  0  0  0  0  0  0  0  0  0  0
   41.9139   25.2166   -3.3888 C   0  0  1  0  0  0  0  0  0  0  0  0
   41.1513   26.4391   -2.9630 O   0  0  0  0  0  0  0  0  0  0  0  0
   45.2665   33.0815    3.2701 C   0  0  0  0  0  0  0  0  0  0  0  0
   46.4437   33.9690    3.2429 N   0  0  0  0  0  0  0  0  0  0  0  0
   44.0095   25.8945    0.8903 C   0  0  1  0  0  0  0  0  0  0  0  0
   43.2550   24.9217    0.1602 O   0  0  0  0  0  0  0  0  0  0  0  0
   43.2310   25.0635   -2.5349 C   0  0  0  0  0  0  0  0  0  0  0  0
   44.1044   26.2766   -2.4400 N   0  0  0  0  0  0  0  0  0  0  0  0
  1  2  1  6  0  0  0
  1  7  1  0  0  0  0
  1 30  1  0  0  0  0
  3  4  1  1  0  0  0
  3  9  1  0  0  0  0
  3 38  1  0  0  0  0
  5 10  1  0  0  0  0
  5 26  1  6  0  0  0
  5 32  1  0  0  0  0
  6 12  1  0  0  0  0
  6 35  1  0  0  0  0
  6 19  1  1  0  0  0
  7  8  1  6  0  0  0
  7 14  1  0  0  0  0
  8 33  1  0  0  0  0
  9 16  1  0  0  0  0
 10 11  1  6  0  0  0
 10 18  1  0  0  0  0
 12 13  1  1  0  0  0
 12 20  1  0  0  0  0
 14 15  1  6  0  0  0
 14 22  1  0  0  0  0
 16 17  1  1  0  0  0
 16 24  1  0  0  0  0
 18 19  1  6  0  0  0
 18 25  1  0  0  0  0
 20 21  1  6  0  0  0
 20 27  1  0  0  0  0
 22 23  1  6  0  0  0
 22 29  1  0  0  0  0
 24  2  1  6  0  0  0
 24 31  1  0  0  0  0
 25 26  1  1  0  0  0
 25 33  1  0  0  0  0
 27 28  1  1  0  0  0
 27 34  1  0  0  0  0
 29 30  1  0  0  0  0
 29 36  1  1  0  0  0
 31 32  1  1  0  0  0
 31 38  1  0  0  0  0
 34 35  1  0  0  0  0
 34 40  1  1  0  0  0
 36 37  1  0  0  0  0
 38 39  1  6  0  0  0
 40 41  1  0  0  0  0
M  END
>  <CHROM.1>
-47.39797513,122.35321186,-67.19144467,-176.73981524,42.79982323,28.23788878
-0.77663349,0.86918181,-0.68128610,0.08510442

>  <Name>
ligand

>  <RI>
0

>  <Rbt.Current_Directory>
/home/itssahil/PROJECTS/Mol_Feturizer/New_Systems/rnas/1ZZ5

>  <Rbt.Executable>
rbdock ($Id: //depot/dev/client3/rdock/2013.1/src/exe/rbdock.cxx#4 $)

>  <Rbt.Library>
libRbt.so (2013.1, Build901 2013/11/27)

>  <Rbt.Parameter_File>
/export/apps/rDock/src/rDock_2013.1_src/data/scripts/dock_solv.prm

>  <Rbt.Receptor>
prm/blind_docking_100.prm

>  <SCORE>
58.2012

>  <SCORE.INTER>
4.12982

>  <SCORE.INTER.CONST>
1

>  <SCORE.INTER.POLAR>
0

>  <SCORE.INTER.ROT>
4

>  <SCORE.INTER.SOLV>
16.5631

>  <SCORE.INTER.VDW>
-9.03449

>  <SCORE.INTER.norm>
0.100727

>  <SCORE.INTRA>
23.8832

>  <SCORE.INTRA.DIHEDRAL>
3.00819

>  <SCORE.INTRA.DIHEDRAL.0>
5.18357

>  <SCORE.INTRA.POLAR>
0

>  <SCORE.INTRA.POLAR.0>
0

>  <SCORE.INTRA.REPUL>
0

>  <SCORE.INTRA.REPUL.0>
0

>  <SCORE.INTRA.SOLV>
11.1604

>  <SCORE.INTRA.SOLV.lig_0>
-109.973

>  <SCORE.INTRA.VDW>
16.7988

>  <SCORE.INTRA.VDW.0>
-1.68646

>  <SCORE.INTRA.norm>
0.582516

>  <SCORE.RESTR>
30.1882

>  <SCORE.RESTR.CAVITY>
30.1882

>  <SCORE.RESTR.norm>
0.736298

>  <SCORE.SYSTEM>
0

>  <SCORE.SYSTEM.CONST>
0

>  <SCORE.SYSTEM.DIHEDRAL>
0

>  <SCORE.SYSTEM.SOLV>
0

>  <SCORE.SYSTEM.norm>
0

>  <SCORE.heavy>
41

>  <SCORE.norm>
1.41954

>  <RMSD>
16.401

$$$$
ligand
 OpenBabel11021811423D
libRbt.so/2013.1/901 2013/11/27
 41 45  0  0  0  0  0  0  0  0999 V2000
   43.5525   30.5681    0.9100 C   0  0  2  0  0  0  0  0  0  0  0  0
   44.6190   29.7160    0.4486 O   0  0  0  0  0  0  0  0  0  0  0  0
   45.6024   25.4979    0.8465 C   0  0  2  0  0  0  0  0  0  0  0  0
   45.8245   24.1694    1.4735 N   0  0  0  0  0  0  0  0  0  0  0  0
   41.6783   27.4549   -1.0631 C   0  0  1  0  0  0  0  0  0  0  0  0
   39.8651   26.7474   -3.6889 C   0  0  1  0  0  0  0  0  0  0  0  0
   43.1196   31.5749   -0.1976 C   0  0  2  0  0  0  0  0  0  0  0  0
   42.7706   30.9190   -1.4614 N   0  0  0  0  0  0  0  0  0  0  0  0
   46.4540   26.5646    1.6048 C   0  0  0  0  0  0  0  0  0  0  0  0
   40.1673   27.7164   -0.8674 C   0  0  2  0  0  0  0  0  0  0  0  0
   39.4099   26.5020   -0.8834 O   0  0  0  0  0  0  0  0  0  0  0  0
   38.8952   25.4900   -3.6736 C   0  0  2  0  0  0  0  0  0  0  0  0
   38.2859   25.2055   -2.3384 N   0  0  0  0  0  0  0  0  0  0  0  0
   44.2384   32.6245   -0.4360 C   0  0  1  0  0  0  0  0  0  0  0  0
   43.8274   33.5591   -1.4303 O   0  0  0  0  0  0  0  0  0  0  0  0
   46.2554   27.9825    0.9948 C   0  0  2  0  0  0  0  0  0  0  0  0
   47.0969   28.9240    1.7574 N   0  0  0  0  0  0  0  0  0  0  0  0
   39.7890   28.6728   -2.0112 C   0  0  2  0  0  0  0  0  0  0  0  0
   39.2039   27.9578   -3.1713 O   0  0  0  0  0  0  0  0  0  0  0  0
   39.6743   24.1995   -4.1964 C   0  0  1  0  0  0  0  0  0  0  0  0
   40.0036   24.3193   -5.5979 O   0  0  0  0  0  0  0  0  0  0  0  0
   44.5657   33.3485    0.8904 C   0  0  2  0  0  0  0  0  0  0  0  0
   45.5708   34.3173    0.6775 O   0  0  0  0  0  0  0  0  0  0  0  0
   44.7352   28.3729    1.0244 C   0  0  2  0  0  0  0  0  0  0  0  0
   41.1076   29.3488   -2.3763 C   0  0  2  0  0  0  0  0  0  0  0  0
   42.1361   28.4548   -1.9750 O   0  0  0  0  0  0  0  0  0  0  0  0
   41.0054   23.9365   -3.3838 C   0  0  2  0  0  0  0  0  0  0  0  0
   40.6712   23.5657   -2.0358 O   0  0  0  0  0  0  0  0  0  0  0  0
   45.0136   32.3283    1.9560 C   0  0  2  0  0  0  0  0  0  0  0  0
   43.9367   31.3273    2.1231 O   0  0  0  0  0  0  0  0  0  0  0  0
   43.8826   27.2817    0.2029 C   0  0  2  0  0  0  0  0  0  0  0  0
   42.4218   27.5645    0.2126 O   0  0  0  0  0  0  0  0  0  0  0  0
   41.3366   30.6724   -1.6615 C   0  0  0  0  0  0  0  0  0  0  0  0
   41.9084   25.2360   -3.3993 C   0  0  1  0  0  0  0  0  0  0  0  0
   41.1464   26.4508   -2.9510 O   0  0  0  0  0  0  0  0  0  0  0  0
   45.3145   33.0607    3.2844 C   0  0  0  0  0  0  0  0  0  0  0  0
   46.4821   33.9605    3.2473 N   0  0  0  0  0  0  0  0  0  0  0  0
   44.0750   25.8909    0.8443 C   0  0  1  0  0  0  0  0  0  0  0  0
   43.3164   24.9204    0.1155 O   0  0  0  0  0  0  0  0  0  0  0  0
   43.2390   25.0819   -2.5668 C   0  0  0  0  0  0  0  0  0  0  0  0
   44.1074   26.2986   -2.4734 N   0  0  0  0  0  0  0  0  0  0  0  0
  1  2  1  6  0  0  0
  1  7  1  0  0  0  0
  1 30  1  0  0  0  0
  3  4  1  1  0  0  0
  3  9  1  0  0  0  0
  3 38  1  0  0  0  0
  5 10  1  0  0  0  0
  5 26  1  6  0  0  0
  5 32  1  0  0  0  0
  6 12  1  0  0  0  0
  6 35  1  0  0  0  0
  6 19  1  1  0  0  0
  7  8  1  6  0  0  0
  7 14  1  0  0  0  0
  8 33  1  0  0  0  0
  9 16  1  0  0  0  0
 10 11  1  6  0  0  0
 10 18  1  0  0  0  0
 12 13  1  1  0  0  0
 12 20  1  0  0  0  0
 14 15  1  6  0  0  0
 14 22  1  0  0  0  0
 16 17  1  1  0  0  0
 16 24  1  0  0  0  0
 18 19  1  6  0  0  0
 18 25  1  0  0  0  0
 20 21  1  6  0  0  0
 20 27  1  0  0  0  0
 22 23  1  6  0  0  0
 22 29  1  0  0  0  0
 24  2  1  6  0  0  0
 24 31  1  0  0  0  0
 25 26  1  1  0  0  0
 25 33  1  0  0  0  0
 27 28  1  1  0  0  0
 27 34  1  0  0  0  0
 29 30  1  0  0  0  0
 29 36  1  1  0  0  0
 31 32  1  1  0  0  0
 31 38  1  0  0  0  0
 34 35  1  0  0  0  0
 34 40  1  1  0  0  0
 36 37  1  0  0  0  0
 38 39  1  6  0  0  0
 40 41  1  0  0  0  0
M  END
>  <CHROM.1>
-47.15921397,122.28426105,-67.03653474,-176.70851491,42.81827018,28.24185410
-0.77441579,0.87700610,-0.66375187,0.10058116

>  <Name>
ligand

>  <RI>
0

>  <Rbt.Current_Directory>
/home/itssahil/PROJECTS/Mol_Feturizer/New_Systems/rnas/1ZZ5

>  <Rbt.Executable>
rbdock ($Id: //depot/dev/client3/rdock/2013.1/src/exe/rbdock.cxx#4 $)

>  <Rbt.Library>
libRbt.so (2013.1, Build901 2013/11/27)

>  <Rbt.Parameter_File>
/export/apps/rDock/src/rDock_2013.1_src/data/scripts/dock_solv.prm

>  <Rbt.Receptor>
prm/blind_docking_100.prm

>  <SCORE>
58.1673

>  <SCORE.INTER>
3.87422

>  <SCORE.INTER.CONST>
1

>  <SCORE.INTER.POLAR>
0

>  <SCORE.INTER.ROT>
4

>  <SCORE.INTER.SOLV>
16.6523

>  <SCORE.INTER.VDW>
-9.23461

>  <SCORE.INTER.norm>
0.0944932

>  <SCORE.INTRA>
24.1272

>  <SCORE.INTRA.DIHEDRAL>
3.03002

>  <SCORE.INTRA.DIHEDRAL.0>
5.18357

>  <SCORE.INTRA.POLAR>
0

>  <SCORE.INTRA.POLAR.0>
0

>  <SCORE.INTRA.REPUL>
0

>  <SCORE.INTRA.REPUL.0>
0

>  <SCORE.INTRA.SOLV>
11.1972

>  <SCORE.INTRA.SOLV.lig_0>
-109.973

>  <SCORE.INTRA.VDW>
17.0136

>  <SCORE.INTRA.VDW.0>
-1.68646

>  <SCORE.INTRA.norm>
0.588468

>  <SCORE.RESTR>
30.1659

>  <SCORE.RESTR.CAVITY>
30.1659

>  <SCORE.RESTR.norm>
0.735754

>  <SCORE.SYSTEM>
0

>  <SCORE.SYSTEM.CONST>
0

>  <SCORE.SYSTEM.DIHEDRAL>
0

>  <SCORE.SYSTEM.SOLV>
0

>  <SCORE.SYSTEM.norm>
0

>  <SCORE.heavy>
41

>  <SCORE.norm>
1.41871

>  <RMSD>
16.410

$$$$
ligand
 OpenBabel11021811423D
libRbt.so/2013.1/901 2013/11/27
 41 45  0  0  0  0  0  0  0  0999 V2000
   43.5275   30.5455    0.9036 C   0  0  2  0  0  0  0  0  0  0  0  0
   44.5976   29.6958    0.4460 O   0  0  0  0  0  0  0  0  0  0  0  0
   45.5921   25.4811    0.8521 C   0  0  2  0  0  0  0  0  0  0  0  0
   45.8166   24.1542    1.4815 N   0  0  0  0  0  0  0  0  0  0  0  0
   41.6671   27.4242   -1.0697 C   0  0  1  0  0  0  0  0  0  0  0  0
   39.8619   26.7075   -3.6985 C   0  0  1  0  0  0  0  0  0  0  0  0
   43.0943   31.5495   -0.2064 C   0  0  2  0  0  0  0  0  0  0  0  0
   42.7503   30.8909   -1.4702 N   0  0  0  0  0  0  0  0  0  0  0  0
   46.4388   26.5513    1.6110 C   0  0  0  0  0  0  0  0  0  0  0  0
   40.1549   27.6816   -0.8780 C   0  0  2  0  0  0  0  0  0  0  0  0
   39.4010   26.4650   -0.8942 O   0  0  0  0  0  0  0  0  0  0  0  0
   38.8921   25.4499   -3.6930 C   0  0  2  0  0  0  0  0  0  0  0  0
   38.2720   25.1633   -2.3633 N   0  0  0  0  0  0  0  0  0  0  0  0
   44.2107   32.6020   -0.4436 C   0  0  1  0  0  0  0  0  0  0  0  0
   43.7994   33.5340   -1.4402 O   0  0  0  0  0  0  0  0  0  0  0  0
   46.2377   27.9679    0.9985 C   0  0  2  0  0  0  0  0  0  0  0  0
   47.0746   28.9128    1.7618 N   0  0  0  0  0  0  0  0  0  0  0  0
   39.7765   28.6353   -2.0240 C   0  0  2  0  0  0  0  0  0  0  0  0
   39.1963   27.9170   -3.1846 O   0  0  0  0  0  0  0  0  0  0  0  0
   39.6757   24.1603   -4.2113 C   0  0  1  0  0  0  0  0  0  0  0  0
   40.0164   24.2822   -5.6099 O   0  0  0  0  0  0  0  0  0  0  0  0
   44.5327   33.3288    0.8826 C   0  0  2  0  0  0  0  0  0  0  0  0
   45.5355   34.3002    0.6707 O   0  0  0  0  0  0  0  0  0  0  0  0
   44.7163   28.3539    1.0239 C   0  0  2  0  0  0  0  0  0  0  0  0
   41.0940   29.3146   -2.3869 C   0  0  2  0  0  0  0  0  0  0  0  0
   42.1241   28.4241   -1.9819 O   0  0  0  0  0  0  0  0  0  0  0  0
   41.0002   23.8963   -3.3883 C   0  0  2  0  0  0  0  0  0  0  0  0
   40.6550   23.5234   -2.0435 O   0  0  0  0  0  0  0  0  0  0  0  0
   44.9809   32.3114    1.9506 C   0  0  2  0  0  0  0  0  0  0  0  0
   43.9065   31.3075    2.1165 O   0  0  0  0  0  0  0  0  0  0  0  0
   43.8688   27.2591    0.2018 C   0  0  2  0  0  0  0  0  0  0  0  0
   42.4072   27.5377    0.2076 O   0  0  0  0  0  0  0  0  0  0  0  0
   41.3175   30.6399   -1.6734 C   0  0  0  0  0  0  0  0  0  0  0  0
   41.9030   25.1960   -3.3944 C   0  0  1  0  0  0  0  0  0  0  0  0
   41.1372   26.4099   -2.9506 O   0  0  0  0  0  0  0  0  0  0  0  0
   45.2766   33.0465    3.2788 C   0  0  0  0  0  0  0  0  0  0  0  0
   46.4228   33.9730    3.2344 N   0  0  0  0  0  0  0  0  0  0  0  0
   44.0636   25.8698    0.8456 C   0  0  1  0  0  0  0  0  0  0  0  0
   43.3096   24.8960    0.1163 O   0  0  0  0  0  0  0  0  0  0  0  0
   43.2268   25.0408   -2.5513 C   0  0  0  0  0  0  0  0  0  0  0  0
   44.1023   26.2528   -2.4627 N   0  0  0  0  0  0  0  0  0  0  0  0
  1  2  1  6  0  0  0
  1  7  1  0  0  0  0
  1 30  1  0  0  0  0
  3  4  1  1  0  0  0
  3  9  1  0  0  0  0
  3 38  1  0  0  0  0
  5 10  1  0  0  0  0
  5 26  1  6  0  0  0
  5 32  1  0  0  0  0
  6 12  1  0  0  0  0
  6 35  1  0  0  0  0
  6 19  1  1  0  0  0
  7  8  1  6  0  0  0
  7 14  1  0  0  0  0
  8 33  1  0  0  0  0
  9 16  1  0  0  0  0
 10 11  1  6  0  0  0
 10 18  1  0  0  0  0
 12 13  1  1  0  0  0
 12 20  1  0  0  0  0
 14 15  1  6  0  0  0
 14 22  1  0  0  0  0
 16 17  1  1  0  0  0
 16 24  1  0  0  0  0
 18 19  1  6  0  0  0
 18 25  1  0  0  0  0
 20 21  1  6  0  0  0
 20 27  1  0  0  0  0
 22 23  1  6  0  0  0
 22 29  1  0  0  0  0
 24  2  1  6  0  0  0
 24 31  1  0  0  0  0
 25 26  1  1  0  0  0
 25 33  1  0  0  0  0
 27 28  1  1  0  0  0
 27 34  1  0  0  0  0
 29 30  1  0  0  0  0
 29 36  1  1  0  0  0
 31 32  1  1  0  0  0
 31 38  1  0  0  0  0
 34 35  1  0  0  0  0
 34 40  1  1  0  0  0
 36 37  1  0  0  0  0
 38 39  1  6  0  0  0
 40 41  1  0  0  0  0
M  END
>  <CHROM.1>
-47.13270369,122.67078920,-65.69578316,-177.41468830,42.80190797,28.21419042
-0.77960244,0.88121600,-0.66574406,0.10151475

>  <Name>
ligand

>  <RI>
0

>  <Rbt.Current_Directory>
/home/itssahil/PROJECTS/Mol_Feturizer/New_Systems/rnas/1ZZ5

>  <Rbt.Executable>
rbdock ($Id: //depot/dev/client3/rdock/2013.1/src/exe/rbdock.cxx#4 $)

>  <Rbt.Library>
libRbt.so (2013.1, Build901 2013/11/27)

>  <Rbt.Parameter_File>
/export/apps/rDock/src/rDock_2013.1_src/data/scripts/dock_solv.prm

>  <Rbt.Receptor>
prm/blind_docking_100.prm

>  <SCORE>
57.8986

>  <SCORE.INTER>
3.54959

>  <SCORE.INTER.CONST>
1

>  <SCORE.INTER.POLAR>
0

>  <SCORE.INTER.ROT>
4

>  <SCORE.INTER.SOLV>
16.4021

>  <SCORE.INTER.VDW>
-9.36764

>  <SCORE.INTER.norm>
0.0865754

>  <SCORE.INTRA>
24.107

>  <SCORE.INTRA.DIHEDRAL>
2.95027

>  <SCORE.INTRA.DIHEDRAL.0>
5.18357

>  <SCORE.INTRA.POLAR>
0

>  <SCORE.INTRA.POLAR.0>
0

>  <SCORE.INTRA.REPUL>
0

>  <SCORE.INTRA.REPUL.0>
0

>  <SCORE.INTRA.SOLV>
11.2025

>  <SCORE.INTRA.SOLV.lig_0>
-109.973

>  <SCORE.INTRA.VDW>
17.0306

>  <SCORE.INTRA.VDW.0>
-1.68646

>  <SCORE.INTRA.norm>
0.587975

>  <SCORE.RESTR>
30.242

>  <SCORE.RESTR.CAVITY>
30.242

>  <SCORE.RESTR.norm>
0.73761

>  <SCORE.SYSTEM>
0

>  <SCORE.SYSTEM.CONST>
0

>  <SCORE.SYSTEM.DIHEDRAL>
0

>  <SCORE.SYSTEM.SOLV>
0

>  <SCORE.SYSTEM.norm>
0

>  <SCORE.heavy>
41

>  <SCORE.norm>
1.41216

>  <RMSD>
16.425

$$$$
ligand
 OpenBabel11021811423D
libRbt.so/2013.1/901 2013/11/27
 41 45  0  0  0  0  0  0  0  0999 V2000
   44.0019   30.6985    1.4275 C   0  0  2  0  0  0  0  0  0  0  0  0
   44.9301   30.3636    0.3774 O   0  0  0  0  0  0  0  0  0  0  0  0
   47.2502   26.8447   -0.6963 C   0  0  2  0  0  0  0  0  0  0  0  0
   48.1455   25.6672   -0.5575 N   0  0  0  0  0  0  0  0  0  0  0  0
   42.5020   27.2479   -0.2875 C   0  0  1  0  0  0  0  0  0  0  0  0
   39.9219   26.4245   -2.2562 C   0  0  1  0  0  0  0  0  0  0  0  0
   42.8070   31.5321    0.8754 C   0  0  2  0  0  0  0  0  0  0  0  0
   42.1285   30.8825   -0.2501 N   0  0  0  0  0  0  0  0  0  0  0  0
   47.9755   28.1028   -0.1226 C   0  0  0  0  0  0  0  0  0  0  0  0
   41.2673   26.8858    0.5693 C   0  0  2  0  0  0  0  0  0  0  0  0
   41.0162   25.4767    0.5735 O   0  0  0  0  0  0  0  0  0  0  0  0
   39.0045   25.3640   -3.0017 C   0  0  2  0  0  0  0  0  0  0  0  0
   38.6144   24.1938   -2.1570 N   0  0  0  0  0  0  0  0  0  0  0  0
   43.2875   32.9485    0.4591 C   0  0  1  0  0  0  0  0  0  0  0  0
   42.1866   33.7165   -0.0199 O   0  0  0  0  0  0  0  0  0  0  0  0
   47.0797   29.3705   -0.2345 C   0  0  2  0  0  0  0  0  0  0  0  0
   47.8379   30.5094    0.3169 N   0  0  0  0  0  0  0  0  0  0  0  0
   40.1160   27.6970   -0.0492 C   0  0  2  0  0  0  0  0  0  0  0  0
   39.3104   26.8939   -1.0008 O   0  0  0  0  0  0  0  0  0  0  0  0
   39.7340   24.8536   -4.3257 C   0  0  1  0  0  0  0  0  0  0  0  0
   39.8424   25.9110   -5.3040 O   0  0  0  0  0  0  0  0  0  0  0  0
   43.9562   33.6479    1.6651 C   0  0  2  0  0  0  0  0  0  0  0  0
   44.3804   34.9440    1.2985 O   0  0  0  0  0  0  0  0  0  0  0  0
   45.7185   29.1350    0.5112 C   0  0  2  0  0  0  0  0  0  0  0  0
   40.8184   28.8570   -0.7493 C   0  0  2  0  0  0  0  0  0  0  0  0
   42.1355   28.4083   -1.0357 O   0  0  0  0  0  0  0  0  0  0  0  0
   41.1807   24.2875   -4.0290 C   0  0  2  0  0  0  0  0  0  0  0  0
   41.0670   23.0793   -3.2584 O   0  0  0  0  0  0  0  0  0  0  0  0
   45.1479   32.8106    2.1709 C   0  0  2  0  0  0  0  0  0  0  0  0
   44.6530   31.4602    2.5190 O   0  0  0  0  0  0  0  0  0  0  0  0
   44.9702   27.8584   -0.1236 C   0  0  2  0  0  0  0  0  0  0  0  0
   43.6824   27.5486    0.5543 O   0  0  0  0  0  0  0  0  0  0  0  0
   40.9297   30.1117    0.1044 C   0  0  0  0  0  0  0  0  0  0  0  0
   42.0307   25.3708   -3.2491 C   0  0  1  0  0  0  0  0  0  0  0  0
   41.3090   25.8767   -2.0324 O   0  0  0  0  0  0  0  0  0  0  0  0
   45.7932   33.5073    3.3915 C   0  0  0  0  0  0  0  0  0  0  0  0
   46.5403   34.7399    3.0804 N   0  0  0  0  0  0  0  0  0  0  0  0
   45.8673   26.6111    0.0251 C   0  0  1  0  0  0  0  0  0  0  0  0
   45.2024   25.4754   -0.5378 O   0  0  0  0  0  0  0  0  0  0  0  0
   43.4766   24.8719   -2.8646 C   0  0  0  0  0  0  0  0  0  0  0  0
   44.4856   24.8475   -3.9712 N   0  0  0  0  0  0  0  0  0  0  0  0
  1  2  1  6  0  0  0
  1  7  1  0  0  0  0
  1 30  1  0  0  0  0
  3  4  1  1  0  0  0
  3  9  1  0  0  0  0
  3 38  1  0  0  0  0
  5 10  1  0  0  0  0
  5 26  1  1  0  0  0
  5 32  1  0  0  0  0
  6 12  1  0  0  0  0
  6 35  1  0  0  0  0
  6 19  1  1  0  0  0
  7  8  1  6  0  0  0
  7 14  1  0  0  0  0
  8 33  1  0  0  0  0
  9 16  1  0  0  0  0
 10 11  1  6  0  0  0
 10 18  1  0  0  0  0
 12 13  1  1  0  0  0
 12 20  1  0  0  0  0
 14 15  1  1  0  0  0
 14 22  1  0  0  0  0
 16 17  1  1  0  0  0
 16 24  1  0  0  0  0
 18 19  1  6  0  0  0
 18 25  1  0  0  0  0
 20 21  1  6  0  0  0
 20 27  1  0  0  0  0
 22 23  1  6  0  0  0
 22 29  1  0  0  0  0
 24  2  1  6  0  0  0
 24 31  1  0  0  0  0
 25 26  1  1  0  0  0
 25 33  1  0  0  0  0
 27 28  1  1  0  0  0
 27 34  1  0  0  0  0
 29 30  1  0  0  0  0
 29 36  1  1  0  0  0
 31 32  1  1  0  0  0
 31 38  1  0  0  0  0
 34 35  1  0  0  0  0
 34 40  1  1  0  0  0
 36 37  1  0  0  0  0
 38 39  1  6  0  0  0
 40 41  1  0  0  0  0
M  END
>  <CHROM.1>
-66.32092743,169.16231814,-71.31809269,76.74916648,43.20407296,28.41172811
-0.54421794,1.10128777,-0.18169983,0.44019840

>  <Name>
ligand

>  <RI>
0

>  <Rbt.Current_Directory>
/home/itssahil/PROJECTS/Mol_Feturizer/New_Systems/rnas/1ZZ5

>  <Rbt.Executable>
rbdock ($Id: //depot/dev/client3/rdock/2013.1/src/exe/rbdock.cxx#4 $)

>  <Rbt.Library>
libRbt.so (2013.1, Build901 2013/11/27)

>  <Rbt.Parameter_File>
/export/apps/rDock/src/rDock_2013.1_src/data/scripts/dock_solv.prm

>  <Rbt.Receptor>
prm/blind_docking_100.prm

>  <SCORE>
43.9929

>  <SCORE.INTER>
6.86406

>  <SCORE.INTER.CONST>
1

>  <SCORE.INTER.POLAR>
0

>  <SCORE.INTER.ROT>
4

>  <SCORE.INTER.SOLV>
18.521

>  <SCORE.INTER.VDW>
-7.86429

>  <SCORE.INTER.norm>
0.167416

>  <SCORE.INTRA>
1.08291

>  <SCORE.INTRA.DIHEDRAL>
-2.86884

>  <SCORE.INTRA.DIHEDRAL.0>
5.18357

>  <SCORE.INTRA.POLAR>
0

>  <SCORE.INTRA.POLAR.0>
0

>  <SCORE.INTRA.REPUL>
0

>  <SCORE.INTRA.REPUL.0>
0

>  <SCORE.INTRA.SOLV>
2.13772

>  <SCORE.INTRA.SOLV.lig_0>
-109.973

>  <SCORE.INTRA.VDW>
1.44847

>  <SCORE.INTRA.VDW.0>
-1.68646

>  <SCORE.INTRA.norm>
0.0264125

>  <SCORE.RESTR>
36.0459

>  <SCORE.RESTR.CAVITY>
36.0459

>  <SCORE.RESTR.norm>
0.879169

>  <SCORE.SYSTEM>
0

>  <SCORE.SYSTEM.CONST>
0

>  <SCORE.SYSTEM.DIHEDRAL>
0

>  <SCORE.SYSTEM.SOLV>
0

>  <SCORE.SYSTEM.norm>
0

>  <SCORE.heavy>
41

>  <SCORE.norm>
1.073

>  <RMSD>
16.483

$$$$
ligand
 OpenBabel11021811423D
libRbt.so/2013.1/901 2013/11/27
 41 45  0  0  0  0  0  0  0  0999 V2000
   43.9064   30.6031    1.2709 C   0  0  2  0  0  0  0  0  0  0  0  0
   44.8853   30.1315    0.3244 O   0  0  0  0  0  0  0  0  0  0  0  0
   46.9966   26.3871   -0.3383 C   0  0  2  0  0  0  0  0  0  0  0  0
   47.7819   25.1582   -0.0547 N   0  0  0  0  0  0  0  0  0  0  0  0
   42.2779   27.1673   -0.3543 C   0  0  1  0  0  0  0  0  0  0  0  0
   39.8019   26.4197   -2.4865 C   0  0  1  0  0  0  0  0  0  0  0  0
   42.8287   31.4847    0.5716 C   0  0  2  0  0  0  0  0  0  0  0  0
   42.1920   30.8142   -0.5660 N   0  0  0  0  0  0  0  0  0  0  0  0
   47.7717   27.6231    0.2179 C   0  0  0  0  0  0  0  0  0  0  0  0
   40.9545   26.9553    0.4160 C   0  0  2  0  0  0  0  0  0  0  0  0
   40.5928   25.5721    0.4834 O   0  0  0  0  0  0  0  0  0  0  0  0
   38.9962   25.1818   -3.0700 C   0  0  2  0  0  0  0  0  0  0  0  0
   38.7072   24.1133   -2.0651 N   0  0  0  0  0  0  0  0  0  0  0  0
   43.4515   32.8309    0.1130 C   0  0  1  0  0  0  0  0  0  0  0  0
   42.4563   33.6450   -0.5018 O   0  0  0  0  0  0  0  0  0  0  0  0
   46.9909   28.9436   -0.0444 C   0  0  2  0  0  0  0  0  0  0  0  0
   47.7911   30.0570    0.4995 N   0  0  0  0  0  0  0  0  0  0  0  0
   39.9237   27.8070   -0.3445 C   0  0  2  0  0  0  0  0  0  0  0  0
   39.1347   27.0046   -1.3105 O   0  0  0  0  0  0  0  0  0  0  0  0
   39.7855   24.5577   -4.3082 C   0  0  1  0  0  0  0  0  0  0  0  0
   39.8062   25.4694   -5.4286 O   0  0  0  0  0  0  0  0  0  0  0  0
   44.0761   33.5570    1.3269 C   0  0  2  0  0  0  0  0  0  0  0  0
   44.6294   34.7910    0.9202 O   0  0  0  0  0  0  0  0  0  0  0  0
   45.5606   28.8594    0.5971 C   0  0  2  0  0  0  0  0  0  0  0  0
   40.7690   28.8628   -1.0513 C   0  0  2  0  0  0  0  0  0  0  0  0
   42.0649   28.2998   -1.1988 O   0  0  0  0  0  0  0  0  0  0  0  0
   41.2752   24.1784   -3.9359 C   0  0  2  0  0  0  0  0  0  0  0  0
   41.2657   23.0880   -2.9993 O   0  0  0  0  0  0  0  0  0  0  0  0
   45.1539   32.6690    1.9801 C   0  0  2  0  0  0  0  0  0  0  0  0
   44.5275   31.3850    2.3656 O   0  0  0  0  0  0  0  0  0  0  0  0
   44.7660   27.6027   -0.0207 C   0  0  2  0  0  0  0  0  0  0  0  0
   43.4081   27.4347    0.5640 O   0  0  0  0  0  0  0  0  0  0  0  0
   40.9116   30.1595   -0.2679 C   0  0  0  0  0  0  0  0  0  0  0  0
   42.0112   25.4375   -3.3216 C   0  0  1  0  0  0  0  0  0  0  0  0
   41.2313   26.0425   -2.1889 O   0  0  0  0  0  0  0  0  0  0  0  0
   45.7539   33.3951    3.2066 C   0  0  0  0  0  0  0  0  0  0  0  0
   44.7999   33.6620    4.2989 N   0  0  0  0  0  0  0  0  0  0  0  0
   45.5468   26.3048    0.2771 C   0  0  1  0  0  0  0  0  0  0  0  0
   44.8405   25.1869   -0.2706 O   0  0  0  0  0  0  0  0  0  0  0  0
   43.4928   25.1370   -2.8720 C   0  0  0  0  0  0  0  0  0  0  0  0
   44.4961   24.9613   -3.9701 N   0  0  0  0  0  0  0  0  0  0  0  0
  1  2  1  6  0  0  0
  1  7  1  0  0  0  0
  1 30  1  0  0  0  0
  3  4  1  1  0  0  0
  3  9  1  0  0  0  0
  3 38  1  0  0  0  0
  5 10  1  0  0  0  0
  5 26  1  6  0  0  0
  5 32  1  0  0  0  0
  6 12  1  0  0  0  0
  6 35  1  0  0  0  0
  6 19  1  1  0  0  0
  7  8  1  6  0  0  0
  7 14  1  0  0  0  0
  8 33  1  0  0  0  0
  9 16  1  0  0  0  0
 10 11  1  6  0  0  0
 10 18  1  0  0  0  0
 12 13  1  1  0  0  0
 12 20  1  0  0  0  0
 14 15  1  1  0  0  0
 14 22  1  0  0  0  0
 16 17  1  1  0  0  0
 16 24  1  0  0  0  0
 18 19  1  6  0  0  0
 18 25  1  0  0  0  0
 20 21  1  6  0  0  0
 20 27  1  0  0  0  0
 22 23  1  6  0  0  0
 22 29  1  0  0  0  0
 24  2  1  6  0  0  0
 24 31  1  0  0  0  0
 25 26  1  1  0  0  0
 25 33  1  0  0  0  0
 27 28  1  1  0  0  0
 27 34  1  0  0  0  0
 29 30  1  0  0  0  0
 29 36  1  1  0  0  0
 31 32  1  1  0  0  0
 31 38  1  0  0  0  0
 34 35  1  0  0  0  0
 34 40  1  1  0  0  0
 36 37  1  0  0  0  0
 38 39  1  6  0  0  0
 40 41  1  0  0  0  0
M  END
>  <CHROM.1>
-66.88886998,157.75261350,63.22619405,72.93094613,43.09039099,28.26514747
-0.57897147,1.09989313,-0.27203410,0.40832287

>  <Name>
ligand

>  <RI>
0

>  <Rbt.Current_Directory>
/home/itssahil/PROJECTS/Mol_Feturizer/New_Systems/rnas/1ZZ5

>  <Rbt.Executable>
rbdock ($Id: //depot/dev/client3/rdock/2013.1/src/exe/rbdock.cxx#4 $)

>  <Rbt.Library>
libRbt.so (2013.1, Build901 2013/11/27)

>  <Rbt.Parameter_File>
/export/apps/rDock/src/rDock_2013.1_src/data/scripts/dock_solv.prm

>  <Rbt.Receptor>
prm/blind_docking_100.prm

>  <SCORE>
46.7636

>  <SCORE.INTER>
7.76745

>  <SCORE.INTER.CONST>
1

>  <SCORE.INTER.POLAR>
0

>  <SCORE.INTER.ROT>
4

>  <SCORE.INTER.SOLV>
18.4842

>  <SCORE.INTER.VDW>
-7.24976

>  <SCORE.INTER.norm>
0.18945

>  <SCORE.INTRA>
3.97011

>  <SCORE.INTRA.DIHEDRAL>
-2.02168

>  <SCORE.INTRA.DIHEDRAL.0>
5.18357

>  <SCORE.INTRA.POLAR>
0

>  <SCORE.INTRA.POLAR.0>
0

>  <SCORE.INTRA.REPUL>
0

>  <SCORE.INTRA.REPUL.0>
0

>  <SCORE.INTRA.SOLV>
2.87009

>  <SCORE.INTRA.SOLV.lig_0>
-109.973

>  <SCORE.INTRA.VDW>
3.54591

>  <SCORE.INTRA.VDW.0>
-1.68646

>  <SCORE.INTRA.norm>
0.0968321

>  <SCORE.RESTR>
35.026

>  <SCORE.RESTR.CAVITY>
35.026

>  <SCORE.RESTR.norm>
0.854293

>  <SCORE.SYSTEM>
0

>  <SCORE.SYSTEM.CONST>
0

>  <SCORE.SYSTEM.DIHEDRAL>
0

>  <SCORE.SYSTEM.SOLV>
0

>  <SCORE.SYSTEM.norm>
0

>  <SCORE.heavy>
41

>  <SCORE.norm>
1.14058

>  <RMSD>
16.492

$$$$
ligand
 OpenBabel11021811423D
libRbt.so/2013.1/901 2013/11/27
 41 45  0  0  0  0  0  0  0  0999 V2000
   43.8576   30.5374    1.2860 C   0  0  2  0  0  0  0  0  0  0  0  0
   44.8385   30.0631    0.3429 O   0  0  0  0  0  0  0  0  0  0  0  0
   46.9407   26.3124   -0.3132 C   0  0  2  0  0  0  0  0  0  0  0  0
   47.7211   25.0810   -0.0270 N   0  0  0  0  0  0  0  0  0  0  0  0
   42.2246   27.1072   -0.3466 C   0  0  1  0  0  0  0  0  0  0  0  0
   39.7429   26.4128   -2.5159 C   0  0  1  0  0  0  0  0  0  0  0  0
   42.7853   31.4226    0.5829 C   0  0  2  0  0  0  0  0  0  0  0  0
   42.1508   30.7544   -0.5573 N   0  0  0  0  0  0  0  0  0  0  0  0
   47.7176   27.5458    0.2464 C   0  0  0  0  0  0  0  0  0  0  0  0
   40.8976   26.8991    0.4187 C   0  0  2  0  0  0  0  0  0  0  0  0
   40.5314   25.5170    0.4842 O   0  0  0  0  0  0  0  0  0  0  0  0
   38.8700   25.2827   -3.2110 C   0  0  2  0  0  0  0  0  0  0  0  0
   38.4786   24.1657   -2.2977 N   0  0  0  0  0  0  0  0  0  0  0  0
   43.4139   32.7670    0.1272 C   0  0  1  0  0  0  0  0  0  0  0  0
   42.4236   33.5844   -0.4910 O   0  0  0  0  0  0  0  0  0  0  0  0
   46.9418   28.8688   -0.0184 C   0  0  2  0  0  0  0  0  0  0  0  0
   47.7434   29.9795    0.5290 N   0  0  0  0  0  0  0  0  0  0  0  0
   39.8723   27.7542   -0.3453 C   0  0  2  0  0  0  0  0  0  0  0  0
   39.0845   26.9546   -1.3146 O   0  0  0  0  0  0  0  0  0  0  0  0
   39.6493   24.6978   -4.4744 C   0  0  1  0  0  0  0  0  0  0  0  0
   39.7656   25.6866   -5.5211 O   0  0  0  0  0  0  0  0  0  0  0  0
   44.0363   33.4907    1.3437 C   0  0  2  0  0  0  0  0  0  0  0  0
   44.5949   34.7231    0.9396 O   0  0  0  0  0  0  0  0  0  0  0  0
   45.5089   28.7888    0.6178 C   0  0  2  0  0  0  0  0  0  0  0  0
   40.7236   28.8076   -1.0486 C   0  0  2  0  0  0  0  0  0  0  0  0
   42.0182   28.2406   -1.1914 O   0  0  0  0  0  0  0  0  0  0  0  0
   41.0976   24.1861   -4.0975 C   0  0  2  0  0  0  0  0  0  0  0  0
   40.9853   23.0323   -3.2475 O   0  0  0  0  0  0  0  0  0  0  0  0
   45.1088   32.5991    2.0006 C   0  0  2  0  0  0  0  0  0  0  0  0
   44.4770   31.3169    2.3833 O   0  0  0  0  0  0  0  0  0  0  0  0
   44.7127   27.5348   -0.0034 C   0  0  2  0  0  0  0  0  0  0  0  0
   43.3521   27.3708    0.5761 O   0  0  0  0  0  0  0  0  0  0  0  0
   40.8672   30.1036   -0.2642 C   0  0  0  0  0  0  0  0  0  0  0  0
   41.9015   25.3399   -3.3717 C   0  0  1  0  0  0  0  0  0  0  0  0
   41.1334   25.9130   -2.2146 O   0  0  0  0  0  0  0  0  0  0  0  0
   45.7065   33.3229    3.2296 C   0  0  0  0  0  0  0  0  0  0  0  0
   46.5209   34.5114    2.9157 N   0  0  0  0  0  0  0  0  0  0  0  0
   45.4884   26.2344    0.2968 C   0  0  1  0  0  0  0  0  0  0  0  0
   44.7807   25.1188   -0.2540 O   0  0  0  0  0  0  0  0  0  0  0  0
   43.3450   24.9014   -2.9119 C   0  0  0  0  0  0  0  0  0  0  0  0
   44.2789   26.0042   -2.5180 N   0  0  0  0  0  0  0  0  0  0  0  0
  1  2  1  6  0  0  0
  1  7  1  0  0  0  0
  1 30  1  0  0  0  0
  3  4  1  1  0  0  0
  3  9  1  0  0  0  0
  3 38  1  0  0  0  0
  5 10  1  0  0  0  0
  5 26  1  6  0  0  0
  5 32  1  0  0  0  0
  6 12  1  0  0  0  0
  6 35  1  0  0  0  0
  6 19  1  1  0  0  0
  7  8  1  6  0  0  0
  7 14  1  0  0  0  0
  8 33  1  0  0  0  0
  9 16  1  0  0  0  0
 10 11  1  6  0  0  0
 10 18  1  0  0  0  0
 12 13  1  1  0  0  0
 12 20  1  0  0  0  0
 14 15  1  1  0  0  0
 14 22  1  0  0  0  0
 16 17  1  1  0  0  0
 16 24  1  0  0  0  0
 18 19  1  6  0  0  0
 18 25  1  0  0  0  0
 20 21  1  6  0  0  0
 20 27  1  0  0  0  0
 22 23  1  6  0  0  0
 22 29  1  0  0  0  0
 24  2  1  6  0  0  0
 24 31  1  0  0  0  0
 25 26  1  1  0  0  0
 25 33  1  0  0  0  0
 27 28  1  1  0  0  0
 27 34  1  0  0  0  0
 29 30  1  0  0  0  0
 29 36  1  1  0  0  0
 31 32  1  1  0  0  0
 31 38  1  0  0  0  0
 34 35  1  0  0  0  0
 34 40  1  1  0  0  0
 36 37  1  0  0  0  0
 38 39  1  6  0  0  0
 40 41  1  0  0  0  0
M  END
>  <CHROM.1>
-69.29459391,164.49898648,-68.38351761,165.98072220,43.05762582,28.26446853
-0.59619046,1.04256313,-0.30550592,0.36130458

>  <Name>
ligand

>  <RI>
0

>  <Rbt.Current_Directory>
/home/itssahil/PROJECTS/Mol_Feturizer/New_Systems/rnas/1ZZ5

>  <Rbt.Executable>
rbdock ($Id: //depot/dev/client3/rdock/2013.1/src/exe/rbdock.cxx#4 $)

>  <Rbt.Library>
libRbt.so (2013.1, Build901 2013/11/27)

>  <Rbt.Parameter_File>
/export/apps/rDock/src/rDock_2013.1_src/data/scripts/dock_solv.prm

>  <Rbt.Receptor>
prm/blind_docking_100.prm

>  <SCORE>
47.1454

>  <SCORE.INTER>
8.31931

>  <SCORE.INTER.CONST>
1

>  <SCORE.INTER.POLAR>
0

>  <SCORE.INTER.ROT>
4

>  <SCORE.INTER.SOLV>
17.1467

>  <SCORE.INTER.VDW>
-6.43602

>  <SCORE.INTER.norm>
0.20291

>  <SCORE.INTRA>
4.79068

>  <SCORE.INTRA.DIHEDRAL>
-2.51039

>  <SCORE.INTRA.DIHEDRAL.0>
5.18357

>  <SCORE.INTRA.POLAR>
0

>  <SCORE.INTRA.POLAR.0>
0

>  <SCORE.INTRA.REPUL>
0

>  <SCORE.INTRA.REPUL.0>
0

>  <SCORE.INTRA.SOLV>
7.75581

>  <SCORE.INTRA.SOLV.lig_0>
-109.973

>  <SCORE.INTRA.VDW>
2.16797

>  <SCORE.INTRA.VDW.0>
-1.68646

>  <SCORE.INTRA.norm>
0.116846

>  <SCORE.RESTR>
34.0354

>  <SCORE.RESTR.CAVITY>
34.0354

>  <SCORE.RESTR.norm>
0.830133

>  <SCORE.SYSTEM>
0

>  <SCORE.SYSTEM.CONST>
0

>  <SCORE.SYSTEM.DIHEDRAL>
0

>  <SCORE.SYSTEM.SOLV>
0

>  <SCORE.SYSTEM.norm>
0

>  <SCORE.heavy>
41

>  <SCORE.norm>
1.14989

>  <RMSD>
16.506

$$$$
ligand
 OpenBabel11021811423D
libRbt.so/2013.1/901 2013/11/27
 41 45  0  0  0  0  0  0  0  0999 V2000
   43.9835   30.7014    1.2742 C   0  0  2  0  0  0  0  0  0  0  0  0
   44.9443   30.2366    0.3060 O   0  0  0  0  0  0  0  0  0  0  0  0
   47.0459   26.4984   -0.4199 C   0  0  2  0  0  0  0  0  0  0  0  0
   47.8377   25.2687   -0.1589 N   0  0  0  0  0  0  0  0  0  0  0  0
   42.3271   27.2737   -0.3399 C   0  0  1  0  0  0  0  0  0  0  0  0
   39.8056   26.5569   -2.4409 C   0  0  1  0  0  0  0  0  0  0  0  0
   42.8917   31.5861    0.6011 C   0  0  2  0  0  0  0  0  0  0  0  0
   42.2337   30.9217   -0.5280 N   0  0  0  0  0  0  0  0  0  0  0  0
   47.8305   27.7319    0.1287 C   0  0  0  0  0  0  0  0  0  0  0  0
   41.0190   27.0557    0.4546 C   0  0  2  0  0  0  0  0  0  0  0  0
   40.6600   25.6717    0.5206 O   0  0  0  0  0  0  0  0  0  0  0  0
   38.9135   25.4314   -3.1188 C   0  0  2  0  0  0  0  0  0  0  0  0
   38.5207   24.3246   -2.1938 N   0  0  0  0  0  0  0  0  0  0  0  0
   43.5042   32.9356    0.1387 C   0  0  1  0  0  0  0  0  0  0  0  0
   42.4966   33.7524   -0.4518 O   0  0  0  0  0  0  0  0  0  0  0  0
   47.0435   29.0531   -0.1106 C   0  0  2  0  0  0  0  0  0  0  0  0
   47.8531   30.1640    0.4245 N   0  0  0  0  0  0  0  0  0  0  0  0
   39.9729   27.9108   -0.2807 C   0  0  2  0  0  0  0  0  0  0  0  0
   39.1661   27.1135   -1.2361 O   0  0  0  0  0  0  0  0  0  0  0  0
   39.6727   24.8302   -4.3868 C   0  0  1  0  0  0  0  0  0  0  0  0
   39.7876   25.8109   -5.4412 O   0  0  0  0  0  0  0  0  0  0  0  0
   44.1515   33.6551    1.3446 C   0  0  2  0  0  0  0  0  0  0  0  0
   44.6956   34.8921    0.9348 O   0  0  0  0  0  0  0  0  0  0  0  0
   45.6260   28.9636    0.5580 C   0  0  2  0  0  0  0  0  0  0  0  0
   40.8034   28.9718   -0.9974 C   0  0  2  0  0  0  0  0  0  0  0  0
   42.0967   28.4110   -1.1732 O   0  0  0  0  0  0  0  0  0  0  0  0
   41.1197   24.3060   -4.0223 C   0  0  2  0  0  0  0  0  0  0  0  0
   41.0049   23.1590   -3.1634 O   0  0  0  0  0  0  0  0  0  0  0  0
   45.2425   32.7643    1.9715 C   0  0  2  0  0  0  0  0  0  0  0  0
   44.6250   31.4773    2.3613 O   0  0  0  0  0  0  0  0  0  0  0  0
   44.8208   27.7097   -0.0518 C   0  0  2  0  0  0  0  0  0  0  0  0
   43.4746   27.5368    0.5580 O   0  0  0  0  0  0  0  0  0  0  0  0
   40.9599   30.2639   -0.2091 C   0  0  0  0  0  0  0  0  0  0  0  0
   41.9435   25.4561   -3.3131 C   0  0  1  0  0  0  0  0  0  0  0  0
   41.1941   26.0448   -2.1515 O   0  0  0  0  0  0  0  0  0  0  0  0
   45.8655   33.4837    3.1906 C   0  0  0  0  0  0  0  0  0  0  0  0
   47.0012   32.7796    3.8140 N   0  0  0  0  0  0  0  0  0  0  0  0
   45.6084   26.4109    0.2229 C   0  0  1  0  0  0  0  0  0  0  0  0
   44.8926   25.2955   -0.3177 O   0  0  0  0  0  0  0  0  0  0  0  0
   43.3874   25.0057   -2.8662 C   0  0  0  0  0  0  0  0  0  0  0  0
   43.4564   23.8591   -1.9050 N   0  0  0  0  0  0  0  0  0  0  0  0
  1  2  1  6  0  0  0
  1  7  1  0  0  0  0
  1 30  1  0  0  0  0
  3  4  1  1  0  0  0
  3  9  1  0  0  0  0
  3 38  1  0  0  0  0
  5 10  1  0  0  0  0
  5 26  1  6  0  0  0
  5 32  1  0  0  0  0
  6 12  1  0  0  0  0
  6 35  1  0  0  0  0
  6 19  1  1  0  0  0
  7  8  1  6  0  0  0
  7 14  1  0  0  0  0
  8 33  1  0  0  0  0
  9 16  1  0  0  0  0
 10 11  1  6  0  0  0
 10 18  1  0  0  0  0
 12 13  1  1  0  0  0
 12 20  1  0  0  0  0
 14 15  1  1  0  0  0
 14 22  1  0  0  0  0
 16 17  1  1  0  0  0
 16 24  1  0  0  0  0
 18 19  1  6  0  0  0
 18 25  1  0  0  0  0
 20 21  1  6  0  0  0
 20 27  1  0  0  0  0
 22 23  1  6  0  0  0
 22 29  1  0  0  0  0
 24  2  1  6  0  0  0
 24 31  1  0  0  0  0
 25 26  1  1  0  0  0
 25 33  1  0  0  0  0
 27 28  1  1  0  0  0
 27 34  1  0  0  0  0
 29 30  1  0  0  0  0
 29 36  1  1  0  0  0
 31 32  1  1  0  0  0
 31 38  1  0  0  0  0
 34 35  1  0  0  0  0
 34 40  1  1  0  0  0
 36 37  1  0  0  0  0
 38 39  1  6  0  0  0
 40 41  1  0  0  0  0
M  END
>  <CHROM.1>
-67.99672861,164.48237731,-175.24636652,-59.32793658,43.13544401,28.32237434
-0.55299729,1.02857864,-0.31049179,0.35651469

>  <Name>
ligand

>  <RI>
0

>  <Rbt.Current_Directory>
/home/itssahil/PROJECTS/Mol_Feturizer/New_Systems/rnas/1ZZ5

>  <Rbt.Executable>
rbdock ($Id: //depot/dev/client3/rdock/2013.1/src/exe/rbdock.cxx#4 $)

>  <Rbt.Library>
libRbt.so (2013.1, Build901 2013/11/27)

>  <Rbt.Parameter_File>
/export/apps/rDock/src/rDock_2013.1_src/data/scripts/dock_solv.prm

>  <Rbt.Receptor>
prm/blind_docking_100.prm

>  <SCORE>
46.444

>  <SCORE.INTER>
8.88311

>  <SCORE.INTER.CONST>
1

>  <SCORE.INTER.POLAR>
0

>  <SCORE.INTER.ROT>
4

>  <SCORE.INTER.SOLV>
13.9422

>  <SCORE.INTER.VDW>
-4.99199

>  <SCORE.INTER.norm>
0.216661

>  <SCORE.INTRA>
2.60363

>  <SCORE.INTRA.DIHEDRAL>
-3.46353

>  <SCORE.INTRA.DIHEDRAL.0>
5.18357

>  <SCORE.INTRA.POLAR>
0

>  <SCORE.INTRA.POLAR.0>
0

>  <SCORE.INTRA.REPUL>
0

>  <SCORE.INTRA.REPUL.0>
0

>  <SCORE.INTRA.SOLV>
4.47124

>  <SCORE.INTRA.SOLV.lig_0>
-109.973

>  <SCORE.INTRA.VDW>
2.09977

>  <SCORE.INTRA.VDW.0>
-1.68646

>  <SCORE.INTRA.norm>
0.0635031

>  <SCORE.RESTR>
34.9572

>  <SCORE.RESTR.CAVITY>
34.9572

>  <SCORE.RESTR.norm>
0.852616

>  <SCORE.SYSTEM>
0

>  <SCORE.SYSTEM.CONST>
0

>  <SCORE.SYSTEM.DIHEDRAL>
0

>  <SCORE.SYSTEM.SOLV>
0

>  <SCORE.SYSTEM.norm>
0

>  <SCORE.heavy>
41

>  <SCORE.norm>
1.13278

>  <RMSD>
16.515

$$$$
ligand
 OpenBabel11021811423D
libRbt.so/2013.1/901 2013/11/27
 41 45  0  0  0  0  0  0  0  0999 V2000
   43.8737   30.6070    1.2963 C   0  0  2  0  0  0  0  0  0  0  0  0
   44.8551   30.1521    0.3442 O   0  0  0  0  0  0  0  0  0  0  0  0
   46.9901   26.4288   -0.3603 C   0  0  2  0  0  0  0  0  0  0  0  0
   47.7834   25.2020   -0.0905 N   0  0  0  0  0  0  0  0  0  0  0  0
   42.2665   27.1787   -0.3654 C   0  0  1  0  0  0  0  0  0  0  0  0
   39.7979   26.4225   -2.4944 C   0  0  1  0  0  0  0  0  0  0  0  0
   42.7900   31.4892    0.6071 C   0  0  2  0  0  0  0  0  0  0  0  0
   42.1570   30.8270   -0.5374 N   0  0  0  0  0  0  0  0  0  0  0  0
   47.7576   27.6636    0.2090 C   0  0  0  0  0  0  0  0  0  0  0  0
   40.9449   26.9498    0.4032 C   0  0  2  0  0  0  0  0  0  0  0  0
   40.5922   25.5636    0.4557 O   0  0  0  0  0  0  0  0  0  0  0  0
   38.9973   25.1832   -3.0820 C   0  0  2  0  0  0  0  0  0  0  0  0
   38.7052   24.1142   -2.0787 N   0  0  0  0  0  0  0  0  0  0  0  0
   43.4038   32.8443    0.1630 C   0  0  1  0  0  0  0  0  0  0  0  0
   42.4031   33.6586   -0.4424 O   0  0  0  0  0  0  0  0  0  0  0  0
   46.9681   28.9818   -0.0386 C   0  0  2  0  0  0  0  0  0  0  0  0
   47.7614   30.0944    0.5170 N   0  0  0  0  0  0  0  0  0  0  0  0
   39.9082   27.8030   -0.3474 C   0  0  2  0  0  0  0  0  0  0  0  0
   39.1238   27.0061   -1.3217 O   0  0  0  0  0  0  0  0  0  0  0  0
   39.7939   24.5607   -4.3163 C   0  0  1  0  0  0  0  0  0  0  0  0
   39.8185   25.4725   -5.4366 O   0  0  0  0  0  0  0  0  0  0  0  0
   44.0245   33.5611    1.3843 C   0  0  2  0  0  0  0  0  0  0  0  0
   44.5695   34.8030    0.9909 O   0  0  0  0  0  0  0  0  0  0  0  0
   45.5388   28.8815    0.6027 C   0  0  2  0  0  0  0  0  0  0  0  0
   40.7463   28.8719   -1.0431 C   0  0  2  0  0  0  0  0  0  0  0  0
   42.0457   28.3188   -1.1974 O   0  0  0  0  0  0  0  0  0  0  0  0
   41.2823   24.1840   -3.9367 C   0  0  2  0  0  0  0  0  0  0  0  0
   41.2701   23.0934   -3.0003 O   0  0  0  0  0  0  0  0  0  0  0  0
   45.1083   32.6730    2.0273 C   0  0  2  0  0  0  0  0  0  0  0  0
   44.4904   31.3809    2.3991 O   0  0  0  0  0  0  0  0  0  0  0  0
   44.7519   27.6264   -0.0283 C   0  0  2  0  0  0  0  0  0  0  0  0
   43.3955   27.4433    0.5552 O   0  0  0  0  0  0  0  0  0  0  0  0
   40.8809   30.1608   -0.2458 C   0  0  0  0  0  0  0  0  0  0  0  0
   42.0131   25.4442   -3.3186 C   0  0  1  0  0  0  0  0  0  0  0  0
   41.2265   26.0478   -2.1897 O   0  0  0  0  0  0  0  0  0  0  0  0
   45.7043   33.3896    3.2614 C   0  0  0  0  0  0  0  0  0  0  0  0
   46.7185   32.6150    4.0001 N   0  0  0  0  0  0  0  0  0  0  0  0
   45.5412   26.3305    0.2549 C   0  0  1  0  0  0  0  0  0  0  0  0
   44.8418   25.2140   -0.3046 O   0  0  0  0  0  0  0  0  0  0  0  0
   43.4929   25.1463   -2.8617 C   0  0  0  0  0  0  0  0  0  0  0  0
   44.5061   24.9942   -3.9542 N   0  0  0  0  0  0  0  0  0  0  0  0
  1  2  1  6  0  0  0
  1  7  1  0  0  0  0
  1 30  1  0  0  0  0
  3  4  1  1  0  0  0
  3  9  1  0  0  0  0
  3 38  1  0  0  0  0
  5 10  1  0  0  0  0
  5 26  1  6  0  0  0
  5 32  1  0  0  0  0
  6 12  1  0  0  0  0
  6 35  1  0  0  0  0
  6 19  1  1  0  0  0
  7  8  1  6  0  0  0
  7 14  1  0  0  0  0
  8 33  1  0  0  0  0
  9 16  1  0  0  0  0
 10 11  1  6  0  0  0
 10 18  1  0  0  0  0
 12 13  1  1  0  0  0
 12 20  1  0  0  0  0
 14 15  1  1  0  0  0
 14 22  1  0  0  0  0
 16 17  1  1  0  0  0
 16 24  1  0  0  0  0
 18 19  1  6  0  0  0
 18 25  1  0  0  0  0
 20 21  1  6  0  0  0
 20 27  1  0  0  0  0
 22 23  1  6  0  0  0
 22 29  1  0  0  0  0
 24  2  1  6  0  0  0
 24 31  1  0  0  0  0
 25 26  1  1  0  0  0
 25 33  1  0  0  0  0
 27 28  1  1  0  0  0
 27 34  1  0  0  0  0
 29 30  1  0  0  0  0
 29 36  1  1  0  0  0
 31 32  1  1  0  0  0
 31 38  1  0  0  0  0
 34 35  1  0  0  0  0
 34 40  1  1  0  0  0
 36 37  1  0  0  0  0
 38 39  1  6  0  0  0
 40 41  1  0  0  0  0
M  END
>  <CHROM.1>
-66.03511459,157.38900571,177.61234560,73.87183763,43.11987115,28.25165018
-0.57848454,1.06332638,-0.28453201,0.40085170

>  <Name>
ligand

>  <RI>
0

>  <Rbt.Current_Directory>
/home/itssahil/PROJECTS/Mol_Feturizer/New_Systems/rnas/1ZZ5

>  <Rbt.Executable>
rbdock ($Id: //depot/dev/client3/rdock/2013.1/src/exe/rbdock.cxx#4 $)

>  <Rbt.Library>
libRbt.so (2013.1, Build901 2013/11/27)

>  <Rbt.Parameter_File>
/export/apps/rDock/src/rDock_2013.1_src/data/scripts/dock_solv.prm

>  <Rbt.Receptor>
prm/blind_docking_100.prm

>  <SCORE>
46.7947

>  <SCORE.INTER>
8.36003

>  <SCORE.INTER.CONST>
1

>  <SCORE.INTER.POLAR>
0

>  <SCORE.INTER.ROT>
4

>  <SCORE.INTER.SOLV>
18.7971

>  <SCORE.INTER.VDW>
-6.95902

>  <SCORE.INTER.norm>
0.203903

>  <SCORE.INTRA>
3.73774

>  <SCORE.INTRA.DIHEDRAL>
-1.95023

>  <SCORE.INTRA.DIHEDRAL.0>
5.18357

>  <SCORE.INTRA.POLAR>
0

>  <SCORE.INTRA.POLAR.0>
0

>  <SCORE.INTRA.REPUL>
0

>  <SCORE.INTRA.REPUL.0>
0

>  <SCORE.INTRA.SOLV>
1.64948

>  <SCORE.INTRA.SOLV.lig_0>
-109.973

>  <SCORE.INTRA.VDW>
3.88811

>  <SCORE.INTRA.VDW.0>
-1.68646

>  <SCORE.INTRA.norm>
0.0911644

>  <SCORE.RESTR>
34.697

>  <SCORE.RESTR.CAVITY>
34.697

>  <SCORE.RESTR.norm>
0.846267

>  <SCORE.SYSTEM>
0

>  <SCORE.SYSTEM.CONST>
0

>  <SCORE.SYSTEM.DIHEDRAL>
0

>  <SCORE.SYSTEM.SOLV>
0

>  <SCORE.SYSTEM.norm>
0

>  <SCORE.heavy>
41

>  <SCORE.norm>
1.14133

>  <RMSD>
16.524

$$$$
ligand
 OpenBabel11021811423D
libRbt.so/2013.1/901 2013/11/27
 41 45  0  0  0  0  0  0  0  0999 V2000
   43.8748   30.5640    1.2507 C   0  0  2  0  0  0  0  0  0  0  0  0
   44.8523   30.0806    0.3087 O   0  0  0  0  0  0  0  0  0  0  0  0
   46.9519   26.3236   -0.3189 C   0  0  2  0  0  0  0  0  0  0  0  0
   47.7333   25.0949   -0.0237 N   0  0  0  0  0  0  0  0  0  0  0  0
   42.2358   27.1184   -0.3429 C   0  0  1  0  0  0  0  0  0  0  0  0
   39.7439   26.4115   -2.5015 C   0  0  1  0  0  0  0  0  0  0  0  0
   42.8000   31.4424    0.5430 C   0  0  2  0  0  0  0  0  0  0  0  0
   42.1613   30.7634   -0.5884 N   0  0  0  0  0  0  0  0  0  0  0  0
   47.7309   27.5623    0.2261 C   0  0  0  0  0  0  0  0  0  0  0  0
   40.9116   26.9177    0.4291 C   0  0  2  0  0  0  0  0  0  0  0  0
   40.5456   25.5363    0.5093 O   0  0  0  0  0  0  0  0  0  0  0  0
   38.8702   25.2750   -3.1849 C   0  0  2  0  0  0  0  0  0  0  0  0
   38.4894   24.1610   -2.2636 N   0  0  0  0  0  0  0  0  0  0  0  0
   43.4270   32.7824    0.0721 C   0  0  1  0  0  0  0  0  0  0  0  0
   42.4345   33.5939   -0.5504 O   0  0  0  0  0  0  0  0  0  0  0  0
   46.9543   28.8827   -0.0487 C   0  0  2  0  0  0  0  0  0  0  0  0
   47.7579   29.9986    0.4850 N   0  0  0  0  0  0  0  0  0  0  0  0
   39.8835   27.7655   -0.3393 C   0  0  2  0  0  0  0  0  0  0  0  0
   39.0922   26.9567   -1.2980 O   0  0  0  0  0  0  0  0  0  0  0  0
   39.6424   24.6870   -4.4512 C   0  0  1  0  0  0  0  0  0  0  0  0
   39.7476   25.6712   -5.5033 O   0  0  0  0  0  0  0  0  0  0  0  0
   44.0538   33.5177    1.2793 C   0  0  2  0  0  0  0  0  0  0  0  0
   44.6110   34.7461    0.8613 O   0  0  0  0  0  0  0  0  0  0  0  0
   45.5237   28.8090    0.5934 C   0  0  2  0  0  0  0  0  0  0  0  0
   40.7323   28.8121   -1.0558 C   0  0  2  0  0  0  0  0  0  0  0  0
   42.0264   28.2436   -1.1978 O   0  0  0  0  0  0  0  0  0  0  0  0
   41.0953   24.1823   -4.0823 C   0  0  2  0  0  0  0  0  0  0  0  0
   40.9933   23.0322   -3.2260 O   0  0  0  0  0  0  0  0  0  0  0  0
   45.1286   32.6324    1.9409 C   0  0  2  0  0  0  0  0  0  0  0  0
   44.4982   31.3540    2.3382 O   0  0  0  0  0  0  0  0  0  0  0  0
   44.7251   27.5491   -0.0128 C   0  0  2  0  0  0  0  0  0  0  0  0
   43.3667   27.3908    0.5731 O   0  0  0  0  0  0  0  0  0  0  0  0
   40.8788   30.1155   -0.2845 C   0  0  0  0  0  0  0  0  0  0  0  0
   41.9002   25.3424   -3.3677 C   0  0  1  0  0  0  0  0  0  0  0  0
   41.1384   25.9183   -2.2079 O   0  0  0  0  0  0  0  0  0  0  0  0
   45.7308   33.3680    3.1607 C   0  0  0  0  0  0  0  0  0  0  0  0
   46.7845   32.6253    3.8764 N   0  0  0  0  0  0  0  0  0  0  0  0
   45.5018   26.2516    0.2971 C   0  0  1  0  0  0  0  0  0  0  0  0
   44.7921   25.1308   -0.2404 O   0  0  0  0  0  0  0  0  0  0  0  0
   43.3486   24.9114   -2.9163 C   0  0  0  0  0  0  0  0  0  0  0  0
   44.2696   26.0166   -2.4996 N   0  0  0  0  0  0  0  0  0  0  0  0
  1  2  1  6  0  0  0
  1  7  1  0  0  0  0
  1 30  1  0  0  0  0
  3  4  1  1  0  0  0
  3  9  1  0  0  0  0
  3 38  1  0  0  0  0
  5 10  1  0  0  0  0
  5 26  1  6  0  0  0
  5 32  1  0  0  0  0
  6 12  1  0  0  0  0
  6 35  1  0  0  0  0
  6 19  1  1  0  0  0
  7  8  1  6  0  0  0
  7 14  1  0  0  0  0
  8 33  1  0  0  0  0
  9 16  1  0  0  0  0
 10 11  1  6  0  0  0
 10 18  1  0  0  0  0
 12 13  1  1  0  0  0
 12 20  1  0  0  0  0
 14 15  1  1  0  0  0
 14 22  1  0  0  0  0
 16 17  1  1  0  0  0
 16 24  1  0  0  0  0
 18 19  1  6  0  0  0
 18 25  1  0  0  0  0
 20 21  1  6  0  0  0
 20 27  1  0  0  0  0
 22 23  1  6  0  0  0
 22 29  1  0  0  0  0
 24  2  1  6  0  0  0
 24 31  1  0  0  0  0
 25 26  1  1  0  0  0
 25 33  1  0  0  0  0
 27 28  1  1  0  0  0
 27 34  1  0  0  0  0
 29 30  1  0  0  0  0
 29 36  1  1  0  0  0
 31 32  1  1  0  0  0
 31 38  1  0  0  0  0
 34 35  1  0  0  0  0
 34 40  1  1  0  0  0
 36 37  1  0  0  0  0
 38 39  1  6  0  0  0
 40 41  1  0  0  0  0
M  END
>  <CHROM.1>
-69.74074313,164.59602631,-179.51220134,167.54880433,43.07342630,28.23079944
-0.58477314,1.01903592,-0.31942998,0.36569971

>  <Name>
ligand

>  <RI>
0

>  <Rbt.Current_Directory>
/home/itssahil/PROJECTS/Mol_Feturizer/New_Systems/rnas/1ZZ5

>  <Rbt.Executable>
rbdock ($Id: //depot/dev/client3/rdock/2013.1/src/exe/rbdock.cxx#4 $)

>  <Rbt.Library>
libRbt.so (2013.1, Build901 2013/11/27)

>  <Rbt.Parameter_File>
/export/apps/rDock/src/rDock_2013.1_src/data/scripts/dock_solv.prm

>  <Rbt.Receptor>
prm/blind_docking_100.prm

>  <SCORE>
46.48

>  <SCORE.INTER>
8.81342

>  <SCORE.INTER.CONST>
1

>  <SCORE.INTER.POLAR>
0

>  <SCORE.INTER.ROT>
4

>  <SCORE.INTER.SOLV>
17.2977

>  <SCORE.INTER.VDW>
-6.15695

>  <SCORE.INTER.norm>
0.214961

>  <SCORE.INTRA>
3.92955

>  <SCORE.INTRA.DIHEDRAL>
-2.86901

>  <SCORE.INTRA.DIHEDRAL.0>
5.18357

>  <SCORE.INTRA.POLAR>
0

>  <SCORE.INTRA.POLAR.0>
0

>  <SCORE.INTRA.REPUL>
0

>  <SCORE.INTRA.REPUL.0>
0

>  <SCORE.INTRA.SOLV>
6.66374

>  <SCORE.INTRA.SOLV.lig_0>
-109.973

>  <SCORE.INTRA.VDW>
2.03219

>  <SCORE.INTRA.VDW.0>
-1.68646

>  <SCORE.INTRA.norm>
0.0958427

>  <SCORE.RESTR>
33.737

>  <SCORE.RESTR.CAVITY>
33.737

>  <SCORE.RESTR.norm>
0.822854

>  <SCORE.SYSTEM>
0

>  <SCORE.SYSTEM.CONST>
0

>  <SCORE.SYSTEM.DIHEDRAL>
0

>  <SCORE.SYSTEM.SOLV>
0

>  <SCORE.SYSTEM.norm>
0

>  <SCORE.heavy>
41

>  <SCORE.norm>
1.13366

>  <RMSD>
16.526

$$$$
ligand
 OpenBabel11021811423D
libRbt.so/2013.1/901 2013/11/27
 41 45  0  0  0  0  0  0  0  0999 V2000
   43.8773   30.5620    1.2569 C   0  0  2  0  0  0  0  0  0  0  0  0
   44.8532   30.0846    0.3102 O   0  0  0  0  0  0  0  0  0  0  0  0
   46.9631   26.3364   -0.3353 C   0  0  2  0  0  0  0  0  0  0  0  0
   47.7496   25.1095   -0.0463 N   0  0  0  0  0  0  0  0  0  0  0  0
   42.2443   27.1156   -0.3409 C   0  0  1  0  0  0  0  0  0  0  0  0
   39.7481   26.4040   -2.4915 C   0  0  1  0  0  0  0  0  0  0  0  0
   42.7971   31.4389    0.5554 C   0  0  2  0  0  0  0  0  0  0  0  0
   42.1569   30.7610   -0.5758 N   0  0  0  0  0  0  0  0  0  0  0  0
   47.7398   27.5761    0.2105 C   0  0  0  0  0  0  0  0  0  0  0  0
   40.9234   26.9082    0.4350 C   0  0  2  0  0  0  0  0  0  0  0  0
   40.5623   25.5254    0.5124 O   0  0  0  0  0  0  0  0  0  0  0  0
   38.8720   25.2716   -3.1787 C   0  0  2  0  0  0  0  0  0  0  0  0
   38.4894   24.1550   -2.2612 N   0  0  0  0  0  0  0  0  0  0  0  0
   43.4181   32.7822    0.0863 C   0  0  1  0  0  0  0  0  0  0  0  0
   42.4208   33.5922   -0.5305 O   0  0  0  0  0  0  0  0  0  0  0  0
   46.9578   28.8947   -0.0578 C   0  0  2  0  0  0  0  0  0  0  0  0
   47.7596   30.0117    0.4764 N   0  0  0  0  0  0  0  0  0  0  0  0
   39.8899   27.7548   -0.3276 C   0  0  2  0  0  0  0  0  0  0  0  0
   39.0980   26.9461   -1.2859 O   0  0  0  0  0  0  0  0  0  0  0  0
   39.6426   24.6866   -4.4473 C   0  0  1  0  0  0  0  0  0  0  0  0
   39.7492   25.6744   -5.4960 O   0  0  0  0  0  0  0  0  0  0  0  0
   44.0465   33.5162    1.2934 C   0  0  2  0  0  0  0  0  0  0  0  0
   44.5982   34.7477    0.8771 O   0  0  0  0  0  0  0  0  0  0  0  0
   45.5297   28.8144    0.5890 C   0  0  2  0  0  0  0  0  0  0  0  0
   40.7327   28.8062   -1.0439 C   0  0  2  0  0  0  0  0  0  0  0  0
   42.0283   28.2425   -1.1920 O   0  0  0  0  0  0  0  0  0  0  0  0
   41.0946   24.1778   -4.0809 C   0  0  2  0  0  0  0  0  0  0  0  0
   40.9907   23.0248   -3.2287 O   0  0  0  0  0  0  0  0  0  0  0  0
   45.1266   32.6326    1.9488 C   0  0  2  0  0  0  0  0  0  0  0  0
   44.5018   31.3510    2.3446 O   0  0  0  0  0  0  0  0  0  0  0  0
   44.7333   27.5536   -0.0182 C   0  0  2  0  0  0  0  0  0  0  0  0
   43.3774   27.3890    0.5720 O   0  0  0  0  0  0  0  0  0  0  0  0
   40.8776   30.1079   -0.2693 C   0  0  0  0  0  0  0  0  0  0  0  0
   41.9020   25.3338   -3.3625 C   0  0  1  0  0  0  0  0  0  0  0  0
   41.1418   25.9070   -2.2003 O   0  0  0  0  0  0  0  0  0  0  0  0
   45.7304   33.3667    3.1687 C   0  0  0  0  0  0  0  0  0  0  0  0
   46.8174   32.6433    3.8539 N   0  0  0  0  0  0  0  0  0  0  0  0
   45.5154   26.2578    0.2854 C   0  0  1  0  0  0  0  0  0  0  0  0
   44.8075   25.1362   -0.2529 O   0  0  0  0  0  0  0  0  0  0  0  0
   43.3498   24.8983   -2.9132 C   0  0  0  0  0  0  0  0  0  0  0  0
   44.2794   26.0019   -2.5117 N   0  0  0  0  0  0  0  0  0  0  0  0
  1  2  1  6  0  0  0
  1  7  1  0  0  0  0
  1 30  1  0  0  0  0
  3  4  1  1  0  0  0
  3  9  1  0  0  0  0
  3 38  1  0  0  0  0
  5 10  1  0  0  0  0
  5 26  1  6  0  0  0
  5 32  1  0  0  0  0
  6 12  1  0  0  0  0
  6 35  1  0  0  0  0
  6 19  1  1  0  0  0
  7  8  1  6  0  0  0
  7 14  1  0  0  0  0
  8 33  1  0  0  0  0
  9 16  1  0  0  0  0
 10 11  1  6  0  0  0
 10 18  1  0  0  0  0
 12 13  1  1  0  0  0
 12 20  1  0  0  0  0
 14 15  1  1  0  0  0
 14 22  1  0  0  0  0
 16 17  1  1  0  0  0
 16 24  1  0  0  0  0
 18 19  1  6  0  0  0
 18 25  1  0  0  0  0
 20 21  1  6  0  0  0
 20 27  1  0  0  0  0
 22 23  1  6  0  0  0
 22 29  1  0  0  0  0
 24  2  1  6  0  0  0
 24 31  1  0  0  0  0
 25 26  1  1  0  0  0
 25 33  1  0  0  0  0
 27 28  1  1  0  0  0
 27 34  1  0  0  0  0
 29 30  1  0  0  0  0
 29 36  1  1  0  0  0
 31 32  1  1  0  0  0
 31 38  1  0  0  0  0
 34 35  1  0  0  0  0
 34 40  1  1  0  0  0
 36 37  1  0  0  0  0
 38 39  1  6  0  0  0
 40 41  1  0  0  0  0
M  END
>  <CHROM.1>
-69.60136926,164.85477222,-177.72936307,166.70337626,43.07715997,28.22978634
-0.58250893,1.02076595,-0.31454561,0.36848490

>  <Name>
ligand

>  <RI>
0

>  <Rbt.Current_Directory>
/home/itssahil/PROJECTS/Mol_Feturizer/New_Systems/rnas/1ZZ5

>  <Rbt.Executable>
rbdock ($Id: //depot/dev/client3/rdock/2013.1/src/exe/rbdock.cxx#4 $)

>  <Rbt.Library>
libRbt.so (2013.1, Build901 2013/11/27)

>  <Rbt.Parameter_File>
/export/apps/rDock/src/rDock_2013.1_src/data/scripts/dock_solv.prm

>  <Rbt.Receptor>
prm/blind_docking_100.prm

>  <SCORE>
46.2984

>  <SCORE.INTER>
8.59981

>  <SCORE.INTER.CONST>
1

>  <SCORE.INTER.POLAR>
0

>  <SCORE.INTER.ROT>
4

>  <SCORE.INTER.SOLV>
17.3004

>  <SCORE.INTER.VDW>
-6.30027

>  <SCORE.INTER.norm>
0.209751

>  <SCORE.INTRA>
3.9109

>  <SCORE.INTRA.DIHEDRAL>
-2.82641

>  <SCORE.INTRA.DIHEDRAL.0>
5.18357

>  <SCORE.INTRA.POLAR>
0

>  <SCORE.INTRA.POLAR.0>
0

>  <SCORE.INTRA.REPUL>
0

>  <SCORE.INTRA.REPUL.0>
0

>  <SCORE.INTRA.SOLV>
6.61159

>  <SCORE.INTRA.SOLV.lig_0>
-109.973

>  <SCORE.INTRA.VDW>
2.01831

>  <SCORE.INTRA.VDW.0>
-1.68646

>  <SCORE.INTRA.norm>
0.0953879

>  <SCORE.RESTR>
33.7877

>  <SCORE.RESTR.CAVITY>
33.7877

>  <SCORE.RESTR.norm>
0.824091

>  <SCORE.SYSTEM>
0

>  <SCORE.SYSTEM.CONST>
0

>  <SCORE.SYSTEM.DIHEDRAL>
0

>  <SCORE.SYSTEM.SOLV>
0

>  <SCORE.SYSTEM.norm>
0

>  <SCORE.heavy>
41

>  <SCORE.norm>
1.12923

>  <RMSD>
16.529

$$$$
ligand
 OpenBabel11021811423D
libRbt.so/2013.1/901 2013/11/27
 41 45  0  0  0  0  0  0  0  0999 V2000
   43.8787   30.5940    1.3065 C   0  0  2  0  0  0  0  0  0  0  0  0
   44.8487   30.1442    0.3405 O   0  0  0  0  0  0  0  0  0  0  0  0
   46.9733   26.4240   -0.4103 C   0  0  2  0  0  0  0  0  0  0  0  0
   47.7690   25.1952   -0.1568 N   0  0  0  0  0  0  0  0  0  0  0  0
   42.2504   27.1764   -0.3566 C   0  0  1  0  0  0  0  0  0  0  0  0
   39.7446   26.4821   -2.4904 C   0  0  1  0  0  0  0  0  0  0  0  0
   42.7877   31.4808    0.6351 C   0  0  2  0  0  0  0  0  0  0  0  0
   42.1411   30.8257   -0.5059 N   0  0  0  0  0  0  0  0  0  0  0  0
   47.7480   27.6551    0.1573 C   0  0  0  0  0  0  0  0  0  0  0  0
   40.9376   26.9437    0.4259 C   0  0  2  0  0  0  0  0  0  0  0  0
   40.5847   25.5574    0.4743 O   0  0  0  0  0  0  0  0  0  0  0  0
   38.8290   25.4196   -3.2355 C   0  0  2  0  0  0  0  0  0  0  0  0
   38.3745   24.2905   -2.3676 N   0  0  0  0  0  0  0  0  0  0  0  0
   43.3971   32.8382    0.1918 C   0  0  1  0  0  0  0  0  0  0  0  0
   42.3900   33.6566   -0.3972 O   0  0  0  0  0  0  0  0  0  0  0  0
   46.9565   28.9751   -0.0734 C   0  0  2  0  0  0  0  0  0  0  0  0
   47.7569   30.0840    0.4795 N   0  0  0  0  0  0  0  0  0  0  0  0
   39.8928   27.8018   -0.3078 C   0  0  2  0  0  0  0  0  0  0  0  0
   39.0969   27.0111   -1.2776 O   0  0  0  0  0  0  0  0  0  0  0  0
   39.5963   24.8442   -4.5106 C   0  0  1  0  0  0  0  0  0  0  0  0
   39.7717   25.8632   -5.5195 O   0  0  0  0  0  0  0  0  0  0  0  0
   44.0322   33.5475    1.4101 C   0  0  2  0  0  0  0  0  0  0  0  0
   44.5734   34.7914    1.0177 O   0  0  0  0  0  0  0  0  0  0  0  0
   45.5347   28.8717    0.5838 C   0  0  2  0  0  0  0  0  0  0  0  0
   40.7235   28.8743   -1.0068 C   0  0  2  0  0  0  0  0  0  0  0  0
   42.0207   28.3215   -1.1793 O   0  0  0  0  0  0  0  0  0  0  0  0
   41.0143   24.2521   -4.1365 C   0  0  2  0  0  0  0  0  0  0  0  0
   40.8377   23.0753   -3.3300 O   0  0  0  0  0  0  0  0  0  0  0  0
   45.1228   32.6551    2.0353 C   0  0  2  0  0  0  0  0  0  0  0  0
   44.5085   31.3611    2.4067 O   0  0  0  0  0  0  0  0  0  0  0  0
   44.7398   27.6208   -0.0455 C   0  0  2  0  0  0  0  0  0  0  0  0
   43.3901   27.4350    0.5525 O   0  0  0  0  0  0  0  0  0  0  0  0
   40.8681   30.1585   -0.2035 C   0  0  0  0  0  0  0  0  0  0  0  0
   41.8617   25.3403   -3.3605 C   0  0  1  0  0  0  0  0  0  0  0  0
   41.1064   25.9073   -2.1921 O   0  0  0  0  0  0  0  0  0  0  0  0
   45.7335   33.3641    3.2666 C   0  0  0  0  0  0  0  0  0  0  0  0
   46.5789   34.5315    2.9557 N   0  0  0  0  0  0  0  0  0  0  0  0
   45.5315   26.3228    0.2210 C   0  0  1  0  0  0  0  0  0  0  0  0
   44.8251   25.2100   -0.3369 O   0  0  0  0  0  0  0  0  0  0  0  0
   43.2773   24.8185   -2.9010 C   0  0  0  0  0  0  0  0  0  0  0  0
   43.2803   23.7026   -1.9019 N   0  0  0  0  0  0  0  0  0  0  0  0
  1  2  1  6  0  0  0
  1  7  1  0  0  0  0
  1 30  1  0  0  0  0
  3  4  1  1  0  0  0
  3  9  1  0  0  0  0
  3 38  1  0  0  0  0
  5 10  1  0  0  0  0
  5 26  1  6  0  0  0
  5 32  1  0  0  0  0
  6 12  1  0  0  0  0
  6 35  1  0  0  0  0
  6 19  1  1  0  0  0
  7  8  1  6  0  0  0
  7 14  1  0  0  0  0
  8 33  1  0  0  0  0
  9 16  1  0  0  0  0
 10 11  1  6  0  0  0
 10 18  1  0  0  0  0
 12 13  1  1  0  0  0
 12 20  1  0  0  0  0
 14 15  1  1  0  0  0
 14 22  1  0  0  0  0
 16 17  1  1  0  0  0
 16 24  1  0  0  0  0
 18 19  1  6  0  0  0
 18 25  1  0  0  0  0
 20 21  1  6  0  0  0
 20 27  1  0  0  0  0
 22 23  1  6  0  0  0
 22 29  1  0  0  0  0
 24  2  1  6  0  0  0
 24 31  1  0  0  0  0
 25 26  1  1  0  0  0
 25 33  1  0  0  0  0
 27 28  1  1  0  0  0
 27 34  1  0  0  0  0
 29 30  1  0  0  0  0
 29 36  1  1  0  0  0
 31 32  1  1  0  0  0
 31 38  1  0  0  0  0
 34 35  1  0  0  0  0
 34 40  1  1  0  0  0
 36 37  1  0  0  0  0
 38 39  1  6  0  0  0
 40 41  1  0  0  0  0
M  END
>  <CHROM.1>
-68.60877609,167.84522995,-70.84834143,-64.11537330,43.03323220,28.27667440
-0.58395860,1.05048749,-0.30658601,0.35683084

>  <Name>
ligand

>  <RI>
0

>  <Rbt.Current_Directory>
/home/itssahil/PROJECTS/Mol_Feturizer/New_Systems/rnas/1ZZ5

>  <Rbt.Executable>
rbdock ($Id: //depot/dev/client3/rdock/2013.1/src/exe/rbdock.cxx#4 $)

>  <Rbt.Library>
libRbt.so (2013.1, Build901 2013/11/27)

>  <Rbt.Parameter_File>
/export/apps/rDock/src/rDock_2013.1_src/data/scripts/dock_solv.prm

>  <Rbt.Receptor>
prm/blind_docking_100.prm

>  <SCORE>
46.5435

>  <SCORE.INTER>
8.95205

>  <SCORE.INTER.CONST>
1

>  <SCORE.INTER.POLAR>
0

>  <SCORE.INTER.ROT>
4

>  <SCORE.INTER.SOLV>
13.7993

>  <SCORE.INTER.VDW>
-4.89838

>  <SCORE.INTER.norm>
0.218343

>  <SCORE.INTRA>
2.15967

>  <SCORE.INTRA.DIHEDRAL>
-3.42419

>  <SCORE.INTRA.DIHEDRAL.0>
5.18357

>  <SCORE.INTRA.POLAR>
0

>  <SCORE.INTRA.POLAR.0>
0

>  <SCORE.INTRA.REPUL>
0

>  <SCORE.INTRA.REPUL.0>
0

>  <SCORE.INTRA.SOLV>
5.22735

>  <SCORE.INTRA.SOLV.lig_0>
-109.973

>  <SCORE.INTRA.VDW>
1.25809

>  <SCORE.INTRA.VDW.0>
-1.68646

>  <SCORE.INTRA.norm>
0.0526749

>  <SCORE.RESTR>
35.4318

>  <SCORE.RESTR.CAVITY>
35.4318

>  <SCORE.RESTR.norm>
0.86419

>  <SCORE.SYSTEM>
0

>  <SCORE.SYSTEM.CONST>
0

>  <SCORE.SYSTEM.DIHEDRAL>
0

>  <SCORE.SYSTEM.SOLV>
0

>  <SCORE.SYSTEM.norm>
0

>  <SCORE.heavy>
41

>  <SCORE.norm>
1.13521

>  <RMSD>
16.535

$$$$
ligand
 OpenBabel11021811423D
libRbt.so/2013.1/901 2013/11/27
 41 45  0  0  0  0  0  0  0  0999 V2000
   43.8849   30.6113    1.3124 C   0  0  2  0  0  0  0  0  0  0  0  0
   44.8562   30.1634    0.3467 O   0  0  0  0  0  0  0  0  0  0  0  0
   46.9878   26.4471   -0.4038 C   0  0  2  0  0  0  0  0  0  0  0  0
   47.7856   25.2197   -0.1501 N   0  0  0  0  0  0  0  0  0  0  0  0
   42.2635   27.1909   -0.3520 C   0  0  1  0  0  0  0  0  0  0  0  0
   39.7606   26.4899   -2.4856 C   0  0  1  0  0  0  0  0  0  0  0  0
   42.7925   31.4962    0.6406 C   0  0  2  0  0  0  0  0  0  0  0  0
   42.1476   30.8401   -0.5008 N   0  0  0  0  0  0  0  0  0  0  0  0
   47.7600   27.6795    0.1644 C   0  0  0  0  0  0  0  0  0  0  0  0
   40.9508   26.9557    0.4297 C   0  0  2  0  0  0  0  0  0  0  0  0
   40.6004   25.5688    0.4778 O   0  0  0  0  0  0  0  0  0  0  0  0
   38.8542   25.4132   -3.2212 C   0  0  2  0  0  0  0  0  0  0  0  0
   38.4139   24.2850   -2.3448 N   0  0  0  0  0  0  0  0  0  0  0  0
   43.3997   32.8547    0.1978 C   0  0  1  0  0  0  0  0  0  0  0  0
   42.3914   33.6714   -0.3915 O   0  0  0  0  0  0  0  0  0  0  0  0
   46.9663   28.9981   -0.0665 C   0  0  2  0  0  0  0  0  0  0  0  0
   47.7643   30.1084    0.4870 N   0  0  0  0  0  0  0  0  0  0  0  0
   39.9048   27.8121   -0.3042 C   0  0  2  0  0  0  0  0  0  0  0  0
   39.1107   27.0201   -1.2745 O   0  0  0  0  0  0  0  0  0  0  0  0
   39.6240   24.8374   -4.4947 C   0  0  1  0  0  0  0  0  0  0  0  0
   39.7861   25.8515   -5.5107 O   0  0  0  0  0  0  0  0  0  0  0  0
   44.0330   33.5650    1.4165 C   0  0  2  0  0  0  0  0  0  0  0  0
   44.5721   34.8099    1.0246 O   0  0  0  0  0  0  0  0  0  0  0  0
   45.5443   28.8921    0.5901 C   0  0  2  0  0  0  0  0  0  0  0  0
   40.7338   28.8862   -1.0027 C   0  0  2  0  0  0  0  0  0  0  0  0
   42.0321   28.3358   -1.1746 O   0  0  0  0  0  0  0  0  0  0  0  0
   41.0492   24.2626   -4.1206 C   0  0  2  0  0  0  0  0  0  0  0  0
   40.8870   23.0893   -3.3060 O   0  0  0  0  0  0  0  0  0  0  0  0
   45.1249   32.6745    2.0421 C   0  0  2  0  0  0  0  0  0  0  0  0
   44.5128   31.3793    2.4129 O   0  0  0  0  0  0  0  0  0  0  0  0
   44.7520   27.6399   -0.0398 C   0  0  2  0  0  0  0  0  0  0  0  0
   43.4023   27.4515    0.5576 O   0  0  0  0  0  0  0  0  0  0  0  0
   40.8758   30.1705   -0.1991 C   0  0  0  0  0  0  0  0  0  0  0  0
   41.8872   25.3646   -3.3541 C   0  0  1  0  0  0  0  0  0  0  0  0
   41.1292   25.9313   -2.1873 O   0  0  0  0  0  0  0  0  0  0  0  0
   45.7337   33.3844    3.2738 C   0  0  0  0  0  0  0  0  0  0  0  0
   46.7549   32.6055    3.9983 N   0  0  0  0  0  0  0  0  0  0  0  0
   45.5459   26.3432    0.2269 C   0  0  1  0  0  0  0  0  0  0  0  0
   44.8417   25.2293   -0.3316 O   0  0  0  0  0  0  0  0  0  0  0  0
   43.3094   24.8606   -2.8951 C   0  0  0  0  0  0  0  0  0  0  0  0
   43.3272   23.7223   -1.9218 N   0  0  0  0  0  0  0  0  0  0  0  0
  1  2  1  6  0  0  0
  1  7  1  0  0  0  0
  1 30  1  0  0  0  0
  3  4  1  1  0  0  0
  3  9  1  0  0  0  0
  3 38  1  0  0  0  0
  5 10  1  0  0  0  0
  5 26  1  6  0  0  0
  5 32  1  0  0  0  0
  6 12  1  0  0  0  0
  6 35  1  0  0  0  0
  6 19  1  1  0  0  0
  7  8  1  6  0  0  0
  7 14  1  0  0  0  0
  8 33  1  0  0  0  0
  9 16  1  0  0  0  0
 10 11  1  6  0  0  0
 10 18  1  0  0  0  0
 12 13  1  1  0  0  0
 12 20  1  0  0  0  0
 14 15  1  1  0  0  0
 14 22  1  0  0  0  0
 16 17  1  1  0  0  0
 16 24  1  0  0  0  0
 18 19  1  6  0  0  0
 18 25  1  0  0  0  0
 20 21  1  6  0  0  0
 20 27  1  0  0  0  0
 22 23  1  6  0  0  0
 22 29  1  0  0  0  0
 24  2  1  6  0  0  0
 24 31  1  0  0  0  0
 25 26  1  1  0  0  0
 25 33  1  0  0  0  0
 27 28  1  1  0  0  0
 27 34  1  0  0  0  0
 29 30  1  0  0  0  0
 29 36  1  1  0  0  0
 31 32  1  1  0  0  0
 31 38  1  0  0  0  0
 34 35  1  0  0  0  0
 34 40  1  1  0  0  0
 36 37  1  0  0  0  0
 38 39  1  6  0  0  0
 40 41  1  0  0  0  0
M  END
>  <CHROM.1>
-68.47311405,167.13698112,177.48355524,-62.24029085,43.05193252,28.24509216
-0.55225814,1.03461043,-0.32136644,0.37082965

>  <Name>
ligand

>  <RI>
0

>  <Rbt.Current_Directory>
/home/itssahil/PROJECTS/Mol_Feturizer/New_Systems/rnas/1ZZ5

>  <Rbt.Executable>
rbdock ($Id: //depot/dev/client3/rdock/2013.1/src/exe/rbdock.cxx#4 $)

>  <Rbt.Library>
libRbt.so (2013.1, Build901 2013/11/27)

>  <Rbt.Parameter_File>
/export/apps/rDock/src/rDock_2013.1_src/data/scripts/dock_solv.prm

>  <Rbt.Receptor>
prm/blind_docking_100.prm

>  <SCORE>
45.7988

>  <SCORE.INTER>
9.13463

>  <SCORE.INTER.CONST>
1

>  <SCORE.INTER.POLAR>
0

>  <SCORE.INTER.ROT>
4

>  <SCORE.INTER.SOLV>
14.1081

>  <SCORE.INTER.VDW>
-4.87962

>  <SCORE.INTER.norm>
0.222796

>  <SCORE.INTRA>
1.55271

>  <SCORE.INTRA.DIHEDRAL>
-3.79279

>  <SCORE.INTRA.DIHEDRAL.0>
5.18357

>  <SCORE.INTRA.POLAR>
0

>  <SCORE.INTRA.POLAR.0>
0

>  <SCORE.INTRA.REPUL>
0

>  <SCORE.INTRA.REPUL.0>
0

>  <SCORE.INTRA.SOLV>
4.16757

>  <SCORE.INTRA.SOLV.lig_0>
-109.973

>  <SCORE.INTRA.VDW>
1.36532

>  <SCORE.INTRA.VDW.0>
-1.68646

>  <SCORE.INTRA.norm>
0.037871

>  <SCORE.RESTR>
35.1114

>  <SCORE.RESTR.CAVITY>
35.1114

>  <SCORE.RESTR.norm>
0.856377

>  <SCORE.SYSTEM>
0

>  <SCORE.SYSTEM.CONST>
0

>  <SCORE.SYSTEM.DIHEDRAL>
0

>  <SCORE.SYSTEM.SOLV>
0

>  <SCORE.SYSTEM.norm>
0

>  <SCORE.heavy>
41

>  <SCORE.norm>
1.11704

>  <RMSD>
16.542

$$$$
ligand
 OpenBabel11021811423D
libRbt.so/2013.1/901 2013/11/27
 41 45  0  0  0  0  0  0  0  0999 V2000
   44.3237   30.5561    1.0948 C   0  0  2  0  0  0  0  0  0  0  0  0
   45.2298   30.0101    0.1163 O   0  0  0  0  0  0  0  0  0  0  0  0
   47.1078   26.1431   -0.5447 C   0  0  2  0  0  0  0  0  0  0  0  0
   47.8405   24.8812   -0.2656 N   0  0  0  0  0  0  0  0  0  0  0  0
   42.4412   27.1742   -0.3603 C   0  0  1  0  0  0  0  0  0  0  0  0
   39.8162   26.5643   -2.3882 C   0  0  1  0  0  0  0  0  0  0  0  0
   43.2612   31.4770    0.4234 C   0  0  2  0  0  0  0  0  0  0  0  0
   42.5361   30.8143   -0.6648 N   0  0  0  0  0  0  0  0  0  0  0  0
   47.9725   27.3489   -0.0585 C   0  0  0  0  0  0  0  0  0  0  0  0
   41.1472   27.0520    0.4765 C   0  0  2  0  0  0  0  0  0  0  0  0
   40.7173   25.6922    0.5976 O   0  0  0  0  0  0  0  0  0  0  0  0
   38.8402   25.4884   -3.0302 C   0  0  2  0  0  0  0  0  0  0  0  0
   38.4203   24.4063   -2.0880 N   0  0  0  0  0  0  0  0  0  0  0  0
   43.9306   32.7765   -0.0994 C   0  0  1  0  0  0  0  0  0  0  0  0
   42.9510   33.6277   -0.6884 O   0  0  0  0  0  0  0  0  0  0  0  0
   47.2501   28.7026   -0.3190 C   0  0  2  0  0  0  0  0  0  0  0  0
   48.1328   29.7844    0.1570 N   0  0  0  0  0  0  0  0  0  0  0  0
   40.1269   27.9390   -0.2572 C   0  0  2  0  0  0  0  0  0  0  0  0
   39.2514   27.1570   -1.1635 O   0  0  0  0  0  0  0  0  0  0  0  0
   39.5198   24.8444   -4.3221 C   0  0  1  0  0  0  0  0  0  0  0  0
   39.6509   25.8156   -5.3834 O   0  0  0  0  0  0  0  0  0  0  0  0
   44.6502   33.4971    1.0640 C   0  0  2  0  0  0  0  0  0  0  0  0
   45.2471   34.6896    0.5992 O   0  0  0  0  0  0  0  0  0  0  0  0
   45.8500   28.7106    0.3909 C   0  0  2  0  0  0  0  0  0  0  0  0
   40.9912   28.9307   -1.0308 C   0  0  2  0  0  0  0  0  0  0  0  0
   42.2473   28.2958   -1.2237 O   0  0  0  0  0  0  0  0  0  0  0  0
   40.9479   24.2421   -4.0072 C   0  0  2  0  0  0  0  0  0  0  0  0
   40.8009   23.1045   -3.1407 O   0  0  0  0  0  0  0  0  0  0  0  0
   45.7103   32.5687    1.6894 C   0  0  2  0  0  0  0  0  0  0  0  0
   45.0369   31.3297    2.1379 O   0  0  0  0  0  0  0  0  0  0  0  0
   44.9618   27.4837   -0.1554 C   0  0  2  0  0  0  0  0  0  0  0  0
   43.6268   27.4028    0.4966 O   0  0  0  0  0  0  0  0  0  0  0  0
   41.2391   30.2364   -0.2897 C   0  0  0  0  0  0  0  0  0  0  0  0
   41.8582   25.3463   -3.3315 C   0  0  1  0  0  0  0  0  0  0  0  0
   41.1840   25.9771   -2.1463 O   0  0  0  0  0  0  0  0  0  0  0  0
   46.4059   33.2910    2.8668 C   0  0  0  0  0  0  0  0  0  0  0  0
   47.3975   32.4787    3.5956 N   0  0  0  0  0  0  0  0  0  0  0  0
   45.6871   26.1535    0.1399 C   0  0  1  0  0  0  0  0  0  0  0  0
   44.8977   25.0620   -0.3441 O   0  0  0  0  0  0  0  0  0  0  0  0
   43.2901   24.8179   -2.9344 C   0  0  0  0  0  0  0  0  0  0  0  0
   44.3488   25.8584   -2.7345 N   0  0  0  0  0  0  0  0  0  0  0  0
  1  2  1  6  0  0  0
  1  7  1  0  0  0  0
  1 30  1  0  0  0  0
  3  4  1  1  0  0  0
  3  9  1  0  0  0  0
  3 38  1  0  0  0  0
  5 10  1  0  0  0  0
  5 26  1  6  0  0  0
  5 32  1  0  0  0  0
  6 12  1  0  0  0  0
  6 35  1  0  0  0  0
  6 19  1  1  0  0  0
  7  8  1  6  0  0  0
  7 14  1  0  0  0  0
  8 33  1  0  0  0  0
  9 16  1  0  0  0  0
 10 11  1  6  0  0  0
 10 18  1  0  0  0  0
 12 13  1  1  0  0  0
 12 20  1  0  0  0  0
 14 15  1  1  0  0  0
 14 22  1  0  0  0  0
 16 17  1  1  0  0  0
 16 24  1  0  0  0  0
 18 19  1  6  0  0  0
 18 25  1  0  0  0  0
 20 21  1  6  0  0  0
 20 27  1  0  0  0  0
 22 23  1  6  0  0  0
 22 29  1  0  0  0  0
 24  2  1  6  0  0  0
 24 31  1  0  0  0  0
 25 26  1  1  0  0  0
 25 33  1  0  0  0  0
 27 28  1  1  0  0  0
 27 34  1  0  0  0  0
 29 30  1  0  0  0  0
 29 36  1  1  0  0  0
 31 32  1  1  0  0  0
 31 38  1  0  0  0  0
 34 35  1  0  0  0  0
 34 40  1  1  0  0  0
 36 37  1  0  0  0  0
 38 39  1  6  0  0  0
 40 41  1  0  0  0  0
M  END
>  <CHROM.1>
-69.86823824,166.00095155,176.99779230,159.84637159,43.31473999,28.23657113
-0.66570384,0.95263850,-0.29249240,0.33207475

>  <Name>
ligand

>  <RI>
0

>  <Rbt.Current_Directory>
/home/itssahil/PROJECTS/Mol_Feturizer/New_Systems/rnas/1ZZ5

>  <Rbt.Executable>
rbdock ($Id: //depot/dev/client3/rdock/2013.1/src/exe/rbdock.cxx#4 $)

>  <Rbt.Library>
libRbt.so (2013.1, Build901 2013/11/27)

>  <Rbt.Parameter_File>
/export/apps/rDock/src/rDock_2013.1_src/data/scripts/dock_solv.prm

>  <Rbt.Receptor>
prm/blind_docking_100.prm

>  <SCORE>
40.774

>  <SCORE.INTER>
2.53496

>  <SCORE.INTER.CONST>
1

>  <SCORE.INTER.POLAR>
0

>  <SCORE.INTER.ROT>
4

>  <SCORE.INTER.SOLV>
17.483

>  <SCORE.INTER.VDW>
-10.4043

>  <SCORE.INTER.norm>
0.0618284

>  <SCORE.INTRA>
3.17913

>  <SCORE.INTRA.DIHEDRAL>
-2.22782

>  <SCORE.INTRA.DIHEDRAL.0>
5.18357

>  <SCORE.INTRA.POLAR>
0

>  <SCORE.INTRA.POLAR.0>
0

>  <SCORE.INTRA.REPUL>
0

>  <SCORE.INTRA.REPUL.0>
0

>  <SCORE.INTRA.SOLV>
5.91161

>  <SCORE.INTRA.SOLV.lig_0>
-109.973

>  <SCORE.INTRA.VDW>
1.33723

>  <SCORE.INTRA.VDW.0>
-1.68646

>  <SCORE.INTRA.norm>
0.0775396

>  <SCORE.RESTR>
35.0599

>  <SCORE.RESTR.CAVITY>
35.0599

>  <SCORE.RESTR.norm>
0.85512

>  <SCORE.SYSTEM>
0

>  <SCORE.SYSTEM.CONST>
0

>  <SCORE.SYSTEM.DIHEDRAL>
0

>  <SCORE.SYSTEM.SOLV>
0

>  <SCORE.SYSTEM.norm>
0

>  <SCORE.heavy>
41

>  <SCORE.norm>
0.994488

>  <RMSD>
16.685

$$$$
ligand
 OpenBabel11021811423D
libRbt.so/2013.1/901 2013/11/27
 41 45  0  0  0  0  0  0  0  0999 V2000
   43.2929   30.2084    0.9397 C   0  0  2  0  0  0  0  0  0  0  0  0
   44.3940   29.5792    0.2554 O   0  0  0  0  0  0  0  0  0  0  0  0
   46.2832   25.6634    0.3784 C   0  0  2  0  0  0  0  0  0  0  0  0
   46.8972   24.4263    0.9260 N   0  0  0  0  0  0  0  0  0  0  0  0
   41.7344   26.7241   -0.6505 C   0  0  1  0  0  0  0  0  0  0  0  0
   39.6624   25.8603   -3.1176 C   0  0  1  0  0  0  0  0  0  0  0  0
   42.4446   31.0741   -0.0394 C   0  0  2  0  0  0  0  0  0  0  0  0
   41.9862   30.3257   -1.2136 N   0  0  0  0  0  0  0  0  0  0  0  0
   47.0344   26.9023    0.9605 C   0  0  0  0  0  0  0  0  0  0  0  0
   40.2749   26.6771   -0.1432 C   0  0  2  0  0  0  0  0  0  0  0  0
   39.7963   25.3337   -0.0208 O   0  0  0  0  0  0  0  0  0  0  0  0
   39.0828   24.3970   -3.3300 C   0  0  2  0  0  0  0  0  0  0  0  0
   38.8654   23.6367   -2.0613 N   0  0  0  0  0  0  0  0  0  0  0  0
   43.2508   32.3228   -0.4878 C   0  0  1  0  0  0  0  0  0  0  0  0
   42.4615   33.1256   -1.3617 O   0  0  0  0  0  0  0  0  0  0  0  0
   46.4280   28.2322    0.4260 C   0  0  2  0  0  0  0  0  0  0  0  0
   47.1962   29.3465    1.0125 N   0  0  0  0  0  0  0  0  0  0  0  0
   39.4818   27.5037   -1.1698 C   0  0  2  0  0  0  0  0  0  0  0  0
   38.8309   26.6521   -2.1948 O   0  0  0  0  0  0  0  0  0  0  0  0
   40.0452   23.5690   -4.2963 C   0  0  1  0  0  0  0  0  0  0  0  0
   40.0284   24.1061   -5.6372 O   0  0  0  0  0  0  0  0  0  0  0  0
   43.6872   33.1353    0.7532 C   0  0  2  0  0  0  0  0  0  0  0  0
   44.4063   34.2825    0.3520 O   0  0  0  0  0  0  0  0  0  0  0  0
   44.8991   28.3048    0.7745 C   0  0  2  0  0  0  0  0  0  0  0  0
   40.5298   28.4241   -1.7891 C   0  0  2  0  0  0  0  0  0  0  0  0
   41.7800   27.7704   -1.6222 O   0  0  0  0  0  0  0  0  0  0  0  0
   41.5390   23.5497   -3.7769 C   0  0  2  0  0  0  0  0  0  0  0  0
   41.6059   22.7919   -2.5572 O   0  0  0  0  0  0  0  0  0  0  0  0
   44.5439   32.2583    1.6879 C   0  0  2  0  0  0  0  0  0  0  0  0
   43.7533   31.0636    2.0586 O   0  0  0  0  0  0  0  0  0  0  0  0
   44.1389   27.0400    0.1304 C   0  0  2  0  0  0  0  0  0  0  0  0
   42.6850   27.0188    0.4457 O   0  0  0  0  0  0  0  0  0  0  0  0
   40.6237   29.7861   -1.1172 C   0  0  0  0  0  0  0  0  0  0  0  0
   42.0444   25.0311   -3.5438 C   0  0  1  0  0  0  0  0  0  0  0  0
   41.1023   25.8119   -2.6720 O   0  0  0  0  0  0  0  0  0  0  0  0
   44.9538   33.0736    2.9365 C   0  0  0  0  0  0  0  0  0  0  0  0
   45.9927   34.0928    2.6996 N   0  0  0  0  0  0  0  0  0  0  0  0
   44.7403   25.7362    0.6973 C   0  0  1  0  0  0  0  0  0  0  0  0
   44.0643   24.6113    0.1263 O   0  0  0  0  0  0  0  0  0  0  0  0
   43.5133   25.1075   -2.9746 C   0  0  0  0  0  0  0  0  0  0  0  0
   44.6153   24.7940   -3.9392 N   0  0  0  0  0  0  0  0  0  0  0  0
  1  2  1  6  0  0  0
  1  7  1  0  0  0  0
  1 30  1  0  0  0  0
  3  4  1  1  0  0  0
  3  9  1  0  0  0  0
  3 38  1  0  0  0  0
  5 10  1  0  0  0  0
  5 26  1  6  0  0  0
  5 32  1  0  0  0  0
  6 12  1  0  0  0  0
  6 35  1  0  0  0  0
  6 19  1  1  0  0  0
  7  8  1  6  0  0  0
  7 14  1  0  0  0  0
  8 33  1  0  0  0  0
  9 16  1  0  0  0  0
 10 11  1  6  0  0  0
 10 18  1  0  0  0  0
 12 13  1  1  0  0  0
 12 20  1  0  0  0  0
 14 15  1  6  0  0  0
 14 22  1  0  0  0  0
 16 17  1  1  0  0  0
 16 24  1  0  0  0  0
 18 19  1  6  0  0  0
 18 25  1  0  0  0  0
 20 21  1  6  0  0  0
 20 27  1  0  0  0  0
 22 23  1  6  0  0  0
 22 29  1  0  0  0  0
 24  2  1  6  0  0  0
 24 31  1  0  0  0  0
 25 26  1  1  0  0  0
 25 33  1  0  0  0  0
 27 28  1  1  0  0  0
 27 34  1  0  0  0  0
 29 30  1  0  0  0  0
 29 36  1  1  0  0  0
 31 32  1  1  0  0  0
 31 38  1  0  0  0  0
 34 35  1  0  0  0  0
 34 40  1  1  0  0  0
 36 37  1  0  0  0  0
 38 39  1  6  0  0  0
 40 41  1  0  0  0  0
M  END
>  <CHROM.1>
-64.29998033,137.77536174,-73.60139077,73.70019003,42.77631264,27.78850636
-0.79311270,1.08965386,-0.45872531,0.27574243

>  <Name>
ligand

>  <RI>
0

>  <Rbt.Current_Directory>
/home/itssahil/PROJECTS/Mol_Feturizer/New_Systems/rnas/1ZZ5

>  <Rbt.Executable>
rbdock ($Id: //depot/dev/client3/rdock/2013.1/src/exe/rbdock.cxx#4 $)

>  <Rbt.Library>
libRbt.so (2013.1, Build901 2013/11/27)

>  <Rbt.Parameter_File>
/export/apps/rDock/src/rDock_2013.1_src/data/scripts/dock_solv.prm

>  <Rbt.Receptor>
prm/blind_docking_100.prm

>  <SCORE>
49.0003

>  <SCORE.INTER>
3.02907

>  <SCORE.INTER.CONST>
1

>  <SCORE.INTER.POLAR>
0

>  <SCORE.INTER.ROT>
4

>  <SCORE.INTER.SOLV>
16.6278

>  <SCORE.INTER.VDW>
-9.78989

>  <SCORE.INTER.norm>
0.0738798

>  <SCORE.INTRA>
10.3457

>  <SCORE.INTRA.DIHEDRAL>
1.99176

>  <SCORE.INTRA.DIHEDRAL.0>
5.18357

>  <SCORE.INTRA.POLAR>
0

>  <SCORE.INTRA.POLAR.0>
0

>  <SCORE.INTRA.REPUL>
0

>  <SCORE.INTRA.REPUL.0>
0

>  <SCORE.INTRA.SOLV>
3.37246

>  <SCORE.INTRA.SOLV.lig_0>
-109.973

>  <SCORE.INTRA.VDW>
7.66359

>  <SCORE.INTRA.VDW.0>
-1.68646

>  <SCORE.INTRA.norm>
0.252334

>  <SCORE.RESTR>
35.6256

>  <SCORE.RESTR.CAVITY>
35.6256

>  <SCORE.RESTR.norm>
0.868916

>  <SCORE.SYSTEM>
0

>  <SCORE.SYSTEM.CONST>
0

>  <SCORE.SYSTEM.DIHEDRAL>
0

>  <SCORE.SYSTEM.SOLV>
0

>  <SCORE.SYSTEM.norm>
0

>  <SCORE.heavy>
41

>  <SCORE.norm>
1.19513

>  <RMSD>
16.700

$$$$
ligand
 OpenBabel11021811423D
libRbt.so/2013.1/901 2013/11/27
 41 45  0  0  0  0  0  0  0  0999 V2000
   44.3496   30.4356    1.1241 C   0  0  2  0  0  0  0  0  0  0  0  0
   45.2407   29.8974    0.1277 O   0  0  0  0  0  0  0  0  0  0  0  0
   47.0946   26.0310   -0.6017 C   0  0  2  0  0  0  0  0  0  0  0  0
   47.8258   24.7631   -0.3465 N   0  0  0  0  0  0  0  0  0  0  0  0
   42.4349   27.0779   -0.3449 C   0  0  1  0  0  0  0  0  0  0  0  0
   39.7733   26.5303   -2.3619 C   0  0  1  0  0  0  0  0  0  0  0  0
   43.2821   31.3682    0.4772 C   0  0  2  0  0  0  0  0  0  0  0  0
   42.5404   30.7208   -0.6090 N   0  0  0  0  0  0  0  0  0  0  0  0
   47.9703   27.2278   -0.1130 C   0  0  0  0  0  0  0  0  0  0  0  0
   41.1513   26.9511    0.5073 C   0  0  2  0  0  0  0  0  0  0  0  0
   40.7176   25.5916    0.6184 O   0  0  0  0  0  0  0  0  0  0  0  0
   38.7894   25.4662   -3.0114 C   0  0  2  0  0  0  0  0  0  0  0  0
   38.4009   24.3535   -2.0917 N   0  0  0  0  0  0  0  0  0  0  0  0
   43.9500   32.6710   -0.0395 C   0  0  1  0  0  0  0  0  0  0  0  0
   42.9662   33.5326   -0.6059 O   0  0  0  0  0  0  0  0  0  0  0  0
   47.2500   28.5872   -0.3487 C   0  0  2  0  0  0  0  0  0  0  0  0
   48.1431   29.6600    0.1281 N   0  0  0  0  0  0  0  0  0  0  0  0
   40.1252   27.8504   -0.2030 C   0  0  2  0  0  0  0  0  0  0  0  0
   39.2349   27.0821   -1.1067 O   0  0  0  0  0  0  0  0  0  0  0  0
   39.4413   24.8659   -4.3382 C   0  0  1  0  0  0  0  0  0  0  0  0
   39.5390   25.8690   -5.3731 O   0  0  0  0  0  0  0  0  0  0  0  0
   44.6875   33.3755    1.1226 C   0  0  2  0  0  0  0  0  0  0  0  0
   45.2830   34.5709    0.6637 O   0  0  0  0  0  0  0  0  0  0  0  0
   45.8593   28.5924    0.3794 C   0  0  2  0  0  0  0  0  0  0  0  0
   40.9834   28.8475   -0.9763 C   0  0  2  0  0  0  0  0  0  0  0  0
   42.2343   28.2100   -1.1928 O   0  0  0  0  0  0  0  0  0  0  0  0
   40.8811   24.2659   -4.0765 C   0  0  2  0  0  0  0  0  0  0  0  0
   40.7639   23.1021   -3.2409 O   0  0  0  0  0  0  0  0  0  0  0  0
   45.7518   32.4359    1.7236 C   0  0  2  0  0  0  0  0  0  0  0  0
   45.0793   31.1945    2.1666 O   0  0  0  0  0  0  0  0  0  0  0  0
   44.9592   27.3753   -0.1692 C   0  0  2  0  0  0  0  0  0  0  0  0
   43.6324   27.2920    0.4991 O   0  0  0  0  0  0  0  0  0  0  0  0
   41.2460   30.1437   -0.2237 C   0  0  0  0  0  0  0  0  0  0  0  0
   41.7999   25.3569   -3.3910 C   0  0  1  0  0  0  0  0  0  0  0  0
   41.1509   25.9470   -2.1714 O   0  0  0  0  0  0  0  0  0  0  0  0
   46.4655   33.1420    2.8999 C   0  0  0  0  0  0  0  0  0  0  0  0
   47.2567   34.3284    2.5248 N   0  0  0  0  0  0  0  0  0  0  0  0
   45.6829   26.0390    0.1015 C   0  0  1  0  0  0  0  0  0  0  0  0
   44.8829   24.9562   -0.3847 O   0  0  0  0  0  0  0  0  0  0  0  0
   43.2451   24.8284   -3.0451 C   0  0  0  0  0  0  0  0  0  0  0  0
   44.2443   25.8601   -2.6204 N   0  0  0  0  0  0  0  0  0  0  0  0
  1  2  1  6  0  0  0
  1  7  1  0  0  0  0
  1 30  1  0  0  0  0
  3  4  1  1  0  0  0
  3  9  1  0  0  0  0
  3 38  1  0  0  0  0
  5 10  1  0  0  0  0
  5 26  1  6  0  0  0
  5 32  1  0  0  0  0
  6 12  1  0  0  0  0
  6 35  1  0  0  0  0
  6 19  1  1  0  0  0
  7  8  1  6  0  0  0
  7 14  1  0  0  0  0
  8 33  1  0  0  0  0
  9 16  1  0  0  0  0
 10 11  1  6  0  0  0
 10 18  1  0  0  0  0
 12 13  1  1  0  0  0
 12 20  1  0  0  0  0
 14 15  1  1  0  0  0
 14 22  1  0  0  0  0
 16 17  1  1  0  0  0
 16 24  1  0  0  0  0
 18 19  1  6  0  0  0
 18 25  1  0  0  0  0
 20 21  1  6  0  0  0
 20 27  1  0  0  0  0
 22 23  1  6  0  0  0
 22 29  1  0  0  0  0
 24  2  1  6  0  0  0
 24 31  1  0  0  0  0
 25 26  1  1  0  0  0
 25 33  1  0  0  0  0
 27 28  1  1  0  0  0
 27 34  1  0  0  0  0
 29 30  1  0  0  0  0
 29 36  1  1  0  0  0
 31 32  1  1  0  0  0
 31 38  1  0  0  0  0
 34 35  1  0  0  0  0
 34 40  1  1  0  0  0
 36 37  1  0  0  0  0
 38 39  1  6  0  0  0
 40 41  1  0  0  0  0
M  END
>  <CHROM.1>
-71.40718826,166.33611984,-64.98507541,169.56821878,43.30168018,28.20372085
-0.68471954,0.96233554,-0.27101030,0.32946509

>  <Name>
ligand

>  <RI>
0

>  <Rbt.Current_Directory>
/home/itssahil/PROJECTS/Mol_Feturizer/New_Systems/rnas/1ZZ5

>  <Rbt.Executable>
rbdock ($Id: //depot/dev/client3/rdock/2013.1/src/exe/rbdock.cxx#4 $)

>  <Rbt.Library>
libRbt.so (2013.1, Build901 2013/11/27)

>  <Rbt.Parameter_File>
/export/apps/rDock/src/rDock_2013.1_src/data/scripts/dock_solv.prm

>  <Rbt.Receptor>
prm/blind_docking_100.prm

>  <SCORE>
41.4974

>  <SCORE.INTER>
2.2395

>  <SCORE.INTER.CONST>
1

>  <SCORE.INTER.POLAR>
0

>  <SCORE.INTER.ROT>
4

>  <SCORE.INTER.SOLV>
17.1147

>  <SCORE.INTER.VDW>
-10.4785

>  <SCORE.INTER.norm>
0.054622

>  <SCORE.INTRA>
3.9865

>  <SCORE.INTRA.DIHEDRAL>
-2.99277

>  <SCORE.INTRA.DIHEDRAL.0>
5.18357

>  <SCORE.INTRA.POLAR>
0

>  <SCORE.INTRA.POLAR.0>
0

>  <SCORE.INTRA.REPUL>
0

>  <SCORE.INTRA.REPUL.0>
0

>  <SCORE.INTRA.SOLV>
7.7024

>  <SCORE.INTRA.SOLV.lig_0>
-109.973

>  <SCORE.INTRA.VDW>
1.63168

>  <SCORE.INTRA.VDW.0>
-1.68646

>  <SCORE.INTRA.norm>
0.0972317

>  <SCORE.RESTR>
35.2714

>  <SCORE.RESTR.CAVITY>
35.2714

>  <SCORE.RESTR.norm>
0.860277

>  <SCORE.SYSTEM>
0

>  <SCORE.SYSTEM.CONST>
0

>  <SCORE.SYSTEM.DIHEDRAL>
0

>  <SCORE.SYSTEM.SOLV>
0

>  <SCORE.SYSTEM.norm>
0

>  <SCORE.heavy>
41

>  <SCORE.norm>
1.01213

>  <RMSD>
16.721

$$$$
ligand
 OpenBabel11021811423D
libRbt.so/2013.1/901 2013/11/27
 41 45  0  0  0  0  0  0  0  0999 V2000
   43.2657   30.2117    0.8405 C   0  0  2  0  0  0  0  0  0  0  0  0
   44.3665   29.5468    0.1904 O   0  0  0  0  0  0  0  0  0  0  0  0
   46.2369   25.6324    0.5011 C   0  0  2  0  0  0  0  0  0  0  0  0
   46.8431   24.4191    1.1075 N   0  0  0  0  0  0  0  0  0  0  0  0
   41.6972   26.6650   -0.5941 C   0  0  1  0  0  0  0  0  0  0  0  0
   39.6275   25.7931   -3.1115 C   0  0  1  0  0  0  0  0  0  0  0  0
   42.4253   31.0353   -0.1808 C   0  0  2  0  0  0  0  0  0  0  0  0
   41.9680   30.2357   -1.3212 N   0  0  0  0  0  0  0  0  0  0  0  0
   46.9917   26.8934    1.0286 C   0  0  0  0  0  0  0  0  0  0  0  0
   40.2355   26.6479   -0.0911 C   0  0  2  0  0  0  0  0  0  0  0  0
   39.7502   25.3138    0.0911 O   0  0  0  0  0  0  0  0  0  0  0  0
   39.0588   24.3353   -3.3828 C   0  0  2  0  0  0  0  0  0  0  0  0
   38.8627   23.5171   -2.1471 N   0  0  0  0  0  0  0  0  0  0  0  0
   43.2390   32.2584   -0.6830 C   0  0  1  0  0  0  0  0  0  0  0  0
   42.4569   33.0237   -1.5961 O   0  0  0  0  0  0  0  0  0  0  0  0
   46.3936   28.2000    0.4310 C   0  0  2  0  0  0  0  0  0  0  0  0
   47.1647   29.3367    0.9688 N   0  0  0  0  0  0  0  0  0  0  0  0
   39.4502   27.4299   -1.1578 C   0  0  2  0  0  0  0  0  0  0  0  0
   38.7993   26.5350   -2.1452 O   0  0  0  0  0  0  0  0  0  0  0  0
   40.0178   23.5605   -4.3956 C   0  0  1  0  0  0  0  0  0  0  0  0
   39.9809   24.1567   -5.7108 O   0  0  0  0  0  0  0  0  0  0  0  0
   43.6744   33.1252    0.5212 C   0  0  2  0  0  0  0  0  0  0  0  0
   44.4004   34.2495    0.0705 O   0  0  0  0  0  0  0  0  0  0  0  0
   44.8637   28.2954    0.7696 C   0  0  2  0  0  0  0  0  0  0  0  0
   40.5049   28.3161   -1.8145 C   0  0  2  0  0  0  0  0  0  0  0  0
   41.7514   27.6653   -1.6126 O   0  0  0  0  0  0  0  0  0  0  0  0
   41.5174   23.5324   -3.8938 C   0  0  2  0  0  0  0  0  0  0  0  0
   41.6050   22.7216   -2.7100 O   0  0  0  0  0  0  0  0  0  0  0  0
   44.5234   32.2883    1.4987 C   0  0  2  0  0  0  0  0  0  0  0  0
   43.7258   31.1155    1.9208 O   0  0  0  0  0  0  0  0  0  0  0  0
   44.1001   27.0057    0.1813 C   0  0  2  0  0  0  0  0  0  0  0  0
   42.6449   27.0056    0.4913 O   0  0  0  0  0  0  0  0  0  0  0  0
   40.6025   29.7072   -1.2056 C   0  0  0  0  0  0  0  0  0  0  0  0
   42.0120   25.0067   -3.6002 C   0  0  1  0  0  0  0  0  0  0  0  0
   41.0727   25.7387   -2.6842 O   0  0  0  0  0  0  0  0  0  0  0  0
   44.9323   33.1584    2.7101 C   0  0  0  0  0  0  0  0  0  0  0  0
   45.9442   34.1910    2.4202 N   0  0  0  0  0  0  0  0  0  0  0  0
   44.6932   25.7267    0.8101 C   0  0  1  0  0  0  0  0  0  0  0  0
   44.0142   24.5797    0.2886 O   0  0  0  0  0  0  0  0  0  0  0  0
   43.4865   25.0717   -3.0442 C   0  0  0  0  0  0  0  0  0  0  0  0
   43.8798   23.9945   -2.0807 N   0  0  0  0  0  0  0  0  0  0  0  0
  1  2  1  6  0  0  0
  1  7  1  0  0  0  0
  1 30  1  0  0  0  0
  3  4  1  1  0  0  0
  3  9  1  0  0  0  0
  3 38  1  0  0  0  0
  5 10  1  0  0  0  0
  5 26  1  6  0  0  0
  5 32  1  0  0  0  0
  6 12  1  0  0  0  0
  6 35  1  0  0  0  0
  6 19  1  1  0  0  0
  7  8  1  6  0  0  0
  7 14  1  0  0  0  0
  8 33  1  0  0  0  0
  9 16  1  0  0  0  0
 10 11  1  6  0  0  0
 10 18  1  0  0  0  0
 12 13  1  1  0  0  0
 12 20  1  0  0  0  0
 14 15  1  6  0  0  0
 14 22  1  0  0  0  0
 16 17  1  1  0  0  0
 16 24  1  0  0  0  0
 18 19  1  6  0  0  0
 18 25  1  0  0  0  0
 20 21  1  6  0  0  0
 20 27  1  0  0  0  0
 22 23  1  6  0  0  0
 22 29  1  0  0  0  0
 24  2  1  6  0  0  0
 24 31  1  0  0  0  0
 25 26  1  1  0  0  0
 25 33  1  0  0  0  0
 27 28  1  1  0  0  0
 27 34  1  0  0  0  0
 29 30  1  0  0  0  0
 29 36  1  1  0  0  0
 31 32  1  1  0  0  0
 31 38  1  0  0  0  0
 34 35  1  0  0  0  0
 34 40  1  1  0  0  0
 36 37  1  0  0  0  0
 38 39  1  6  0  0  0
 40 41  1  0  0  0  0
M  END
>  <CHROM.1>
-69.99558620,142.55893690,-71.64778340,-38.56022456,42.72994333,27.73695694
-0.79776181,1.06767357,-0.50365960,0.21658884

>  <Name>
ligand

>  <RI>
0

>  <Rbt.Current_Directory>
/home/itssahil/PROJECTS/Mol_Feturizer/New_Systems/rnas/1ZZ5

>  <Rbt.Executable>
rbdock ($Id: //depot/dev/client3/rdock/2013.1/src/exe/rbdock.cxx#4 $)

>  <Rbt.Library>
libRbt.so (2013.1, Build901 2013/11/27)

>  <Rbt.Parameter_File>
/export/apps/rDock/src/rDock_2013.1_src/data/scripts/dock_solv.prm

>  <Rbt.Receptor>
prm/blind_docking_100.prm

>  <SCORE>
49.997

>  <SCORE.INTER>
2.54789

>  <SCORE.INTER.CONST>
1

>  <SCORE.INTER.POLAR>
0

>  <SCORE.INTER.ROT>
4

>  <SCORE.INTER.SOLV>
12.7028

>  <SCORE.INTER.VDW>
-8.80234

>  <SCORE.INTER.norm>
0.0621436

>  <SCORE.INTRA>
11.5069

>  <SCORE.INTRA.DIHEDRAL>
2.25262

>  <SCORE.INTRA.DIHEDRAL.0>
5.18357

>  <SCORE.INTRA.POLAR>
0

>  <SCORE.INTRA.POLAR.0>
0

>  <SCORE.INTRA.REPUL>
0

>  <SCORE.INTRA.REPUL.0>
0

>  <SCORE.INTRA.SOLV>
8.02997

>  <SCORE.INTRA.SOLV.lig_0>
-109.973

>  <SCORE.INTRA.VDW>
6.36556

>  <SCORE.INTRA.VDW.0>
-1.68646

>  <SCORE.INTRA.norm>
0.280655

>  <SCORE.RESTR>
35.9423

>  <SCORE.RESTR.CAVITY>
35.9423

>  <SCORE.RESTR.norm>
0.876641

>  <SCORE.SYSTEM>
0

>  <SCORE.SYSTEM.CONST>
0

>  <SCORE.SYSTEM.DIHEDRAL>
0

>  <SCORE.SYSTEM.SOLV>
0

>  <SCORE.SYSTEM.norm>
0

>  <SCORE.heavy>
41

>  <SCORE.norm>
1.21944

>  <RMSD>
16.723

$$$$
ligand
 OpenBabel11021811423D
libRbt.so/2013.1/901 2013/11/27
 41 45  0  0  0  0  0  0  0  0999 V2000
   43.2998   30.2345    0.7719 C   0  0  2  0  0  0  0  0  0  0  0  0
   44.3929   29.5585    0.1203 O   0  0  0  0  0  0  0  0  0  0  0  0
   46.2527   25.6415    0.4597 C   0  0  2  0  0  0  0  0  0  0  0  0
   46.8598   24.4330    1.0748 N   0  0  0  0  0  0  0  0  0  0  0  0
   41.7076   26.6773   -0.6097 C   0  0  1  0  0  0  0  0  0  0  0  0
   39.6133   25.7949   -3.1092 C   0  0  1  0  0  0  0  0  0  0  0  0
   42.4537   31.0494   -0.2517 C   0  0  2  0  0  0  0  0  0  0  0  0
   41.9843   30.2386   -1.3793 N   0  0  0  0  0  0  0  0  0  0  0  0
   47.0161   26.9057    0.9668 C   0  0  0  0  0  0  0  0  0  0  0  0
   40.2501   26.6709   -0.0946 C   0  0  2  0  0  0  0  0  0  0  0  0
   39.7618   25.3406    0.1066 O   0  0  0  0  0  0  0  0  0  0  0  0
   38.9522   24.4035   -3.4954 C   0  0  2  0  0  0  0  0  0  0  0  0
   38.6369   23.5313   -2.3228 N   0  0  0  0  0  0  0  0  0  0  0  0
   43.2673   32.2640   -0.7743 C   0  0  1  0  0  0  0  0  0  0  0  0
   42.4803   33.0217   -1.6895 O   0  0  0  0  0  0  0  0  0  0  0  0
   46.4174   28.2075    0.3594 C   0  0  2  0  0  0  0  0  0  0  0  0
   47.1967   29.3476    0.8780 N   0  0  0  0  0  0  0  0  0  0  0  0
   39.4587   27.4435   -1.1636 C   0  0  2  0  0  0  0  0  0  0  0  0
   38.7966   26.5398   -2.1354 O   0  0  0  0  0  0  0  0  0  0  0  0
   39.8988   23.6184   -4.5118 C   0  0  1  0  0  0  0  0  0  0  0  0
   39.9694   24.2922   -5.7877 O   0  0  0  0  0  0  0  0  0  0  0  0
   43.7156   33.1428    0.4163 C   0  0  2  0  0  0  0  0  0  0  0  0
   44.4416   34.2594   -0.0529 O   0  0  0  0  0  0  0  0  0  0  0  0
   44.8907   28.3120    0.7095 C   0  0  2  0  0  0  0  0  0  0  0  0
   40.5109   28.3187   -1.8389 C   0  0  2  0  0  0  0  0  0  0  0  0
   41.7568   27.6658   -1.6399 O   0  0  0  0  0  0  0  0  0  0  0  0
   41.3665   23.4459   -3.9481 C   0  0  2  0  0  0  0  0  0  0  0  0
   41.3369   22.5625   -2.8144 O   0  0  0  0  0  0  0  0  0  0  0  0
   44.5698   32.3140    1.3963 C   0  0  2  0  0  0  0  0  0  0  0  0
   43.7718   31.1488    1.8381 O   0  0  0  0  0  0  0  0  0  0  0  0
   44.1180   27.0184    0.1420 C   0  0  2  0  0  0  0  0  0  0  0  0
   42.6653   27.0268    0.4640 O   0  0  0  0  0  0  0  0  0  0  0  0
   40.6181   29.7162   -1.2465 C   0  0  0  0  0  0  0  0  0  0  0  0
   41.9539   24.8581   -3.5418 C   0  0  1  0  0  0  0  0  0  0  0  0
   41.0283   25.6048   -2.6237 O   0  0  0  0  0  0  0  0  0  0  0  0
   44.9915   33.1963    2.5943 C   0  0  0  0  0  0  0  0  0  0  0  0
   45.9040   32.5470    3.5535 N   0  0  0  0  0  0  0  0  0  0  0  0
   44.7120   25.7446    0.7803 C   0  0  1  0  0  0  0  0  0  0  0  0
   44.0248   24.5941    0.2774 O   0  0  0  0  0  0  0  0  0  0  0  0
   43.4007   24.7771   -2.9192 C   0  0  0  0  0  0  0  0  0  0  0  0
   44.0459   26.0826   -2.5691 N   0  0  0  0  0  0  0  0  0  0  0  0
  1  2  1  6  0  0  0
  1  7  1  0  0  0  0
  1 30  1  0  0  0  0
  3  4  1  1  0  0  0
  3  9  1  0  0  0  0
  3 38  1  0  0  0  0
  5 10  1  0  0  0  0
  5 26  1  6  0  0  0
  5 32  1  0  0  0  0
  6 12  1  0  0  0  0
  6 35  1  0  0  0  0
  6 19  1  1  0  0  0
  7  8  1  6  0  0  0
  7 14  1  0  0  0  0
  8 33  1  0  0  0  0
  9 16  1  0  0  0  0
 10 11  1  6  0  0  0
 10 18  1  0  0  0  0
 12 13  1  1  0  0  0
 12 20  1  0  0  0  0
 14 15  1  6  0  0  0
 14 22  1  0  0  0  0
 16 17  1  1  0  0  0
 16 24  1  0  0  0  0
 18 19  1  6  0  0  0
 18 25  1  0  0  0  0
 20 21  1  6  0  0  0
 20 27  1  0  0  0  0
 22 23  1  6  0  0  0
 22 29  1  0  0  0  0
 24  2  1  6  0  0  0
 24 31  1  0  0  0  0
 25 26  1  1  0  0  0
 25 33  1  0  0  0  0
 27 28  1  1  0  0  0
 27 34  1  0  0  0  0
 29 30  1  0  0  0  0
 29 36  1  1  0  0  0
 31 32  1  1  0  0  0
 31 38  1  0  0  0  0
 34 35  1  0  0  0  0
 34 40  1  1  0  0  0
 36 37  1  0  0  0  0
 38 39  1  6  0  0  0
 40 41  1  0  0  0  0
M  END
>  <CHROM.1>
-70.62276103,149.45372643,-175.40229434,177.27617251,42.72264102,27.74409113
-0.82911999,1.02002912,-0.51728722,0.21653405

>  <Name>
ligand

>  <RI>
0

>  <Rbt.Current_Directory>
/home/itssahil/PROJECTS/Mol_Feturizer/New_Systems/rnas/1ZZ5

>  <Rbt.Executable>
rbdock ($Id: //depot/dev/client3/rdock/2013.1/src/exe/rbdock.cxx#4 $)

>  <Rbt.Library>
libRbt.so (2013.1, Build901 2013/11/27)

>  <Rbt.Parameter_File>
/export/apps/rDock/src/rDock_2013.1_src/data/scripts/dock_solv.prm

>  <Rbt.Receptor>
prm/blind_docking_100.prm

>  <SCORE>
43.9706

>  <SCORE.INTER>
1.92534

>  <SCORE.INTER.CONST>
1

>  <SCORE.INTER.POLAR>
0

>  <SCORE.INTER.ROT>
4

>  <SCORE.INTER.SOLV>
16.2088

>  <SCORE.INTER.VDW>
-10.386

>  <SCORE.INTER.norm>
0.0469595

>  <SCORE.INTRA>
7.33546

>  <SCORE.INTRA.DIHEDRAL>
-0.694063

>  <SCORE.INTRA.DIHEDRAL.0>
5.18357

>  <SCORE.INTRA.POLAR>
0

>  <SCORE.INTRA.POLAR.0>
0

>  <SCORE.INTRA.REPUL>
0

>  <SCORE.INTRA.REPUL.0>
0

>  <SCORE.INTRA.SOLV>
7.38782

>  <SCORE.INTRA.SOLV.lig_0>
-109.973

>  <SCORE.INTRA.VDW>
3.98858

>  <SCORE.INTRA.VDW.0>
-1.68646

>  <SCORE.INTRA.norm>
0.178914

>  <SCORE.RESTR>
34.7098

>  <SCORE.RESTR.CAVITY>
34.7098

>  <SCORE.RESTR.norm>
0.84658

>  <SCORE.SYSTEM>
0

>  <SCORE.SYSTEM.CONST>
0

>  <SCORE.SYSTEM.DIHEDRAL>
0

>  <SCORE.SYSTEM.SOLV>
0

>  <SCORE.SYSTEM.norm>
0

>  <SCORE.heavy>
41

>  <SCORE.norm>
1.07245

>  <RMSD>
16.726

$$$$
ligand
 OpenBabel11021811423D
libRbt.so/2013.1/901 2013/11/27
 41 45  0  0  0  0  0  0  0  0999 V2000
   43.2963   30.2243    0.7686 C   0  0  2  0  0  0  0  0  0  0  0  0
   44.3876   29.5419    0.1206 O   0  0  0  0  0  0  0  0  0  0  0  0
   46.2284   25.6169    0.4716 C   0  0  2  0  0  0  0  0  0  0  0  0
   46.8286   24.4069    1.0904 N   0  0  0  0  0  0  0  0  0  0  0  0
   41.6904   26.6718   -0.6094 C   0  0  1  0  0  0  0  0  0  0  0  0
   39.5967   25.7994   -3.1161 C   0  0  1  0  0  0  0  0  0  0  0  0
   42.4562   31.0411   -0.2585 C   0  0  2  0  0  0  0  0  0  0  0  0
   41.9854   30.2302   -1.3854 N   0  0  0  0  0  0  0  0  0  0  0  0
   46.9966   26.8786    0.9779 C   0  0  0  0  0  0  0  0  0  0  0  0
   40.2318   26.6732   -0.0974 C   0  0  2  0  0  0  0  0  0  0  0  0
   39.7369   25.3455    0.1053 O   0  0  0  0  0  0  0  0  0  0  0  0
   38.9343   24.4083   -3.5011 C   0  0  2  0  0  0  0  0  0  0  0  0
   38.6206   23.5364   -2.3279 N   0  0  0  0  0  0  0  0  0  0  0  0
   43.2765   32.2509   -0.7817 C   0  0  1  0  0  0  0  0  0  0  0  0
   42.4949   33.0103   -1.7001 O   0  0  0  0  0  0  0  0  0  0  0  0
   46.4053   28.1820    0.3667 C   0  0  2  0  0  0  0  0  0  0  0  0
   47.1888   29.3194    0.8846 N   0  0  0  0  0  0  0  0  0  0  0  0
   39.4463   27.4474   -1.1696 C   0  0  2  0  0  0  0  0  0  0  0  0
   38.7821   26.5448   -2.1410 O   0  0  0  0  0  0  0  0  0  0  0  0
   39.8789   23.6227   -4.5190 C   0  0  1  0  0  0  0  0  0  0  0  0
   39.9477   24.2963   -5.7951 O   0  0  0  0  0  0  0  0  0  0  0  0
   43.7263   33.1299    0.4082 C   0  0  2  0  0  0  0  0  0  0  0  0
   44.4585   34.2422   -0.0617 O   0  0  0  0  0  0  0  0  0  0  0  0
   44.8783   28.2943    0.7133 C   0  0  2  0  0  0  0  0  0  0  0  0
   40.5040   28.3163   -1.8443 C   0  0  2  0  0  0  0  0  0  0  0  0
   41.7464   27.6580   -1.6414 O   0  0  0  0  0  0  0  0  0  0  0  0
   41.3474   23.4496   -3.9577 C   0  0  2  0  0  0  0  0  0  0  0  0
   41.3193   22.5662   -2.8239 O   0  0  0  0  0  0  0  0  0  0  0  0
   44.5746   32.2991    1.3915 C   0  0  2  0  0  0  0  0  0  0  0  0
   43.7702   31.1385    1.8339 O   0  0  0  0  0  0  0  0  0  0  0  0
   44.1008   27.0032    0.1468 C   0  0  2  0  0  0  0  0  0  0  0  0
   42.6475   27.0190    0.4656 O   0  0  0  0  0  0  0  0  0  0  0  0
   40.6165   29.7144   -1.2545 C   0  0  0  0  0  0  0  0  0  0  0  0
   41.9362   24.8615   -3.5525 C   0  0  1  0  0  0  0  0  0  0  0  0
   41.0125   25.6087   -2.6329 O   0  0  0  0  0  0  0  0  0  0  0  0
   44.9979   33.1817    2.5888 C   0  0  0  0  0  0  0  0  0  0  0  0
   45.9019   32.5287    3.5534 N   0  0  0  0  0  0  0  0  0  0  0  0
   44.6875   25.7279    0.7888 C   0  0  1  0  0  0  0  0  0  0  0  0
   43.9960   24.5796    0.2867 O   0  0  0  0  0  0  0  0  0  0  0  0
   43.3840   24.7798   -2.9323 C   0  0  0  0  0  0  0  0  0  0  0  0
   44.0273   26.0846   -2.5761 N   0  0  0  0  0  0  0  0  0  0  0  0
  1  2  1  6  0  0  0
  1  7  1  0  0  0  0
  1 30  1  0  0  0  0
  3  4  1  1  0  0  0
  3  9  1  0  0  0  0
  3 38  1  0  0  0  0
  5 10  1  0  0  0  0
  5 26  1  6  0  0  0
  5 32  1  0  0  0  0
  6 12  1  0  0  0  0
  6 35  1  0  0  0  0
  6 19  1  1  0  0  0
  7  8  1  6  0  0  0
  7 14  1  0  0  0  0
  8 33  1  0  0  0  0
  9 16  1  0  0  0  0
 10 11  1  6  0  0  0
 10 18  1  0  0  0  0
 12 13  1  1  0  0  0
 12 20  1  0  0  0  0
 14 15  1  6  0  0  0
 14 22  1  0  0  0  0
 16 17  1  1  0  0  0
 16 24  1  0  0  0  0
 18 19  1  6  0  0  0
 18 25  1  0  0  0  0
 20 21  1  6  0  0  0
 20 27  1  0  0  0  0
 22 23  1  6  0  0  0
 22 29  1  0  0  0  0
 24  2  1  6  0  0  0
 24 31  1  0  0  0  0
 25 26  1  1  0  0  0
 25 33  1  0  0  0  0
 27 28  1  1  0  0  0
 27 34  1  0  0  0  0
 29 30  1  0  0  0  0
 29 36  1  1  0  0  0
 31 32  1  1  0  0  0
 31 38  1  0  0  0  0
 34 35  1  0  0  0  0
 34 40  1  1  0  0  0
 36 37  1  0  0  0  0
 38 39  1  6  0  0  0
 40 41  1  0  0  0  0
M  END
>  <CHROM.1>
-70.93183157,149.39895592,-175.58733348,177.61341023,42.71179004,27.73641210
-0.83178489,1.01487441,-0.52140692,0.21306341

>  <Name>
ligand

>  <RI>
0

>  <Rbt.Current_Directory>
/home/itssahil/PROJECTS/Mol_Feturizer/New_Systems/rnas/1ZZ5

>  <Rbt.Executable>
rbdock ($Id: //depot/dev/client3/rdock/2013.1/src/exe/rbdock.cxx#4 $)

>  <Rbt.Library>
libRbt.so (2013.1, Build901 2013/11/27)

>  <Rbt.Parameter_File>
/export/apps/rDock/src/rDock_2013.1_src/data/scripts/dock_solv.prm

>  <Rbt.Receptor>
prm/blind_docking_100.prm

>  <SCORE>
44.2164

>  <SCORE.INTER>
2.29315

>  <SCORE.INTER.CONST>
1

>  <SCORE.INTER.POLAR>
0

>  <SCORE.INTER.ROT>
4

>  <SCORE.INTER.SOLV>
16.2533

>  <SCORE.INTER.VDW>
-10.1557

>  <SCORE.INTER.norm>
0.0559305

>  <SCORE.INTRA>
7.2814

>  <SCORE.INTRA.DIHEDRAL>
-0.665895

>  <SCORE.INTRA.DIHEDRAL.0>
5.18357

>  <SCORE.INTRA.POLAR>
0

>  <SCORE.INTRA.POLAR.0>
0

>  <SCORE.INTRA.REPUL>
0

>  <SCORE.INTRA.REPUL.0>
0

>  <SCORE.INTRA.SOLV>
7.35308

>  <SCORE.INTRA.SOLV.lig_0>
-109.973

>  <SCORE.INTRA.VDW>
3.93781

>  <SCORE.INTRA.VDW.0>
-1.68646

>  <SCORE.INTRA.norm>
0.177595

>  <SCORE.RESTR>
34.6418

>  <SCORE.RESTR.CAVITY>
34.6418

>  <SCORE.RESTR.norm>
0.844922

>  <SCORE.SYSTEM>
0

>  <SCORE.SYSTEM.CONST>
0

>  <SCORE.SYSTEM.DIHEDRAL>
0

>  <SCORE.SYSTEM.SOLV>
0

>  <SCORE.SYSTEM.norm>
0

>  <SCORE.heavy>
41

>  <SCORE.norm>
1.07845

>  <RMSD>
16.730

$$$$
ligand
 OpenBabel11021811423D
libRbt.so/2013.1/901 2013/11/27
 41 45  0  0  0  0  0  0  0  0999 V2000
   43.2969   30.2109    0.7560 C   0  0  2  0  0  0  0  0  0  0  0  0
   44.3891   29.5195    0.1191 O   0  0  0  0  0  0  0  0  0  0  0  0
   46.2083   25.5876    0.5048 C   0  0  2  0  0  0  0  0  0  0  0  0
   46.7985   24.3783    1.1344 N   0  0  0  0  0  0  0  0  0  0  0  0
   41.6827   26.6583   -0.6120 C   0  0  1  0  0  0  0  0  0  0  0  0
   39.6014   25.7786   -3.1246 C   0  0  1  0  0  0  0  0  0  0  0  0
   42.4675   31.0258   -0.2812 C   0  0  2  0  0  0  0  0  0  0  0  0
   42.0001   30.2107   -1.4065 N   0  0  0  0  0  0  0  0  0  0  0  0
   46.9793   26.8485    1.0087 C   0  0  0  0  0  0  0  0  0  0  0  0
   40.2208   26.6698   -0.1095 C   0  0  2  0  0  0  0  0  0  0  0  0
   39.7181   25.3457    0.0976 O   0  0  0  0  0  0  0  0  0  0  0  0
   38.9374   24.3850   -3.4976 C   0  0  2  0  0  0  0  0  0  0  0  0
   38.6156   23.5268   -2.3166 N   0  0  0  0  0  0  0  0  0  0  0  0
   43.2972   32.2285   -0.8060 C   0  0  1  0  0  0  0  0  0  0  0  0
   42.5253   32.9865   -1.7338 O   0  0  0  0  0  0  0  0  0  0  0  0
   46.3984   28.1512    0.3862 C   0  0  2  0  0  0  0  0  0  0  0  0
   47.1841   29.2878    0.9027 N   0  0  0  0  0  0  0  0  0  0  0  0
   39.4460   27.4416   -1.1912 C   0  0  2  0  0  0  0  0  0  0  0  0
   38.7837   26.5367   -2.1618 O   0  0  0  0  0  0  0  0  0  0  0  0
   39.8850   23.5860   -4.5022 C   0  0  1  0  0  0  0  0  0  0  0  0
   39.9618   24.2455   -5.7852 O   0  0  0  0  0  0  0  0  0  0  0  0
   43.7436   33.1122    0.3817 C   0  0  2  0  0  0  0  0  0  0  0  0
   44.4842   34.2182   -0.0897 O   0  0  0  0  0  0  0  0  0  0  0  0
   44.8698   28.2729    0.7222 C   0  0  2  0  0  0  0  0  0  0  0  0
   40.5123   28.3014   -1.8641 C   0  0  2  0  0  0  0  0  0  0  0  0
   41.7502   27.6383   -1.6493 O   0  0  0  0  0  0  0  0  0  0  0  0
   41.3502   23.4154   -3.9316 C   0  0  2  0  0  0  0  0  0  0  0  0
   41.3142   22.5445   -2.7885 O   0  0  0  0  0  0  0  0  0  0  0  0
   44.5813   32.2829    1.3754 C   0  0  2  0  0  0  0  0  0  0  0  0
   43.7684   31.1289    1.8192 O   0  0  0  0  0  0  0  0  0  0  0  0
   44.0897   26.9823    0.1580 C   0  0  2  0  0  0  0  0  0  0  0  0
   42.6344   27.0070    0.4672 O   0  0  0  0  0  0  0  0  0  0  0  0
   40.6279   29.7024   -1.2815 C   0  0  0  0  0  0  0  0  0  0  0  0
   41.9406   24.8301   -3.5390 C   0  0  1  0  0  0  0  0  0  0  0  0
   41.0142   25.5896   -2.6323 O   0  0  0  0  0  0  0  0  0  0  0  0
   45.0012   33.1705    2.5703 C   0  0  0  0  0  0  0  0  0  0  0  0
   45.8956   32.5186    3.5445 N   0  0  0  0  0  0  0  0  0  0  0  0
   44.6659   25.7079    0.8112 C   0  0  1  0  0  0  0  0  0  0  0  0
   43.9721   24.5602    0.3112 O   0  0  0  0  0  0  0  0  0  0  0  0
   43.3850   24.7516   -2.9107 C   0  0  0  0  0  0  0  0  0  0  0  0
   44.0316   26.0589   -2.5695 N   0  0  0  0  0  0  0  0  0  0  0  0
  1  2  1  6  0  0  0
  1  7  1  0  0  0  0
  1 30  1  0  0  0  0
  3  4  1  1  0  0  0
  3  9  1  0  0  0  0
  3 38  1  0  0  0  0
  5 10  1  0  0  0  0
  5 26  1  6  0  0  0
  5 32  1  0  0  0  0
  6 12  1  0  0  0  0
  6 35  1  0  0  0  0
  6 19  1  1  0  0  0
  7  8  1  6  0  0  0
  7 14  1  0  0  0  0
  8 33  1  0  0  0  0
  9 16  1  0  0  0  0
 10 11  1  6  0  0  0
 10 18  1  0  0  0  0
 12 13  1  1  0  0  0
 12 20  1  0  0  0  0
 14 15  1  6  0  0  0
 14 22  1  0  0  0  0
 16 17  1  1  0  0  0
 16 24  1  0  0  0  0
 18 19  1  6  0  0  0
 18 25  1  0  0  0  0
 20 21  1  6  0  0  0
 20 27  1  0  0  0  0
 22 23  1  6  0  0  0
 22 29  1  0  0  0  0
 24  2  1  6  0  0  0
 24 31  1  0  0  0  0
 25 26  1  1  0  0  0
 25 33  1  0  0  0  0
 27 28  1  1  0  0  0
 27 34  1  0  0  0  0
 29 30  1  0  0  0  0
 29 36  1  1  0  0  0
 31 32  1  1  0  0  0
 31 38  1  0  0  0  0
 34 35  1  0  0  0  0
 34 40  1  1  0  0  0
 36 37  1  0  0  0  0
 38 39  1  6  0  0  0
 40 41  1  0  0  0  0
M  END
>  <CHROM.1>
-70.75086767,149.01225482,-175.58899495,177.42606866,42.71151496,27.71625457
-0.83182809,1.01159794,-0.52804336,0.20496443

>  <Name>
ligand

>  <RI>
0

>  <Rbt.Current_Directory>
/home/itssahil/PROJECTS/Mol_Feturizer/New_Systems/rnas/1ZZ5

>  <Rbt.Executable>
rbdock ($Id: //depot/dev/client3/rdock/2013.1/src/exe/rbdock.cxx#4 $)

>  <Rbt.Library>
libRbt.so (2013.1, Build901 2013/11/27)

>  <Rbt.Parameter_File>
/export/apps/rDock/src/rDock_2013.1_src/data/scripts/dock_solv.prm

>  <Rbt.Receptor>
prm/blind_docking_100.prm

>  <SCORE>
43.8449

>  <SCORE.INTER>
1.7359

>  <SCORE.INTER.CONST>
1

>  <SCORE.INTER.POLAR>
0

>  <SCORE.INTER.ROT>
4

>  <SCORE.INTER.SOLV>
16.1168

>  <SCORE.INTER.VDW>
-10.4817

>  <SCORE.INTER.norm>
0.042339

>  <SCORE.INTRA>
7.38313

>  <SCORE.INTRA.DIHEDRAL>
-0.60941

>  <SCORE.INTRA.DIHEDRAL.0>
5.18357

>  <SCORE.INTRA.POLAR>
0

>  <SCORE.INTRA.POLAR.0>
0

>  <SCORE.INTRA.REPUL>
0

>  <SCORE.INTRA.REPUL.0>
0

>  <SCORE.INTRA.SOLV>
7.34498

>  <SCORE.INTRA.SOLV.lig_0>
-109.973

>  <SCORE.INTRA.VDW>
4.01534

>  <SCORE.INTRA.VDW.0>
-1.68646

>  <SCORE.INTRA.norm>
0.180076

>  <SCORE.RESTR>
34.7258

>  <SCORE.RESTR.CAVITY>
34.7258

>  <SCORE.RESTR.norm>
0.846972

>  <SCORE.SYSTEM>
0

>  <SCORE.SYSTEM.CONST>
0

>  <SCORE.SYSTEM.DIHEDRAL>
0

>  <SCORE.SYSTEM.SOLV>
0

>  <SCORE.SYSTEM.norm>
0

>  <SCORE.heavy>
41

>  <SCORE.norm>
1.06939

>  <RMSD>
16.742

$$$$
ligand
 OpenBabel11021811423D
libRbt.so/2013.1/901 2013/11/27
 41 45  0  0  0  0  0  0  0  0999 V2000
   43.3050   30.2090    0.7204 C   0  0  2  0  0  0  0  0  0  0  0  0
   44.3947   29.5079    0.0898 O   0  0  0  0  0  0  0  0  0  0  0  0
   46.2058   25.5767    0.5175 C   0  0  2  0  0  0  0  0  0  0  0  0
   46.7942   24.3733    1.1599 N   0  0  0  0  0  0  0  0  0  0  0  0
   41.6809   26.6447   -0.6046 C   0  0  1  0  0  0  0  0  0  0  0  0
   39.5922   25.7565   -3.1175 C   0  0  1  0  0  0  0  0  0  0  0  0
   42.4759   31.0139   -0.3248 C   0  0  2  0  0  0  0  0  0  0  0  0
   42.0049   30.1871   -1.4400 N   0  0  0  0  0  0  0  0  0  0  0  0
   46.9804   26.8414    1.0059 C   0  0  0  0  0  0  0  0  0  0  0  0
   40.2198   26.6651   -0.1001 C   0  0  2  0  0  0  0  0  0  0  0  0
   39.7144   25.3447    0.1228 O   0  0  0  0  0  0  0  0  0  0  0  0
   38.9258   24.3643   -3.4918 C   0  0  2  0  0  0  0  0  0  0  0  0
   38.6091   23.5026   -2.3120 N   0  0  0  0  0  0  0  0  0  0  0  0
   43.3074   32.2087   -0.8645 C   0  0  1  0  0  0  0  0  0  0  0  0
   42.5358   32.9578   -1.7997 O   0  0  0  0  0  0  0  0  0  0  0  0
   46.4014   28.1383    0.3694 C   0  0  2  0  0  0  0  0  0  0  0  0
   47.1904   29.2789    0.8718 N   0  0  0  0  0  0  0  0  0  0  0  0
   39.4451   27.4263   -1.1894 C   0  0  2  0  0  0  0  0  0  0  0  0
   38.7793   26.5119   -2.1486 O   0  0  0  0  0  0  0  0  0  0  0  0
   39.8685   23.5680   -4.5032 C   0  0  1  0  0  0  0  0  0  0  0  0
   39.9398   24.2314   -5.7844 O   0  0  0  0  0  0  0  0  0  0  0  0
   43.7575   33.1048    0.3124 C   0  0  2  0  0  0  0  0  0  0  0  0
   44.4999   34.2038   -0.1727 O   0  0  0  0  0  0  0  0  0  0  0  0
   44.8736   28.2672    0.7063 C   0  0  2  0  0  0  0  0  0  0  0  0
   40.5123   28.2760   -1.8736 C   0  0  2  0  0  0  0  0  0  0  0  0
   41.7490   27.6126   -1.6531 O   0  0  0  0  0  0  0  0  0  0  0  0
   41.3363   23.3950   -3.9398 C   0  0  2  0  0  0  0  0  0  0  0  0
   41.3051   22.5206   -2.7992 O   0  0  0  0  0  0  0  0  0  0  0  0
   44.5950   32.2851    1.3142 C   0  0  2  0  0  0  0  0  0  0  0  0
   43.7802   31.1380    1.7723 O   0  0  0  0  0  0  0  0  0  0  0  0
   44.0897   26.9721    0.1580 C   0  0  2  0  0  0  0  0  0  0  0  0
   42.6350   27.0035    0.4691 O   0  0  0  0  0  0  0  0  0  0  0  0
   40.6318   29.6833   -1.3072 C   0  0  0  0  0  0  0  0  0  0  0  0
   41.9290   24.8083   -3.5455 C   0  0  1  0  0  0  0  0  0  0  0  0
   41.0071   25.5653   -2.6322 O   0  0  0  0  0  0  0  0  0  0  0  0
   45.0186   33.1852    2.4983 C   0  0  0  0  0  0  0  0  0  0  0  0
   45.9698   32.5666    3.4399 N   0  0  0  0  0  0  0  0  0  0  0  0
   44.6641   25.7039    0.8248 C   0  0  1  0  0  0  0  0  0  0  0  0
   43.9670   24.5521    0.3390 O   0  0  0  0  0  0  0  0  0  0  0  0
   43.3763   24.7272   -2.9241 C   0  0  0  0  0  0  0  0  0  0  0  0
   44.0249   26.0331   -2.5816 N   0  0  0  0  0  0  0  0  0  0  0  0
  1  2  1  6  0  0  0
  1  7  1  0  0  0  0
  1 30  1  0  0  0  0
  3  4  1  1  0  0  0
  3  9  1  0  0  0  0
  3 38  1  0  0  0  0
  5 10  1  0  0  0  0
  5 26  1  6  0  0  0
  5 32  1  0  0  0  0
  6 12  1  0  0  0  0
  6 35  1  0  0  0  0
  6 19  1  1  0  0  0
  7  8  1  6  0  0  0
  7 14  1  0  0  0  0
  8 33  1  0  0  0  0
  9 16  1  0  0  0  0
 10 11  1  6  0  0  0
 10 18  1  0  0  0  0
 12 13  1  1  0  0  0
 12 20  1  0  0  0  0
 14 15  1  6  0  0  0
 14 22  1  0  0  0  0
 16 17  1  1  0  0  0
 16 24  1  0  0  0  0
 18 19  1  6  0  0  0
 18 25  1  0  0  0  0
 20 21  1  6  0  0  0
 20 27  1  0  0  0  0
 22 23  1  6  0  0  0
 22 29  1  0  0  0  0
 24  2  1  6  0  0  0
 24 31  1  0  0  0  0
 25 26  1  1  0  0  0
 25 33  1  0  0  0  0
 27 28  1  1  0  0  0
 27 34  1  0  0  0  0
 29 30  1  0  0  0  0
 29 36  1  1  0  0  0
 31 32  1  1  0  0  0
 31 38  1  0  0  0  0
 34 35  1  0  0  0  0
 34 40  1  1  0  0  0
 36 37  1  0  0  0  0
 38 39  1  6  0  0  0
 40 41  1  0  0  0  0
M  END
>  <CHROM.1>
-71.67028536,149.76863669,-172.47319444,177.43458812,42.71303643,27.70421770
-0.84897564,1.00582268,-0.52966518,0.19373525

>  <Name>
ligand

>  <RI>
0

>  <Rbt.Current_Directory>
/home/itssahil/PROJECTS/Mol_Feturizer/New_Systems/rnas/1ZZ5

>  <Rbt.Executable>
rbdock ($Id: //depot/dev/client3/rdock/2013.1/src/exe/rbdock.cxx#4 $)

>  <Rbt.Library>
libRbt.so (2013.1, Build901 2013/11/27)

>  <Rbt.Parameter_File>
/export/apps/rDock/src/rDock_2013.1_src/data/scripts/dock_solv.prm

>  <Rbt.Receptor>
prm/blind_docking_100.prm

>  <SCORE>
43.3092

>  <SCORE.INTER>
1.38253

>  <SCORE.INTER.CONST>
1

>  <SCORE.INTER.POLAR>
0

>  <SCORE.INTER.ROT>
4

>  <SCORE.INTER.SOLV>
16.055

>  <SCORE.INTER.VDW>
-10.6966

>  <SCORE.INTER.norm>
0.0337203

>  <SCORE.INTRA>
7.06339

>  <SCORE.INTRA.DIHEDRAL>
-0.521637

>  <SCORE.INTRA.DIHEDRAL.0>
5.18357

>  <SCORE.INTRA.POLAR>
0

>  <SCORE.INTRA.POLAR.0>
0

>  <SCORE.INTRA.REPUL>
0

>  <SCORE.INTRA.REPUL.0>
0

>  <SCORE.INTRA.SOLV>
7.21597

>  <SCORE.INTRA.SOLV.lig_0>
-109.973

>  <SCORE.INTRA.VDW>
3.71622

>  <SCORE.INTRA.VDW.0>
-1.68646

>  <SCORE.INTRA.norm>
0.172278

>  <SCORE.RESTR>
34.8633

>  <SCORE.RESTR.CAVITY>
34.8633

>  <SCORE.RESTR.norm>
0.850324

>  <SCORE.SYSTEM>
0

>  <SCORE.SYSTEM.CONST>
0

>  <SCORE.SYSTEM.DIHEDRAL>
0

>  <SCORE.SYSTEM.SOLV>
0

>  <SCORE.SYSTEM.norm>
0

>  <SCORE.heavy>
41

>  <SCORE.norm>
1.05632

>  <RMSD>
16.759

$$$$
ligand
 OpenBabel11021811423D
libRbt.so/2013.1/901 2013/11/27
 41 45  0  0  0  0  0  0  0  0999 V2000
   44.3430   30.5099    1.1165 C   0  0  2  0  0  0  0  0  0  0  0  0
   45.2349   29.9871    0.1128 O   0  0  0  0  0  0  0  0  0  0  0  0
   47.1084   26.1388   -0.6610 C   0  0  2  0  0  0  0  0  0  0  0  0
   47.8470   24.8723   -0.4206 N   0  0  0  0  0  0  0  0  0  0  0  0
   42.4436   27.1574   -0.3837 C   0  0  1  0  0  0  0  0  0  0  0  0
   39.7884   26.5896   -2.3859 C   0  0  1  0  0  0  0  0  0  0  0  0
   43.2691   31.4434    0.4817 C   0  0  2  0  0  0  0  0  0  0  0  0
   42.5286   30.8034   -0.6098 N   0  0  0  0  0  0  0  0  0  0  0  0
   47.9786   27.3352   -0.1616 C   0  0  0  0  0  0  0  0  0  0  0  0
   41.1625   27.0146    0.4697 C   0  0  2  0  0  0  0  0  0  0  0  0
   40.7365   25.6516    0.5674 O   0  0  0  0  0  0  0  0  0  0  0  0
   38.7349   25.6622   -3.1291 C   0  0  2  0  0  0  0  0  0  0  0  0
   38.1788   24.5666   -2.2775 N   0  0  0  0  0  0  0  0  0  0  0  0
   43.9287   32.7552   -0.0227 C   0  0  1  0  0  0  0  0  0  0  0  0
   42.9391   33.6173   -0.5780 O   0  0  0  0  0  0  0  0  0  0  0  0
   47.2504   28.6930   -0.3815 C   0  0  2  0  0  0  0  0  0  0  0  0
   48.1385   29.7656    0.1047 N   0  0  0  0  0  0  0  0  0  0  0  0
   40.1300   27.9156   -0.2290 C   0  0  2  0  0  0  0  0  0  0  0  0
   39.2420   27.1521   -1.1389 O   0  0  0  0  0  0  0  0  0  0  0  0
   39.3928   25.0419   -4.4436 C   0  0  1  0  0  0  0  0  0  0  0  0
   39.6551   26.0643   -5.4299 O   0  0  0  0  0  0  0  0  0  0  0  0
   44.6648   33.4515    1.1453 C   0  0  2  0  0  0  0  0  0  0  0  0
   45.2528   34.6548    0.6977 O   0  0  0  0  0  0  0  0  0  0  0  0
   45.8611   28.6830    0.3495 C   0  0  2  0  0  0  0  0  0  0  0  0
   40.9811   28.9255   -0.9936 C   0  0  2  0  0  0  0  0  0  0  0  0
   42.2350   28.2972   -1.2193 O   0  0  0  0  0  0  0  0  0  0  0  0
   40.7435   24.2801   -4.1320 C   0  0  2  0  0  0  0  0  0  0  0  0
   40.4559   23.1072   -3.3522 O   0  0  0  0  0  0  0  0  0  0  0  0
   45.7355   32.5115    1.7341 C   0  0  2  0  0  0  0  0  0  0  0  0
   45.0708   31.2618    2.1655 O   0  0  0  0  0  0  0  0  0  0  0  0
   44.9666   27.4667   -0.2100 C   0  0  2  0  0  0  0  0  0  0  0  0
   43.6416   27.3692    0.4600 O   0  0  0  0  0  0  0  0  0  0  0  0
   41.2382   30.2152   -0.2279 C   0  0  0  0  0  0  0  0  0  0  0  0
   41.7332   25.2399   -3.3552 C   0  0  1  0  0  0  0  0  0  0  0  0
   41.0830   25.8538   -2.1478 O   0  0  0  0  0  0  0  0  0  0  0  0
   46.4478   33.2091    2.9164 C   0  0  0  0  0  0  0  0  0  0  0  0
   47.5278   32.4239    3.5420 N   0  0  0  0  0  0  0  0  0  0  0  0
   45.6981   26.1316    0.0451 C   0  0  1  0  0  0  0  0  0  0  0  0
   44.9030   25.0497   -0.4508 O   0  0  0  0  0  0  0  0  0  0  0  0
   43.0920   24.5456   -2.9563 C   0  0  0  0  0  0  0  0  0  0  0  0
   42.9961   23.4108   -1.9836 N   0  0  0  0  0  0  0  0  0  0  0  0
  1  2  1  6  0  0  0
  1  7  1  0  0  0  0
  1 30  1  0  0  0  0
  3  4  1  1  0  0  0
  3  9  1  0  0  0  0
  3 38  1  0  0  0  0
  5 10  1  0  0  0  0
  5 26  1  6  0  0  0
  5 32  1  0  0  0  0
  6 12  1  0  0  0  0
  6 35  1  0  0  0  0
  6 19  1  1  0  0  0
  7  8  1  6  0  0  0
  7 14  1  0  0  0  0
  8 33  1  0  0  0  0
  9 16  1  0  0  0  0
 10 11  1  6  0  0  0
 10 18  1  0  0  0  0
 12 13  1  1  0  0  0
 12 20  1  0  0  0  0
 14 15  1  1  0  0  0
 14 22  1  0  0  0  0
 16 17  1  1  0  0  0
 16 24  1  0  0  0  0
 18 19  1  6  0  0  0
 18 25  1  0  0  0  0
 20 21  1  6  0  0  0
 20 27  1  0  0  0  0
 22 23  1  6  0  0  0
 22 29  1  0  0  0  0
 24  2  1  6  0  0  0
 24 31  1  0  0  0  0
 25 26  1  1  0  0  0
 25 33  1  0  0  0  0
 27 28  1  1  0  0  0
 27 34  1  0  0  0  0
 29 30  1  0  0  0  0
 29 36  1  1  0  0  0
 31 32  1  1  0  0  0
 31 38  1  0  0  0  0
 34 35  1  0  0  0  0
 34 40  1  1  0  0  0
 36 37  1  0  0  0  0
 38 39  1  6  0  0  0
 40 41  1  0  0  0  0
M  END
>  <CHROM.1>
-69.99174695,172.96578349,-178.22209434,-64.37839314,43.25408875,28.16602213
-0.67155164,0.94787415,-0.30205890,0.32544287

>  <Name>
ligand

>  <RI>
0

>  <Rbt.Current_Directory>
/home/itssahil/PROJECTS/Mol_Feturizer/New_Systems/rnas/1ZZ5

>  <Rbt.Executable>
rbdock ($Id: //depot/dev/client3/rdock/2013.1/src/exe/rbdock.cxx#4 $)

>  <Rbt.Library>
libRbt.so (2013.1, Build901 2013/11/27)

>  <Rbt.Parameter_File>
/export/apps/rDock/src/rDock_2013.1_src/data/scripts/dock_solv.prm

>  <Rbt.Receptor>
prm/blind_docking_100.prm

>  <SCORE>
38.6135

>  <SCORE.INTER>
2.15466

>  <SCORE.INTER.CONST>
1

>  <SCORE.INTER.POLAR>
0

>  <SCORE.INTER.ROT>
4

>  <SCORE.INTER.SOLV>
13.5827

>  <SCORE.INTER.VDW>
-9.35779

>  <SCORE.INTER.norm>
0.0525528

>  <SCORE.INTRA>
-0.130195

>  <SCORE.INTRA.DIHEDRAL>
-4.15095

>  <SCORE.INTRA.DIHEDRAL.0>
5.18357

>  <SCORE.INTRA.POLAR>
0

>  <SCORE.INTRA.POLAR.0>
0

>  <SCORE.INTRA.REPUL>
0

>  <SCORE.INTRA.REPUL.0>
0

>  <SCORE.INTRA.SOLV>
3.37445

>  <SCORE.INTRA.SOLV.lig_0>
-109.973

>  <SCORE.INTRA.VDW>
0.258055

>  <SCORE.INTRA.VDW.0>
-1.68646

>  <SCORE.INTRA.norm>
-0.0031755

>  <SCORE.RESTR>
36.589

>  <SCORE.RESTR.CAVITY>
36.589

>  <SCORE.RESTR.norm>
0.892416

>  <SCORE.SYSTEM>
0

>  <SCORE.SYSTEM.CONST>
0

>  <SCORE.SYSTEM.DIHEDRAL>
0

>  <SCORE.SYSTEM.SOLV>
0

>  <SCORE.SYSTEM.norm>
0

>  <SCORE.heavy>
41

>  <SCORE.norm>
0.941793

>  <RMSD>
16.781

$$$$
ligand
 OpenBabel11021811423D
libRbt.so/2013.1/901 2013/11/27
 41 45  0  0  0  0  0  0  0  0999 V2000
   43.3053   30.2261    0.6977 C   0  0  2  0  0  0  0  0  0  0  0  0
   44.3902   29.5222    0.0621 O   0  0  0  0  0  0  0  0  0  0  0  0
   46.2175   25.6004    0.5076 C   0  0  2  0  0  0  0  0  0  0  0  0
   46.8164   24.4049    1.1551 N   0  0  0  0  0  0  0  0  0  0  0  0
   41.6777   26.6447   -0.5759 C   0  0  1  0  0  0  0  0  0  0  0  0
   39.5543   25.7906   -3.1130 C   0  0  1  0  0  0  0  0  0  0  0  0
   42.4626   31.0186   -0.3461 C   0  0  2  0  0  0  0  0  0  0  0  0
   41.9822   30.1799   -1.4483 N   0  0  0  0  0  0  0  0  0  0  0  0
   46.9935   26.8720    0.9756 C   0  0  0  0  0  0  0  0  0  0  0  0
   40.2220   26.6657   -0.0560 C   0  0  2  0  0  0  0  0  0  0  0  0
   39.7230   25.3460    0.1849 O   0  0  0  0  0  0  0  0  0  0  0  0
   38.8981   24.4055   -3.5290 C   0  0  2  0  0  0  0  0  0  0  0  0
   38.6310   23.4873   -2.3800 N   0  0  0  0  0  0  0  0  0  0  0  0
   43.2847   32.2106   -0.9060 C   0  0  1  0  0  0  0  0  0  0  0  0
   42.5010   32.9485   -1.8400 O   0  0  0  0  0  0  0  0  0  0  0  0
   46.4039   28.1611    0.3332 C   0  0  2  0  0  0  0  0  0  0  0  0
   47.1949   29.3087    0.8162 N   0  0  0  0  0  0  0  0  0  0  0  0
   39.4334   27.4142   -1.1441 C   0  0  2  0  0  0  0  0  0  0  0  0
   38.7601   26.4888   -2.0873 O   0  0  0  0  0  0  0  0  0  0  0  0
   39.8213   23.6705   -4.6029 C   0  0  1  0  0  0  0  0  0  0  0  0
   39.8430   24.3911   -5.8547 O   0  0  0  0  0  0  0  0  0  0  0  0
   43.7448   33.1192    0.2574 C   0  0  2  0  0  0  0  0  0  0  0  0
   44.4787   34.2156   -0.2461 O   0  0  0  0  0  0  0  0  0  0  0  0
   44.8794   28.2888    0.6852 C   0  0  2  0  0  0  0  0  0  0  0  0
   40.4907   28.2605   -1.8477 C   0  0  2  0  0  0  0  0  0  0  0  0
   41.7316   27.6028   -1.6342 O   0  0  0  0  0  0  0  0  0  0  0  0
   41.3081   23.4972   -4.0922 C   0  0  2  0  0  0  0  0  0  0  0  0
   41.3254   22.5728   -2.9914 O   0  0  0  0  0  0  0  0  0  0  0  0
   44.5953   32.3114    1.2579 C   0  0  2  0  0  0  0  0  0  0  0  0
   43.7889   31.1664    1.7356 O   0  0  0  0  0  0  0  0  0  0  0  0
   44.0936   26.9862    0.1577 C   0  0  2  0  0  0  0  0  0  0  0  0
   42.6422   27.0165    0.4841 O   0  0  0  0  0  0  0  0  0  0  0  0
   40.6121   29.6734   -1.2960 C   0  0  0  0  0  0  0  0  0  0  0  0
   41.8911   24.9013   -3.6530 C   0  0  1  0  0  0  0  0  0  0  0  0
   40.9863   25.6018   -2.6795 O   0  0  0  0  0  0  0  0  0  0  0  0
   45.0290   33.2240    2.4287 C   0  0  0  0  0  0  0  0  0  0  0  0
   45.9911   32.6167    3.3667 N   0  0  0  0  0  0  0  0  0  0  0  0
   44.6788   25.7261    0.8302 C   0  0  1  0  0  0  0  0  0  0  0  0
   43.9800   24.5677    0.3629 O   0  0  0  0  0  0  0  0  0  0  0  0
   43.3579   24.8169   -3.0796 C   0  0  0  0  0  0  0  0  0  0  0  0
   43.5891   23.8089   -1.9961 N   0  0  0  0  0  0  0  0  0  0  0  0
  1  2  1  6  0  0  0
  1  7  1  0  0  0  0
  1 30  1  0  0  0  0
  3  4  1  1  0  0  0
  3  9  1  0  0  0  0
  3 38  1  0  0  0  0
  5 10  1  0  0  0  0
  5 26  1  6  0  0  0
  5 32  1  0  0  0  0
  6 12  1  0  0  0  0
  6 35  1  0  0  0  0
  6 19  1  1  0  0  0
  7  8  1  6  0  0  0
  7 14  1  0  0  0  0
  8 33  1  0  0  0  0
  9 16  1  0  0  0  0
 10 11  1  6  0  0  0
 10 18  1  0  0  0  0
 12 13  1  1  0  0  0
 12 20  1  0  0  0  0
 14 15  1  6  0  0  0
 14 22  1  0  0  0  0
 16 17  1  1  0  0  0
 16 24  1  0  0  0  0
 18 19  1  6  0  0  0
 18 25  1  0  0  0  0
 20 21  1  6  0  0  0
 20 27  1  0  0  0  0
 22 23  1  6  0  0  0
 22 29  1  0  0  0  0
 24  2  1  6  0  0  0
 24 31  1  0  0  0  0
 25 26  1  1  0  0  0
 25 33  1  0  0  0  0
 27 28  1  1  0  0  0
 27 34  1  0  0  0  0
 29 30  1  0  0  0  0
 29 36  1  1  0  0  0
 31 32  1  1  0  0  0
 31 38  1  0  0  0  0
 34 35  1  0  0  0  0
 34 40  1  1  0  0  0
 36 37  1  0  0  0  0
 38 39  1  6  0  0  0
 40 41  1  0  0  0  0
M  END
>  <CHROM.1>
-75.48687176,152.28033474,-172.52835626,-51.30391982,42.69395294,27.67580921
-0.86566851,1.01186840,-0.53523585,0.19041588

>  <Name>
ligand

>  <RI>
0

>  <Rbt.Current_Directory>
/home/itssahil/PROJECTS/Mol_Feturizer/New_Systems/rnas/1ZZ5

>  <Rbt.Executable>
rbdock ($Id: //depot/dev/client3/rdock/2013.1/src/exe/rbdock.cxx#4 $)

>  <Rbt.Library>
libRbt.so (2013.1, Build901 2013/11/27)

>  <Rbt.Parameter_File>
/export/apps/rDock/src/rDock_2013.1_src/data/scripts/dock_solv.prm

>  <Rbt.Receptor>
prm/blind_docking_100.prm

>  <SCORE>
45.6792

>  <SCORE.INTER>
2.85942

>  <SCORE.INTER.CONST>
1

>  <SCORE.INTER.POLAR>
0

>  <SCORE.INTER.ROT>
4

>  <SCORE.INTER.SOLV>
12.6503

>  <SCORE.INTER.VDW>
-8.57716

>  <SCORE.INTER.norm>
0.069742

>  <SCORE.INTRA>
6.32847

>  <SCORE.INTRA.DIHEDRAL>
-0.309267

>  <SCORE.INTRA.DIHEDRAL.0>
5.18357

>  <SCORE.INTRA.POLAR>
0

>  <SCORE.INTRA.POLAR.0>
0

>  <SCORE.INTRA.REPUL>
0.000482027

>  <SCORE.INTRA.REPUL.0>
0

>  <SCORE.INTRA.SOLV>
5.97824

>  <SCORE.INTRA.SOLV.lig_0>
-109.973

>  <SCORE.INTRA.VDW>
3.49157

>  <SCORE.INTRA.VDW.0>
-1.68646

>  <SCORE.INTRA.norm>
0.154353

>  <SCORE.RESTR>
36.4913

>  <SCORE.RESTR.CAVITY>
36.4913

>  <SCORE.RESTR.norm>
0.890032

>  <SCORE.SYSTEM>
0

>  <SCORE.SYSTEM.CONST>
0

>  <SCORE.SYSTEM.DIHEDRAL>
0

>  <SCORE.SYSTEM.SOLV>
0

>  <SCORE.SYSTEM.norm>
0

>  <SCORE.heavy>
41

>  <SCORE.norm>
1.11413

>  <RMSD>
16.808

$$$$
ligand
 OpenBabel11021811423D
libRbt.so/2013.1/901 2013/11/27
 41 45  0  0  0  0  0  0  0  0999 V2000
   40.6593   39.5452  -14.2316 C   0  0  2  0  0  0  0  0  0  0  0  0
   40.4729   39.9717  -12.8678 O   0  0  0  0  0  0  0  0  0  0  0  0
   37.1589   39.9724  -10.0509 C   0  0  2  0  0  0  0  0  0  0  0  0
   35.7900   40.1634   -9.5060 N   0  0  0  0  0  0  0  0  0  0  0  0
   39.1718   36.2336  -12.2519 C   0  0  1  0  0  0  0  0  0  0  0  0
   40.4939   33.2901  -11.2038 C   0  0  1  0  0  0  0  0  0  0  0  0
   42.0427   38.8532  -14.4190 C   0  0  2  0  0  0  0  0  0  0  0  0
   42.2617   37.7495  -13.4793 N   0  0  0  0  0  0  0  0  0  0  0  0
   37.6534   41.3214  -10.6623 C   0  0  0  0  0  0  0  0  0  0  0  0
   38.9936   35.1629  -13.3526 C   0  0  2  0  0  0  0  0  0  0  0  0
   37.9429   34.2438  -13.0368 O   0  0  0  0  0  0  0  0  0  0  0  0
   39.5671   32.1908  -10.5295 C   0  0  2  0  0  0  0  0  0  0  0  0
   38.1447   32.2272  -10.9880 N   0  0  0  0  0  0  0  0  0  0  0  0
   43.1861   39.8953  -14.2889 C   0  0  1  0  0  0  0  0  0  0  0  0
   44.4479   39.2633  -14.4877 O   0  0  0  0  0  0  0  0  0  0  0  0
   39.0845   41.1800  -11.2574 C   0  0  2  0  0  0  0  0  0  0  0  0
   39.4785   42.4929  -11.8024 N   0  0  0  0  0  0  0  0  0  0  0  0
   40.3701   34.4846  -13.4588 C   0  0  2  0  0  0  0  0  0  0  0  0
   40.4394   33.2278  -12.6746 O   0  0  0  0  0  0  0  0  0  0  0  0
   39.6253   32.3343   -8.9415 C   0  0  1  0  0  0  0  0  0  0  0  0
   40.9330   31.9909   -8.4328 O   0  0  0  0  0  0  0  0  0  0  0  0
   42.9770   41.0304  -15.3177 C   0  0  2  0  0  0  0  0  0  0  0  0
   44.0233   41.9735  -15.2170 O   0  0  0  0  0  0  0  0  0  0  0  0
   39.1064   40.0458  -12.3425 C   0  0  2  0  0  0  0  0  0  0  0  0
   41.3394   35.5342  -12.9223 C   0  0  2  0  0  0  0  0  0  0  0  0
   40.5809   36.3709  -12.0605 O   0  0  0  0  0  0  0  0  0  0  0  0
   39.2627   33.7969   -8.4611 C   0  0  2  0  0  0  0  0  0  0  0  0
   37.8766   34.0565   -8.7402 O   0  0  0  0  0  0  0  0  0  0  0  0
   41.6118   41.7094  -15.0894 C   0  0  2  0  0  0  0  0  0  0  0  0
   40.5569   40.6759  -15.1836 O   0  0  0  0  0  0  0  0  0  0  0  0
   38.6320   38.6570  -11.6799 C   0  0  2  0  0  0  0  0  0  0  0  0
   38.5937   37.5352  -12.6566 O   0  0  0  0  0  0  0  0  0  0  0  0
   41.9518   36.4129  -14.0032 C   0  0  0  0  0  0  0  0  0  0  0  0
   40.1883   34.8479   -9.1980 C   0  0  1  0  0  0  0  0  0  0  0  0
   40.1602   34.6678  -10.6893 O   0  0  0  0  0  0  0  0  0  0  0  0
   41.4034   42.8260  -16.1389 C   0  0  0  0  0  0  0  0  0  0  0  0
   42.3602   43.9447  -16.0544 N   0  0  0  0  0  0  0  0  0  0  0  0
   37.2013   38.8163  -11.1228 C   0  0  1  0  0  0  0  0  0  0  0  0
   36.7782   37.5818  -10.5348 O   0  0  0  0  0  0  0  0  0  0  0  0
   39.8616   36.3431   -8.8171 C   0  0  0  0  0  0  0  0  0  0  0  0
   40.4251   37.3958   -9.7212 N   0  0  0  0  0  0  0  0  0  0  0  0
  1  2  1  1  0  0  0
  1  7  1  0  0  0  0
  1 30  1  0  0  0  0
  3  4  1  6  0  0  0
  3  9  1  0  0  0  0
  3 38  1  0  0  0  0
  5 10  1  0  0  0  0
  5 26  1  6  0  0  0
  5 32  1  0  0  0  0
  6 12  1  0  0  0  0
  6 35  1  0  0  0  0
  6 19  1  6  0  0  0
  7  8  1  1  0  0  0
  7 14  1  0  0  0  0
  8 33  1  0  0  0  0
  9 16  1  0  0  0  0
 10 11  1  1  0  0  0
 10 18  1  0  0  0  0
 12 13  1  6  0  0  0
 12 20  1  0  0  0  0
 14 15  1  6  0  0  0
 14 22  1  0  0  0  0
 16 17  1  6  0  0  0
 16 24  1  0  0  0  0
 18 19  1  1  0  0  0
 18 25  1  0  0  0  0
 20 21  1  6  0  0  0
 20 27  1  0  0  0  0
 22 23  1  1  0  0  0
 22 29  1  0  0  0  0
 24  2  1  1  0  0  0
 24 31  1  0  0  0  0
 25 26  1  1  0  0  0
 25 33  1  0  0  0  0
 27 28  1  6  0  0  0
 27 34  1  0  0  0  0
 29 30  1  0  0  0  0
 29 36  1  6  0  0  0
 31 32  1  6  0  0  0
 31 38  1  0  0  0  0
 34 35  1  0  0  0  0
 34 40  1  6  0  0  0
 36 37  1  0  0  0  0
 38 39  1  1  0  0  0
 40 41  1  0  0  0  0
M  END
>  <CHROM.1>
-72.52402701,138.01092585,-64.02621250,-164.29748182,40.07641598,37.54041375
-12.14730441,-1.23230897,-0.70352475,2.85488569

>  <Name>
ligand

>  <RI>
0

>  <Rbt.Current_Directory>
/home/itssahil/PROJECTS/Mol_Feturizer/New_Systems/rnas/1ZZ5

>  <Rbt.Executable>
rbdock ($Id: //depot/dev/client3/rdock/2013.1/src/exe/rbdock.cxx#4 $)

>  <Rbt.Library>
libRbt.so (2013.1, Build901 2013/11/27)

>  <Rbt.Parameter_File>
/export/apps/rDock/src/rDock_2013.1_src/data/scripts/dock_solv.prm

>  <Rbt.Receptor>
prm/blind_docking_100.prm

>  <SCORE>
108.123

>  <SCORE.INTER>
51.7065

>  <SCORE.INTER.CONST>
1

>  <SCORE.INTER.POLAR>
0

>  <SCORE.INTER.ROT>
4

>  <SCORE.INTER.SOLV>
32.1392

>  <SCORE.INTER.VDW>
17.4913

>  <SCORE.INTER.norm>
1.26113

>  <SCORE.INTRA>
12.4622

>  <SCORE.INTRA.DIHEDRAL>
2.20301

>  <SCORE.INTRA.DIHEDRAL.0>
5.18357

>  <SCORE.INTRA.POLAR>
0

>  <SCORE.INTRA.POLAR.0>
0

>  <SCORE.INTRA.REPUL>
0.0964514

>  <SCORE.INTRA.REPUL.0>
0

>  <SCORE.INTRA.SOLV>
9.44155

>  <SCORE.INTRA.SOLV.lig_0>
-109.973

>  <SCORE.INTRA.VDW>
6.15762

>  <SCORE.INTRA.VDW.0>
-1.68646

>  <SCORE.INTRA.norm>
0.303955

>  <SCORE.RESTR>
43.9545

>  <SCORE.RESTR.CAVITY>
43.9545

>  <SCORE.RESTR.norm>
1.07206

>  <SCORE.SYSTEM>
0

>  <SCORE.SYSTEM.CONST>
0

>  <SCORE.SYSTEM.DIHEDRAL>
0

>  <SCORE.SYSTEM.SOLV>
0

>  <SCORE.SYSTEM.norm>
0

>  <SCORE.heavy>
41

>  <SCORE.norm>
2.63715

>  <RMSD>
20.269

$$$$
ligand
 OpenBabel11021811423D
libRbt.so/2013.1/901 2013/11/27
 41 45  0  0  0  0  0  0  0  0999 V2000
   40.7008   39.5873  -14.2495 C   0  0  2  0  0  0  0  0  0  0  0  0
   40.5017   39.9852  -12.8789 O   0  0  0  0  0  0  0  0  0  0  0  0
   37.1611   39.9287  -10.0941 C   0  0  2  0  0  0  0  0  0  0  0  0
   35.7872   40.1091   -9.5583 N   0  0  0  0  0  0  0  0  0  0  0  0
   39.1930   36.2358  -12.3543 C   0  0  1  0  0  0  0  0  0  0  0  0
   40.5070   33.2700  -11.3561 C   0  0  1  0  0  0  0  0  0  0  0  0
   42.0856   38.8985  -14.4384 C   0  0  2  0  0  0  0  0  0  0  0  0
   42.2951   37.7750  -13.5202 N   0  0  0  0  0  0  0  0  0  0  0  0
   37.6621   41.2899  -10.6722 C   0  0  0  0  0  0  0  0  0  0  0  0
   39.0247   35.1887  -13.4790 C   0  0  2  0  0  0  0  0  0  0  0  0
   37.9705   34.2638  -13.1926 O   0  0  0  0  0  0  0  0  0  0  0  0
   39.3931   32.3405  -10.7102 C   0  0  2  0  0  0  0  0  0  0  0  0
   38.0054   32.6316  -11.1841 N   0  0  0  0  0  0  0  0  0  0  0  0
   43.2282   39.9368  -14.2755 C   0  0  1  0  0  0  0  0  0  0  0  0
   44.4915   39.3082  -14.4757 O   0  0  0  0  0  0  0  0  0  0  0  0
   39.0987   41.1602  -11.2566 C   0  0  2  0  0  0  0  0  0  0  0  0
   39.4985   42.4840  -11.7700 N   0  0  0  0  0  0  0  0  0  0  0  0
   40.4018   34.5118  -13.5864 C   0  0  2  0  0  0  0  0  0  0  0  0
   40.4630   33.2387  -12.8282 O   0  0  0  0  0  0  0  0  0  0  0  0
   39.4533   32.4495   -9.1195 C   0  0  1  0  0  0  0  0  0  0  0  0
   40.6736   31.8756   -8.6016 O   0  0  0  0  0  0  0  0  0  0  0  0
   43.0294   41.0935  -15.2821 C   0  0  2  0  0  0  0  0  0  0  0  0
   44.0751   42.0335  -15.1516 O   0  0  0  0  0  0  0  0  0  0  0  0
   39.1303   40.0490  -12.3651 C   0  0  2  0  0  0  0  0  0  0  0  0
   41.3665   35.5491  -13.0188 C   0  0  2  0  0  0  0  0  0  0  0  0
   40.6003   36.3680  -12.1467 O   0  0  0  0  0  0  0  0  0  0  0  0
   39.3452   33.9461   -8.6197 C   0  0  2  0  0  0  0  0  0  0  0  0
   38.0298   34.4480   -8.9103 O   0  0  0  0  0  0  0  0  0  0  0  0
   41.6624   41.7684  -15.0525 C   0  0  2  0  0  0  0  0  0  0  0  0
   40.6080   40.7379  -15.1784 O   0  0  0  0  0  0  0  0  0  0  0  0
   38.6490   38.6470  -11.7365 C   0  0  2  0  0  0  0  0  0  0  0  0
   38.6194   37.5460  -12.7370 O   0  0  0  0  0  0  0  0  0  0  0  0
   41.9895   36.4500  -14.0751 C   0  0  0  0  0  0  0  0  0  0  0  0
   40.4504   34.8292   -9.3290 C   0  0  1  0  0  0  0  0  0  0  0  0
   40.4121   34.6776  -10.8233 O   0  0  0  0  0  0  0  0  0  0  0  0
   41.4645   42.9071  -16.0802 C   0  0  0  0  0  0  0  0  0  0  0  0
   41.7261   42.5316  -17.4819 N   0  0  0  0  0  0  0  0  0  0  0  0
   37.2131   38.7955  -11.1897 C   0  0  1  0  0  0  0  0  0  0  0  0
   36.7838   37.5492  -10.6319 O   0  0  0  0  0  0  0  0  0  0  0  0
   40.3846   36.3530   -8.9278 C   0  0  0  0  0  0  0  0  0  0  0  0
   39.1828   37.1118   -9.4003 N   0  0  0  0  0  0  0  0  0  0  0  0
  1  2  1  1  0  0  0
  1  7  1  0  0  0  0
  1 30  1  0  0  0  0
  3  4  1  6  0  0  0
  3  9  1  0  0  0  0
  3 38  1  0  0  0  0
  5 10  1  0  0  0  0
  5 26  1  6  0  0  0
  5 32  1  0  0  0  0
  6 12  1  0  0  0  0
  6 35  1  0  0  0  0
  6 19  1  6  0  0  0
  7  8  1  1  0  0  0
  7 14  1  0  0  0  0
  8 33  1  0  0  0  0
  9 16  1  0  0  0  0
 10 11  1  1  0  0  0
 10 18  1  0  0  0  0
 12 13  1  6  0  0  0
 12 20  1  0  0  0  0
 14 15  1  6  0  0  0
 14 22  1  0  0  0  0
 16 17  1  6  0  0  0
 16 24  1  0  0  0  0
 18 19  1  1  0  0  0
 18 25  1  0  0  0  0
 20 21  1  6  0  0  0
 20 27  1  0  0  0  0
 22 23  1  1  0  0  0
 22 29  1  0  0  0  0
 24  2  1  1  0  0  0
 24 31  1  0  0  0  0
 25 26  1  1  0  0  0
 25 33  1  0  0  0  0
 27 28  1  6  0  0  0
 27 34  1  0  0  0  0
 29 30  1  0  0  0  0
 29 36  1  6  0  0  0
 31 32  1  6  0  0  0
 31 38  1  0  0  0  0
 34 35  1  0  0  0  0
 34 40  1  6  0  0  0
 36 37  1  0  0  0  0
 38 39  1  1  0  0  0
 40 41  1  0  0  0  0
M  END
>  <CHROM.1>
-72.67770542,128.04567382,49.69347415,-67.76404131,40.06532185,37.53724997
-12.24170405,-1.21191833,-0.72473365,2.85151468

>  <Name>
ligand

>  <RI>
0

>  <Rbt.Current_Directory>
/home/itssahil/PROJECTS/Mol_Feturizer/New_Systems/rnas/1ZZ5

>  <Rbt.Executable>
rbdock ($Id: //depot/dev/client3/rdock/2013.1/src/exe/rbdock.cxx#4 $)

>  <Rbt.Library>
libRbt.so (2013.1, Build901 2013/11/27)

>  <Rbt.Parameter_File>
/export/apps/rDock/src/rDock_2013.1_src/data/scripts/dock_solv.prm

>  <Rbt.Receptor>
prm/blind_docking_100.prm

>  <SCORE>
109.683

>  <SCORE.INTER>
48.7731

>  <SCORE.INTER.CONST>
1

>  <SCORE.INTER.POLAR>
0

>  <SCORE.INTER.ROT>
4

>  <SCORE.INTER.SOLV>
26.9988

>  <SCORE.INTER.VDW>
17.2492

>  <SCORE.INTER.norm>
1.18959

>  <SCORE.INTRA>
16.0986

>  <SCORE.INTRA.DIHEDRAL>
3.11912

>  <SCORE.INTRA.DIHEDRAL.0>
5.18357

>  <SCORE.INTRA.POLAR>
0

>  <SCORE.INTRA.POLAR.0>
0

>  <SCORE.INTRA.REPUL>
0.251726

>  <SCORE.INTRA.REPUL.0>
0

>  <SCORE.INTRA.SOLV>
11.493

>  <SCORE.INTRA.SOLV.lig_0>
-109.973

>  <SCORE.INTRA.VDW>
7.53392

>  <SCORE.INTRA.VDW.0>
-1.68646

>  <SCORE.INTRA.norm>
0.392649

>  <SCORE.RESTR>
44.8115

>  <SCORE.RESTR.CAVITY>
44.8115

>  <SCORE.RESTR.norm>
1.09296

>  <SCORE.SYSTEM>
0

>  <SCORE.SYSTEM.CONST>
0

>  <SCORE.SYSTEM.DIHEDRAL>
0

>  <SCORE.SYSTEM.SOLV>
0

>  <SCORE.SYSTEM.norm>
0

>  <SCORE.heavy>
41

>  <SCORE.norm>
2.6752

>  <RMSD>
20.342

$$$$
