@<TRIPOS>MOLECULE
1ZZ5_rdock.pdb
 614 685 0 0 0
SMALL
GASTEIGER

@<TRIPOS>ATOM
      1  C5'       42.5480   26.7800   -5.8630 C.3     2  G2          0.2141
      2  O5'       42.0120   25.5310   -6.3270 O.3     2  G2         -0.2176
      3  C4'       43.9610   26.9580   -6.3410 C.3     2  G2          0.1802
      4  O4'       43.9600   27.1820   -7.7710 O.3     2  G2         -0.3306
      5  C3'       44.6900   28.1490   -5.7590 C.3     2  G2          0.1861
      6  O3'       45.3020   27.7590   -4.5410 O.3     2  G2         -0.3112
      7  C2'       45.7460   28.4160   -6.8180 C.3     2  G2          0.2309
      8  O2'       46.8610   27.5540   -6.6880 O.3     2  G2         -0.2156
      9  C1'       44.9700   28.1090   -8.1020 C.3     2  G2          0.2408
     10  N1        45.6630   32.7520   -9.9770 N.ar    2  G2         -0.1709
     11  C2        46.5890   31.8510   -9.5180 C.ar    2  G2          0.2606
     12  N2        47.8760   32.2420   -9.5700 N.pl3   2  G2         -0.0859
     13  N3        46.2830   30.6560   -9.0470 N.ar    2  G2         -0.1918
     14  C4        44.9560   30.4340   -9.0780 C.ar    2  G2          0.1723
     15  C5        43.9510   31.2690   -9.5180 C.ar    2  G2          0.1748
     16  C6        44.2960   32.5400  -10.0170 C.ar    2  G2          0.3023
     17  O6        43.5590   33.4160  -10.4490 O.2     2  G2         -0.2633
     18  N7        42.7110   30.6640   -9.3790 N.ar    2  G2         -0.2173
     19  C8        42.9810   29.4910   -8.8720 C.ar    2  G2          0.1817
     20  N9        44.3260   29.2910   -8.6620 N.ar    2  G2         -0.2693
     21  P         45.5000   28.8330   -3.3560 P.3     3  U3          0.2141
     22  C5'       47.8920   29.7650   -3.9520 C.3     3  U3          0.1812
     23  O5'       46.4790   29.9480   -3.9600 O.3     3  U3         -0.3114
     24  C4'       48.6140   31.0270   -4.4080 C.3     3  U3          0.1773
     25  O4'       48.3380   31.3190   -5.8050 O.3     3  U3         -0.3307
     26  C3'       48.2790   32.3230   -3.6990 C.3     3  U3          0.1860
     27  O3'       48.9810   32.4220   -2.4680 O.3     3  U3         -0.3112
     28  C2'       48.7710   33.3540   -4.7050 C.3     3  U3          0.2309
     29  O2'       50.1780   33.3990   -4.7490 O.3     3  U3         -0.2156
     30  C1'       48.3140   32.7270   -6.0100 C.3     3  U3          0.2420
     31  N1        46.9510   33.1140   -6.4010 N.ar    3  U3         -0.2534
     32  C2        46.7580   34.3220   -7.0630 C.ar    3  U3          0.3546
     33  O2        47.6480   35.1250   -7.2750 O.2     3  U3         -0.2443
     34  N3        45.4710   34.5540   -7.4580 N.ar    3  U3         -0.1530
     35  C4        44.3810   33.7390   -7.2400 C.ar    3  U3          0.2846
     36  O4        43.2850   34.0560   -7.6970 O.2     3  U3         -0.2650
     37  C5        44.6620   32.5470   -6.5210 C.ar    3  U3          0.0814
     38  C6        45.8990   32.2810   -6.1380 C.ar    3  U3          0.0870
     39  OP1       46.2380   28.0920   -2.2930 O.3     3  U3         -0.4373
     40  OP2       44.1700   29.4570   -3.0450 O.co2   3  U3         -0.5172
     41  P         48.3400   33.2580   -1.2560 P.3     4  G4          0.2141
     42  C5'       49.7210   35.2620   -2.1860 C.3     4  G4          0.1812
     43  O5'       48.4740   34.7670   -1.7260 O.3     4  G4         -0.3114
     44  C4'       49.5640   36.6680   -2.6910 C.3     4  G4          0.1773
     45  O4'       48.8740   36.6800   -3.9650 O.3     4  G4         -0.3307
     46  C3'       48.6730   37.5430   -1.8410 C.3     4  G4          0.1860
     47  O3'       49.3330   37.9550   -0.6580 O.3     4  G4         -0.3112
     48  C2'       48.3570   38.6800   -2.8030 C.3     4  G4          0.2309
     49  O2'       49.4100   39.5990   -2.9840 O.3     4  G4         -0.2156
     50  C1'       48.1970   37.9140   -4.1100 C.3     4  G4          0.2408
     51  N1        44.0680   39.8760   -6.2200 N.ar    4  G4         -0.1709
     52  C2        45.3010   40.4410   -6.0070 C.ar    4  G4          0.2606
     53  N2        45.4520   41.7080   -6.4220 N.pl3   4  G4         -0.0859
     54  N3        46.3100   39.8120   -5.4280 N.ar    4  G4         -0.1918
     55  C4        45.9790   38.5540   -5.0660 C.ar    4  G4          0.1723
     56  C5        44.7820   37.8950   -5.2290 C.ar    4  G4          0.1748
     57  C6        43.7060   38.5820   -5.8610 C.ar    4  G4          0.3023
     58  O6        42.5650   38.1770   -6.1060 O.2     4  G4         -0.2633
     59  N7        44.8530   36.6100   -4.7110 N.ar    4  G4         -0.2173
     60  C8        46.0720   36.5190   -4.2500 C.ar    4  G4          0.1817
     61  N9        46.8070   37.6610   -4.4490 N.ar    4  G4         -0.2693
     62  OP1       49.2600   33.0530   -0.1120 O.3     4  G4         -0.4373
     63  OP2       46.8930   32.9340   -1.1250 O.co2   4  G4         -0.5172
     64  P         48.4960   38.6850    0.4880 P.3     5  G5          0.2141
     65  C5'       47.2110   40.9460    0.3260 C.3     5  G5          0.1812
     66  O5'       48.2520   40.1200   -0.1480 O.3     5  G5         -0.3114
     67  C4'       46.9210   42.0310   -0.6700 C.3     5  G5          0.1773
     68  O4'       46.5780   41.4310   -1.9420 O.3     5  G5         -0.3307
     69  C3'       45.7080   42.8650   -0.3170 C.3     5  G5          0.1860
     70  O3'       46.0710   43.8950    0.5810 O.3     5  G5         -0.3112
     71  C2'       45.3130   43.4060   -1.6690 C.3     5  G5          0.2309
     72  O2'       46.2360   44.4130   -2.0190 O.3     5  G5         -0.2156
     73  C1'       45.5370   42.1740   -2.5500 C.3     5  G5          0.2408
     74  N1        40.7360   41.7080   -4.1830 N.ar    5  G5         -0.1709
     75  C2        41.5730   42.7950   -4.2350 C.ar    5  G5          0.2606
     76  N2        41.0690   43.8960   -4.8040 N.pl3   5  G5         -0.0859
     77  N3        42.8140   42.8040   -3.7680 N.ar    5  G5         -0.1918
     78  C4        43.1640   41.6110   -3.2500 C.ar    5  G5          0.1723
     79  C5        42.4100   40.4600   -3.1600 C.ar    5  G5          0.1748
     80  C6        41.0730   40.4710   -3.6480 C.ar    5  G5          0.3023
     81  O6        40.2400   39.5570   -3.6390 O.2     5  G5         -0.2633
     82  N7        43.1380   39.4400   -2.5690 N.ar    5  G5         -0.2173
     83  C8        44.2940   39.9810   -2.3080 C.ar    5  G5          0.1817
     84  N9        44.3780   41.2950   -2.6940 N.ar    5  G5         -0.2693
     85  OP1       49.3860   38.8160    1.6720 O.3     5  G5         -0.4373
     86  OP2       47.1720   38.0210    0.6270 O.co2   5  G5         -0.5172
     87  P         45.3870   43.9400    2.0240 P.3     6  U6          0.2141
     88  C5'       43.8790   45.7830    0.9770 C.3     6  U6          0.1812
     89  O5'       43.9650   44.5680    1.7060 O.3     6  U6         -0.3114
     90  C4'       42.5050   45.9550    0.3680 C.3     6  U6          0.1773
     91  O4'       42.2750   44.9740   -0.6790 O.3     6  U6         -0.3307
     92  C3'       41.3280   45.7460    1.2930 C.3     6  U6          0.1860
     93  O3'       41.1360   46.8670    2.1370 O.3     6  U6         -0.3112
     94  C2'       40.2020   45.5670    0.2880 C.3     6  U6          0.2309
     95  O2'       39.8590   46.8010   -0.3150 O.3     6  U6         -0.2156
     96  C1'       40.8870   44.6920   -0.7650 C.3     6  U6          0.2420
     97  N1        40.6960   43.2440   -0.5810 N.ar    6  U6         -0.2534
     98  C2        39.5380   42.6610   -1.0840 C.ar    6  U6          0.3546
     99  O2        38.6540   43.2950   -1.6220 O.2     6  U6         -0.2443
    100  N3        39.4540   41.3050   -0.9210 N.ar    6  U6         -0.1530
    101  C4        40.3770   40.4930   -0.3050 C.ar    6  U6          0.2846
    102  O4        40.1740   39.2810   -0.2480 O.2     6  U6         -0.2650
    103  C5        41.5240   41.1740    0.2090 C.ar    6  U6          0.0814
    104  C6        41.6400   42.4920    0.0540 C.ar    6  U6          0.0870
    105  OP1       46.1430   44.8900    2.8750 O.3     6  U6         -0.4373
    106  OP2       45.1970   42.5380    2.4760 O.co2   6  U6         -0.5172
    107  P         40.4970   46.6530    3.5940 P.3     7  G7          0.2141
    108  C5'       38.1860   47.3840    2.6040 C.3     7  G7          0.1812
    109  O5'       38.9620   46.3780    3.2560 O.3     7  G7         -0.3114
    110  C4'       36.8100   46.8680    2.2380 C.3     7  G7          0.1773
    111  O4'       36.8910   45.9240    1.1400 O.3     7  G7         -0.3307
    112  C3'       36.0290   46.1460    3.3200 C.3     7  G7          0.1860
    113  O3'       35.3880   47.0960    4.1700 O.3     7  G7         -0.3112
    114  C2'       35.0120   45.3690    2.4830 C.3     7  G7          0.2309
    115  O2'       33.9170   46.1630    2.0610 O.3     7  G7         -0.2156
    116  C1'       35.8500   44.9660    1.2590 C.3     7  G7          0.2408
    117  N1        35.3250   39.9120    0.7450 N.ar    7  G7         -0.1709
    118  C2        34.4780   40.9070    0.3380 C.ar    7  G7          0.2606
    119  N2        33.3480   40.5000   -0.2360 N.pl3   7  G7         -0.0859
    120  N3        34.7270   42.2030    0.4840 N.ar    7  G7         -0.1918
    121  C4        35.9220   42.4200    1.0720 C.ar    7  G7          0.1723
    122  C5        36.8450   41.4910    1.4990 C.ar    7  G7          0.1748
    123  C6        36.5580   40.1160    1.3540 C.ar    7  G7          0.3023
    124  O6        37.2460   39.1490    1.7010 O.2     7  G7         -0.2633
    125  N7        37.9610   42.1140    2.0330 N.ar    7  G7         -0.2173
    126  C8        37.6950   43.3870    1.9460 C.ar    7  G7          0.1817
    127  N9        36.4640   43.6470    1.4030 N.ar    7  G7         -0.2693
    128  OP1       40.6210   47.9590    4.2840 O.3     7  G7         -0.4373
    129  OP2       41.0760   45.4430    4.2310 O.co2   7  G7         -0.5172
    130  P         35.6720   47.0930    5.7620 P.3     8  A8          0.2141
    131  C5'       33.2110   46.3670    6.3060 C.3     8  A8          0.1812
    132  O5'       34.2270   47.3610    6.3640 O.3     8  A8         -0.3114
    133  C4'       32.5340   46.2710    7.6440 C.3     8  A8          0.1773
    134  O4'       31.8780   47.5240    7.9330 O.3     8  A8         -0.3307
    135  C3'       31.4210   45.2540    7.8000 C.3     8  A8          0.1860
    136  O3'       31.9860   43.9670    8.0360 O.3     8  A8         -0.3112
    137  C2'       30.6630   45.7830    9.0240 C.3     8  A8          0.2309
    138  O2'       31.1800   45.3590   10.2730 O.3     8  A8         -0.2156
    139  C1'       30.8830   47.2940    8.9060 C.3     8  A8          0.2408
    140  N1        26.1690   48.4780   10.4560 N.ar    8  A8         -0.2040
    141  C2        27.0960   47.6260   10.9240 C.ar    8  A8          0.2016
    142  N3        28.3140   47.3670   10.4550 N.ar    8  A8         -0.2048
    143  C4        28.5580   48.1010    9.3550 C.ar    8  A8          0.1692
    144  C5        27.7130   49.0150    8.7570 C.ar    8  A8          0.1518
    145  C6        26.4590   49.2090    9.3570 C.ar    8  A8          0.1919
    146  N6        25.5500   50.0790    8.9100 N.pl3   8  A8         -0.1054
    147  N7        28.3070   49.5700    7.6330 N.ar    8  A8         -0.2193
    148  C8        29.4820   48.9880    7.5780 C.ar    8  A8          0.1816
    149  N9        29.7010   48.0950    8.5990 N.ar    8  A8         -0.2693
    150  OP1       36.4900   48.2840    6.1030 O.2     8  A8         -0.5172
    151  OP2       36.1310   45.7520    6.2090 O.co2   8  A8         -0.4373
    152  P         31.2650   42.6640    7.4440 P.3     9  A9          0.2141
    153  C5'       29.7950   42.0240    9.5370 C.3     9  A9          0.1812
    154  O5'       29.8830   42.6120    8.2340 O.3     9  A9         -0.3114
    155  C4'       28.3570   42.0010    9.9870 C.3     9  A9          0.1773
    156  O4'       27.8770   43.3630   10.0340 O.3     9  A9         -0.3307
    157  C3'       27.4170   41.2830    9.0280 C.3     9  A9          0.1860
    158  O3'       27.3570   39.8900    9.3540 O.3     9  A9         -0.3112
    159  C2'       26.0820   42.0060    9.2330 C.3     9  A9          0.2309
    160  O2'       25.2960   41.4840   10.2890 O.3     9  A9         -0.2156
    161  C1'       26.5450   43.4260    9.5650 C.3     9  A9          0.2408
    162  N1        24.1650   47.3660    7.2160 N.ar    9  A9         -0.2040
    163  C2        23.7920   46.5860    8.2320 C.ar    9  A9          0.2016
    164  N3        24.4300   45.5520    8.7830 N.ar    9  A9         -0.2048
    165  C4        25.5940   45.3210    8.1550 C.ar    9  A9          0.1692
    166  C5        26.1020   46.0300    7.0850 C.ar    9  A9          0.1518
    167  C6        25.3490   47.1200    6.6210 C.ar    9  A9          0.1919
    168  N6        25.7540   47.9340    5.6440 N.pl3   9  A9         -0.1054
    169  N7        27.3190   45.4990    6.6840 N.ar    9  A9         -0.2193
    170  C8        27.5280   44.5150    7.5250 C.ar    9  A9          0.1816
    171  N9        26.5400   44.3670    8.4550 N.ar    9  A9         -0.2693
    172  OP1       32.0880   41.5250    7.9050 O.3     9  A9         -0.4373
    173  OP2       30.9790   42.8340    6.0050 O.co2   9  A9         -0.5172
    174  P         28.0270   38.8060    8.3750 P.3    10  G10         0.2141
    175  C5'       26.1390   36.9990    8.2690 C.3    10  G10         0.1812
    176  O5'       26.7720   38.1140    7.6810 O.3    10  G10        -0.3114
    177  C4'       26.2400   35.7970    7.3630 C.3    10  G10         0.1773
    178  O4'       27.0060   36.1000    6.1610 O.3    10  G10        -0.3307
    179  C3'       27.0100   34.6430    7.9570 C.3    10  G10         0.1860
    180  O3'       26.2330   33.9330    8.9060 O.3    10  G10        -0.3112
    181  C2'       27.3240   33.8370    6.7120 C.3    10  G10         0.2309
    182  O2'       26.1610   33.2200    6.2040 O.3    10  G10        -0.2156
    183  C1'       27.7350   34.9460    5.7520 C.3    10  G10         0.2408
    184  N1        32.4030   32.9930    5.4820 N.ar   10  G10        -0.1709
    185  C2        31.1950   32.4030    5.2260 C.ar   10  G10         0.2606
    186  N2        31.2390   31.1100    4.8800 N.pl3  10  G10        -0.0859
    187  N3        30.0300   33.0320    5.3020 N.ar   10  G10        -0.1918
    188  C4        30.1800   34.3200    5.6430 C.ar   10  G10         0.1723
    189  C5        31.3440   35.0110    5.8950 C.ar   10  G10         0.1748
    190  C6        32.5780   34.3200    5.8340 C.ar   10  G10         0.3023
    191  O6        33.7100   34.7440    6.0580 O.2    10  G10        -0.2633
    192  N7        31.0750   36.3350    6.1940 N.ar   10  G10        -0.2173
    193  C8        29.7750   36.4170    6.1400 C.ar   10  G10         0.1817
    194  N9        29.1690   35.2220    5.8330 N.ar   10  G10        -0.2693
    195  OP1       28.7390   37.7920    9.1970 O.3    10  G10        -0.4373
    196  OP2       28.7600   39.5180    7.2860 O.co2  10  G10        -0.5172
    197  P         26.9500   33.3260   10.2100 P.3    11  U11         0.2141
    198  C5'       26.8580   31.1400    8.7860 C.3    11  U11         0.1812
    199  O5'       27.5900   31.9830    9.6620 O.3    11  U11        -0.3114
    200  C4'       27.7190   29.9830    8.3560 C.3    11  U11         0.1773
    201  O4'       28.8410   30.4820    7.6000 O.3    11  U11        -0.3307
    202  C3'       28.3870   29.2310    9.4890 C.3    11  U11         0.1860
    203  O3'       27.4570   28.3160   10.0410 O.3    11  U11        -0.3112
    204  C2'       29.5540   28.5500    8.7800 C.3    11  U11         0.2309
    205  O2'       29.1880   27.3690    8.0960 O.3    11  U11        -0.2156
    206  C1'       29.9390   29.6090    7.7480 C.3    11  U11         0.2420
    207  N1        31.1180   30.4110    8.0840 N.ar   11  U11        -0.2534
    208  C2        32.3330   29.7650    8.1140 C.ar   11  U11         0.3546
    209  O2        32.4550   28.5830    7.8690 O.2    11  U11        -0.2443
    210  N3        33.4050   30.5540    8.4370 N.ar   11  U11        -0.1530
    211  C4        33.3830   31.8990    8.7080 C.ar   11  U11         0.2846
    212  O4        34.4400   32.4700    8.9860 O.2    11  U11        -0.2650
    213  C5        32.0810   32.5020    8.6450 C.ar   11  U11         0.0814
    214  C6        31.0190   31.7500    8.3510 C.ar   11  U11         0.0870
    215  OP1       25.8690   32.9810   11.1420 O.3    11  U11        -0.4373
    216  OP2       28.0630   34.1950   10.6690 O.co2  11  U11        -0.5172
    217  P         27.4670   28.0240   11.6140 P.3    12  C12         0.2141
    218  C5'       29.4070   26.5170   12.5080 C.3    12  C12         0.1812
    219  O5'       28.2700   26.6560   11.6820 O.3    12  C12        -0.3114
    220  C4'       30.5150   25.8170   11.7600 C.3    12  C12         0.1773
    221  O4'       31.0540   26.6960   10.7360 O.3    12  C12        -0.3307
    222  C3'       31.6990   25.4790   12.6510 C.3    12  C12         0.1860
    223  O3'       31.4590   24.2210   13.2730 O.3    12  C12        -0.3112
    224  C2'       32.8640   25.4480   11.6690 C.3    12  C12         0.2309
    225  O2'       32.9860   24.2140   10.9870 O.3    12  C12        -0.2156
    226  C1'       32.4640   26.5530   10.6870 C.3    12  C12         0.2420
    227  N1        33.0700   27.8600   10.9870 N.ar   12  C12        -0.2535
    228  C2        34.4640   27.9770   10.9930 C.ar   12  C12         0.3532
    229  O2        35.1560   26.9700   10.7660 O.2    12  C12        -0.2443
    230  N3        35.0250   29.1780   11.2450 N.ar   12  C12        -0.1739
    231  C4        34.2550   30.2320   11.4880 C.ar   12  C12         0.1759
    232  N4        34.8550   31.3900   11.7290 N.pl3  12  C12        -0.1070
    233  C5        32.8360   30.1430   11.4950 C.ar   12  C12         0.0566
    234  C6        32.2890   28.9480   11.2450 C.ar   12  C12         0.0850
    235  OP1       26.0450   27.7790   12.0100 O.2    12  C12        -0.5172
    236  OP2       28.2710   29.0560   12.3270 O.co2  12  C12        -0.4373
    237  P         31.8240   24.0160   14.8210 P.3    13  G13         0.2141
    238  C5'       34.1490   22.9500   14.2170 C.3    13  G13         0.1812
    239  O5'       33.4170   24.0190   14.8130 O.3    13  G13        -0.3114
    240  C4'       35.6290   23.1720   14.4000 C.3    13  G13         0.1773
    241  O4'       36.0740   24.2580   13.5490 O.3    13  G13        -0.3307
    242  C3'       36.0220   23.6120   15.7980 C.3    13  G13         0.1860
    243  O3'       36.1520   22.5120   16.6900 O.3    13  G13        -0.3112
    244  C2'       37.3380   24.3440   15.5670 C.3    13  G13         0.2309
    245  O2'       38.4720   23.5090   15.5190 O.3    13  G13        -0.2156
    246  C1'       37.0840   25.0020   14.2120 C.3    13  G13         0.2408
    247  N1        38.3920   29.8200   15.1560 N.ar   13  G13        -0.1709
    248  C2        39.1750   28.6910   15.1130 C.ar   13  G13         0.2606
    249  N2        40.4740   28.8670   15.3650 N.pl3  13  G13        -0.0859
    250  N3        38.7170   27.4770   14.8490 N.ar   13  G13        -0.1918
    251  C4        37.3840   27.4750   14.6420 C.ar   13  G13         0.1723
    252  C5        36.5070   28.5390   14.6730 C.ar   13  G13         0.1748
    253  C6        37.0180   29.8470   14.9420 C.ar   13  G13         0.3023
    254  O6        36.4060   30.9250   14.9970 O.2    13  G13        -0.2633
    255  N7        35.2080   28.1110   14.4220 N.ar   13  G13        -0.2173
    256  C8        35.3200   26.8220   14.2410 C.ar   13  G13         0.1817
    257  N9        36.6120   26.3720   14.3580 N.ar   13  G13        -0.2693
    258  OP1       31.3360   22.6620   15.1920 O.2    13  G13        -0.5172
    259  OP2       31.3570   25.1920   15.6000 O.co2  13  G13        -0.4373
    260  P         36.2070   22.7890   18.2710 P.3    14  C14         0.2141
    261  C5'       38.8260   22.8570   18.3710 C.3    14  C14         0.1812
    262  O5'       37.5930   23.5550   18.4510 O.3    14  C14        -0.3114
    263  C4'       39.9360   23.7300   18.8860 C.3    14  C14         0.1773
    264  O4'       40.1060   24.8600   17.9860 O.3    14  C14        -0.3307
    265  C3'       39.6360   24.4190   20.2040 C.3    14  C14         0.1860
    266  O3'       39.7590   23.5860   21.3430 O.3    14  C14        -0.3112
    267  C2'       40.6370   25.5610   20.1810 C.3    14  C14         0.2309
    268  O2'       41.9670   25.1380   20.4190 O.3    14  C14        -0.2156
    269  C1'       40.4990   26.0120   18.7310 C.3    14  C14         0.2420
    270  N1        39.4790   27.0740   18.5640 N.ar   14  C14        -0.2535
    271  C2        39.8820   28.4280   18.6820 C.ar   14  C14         0.3532
    272  O2        41.0640   28.6870   18.9770 O.2    14  C14        -0.2443
    273  N3        38.9710   29.4120   18.4800 N.ar   14  C14        -0.1739
    274  C4        37.7060   29.0990   18.1950 C.ar   14  C14         0.1759
    275  N4        36.8530   30.1030   17.9800 N.pl3  14  C14        -0.1070
    276  C5        37.2610   27.7390   18.1080 C.ar   14  C14         0.0566
    277  C6        38.1720   26.7690   18.2950 C.ar   14  C14         0.0850
    278  OP1       36.2950   21.4730   18.9630 O.3    14  C14        -0.4373
    279  OP2       35.1040   23.7350   18.6220 O.co2  14  C14        -0.5172
    280  P         38.9440   23.9670   22.6790 P.3    15  G15         0.2141
    281  C5'       40.9220   25.4550   23.4890 C.3    15  G15         0.1812
    282  O5'       39.5600   25.3690   23.1210 O.3    15  G15        -0.3114
    283  C4'       41.3390   26.8860   23.6190 C.3    15  G15         0.1773
    284  O4'       41.0520   27.5690   22.3740 O.3    15  G15        -0.3307
    285  C3'       40.5760   27.7400   24.6110 C.3    15  G15         0.1860
    286  O3'       40.9510   27.5320   25.9630 O.3    15  G15        -0.3112
    287  C2'       40.9750   29.1300   24.1530 C.3    15  G15         0.2309
    288  O2'       42.2900   29.4640   24.5350 O.3    15  G15        -0.2156
    289  C1'       40.9100   28.9630   22.6350 C.3    15  G15         0.2408
    290  N1        38.0140   33.0450   21.9380 N.ar   15  G15        -0.1709
    291  C2        39.2960   32.9530   22.4010 C.ar   15  G15         0.2606
    292  N2        39.8800   34.1100   22.7390 N.pl3  15  G15        -0.0859
    293  N3        39.9560   31.8140   22.5240 N.ar   15  G15        -0.1918
    294  C4        39.2170   30.7570   22.1280 C.ar   15  G15         0.1723
    295  C5        37.9300   30.7420   21.6440 C.ar   15  G15         0.1748
    296  C6        37.2300   31.9730   21.5370 C.ar   15  G15         0.3023
    297  O6        36.0730   32.1730   21.1630 O.2    15  G15        -0.2633
    298  N7        37.5350   29.4470   21.3320 N.ar   15  G15        -0.2173
    299  C8        38.5690   28.7110   21.6400 C.ar   15  G15         0.1817
    300  N9        39.6190   29.4430   22.1410 N.ar   15  G15        -0.2693
    301  OP1       39.3200   22.9490   23.6970 O.3    15  G15        -0.4373
    302  OP2       37.5100   24.1680   22.3360 O.co2  15  G15        -0.5172
    303  P         39.8940   27.8650   27.1350 P.3    16  G16         0.2141
    304  C5'       40.9900   30.2570   27.3170 C.3    16  G16         0.1813
    305  O5'       39.8150   29.4650   27.1230 O.3    16  G16        -0.3114
    306  C4'       40.6740   31.7390   27.2110 C.3    16  G16         0.1801
    307  O4'       40.2320   32.0700   25.8660 O.3    16  G16        -0.3306
    308  C3'       39.5530   32.2860   28.0710 C.3    16  G16         0.2161
    309  O3'       39.8290   32.3460   29.4680 O.3    16  G16        -0.2175
    310  C2'       39.2540   33.6080   27.3730 C.3    16  G16         0.2337
    311  O2'       40.2230   34.6150   27.6030 O.3    16  G16        -0.2155
    312  C1'       39.3310   33.1770   25.9090 C.3    16  G16         0.2409
    313  N1        34.6970   34.5880   24.3130 N.ar   16  G16        -0.1709
    314  C2        35.7540   35.3730   24.7080 C.ar   16  G16         0.2606
    315  N2        35.5350   36.6970   24.6900 N.pl3  16  G16        -0.0859
    316  N3        36.9350   34.8910   25.0940 N.ar   16  G16        -0.1918
    317  C4        36.9680   33.5350   25.0510 C.ar   16  G16         0.1723
    318  C5        35.9660   32.6620   24.6760 C.ar   16  G16         0.1748
    319  C6        34.7070   33.1940   24.2720 C.ar   16  G16         0.3023
    320  O6        33.6940   32.5820   23.9230 O.2    16  G16        -0.2633
    321  N7        36.3970   31.3420   24.7700 N.ar   16  G16        -0.2173
    322  C8        37.6250   31.4330   25.1970 C.ar   16  G16         0.1817
    323  N9        38.0330   32.7330   25.4000 N.ar   16  G16        -0.2693
    324  OP1       40.4810   27.4270   28.4380 O.3    16  G16        -0.4373
    325  OP2       38.5800   27.2940   26.7050 O.co2  16  G16        -0.5172
    326  C5'       34.9560   41.2440   20.4910 C.3    21  C21         0.2141
    327  O5'       35.0620   42.1290   19.3820 O.3    21  C21        -0.2176
    328  C4'       36.2780   40.9650   21.1720 C.3    21  C21         0.1802
    329  O4'       36.0380   40.0130   22.2340 O.3    21  C21        -0.3306
    330  C3'       37.3590   40.3270   20.3080 C.3    21  C21         0.1861
    331  O3'       38.1940   41.3180   19.7310 O.3    21  C21        -0.3112
    332  C2'       38.1510   39.5230   21.3210 C.3    21  C21         0.2309
    333  O2'       39.0120   40.3510   22.0740 O.3    21  C21        -0.2156
    334  C1'       37.0340   39.0150   22.2240 C.3    21  C21         0.2420
    335  N1        36.3930   37.7790   21.7730 N.ar   21  C21        -0.2535
    336  C2        37.0290   36.5630   21.9870 C.ar   21  C21         0.3532
    337  O2        38.1760   36.5620   22.4710 O.2    21  C21        -0.2443
    338  N3        36.3790   35.4170   21.6620 N.ar   21  C21        -0.1739
    339  C4        35.1540   35.4720   21.1350 C.ar   21  C21         0.1759
    340  N4        34.5230   34.3260   20.8780 N.pl3  21  C21        -0.1070
    341  C5        34.5140   36.7040   20.8580 C.ar   21  C21         0.0566
    342  C6        35.1630   37.8200   21.1830 C.ar   21  C21         0.0850
    343  P         38.9490   41.0200   18.3450 P.3    22  G22         0.2141
    344  C5'       41.1680   40.1000   19.3690 C.3    22  G22         0.1812
    345  O5'       39.9350   39.8240   18.7130 O.3    22  G22        -0.3114
    346  C4'       42.0150   38.8580   19.4440 C.3    22  G22         0.1773
    347  O4'       41.2970   37.8560   20.2030 O.3    22  G22        -0.3307
    348  C3'       42.3160   38.1650   18.1260 C.3    22  G22         0.1860
    349  O3'       43.4250   38.7770   17.4650 O.3    22  G22        -0.3112
    350  C2'       42.6320   36.7420   18.5830 C.3    22  G22         0.2309
    351  O2'       43.9580   36.5820   19.0680 O.3    22  G22        -0.2156
    352  C1'       41.6270   36.5610   19.7270 C.3    22  G22         0.2408
    353  N1        39.2760   32.1240   18.8620 N.ar   22  G22        -0.1709
    354  C2        40.5550   32.3580   19.3030 C.ar   22  G22         0.2606
    355  N2        41.3050   31.2720   19.5130 N.pl3  22  G22        -0.0859
    356  N3        41.0620   33.5690   19.5160 N.ar   22  G22        -0.1918
    357  C4        40.1690   34.5430   19.2360 C.ar   22  G22         0.1723
    358  C5        38.8690   34.4140   18.7870 C.ar   22  G22         0.1748
    359  C6        38.3400   33.1080   18.5710 C.ar   22  G22         0.3023
    360  O6        37.2130   32.7860   18.1750 O.2    22  G22        -0.2633
    361  N7        38.2890   35.6610   18.6000 N.ar   22  G22        -0.2173
    362  C8        39.2260   36.5090   18.9320 C.ar   22  G22         0.1817
    363  N9        40.3920   35.8990   19.3200 N.ar   22  G22        -0.2693
    364  OP1       39.7910   42.2120   18.0580 O.3    22  G22        -0.4373
    365  OP2       37.9330   40.5810   17.3430 O.co2  22  G22        -0.5172
    366  P         43.7480   38.4040   15.9300 P.3    23  C23         0.2141
    367  C5'       45.0630   36.1930   16.3900 C.3    23  C23         0.1812
    368  O5'       43.8570   36.8160   15.9550 O.3    23  C23        -0.3114
    369  C4'       45.0250   34.7080   16.1160 C.3    23  C23         0.1773
    370  O4'       43.9860   34.1060   16.9270 O.3    23  C23        -0.3307
    371  C3'       44.6560   34.2560   14.7080 C.3    23  C23         0.1860
    372  O3'       45.7240   34.3420   13.7650 O.3    23  C23        -0.3112
    373  C2'       44.2630   32.8120   14.9640 C.3    23  C23         0.2309
    374  O2'       45.3840   31.9790   15.1680 O.3    23  C23        -0.2156
    375  C1'       43.4940   32.9520   16.2740 C.3    23  C23         0.2420
    376  N1        42.0760   33.1490   15.9860 N.ar   23  C23        -0.2535
    377  C2        41.2520   32.0200   15.9310 C.ar   23  C23         0.3532
    378  O2        41.7470   30.9060   16.1800 O.2    23  C23        -0.2443
    379  N3        39.9440   32.1680   15.6120 N.ar   23  C23        -0.1739
    380  C4        39.4550   33.3840   15.3690 C.ar   23  C23         0.1759
    381  N4        38.1670   33.4770   15.0590 N.pl3  23  C23        -0.1070
    382  C5        40.2700   34.5570   15.4370 C.ar   23  C23         0.0566
    383  C6        41.5640   34.3950   15.7490 C.ar   23  C23         0.0850
    384  OP1       45.1080   38.9280   15.6420 O.3    23  C23        -0.4373
    385  OP2       42.6110   38.8070   15.0570 O.co2  23  C23        -0.5172
    386  P         45.3810   34.3900   12.1880 P.3    24  G24         0.2141
    387  C5'       45.5750   31.7750   12.0800 C.3    24  G24         0.1812
    388  O5'       44.7770   32.9420   11.8870 O.3    24  G24        -0.3114
    389  C4'       44.7760   30.5310   11.7910 C.3    24  G24         0.1773
    390  O4'       43.7800   30.3320   12.8280 O.3    24  G24        -0.3307
    391  C3'       43.9620   30.5550   10.5130 C.3    24  G24         0.1860
    392  O3'       44.7530   30.2980    9.3600 O.3    24  G24        -0.3112
    393  C2'       42.9300   29.4690   10.7890 C.3    24  G24         0.2309
    394  O2'       43.4340   28.1570   10.6310 O.3    24  G24        -0.2156
    395  C1'       42.6120   29.7390   12.2630 C.3    24  G24         0.2408
    396  N1        37.6110   30.4450   11.7730 N.ar   24  G24        -0.1709
    397  C2        38.3290   29.2900   11.6690 C.ar   24  G24         0.2606
    398  N2        37.6280   28.1880   11.3610 N.pl3  24  G24        -0.0859
    399  N3        39.6370   29.2180   11.8550 N.ar   24  G24        -0.1918
    400  C4        40.1660   30.4170   12.1710 C.ar   24  G24         0.1723
    401  C5        39.5250   31.6240   12.3100 C.ar   24  G24         0.1748
    402  C6        38.1380   31.6870   12.0910 C.ar   24  G24         0.3023
    403  O6        37.4020   32.6690   12.1380 O.2    24  G24        -0.2633
    404  N7        40.4230   32.6250   12.6510 N.ar   24  G24        -0.2173
    405  C8        41.5790   32.0220   12.6960 C.ar   24  G24         0.1817
    406  N9        41.5000   30.6840   12.3890 N.ar   24  G24        -0.2693
    407  OP1       46.6680   34.5210   11.4450 O.2    24  G24        -0.5172
    408  OP2       44.3110   35.4020   11.9750 O.co2  24  G24        -0.4373
    409  P         44.2150   30.7620    7.9150 P.3    25  U25         0.2141
    410  C5'       43.1650   28.3580    7.7060 C.3    25  U25         0.1812
    411  O5'       42.9870   29.7730    7.6480 O.3    25  U25        -0.3114
    412  C4'       41.9030   27.6480    7.2730 C.3    25  U25         0.1773
    413  O4'       40.8900   27.6820    8.3200 O.3    25  U25        -0.3307
    414  C3'       41.1960   28.2540    6.0770 C.3    25  U25         0.1860
    415  O3'       41.8120   27.8870    4.8560 O.3    25  U25        -0.3112
    416  C2'       39.7970   27.6630    6.2020 C.3    25  U25         0.2309
    417  O2'       39.7090   26.3440    5.6860 O.3    25  U25        -0.2156
    418  C1'       39.5940   27.7000    7.7220 C.3    25  U25         0.2420
    419  N1        38.8990   28.9350    8.1250 N.ar   25  U25        -0.2534
    420  C2        37.5110   28.9400    8.0690 C.ar   25  U25         0.3546
    421  O2        36.8570   27.9630    7.7600 O.2    25  U25        -0.2443
    422  N3        36.9190   30.1380    8.3940 N.ar   25  U25        -0.1530
    423  C4        37.5540   31.3070    8.7770 C.ar   25  U25         0.2846
    424  O4        36.8820   32.3210    8.9790 O.2    25  U25        -0.2650
    425  C5        38.9890   31.2160    8.8440 C.ar   25  U25         0.0814
    426  C6        39.5970   30.0620    8.5240 C.ar   25  U25         0.0870
    427  OP1       45.2790   30.4840    6.9090 O.2    25  U25        -0.5172
    428  OP2       43.6940   32.1530    8.0560 O.co2  25  U25        -0.4373
    429  P         41.5960   28.8060    3.5550 P.3    26  C26         0.2141
    430  C5'       39.5820   27.2880    2.8300 C.3    26  C26         0.1812
    431  O5'       40.0620   28.5850    3.1610 O.3    26  C26        -0.3114
    432  C4'       38.0700   27.2480    2.8460 C.3    26  C26         0.1773
    433  O4'       37.5850   27.5070    4.1950 O.3    26  C26        -0.3307
    434  C3'       37.3210   28.2790    2.0140 C.3    26  C26         0.1860
    435  O3'       37.2890   27.9970    0.6160 O.3    26  C26        -0.3112
    436  C2'       35.9370   28.2100    2.6480 C.3    26  C26         0.2309
    437  O2'       35.2260   27.0480    2.2740 O.3    26  C26        -0.2156
    438  C1'       36.3030   28.1360    4.1320 C.3    26  C26         0.2420
    439  N1        36.4120   29.4930    4.7060 N.ar   26  C26        -0.2535
    440  C2        35.2400   30.1930    5.0300 C.ar   26  C26         0.3532
    441  O2        34.1450   29.6180    4.9020 O.2    26  C26        -0.2443
    442  N3        35.3380   31.4750    5.4750 N.ar   26  C26        -0.1739
    443  C4        36.5420   32.0430    5.6090 C.ar   26  C26         0.1759
    444  N4        36.6070   33.3100    6.0020 N.pl3  26  C26        -0.1070
    445  C5        37.7410   31.3370    5.3320 C.ar   26  C26         0.0566
    446  C6        37.6340   30.0770    4.8900 C.ar   26  C26         0.0850
    447  OP1       42.4800   28.2000    2.5200 O.2    26  C26        -0.5172
    448  OP2       41.7860   30.2330    3.9330 O.co2  26  C26        -0.4373
    449  P         37.1570   29.2190   -0.4290 P.3    27  A27         0.2141
    450  C5'       34.5870   28.6860   -0.4030 C.3    27  A27         0.1812
    451  O5'       35.6260   29.6580   -0.3020 O.3    27  A27        -0.3114
    452  C4'       33.2600   29.2800    0.0080 C.3    27  A27         0.1773
    453  O4'       33.3700   29.7950    1.3620 O.3    27  A27        -0.3307
    454  C3'       32.7720   30.4860   -0.7780 C.3    27  A27         0.1860
    455  O3'       32.1400   30.1320   -2.0030 O.3    27  A27        -0.3112
    456  C2'       31.7710   31.1030    0.1900 C.3    27  A27         0.2309
    457  O2'       30.5210   30.4360    0.1770 O.3    27  A27        -0.2156
    458  C1'       32.4910   30.8990    1.5260 C.3    27  A27         0.2408
    459  N1        32.2480   35.8610    2.7540 N.ar   27  A27        -0.2040
    460  C2        31.3210   34.9720    2.3760 C.ar   27  A27         0.2016
    461  N3        31.4620   33.6850    2.0670 N.ar   27  A27        -0.2048
    462  C4        32.7470   33.3150    2.1760 C.ar   27  A27         0.1692
    463  C5        33.8140   34.1150    2.5490 C.ar   27  A27         0.1518
    464  C6        33.5250   35.4580    2.8510 C.ar   27  A27         0.1919
    465  N6        34.4350   36.3510    3.2260 N.pl3  27  A27        -0.1054
    466  N7        34.9970   33.3850    2.5530 N.ar   27  A27        -0.2193
    467  C8        34.6240   32.1800    2.1870 C.ar   27  A27         0.1816
    468  N9        33.2710   32.0680    1.9430 N.ar   27  A27        -0.2693
    469  OP1       37.3330   28.7150   -1.8120 O.2    27  A27        -0.5172
    470  OP2       38.0420   30.3140    0.0570 O.co2  27  A27        -0.4373
    471  P         32.3330   31.0810   -3.2850 P.3    28  C28         0.2141
    472  C5'       30.2660   32.6830   -3.0640 C.3    28  C28         0.1812
    473  O5'       31.6570   32.4620   -2.8620 O.3    28  C28        -0.3114
    474  C4'       29.9000   34.1220   -2.7540 C.3    28  C28         0.1773
    475  O4'       30.2860   34.4360   -1.3870 O.3    28  C28        -0.3307
    476  C3'       30.5980   35.2120   -3.5520 C.3    28  C28         0.1860
    477  O3'       30.0380   35.3700   -4.8550 O.3    28  C28        -0.3112
    478  C2'       30.3660   36.4270   -2.6610 C.3    28  C28         0.2309
    479  O2'       29.0400   36.9200   -2.7200 O.3    28  C28        -0.2156
    480  C1'       30.6070   35.8150   -1.2840 C.3    28  C28         0.2420
    481  N1        32.0130   35.9210   -0.8930 N.ar   28  C28        -0.2535
    482  C2        32.5160   37.1700   -0.5430 C.ar   28  C28         0.3532
    483  O2        31.7380   38.1470   -0.5340 O.2    28  C28        -0.2443
    484  N3        33.8320   37.2850   -0.2220 N.ar   28  C28        -0.1739
    485  C4        34.6190   36.2060   -0.2420 C.ar   28  C28         0.1759
    486  N4        35.9070   36.3640    0.0390 N.pl3  28  C28        -0.1070
    487  C5        34.1180   34.9200   -0.5630 C.ar   28  C28         0.0566
    488  C6        32.8230   34.8220   -0.8810 C.ar   28  C28         0.0850
    489  OP1       31.5570   30.5240   -4.4170 O.2    28  C28        -0.5172
    490  OP2       33.8000   31.3000   -3.4380 O.co2  28  C28        -0.4373
    491  P         30.9660   35.8940   -6.0570 P.3    29  A29         0.2141
    492  C5'       30.1610   38.3370   -5.5750 C.3    29  A29         0.1812
    493  O5'       31.2380   37.4130   -5.6670 O.3    29  A29        -0.3114
    494  C4'       30.6810   39.7390   -5.3580 C.3    29  A29         0.1773
    495  O4'       31.2750   39.8350   -4.0380 O.3    29  A29        -0.3307
    496  C3'       31.7960   40.2020   -6.2800 C.3    29  A29         0.1860
    497  O3'       31.3220   40.6650   -7.5370 O.3    29  A29        -0.3112
    498  C2'       32.3830   41.3370   -5.4710 C.3    29  A29         0.2309
    499  O2'       31.4910   42.4310   -5.5090 O.3    29  A29        -0.2156
    500  C1'       32.3820   40.7140   -4.0760 C.3    29  A29         0.2408
    501  N1        37.1590   40.5770   -2.0750 N.ar   29  A29        -0.2040
    502  C2        36.3190   41.5930   -2.3090 C.ar   29  A29         0.2016
    503  N3        35.1060   41.5800   -2.8700 N.ar   29  A29        -0.2048
    504  C4        34.7570   40.3330   -3.2210 C.ar   29  A29         0.1692
    505  C5        35.5170   39.1890   -3.0570 C.ar   29  A29         0.1518
    506  C6        36.7780   39.3350   -2.4420 C.ar   29  A29         0.1919
    507  N6        37.6040   38.3150   -2.1940 N.pl3  29  A29        -0.1054
    508  N7        34.8400   38.0810   -3.5400 N.ar   29  A29        -0.2193
    509  C8        33.6950   38.5670   -3.9570 C.ar   29  A29         0.1816
    510  N9        33.5680   39.9170   -3.7750 N.ar   29  A29        -0.2693
    511  OP1       30.1170   35.8290   -7.2720 O.2    29  A29        -0.5172
    512  OP2       32.2640   35.1580   -6.0220 O.co2  29  A29        -0.4373
    513  P         32.1590   40.3130   -8.8670 P.3    30  C30         0.2141
    514  C5'       32.8030   42.8400   -9.2000 C.3    30  C30         0.1812
    515  O5'       33.2170   41.5000   -8.9720 O.3    30  C30        -0.3114
    516  C4'       33.8570   43.7960   -8.6970 C.3    30  C30         0.1773
    517  O4'       34.0820   43.5160   -7.2910 O.3    30  C30        -0.3307
    518  C3'       35.2490   43.6410   -9.2810 C.3    30  C30         0.1860
    519  O3'       35.4040   44.2890  -10.5250 O.3    30  C30        -0.3112
    520  C2'       36.0940   44.3190   -8.2200 C.3    30  C30         0.2309
    521  O2'       35.9700   45.7260   -8.2360 O.3    30  C30        -0.2156
    522  C1'       35.4360   43.7800   -6.9590 C.3    30  C30         0.2420
    523  N1        36.0750   42.5270   -6.5410 N.ar   30  C30        -0.2535
    524  C2        37.3080   42.5980   -5.8700 C.ar   30  C30         0.3532
    525  O2        37.8050   43.7280   -5.6250 O.2    30  C30        -0.2443
    526  N3        37.9250   41.4450   -5.5100 N.ar   30  C30        -0.1739
    527  C4        37.3600   40.2720   -5.7940 C.ar   30  C30         0.1759
    528  N4        38.0130   39.1700   -5.4470 N.pl3  30  C30        -0.1070
    529  C5        36.1030   40.1780   -6.4580 C.ar   30  C30         0.0566
    530  C6        35.5010   41.3170   -6.8080 C.ar   30  C30         0.0850
    531  OP1       31.2210   40.3820  -10.0290 O.2    30  C30        -0.5172
    532  OP2       32.9300   39.0570   -8.6050 O.co2  30  C30        -0.4373
    533  P         36.5210   43.7590  -11.5480 P.3    31  C31         0.2141
    534  C5'       38.2800   45.4800  -10.6600 C.3    31  C31         0.1812
    535  O5'       37.9010   44.1200  -10.8400 O.3    31  C31        -0.3114
    536  C4'       39.6120   45.5800   -9.9480 C.3    31  C31         0.1773
    537  O4'       39.5320   44.8790   -8.6820 O.3    31  C31        -0.3307
    538  C3'       40.7950   44.9020  -10.6050 C.3    31  C31         0.1860
    539  O3'       41.3550   45.6400  -11.6680 O.3    31  C31        -0.3112
    540  C2'       41.7650   44.7960   -9.4440 C.3    31  C31         0.2309
    541  O2'       42.3720   46.0280   -9.1090 O.3    31  C31        -0.2156
    542  C1'       40.8140   44.3870   -8.3300 C.3    31  C31         0.2420
    543  N1        40.7420   42.9290   -8.2010 N.ar   31  C31        -0.2535
    544  C2        41.7870   42.2750   -7.5650 C.ar   31  C31         0.3532
    545  O2        42.7630   42.9470   -7.1810 O.2    31  C31        -0.2443
    546  N3        41.7210   40.9380   -7.3860 N.ar   31  C31        -0.1739
    547  C4        40.6650   40.2640   -7.8270 C.ar   31  C31         0.1759
    548  N4        40.6220   38.9570   -7.5990 N.pl3  31  C31        -0.1070
    549  C5        39.6000   40.9020   -8.5130 C.ar   31  C31         0.0566
    550  C6        39.6760   42.2260   -8.6760 C.ar   31  C31         0.0850
    551  OP1       36.3990   44.5900  -12.7730 O.2    31  C31        -0.5172
    552  OP2       36.3950   42.2810  -11.6480 O.co2  31  C31        -0.4373
    553  P         42.0940   44.8500  -12.8460 P.3    32  A32         0.2141
    554  C5'       44.4090   45.0740  -11.6080 C.3    32  A32         0.1812
    555  O5'       43.3760   44.2280  -12.1230 O.3    32  A32        -0.3114
    556  C4'       45.5450   44.2530  -11.0310 C.3    32  A32         0.1773
    557  O4'       45.0650   43.5040   -9.8840 O.3    32  A32        -0.3307
    558  C3'       46.1480   43.1660  -11.9100 C.3    32  A32         0.1860
    559  O3'       47.0990   43.6470  -12.8460 O.3    32  A32        -0.3112
    560  C2'       46.8460   42.3020  -10.8740 C.3    32  A32         0.2309
    561  O2'       48.0310   42.9110  -10.3920 O.3    32  A32        -0.2156
    562  C1'       45.8000   42.2890   -9.7660 C.3    32  A32         0.2408
    563  N1        45.0850   37.3600   -8.6310 N.ar   32  A32        -0.2040
    564  C2        46.1010   38.1960   -8.4220 C.ar   32  A32         0.2016
    565  N3        46.2220   39.4770   -8.7580 N.ar   32  A32        -0.2048
    566  C4        45.1230   39.8970   -9.3980 C.ar   32  A32         0.1692
    567  C5        43.9980   39.1500   -9.6910 C.ar   32  A32         0.1518
    568  C6        43.9980   37.8180   -9.2770 C.ar   32  A32         0.1919
    569  N6        42.9930   36.9850   -9.4850 N.pl3  32  A32        -0.1054
    570  N7        43.0570   39.9180  -10.3640 N.ar   32  A32        -0.2193
    571  C8        43.6270   41.0980  -10.4600 C.ar   32  A32         0.1816
    572  N9        44.8780   41.1560   -9.8840 N.ar   32  A32        -0.2693
    573  OP1       42.5050   45.8890  -13.8270 O.2    32  A32        -0.5172
    574  OP2       41.2430   43.7070  -13.2900 O.co2  32  A32        -0.4373
    575  P         47.6420   42.6530  -13.9750 P.3    33  C33         0.2141
    576  C5'       48.7600   40.2930  -13.7450 C.3    33  C33         0.1812
    577  O5'       48.4770   41.5650  -13.1670 O.3    33  C33        -0.3114
    578  C4'       49.4670   39.3920  -12.7520 C.3    33  C33         0.1773
    579  O4'       48.5910   39.1230  -11.6330 O.3    33  C33        -0.3307
    580  C3'       49.7680   38.0260  -13.3300 C.3    33  C33         0.1860
    581  O3'       51.0090   38.0630  -14.0010 O.3    33  C33        -0.3112
    582  C2'       49.7530   37.1200  -12.1090 C.3    33  C33         0.2309
    583  O2'       50.9290   37.1560  -11.3490 O.3    33  C33        -0.2156
    584  C1'       48.6460   37.7560  -11.2870 C.3    33  C33         0.2420
    585  N1        47.3450   37.1890  -11.5870 N.ar   33  C33        -0.2535
    586  C2        47.0780   35.8900  -11.2060 C.ar   33  C33         0.3532
    587  O2        47.9750   35.2460  -10.6480 O.2    33  C33        -0.2443
    588  N3        45.8520   35.3640  -11.4680 N.ar   33  C33        -0.1739
    589  C4        44.9410   36.0990  -12.1070 C.ar   33  C33         0.1759
    590  N4        43.7630   35.5590  -12.3660 N.pl3  33  C33        -0.1070
    591  C5        45.2040   37.4260  -12.5150 C.ar   33  C33         0.0566
    592  C6        46.4040   37.9280  -12.2360 C.ar   33  C33         0.0850
    593  OP1       48.5750   43.4430  -14.7990 O.2    33  C33        -0.5172
    594  OP2       46.4810   41.9690  -14.6080 O.co2  33  C33        -0.4373
    595  P         51.0970   37.5670  -15.5220 P.3    34  C34         0.2141
    596  C5'       53.0300   35.8660  -15.0300 C.3    34  C34         0.1813
    597  O5'       51.6600   36.0790  -15.3680 O.3    34  C34        -0.3114
    598  C4'       53.2470   34.4760  -14.4780 C.3    34  C34         0.1801
    599  O4'       52.3390   34.2630  -13.3770 O.3    34  C34        -0.3306
    600  C3'       52.9800   33.2970  -15.3960 C.3    34  C34         0.2161
    601  O3'       54.0720   33.0020  -16.2940 O.3    34  C34        -0.2175
    602  C2'       52.7590   32.1610  -14.4050 C.3    34  C34         0.2338
    603  O2'       53.9670   31.5950  -13.9410 O.3    34  C34        -0.2155
    604  C1'       52.0550   32.8850  -13.2550 C.3    34  C34         0.2421
    605  N1        50.6050   32.7280  -13.2760 N.ar   34  C34        -0.2535
    606  C2        50.0550   31.5800  -12.7550 C.ar   34  C34         0.3532
    607  O2        50.8030   30.7560  -12.2460 O.2    34  C34        -0.2443
    608  N3        48.7190   31.3980  -12.8040 N.ar   34  C34        -0.1739
    609  C4        47.9440   32.3450  -13.3270 C.ar   34  C34         0.1759
    610  N4        46.6340   32.1330  -13.3780 N.pl3  34  C34        -0.1070
    611  C5        48.4820   33.5550  -13.8340 C.ar   34  C34         0.0566
    612  C6        49.8090   33.7000  -13.7980 C.ar   34  C34         0.0850
    613  OP1       52.1400   38.3880  -16.1770 O.2    34  C34        -0.5172
    614  OP2       49.7430   37.5490  -16.1060 O.co2  34  C34        -0.4373
@<TRIPOS>BOND
     1   601   600    1
     2   613   595    2
     3   614   595    1
     4   595   597    1
     5   595   581    1
     6   600   598    1
     7   600   602    1
     8   597   596    1
     9   596   598    1
    10   593   575    2
    11   594   575    1
    12   598   599    1
    13   602   603    1
    14   602   604    1
    15   581   580    1
    16   575   577    1
    17   575   559    1
    18   611   612   ar
    19   611   609   ar
    20   573   553    2
    21   612   605   ar
    22   576   577    1
    23   576   578    1
    24   610   609    1
    25   599   604    1
    26   580   578    1
    27   580   582    1
    28   609   608   ar
    29   574   553    1
    30   605   604    1
    31   605   606   ar
    32   559   558    1
    33   553   555    1
    34   553   539    1
    35   608   606   ar
    36   551   533    2
    37   606   607    2
    38   578   579    1
    39   591   592   ar
    40   591   589   ar
    41   590   589    1
    42   592   585   ar
    43   555   554    1
    44   582   583    1
    45   582   584    1
    46   589   588   ar
    47   558   556    1
    48   558   560    1
    49   539   538    1
    50   552   533    1
    51   579   584    1
    52   554   556    1
    53   585   584    1
    54   585   586   ar
    55   533   535    1
    56   533   519    1
    57   588   586   ar
    58   586   587    2
    59   556   557    1
    60   560   561    1
    61   560   562    1
    62   535   534    1
    63   534   536    1
    64   538   536    1
    65   538   540    1
    66   519   518    1
    67   571   570   ar
    68   571   572   ar
    69    17    16    2
    70   570   567   ar
    71   531   513    2
    72    16    10   ar
    73    16    15   ar
    74    10    11   ar
    75   536   537    1
    76   572   562    1
    77   572   566   ar
    78   557   562    1
    79   567   566   ar
    80   567   568   ar
    81    12    11    1
    82    15    18   ar
    83    15    14   ar
    84    11    13   ar
    85   569   568    1
    86   540   541    1
    87   540   542    1
    88   566   565   ar
    89    18    19   ar
    90   518   516    1
    91   518   520    1
    92   568   563   ar
    93   514   515    1
    94   514   516    1
    95    14    13   ar
    96    14    20   ar
    97   515   513    1
    98    19    20   ar
    99   513   532    1
   100   513   497    1
   101   565   564   ar
   102   516   517    1
   103   537   542    1
   104   550   549   ar
   105   550   543   ar
   106    20     9    1
   107   563   564   ar
   108   549   547   ar
   109   542   543    1
   110   521   520    1
   111   520   522    1
   112   543   544   ar
   113     9     4    1
   114     9     7    1
   115   547   548    1
   116   547   546   ar
   117     4     3    1
   118    36    35    2
   119   544   546   ar
   120   544   545    2
   121   497   496    1
   122    34    35   ar
   123    34    32   ar
   124   517   522    1
   125    33    32    2
   126   511   491    2
   127    35    37   ar
   128    32    31   ar
   129   522   523    1
   130     7     8    1
   131     7     5    1
   132   530   523   ar
   133   530   529   ar
   134   523   524   ar
   135    37    38   ar
   136   529   527   ar
   137    53    52    1
   138    31    38   ar
   139    31    30    1
   140     3     1    1
   141     3     5    1
   142     2     1    1
   143   496   498    1
   144   496   494    1
   145    51    52   ar
   146    51    57   ar
   147    58    57    2
   148   491   512    1
   149   491   493    1
   150   491   477    1
   151    30    25    1
   152    30    28    1
   153    52    54   ar
   154   524   525    2
   155   524   526   ar
   156    57    56   ar
   157    25    24    1
   158   527   526   ar
   159   527   528    1
   160     5     6    1
   161   493   492    1
   162   492   494    1
   163   499   498    1
   164   498   500    1
   165    54    55   ar
   166   494   495    1
   167    56    55   ar
   168    56    59   ar
   169    55    61   ar
   170   477   476    1
   171    76    75    1
   172    29    28    1
   173    59    60   ar
   174    28    26    1
   175     6    21    1
   176    61    60   ar
   177    61    50    1
   178   489   471    2
   179    24    22    1
   180    24    26    1
   181    75    74   ar
   182    75    77   ar
   183    74    80   ar
   184    50    45    1
   185    50    48    1
   186   500   495    1
   187   500   510    1
   188    45    44    1
   189    23    22    1
   190    23    21    1
   191   509   510   ar
   192   509   508   ar
   193   510   504   ar
   194    77    78   ar
   195    26    27    1
   196    80    81    2
   197    80    79   ar
   198   476   474    1
   199   476   478    1
   200   508   505   ar
   201   490   471    1
   202    21    40    2
   203    21    39    1
   204   471   473    1
   205   471   455    1
   206    78    79   ar
   207    78    84   ar
   208   504   505   ar
   209   504   503   ar
   210    79    82   ar
   211   472   473    1
   212   472   474    1
   213   505   506   ar
   214    49    48    1
   215   503   502   ar
   216    48    46    1
   217   474   475    1
   218   479   478    1
   219    84    73    1
   220    84    83   ar
   221    44    42    1
   222    44    46    1
   223   478   480    1
   224    82    83   ar
   225    73    68    1
   226    73    71    1
   227    27    41    1
   228   506   507    1
   229   506   501   ar
   230   502   501   ar
   231    42    43    1
   232    72    71    1
   233   455   454    1
   234    68    67    1
   235    46    47    1
   236   469   449    2
   237    43    41    1
   238    71    69    1
   239    99    98    2
   240   475   480    1
   241   480   481    1
   242    41    63    2
   243    41    62    1
   244    98   100   ar
   245    98    97   ar
   246   100   101   ar
   247   481   488   ar
   248   481   482   ar
   249   488   487   ar
   250   454   452    1
   251   454   456    1
   252    96    91    1
   253    96    97    1
   254    96    94    1
   255    91    90    1
   256    67    69    1
   257    67    65    1
   258    47    64    1
   259    97   104   ar
   260   487   485   ar
   261   482   483    2
   262   482   484   ar
   263   449   451    1
   264   449   470    1
   265   449   435    1
   266   450   451    1
   267   450   452    1
   268    69    70    1
   269    95    94    1
   270   101   102    2
   271   101   103   ar
   272   485   484   ar
   273   485   486    1
   274   119   118    1
   275    66    65    1
   276    66    64    1
   277   452   453    1
   278   104   103   ar
   279   457   456    1
   280   456   458    1
   281    94    92    1
   282   118   120   ar
   283   118   117   ar
   284    90    88    1
   285    90    92    1
   286   120   121   ar
   287    64    86    2
   288    64    85    1
   289    70    87    1
   290   435   434    1
   291   117   123   ar
   292    88    89    1
   293   121   127   ar
   294   121   122   ar
   295   111   116    1
   296   111   110    1
   297   116   127    1
   298   116   114    1
   299    92    93    1
   300   123   122   ar
   301   123   124    2
   302   453   458    1
   303   127   126   ar
   304   122   125   ar
   305   458   468    1
   306    89    87    1
   307   468   462   ar
   308   468   467   ar
   309   126   125   ar
   310   434   436    1
   311   434   432    1
   312    87   106    2
   313    87   105    1
   314   115   114    1
   315   461   462   ar
   316   461   460   ar
   317    93   107    1
   318   462   463   ar
   319   467   466   ar
   320   110   108    1
   321   110   112    1
   322   437   436    1
   323   460   459   ar
   324   114   112    1
   325   447   429    2
   326   463   466   ar
   327   463   464   ar
   328   108   109    1
   329   436   438    1
   330   459   464   ar
   331   430   432    1
   332   430   431    1
   333   432   433    1
   334   464   465    1
   335   431   429    1
   336   109   107    1
   337   112   113    1
   338   429   448    1
   339   429   415    1
   340   107   129    2
   341   107   128    1
   342   438   433    1
   343   438   439    1
   344   113   130    1
   345   439   446   ar
   346   439   440   ar
   347   415   414    1
   348   186   185    1
   349   446   445   ar
   350   441   440    2
   351   440   442   ar
   352   185   187   ar
   353   185   184   ar
   354   187   188   ar
   355   445   443   ar
   356   442   443   ar
   357   184   190   ar
   358   443   444    1
   359   188   194   ar
   360   188   189   ar
   361   168   167    1
   362   417   416    1
   363   183   194    1
   364   183   178    1
   365   183   181    1
   366   130   150    2
   367   130   151    1
   368   130   132    1
   369   194   193   ar
   370   190   189   ar
   371   190   191    2
   372   189   192   ar
   373   173   152    2
   374   414   416    1
   375   414   412    1
   376   193   192   ar
   377   178   177    1
   378   416   418    1
   379   182   181    1
   380   131   132    1
   381   131   133    1
   382   167   166   ar
   383   167   162   ar
   384   169   166   ar
   385   169   170   ar
   386   181   179    1
   387   427   409    2
   388   166   165   ar
   389   162   163   ar
   390   412   410    1
   391   412   413    1
   392   196   174    2
   393   177   179    1
   394   177   175    1
   395   152   172    1
   396   152   136    1
   397   152   154    1
   398   170   171   ar
   399   148   147   ar
   400   148   149   ar
   401   201   206    1
   402   201   200    1
   403   147   144   ar
   404   133   135    1
   405   133   134    1
   406   411   410    1
   407   411   409    1
   408   176   175    1
   409   176   174    1
   410   418   419    1
   411   418   413    1
   412   206   207    1
   413   206   204    1
   414   421   420    2
   415   135   136    1
   416   135   137    1
   417   209   208    2
   418   409   428    1
   419   409   392    1
   420   134   139    1
   421   179   180    1
   422   420   419   ar
   423   420   422   ar
   424   207   208   ar
   425   207   214   ar
   426   205   204    1
   427   208   210   ar
   428   419   426   ar
   429   165   171   ar
   430   165   164   ar
   431   163   164   ar
   432   154   153    1
   433   214   213   ar
   434   200   198    1
   435   200   202    1
   436   174   195    1
   437   174   158    1
   438   422   423   ar
   439   210   211   ar
   440   171   161    1
   441   426   425   ar
   442   149   139    1
   443   149   143   ar
   444   213   211   ar
   445   211   212    2
   446   144   143   ar
   447   144   145   ar
   448   423   425   ar
   449   423   424    2
   450   204   202    1
   451   198   199    1
   452   139   137    1
   453   180   197    1
   454   146   145    1
   455   137   138    1
   456   157   159    1
   457   157   158    1
   458   157   155    1
   459   159   161    1
   460   159   160    1
   461   143   142   ar
   462   145   140   ar
   463   392   391    1
   464   202   203    1
   465   153   155    1
   466   161   156    1
   467   199   197    1
   468   155   156    1
   469   203   217    1
   470   197   216    2
   471   197   215    1
   472   142   141   ar
   473   140   141   ar
   474   391   393    1
   475   391   389    1
   476   394   393    1
   477   226   221    1
   478   226   227    1
   479   226   224    1
   480   221   220    1
   481   229   228    2
   482   393   395    1
   483   225   224    1
   484   227   228   ar
   485   227   234   ar
   486   228   230   ar
   487   230   231   ar
   488   234   233   ar
   489   398   397    1
   490   407   386    2
   491   231   233   ar
   492   231   232    1
   493   217   219    1
   494   217   235    2
   495   217   236    1
   496   397   396   ar
   497   397   399   ar
   498   224   222    1
   499   219   218    1
   500   220   218    1
   501   220   222    1
   502   396   402   ar
   503   389   387    1
   504   389   390    1
   505   399   400   ar
   506   388   387    1
   507   388   386    1
   508   408   386    1
   509   402   403    2
   510   402   401   ar
   511   400   401   ar
   512   400   406   ar
   513   386   372    1
   514   395   406    1
   515   395   390    1
   516   401   404   ar
   517   406   405   ar
   518   404   405   ar
   519   222   223    1
   520   223   237    1
   521   241   246    1
   522   241   240    1
   523   372   371    1
   524   246   257    1
   525   246   244    1
   526   238   240    1
   527   238   239    1
   528   256   257   ar
   529   256   255   ar
   530   257   251   ar
   531   240   242    1
   532   255   252   ar
   533   251   252   ar
   534   251   250   ar
   535   252   253   ar
   536   371   373    1
   537   371   369    1
   538   239   237    1
   539   237   258    2
   540   237   259    1
   541   250   248   ar
   542   253   254    2
   543   253   247   ar
   544   373   374    1
   545   373   375    1
   546   385   366    2
   547   381   380    1
   548   248   247   ar
   549   248   249    1
   550   380   382   ar
   551   380   379   ar
   552   382   383   ar
   553   245   244    1
   554   244   242    1
   555   379   377   ar
   556   384   366    1
   557   383   376   ar
   558   242   243    1
   559   366   368    1
   560   366   349    1
   561   377   376   ar
   562   377   378    2
   563   368   367    1
   564   376   375    1
   565   369   367    1
   566   369   370    1
   567   375   370    1
   568   243   260    1
   569   365   343    2
   570   349   348    1
   571   275   274    1
   572   264   269    1
   573   264   263    1
   574   364   343    1
   575   276   274   ar
   576   276   277   ar
   577   348   350    1
   578   348   346    1
   579   360   359    2
   580   274   273   ar
   581   260   262    1
   582   260   279    2
   583   260   278    1
   584   277   270   ar
   585   343   345    1
   586   343   331    1
   587   261   262    1
   588   261   263    1
   589   273   271   ar
   590   270   271   ar
   591   270   269    1
   592   359   358   ar
   593   359   353   ar
   594   350   351    1
   595   350   352    1
   596   361   358   ar
   597   361   362   ar
   598   271   272    2
   599   345   344    1
   600   269   267    1
   601   358   357   ar
   602   353   354   ar
   603   263   265    1
   604   362   363   ar
   605   357   363   ar
   606   357   356   ar
   607   354   355    1
   608   354   356   ar
   609   363   352    1
   610   344   346    1
   611   327   326    1
   612   346   347    1
   613   352   347    1
   614   331   330    1
   615   267   265    1
   616   267   268    1
   617   265   266    1
   618   330   328    1
   619   330   332    1
   620   326   328    1
   621   341   339   ar
   622   341   342   ar
   623   340   339    1
   624   339   338   ar
   625   297   296    2
   626   328   329    1
   627   342   335   ar
   628   332   333    1
   629   332   334    1
   630   298   299   ar
   631   298   295   ar
   632   266   280    1
   633   296   295   ar
   634   296   290   ar
   635   299   300   ar
   636   295   294   ar
   637   338   336   ar
   638   335   336   ar
   639   335   334    1
   640   290   291   ar
   641   336   337    2
   642   294   300   ar
   643   294   293   ar
   644   300   289    1
   645   334   329    1
   646   302   280    2
   647   284   289    1
   648   284   283    1
   649   291   293   ar
   650   291   292    1
   651   289   287    1
   652   280   282    1
   653   280   301    1
   654   282   281    1
   655   281   283    1
   656   283   285    1
   657   320   319    2
   658   287   288    1
   659   287   285    1
   660   319   313   ar
   661   319   318   ar
   662   313   314   ar
   663   285   286    1
   664   318   321   ar
   665   318   317   ar
   666   315   314    1
   667   314   316   ar
   668   321   322   ar
   669   317   316   ar
   670   317   323   ar
   671   322   323   ar
   672   323   312    1
   673   307   312    1
   674   307   306    1
   675   312   310    1
   676   286   303    1
   677   325   303    2
   678   305   303    1
   679   305   304    1
   680   303   324    1
   681   306   304    1
   682   306   308    1
   683   310   311    1
   684   310   308    1
   685   308   309    1
