ligand
 OpenBabel11021811473D
libRbt.so/2013.1/901 2013/11/27
 10  9  0  0  0  0  0  0  0  0999 V2000
   31.7258   16.8818   19.9217 N   0  0  0  0  0  0  0  0  0  0  0  0
   31.1203   17.4774   21.1502 C   0  0  2  0  0  0  0  0  0  0  0  0
   32.1953   17.9176   22.1435 C   0  0  0  0  0  0  0  0  0  0  0  0
   32.1577   19.0282   22.6702 O   0  0  0  0  0  0  0  0  0  0  0  0
   30.1174   16.5101   21.7900 C   0  0  0  0  0  0  0  0  0  0  0  0
   28.8878   16.2617   20.9169 C   0  0  0  0  0  0  0  0  0  0  0  0
   27.9037   15.2922   21.5570 C   0  0  0  0  0  0  0  0  0  0  0  0
   26.6580   15.1207   20.6934 C   0  0  0  0  0  0  0  0  0  0  0  0
   26.9598   14.6120   19.3110 N   0  0  0  0  0  0  0  0  0  0  0  0
   33.1252   17.1787   22.4799 O   0  0  0  0  0  0  0  0  0  0  0  0
  2  1  1  6  0  0  0
  2  3  1  0  0  0  0
  2  5  1  0  0  0  0
  3  4  1  0  0  0  0
  3 10  1  0  0  0  0
  5  6  1  0  0  0  0
  6  7  1  0  0  0  0
  7  8  1  0  0  0  0
  8  9  1  0  0  0  0
M  END
>  <CHROM.1>
132.30393181,-66.14553044,179.57938633,177.15500248,58.82963459,30.11924972
16.64504649,21.28876180,-0.46058436,-0.36001747,-1.97554644

>  <Name>
ligand

>  <RI>
0

>  <Rbt.Current_Directory>
/home/itssahil/PROJECTS/Mol_Feturizer/New_Systems/rnas/3DIL

>  <Rbt.Executable>
rbdock ($Id: //depot/dev/client3/rdock/2013.1/src/exe/rbdock.cxx#4 $)

>  <Rbt.Library>
libRbt.so (2013.1, Build901 2013/11/27)

>  <Rbt.Parameter_File>
/export/apps/rDock/src/rDock_2013.1_src/data/scripts/dock_solv.prm

>  <Rbt.Receptor>
prm/pocket_docking_3.prm

>  <SCORE>
-8.74829

>  <SCORE.INTER>
-8.23072

>  <SCORE.INTER.CONST>
1

>  <SCORE.INTER.POLAR>
0

>  <SCORE.INTER.ROT>
5

>  <SCORE.INTER.SOLV>
15.394

>  <SCORE.INTER.VDW>
-17.5518

>  <SCORE.INTER.norm>
-0.823072

>  <SCORE.INTRA>
-0.517571

>  <SCORE.INTRA.DIHEDRAL>
-1.25541

>  <SCORE.INTRA.DIHEDRAL.0>
2.93688

>  <SCORE.INTRA.POLAR>
0

>  <SCORE.INTRA.POLAR.0>
0

>  <SCORE.INTRA.REPUL>
0

>  <SCORE.INTRA.REPUL.0>
0

>  <SCORE.INTRA.SOLV>
0.263457

>  <SCORE.INTRA.SOLV.lig_0>
-32.2816

>  <SCORE.INTRA.VDW>
-0.0215973

>  <SCORE.INTRA.VDW.0>
-0.749945

>  <SCORE.INTRA.norm>
-0.0517571

>  <SCORE.RESTR>
0

>  <SCORE.RESTR.CAVITY>
0

>  <SCORE.RESTR.norm>
0

>  <SCORE.SYSTEM>
0

>  <SCORE.SYSTEM.CONST>
0

>  <SCORE.SYSTEM.DIHEDRAL>
0

>  <SCORE.SYSTEM.SOLV>
0

>  <SCORE.SYSTEM.norm>
0

>  <SCORE.heavy>
10

>  <SCORE.norm>
-0.874829

>  <RMSD>
0.932

$$$$
ligand
 OpenBabel11021811473D
libRbt.so/2013.1/901 2013/11/27
 10  9  0  0  0  0  0  0  0  0999 V2000
   31.7407   16.8544   19.9319 N   0  0  0  0  0  0  0  0  0  0  0  0
   31.0818   17.5166   21.0972 C   0  0  2  0  0  0  0  0  0  0  0  0
   32.1128   18.0355   22.0990 C   0  0  0  0  0  0  0  0  0  0  0  0
   31.9539   19.1099   22.6759 O   0  0  0  0  0  0  0  0  0  0  0  0
   30.0688   16.5758   21.7602 C   0  0  0  0  0  0  0  0  0  0  0  0
   28.8607   16.2787   20.8725 C   0  0  0  0  0  0  0  0  0  0  0  0
   27.8567   15.3517   21.5442 C   0  0  0  0  0  0  0  0  0  0  0  0
   26.6251   15.1451   20.6681 C   0  0  0  0  0  0  0  0  0  0  0  0
   26.9510   14.5971   19.3063 N   0  0  0  0  0  0  0  0  0  0  0  0
   33.1274   17.3964   22.3926 O   0  0  0  0  0  0  0  0  0  0  0  0
  2  1  1  6  0  0  0
  2  3  1  0  0  0  0
  2  5  1  0  0  0  0
  3  4  1  0  0  0  0
  3 10  1  0  0  0  0
  5  6  1  0  0  0  0
  6  7  1  0  0  0  0
  7  8  1  0  0  0  0
  8  9  1  0  0  0  0
M  END
>  <CHROM.1>
141.28928404,-67.44452926,-179.59402241,176.48020191,57.27765220,30.07096830
16.70499437,21.26023360,-0.49664700,-0.33001007,-2.07368547

>  <Name>
ligand

>  <RI>
0

>  <Rbt.Current_Directory>
/home/itssahil/PROJECTS/Mol_Feturizer/New_Systems/rnas/3DIL

>  <Rbt.Executable>
rbdock ($Id: //depot/dev/client3/rdock/2013.1/src/exe/rbdock.cxx#4 $)

>  <Rbt.Library>
libRbt.so (2013.1, Build901 2013/11/27)

>  <Rbt.Parameter_File>
/export/apps/rDock/src/rDock_2013.1_src/data/scripts/dock_solv.prm

>  <Rbt.Receptor>
prm/pocket_docking_5.prm

>  <SCORE>
-8.70525

>  <SCORE.INTER>
-8.24408

>  <SCORE.INTER.CONST>
1

>  <SCORE.INTER.POLAR>
0

>  <SCORE.INTER.ROT>
5

>  <SCORE.INTER.SOLV>
15.3907

>  <SCORE.INTER.VDW>
-17.5596

>  <SCORE.INTER.norm>
-0.824408

>  <SCORE.INTRA>
-0.46117

>  <SCORE.INTRA.DIHEDRAL>
-1.16144

>  <SCORE.INTRA.DIHEDRAL.0>
2.93688

>  <SCORE.INTRA.POLAR>
0

>  <SCORE.INTRA.POLAR.0>
0

>  <SCORE.INTRA.REPUL>
0

>  <SCORE.INTRA.REPUL.0>
0

>  <SCORE.INTRA.SOLV>
0.264902

>  <SCORE.INTRA.SOLV.lig_0>
-32.2816

>  <SCORE.INTRA.VDW>
-0.0129031

>  <SCORE.INTRA.VDW.0>
-0.749945

>  <SCORE.INTRA.norm>
-0.046117

>  <SCORE.RESTR>
0

>  <SCORE.RESTR.CAVITY>
0

>  <SCORE.RESTR.norm>
0

>  <SCORE.SYSTEM>
0

>  <SCORE.SYSTEM.CONST>
0

>  <SCORE.SYSTEM.DIHEDRAL>
0

>  <SCORE.SYSTEM.SOLV>
0

>  <SCORE.SYSTEM.norm>
0

>  <SCORE.heavy>
10

>  <SCORE.norm>
-0.870525

>  <RMSD>
0.958

$$$$
ligand
 OpenBabel11021811473D
libRbt.so/2013.1/901 2013/11/27
 10  9  0  0  0  0  0  0  0  0999 V2000
   31.7424   16.8700   19.9771 N   0  0  0  0  0  0  0  0  0  0  0  0
   31.0756   17.5151   21.1476 C   0  0  2  0  0  0  0  0  0  0  0  0
   32.1001   18.0213   22.1626 C   0  0  0  0  0  0  0  0  0  0  0  0
   33.0855   17.3487   22.4608 O   0  0  0  0  0  0  0  0  0  0  0  0
   30.0601   16.5638   21.7915 C   0  0  0  0  0  0  0  0  0  0  0  0
   28.8514   16.2877   20.8979 C   0  0  0  0  0  0  0  0  0  0  0  0
   27.8548   15.3339   21.5424 C   0  0  0  0  0  0  0  0  0  0  0  0
   26.6248   15.1431   20.6605 C   0  0  0  0  0  0  0  0  0  0  0  0
   26.9511   14.6020   19.2960 N   0  0  0  0  0  0  0  0  0  0  0  0
   32.0022   19.1265   22.7039 O   0  0  0  0  0  0  0  0  0  0  0  0
  2  1  1  6  0  0  0
  2  3  1  0  0  0  0
  2  5  1  0  0  0  0
  3  4  1  0  0  0  0
  3 10  1  0  0  0  0
  5  6  1  0  0  0  0
  6  7  1  0  0  0  0
  7  8  1  0  0  0  0
  8  9  1  0  0  0  0
M  END
>  <CHROM.1>
-42.02364741,-67.97671972,179.55955461,176.72338925,58.83895862,30.06820775
16.69987495,21.28934862,-0.50079894,-0.33187864,-2.06101254

>  <Name>
ligand

>  <RI>
0

>  <Rbt.Current_Directory>
/home/itssahil/PROJECTS/Mol_Feturizer/New_Systems/rnas/3DIL

>  <Rbt.Executable>
rbdock ($Id: //depot/dev/client3/rdock/2013.1/src/exe/rbdock.cxx#4 $)

>  <Rbt.Library>
libRbt.so (2013.1, Build901 2013/11/27)

>  <Rbt.Parameter_File>
/export/apps/rDock/src/rDock_2013.1_src/data/scripts/dock_solv.prm

>  <Rbt.Receptor>
prm/pocket_docking_6.prm

>  <SCORE>
-8.64577

>  <SCORE.INTER>
-8.2095

>  <SCORE.INTER.CONST>
1

>  <SCORE.INTER.POLAR>
0

>  <SCORE.INTER.ROT>
5

>  <SCORE.INTER.SOLV>
15.3207

>  <SCORE.INTER.VDW>
-17.5132

>  <SCORE.INTER.norm>
-0.82095

>  <SCORE.INTRA>
-0.436273

>  <SCORE.INTRA.DIHEDRAL>
-1.07055

>  <SCORE.INTRA.DIHEDRAL.0>
2.93688

>  <SCORE.INTRA.POLAR>
0

>  <SCORE.INTRA.POLAR.0>
0

>  <SCORE.INTRA.REPUL>
0

>  <SCORE.INTRA.REPUL.0>
0

>  <SCORE.INTRA.SOLV>
0.254063

>  <SCORE.INTRA.SOLV.lig_0>
-32.2816

>  <SCORE.INTRA.VDW>
-0.0280285

>  <SCORE.INTRA.VDW.0>
-0.749945

>  <SCORE.INTRA.norm>
-0.0436273

>  <SCORE.RESTR>
0

>  <SCORE.RESTR.CAVITY>
0

>  <SCORE.RESTR.norm>
0

>  <SCORE.SYSTEM>
0

>  <SCORE.SYSTEM.CONST>
0

>  <SCORE.SYSTEM.DIHEDRAL>
0

>  <SCORE.SYSTEM.SOLV>
0

>  <SCORE.SYSTEM.norm>
0

>  <SCORE.heavy>
10

>  <SCORE.norm>
-0.864577

>  <RMSD>
0.983

$$$$
ligand
 OpenBabel11021811473D
libRbt.so/2013.1/901 2013/11/27
 10  9  0  0  0  0  0  0  0  0999 V2000
   31.7311   16.8587   19.9702 N   0  0  0  0  0  0  0  0  0  0  0  0
   31.0524   17.5029   21.1343 C   0  0  2  0  0  0  0  0  0  0  0  0
   32.0667   18.0152   22.1563 C   0  0  0  0  0  0  0  0  0  0  0  0
   31.9131   19.0995   22.7160 O   0  0  0  0  0  0  0  0  0  0  0  0
   30.0359   16.5484   21.7718 C   0  0  0  0  0  0  0  0  0  0  0  0
   28.8425   16.2542   20.8634 C   0  0  0  0  0  0  0  0  0  0  0  0
   27.8288   15.3233   21.5147 C   0  0  0  0  0  0  0  0  0  0  0  0
   26.6011   15.1384   20.6284 C   0  0  0  0  0  0  0  0  0  0  0  0
   26.9268   14.5708   19.2746 N   0  0  0  0  0  0  0  0  0  0  0  0
   33.0612   17.3613   22.4841 O   0  0  0  0  0  0  0  0  0  0  0  0
  2  1  1  6  0  0  0
  2  3  1  0  0  0  0
  2  5  1  0  0  0  0
  3  4  1  0  0  0  0
  3 10  1  0  0  0  0
  5  6  1  0  0  0  0
  6  7  1  0  0  0  0
  7  8  1  0  0  0  0
  8  9  1  0  0  0  0
M  END
>  <CHROM.1>
139.19085629,-67.38158932,-179.08324333,175.51484208,59.00750546,30.03859563
16.68601474,21.27745410,-0.50931641,-0.32754762,-2.06721730

>  <Name>
ligand

>  <RI>
0

>  <Rbt.Current_Directory>
/home/itssahil/PROJECTS/Mol_Feturizer/New_Systems/rnas/3DIL

>  <Rbt.Executable>
rbdock ($Id: //depot/dev/client3/rdock/2013.1/src/exe/rbdock.cxx#4 $)

>  <Rbt.Library>
libRbt.so (2013.1, Build901 2013/11/27)

>  <Rbt.Parameter_File>
/export/apps/rDock/src/rDock_2013.1_src/data/scripts/dock_solv.prm

>  <Rbt.Receptor>
prm/pocket_docking_5.prm

>  <SCORE>
-8.65871

>  <SCORE.INTER>
-8.16554

>  <SCORE.INTER.CONST>
1

>  <SCORE.INTER.POLAR>
0

>  <SCORE.INTER.ROT>
5

>  <SCORE.INTER.SOLV>
15.4542

>  <SCORE.INTER.VDW>
-17.5284

>  <SCORE.INTER.norm>
-0.816554

>  <SCORE.INTRA>
-0.493163

>  <SCORE.INTRA.DIHEDRAL>
-1.15109

>  <SCORE.INTRA.DIHEDRAL.0>
2.93688

>  <SCORE.INTRA.POLAR>
0

>  <SCORE.INTRA.POLAR.0>
0

>  <SCORE.INTRA.REPUL>
0

>  <SCORE.INTRA.REPUL.0>
0

>  <SCORE.INTRA.SOLV>
0.233996

>  <SCORE.INTRA.SOLV.lig_0>
-32.2816

>  <SCORE.INTRA.VDW>
-0.0346146

>  <SCORE.INTRA.VDW.0>
-0.749945

>  <SCORE.INTRA.norm>
-0.0493163

>  <SCORE.RESTR>
0

>  <SCORE.RESTR.CAVITY>
0

>  <SCORE.RESTR.norm>
0

>  <SCORE.SYSTEM>
0

>  <SCORE.SYSTEM.CONST>
0

>  <SCORE.SYSTEM.DIHEDRAL>
0

>  <SCORE.SYSTEM.SOLV>
0

>  <SCORE.SYSTEM.norm>
0

>  <SCORE.heavy>
10

>  <SCORE.norm>
-0.865871

>  <RMSD>
0.990

$$$$
ligand
 OpenBabel11021811473D
libRbt.so/2013.1/901 2013/11/27
 10  9  0  0  0  0  0  0  0  0999 V2000
   32.6407   16.1022   19.6488 N   0  0  0  0  0  0  0  0  0  0  0  0
   31.5565   16.6719   20.5036 C   0  0  2  0  0  0  0  0  0  0  0  0
   32.1272   17.3466   21.7505 C   0  0  0  0  0  0  0  0  0  0  0  0
   33.0040   16.8049   22.4216 O   0  0  0  0  0  0  0  0  0  0  0  0
   30.5213   15.5989   20.8615 C   0  0  0  0  0  0  0  0  0  0  0  0
   29.3237   16.1579   21.6290 C   0  0  0  0  0  0  0  0  0  0  0  0
   28.2115   15.1327   21.8023 C   0  0  0  0  0  0  0  0  0  0  0  0
   27.5756   14.7772   20.4620 C   0  0  0  0  0  0  0  0  0  0  0  0
   27.0237   15.9704   19.7321 N   0  0  0  0  0  0  0  0  0  0  0  0
   31.7590   18.4645   22.1230 O   0  0  0  0  0  0  0  0  0  0  0  0
  2  1  1  1  0  0  0
  2  3  1  0  0  0  0
  2  5  1  0  0  0  0
  3  4  1  0  0  0  0
  3 10  1  0  0  0  0
  5  6  1  0  0  0  0
  6  7  1  0  0  0  0
  7  8  1  0  0  0  0
  8  9  1  0  0  0  0
M  END
>  <CHROM.1>
-45.22176290,-174.76169306,171.65237631,-66.86293947,-57.20972990,30.39712619
16.32248846,21.12162440,-0.35471814,-0.21389065,-2.12829983

>  <Name>
ligand

>  <RI>
0

>  <Rbt.Current_Directory>
/home/itssahil/PROJECTS/Mol_Feturizer/New_Systems/rnas/3DIL

>  <Rbt.Executable>
rbdock ($Id: //depot/dev/client3/rdock/2013.1/src/exe/rbdock.cxx#4 $)

>  <Rbt.Library>
libRbt.so (2013.1, Build901 2013/11/27)

>  <Rbt.Parameter_File>
/export/apps/rDock/src/rDock_2013.1_src/data/scripts/dock_solv.prm

>  <Rbt.Receptor>
prm/pocket_docking_2.prm

>  <SCORE>
-6.50319

>  <SCORE.INTER>
-6.72908

>  <SCORE.INTER.CONST>
1

>  <SCORE.INTER.POLAR>
0

>  <SCORE.INTER.ROT>
5

>  <SCORE.INTER.SOLV>
17.4693

>  <SCORE.INTER.VDW>
-17.2425

>  <SCORE.INTER.norm>
-0.672908

>  <SCORE.INTRA>
0.225886

>  <SCORE.INTRA.DIHEDRAL>
-0.785759

>  <SCORE.INTRA.DIHEDRAL.0>
2.93688

>  <SCORE.INTRA.POLAR>
0

>  <SCORE.INTRA.POLAR.0>
0

>  <SCORE.INTRA.REPUL>
0

>  <SCORE.INTRA.REPUL.0>
0

>  <SCORE.INTRA.SOLV>
0.0579687

>  <SCORE.INTRA.SOLV.lig_0>
-32.2816

>  <SCORE.INTRA.VDW>
0.589781

>  <SCORE.INTRA.VDW.0>
-0.749945

>  <SCORE.INTRA.norm>
0.0225886

>  <SCORE.RESTR>
0

>  <SCORE.RESTR.CAVITY>
0

>  <SCORE.RESTR.norm>
0

>  <SCORE.SYSTEM>
0

>  <SCORE.SYSTEM.CONST>
0

>  <SCORE.SYSTEM.DIHEDRAL>
0

>  <SCORE.SYSTEM.SOLV>
0

>  <SCORE.SYSTEM.norm>
0

>  <SCORE.heavy>
10

>  <SCORE.norm>
-0.650319

>  <RMSD>
0.994

$$$$
ligand
 OpenBabel11021811473D
libRbt.so/2013.1/901 2013/11/27
 10  9  0  0  0  0  0  0  0  0999 V2000
   32.0254   15.8890   19.9139 N   0  0  0  0  0  0  0  0  0  0  0  0
   31.3466   16.8328   20.8514 C   0  0  2  0  0  0  0  0  0  0  0  0
   32.3575   17.5639   21.7343 C   0  0  0  0  0  0  0  0  0  0  0  0
   33.0154   16.9611   22.5807 O   0  0  0  0  0  0  0  0  0  0  0  0
   30.2845   16.1065   21.6853 C   0  0  0  0  0  0  0  0  0  0  0  0
   29.1695   15.5001   20.8339 C   0  0  0  0  0  0  0  0  0  0  0  0
   27.9040   15.2296   21.6363 C   0  0  0  0  0  0  0  0  0  0  0  0
   26.7139   14.9702   20.7180 C   0  0  0  0  0  0  0  0  0  0  0  0
   26.5071   16.0523   19.6946 N   0  0  0  0  0  0  0  0  0  0  0  0
   32.5780   18.7734   21.6228 O   0  0  0  0  0  0  0  0  0  0  0  0
  2  1  1  1  0  0  0
  2  3  1  0  0  0  0
  2  5  1  0  0  0  0
  3  4  1  0  0  0  0
  3 10  1  0  0  0  0
  5  6  1  0  0  0  0
  6  7  1  0  0  0  0
  7  8  1  0  0  0  0
  8  9  1  0  0  0  0
M  END
>  <CHROM.1>
-67.17870840,-61.67509971,-159.56161253,165.43185056,-53.06512234,30.22411235
16.40937965,21.14802833,0.02756763,-0.41257507,-1.01370050

>  <Name>
ligand

>  <RI>
0

>  <Rbt.Current_Directory>
/home/itssahil/PROJECTS/Mol_Feturizer/New_Systems/rnas/3DIL

>  <Rbt.Executable>
rbdock ($Id: //depot/dev/client3/rdock/2013.1/src/exe/rbdock.cxx#4 $)

>  <Rbt.Library>
libRbt.so (2013.1, Build901 2013/11/27)

>  <Rbt.Parameter_File>
/export/apps/rDock/src/rDock_2013.1_src/data/scripts/dock_solv.prm

>  <Rbt.Receptor>
prm/blind_docking_80.prm

>  <SCORE>
-6.07294

>  <SCORE.INTER>
-7.06943

>  <SCORE.INTER.CONST>
1

>  <SCORE.INTER.POLAR>
0

>  <SCORE.INTER.ROT>
5

>  <SCORE.INTER.SOLV>
18.2593

>  <SCORE.INTER.VDW>
-17.7327

>  <SCORE.INTER.norm>
-0.706943

>  <SCORE.INTRA>
0.996488

>  <SCORE.INTRA.DIHEDRAL>
1.18225

>  <SCORE.INTRA.DIHEDRAL.0>
2.93688

>  <SCORE.INTRA.POLAR>
0

>  <SCORE.INTRA.POLAR.0>
0

>  <SCORE.INTRA.REPUL>
0

>  <SCORE.INTRA.REPUL.0>
0

>  <SCORE.INTRA.SOLV>
0.44002

>  <SCORE.INTRA.SOLV.lig_0>
-32.2816

>  <SCORE.INTRA.VDW>
0.185354

>  <SCORE.INTRA.VDW.0>
-0.749945

>  <SCORE.INTRA.norm>
0.0996488

>  <SCORE.RESTR>
0

>  <SCORE.RESTR.CAVITY>
0

>  <SCORE.RESTR.norm>
0

>  <SCORE.SYSTEM>
0

>  <SCORE.SYSTEM.CONST>
0

>  <SCORE.SYSTEM.DIHEDRAL>
0

>  <SCORE.SYSTEM.SOLV>
0

>  <SCORE.SYSTEM.norm>
0

>  <SCORE.heavy>
10

>  <SCORE.norm>
-0.607294

>  <RMSD>
1.006

$$$$
ligand
 OpenBabel11021811473D
libRbt.so/2013.1/901 2013/11/27
 10  9  0  0  0  0  0  0  0  0999 V2000
   31.0973   17.0397   20.0340 N   0  0  0  0  0  0  0  0  0  0  0  0
   30.9002   17.3191   21.4878 C   0  0  2  0  0  0  0  0  0  0  0  0
   32.1953   17.7977   22.1434 C   0  0  0  0  0  0  0  0  0  0  0  0
   33.1982   17.0862   22.1638 O   0  0  0  0  0  0  0  0  0  0  0  0
   30.3182   16.0959   22.2061 C   0  0  0  0  0  0  0  0  0  0  0  0
   28.8650   15.8156   21.8246 C   0  0  0  0  0  0  0  0  0  0  0  0
   28.7235   15.3131   20.3943 C   0  0  0  0  0  0  0  0  0  0  0  0
   27.2580   15.1048   20.0255 C   0  0  0  0  0  0  0  0  0  0  0  0
   27.0630   14.6402   18.6088 N   0  0  0  0  0  0  0  0  0  0  0  0
   32.3025   18.9170   22.6530 O   0  0  0  0  0  0  0  0  0  0  0  0
  2  1  1  6  0  0  0
  2  3  1  0  0  0  0
  2  5  1  0  0  0  0
  3  4  1  0  0  0  0
  3 10  1  0  0  0  0
  5  6  1  0  0  0  0
  6  7  1  0  0  0  0
  7  8  1  0  0  0  0
  8  9  1  0  0  0  0
M  END
>  <CHROM.1>
-60.87446462,-70.21873456,69.98090844,-177.38569853,178.58471150,30.23028894
16.53061903,21.17320315,-0.45468157,-0.51212951,-1.63499438

>  <Name>
ligand

>  <RI>
0

>  <Rbt.Current_Directory>
/home/itssahil/PROJECTS/Mol_Feturizer/New_Systems/rnas/3DIL

>  <Rbt.Executable>
rbdock ($Id: //depot/dev/client3/rdock/2013.1/src/exe/rbdock.cxx#4 $)

>  <Rbt.Library>
libRbt.so (2013.1, Build901 2013/11/27)

>  <Rbt.Parameter_File>
/export/apps/rDock/src/rDock_2013.1_src/data/scripts/dock_solv.prm

>  <Rbt.Receptor>
prm/pocket_docking_2.prm

>  <SCORE>
-6.76483

>  <SCORE.INTER>
-7.04263

>  <SCORE.INTER.CONST>
1

>  <SCORE.INTER.POLAR>
0

>  <SCORE.INTER.ROT>
5

>  <SCORE.INTER.SOLV>
14.5863

>  <SCORE.INTER.VDW>
-16.4905

>  <SCORE.INTER.norm>
-0.704263

>  <SCORE.INTRA>
0.277793

>  <SCORE.INTRA.DIHEDRAL>
-0.565552

>  <SCORE.INTRA.DIHEDRAL.0>
2.93688

>  <SCORE.INTRA.POLAR>
0

>  <SCORE.INTRA.POLAR.0>
0

>  <SCORE.INTRA.REPUL>
0

>  <SCORE.INTRA.REPUL.0>
0

>  <SCORE.INTRA.SOLV>
0.708623

>  <SCORE.INTRA.SOLV.lig_0>
-32.2816

>  <SCORE.INTRA.VDW>
0.206257

>  <SCORE.INTRA.VDW.0>
-0.749945

>  <SCORE.INTRA.norm>
0.0277793

>  <SCORE.RESTR>
0

>  <SCORE.RESTR.CAVITY>
0

>  <SCORE.RESTR.norm>
0

>  <SCORE.SYSTEM>
0

>  <SCORE.SYSTEM.CONST>
0

>  <SCORE.SYSTEM.DIHEDRAL>
0

>  <SCORE.SYSTEM.SOLV>
0

>  <SCORE.SYSTEM.norm>
0

>  <SCORE.heavy>
10

>  <SCORE.norm>
-0.676483

>  <RMSD>
1.108

$$$$
ligand
 OpenBabel11021811473D
libRbt.so/2013.1/901 2013/11/27
 10  9  0  0  0  0  0  0  0  0999 V2000
   31.4205   16.5255   19.9898 N   0  0  0  0  0  0  0  0  0  0  0  0
   30.8200   16.9994   21.2725 C   0  0  2  0  0  0  0  0  0  0  0  0
   31.7809   17.9124   22.0333 C   0  0  0  0  0  0  0  0  0  0  0  0
   31.4115   19.0008   22.4709 O   0  0  0  0  0  0  0  0  0  0  0  0
   30.3608   15.8155   22.1319 C   0  0  0  0  0  0  0  0  0  0  0  0
   29.2435   15.0023   21.4790 C   0  0  0  0  0  0  0  0  0  0  0  0
   27.9296   15.7683   21.4071 C   0  0  0  0  0  0  0  0  0  0  0  0
   26.8826   14.9935   20.6129 C   0  0  0  0  0  0  0  0  0  0  0  0
   27.2352   14.8386   19.1594 N   0  0  0  0  0  0  0  0  0  0  0  0
   32.9507   17.5931   22.2649 O   0  0  0  0  0  0  0  0  0  0  0  0
  2  1  1  6  0  0  0
  2  3  1  0  0  0  0
  2  5  1  0  0  0  0
  3  4  1  0  0  0  0
  3 10  1  0  0  0  0
  5  6  1  0  0  0  0
  6  7  1  0  0  0  0
  7  8  1  0  0  0  0
  8  9  1  0  0  0  0
M  END
>  <CHROM.1>
130.60713642,-63.69741374,-68.90511938,173.59797092,-65.80323606,30.03339284
16.47199757,21.30235478,-0.57029724,-0.30242279,-2.17136519

>  <Name>
ligand

>  <RI>
0

>  <Rbt.Current_Directory>
/home/itssahil/PROJECTS/Mol_Feturizer/New_Systems/rnas/3DIL

>  <Rbt.Executable>
rbdock ($Id: //depot/dev/client3/rdock/2013.1/src/exe/rbdock.cxx#4 $)

>  <Rbt.Library>
libRbt.so (2013.1, Build901 2013/11/27)

>  <Rbt.Parameter_File>
/export/apps/rDock/src/rDock_2013.1_src/data/scripts/dock_solv.prm

>  <Rbt.Receptor>
prm/pocket_docking_2.prm

>  <SCORE>
-8.55192

>  <SCORE.INTER>
-8.55796

>  <SCORE.INTER.CONST>
1

>  <SCORE.INTER.POLAR>
0

>  <SCORE.INTER.ROT>
5

>  <SCORE.INTER.SOLV>
13.765

>  <SCORE.INTER.VDW>
-17.227

>  <SCORE.INTER.norm>
-0.855796

>  <SCORE.INTRA>
0.00603902

>  <SCORE.INTRA.DIHEDRAL>
-0.767015

>  <SCORE.INTRA.DIHEDRAL.0>
2.93688

>  <SCORE.INTRA.POLAR>
0

>  <SCORE.INTRA.POLAR.0>
0

>  <SCORE.INTRA.REPUL>
0

>  <SCORE.INTRA.REPUL.0>
0

>  <SCORE.INTRA.SOLV>
0.713247

>  <SCORE.INTRA.SOLV.lig_0>
-32.2816

>  <SCORE.INTRA.VDW>
0.032923

>  <SCORE.INTRA.VDW.0>
-0.749945

>  <SCORE.INTRA.norm>
0.000603902

>  <SCORE.RESTR>
0

>  <SCORE.RESTR.CAVITY>
0

>  <SCORE.RESTR.norm>
0

>  <SCORE.SYSTEM>
0

>  <SCORE.SYSTEM.CONST>
0

>  <SCORE.SYSTEM.DIHEDRAL>
0

>  <SCORE.SYSTEM.SOLV>
0

>  <SCORE.SYSTEM.norm>
0

>  <SCORE.heavy>
10

>  <SCORE.norm>
-0.855192

>  <RMSD>
1.138

$$$$
ligand
 OpenBabel11021811473D
libRbt.so/2013.1/901 2013/11/27
 10  9  0  0  0  0  0  0  0  0999 V2000
   31.2565   16.7844   19.9460 N   0  0  0  0  0  0  0  0  0  0  0  0
   30.7422   17.1094   21.3100 C   0  0  2  0  0  0  0  0  0  0  0  0
   31.7348   17.9726   22.0882 C   0  0  0  0  0  0  0  0  0  0  0  0
   32.9030   17.6189   22.2391 O   0  0  0  0  0  0  0  0  0  0  0  0
   30.3776   15.8322   22.0760 C   0  0  0  0  0  0  0  0  0  0  0  0
   29.2609   15.0326   21.4054 C   0  0  0  0  0  0  0  0  0  0  0  0
   27.9264   15.7654   21.4239 C   0  0  0  0  0  0  0  0  0  0  0  0
   26.8821   15.0302   20.5896 C   0  0  0  0  0  0  0  0  0  0  0  0
   27.2220   14.9776   19.1258 N   0  0  0  0  0  0  0  0  0  0  0  0
   31.4219   19.0640   22.5728 O   0  0  0  0  0  0  0  0  0  0  0  0
  2  1  1  6  0  0  0
  2  3  1  0  0  0  0
  2  5  1  0  0  0  0
  3  4  1  0  0  0  0
  3 10  1  0  0  0  0
  5  6  1  0  0  0  0
  6  7  1  0  0  0  0
  7  8  1  0  0  0  0
  8  9  1  0  0  0  0
M  END
>  <CHROM.1>
-54.23594799,-62.11405071,-66.72654048,172.44292142,-64.46026152,30.00351690
16.54488711,21.29789360,-0.53825291,-0.38328887,-2.03215456

>  <Name>
ligand

>  <RI>
0

>  <Rbt.Current_Directory>
/home/itssahil/PROJECTS/Mol_Feturizer/New_Systems/rnas/3DIL

>  <Rbt.Executable>
rbdock ($Id: //depot/dev/client3/rdock/2013.1/src/exe/rbdock.cxx#4 $)

>  <Rbt.Library>
libRbt.so (2013.1, Build901 2013/11/27)

>  <Rbt.Parameter_File>
/export/apps/rDock/src/rDock_2013.1_src/data/scripts/dock_solv.prm

>  <Rbt.Receptor>
prm/pocket_docking_2.prm

>  <SCORE>
-8.76799

>  <SCORE.INTER>
-8.8403

>  <SCORE.INTER.CONST>
1

>  <SCORE.INTER.POLAR>
0

>  <SCORE.INTER.ROT>
5

>  <SCORE.INTER.SOLV>
13.4056

>  <SCORE.INTER.VDW>
-17.2954

>  <SCORE.INTER.norm>
-0.88403

>  <SCORE.INTRA>
0.0723101

>  <SCORE.INTRA.DIHEDRAL>
-0.894168

>  <SCORE.INTRA.DIHEDRAL.0>
2.93688

>  <SCORE.INTRA.POLAR>
0

>  <SCORE.INTRA.POLAR.0>
0

>  <SCORE.INTRA.REPUL>
0

>  <SCORE.INTRA.REPUL.0>
0

>  <SCORE.INTRA.SOLV>
0.810179

>  <SCORE.INTRA.SOLV.lig_0>
-32.2816

>  <SCORE.INTRA.VDW>
0.114305

>  <SCORE.INTRA.VDW.0>
-0.749945

>  <SCORE.INTRA.norm>
0.00723101

>  <SCORE.RESTR>
0

>  <SCORE.RESTR.CAVITY>
0

>  <SCORE.RESTR.norm>
0

>  <SCORE.SYSTEM>
0

>  <SCORE.SYSTEM.CONST>
0

>  <SCORE.SYSTEM.DIHEDRAL>
0

>  <SCORE.SYSTEM.SOLV>
0

>  <SCORE.SYSTEM.norm>
0

>  <SCORE.heavy>
10

>  <SCORE.norm>
-0.876799

>  <RMSD>
1.179

$$$$
ligand
 OpenBabel11021811473D
libRbt.so/2013.1/901 2013/11/27
 10  9  0  0  0  0  0  0  0  0999 V2000
   31.2483   16.7837   19.9574 N   0  0  0  0  0  0  0  0  0  0  0  0
   30.7338   17.1066   21.3219 C   0  0  2  0  0  0  0  0  0  0  0  0
   31.7274   17.9664   22.1025 C   0  0  0  0  0  0  0  0  0  0  0  0
   32.9040   17.6289   22.2214 O   0  0  0  0  0  0  0  0  0  0  0  0
   30.3665   15.8284   22.0848 C   0  0  0  0  0  0  0  0  0  0  0  0
   29.2616   15.0228   21.4022 C   0  0  0  0  0  0  0  0  0  0  0  0
   27.9218   15.7460   21.4108 C   0  0  0  0  0  0  0  0  0  0  0  0
   26.9013   15.0266   20.5343 C   0  0  0  0  0  0  0  0  0  0  0  0
   27.2798   15.0047   19.0792 N   0  0  0  0  0  0  0  0  0  0  0  0
   31.4063   19.0398   22.6210 O   0  0  0  0  0  0  0  0  0  0  0  0
  2  1  1  6  0  0  0
  2  3  1  0  0  0  0
  2  5  1  0  0  0  0
  3  4  1  0  0  0  0
  3 10  1  0  0  0  0
  5  6  1  0  0  0  0
  6  7  1  0  0  0  0
  7  8  1  0  0  0  0
  8  9  1  0  0  0  0
M  END
>  <CHROM.1>
-52.17524939,-61.36038736,-67.01756713,170.86924571,-63.93226421,30.00577661
16.54146034,21.29393639,-0.53859656,-0.39498711,-2.00571722

>  <Name>
ligand

>  <RI>
0

>  <Rbt.Current_Directory>
/home/itssahil/PROJECTS/Mol_Feturizer/New_Systems/rnas/3DIL

>  <Rbt.Executable>
rbdock ($Id: //depot/dev/client3/rdock/2013.1/src/exe/rbdock.cxx#4 $)

>  <Rbt.Library>
libRbt.so (2013.1, Build901 2013/11/27)

>  <Rbt.Parameter_File>
/export/apps/rDock/src/rDock_2013.1_src/data/scripts/dock_solv.prm

>  <Rbt.Receptor>
prm/pocket_docking_2.prm

>  <SCORE>
-8.78221

>  <SCORE.INTER>
-8.91489

>  <SCORE.INTER.CONST>
1

>  <SCORE.INTER.POLAR>
0

>  <SCORE.INTER.ROT>
5

>  <SCORE.INTER.SOLV>
13.1403

>  <SCORE.INTER.VDW>
-17.2567

>  <SCORE.INTER.norm>
-0.891489

>  <SCORE.INTRA>
0.132687

>  <SCORE.INTRA.DIHEDRAL>
-0.794177

>  <SCORE.INTRA.DIHEDRAL.0>
2.93688

>  <SCORE.INTRA.POLAR>
0

>  <SCORE.INTRA.POLAR.0>
0

>  <SCORE.INTRA.REPUL>
0

>  <SCORE.INTRA.REPUL.0>
0

>  <SCORE.INTRA.SOLV>
0.840818

>  <SCORE.INTRA.SOLV.lig_0>
-32.2816

>  <SCORE.INTRA.VDW>
0.109367

>  <SCORE.INTRA.VDW.0>
-0.749945

>  <SCORE.INTRA.norm>
0.0132687

>  <SCORE.RESTR>
0

>  <SCORE.RESTR.CAVITY>
0

>  <SCORE.RESTR.norm>
0

>  <SCORE.SYSTEM>
0

>  <SCORE.SYSTEM.CONST>
0

>  <SCORE.SYSTEM.DIHEDRAL>
0

>  <SCORE.SYSTEM.SOLV>
0

>  <SCORE.SYSTEM.norm>
0

>  <SCORE.heavy>
10

>  <SCORE.norm>
-0.878221

>  <RMSD>
1.183

$$$$
ligand
 OpenBabel11021811473D
libRbt.so/2013.1/901 2013/11/27
 10  9  0  0  0  0  0  0  0  0999 V2000
   31.4093   16.7010   19.9850 N   0  0  0  0  0  0  0  0  0  0  0  0
   30.7785   17.0790   21.2850 C   0  0  2  0  0  0  0  0  0  0  0  0
   31.6888   17.9980   22.0991 C   0  0  0  0  0  0  0  0  0  0  0  0
   31.2514   19.0161   22.6324 O   0  0  0  0  0  0  0  0  0  0  0  0
   30.3730   15.8319   22.0794 C   0  0  0  0  0  0  0  0  0  0  0  0
   29.2597   15.0309   21.4051 C   0  0  0  0  0  0  0  0  0  0  0  0
   27.9264   15.7660   21.4104 C   0  0  0  0  0  0  0  0  0  0  0  0
   26.8861   15.0273   20.5742 C   0  0  0  0  0  0  0  0  0  0  0  0
   27.2364   14.9626   19.1133 N   0  0  0  0  0  0  0  0  0  0  0  0
   32.8847   17.7508   22.2799 O   0  0  0  0  0  0  0  0  0  0  0  0
  2  1  1  6  0  0  0
  2  3  1  0  0  0  0
  2  5  1  0  0  0  0
  3  4  1  0  0  0  0
  3 10  1  0  0  0  0
  5  6  1  0  0  0  0
  6  7  1  0  0  0  0
  7  8  1  0  0  0  0
  8  9  1  0  0  0  0
M  END
>  <CHROM.1>
133.51538902,-66.11082749,-68.69534516,172.52557895,-64.36188545,29.99795433
16.54356039,21.30798589,-0.58535588,-0.31996961,-2.14341944

>  <Name>
ligand

>  <RI>
0

>  <Rbt.Current_Directory>
/home/itssahil/PROJECTS/Mol_Feturizer/New_Systems/rnas/3DIL

>  <Rbt.Executable>
rbdock ($Id: //depot/dev/client3/rdock/2013.1/src/exe/rbdock.cxx#4 $)

>  <Rbt.Library>
libRbt.so (2013.1, Build901 2013/11/27)

>  <Rbt.Parameter_File>
/export/apps/rDock/src/rDock_2013.1_src/data/scripts/dock_solv.prm

>  <Rbt.Receptor>
prm/blind_docking_100.prm

>  <SCORE>
-8.72699

>  <SCORE.INTER>
-8.75435

>  <SCORE.INTER.CONST>
1

>  <SCORE.INTER.POLAR>
0

>  <SCORE.INTER.ROT>
5

>  <SCORE.INTER.SOLV>
13.5276

>  <SCORE.INTER.VDW>
-17.2788

>  <SCORE.INTER.norm>
-0.875435

>  <SCORE.INTRA>
0.0273541

>  <SCORE.INTRA.DIHEDRAL>
-0.685051

>  <SCORE.INTRA.DIHEDRAL.0>
2.93688

>  <SCORE.INTRA.POLAR>
0

>  <SCORE.INTRA.POLAR.0>
0

>  <SCORE.INTRA.REPUL>
0

>  <SCORE.INTRA.REPUL.0>
0

>  <SCORE.INTRA.SOLV>
0.697058

>  <SCORE.INTRA.SOLV.lig_0>
-32.2816

>  <SCORE.INTRA.VDW>
0.0213505

>  <SCORE.INTRA.VDW.0>
-0.749945

>  <SCORE.INTRA.norm>
0.00273541

>  <SCORE.RESTR>
0

>  <SCORE.RESTR.CAVITY>
0

>  <SCORE.RESTR.norm>
0

>  <SCORE.SYSTEM>
0

>  <SCORE.SYSTEM.CONST>
0

>  <SCORE.SYSTEM.DIHEDRAL>
0

>  <SCORE.SYSTEM.SOLV>
0

>  <SCORE.SYSTEM.norm>
0

>  <SCORE.heavy>
10

>  <SCORE.norm>
-0.872699

>  <RMSD>
1.189

$$$$
ligand
 OpenBabel11021811473D
libRbt.so/2013.1/901 2013/11/27
 10  9  0  0  0  0  0  0  0  0999 V2000
   31.1246   16.7496   19.9518 N   0  0  0  0  0  0  0  0  0  0  0  0
   30.6501   17.0446   21.3369 C   0  0  2  0  0  0  0  0  0  0  0  0
   31.6843   17.8534   22.1193 C   0  0  0  0  0  0  0  0  0  0  0  0
   32.8247   17.4275   22.2942 O   0  0  0  0  0  0  0  0  0  0  0  0
   30.2653   15.7540   22.0699 C   0  0  0  0  0  0  0  0  0  0  0  0
   29.1526   14.9776   21.3665 C   0  0  0  0  0  0  0  0  0  0  0  0
   27.8290   15.7302   21.3616 C   0  0  0  0  0  0  0  0  0  0  0  0
   26.7957   15.0227   20.4903 C   0  0  0  0  0  0  0  0  0  0  0  0
   27.1827   14.9664   19.0384 N   0  0  0  0  0  0  0  0  0  0  0  0
   31.4353   18.9699   22.5835 O   0  0  0  0  0  0  0  0  0  0  0  0
  2  1  1  6  0  0  0
  2  3  1  0  0  0  0
  2  5  1  0  0  0  0
  3  4  1  0  0  0  0
  3 10  1  0  0  0  0
  5  6  1  0  0  0  0
  6  7  1  0  0  0  0
  7  8  1  0  0  0  0
  8  9  1  0  0  0  0
M  END
>  <CHROM.1>
-58.26102666,-59.60910533,-65.76518469,172.11355293,-63.54641114,29.92617455
16.47435560,21.28185182,-0.51261231,-0.41117883,-1.92839597

>  <Name>
ligand

>  <RI>
0

>  <Rbt.Current_Directory>
/home/itssahil/PROJECTS/Mol_Feturizer/New_Systems/rnas/3DIL

>  <Rbt.Executable>
rbdock ($Id: //depot/dev/client3/rdock/2013.1/src/exe/rbdock.cxx#4 $)

>  <Rbt.Library>
libRbt.so (2013.1, Build901 2013/11/27)

>  <Rbt.Parameter_File>
/export/apps/rDock/src/rDock_2013.1_src/data/scripts/dock_solv.prm

>  <Rbt.Receptor>
prm/pocket_docking_2.prm

>  <SCORE>
-8.80824

>  <SCORE.INTER>
-8.94094

>  <SCORE.INTER.CONST>
1

>  <SCORE.INTER.POLAR>
0

>  <SCORE.INTER.ROT>
5

>  <SCORE.INTER.SOLV>
13.5392

>  <SCORE.INTER.VDW>
-17.407

>  <SCORE.INTER.norm>
-0.894094

>  <SCORE.INTRA>
0.132701

>  <SCORE.INTRA.DIHEDRAL>
-0.98467

>  <SCORE.INTRA.DIHEDRAL.0>
2.93688

>  <SCORE.INTRA.POLAR>
0

>  <SCORE.INTRA.POLAR.0>
0

>  <SCORE.INTRA.REPUL>
0

>  <SCORE.INTRA.REPUL.0>
0

>  <SCORE.INTRA.SOLV>
0.891303

>  <SCORE.INTRA.SOLV.lig_0>
-32.2816

>  <SCORE.INTRA.VDW>
0.179384

>  <SCORE.INTRA.VDW.0>
-0.749945

>  <SCORE.INTRA.norm>
0.0132701

>  <SCORE.RESTR>
0

>  <SCORE.RESTR.CAVITY>
0

>  <SCORE.RESTR.norm>
0

>  <SCORE.SYSTEM>
0

>  <SCORE.SYSTEM.CONST>
0

>  <SCORE.SYSTEM.DIHEDRAL>
0

>  <SCORE.SYSTEM.SOLV>
0

>  <SCORE.SYSTEM.norm>
0

>  <SCORE.heavy>
10

>  <SCORE.norm>
-0.880824

>  <RMSD>
1.207

$$$$
ligand
 OpenBabel11021811473D
libRbt.so/2013.1/901 2013/11/27
 10  9  0  0  0  0  0  0  0  0999 V2000
   31.2709   16.7927   19.9540 N   0  0  0  0  0  0  0  0  0  0  0  0
   30.7157   17.1024   21.3055 C   0  0  2  0  0  0  0  0  0  0  0  0
   31.6627   17.9969   22.1049 C   0  0  0  0  0  0  0  0  0  0  0  0
   31.2589   19.0215   22.6522 O   0  0  0  0  0  0  0  0  0  0  0  0
   30.3740   15.8149   22.0648 C   0  0  0  0  0  0  0  0  0  0  0  0
   29.2521   15.0133   21.4055 C   0  0  0  0  0  0  0  0  0  0  0  0
   27.9182   15.7470   21.4304 C   0  0  0  0  0  0  0  0  0  0  0  0
   26.8722   15.0178   20.5930 C   0  0  0  0  0  0  0  0  0  0  0  0
   27.2101   14.9738   19.1284 N   0  0  0  0  0  0  0  0  0  0  0  0
   32.8564   17.7227   22.2593 O   0  0  0  0  0  0  0  0  0  0  0  0
  2  1  1  6  0  0  0
  2  3  1  0  0  0  0
  2  5  1  0  0  0  0
  3  4  1  0  0  0  0
  3 10  1  0  0  0  0
  5  6  1  0  0  0  0
  6  7  1  0  0  0  0
  7  8  1  0  0  0  0
  8  9  1  0  0  0  0
M  END
>  <CHROM.1>
129.69795164,-64.84843380,-65.62603907,171.76564344,-64.44956470,29.96836541
16.54700099,21.31114171,-0.56364853,-0.36652096,-2.07393311

>  <Name>
ligand

>  <RI>
0

>  <Rbt.Current_Directory>
/home/itssahil/PROJECTS/Mol_Feturizer/New_Systems/rnas/3DIL

>  <Rbt.Executable>
rbdock ($Id: //depot/dev/client3/rdock/2013.1/src/exe/rbdock.cxx#4 $)

>  <Rbt.Library>
libRbt.so (2013.1, Build901 2013/11/27)

>  <Rbt.Parameter_File>
/export/apps/rDock/src/rDock_2013.1_src/data/scripts/dock_solv.prm

>  <Rbt.Receptor>
prm/pocket_docking_4.prm

>  <SCORE>
-8.85562

>  <SCORE.INTER>
-8.8935

>  <SCORE.INTER.CONST>
1

>  <SCORE.INTER.POLAR>
0

>  <SCORE.INTER.ROT>
5

>  <SCORE.INTER.SOLV>
13.5105

>  <SCORE.INTER.VDW>
-17.3658

>  <SCORE.INTER.norm>
-0.88935

>  <SCORE.INTRA>
0.0378864

>  <SCORE.INTRA.DIHEDRAL>
-0.86061

>  <SCORE.INTRA.DIHEDRAL.0>
2.93688

>  <SCORE.INTRA.POLAR>
0

>  <SCORE.INTRA.POLAR.0>
0

>  <SCORE.INTRA.REPUL>
0

>  <SCORE.INTRA.REPUL.0>
0

>  <SCORE.INTRA.SOLV>
0.761153

>  <SCORE.INTRA.SOLV.lig_0>
-32.2816

>  <SCORE.INTRA.VDW>
0.0876149

>  <SCORE.INTRA.VDW.0>
-0.749945

>  <SCORE.INTRA.norm>
0.00378864

>  <SCORE.RESTR>
0

>  <SCORE.RESTR.CAVITY>
0

>  <SCORE.RESTR.norm>
0

>  <SCORE.SYSTEM>
0

>  <SCORE.SYSTEM.CONST>
0

>  <SCORE.SYSTEM.DIHEDRAL>
0

>  <SCORE.SYSTEM.SOLV>
0

>  <SCORE.SYSTEM.norm>
0

>  <SCORE.heavy>
10

>  <SCORE.norm>
-0.885562

>  <RMSD>
1.215

$$$$
ligand
 OpenBabel11021811473D
libRbt.so/2013.1/901 2013/11/27
 10  9  0  0  0  0  0  0  0  0999 V2000
   31.3031   16.7845   19.9851 N   0  0  0  0  0  0  0  0  0  0  0  0
   30.7146   17.0965   21.3219 C   0  0  2  0  0  0  0  0  0  0  0  0
   31.6415   17.9926   22.1428 C   0  0  0  0  0  0  0  0  0  0  0  0
   31.2249   19.0196   22.6758 O   0  0  0  0  0  0  0  0  0  0  0  0
   30.3544   15.8104   22.0748 C   0  0  0  0  0  0  0  0  0  0  0  0
   29.2513   15.0060   21.3878 C   0  0  0  0  0  0  0  0  0  0  0  0
   27.9098   15.7261   21.4002 C   0  0  0  0  0  0  0  0  0  0  0  0
   26.8868   15.0009   20.5315 C   0  0  0  0  0  0  0  0  0  0  0  0
   27.2481   14.9916   19.0719 N   0  0  0  0  0  0  0  0  0  0  0  0
   32.8304   17.7174   22.3295 O   0  0  0  0  0  0  0  0  0  0  0  0
  2  1  1  6  0  0  0
  2  3  1  0  0  0  0
  2  5  1  0  0  0  0
  3  4  1  0  0  0  0
  3 10  1  0  0  0  0
  5  6  1  0  0  0  0
  6  7  1  0  0  0  0
  7  8  1  0  0  0  0
  8  9  1  0  0  0  0
M  END
>  <CHROM.1>
129.54650096,-64.72493705,-66.77218103,171.47295293,-64.77405448,29.96523474
16.54130358,21.31412024,-0.58012430,-0.36091458,-2.07353516

>  <Name>
ligand

>  <RI>
0

>  <Rbt.Current_Directory>
/home/itssahil/PROJECTS/Mol_Feturizer/New_Systems/rnas/3DIL

>  <Rbt.Executable>
rbdock ($Id: //depot/dev/client3/rdock/2013.1/src/exe/rbdock.cxx#4 $)

>  <Rbt.Library>
libRbt.so (2013.1, Build901 2013/11/27)

>  <Rbt.Parameter_File>
/export/apps/rDock/src/rDock_2013.1_src/data/scripts/dock_solv.prm

>  <Rbt.Receptor>
prm/blind_docking_60.prm

>  <SCORE>
-8.84747

>  <SCORE.INTER>
-8.89784

>  <SCORE.INTER.CONST>
1

>  <SCORE.INTER.POLAR>
0

>  <SCORE.INTER.ROT>
5

>  <SCORE.INTER.SOLV>
13.3754

>  <SCORE.INTER.VDW>
-17.3237

>  <SCORE.INTER.norm>
-0.889784

>  <SCORE.INTRA>
0.0503761

>  <SCORE.INTRA.DIHEDRAL>
-0.775415

>  <SCORE.INTRA.DIHEDRAL.0>
2.93688

>  <SCORE.INTRA.POLAR>
0

>  <SCORE.INTRA.POLAR.0>
0

>  <SCORE.INTRA.REPUL>
0

>  <SCORE.INTRA.REPUL.0>
0

>  <SCORE.INTRA.SOLV>
0.747104

>  <SCORE.INTRA.SOLV.lig_0>
-32.2816

>  <SCORE.INTRA.VDW>
0.0645314

>  <SCORE.INTRA.VDW.0>
-0.749945

>  <SCORE.INTRA.norm>
0.00503761

>  <SCORE.RESTR>
0

>  <SCORE.RESTR.CAVITY>
0

>  <SCORE.RESTR.norm>
0

>  <SCORE.SYSTEM>
0

>  <SCORE.SYSTEM.CONST>
0

>  <SCORE.SYSTEM.DIHEDRAL>
0

>  <SCORE.SYSTEM.SOLV>
0

>  <SCORE.SYSTEM.norm>
0

>  <SCORE.heavy>
10

>  <SCORE.norm>
-0.884747

>  <RMSD>
1.228

$$$$
ligand
 OpenBabel11021811473D
libRbt.so/2013.1/901 2013/11/27
 10  9  0  0  0  0  0  0  0  0999 V2000
   31.1580   16.7848   19.9626 N   0  0  0  0  0  0  0  0  0  0  0  0
   30.6406   17.0727   21.3337 C   0  0  2  0  0  0  0  0  0  0  0  0
   31.6313   17.9147   22.1371 C   0  0  0  0  0  0  0  0  0  0  0  0
   32.8004   17.5597   22.2770 O   0  0  0  0  0  0  0  0  0  0  0  0
   30.2747   15.7751   22.0641 C   0  0  0  0  0  0  0  0  0  0  0  0
   29.1664   14.9889   21.3644 C   0  0  0  0  0  0  0  0  0  0  0  0
   27.8295   15.7172   21.3890 C   0  0  0  0  0  0  0  0  0  0  0  0
   26.8096   15.0280   20.4878 C   0  0  0  0  0  0  0  0  0  0  0  0
   27.2094   15.0186   19.0383 N   0  0  0  0  0  0  0  0  0  0  0  0
   31.3158   18.9903   22.6544 O   0  0  0  0  0  0  0  0  0  0  0  0
  2  1  1  6  0  0  0
  2  3  1  0  0  0  0
  2  5  1  0  0  0  0
  3  4  1  0  0  0  0
  3 10  1  0  0  0  0
  5  6  1  0  0  0  0
  6  7  1  0  0  0  0
  7  8  1  0  0  0  0
  8  9  1  0  0  0  0
M  END
>  <CHROM.1>
-53.97463322,-61.71580107,-66.64394261,170.37499726,-62.57707046,29.91419372
16.51058874,21.29192480,-0.54157782,-0.39384948,-1.98378323

>  <Name>
ligand

>  <RI>
0

>  <Rbt.Current_Directory>
/home/itssahil/PROJECTS/Mol_Feturizer/New_Systems/rnas/3DIL

>  <Rbt.Executable>
rbdock ($Id: //depot/dev/client3/rdock/2013.1/src/exe/rbdock.cxx#4 $)

>  <Rbt.Library>
libRbt.so (2013.1, Build901 2013/11/27)

>  <Rbt.Parameter_File>
/export/apps/rDock/src/rDock_2013.1_src/data/scripts/dock_solv.prm

>  <Rbt.Receptor>
prm/pocket_docking_3.prm

>  <SCORE>
-8.8745

>  <SCORE.INTER>
-9.02782

>  <SCORE.INTER.CONST>
1

>  <SCORE.INTER.POLAR>
0

>  <SCORE.INTER.ROT>
5

>  <SCORE.INTER.SOLV>
13.3978

>  <SCORE.INTER.VDW>
-17.4178

>  <SCORE.INTER.norm>
-0.902782

>  <SCORE.INTRA>
0.153324

>  <SCORE.INTRA.DIHEDRAL>
-0.810767

>  <SCORE.INTRA.DIHEDRAL.0>
2.93688

>  <SCORE.INTRA.POLAR>
0

>  <SCORE.INTRA.POLAR.0>
0

>  <SCORE.INTRA.REPUL>
0

>  <SCORE.INTRA.REPUL.0>
0

>  <SCORE.INTRA.SOLV>
0.859808

>  <SCORE.INTRA.SOLV.lig_0>
-32.2816

>  <SCORE.INTRA.VDW>
0.128803

>  <SCORE.INTRA.VDW.0>
-0.749945

>  <SCORE.INTRA.norm>
0.0153324

>  <SCORE.RESTR>
0

>  <SCORE.RESTR.CAVITY>
0

>  <SCORE.RESTR.norm>
0

>  <SCORE.SYSTEM>
0

>  <SCORE.SYSTEM.CONST>
0

>  <SCORE.SYSTEM.DIHEDRAL>
0

>  <SCORE.SYSTEM.SOLV>
0

>  <SCORE.SYSTEM.norm>
0

>  <SCORE.heavy>
10

>  <SCORE.norm>
-0.88745

>  <RMSD>
1.233

$$$$
ligand
 OpenBabel11021811473D
libRbt.so/2013.1/901 2013/11/27
 10  9  0  0  0  0  0  0  0  0999 V2000
   31.2330   16.7911   19.9591 N   0  0  0  0  0  0  0  0  0  0  0  0
   30.6555   17.0639   21.3091 C   0  0  2  0  0  0  0  0  0  0  0  0
   31.5931   17.9283   22.1515 C   0  0  0  0  0  0  0  0  0  0  0  0
   31.2023   18.9746   22.6662 O   0  0  0  0  0  0  0  0  0  0  0  0
   30.2929   15.7565   22.0234 C   0  0  0  0  0  0  0  0  0  0  0  0
   29.1795   14.9812   21.3199 C   0  0  0  0  0  0  0  0  0  0  0  0
   27.8460   15.7154   21.3535 C   0  0  0  0  0  0  0  0  0  0  0  0
   26.8090   15.0152   20.4807 C   0  0  0  0  0  0  0  0  0  0  0  0
   27.1845   14.9810   19.0251 N   0  0  0  0  0  0  0  0  0  0  0  0
   32.7642   17.6077   22.3743 O   0  0  0  0  0  0  0  0  0  0  0  0
  2  1  1  6  0  0  0
  2  3  1  0  0  0  0
  2  5  1  0  0  0  0
  3  4  1  0  0  0  0
  3 10  1  0  0  0  0
  5  6  1  0  0  0  0
  6  7  1  0  0  0  0
  7  8  1  0  0  0  0
  8  9  1  0  0  0  0
M  END
>  <CHROM.1>
125.97499253,-64.78968088,-66.18559886,172.02537305,-62.64782462,29.90500619
16.50744132,21.28889407,-0.58118969,-0.35086410,-2.06047335

>  <Name>
ligand

>  <RI>
0

>  <Rbt.Current_Directory>
/home/itssahil/PROJECTS/Mol_Feturizer/New_Systems/rnas/3DIL

>  <Rbt.Executable>
rbdock ($Id: //depot/dev/client3/rdock/2013.1/src/exe/rbdock.cxx#4 $)

>  <Rbt.Library>
libRbt.so (2013.1, Build901 2013/11/27)

>  <Rbt.Parameter_File>
/export/apps/rDock/src/rDock_2013.1_src/data/scripts/dock_solv.prm

>  <Rbt.Receptor>
prm/blind_docking_100.prm

>  <SCORE>
-8.88611

>  <SCORE.INTER>
-8.93379

>  <SCORE.INTER.CONST>
1

>  <SCORE.INTER.POLAR>
0

>  <SCORE.INTER.ROT>
5

>  <SCORE.INTER.SOLV>
13.6421

>  <SCORE.INTER.VDW>
-17.4365

>  <SCORE.INTER.norm>
-0.893379

>  <SCORE.INTRA>
0.0476735

>  <SCORE.INTRA.DIHEDRAL>
-0.890886

>  <SCORE.INTRA.DIHEDRAL.0>
2.93688

>  <SCORE.INTRA.POLAR>
0

>  <SCORE.INTRA.POLAR.0>
0

>  <SCORE.INTRA.REPUL>
0

>  <SCORE.INTRA.REPUL.0>
0

>  <SCORE.INTRA.SOLV>
0.77699

>  <SCORE.INTRA.SOLV.lig_0>
-32.2816

>  <SCORE.INTRA.VDW>
0.104621

>  <SCORE.INTRA.VDW.0>
-0.749945

>  <SCORE.INTRA.norm>
0.00476735

>  <SCORE.RESTR>
0

>  <SCORE.RESTR.CAVITY>
0

>  <SCORE.RESTR.norm>
0

>  <SCORE.SYSTEM>
0

>  <SCORE.SYSTEM.CONST>
0

>  <SCORE.SYSTEM.DIHEDRAL>
0

>  <SCORE.SYSTEM.SOLV>
0

>  <SCORE.SYSTEM.norm>
0

>  <SCORE.heavy>
10

>  <SCORE.norm>
-0.888611

>  <RMSD>
1.243

$$$$
ligand
 OpenBabel11021811473D
libRbt.so/2013.1/901 2013/11/27
 10  9  0  0  0  0  0  0  0  0999 V2000
   31.1978   16.7975   19.9589 N   0  0  0  0  0  0  0  0  0  0  0  0
   30.6407   17.0898   21.3135 C   0  0  2  0  0  0  0  0  0  0  0  0
   31.5982   17.9525   22.1350 C   0  0  0  0  0  0  0  0  0  0  0  0
   32.7685   17.6162   22.3070 O   0  0  0  0  0  0  0  0  0  0  0  0
   30.2737   15.7935   22.0455 C   0  0  0  0  0  0  0  0  0  0  0  0
   29.1689   15.0043   21.3437 C   0  0  0  0  0  0  0  0  0  0  0  0
   27.8349   15.7382   21.3476 C   0  0  0  0  0  0  0  0  0  0  0  0
   26.8113   15.0258   20.4689 C   0  0  0  0  0  0  0  0  0  0  0  0
   27.1946   14.9975   19.0152 N   0  0  0  0  0  0  0  0  0  0  0  0
   31.2538   19.0271   22.6357 O   0  0  0  0  0  0  0  0  0  0  0  0
  2  1  1  6  0  0  0
  2  3  1  0  0  0  0
  2  5  1  0  0  0  0
  3  4  1  0  0  0  0
  3 10  1  0  0  0  0
  5  6  1  0  0  0  0
  6  7  1  0  0  0  0
  7  8  1  0  0  0  0
  8  9  1  0  0  0  0
M  END
>  <CHROM.1>
-53.87478432,-63.24334562,-65.98066467,171.66140126,-63.85763353,29.90408618
16.53035911,21.27860131,-0.56897601,-0.37025771,-2.03669653

>  <Name>
ligand

>  <RI>
0

>  <Rbt.Current_Directory>
/home/itssahil/PROJECTS/Mol_Feturizer/New_Systems/rnas/3DIL

>  <Rbt.Executable>
rbdock ($Id: //depot/dev/client3/rdock/2013.1/src/exe/rbdock.cxx#4 $)

>  <Rbt.Library>
libRbt.so (2013.1, Build901 2013/11/27)

>  <Rbt.Parameter_File>
/export/apps/rDock/src/rDock_2013.1_src/data/scripts/dock_solv.prm

>  <Rbt.Receptor>
prm/pocket_docking_3.prm

>  <SCORE>
-8.92788

>  <SCORE.INTER>
-9.01582

>  <SCORE.INTER.CONST>
1

>  <SCORE.INTER.POLAR>
0

>  <SCORE.INTER.ROT>
5

>  <SCORE.INTER.SOLV>
13.5272

>  <SCORE.INTER.VDW>
-17.453

>  <SCORE.INTER.norm>
-0.901582

>  <SCORE.INTRA>
0.0879414

>  <SCORE.INTRA.DIHEDRAL>
-0.873986

>  <SCORE.INTRA.DIHEDRAL.0>
2.93688

>  <SCORE.INTRA.POLAR>
0

>  <SCORE.INTRA.POLAR.0>
0

>  <SCORE.INTRA.REPUL>
0

>  <SCORE.INTRA.REPUL.0>
0

>  <SCORE.INTRA.SOLV>
0.810746

>  <SCORE.INTRA.SOLV.lig_0>
-32.2816

>  <SCORE.INTRA.VDW>
0.119562

>  <SCORE.INTRA.VDW.0>
-0.749945

>  <SCORE.INTRA.norm>
0.00879414

>  <SCORE.RESTR>
0

>  <SCORE.RESTR.CAVITY>
0

>  <SCORE.RESTR.norm>
0

>  <SCORE.SYSTEM>
0

>  <SCORE.SYSTEM.CONST>
0

>  <SCORE.SYSTEM.DIHEDRAL>
0

>  <SCORE.SYSTEM.SOLV>
0

>  <SCORE.SYSTEM.norm>
0

>  <SCORE.heavy>
10

>  <SCORE.norm>
-0.892788

>  <RMSD>
1.243

$$$$
ligand
 OpenBabel11021811473D
libRbt.so/2013.1/901 2013/11/27
 10  9  0  0  0  0  0  0  0  0999 V2000
   31.1747   16.7878   19.9618 N   0  0  0  0  0  0  0  0  0  0  0  0
   30.6339   17.0907   21.3206 C   0  0  2  0  0  0  0  0  0  0  0  0
   31.6068   17.9491   22.1284 C   0  0  0  0  0  0  0  0  0  0  0  0
   31.2396   18.9937   22.6635 O   0  0  0  0  0  0  0  0  0  0  0  0
   30.2637   15.8008   22.0621 C   0  0  0  0  0  0  0  0  0  0  0  0
   29.1618   15.0057   21.3625 C   0  0  0  0  0  0  0  0  0  0  0  0
   27.8263   15.7371   21.3597 C   0  0  0  0  0  0  0  0  0  0  0  0
   26.8064   15.0192   20.4813 C   0  0  0  0  0  0  0  0  0  0  0  0
   27.1873   14.9972   19.0268 N   0  0  0  0  0  0  0  0  0  0  0  0
   32.7852   17.6249   22.3023 O   0  0  0  0  0  0  0  0  0  0  0  0
  2  1  1  6  0  0  0
  2  3  1  0  0  0  0
  2  5  1  0  0  0  0
  3  4  1  0  0  0  0
  3 10  1  0  0  0  0
  5  6  1  0  0  0  0
  6  7  1  0  0  0  0
  7  8  1  0  0  0  0
  8  9  1  0  0  0  0
M  END
>  <CHROM.1>
127.73489386,-62.26995235,-66.22250023,171.57290041,-64.41009567,29.89840316
16.52645271,21.28870484,-0.56047013,-0.37876335,-2.01862781

>  <Name>
ligand

>  <RI>
0

>  <Rbt.Current_Directory>
/home/itssahil/PROJECTS/Mol_Feturizer/New_Systems/rnas/3DIL

>  <Rbt.Executable>
rbdock ($Id: //depot/dev/client3/rdock/2013.1/src/exe/rbdock.cxx#4 $)

>  <Rbt.Library>
libRbt.so (2013.1, Build901 2013/11/27)

>  <Rbt.Parameter_File>
/export/apps/rDock/src/rDock_2013.1_src/data/scripts/dock_solv.prm

>  <Rbt.Receptor>
prm/blind_docking_100.prm

>  <SCORE>
-8.94575

>  <SCORE.INTER>
-9.00556

>  <SCORE.INTER.CONST>
1

>  <SCORE.INTER.POLAR>
0

>  <SCORE.INTER.ROT>
5

>  <SCORE.INTER.SOLV>
13.5319

>  <SCORE.INTER.VDW>
-17.4477

>  <SCORE.INTER.norm>
-0.900556

>  <SCORE.INTRA>
0.0598011

>  <SCORE.INTRA.DIHEDRAL>
-0.892342

>  <SCORE.INTRA.DIHEDRAL.0>
2.93688

>  <SCORE.INTRA.POLAR>
0

>  <SCORE.INTRA.POLAR.0>
0

>  <SCORE.INTRA.REPUL>
0

>  <SCORE.INTRA.REPUL.0>
0

>  <SCORE.INTRA.SOLV>
0.806323

>  <SCORE.INTRA.SOLV.lig_0>
-32.2816

>  <SCORE.INTRA.VDW>
0.102811

>  <SCORE.INTRA.VDW.0>
-0.749945

>  <SCORE.INTRA.norm>
0.00598011

>  <SCORE.RESTR>
0

>  <SCORE.RESTR.CAVITY>
0

>  <SCORE.RESTR.norm>
0

>  <SCORE.SYSTEM>
0

>  <SCORE.SYSTEM.CONST>
0

>  <SCORE.SYSTEM.DIHEDRAL>
0

>  <SCORE.SYSTEM.SOLV>
0

>  <SCORE.SYSTEM.norm>
0

>  <SCORE.heavy>
10

>  <SCORE.norm>
-0.894575

>  <RMSD>
1.246

$$$$
ligand
 OpenBabel11021811473D
libRbt.so/2013.1/901 2013/11/27
 10  9  0  0  0  0  0  0  0  0999 V2000
   31.9833   16.3229   20.2277 N   0  0  0  0  0  0  0  0  0  0  0  0
   31.2016   17.1028   21.2332 C   0  0  2  0  0  0  0  0  0  0  0  0
   32.0427   18.2224   21.8456 C   0  0  0  0  0  0  0  0  0  0  0  0
   31.5186   19.1391   22.4760 O   0  0  0  0  0  0  0  0  0  0  0  0
   30.6168   16.1787   22.3080 C   0  0  0  0  0  0  0  0  0  0  0  0
   29.5741   15.2071   21.7562 C   0  0  0  0  0  0  0  0  0  0  0  0
   28.3295   15.9171   21.2414 C   0  0  0  0  0  0  0  0  0  0  0  0
   27.2746   14.9161   20.7804 C   0  0  0  0  0  0  0  0  0  0  0  0
   26.0572   15.5685   20.1860 N   0  0  0  0  0  0  0  0  0  0  0  0
   33.2740   18.2449   21.7603 O   0  0  0  0  0  0  0  0  0  0  0  0
  2  1  1  6  0  0  0
  2  3  1  0  0  0  0
  2  5  1  0  0  0  0
  3  4  1  0  0  0  0
  3 10  1  0  0  0  0
  5  6  1  0  0  0  0
  6  7  1  0  0  0  0
  7  8  1  0  0  0  0
  8  9  1  0  0  0  0
M  END
>  <CHROM.1>
164.75531443,-65.45667428,-65.25646005,-176.39667212,-176.55618322,30.21558543
16.71334557,21.39682805,-0.52949030,-0.03172545,-2.72751328

>  <Name>
ligand

>  <RI>
0

>  <Rbt.Current_Directory>
/home/itssahil/PROJECTS/Mol_Feturizer/New_Systems/rnas/3DIL

>  <Rbt.Executable>
rbdock ($Id: //depot/dev/client3/rdock/2013.1/src/exe/rbdock.cxx#4 $)

>  <Rbt.Library>
libRbt.so (2013.1, Build901 2013/11/27)

>  <Rbt.Parameter_File>
/export/apps/rDock/src/rDock_2013.1_src/data/scripts/dock_solv.prm

>  <Rbt.Receptor>
prm/pocket_docking_2.prm

>  <SCORE>
-7.75177

>  <SCORE.INTER>
-7.27669

>  <SCORE.INTER.CONST>
1

>  <SCORE.INTER.POLAR>
0

>  <SCORE.INTER.ROT>
5

>  <SCORE.INTER.SOLV>
17.9865

>  <SCORE.INTER.VDW>
-17.78

>  <SCORE.INTER.norm>
-0.727669

>  <SCORE.INTRA>
-0.475075

>  <SCORE.INTRA.DIHEDRAL>
-1.12627

>  <SCORE.INTRA.DIHEDRAL.0>
2.93688

>  <SCORE.INTRA.POLAR>
0

>  <SCORE.INTRA.POLAR.0>
0

>  <SCORE.INTRA.REPUL>
0

>  <SCORE.INTRA.REPUL.0>
0

>  <SCORE.INTRA.SOLV>
-0.161444

>  <SCORE.INTRA.SOLV.lig_0>
-32.2816

>  <SCORE.INTRA.VDW>
0.16878

>  <SCORE.INTRA.VDW.0>
-0.749945

>  <SCORE.INTRA.norm>
-0.0475075

>  <SCORE.RESTR>
0

>  <SCORE.RESTR.CAVITY>
0

>  <SCORE.RESTR.norm>
0

>  <SCORE.SYSTEM>
0

>  <SCORE.SYSTEM.CONST>
0

>  <SCORE.SYSTEM.DIHEDRAL>
0

>  <SCORE.SYSTEM.SOLV>
0

>  <SCORE.SYSTEM.norm>
0

>  <SCORE.heavy>
10

>  <SCORE.norm>
-0.775177

>  <RMSD>
1.251

$$$$
ligand
 OpenBabel11021811473D
libRbt.so/2013.1/901 2013/11/27
 10  9  0  0  0  0  0  0  0  0999 V2000
   31.1764   16.7880   19.9586 N   0  0  0  0  0  0  0  0  0  0  0  0
   30.6326   17.0737   21.3200 C   0  0  2  0  0  0  0  0  0  0  0  0
   31.5928   17.9422   22.1321 C   0  0  0  0  0  0  0  0  0  0  0  0
   31.2237   19.0055   22.6277 O   0  0  0  0  0  0  0  0  0  0  0  0
   30.2838   15.7734   22.0537 C   0  0  0  0  0  0  0  0  0  0  0  0
   29.1704   14.9818   21.3684 C   0  0  0  0  0  0  0  0  0  0  0  0
   27.8432   15.7280   21.3612 C   0  0  0  0  0  0  0  0  0  0  0  0
   26.8104   15.0078   20.4999 C   0  0  0  0  0  0  0  0  0  0  0  0
   27.1960   14.9340   19.0484 N   0  0  0  0  0  0  0  0  0  0  0  0
   32.7615   17.6088   22.3487 O   0  0  0  0  0  0  0  0  0  0  0  0
  2  1  1  6  0  0  0
  2  3  1  0  0  0  0
  2  5  1  0  0  0  0
  3  4  1  0  0  0  0
  3 10  1  0  0  0  0
  5  6  1  0  0  0  0
  6  7  1  0  0  0  0
  7  8  1  0  0  0  0
  8  9  1  0  0  0  0
M  END
>  <CHROM.1>
124.68613049,-63.64387867,-64.26687920,171.78138717,-63.25145261,29.89855262
16.51042986,21.29374374,-0.57111465,-0.37229604,-2.04207256

>  <Name>
ligand

>  <RI>
0

>  <Rbt.Current_Directory>
/home/itssahil/PROJECTS/Mol_Feturizer/New_Systems/rnas/3DIL

>  <Rbt.Executable>
rbdock ($Id: //depot/dev/client3/rdock/2013.1/src/exe/rbdock.cxx#4 $)

>  <Rbt.Library>
libRbt.so (2013.1, Build901 2013/11/27)

>  <Rbt.Parameter_File>
/export/apps/rDock/src/rDock_2013.1_src/data/scripts/dock_solv.prm

>  <Rbt.Receptor>
prm/pocket_docking_6.prm

>  <SCORE>
-8.92638

>  <SCORE.INTER>
-8.99312

>  <SCORE.INTER.CONST>
1

>  <SCORE.INTER.POLAR>
0

>  <SCORE.INTER.ROT>
5

>  <SCORE.INTER.SOLV>
13.6031

>  <SCORE.INTER.VDW>
-17.4631

>  <SCORE.INTER.norm>
-0.899312

>  <SCORE.INTRA>
0.0667413

>  <SCORE.INTRA.DIHEDRAL>
-0.98123

>  <SCORE.INTRA.DIHEDRAL.0>
2.93688

>  <SCORE.INTRA.POLAR>
0

>  <SCORE.INTRA.POLAR.0>
0

>  <SCORE.INTRA.REPUL>
0

>  <SCORE.INTRA.REPUL.0>
0

>  <SCORE.INTRA.SOLV>
0.816216

>  <SCORE.INTRA.SOLV.lig_0>
-32.2816

>  <SCORE.INTRA.VDW>
0.149248

>  <SCORE.INTRA.VDW.0>
-0.749945

>  <SCORE.INTRA.norm>
0.00667413

>  <SCORE.RESTR>
0

>  <SCORE.RESTR.CAVITY>
0

>  <SCORE.RESTR.norm>
0

>  <SCORE.SYSTEM>
0

>  <SCORE.SYSTEM.CONST>
0

>  <SCORE.SYSTEM.DIHEDRAL>
0

>  <SCORE.SYSTEM.SOLV>
0

>  <SCORE.SYSTEM.norm>
0

>  <SCORE.heavy>
10

>  <SCORE.norm>
-0.892638

>  <RMSD>
1.252

$$$$
ligand
 OpenBabel11021811473D
libRbt.so/2013.1/901 2013/11/27
 10  9  0  0  0  0  0  0  0  0999 V2000
   31.8734   16.0625   20.3590 N   0  0  0  0  0  0  0  0  0  0  0  0
   31.0611   16.9739   21.2193 C   0  0  2  0  0  0  0  0  0  0  0  0
   31.9182   18.0934   21.8090 C   0  0  0  0  0  0  0  0  0  0  0  0
   33.1463   18.0442   21.7652 O   0  0  0  0  0  0  0  0  0  0  0  0
   30.3265   16.1859   22.3103 C   0  0  0  0  0  0  0  0  0  0  0  0
   29.2709   15.2333   21.7500 C   0  0  0  0  0  0  0  0  0  0  0  0
   28.1414   15.9665   21.0395 C   0  0  0  0  0  0  0  0  0  0  0  0
   27.0451   14.9997   20.6029 C   0  0  0  0  0  0  0  0  0  0  0  0
   25.9568   15.6593   19.8020 N   0  0  0  0  0  0  0  0  0  0  0  0
   31.4246   19.0996   22.3266 O   0  0  0  0  0  0  0  0  0  0  0  0
  2  1  1  1  0  0  0
  2  3  1  0  0  0  0
  2  5  1  0  0  0  0
  3  4  1  0  0  0  0
  3 10  1  0  0  0  0
  5  6  1  0  0  0  0
  6  7  1  0  0  0  0
  7  8  1  0  0  0  0
  8  9  1  0  0  0  0
M  END
>  <CHROM.1>
-13.12967972,-65.60644374,-63.92655840,-174.90551172,-175.51609097,30.04554336
16.66296012,21.31288507,-0.50498702,0.07080287,-2.81123894

>  <Name>
ligand

>  <RI>
0

>  <Rbt.Current_Directory>
/home/itssahil/PROJECTS/Mol_Feturizer/New_Systems/rnas/3DIL

>  <Rbt.Executable>
rbdock ($Id: //depot/dev/client3/rdock/2013.1/src/exe/rbdock.cxx#4 $)

>  <Rbt.Library>
libRbt.so (2013.1, Build901 2013/11/27)

>  <Rbt.Parameter_File>
/export/apps/rDock/src/rDock_2013.1_src/data/scripts/dock_solv.prm

>  <Rbt.Receptor>
prm/pocket_docking_5.prm

>  <SCORE>
-7.69587

>  <SCORE.INTER>
-7.33961

>  <SCORE.INTER.CONST>
1

>  <SCORE.INTER.POLAR>
0

>  <SCORE.INTER.ROT>
5

>  <SCORE.INTER.SOLV>
18.2252

>  <SCORE.INTER.VDW>
-17.9015

>  <SCORE.INTER.norm>
-0.733961

>  <SCORE.INTRA>
-0.356257

>  <SCORE.INTRA.DIHEDRAL>
-1.00583

>  <SCORE.INTRA.DIHEDRAL.0>
2.93688

>  <SCORE.INTRA.POLAR>
0

>  <SCORE.INTRA.POLAR.0>
0

>  <SCORE.INTRA.REPUL>
0

>  <SCORE.INTRA.REPUL.0>
0

>  <SCORE.INTRA.SOLV>
-0.137557

>  <SCORE.INTRA.SOLV.lig_0>
-32.2816

>  <SCORE.INTRA.VDW>
0.215435

>  <SCORE.INTRA.VDW.0>
-0.749945

>  <SCORE.INTRA.norm>
-0.0356257

>  <SCORE.RESTR>
0

>  <SCORE.RESTR.CAVITY>
0

>  <SCORE.RESTR.norm>
0

>  <SCORE.SYSTEM>
0

>  <SCORE.SYSTEM.CONST>
0

>  <SCORE.SYSTEM.DIHEDRAL>
0

>  <SCORE.SYSTEM.SOLV>
0

>  <SCORE.SYSTEM.norm>
0

>  <SCORE.heavy>
10

>  <SCORE.norm>
-0.769587

>  <RMSD>
1.256

$$$$
ligand
 OpenBabel11021811473D
libRbt.so/2013.1/901 2013/11/27
 10  9  0  0  0  0  0  0  0  0999 V2000
   31.0265   16.8660   19.9733 N   0  0  0  0  0  0  0  0  0  0  0  0
   30.7921   17.3121   21.3793 C   0  0  2  0  0  0  0  0  0  0  0  0
   32.0523   17.9293   21.9850 C   0  0  0  0  0  0  0  0  0  0  0  0
   33.1454   17.3759   21.8788 O   0  0  0  0  0  0  0  0  0  0  0  0
   30.2553   16.1598   22.2366 C   0  0  0  0  0  0  0  0  0  0  0  0
   28.8142   15.7828   21.8945 C   0  0  0  0  0  0  0  0  0  0  0  0
   28.7072   15.0148   20.5841 C   0  0  0  0  0  0  0  0  0  0  0  0
   27.2540   14.8844   20.1386 C   0  0  0  0  0  0  0  0  0  0  0  0
   26.6534   16.1862   19.6853 N   0  0  0  0  0  0  0  0  0  0  0  0
   32.0373   19.0117   22.5784 O   0  0  0  0  0  0  0  0  0  0  0  0
  2  1  1  6  0  0  0
  2  3  1  0  0  0  0
  2  5  1  0  0  0  0
  3  4  1  0  0  0  0
  3 10  1  0  0  0  0
  5  6  1  0  0  0  0
  6  7  1  0  0  0  0
  7  8  1  0  0  0  0
  8  9  1  0  0  0  0
M  END
>  <CHROM.1>
-47.02200119,-71.30594192,74.50428099,-169.25981411,70.09726870,30.11110283
16.67247091,21.24983265,0.03176060,-0.57520362,-0.91037813

>  <Name>
ligand

>  <RI>
0

>  <Rbt.Current_Directory>
/home/itssahil/PROJECTS/Mol_Feturizer/New_Systems/rnas/3DIL

>  <Rbt.Executable>
rbdock ($Id: //depot/dev/client3/rdock/2013.1/src/exe/rbdock.cxx#4 $)

>  <Rbt.Library>
libRbt.so (2013.1, Build901 2013/11/27)

>  <Rbt.Parameter_File>
/export/apps/rDock/src/rDock_2013.1_src/data/scripts/dock_solv.prm

>  <Rbt.Receptor>
prm/blind_docking_100.prm

>  <SCORE>
-5.7316

>  <SCORE.INTER>
-6.88671

>  <SCORE.INTER.CONST>
1

>  <SCORE.INTER.POLAR>
0

>  <SCORE.INTER.ROT>
5

>  <SCORE.INTER.SOLV>
15.5177

>  <SCORE.INTER.VDW>
-16.697

>  <SCORE.INTER.norm>
-0.688671

>  <SCORE.INTRA>
1.15511

>  <SCORE.INTRA.DIHEDRAL>
0.805665

>  <SCORE.INTRA.DIHEDRAL.0>
2.93688

>  <SCORE.INTRA.POLAR>
0

>  <SCORE.INTRA.POLAR.0>
0

>  <SCORE.INTRA.REPUL>
0

>  <SCORE.INTRA.REPUL.0>
0

>  <SCORE.INTRA.SOLV>
1.54012

>  <SCORE.INTRA.SOLV.lig_0>
-32.2816

>  <SCORE.INTRA.VDW>
-0.017781

>  <SCORE.INTRA.VDW.0>
-0.749945

>  <SCORE.INTRA.norm>
0.115511

>  <SCORE.RESTR>
0

>  <SCORE.RESTR.CAVITY>
0

>  <SCORE.RESTR.norm>
0

>  <SCORE.SYSTEM>
0

>  <SCORE.SYSTEM.CONST>
0

>  <SCORE.SYSTEM.DIHEDRAL>
0

>  <SCORE.SYSTEM.SOLV>
0

>  <SCORE.SYSTEM.norm>
0

>  <SCORE.heavy>
10

>  <SCORE.norm>
-0.57316

>  <RMSD>
1.271

$$$$
ligand
 OpenBabel11021811473D
libRbt.so/2013.1/901 2013/11/27
 10  9  0  0  0  0  0  0  0  0999 V2000
   33.6110   16.8837   20.3784 N   0  0  0  0  0  0  0  0  0  0  0  0
   32.2384   17.2602   20.8309 C   0  0  2  0  0  0  0  0  0  0  0  0
   32.2871   18.2873   21.9616 C   0  0  0  0  0  0  0  0  0  0  0  0
   33.2343   18.3260   22.7450 O   0  0  0  0  0  0  0  0  0  0  0  0
   31.4327   16.0172   21.2268 C   0  0  0  0  0  0  0  0  0  0  0  0
   29.9270   16.2741   21.2799 C   0  0  0  0  0  0  0  0  0  0  0  0
   29.1408   15.0472   21.7212 C   0  0  0  0  0  0  0  0  0  0  0  0
   27.6473   15.2296   21.4694 C   0  0  0  0  0  0  0  0  0  0  0  0
   27.2979   15.3153   20.0094 N   0  0  0  0  0  0  0  0  0  0  0  0
   31.4024   19.1330   22.1236 O   0  0  0  0  0  0  0  0  0  0  0  0
  2  1  1  1  0  0  0
  2  3  1  0  0  0  0
  2  5  1  0  0  0  0
  3  4  1  0  0  0  0
  3 10  1  0  0  0  0
  5  6  1  0  0  0  0
  6  7  1  0  0  0  0
  7  8  1  0  0  0  0
  8  9  1  0  0  0  0
M  END
>  <CHROM.1>
-29.29200272,-162.23244458,-177.98501711,-167.35712353,65.88978876,30.83276715
16.80710787,21.40009426,-0.51856235,-0.18091634,-2.54633063

>  <Name>
ligand

>  <RI>
0

>  <Rbt.Current_Directory>
/home/itssahil/PROJECTS/Mol_Feturizer/New_Systems/rnas/3DIL

>  <Rbt.Executable>
rbdock ($Id: //depot/dev/client3/rdock/2013.1/src/exe/rbdock.cxx#4 $)

>  <Rbt.Library>
libRbt.so (2013.1, Build901 2013/11/27)

>  <Rbt.Parameter_File>
/export/apps/rDock/src/rDock_2013.1_src/data/scripts/dock_solv.prm

>  <Rbt.Receptor>
prm/pocket_docking_2.prm

>  <SCORE>
-7.76539

>  <SCORE.INTER>
-7.61421

>  <SCORE.INTER.CONST>
1

>  <SCORE.INTER.POLAR>
0

>  <SCORE.INTER.ROT>
5

>  <SCORE.INTER.SOLV>
15.1413

>  <SCORE.INTER.VDW>
-17.0566

>  <SCORE.INTER.norm>
-0.761421

>  <SCORE.INTRA>
-0.151178

>  <SCORE.INTRA.DIHEDRAL>
0.53857

>  <SCORE.INTRA.DIHEDRAL.0>
2.93688

>  <SCORE.INTRA.POLAR>
0

>  <SCORE.INTRA.POLAR.0>
0

>  <SCORE.INTRA.REPUL>
0

>  <SCORE.INTRA.REPUL.0>
0

>  <SCORE.INTRA.SOLV>
-0.532087

>  <SCORE.INTRA.SOLV.lig_0>
-32.2816

>  <SCORE.INTRA.VDW>
-0.154419

>  <SCORE.INTRA.VDW.0>
-0.749945

>  <SCORE.INTRA.norm>
-0.0151178

>  <SCORE.RESTR>
0

>  <SCORE.RESTR.CAVITY>
0

>  <SCORE.RESTR.norm>
0

>  <SCORE.SYSTEM>
0

>  <SCORE.SYSTEM.CONST>
0

>  <SCORE.SYSTEM.DIHEDRAL>
0

>  <SCORE.SYSTEM.SOLV>
0

>  <SCORE.SYSTEM.norm>
0

>  <SCORE.heavy>
10

>  <SCORE.norm>
-0.776539

>  <RMSD>
1.312

$$$$
ligand
 OpenBabel11021811473D
libRbt.so/2013.1/901 2013/11/27
 10  9  0  0  0  0  0  0  0  0999 V2000
   33.6100   16.9007   20.3661 N   0  0  0  0  0  0  0  0  0  0  0  0
   32.2392   17.2598   20.8380 C   0  0  2  0  0  0  0  0  0  0  0  0
   32.2919   18.2668   21.9866 C   0  0  0  0  0  0  0  0  0  0  0  0
   33.2398   18.2889   22.7697 O   0  0  0  0  0  0  0  0  0  0  0  0
   31.4453   16.0046   21.2188 C   0  0  0  0  0  0  0  0  0  0  0  0
   29.9459   16.2663   21.3575 C   0  0  0  0  0  0  0  0  0  0  0  0
   29.1666   15.0122   21.7293 C   0  0  0  0  0  0  0  0  0  0  0  0
   27.6661   15.2229   21.5524 C   0  0  0  0  0  0  0  0  0  0  0  0
   27.2613   15.4324   20.1195 N   0  0  0  0  0  0  0  0  0  0  0  0
   31.4099   19.1121   22.1640 O   0  0  0  0  0  0  0  0  0  0  0  0
  2  1  1  1  0  0  0
  2  3  1  0  0  0  0
  2  5  1  0  0  0  0
  3  4  1  0  0  0  0
  3 10  1  0  0  0  0
  5  6  1  0  0  0  0
  6  7  1  0  0  0  0
  7  8  1  0  0  0  0
  8  9  1  0  0  0  0
M  END
>  <CHROM.1>
-30.02860110,-165.05152438,179.73037050,-167.12832756,65.72275792,30.83857715
16.80588506,21.43591823,-0.50391127,-0.18546009,-2.54797082

>  <Name>
ligand

>  <RI>
0

>  <Rbt.Current_Directory>
/home/itssahil/PROJECTS/Mol_Feturizer/New_Systems/rnas/3DIL

>  <Rbt.Executable>
rbdock ($Id: //depot/dev/client3/rdock/2013.1/src/exe/rbdock.cxx#4 $)

>  <Rbt.Library>
libRbt.so (2013.1, Build901 2013/11/27)

>  <Rbt.Parameter_File>
/export/apps/rDock/src/rDock_2013.1_src/data/scripts/dock_solv.prm

>  <Rbt.Receptor>
prm/pocket_docking_2.prm

>  <SCORE>
-7.7645

>  <SCORE.INTER>
-7.48325

>  <SCORE.INTER.CONST>
1

>  <SCORE.INTER.POLAR>
0

>  <SCORE.INTER.ROT>
5

>  <SCORE.INTER.SOLV>
15.4859

>  <SCORE.INTER.VDW>
-17.0841

>  <SCORE.INTER.norm>
-0.748325

>  <SCORE.INTRA>
-0.28125

>  <SCORE.INTRA.DIHEDRAL>
0.22172

>  <SCORE.INTRA.DIHEDRAL.0>
2.93688

>  <SCORE.INTRA.POLAR>
0

>  <SCORE.INTRA.POLAR.0>
0

>  <SCORE.INTRA.REPUL>
0

>  <SCORE.INTRA.REPUL.0>
0

>  <SCORE.INTRA.SOLV>
-0.534288

>  <SCORE.INTRA.SOLV.lig_0>
-32.2816

>  <SCORE.INTRA.VDW>
-0.124966

>  <SCORE.INTRA.VDW.0>
-0.749945

>  <SCORE.INTRA.norm>
-0.028125

>  <SCORE.RESTR>
0

>  <SCORE.RESTR.CAVITY>
0

>  <SCORE.RESTR.norm>
0

>  <SCORE.SYSTEM>
0

>  <SCORE.SYSTEM.CONST>
0

>  <SCORE.SYSTEM.DIHEDRAL>
0

>  <SCORE.SYSTEM.SOLV>
0

>  <SCORE.SYSTEM.norm>
0

>  <SCORE.heavy>
10

>  <SCORE.norm>
-0.77645

>  <RMSD>
1.342

$$$$
ligand
 OpenBabel11021811473D
libRbt.so/2013.1/901 2013/11/27
 10  9  0  0  0  0  0  0  0  0999 V2000
   33.4964   17.1344   20.5353 N   0  0  0  0  0  0  0  0  0  0  0  0
   32.1038   17.4384   20.9814 C   0  0  2  0  0  0  0  0  0  0  0  0
   32.0948   18.4447   22.1316 C   0  0  0  0  0  0  0  0  0  0  0  0
   31.0683   19.0469   22.4414 O   0  0  0  0  0  0  0  0  0  0  0  0
   31.3530   16.1522   21.3458 C   0  0  0  0  0  0  0  0  0  0  0  0
   29.8347   16.3269   21.3441 C   0  0  0  0  0  0  0  0  0  0  0  0
   29.1001   15.0521   21.7360 C   0  0  0  0  0  0  0  0  0  0  0  0
   27.6057   15.1674   21.4520 C   0  0  0  0  0  0  0  0  0  0  0  0
   27.2869   15.2752   19.9865 N   0  0  0  0  0  0  0  0  0  0  0  0
   33.0979   18.6777   22.8125 O   0  0  0  0  0  0  0  0  0  0  0  0
  2  1  1  1  0  0  0
  2  3  1  0  0  0  0
  2  5  1  0  0  0  0
  3  4  1  0  0  0  0
  3 10  1  0  0  0  0
  5  6  1  0  0  0  0
  6  7  1  0  0  0  0
  7  8  1  0  0  0  0
  8  9  1  0  0  0  0
M  END
>  <CHROM.1>
163.63192745,-160.34388629,-178.77852759,-168.36683908,65.79897365,30.71295506
16.90090405,21.50335090,-0.56267174,-0.21373153,-2.49473421

>  <Name>
ligand

>  <RI>
0

>  <Rbt.Current_Directory>
/home/itssahil/PROJECTS/Mol_Feturizer/New_Systems/rnas/3DIL

>  <Rbt.Executable>
rbdock ($Id: //depot/dev/client3/rdock/2013.1/src/exe/rbdock.cxx#4 $)

>  <Rbt.Library>
libRbt.so (2013.1, Build901 2013/11/27)

>  <Rbt.Parameter_File>
/export/apps/rDock/src/rDock_2013.1_src/data/scripts/dock_solv.prm

>  <Rbt.Receptor>
prm/blind_docking_80.prm

>  <SCORE>
-8.14903

>  <SCORE.INTER>
-8.07655

>  <SCORE.INTER.CONST>
1

>  <SCORE.INTER.POLAR>
0

>  <SCORE.INTER.ROT>
5

>  <SCORE.INTER.SOLV>
14.7122

>  <SCORE.INTER.VDW>
-17.2218

>  <SCORE.INTER.norm>
-0.807655

>  <SCORE.INTRA>
-0.0724826

>  <SCORE.INTRA.DIHEDRAL>
0.562917

>  <SCORE.INTRA.DIHEDRAL.0>
2.93688

>  <SCORE.INTRA.POLAR>
0

>  <SCORE.INTRA.POLAR.0>
0

>  <SCORE.INTRA.REPUL>
0

>  <SCORE.INTRA.REPUL.0>
0

>  <SCORE.INTRA.SOLV>
-0.541389

>  <SCORE.INTRA.SOLV.lig_0>
-32.2816

>  <SCORE.INTRA.VDW>
-0.0832468

>  <SCORE.INTRA.VDW.0>
-0.749945

>  <SCORE.INTRA.norm>
-0.00724826

>  <SCORE.RESTR>
0

>  <SCORE.RESTR.CAVITY>
0

>  <SCORE.RESTR.norm>
0

>  <SCORE.SYSTEM>
0

>  <SCORE.SYSTEM.CONST>
0

>  <SCORE.SYSTEM.DIHEDRAL>
0

>  <SCORE.SYSTEM.SOLV>
0

>  <SCORE.SYSTEM.norm>
0

>  <SCORE.heavy>
10

>  <SCORE.norm>
-0.814903

>  <RMSD>
1.423

$$$$
ligand
 OpenBabel11021811473D
libRbt.so/2013.1/901 2013/11/27
 10  9  0  0  0  0  0  0  0  0999 V2000
   33.6487   17.0464   20.5266 N   0  0  0  0  0  0  0  0  0  0  0  0
   32.2750   17.4095   20.9867 C   0  0  2  0  0  0  0  0  0  0  0  0
   32.3203   18.4277   22.1255 C   0  0  0  0  0  0  0  0  0  0  0  0
   33.2987   18.5103   22.8660 O   0  0  0  0  0  0  0  0  0  0  0  0
   31.4793   16.1577   21.3750 C   0  0  0  0  0  0  0  0  0  0  0  0
   29.9687   16.3899   21.3838 C   0  0  0  0  0  0  0  0  0  0  0  0
   29.1886   15.1414   21.7723 C   0  0  0  0  0  0  0  0  0  0  0  0
   27.7017   15.3049   21.4728 C   0  0  0  0  0  0  0  0  0  0  0  0
   27.4023   15.4273   20.0044 N   0  0  0  0  0  0  0  0  0  0  0  0
   31.4001   19.2232   22.3366 O   0  0  0  0  0  0  0  0  0  0  0  0
  2  1  1  1  0  0  0
  2  3  1  0  0  0  0
  2  5  1  0  0  0  0
  3  4  1  0  0  0  0
  3 10  1  0  0  0  0
  5  6  1  0  0  0  0
  6  7  1  0  0  0  0
  7  8  1  0  0  0  0
  8  9  1  0  0  0  0
M  END
>  <CHROM.1>
-25.70232284,-160.06522872,-179.92423414,-167.24686052,65.40946777,30.87905065
16.93351701,21.51092294,-0.54036679,-0.17616926,-2.52604287

>  <Name>
ligand

>  <RI>
0

>  <Rbt.Current_Directory>
/home/itssahil/PROJECTS/Mol_Feturizer/New_Systems/rnas/3DIL

>  <Rbt.Executable>
rbdock ($Id: //depot/dev/client3/rdock/2013.1/src/exe/rbdock.cxx#4 $)

>  <Rbt.Library>
libRbt.so (2013.1, Build901 2013/11/27)

>  <Rbt.Parameter_File>
/export/apps/rDock/src/rDock_2013.1_src/data/scripts/dock_solv.prm

>  <Rbt.Receptor>
prm/pocket_docking_2.prm

>  <SCORE>
-7.80771

>  <SCORE.INTER>
-7.78767

>  <SCORE.INTER.CONST>
1

>  <SCORE.INTER.POLAR>
0

>  <SCORE.INTER.ROT>
5

>  <SCORE.INTER.SOLV>
14.6676

>  <SCORE.INTER.VDW>
-17.0143

>  <SCORE.INTER.norm>
-0.778767

>  <SCORE.INTRA>
-0.020046

>  <SCORE.INTRA.DIHEDRAL>
0.78056

>  <SCORE.INTRA.DIHEDRAL.0>
2.93688

>  <SCORE.INTRA.POLAR>
0

>  <SCORE.INTRA.POLAR.0>
0

>  <SCORE.INTRA.REPUL>
0

>  <SCORE.INTRA.REPUL.0>
0

>  <SCORE.INTRA.SOLV>
-0.518127

>  <SCORE.INTRA.SOLV.lig_0>
-32.2816

>  <SCORE.INTRA.VDW>
-0.151262

>  <SCORE.INTRA.VDW.0>
-0.749945

>  <SCORE.INTRA.norm>
-0.0020046

>  <SCORE.RESTR>
0

>  <SCORE.RESTR.CAVITY>
0

>  <SCORE.RESTR.norm>
0

>  <SCORE.SYSTEM>
0

>  <SCORE.SYSTEM.CONST>
0

>  <SCORE.SYSTEM.DIHEDRAL>
0

>  <SCORE.SYSTEM.SOLV>
0

>  <SCORE.SYSTEM.norm>
0

>  <SCORE.heavy>
10

>  <SCORE.norm>
-0.780771

>  <RMSD>
1.424

$$$$
ligand
 OpenBabel11021811473D
libRbt.so/2013.1/901 2013/11/27
 10  9  0  0  0  0  0  0  0  0999 V2000
   33.5118   17.1516   20.5924 N   0  0  0  0  0  0  0  0  0  0  0  0
   32.1119   17.4508   21.0183 C   0  0  2  0  0  0  0  0  0  0  0  0
   32.0829   18.4554   22.1698 C   0  0  0  0  0  0  0  0  0  0  0  0
   33.0972   18.7101   22.8169 O   0  0  0  0  0  0  0  0  0  0  0  0
   31.3597   16.1618   21.3697 C   0  0  0  0  0  0  0  0  0  0  0  0
   29.8413   16.3361   21.3618 C   0  0  0  0  0  0  0  0  0  0  0  0
   29.1050   15.0562   21.7335 C   0  0  0  0  0  0  0  0  0  0  0  0
   27.6097   15.1808   21.4586 C   0  0  0  0  0  0  0  0  0  0  0  0
   27.2830   15.2959   19.9954 N   0  0  0  0  0  0  0  0  0  0  0  0
   31.0595   19.0705   22.4833 O   0  0  0  0  0  0  0  0  0  0  0  0
  2  1  1  1  0  0  0
  2  3  1  0  0  0  0
  2  5  1  0  0  0  0
  3  4  1  0  0  0  0
  3 10  1  0  0  0  0
  5  6  1  0  0  0  0
  6  7  1  0  0  0  0
  7  8  1  0  0  0  0
  8  9  1  0  0  0  0
M  END
>  <CHROM.1>
-15.05872588,-161.01169475,-179.09339793,-169.06355169,66.66224861,30.71495505
16.91668677,21.52633965,-0.56891591,-0.20213829,-2.50835792

>  <Name>
ligand

>  <RI>
0

>  <Rbt.Current_Directory>
/home/itssahil/PROJECTS/Mol_Feturizer/New_Systems/rnas/3DIL

>  <Rbt.Executable>
rbdock ($Id: //depot/dev/client3/rdock/2013.1/src/exe/rbdock.cxx#4 $)

>  <Rbt.Library>
libRbt.so (2013.1, Build901 2013/11/27)

>  <Rbt.Parameter_File>
/export/apps/rDock/src/rDock_2013.1_src/data/scripts/dock_solv.prm

>  <Rbt.Receptor>
prm/blind_docking_100.prm

>  <SCORE>
-8.07511

>  <SCORE.INTER>
-7.99676

>  <SCORE.INTER.CONST>
1

>  <SCORE.INTER.POLAR>
0

>  <SCORE.INTER.ROT>
5

>  <SCORE.INTER.SOLV>
14.7761

>  <SCORE.INTER.VDW>
-17.1899

>  <SCORE.INTER.norm>
-0.799676

>  <SCORE.INTRA>
-0.0783422

>  <SCORE.INTRA.DIHEDRAL>
0.538873

>  <SCORE.INTRA.DIHEDRAL.0>
2.93688

>  <SCORE.INTRA.POLAR>
0

>  <SCORE.INTRA.POLAR.0>
0

>  <SCORE.INTRA.REPUL>
0

>  <SCORE.INTRA.REPUL.0>
0

>  <SCORE.INTRA.SOLV>
-0.548616

>  <SCORE.INTRA.SOLV.lig_0>
-32.2816

>  <SCORE.INTRA.VDW>
-0.0734705

>  <SCORE.INTRA.VDW.0>
-0.749945

>  <SCORE.INTRA.norm>
-0.00783422

>  <SCORE.RESTR>
0

>  <SCORE.RESTR.CAVITY>
0

>  <SCORE.RESTR.norm>
0

>  <SCORE.SYSTEM>
0

>  <SCORE.SYSTEM.CONST>
0

>  <SCORE.SYSTEM.DIHEDRAL>
0

>  <SCORE.SYSTEM.SOLV>
0

>  <SCORE.SYSTEM.norm>
0

>  <SCORE.heavy>
10

>  <SCORE.norm>
-0.807511

>  <RMSD>
1.447

$$$$
ligand
 OpenBabel11021811473D
libRbt.so/2013.1/901 2013/11/27
 10  9  0  0  0  0  0  0  0  0999 V2000
   33.6478   17.0595   20.5001 N   0  0  0  0  0  0  0  0  0  0  0  0
   32.2821   17.4105   20.9925 C   0  0  2  0  0  0  0  0  0  0  0  0
   32.3443   18.4437   22.1170 C   0  0  0  0  0  0  0  0  0  0  0  0
   31.4041   19.2069   22.3318 O   0  0  0  0  0  0  0  0  0  0  0  0
   31.5140   16.1535   21.4177 C   0  0  0  0  0  0  0  0  0  0  0  0
   29.9989   16.3543   21.4258 C   0  0  0  0  0  0  0  0  0  0  0  0
   29.2453   15.0943   21.8292 C   0  0  0  0  0  0  0  0  0  0  0  0
   27.7466   15.2479   21.5898 C   0  0  0  0  0  0  0  0  0  0  0  0
   27.3861   15.3540   20.1338 N   0  0  0  0  0  0  0  0  0  0  0  0
   33.3175   18.5418   22.8701 O   0  0  0  0  0  0  0  0  0  0  0  0
  2  1  1  1  0  0  0
  2  3  1  0  0  0  0
  2  5  1  0  0  0  0
  3  4  1  0  0  0  0
  3 10  1  0  0  0  0
  5  6  1  0  0  0  0
  6  7  1  0  0  0  0
  7  8  1  0  0  0  0
  8  9  1  0  0  0  0
M  END
>  <CHROM.1>
153.60983781,-158.41861108,179.14124048,-169.88336958,66.69900741,30.89919975
16.91642105,21.54658339,-0.53982291,-0.19857810,-2.53355968

>  <Name>
ligand

>  <RI>
0

>  <Rbt.Current_Directory>
/home/itssahil/PROJECTS/Mol_Feturizer/New_Systems/rnas/3DIL

>  <Rbt.Executable>
rbdock ($Id: //depot/dev/client3/rdock/2013.1/src/exe/rbdock.cxx#4 $)

>  <Rbt.Library>
libRbt.so (2013.1, Build901 2013/11/27)

>  <Rbt.Parameter_File>
/export/apps/rDock/src/rDock_2013.1_src/data/scripts/dock_solv.prm

>  <Rbt.Receptor>
prm/pocket_docking_2.prm

>  <SCORE>
-7.85326

>  <SCORE.INTER>
-7.74353

>  <SCORE.INTER.CONST>
1

>  <SCORE.INTER.POLAR>
0

>  <SCORE.INTER.ROT>
5

>  <SCORE.INTER.SOLV>
14.8662

>  <SCORE.INTER.VDW>
-17.0511

>  <SCORE.INTER.norm>
-0.774353

>  <SCORE.INTRA>
-0.109736

>  <SCORE.INTRA.DIHEDRAL>
0.713273

>  <SCORE.INTRA.DIHEDRAL.0>
2.93688

>  <SCORE.INTRA.POLAR>
0

>  <SCORE.INTRA.POLAR.0>
0

>  <SCORE.INTRA.REPUL>
0

>  <SCORE.INTRA.REPUL.0>
0

>  <SCORE.INTRA.SOLV>
-0.564174

>  <SCORE.INTRA.SOLV.lig_0>
-32.2816

>  <SCORE.INTRA.VDW>
-0.184286

>  <SCORE.INTRA.VDW.0>
-0.749945

>  <SCORE.INTRA.norm>
-0.0109736

>  <SCORE.RESTR>
0

>  <SCORE.RESTR.CAVITY>
0

>  <SCORE.RESTR.norm>
0

>  <SCORE.SYSTEM>
0

>  <SCORE.SYSTEM.CONST>
0

>  <SCORE.SYSTEM.DIHEDRAL>
0

>  <SCORE.SYSTEM.SOLV>
0

>  <SCORE.SYSTEM.norm>
0

>  <SCORE.heavy>
10

>  <SCORE.norm>
-0.785326

>  <RMSD>
1.451

$$$$
ligand
 OpenBabel11021811473D
libRbt.so/2013.1/901 2013/11/27
 10  9  0  0  0  0  0  0  0  0999 V2000
   33.5967   17.0644   20.6542 N   0  0  0  0  0  0  0  0  0  0  0  0
   32.1827   17.4048   20.9938 C   0  0  2  0  0  0  0  0  0  0  0  0
   32.1138   18.5024   22.0551 C   0  0  0  0  0  0  0  0  0  0  0  0
   31.1043   19.1911   22.1928 O   0  0  0  0  0  0  0  0  0  0  0  0
   31.4057   16.1533   21.4194 C   0  0  0  0  0  0  0  0  0  0  0  0
   29.8905   16.3351   21.3371 C   0  0  0  0  0  0  0  0  0  0  0  0
   29.1291   15.0831   21.7508 C   0  0  0  0  0  0  0  0  0  0  0  0
   27.6409   15.2159   21.4431 C   0  0  0  0  0  0  0  0  0  0  0  0
   27.3457   15.3153   19.9721 N   0  0  0  0  0  0  0  0  0  0  0  0
   33.0461   18.7286   22.8320 O   0  0  0  0  0  0  0  0  0  0  0  0
  2  1  1  1  0  0  0
  2  3  1  0  0  0  0
  2  5  1  0  0  0  0
  3  4  1  0  0  0  0
  3 10  1  0  0  0  0
  5  6  1  0  0  0  0
  6  7  1  0  0  0  0
  7  8  1  0  0  0  0
  8  9  1  0  0  0  0
M  END
>  <CHROM.1>
158.54241298,-161.21026138,179.52550062,-170.71540731,64.81669983,30.75299172
16.93071406,21.48959203,-0.58241788,-0.14278075,-2.61366548

>  <Name>
ligand

>  <RI>
0

>  <Rbt.Current_Directory>
/home/itssahil/PROJECTS/Mol_Feturizer/New_Systems/rnas/3DIL

>  <Rbt.Executable>
rbdock ($Id: //depot/dev/client3/rdock/2013.1/src/exe/rbdock.cxx#4 $)

>  <Rbt.Library>
libRbt.so (2013.1, Build901 2013/11/27)

>  <Rbt.Parameter_File>
/export/apps/rDock/src/rDock_2013.1_src/data/scripts/dock_solv.prm

>  <Rbt.Receptor>
prm/pocket_docking_3.prm

>  <SCORE>
-8.15019

>  <SCORE.INTER>
-7.87147

>  <SCORE.INTER.CONST>
1

>  <SCORE.INTER.POLAR>
0

>  <SCORE.INTER.ROT>
5

>  <SCORE.INTER.SOLV>
14.7075

>  <SCORE.INTER.VDW>
-17.0835

>  <SCORE.INTER.norm>
-0.787147

>  <SCORE.INTRA>
-0.278713

>  <SCORE.INTRA.DIHEDRAL>
0.207004

>  <SCORE.INTRA.DIHEDRAL.0>
2.93688

>  <SCORE.INTRA.POLAR>
0

>  <SCORE.INTRA.POLAR.0>
0

>  <SCORE.INTRA.REPUL>
0

>  <SCORE.INTRA.REPUL.0>
0

>  <SCORE.INTRA.SOLV>
-0.548318

>  <SCORE.INTRA.SOLV.lig_0>
-32.2816

>  <SCORE.INTRA.VDW>
-0.108056

>  <SCORE.INTRA.VDW.0>
-0.749945

>  <SCORE.INTRA.norm>
-0.0278713

>  <SCORE.RESTR>
0

>  <SCORE.RESTR.CAVITY>
0

>  <SCORE.RESTR.norm>
0

>  <SCORE.SYSTEM>
0

>  <SCORE.SYSTEM.CONST>
0

>  <SCORE.SYSTEM.DIHEDRAL>
0

>  <SCORE.SYSTEM.SOLV>
0

>  <SCORE.SYSTEM.norm>
0

>  <SCORE.heavy>
10

>  <SCORE.norm>
-0.815019

>  <RMSD>
1.468

$$$$
ligand
 OpenBabel11021811473D
libRbt.so/2013.1/901 2013/11/27
 10  9  0  0  0  0  0  0  0  0999 V2000
   33.5171   17.1504   20.6542 N   0  0  0  0  0  0  0  0  0  0  0  0
   32.1193   17.4605   21.0790 C   0  0  2  0  0  0  0  0  0  0  0  0
   32.0969   18.4725   22.2241 C   0  0  0  0  0  0  0  0  0  0  0  0
   31.0510   19.0205   22.5679 O   0  0  0  0  0  0  0  0  0  0  0  0
   31.3597   16.1782   21.4390 C   0  0  0  0  0  0  0  0  0  0  0  0
   29.8419   16.3524   21.3980 C   0  0  0  0  0  0  0  0  0  0  0  0
   29.0978   15.0788   21.7758 C   0  0  0  0  0  0  0  0  0  0  0  0
   27.6096   15.1961   21.4620 C   0  0  0  0  0  0  0  0  0  0  0  0
   27.3200   15.3002   19.9902 N   0  0  0  0  0  0  0  0  0  0  0  0
   33.1096   18.7637   22.8673 O   0  0  0  0  0  0  0  0  0  0  0  0
  2  1  1  1  0  0  0
  2  3  1  0  0  0  0
  2  5  1  0  0  0  0
  3  4  1  0  0  0  0
  3 10  1  0  0  0  0
  5  6  1  0  0  0  0
  6  7  1  0  0  0  0
  7  8  1  0  0  0  0
  8  9  1  0  0  0  0
M  END
>  <CHROM.1>
167.96970528,-159.62221174,-179.20440191,-168.74867575,65.94063430,30.72079039
16.92677134,21.57248741,-0.57096602,-0.20550764,-2.48922420

>  <Name>
ligand

>  <RI>
0

>  <Rbt.Current_Directory>
/home/itssahil/PROJECTS/Mol_Feturizer/New_Systems/rnas/3DIL

>  <Rbt.Executable>
rbdock ($Id: //depot/dev/client3/rdock/2013.1/src/exe/rbdock.cxx#4 $)

>  <Rbt.Library>
libRbt.so (2013.1, Build901 2013/11/27)

>  <Rbt.Parameter_File>
/export/apps/rDock/src/rDock_2013.1_src/data/scripts/dock_solv.prm

>  <Rbt.Receptor>
prm/pocket_docking_4.prm

>  <SCORE>
-8.14798

>  <SCORE.INTER>
-8.1445

>  <SCORE.INTER.CONST>
1

>  <SCORE.INTER.POLAR>
0

>  <SCORE.INTER.ROT>
5

>  <SCORE.INTER.SOLV>
14.6661

>  <SCORE.INTER.VDW>
-17.2517

>  <SCORE.INTER.norm>
-0.81445

>  <SCORE.INTRA>
-0.00347964

>  <SCORE.INTRA.DIHEDRAL>
0.632518

>  <SCORE.INTRA.DIHEDRAL.0>
2.93688

>  <SCORE.INTRA.POLAR>
0

>  <SCORE.INTRA.POLAR.0>
0

>  <SCORE.INTRA.REPUL>
0

>  <SCORE.INTRA.REPUL.0>
0

>  <SCORE.INTRA.SOLV>
-0.542802

>  <SCORE.INTRA.SOLV.lig_0>
-32.2816

>  <SCORE.INTRA.VDW>
-0.0483375

>  <SCORE.INTRA.VDW.0>
-0.749945

>  <SCORE.INTRA.norm>
-0.000347964

>  <SCORE.RESTR>
0

>  <SCORE.RESTR.CAVITY>
0

>  <SCORE.RESTR.norm>
0

>  <SCORE.SYSTEM>
0

>  <SCORE.SYSTEM.CONST>
0

>  <SCORE.SYSTEM.DIHEDRAL>
0

>  <SCORE.SYSTEM.SOLV>
0

>  <SCORE.SYSTEM.norm>
0

>  <SCORE.heavy>
10

>  <SCORE.norm>
-0.814798

>  <RMSD>
1.473

$$$$
ligand
 OpenBabel11021811473D
libRbt.so/2013.1/901 2013/11/27
 10  9  0  0  0  0  0  0  0  0999 V2000
   31.3465   15.9760   22.4104 N   0  0  0  0  0  0  0  0  0  0  0  0
   31.5632   16.3261   20.9748 C   0  0  2  0  0  0  0  0  0  0  0  0
   32.7946   17.2139   20.7980 C   0  0  0  0  0  0  0  0  0  0  0  0
   33.6592   16.9435   19.9662 O   0  0  0  0  0  0  0  0  0  0  0  0
   30.3081   16.9691   20.3729 C   0  0  0  0  0  0  0  0  0  0  0  0
   29.0919   16.0438   20.4007 C   0  0  0  0  0  0  0  0  0  0  0  0
   27.8952   16.6306   19.6647 C   0  0  0  0  0  0  0  0  0  0  0  0
   26.6782   15.7174   19.7749 C   0  0  0  0  0  0  0  0  0  0  0  0
   26.9030   14.3550   19.1797 N   0  0  0  0  0  0  0  0  0  0  0  0
   32.9642   18.2455   21.4545 O   0  0  0  0  0  0  0  0  0  0  0  0
  2  1  1  1  0  0  0
  2  3  1  0  0  0  0
  2  5  1  0  0  0  0
  3  4  1  0  0  0  0
  3 10  1  0  0  0  0
  5  6  1  0  0  0  0
  6  7  1  0  0  0  0
  7  8  1  0  0  0  0
  8  9  1  0  0  0  0
M  END
>  <CHROM.1>
129.98646092,-61.21828604,-173.66161850,-176.96648296,-60.79385337,30.36015182
16.46446445,20.49781940,0.13865426,0.35427252,1.82550460

>  <Name>
ligand

>  <RI>
0

>  <Rbt.Current_Directory>
/home/itssahil/PROJECTS/Mol_Feturizer/New_Systems/rnas/3DIL

>  <Rbt.Executable>
rbdock ($Id: //depot/dev/client3/rdock/2013.1/src/exe/rbdock.cxx#4 $)

>  <Rbt.Library>
libRbt.so (2013.1, Build901 2013/11/27)

>  <Rbt.Parameter_File>
/export/apps/rDock/src/rDock_2013.1_src/data/scripts/dock_solv.prm

>  <Rbt.Receptor>
prm/blind_docking_60.prm

>  <SCORE>
-6.61738

>  <SCORE.INTER>
-6.14346

>  <SCORE.INTER.CONST>
1

>  <SCORE.INTER.POLAR>
0

>  <SCORE.INTER.ROT>
5

>  <SCORE.INTER.SOLV>
17.2389

>  <SCORE.INTER.VDW>
-16.7753

>  <SCORE.INTER.norm>
-0.614346

>  <SCORE.INTRA>
-0.473928

>  <SCORE.INTRA.DIHEDRAL>
-1.23464

>  <SCORE.INTRA.DIHEDRAL.0>
2.93688

>  <SCORE.INTRA.POLAR>
0

>  <SCORE.INTRA.POLAR.0>
0

>  <SCORE.INTRA.REPUL>
0

>  <SCORE.INTRA.REPUL.0>
0

>  <SCORE.INTRA.SOLV>
0.269751

>  <SCORE.INTRA.SOLV.lig_0>
-32.2816

>  <SCORE.INTRA.VDW>
0.00851513

>  <SCORE.INTRA.VDW.0>
-0.749945

>  <SCORE.INTRA.norm>
-0.0473928

>  <SCORE.RESTR>
0

>  <SCORE.RESTR.CAVITY>
0

>  <SCORE.RESTR.norm>
0

>  <SCORE.SYSTEM>
0

>  <SCORE.SYSTEM.CONST>
0

>  <SCORE.SYSTEM.DIHEDRAL>
0

>  <SCORE.SYSTEM.SOLV>
0

>  <SCORE.SYSTEM.norm>
0

>  <SCORE.heavy>
10

>  <SCORE.norm>
-0.661738

>  <RMSD>
1.474

$$$$
ligand
 OpenBabel11021811473D
libRbt.so/2013.1/901 2013/11/27
 10  9  0  0  0  0  0  0  0  0999 V2000
   33.6207   17.0742   20.6813 N   0  0  0  0  0  0  0  0  0  0  0  0
   32.1988   17.4131   20.9881 C   0  0  2  0  0  0  0  0  0  0  0  0
   32.1044   18.5188   22.0390 C   0  0  0  0  0  0  0  0  0  0  0  0
   33.0595   18.7891   22.7650 O   0  0  0  0  0  0  0  0  0  0  0  0
   31.4164   16.1628   21.4069 C   0  0  0  0  0  0  0  0  0  0  0  0
   29.9019   16.3531   21.3298 C   0  0  0  0  0  0  0  0  0  0  0  0
   29.1351   15.1004   21.7310 C   0  0  0  0  0  0  0  0  0  0  0  0
   27.6481   15.2412   21.4209 C   0  0  0  0  0  0  0  0  0  0  0  0
   27.3587   15.3770   19.9516 N   0  0  0  0  0  0  0  0  0  0  0  0
   31.0871   19.2020   22.1886 O   0  0  0  0  0  0  0  0  0  0  0  0
  2  1  1  1  0  0  0
  2  3  1  0  0  0  0
  2  5  1  0  0  0  0
  3  4  1  0  0  0  0
  3 10  1  0  0  0  0
  5  6  1  0  0  0  0
  6  7  1  0  0  0  0
  7  8  1  0  0  0  0
  8  9  1  0  0  0  0
M  END
>  <CHROM.1>
-18.38488688,-162.88585494,179.28507511,-170.40488058,63.86304695,30.76042701
16.95501394,21.47411682,-0.58293484,-0.12789414,-2.63570520

>  <Name>
ligand

>  <RI>
0

>  <Rbt.Current_Directory>
/home/itssahil/PROJECTS/Mol_Feturizer/New_Systems/rnas/3DIL

>  <Rbt.Executable>
rbdock ($Id: //depot/dev/client3/rdock/2013.1/src/exe/rbdock.cxx#4 $)

>  <Rbt.Library>
libRbt.so (2013.1, Build901 2013/11/27)

>  <Rbt.Parameter_File>
/export/apps/rDock/src/rDock_2013.1_src/data/scripts/dock_solv.prm

>  <Rbt.Receptor>
prm/pocket_docking_3.prm

>  <SCORE>
-8.04569

>  <SCORE.INTER>
-7.77821

>  <SCORE.INTER.CONST>
1

>  <SCORE.INTER.POLAR>
0

>  <SCORE.INTER.ROT>
5

>  <SCORE.INTER.SOLV>
14.6684

>  <SCORE.INTER.VDW>
-17.0083

>  <SCORE.INTER.norm>
-0.777821

>  <SCORE.INTRA>
-0.267485

>  <SCORE.INTRA.DIHEDRAL>
0.0973935

>  <SCORE.INTRA.DIHEDRAL.0>
2.93688

>  <SCORE.INTRA.POLAR>
0

>  <SCORE.INTRA.POLAR.0>
0

>  <SCORE.INTRA.REPUL>
0

>  <SCORE.INTRA.REPUL.0>
0

>  <SCORE.INTRA.SOLV>
-0.523743

>  <SCORE.INTRA.SOLV.lig_0>
-32.2816

>  <SCORE.INTRA.VDW>
-0.0543105

>  <SCORE.INTRA.VDW.0>
-0.749945

>  <SCORE.INTRA.norm>
-0.0267485

>  <SCORE.RESTR>
0

>  <SCORE.RESTR.CAVITY>
0

>  <SCORE.RESTR.norm>
0

>  <SCORE.SYSTEM>
0

>  <SCORE.SYSTEM.CONST>
0

>  <SCORE.SYSTEM.DIHEDRAL>
0

>  <SCORE.SYSTEM.SOLV>
0

>  <SCORE.SYSTEM.norm>
0

>  <SCORE.heavy>
10

>  <SCORE.norm>
-0.804569

>  <RMSD>
1.478

$$$$
ligand
 OpenBabel11021811473D
libRbt.so/2013.1/901 2013/11/27
 10  9  0  0  0  0  0  0  0  0999 V2000
   31.1000   15.6848   20.0951 N   0  0  0  0  0  0  0  0  0  0  0  0
   30.3737   16.5882   21.0369 C   0  0  2  0  0  0  0  0  0  0  0  0
   31.3143   17.6246   21.6510 C   0  0  0  0  0  0  0  0  0  0  0  0
   30.9073   18.7382   21.9773 O   0  0  0  0  0  0  0  0  0  0  0  0
   29.6384   15.7802   22.1126 C   0  0  0  0  0  0  0  0  0  0  0  0
   28.6324   14.7880   21.5300 C   0  0  0  0  0  0  0  0  0  0  0  0
   27.3304   15.4561   21.1095 C   0  0  0  0  0  0  0  0  0  0  0  0
   27.4982   16.2122   19.7952 C   0  0  0  0  0  0  0  0  0  0  0  0
   27.8129   15.3149   18.6304 N   0  0  0  0  0  0  0  0  0  0  0  0
   32.5056   17.3865   21.8704 O   0  0  0  0  0  0  0  0  0  0  0  0
  2  1  1  1  0  0  0
  2  3  1  0  0  0  0
  2  5  1  0  0  0  0
  3  4  1  0  0  0  0
  3 10  1  0  0  0  0
  5  6  1  0  0  0  0
  6  7  1  0  0  0  0
  7  8  1  0  0  0  0
  8  9  1  0  0  0  0
M  END
>  <CHROM.1>
149.62111298,-58.27271894,-78.84270446,76.27628603,64.45636019,29.73953394
16.38553467,20.99769011,-0.50099356,-0.39143532,-1.88291861

>  <Name>
ligand

>  <RI>
0

>  <Rbt.Current_Directory>
/home/itssahil/PROJECTS/Mol_Feturizer/New_Systems/rnas/3DIL

>  <Rbt.Executable>
rbdock ($Id: //depot/dev/client3/rdock/2013.1/src/exe/rbdock.cxx#4 $)

>  <Rbt.Library>
libRbt.so (2013.1, Build901 2013/11/27)

>  <Rbt.Parameter_File>
/export/apps/rDock/src/rDock_2013.1_src/data/scripts/dock_solv.prm

>  <Rbt.Receptor>
prm/blind_docking_60.prm

>  <SCORE>
-6.48365

>  <SCORE.INTER>
-9.0833

>  <SCORE.INTER.CONST>
1

>  <SCORE.INTER.POLAR>
0

>  <SCORE.INTER.ROT>
5

>  <SCORE.INTER.SOLV>
12.3934

>  <SCORE.INTER.VDW>
-17.12

>  <SCORE.INTER.norm>
-0.90833

>  <SCORE.INTRA>
2.59964

>  <SCORE.INTRA.DIHEDRAL>
1.01826

>  <SCORE.INTRA.DIHEDRAL.0>
2.93688

>  <SCORE.INTRA.POLAR>
0

>  <SCORE.INTRA.POLAR.0>
0

>  <SCORE.INTRA.REPUL>
0

>  <SCORE.INTRA.REPUL.0>
0

>  <SCORE.INTRA.SOLV>
3.52139

>  <SCORE.INTRA.SOLV.lig_0>
-32.2816

>  <SCORE.INTRA.VDW>
0.329818

>  <SCORE.INTRA.VDW.0>
-0.749945

>  <SCORE.INTRA.norm>
0.259964

>  <SCORE.RESTR>
0

>  <SCORE.RESTR.CAVITY>
0

>  <SCORE.RESTR.norm>
0

>  <SCORE.SYSTEM>
0

>  <SCORE.SYSTEM.CONST>
0

>  <SCORE.SYSTEM.DIHEDRAL>
0

>  <SCORE.SYSTEM.SOLV>
0

>  <SCORE.SYSTEM.norm>
0

>  <SCORE.heavy>
10

>  <SCORE.norm>
-0.648365

>  <RMSD>
1.506

$$$$
ligand
 OpenBabel11021811473D
libRbt.so/2013.1/901 2013/11/27
 10  9  0  0  0  0  0  0  0  0999 V2000
   30.7093   15.0827   21.4051 N   0  0  0  0  0  0  0  0  0  0  0  0
   31.0131   16.0703   20.3266 C   0  0  2  0  0  0  0  0  0  0  0  0
   32.4572   16.5632   20.4138 C   0  0  0  0  0  0  0  0  0  0  0  0
   33.2112   16.4968   19.4445 O   0  0  0  0  0  0  0  0  0  0  0  0
   30.0136   17.2327   20.3517 C   0  0  0  0  0  0  0  0  0  0  0  0
   28.6392   16.8496   19.8038 C   0  0  0  0  0  0  0  0  0  0  0  0
   27.9180   15.8424   20.6890 C   0  0  0  0  0  0  0  0  0  0  0  0
   26.6840   15.2791   19.9910 C   0  0  0  0  0  0  0  0  0  0  0  0
   27.0023   14.5702   18.7037 N   0  0  0  0  0  0  0  0  0  0  0  0
   32.9210   17.0692   21.4398 O   0  0  0  0  0  0  0  0  0  0  0  0
  2  1  1  1  0  0  0
  2  3  1  0  0  0  0
  2  5  1  0  0  0  0
  3  4  1  0  0  0  0
  3 10  1  0  0  0  0
  5  6  1  0  0  0  0
  6  7  1  0  0  0  0
  7  8  1  0  0  0  0
  8  9  1  0  0  0  0
M  END
>  <CHROM.1>
126.11259565,-74.55199853,66.95836546,-169.02910951,59.97342212,30.10025781
16.11864773,20.25939790,0.21587242,0.17272733,1.23892289

>  <Name>
ligand

>  <RI>
0

>  <Rbt.Current_Directory>
/home/itssahil/PROJECTS/Mol_Feturizer/New_Systems/rnas/3DIL

>  <Rbt.Executable>
rbdock ($Id: //depot/dev/client3/rdock/2013.1/src/exe/rbdock.cxx#4 $)

>  <Rbt.Library>
libRbt.so (2013.1, Build901 2013/11/27)

>  <Rbt.Parameter_File>
/export/apps/rDock/src/rDock_2013.1_src/data/scripts/dock_solv.prm

>  <Rbt.Receptor>
prm/blind_docking_100.prm

>  <SCORE>
-6.86718

>  <SCORE.INTER>
-7.9869

>  <SCORE.INTER.CONST>
1

>  <SCORE.INTER.POLAR>
0

>  <SCORE.INTER.ROT>
5

>  <SCORE.INTER.SOLV>
16.3661

>  <SCORE.INTER.VDW>
-17.7133

>  <SCORE.INTER.norm>
-0.79869

>  <SCORE.INTRA>
1.11972

>  <SCORE.INTRA.DIHEDRAL>
0.0765211

>  <SCORE.INTRA.DIHEDRAL.0>
2.93688

>  <SCORE.INTRA.POLAR>
0

>  <SCORE.INTRA.POLAR.0>
0

>  <SCORE.INTRA.REPUL>
0

>  <SCORE.INTRA.REPUL.0>
0

>  <SCORE.INTRA.SOLV>
1.69393

>  <SCORE.INTRA.SOLV.lig_0>
-32.2816

>  <SCORE.INTRA.VDW>
0.234493

>  <SCORE.INTRA.VDW.0>
-0.749945

>  <SCORE.INTRA.norm>
0.111972

>  <SCORE.RESTR>
0

>  <SCORE.RESTR.CAVITY>
0

>  <SCORE.RESTR.norm>
0

>  <SCORE.SYSTEM>
0

>  <SCORE.SYSTEM.CONST>
0

>  <SCORE.SYSTEM.DIHEDRAL>
0

>  <SCORE.SYSTEM.SOLV>
0

>  <SCORE.SYSTEM.norm>
0

>  <SCORE.heavy>
10

>  <SCORE.norm>
-0.686718

>  <RMSD>
1.549

$$$$
ligand
 OpenBabel11021811473D
libRbt.so/2013.1/901 2013/11/27
 10  9  0  0  0  0  0  0  0  0999 V2000
   30.9826   16.1272   22.5684 N   0  0  0  0  0  0  0  0  0  0  0  0
   31.5592   16.6211   21.2823 C   0  0  2  0  0  0  0  0  0  0  0  0
   32.5461   17.7642   21.5173 C   0  0  0  0  0  0  0  0  0  0  0  0
   33.6707   17.7455   21.0200 O   0  0  0  0  0  0  0  0  0  0  0  0
   30.4493   17.0209   20.3029 C   0  0  0  0  0  0  0  0  0  0  0  0
   29.5025   15.8680   19.9712 C   0  0  0  0  0  0  0  0  0  0  0  0
   28.4004   16.2777   19.0038 C   0  0  0  0  0  0  0  0  0  0  0  0
   27.4476   15.1181   18.7305 C   0  0  0  0  0  0  0  0  0  0  0  0
   26.7283   14.6386   19.9608 N   0  0  0  0  0  0  0  0  0  0  0  0
   32.2554   18.7600   22.1865 O   0  0  0  0  0  0  0  0  0  0  0  0
  2  1  1  1  0  0  0
  2  3  1  0  0  0  0
  2  5  1  0  0  0  0
  3  4  1  0  0  0  0
  3 10  1  0  0  0  0
  5  6  1  0  0  0  0
  6  7  1  0  0  0  0
  7  8  1  0  0  0  0
  8  9  1  0  0  0  0
M  END
>  <CHROM.1>
129.58109896,-59.14417755,179.70523576,-178.11493695,62.01340913,30.38764789
16.62394050,20.66390878,0.24863078,0.54992856,1.84641675

>  <Name>
ligand

>  <RI>
0

>  <Rbt.Current_Directory>
/home/itssahil/PROJECTS/Mol_Feturizer/New_Systems/rnas/3DIL

>  <Rbt.Executable>
rbdock ($Id: //depot/dev/client3/rdock/2013.1/src/exe/rbdock.cxx#4 $)

>  <Rbt.Library>
libRbt.so (2013.1, Build901 2013/11/27)

>  <Rbt.Parameter_File>
/export/apps/rDock/src/rDock_2013.1_src/data/scripts/dock_solv.prm

>  <Rbt.Receptor>
prm/pocket_docking_2.prm

>  <SCORE>
-5.92701

>  <SCORE.INTER>
-5.4015

>  <SCORE.INTER.CONST>
1

>  <SCORE.INTER.POLAR>
0

>  <SCORE.INTER.ROT>
5

>  <SCORE.INTER.SOLV>
16.3374

>  <SCORE.INTER.VDW>
-15.9801

>  <SCORE.INTER.norm>
-0.54015

>  <SCORE.INTRA>
-0.525514

>  <SCORE.INTRA.DIHEDRAL>
-1.41881

>  <SCORE.INTRA.DIHEDRAL.0>
2.93688

>  <SCORE.INTRA.POLAR>
0

>  <SCORE.INTRA.POLAR.0>
0

>  <SCORE.INTRA.REPUL>
0

>  <SCORE.INTRA.REPUL.0>
0

>  <SCORE.INTRA.SOLV>
0.333083

>  <SCORE.INTRA.SOLV.lig_0>
-32.2816

>  <SCORE.INTRA.VDW>
0.0173489

>  <SCORE.INTRA.VDW.0>
-0.749945

>  <SCORE.INTRA.norm>
-0.0525514

>  <SCORE.RESTR>
0

>  <SCORE.RESTR.CAVITY>
0

>  <SCORE.RESTR.norm>
0

>  <SCORE.SYSTEM>
0

>  <SCORE.SYSTEM.CONST>
0

>  <SCORE.SYSTEM.DIHEDRAL>
0

>  <SCORE.SYSTEM.SOLV>
0

>  <SCORE.SYSTEM.norm>
0

>  <SCORE.heavy>
10

>  <SCORE.norm>
-0.592701

>  <RMSD>
1.604

$$$$
ligand
 OpenBabel11021811473D
libRbt.so/2013.1/901 2013/11/27
 10  9  0  0  0  0  0  0  0  0999 V2000
   31.4477   17.6647   22.3739 N   0  0  0  0  0  0  0  0  0  0  0  0
   31.7459   16.8131   21.1837 C   0  0  2  0  0  0  0  0  0  0  0  0
   33.1559   17.0715   20.6535 C   0  0  0  0  0  0  0  0  0  0  0  0
   33.8237   18.0209   21.0596 O   0  0  0  0  0  0  0  0  0  0  0  0
   30.6849   17.0052   20.0937 C   0  0  0  0  0  0  0  0  0  0  0  0
   29.3097   16.4764   20.5000 C   0  0  0  0  0  0  0  0  0  0  0  0
   28.2596   16.6894   19.4182 C   0  0  0  0  0  0  0  0  0  0  0  0
   26.9423   16.0149   19.7882 C   0  0  0  0  0  0  0  0  0  0  0  0
   27.0566   14.5213   19.9186 N   0  0  0  0  0  0  0  0  0  0  0  0
   33.6942   16.3336   19.8230 O   0  0  0  0  0  0  0  0  0  0  0  0
  2  1  1  1  0  0  0
  2  3  1  0  0  0  0
  2  5  1  0  0  0  0
  3  4  1  0  0  0  0
  3 10  1  0  0  0  0
  5  6  1  0  0  0  0
  6  7  1  0  0  0  0
  7  8  1  0  0  0  0
  8  9  1  0  0  0  0
M  END
>  <CHROM.1>
-10.73893306,-67.18219498,179.21531448,173.65467624,-62.49918656,30.65597486
16.66874006,20.47246850,0.29411182,0.11098837,0.91250565

>  <Name>
ligand

>  <RI>
0

>  <Rbt.Current_Directory>
/home/itssahil/PROJECTS/Mol_Feturizer/New_Systems/rnas/3DIL

>  <Rbt.Executable>
rbdock ($Id: //depot/dev/client3/rdock/2013.1/src/exe/rbdock.cxx#4 $)

>  <Rbt.Library>
libRbt.so (2013.1, Build901 2013/11/27)

>  <Rbt.Parameter_File>
/export/apps/rDock/src/rDock_2013.1_src/data/scripts/dock_solv.prm

>  <Rbt.Receptor>
prm/pocket_docking_3.prm

>  <SCORE>
-7.28318

>  <SCORE.INTER>
-6.99051

>  <SCORE.INTER.CONST>
1

>  <SCORE.INTER.POLAR>
0

>  <SCORE.INTER.ROT>
5

>  <SCORE.INTER.SOLV>
13.8401

>  <SCORE.INTER.VDW>
-16.207

>  <SCORE.INTER.norm>
-0.699051

>  <SCORE.INTRA>
-0.292671

>  <SCORE.INTRA.DIHEDRAL>
-0.984492

>  <SCORE.INTRA.DIHEDRAL.0>
2.93688

>  <SCORE.INTRA.POLAR>
0

>  <SCORE.INTRA.POLAR.0>
0

>  <SCORE.INTRA.REPUL>
0

>  <SCORE.INTRA.REPUL.0>
0

>  <SCORE.INTRA.SOLV>
0.276524

>  <SCORE.INTRA.SOLV.lig_0>
-32.2816

>  <SCORE.INTRA.VDW>
0.0613128

>  <SCORE.INTRA.VDW.0>
-0.749945

>  <SCORE.INTRA.norm>
-0.0292671

>  <SCORE.RESTR>
0

>  <SCORE.RESTR.CAVITY>
0

>  <SCORE.RESTR.norm>
0

>  <SCORE.SYSTEM>
0

>  <SCORE.SYSTEM.CONST>
0

>  <SCORE.SYSTEM.DIHEDRAL>
0

>  <SCORE.SYSTEM.SOLV>
0

>  <SCORE.SYSTEM.norm>
0

>  <SCORE.heavy>
10

>  <SCORE.norm>
-0.728318

>  <RMSD>
1.713

$$$$
ligand
 OpenBabel11021811473D
libRbt.so/2013.1/901 2013/11/27
 10  9  0  0  0  0  0  0  0  0999 V2000
   31.4139   17.4830   22.3849 N   0  0  0  0  0  0  0  0  0  0  0  0
   31.6661   16.7089   21.1328 C   0  0  2  0  0  0  0  0  0  0  0  0
   33.0633   16.9861   20.5788 C   0  0  0  0  0  0  0  0  0  0  0  0
   33.5224   16.3226   19.6507 O   0  0  0  0  0  0  0  0  0  0  0  0
   30.5764   16.9850   20.0900 C   0  0  0  0  0  0  0  0  0  0  0  0
   29.2136   16.4185   20.4871 C   0  0  0  0  0  0  0  0  0  0  0  0
   28.1418   16.6885   19.4399 C   0  0  0  0  0  0  0  0  0  0  0  0
   26.8336   15.9898   19.7970 C   0  0  0  0  0  0  0  0  0  0  0  0
   26.9450   14.4903   19.8056 N   0  0  0  0  0  0  0  0  0  0  0  0
   33.7772   17.8948   21.0133 O   0  0  0  0  0  0  0  0  0  0  0  0
  2  1  1  1  0  0  0
  2  3  1  0  0  0  0
  2  5  1  0  0  0  0
  3  4  1  0  0  0  0
  3 10  1  0  0  0  0
  5  6  1  0  0  0  0
  6  7  1  0  0  0  0
  7  8  1  0  0  0  0
  8  9  1  0  0  0  0
M  END
>  <CHROM.1>
170.85464288,-68.47392549,-179.54415505,174.16940674,-64.00258171,30.55874238
16.60486950,20.42787337,0.27375740,0.12970160,0.99428209

>  <Name>
ligand

>  <RI>
0

>  <Rbt.Current_Directory>
/home/itssahil/PROJECTS/Mol_Feturizer/New_Systems/rnas/3DIL

>  <Rbt.Executable>
rbdock ($Id: //depot/dev/client3/rdock/2013.1/src/exe/rbdock.cxx#4 $)

>  <Rbt.Library>
libRbt.so (2013.1, Build901 2013/11/27)

>  <Rbt.Parameter_File>
/export/apps/rDock/src/rDock_2013.1_src/data/scripts/dock_solv.prm

>  <Rbt.Receptor>
prm/pocket_docking_6.prm

>  <SCORE>
-7.31958

>  <SCORE.INTER>
-7.00012

>  <SCORE.INTER.CONST>
1

>  <SCORE.INTER.POLAR>
0

>  <SCORE.INTER.ROT>
5

>  <SCORE.INTER.SOLV>
14.0484

>  <SCORE.INTER.VDW>
-16.2829

>  <SCORE.INTER.norm>
-0.700012

>  <SCORE.INTRA>
-0.319461

>  <SCORE.INTRA.DIHEDRAL>
-0.956364

>  <SCORE.INTRA.DIHEDRAL.0>
2.93688

>  <SCORE.INTRA.POLAR>
0

>  <SCORE.INTRA.POLAR.0>
0

>  <SCORE.INTRA.REPUL>
0

>  <SCORE.INTRA.REPUL.0>
0

>  <SCORE.INTRA.SOLV>
0.219406

>  <SCORE.INTRA.SOLV.lig_0>
-32.2816

>  <SCORE.INTRA.VDW>
0.0490185

>  <SCORE.INTRA.VDW.0>
-0.749945

>  <SCORE.INTRA.norm>
-0.0319461

>  <SCORE.RESTR>
0

>  <SCORE.RESTR.CAVITY>
0

>  <SCORE.RESTR.norm>
0

>  <SCORE.SYSTEM>
0

>  <SCORE.SYSTEM.CONST>
0

>  <SCORE.SYSTEM.DIHEDRAL>
0

>  <SCORE.SYSTEM.SOLV>
0

>  <SCORE.SYSTEM.norm>
0

>  <SCORE.heavy>
10

>  <SCORE.norm>
-0.731958

>  <RMSD>
1.721

$$$$
ligand
 OpenBabel11021811473D
libRbt.so/2013.1/901 2013/11/27
 10  9  0  0  0  0  0  0  0  0999 V2000
   31.5897   17.6133   22.2875 N   0  0  0  0  0  0  0  0  0  0  0  0
   31.8156   16.5734   21.2396 C   0  0  2  0  0  0  0  0  0  0  0  0
   33.0419   16.8989   20.3874 C   0  0  0  0  0  0  0  0  0  0  0  0
   33.3376   16.2127   19.4106 O   0  0  0  0  0  0  0  0  0  0  0  0
   30.5608   16.3817   20.3796 C   0  0  0  0  0  0  0  0  0  0  0  0
   29.3668   15.8553   21.1754 C   0  0  0  0  0  0  0  0  0  0  0  0
   28.1030   15.7530   20.3325 C   0  0  0  0  0  0  0  0  0  0  0  0
   26.9452   15.1778   21.1424 C   0  0  0  0  0  0  0  0  0  0  0  0
   25.6510   15.1336   20.3782 N   0  0  0  0  0  0  0  0  0  0  0  0
   33.7688   17.8692   20.6204 O   0  0  0  0  0  0  0  0  0  0  0  0
  2  1  1  1  0  0  0
  2  3  1  0  0  0  0
  2  5  1  0  0  0  0
  3  4  1  0  0  0  0
  3 10  1  0  0  0  0
  5  6  1  0  0  0  0
  6  7  1  0  0  0  0
  7  8  1  0  0  0  0
  8  9  1  0  0  0  0
M  END
>  <CHROM.1>
-174.74837049,-63.55530168,176.33888652,177.94663304,176.52362612,30.45873468
16.35678608,20.71643922,0.11297838,0.25457069,1.05551139

>  <Name>
ligand

>  <RI>
0

>  <Rbt.Current_Directory>
/home/itssahil/PROJECTS/Mol_Feturizer/New_Systems/rnas/3DIL

>  <Rbt.Executable>
rbdock ($Id: //depot/dev/client3/rdock/2013.1/src/exe/rbdock.cxx#4 $)

>  <Rbt.Library>
libRbt.so (2013.1, Build901 2013/11/27)

>  <Rbt.Parameter_File>
/export/apps/rDock/src/rDock_2013.1_src/data/scripts/dock_solv.prm

>  <Rbt.Receptor>
prm/pocket_docking_6.prm

>  <SCORE>
-7.94503

>  <SCORE.INTER>
-7.17348

>  <SCORE.INTER.CONST>
1

>  <SCORE.INTER.POLAR>
0

>  <SCORE.INTER.ROT>
5

>  <SCORE.INTER.SOLV>
17.79

>  <SCORE.INTER.VDW>
-17.6456

>  <SCORE.INTER.norm>
-0.717348

>  <SCORE.INTRA>
-0.771551

>  <SCORE.INTRA.DIHEDRAL>
-1.24003

>  <SCORE.INTRA.DIHEDRAL.0>
2.93688

>  <SCORE.INTRA.POLAR>
0

>  <SCORE.INTRA.POLAR.0>
0

>  <SCORE.INTRA.REPUL>
0

>  <SCORE.INTRA.REPUL.0>
0

>  <SCORE.INTRA.SOLV>
-0.609495

>  <SCORE.INTRA.SOLV.lig_0>
-32.2816

>  <SCORE.INTRA.VDW>
0.153213

>  <SCORE.INTRA.VDW.0>
-0.749945

>  <SCORE.INTRA.norm>
-0.0771551

>  <SCORE.RESTR>
0

>  <SCORE.RESTR.CAVITY>
0

>  <SCORE.RESTR.norm>
0

>  <SCORE.SYSTEM>
0

>  <SCORE.SYSTEM.CONST>
0

>  <SCORE.SYSTEM.DIHEDRAL>
0

>  <SCORE.SYSTEM.SOLV>
0

>  <SCORE.SYSTEM.norm>
0

>  <SCORE.heavy>
10

>  <SCORE.norm>
-0.794503

>  <RMSD>
1.761

$$$$
ligand
 OpenBabel11021811473D
libRbt.so/2013.1/901 2013/11/27
 10  9  0  0  0  0  0  0  0  0999 V2000
   33.7979   17.2421   21.1694 N   0  0  0  0  0  0  0  0  0  0  0  0
   32.3272   17.5008   21.2007 C   0  0  2  0  0  0  0  0  0  0  0  0
   31.9909   18.6947   22.0938 C   0  0  0  0  0  0  0  0  0  0  0  0
   30.9121   19.2771   21.9968 O   0  0  0  0  0  0  0  0  0  0  0  0
   31.5591   16.2423   21.6214 C   0  0  0  0  0  0  0  0  0  0  0  0
   30.1286   16.2091   21.0844 C   0  0  0  0  0  0  0  0  0  0  0  0
   29.3283   15.0334   21.6280 C   0  0  0  0  0  0  0  0  0  0  0  0
   28.0789   14.7821   20.7896 C   0  0  0  0  0  0  0  0  0  0  0  0
   27.1469   15.9614   20.7456 N   0  0  0  0  0  0  0  0  0  0  0  0
   32.7652   19.1085   22.9616 O   0  0  0  0  0  0  0  0  0  0  0  0
  2  1  1  1  0  0  0
  2  3  1  0  0  0  0
  2  5  1  0  0  0  0
  3  4  1  0  0  0  0
  3 10  1  0  0  0  0
  5  6  1  0  0  0  0
  6  7  1  0  0  0  0
  7  8  1  0  0  0  0
  8  9  1  0  0  0  0
M  END
>  <CHROM.1>
161.45974290,-153.72559006,-173.85951948,-163.27649868,-59.65626685,30.80470985
17.03874936,21.55012701,-0.63943060,0.01612317,-2.82903773

>  <Name>
ligand

>  <RI>
0

>  <Rbt.Current_Directory>
/home/itssahil/PROJECTS/Mol_Feturizer/New_Systems/rnas/3DIL

>  <Rbt.Executable>
rbdock ($Id: //depot/dev/client3/rdock/2013.1/src/exe/rbdock.cxx#4 $)

>  <Rbt.Library>
libRbt.so (2013.1, Build901 2013/11/27)

>  <Rbt.Parameter_File>
/export/apps/rDock/src/rDock_2013.1_src/data/scripts/dock_solv.prm

>  <Rbt.Receptor>
prm/pocket_docking_7.prm

>  <SCORE>
-4.83522

>  <SCORE.INTER>
-5.47342

>  <SCORE.INTER.CONST>
1

>  <SCORE.INTER.POLAR>
0

>  <SCORE.INTER.ROT>
5

>  <SCORE.INTER.SOLV>
17.8171

>  <SCORE.INTER.VDW>
-16.5213

>  <SCORE.INTER.norm>
-0.547342

>  <SCORE.INTRA>
0.638194

>  <SCORE.INTRA.DIHEDRAL>
2.0519

>  <SCORE.INTRA.DIHEDRAL.0>
2.93688

>  <SCORE.INTRA.POLAR>
0

>  <SCORE.INTRA.POLAR.0>
0

>  <SCORE.INTRA.REPUL>
0

>  <SCORE.INTRA.REPUL.0>
0

>  <SCORE.INTRA.SOLV>
-0.568678

>  <SCORE.INTRA.SOLV.lig_0>
-32.2816

>  <SCORE.INTRA.VDW>
-0.103417

>  <SCORE.INTRA.VDW.0>
-0.749945

>  <SCORE.INTRA.norm>
0.0638194

>  <SCORE.RESTR>
0

>  <SCORE.RESTR.CAVITY>
0

>  <SCORE.RESTR.norm>
0

>  <SCORE.SYSTEM>
0

>  <SCORE.SYSTEM.CONST>
0

>  <SCORE.SYSTEM.DIHEDRAL>
0

>  <SCORE.SYSTEM.SOLV>
0

>  <SCORE.SYSTEM.norm>
0

>  <SCORE.heavy>
10

>  <SCORE.norm>
-0.483522

>  <RMSD>
1.799

$$$$
ligand
 OpenBabel11021811473D
libRbt.so/2013.1/901 2013/11/27
 10  9  0  0  0  0  0  0  0  0999 V2000
   31.6690   17.9531   22.2258 N   0  0  0  0  0  0  0  0  0  0  0  0
   31.9391   16.5763   21.7136 C   0  0  2  0  0  0  0  0  0  0  0  0
   32.5148   16.6118   20.2983 C   0  0  0  0  0  0  0  0  0  0  0  0
   31.9276   17.1931   19.3875 O   0  0  0  0  0  0  0  0  0  0  0  0
   30.6792   15.7061   21.7929 C   0  0  0  0  0  0  0  0  0  0  0  0
   29.5322   16.2373   20.9338 C   0  0  0  0  0  0  0  0  0  0  0  0
   28.2765   15.3833   21.0441 C   0  0  0  0  0  0  0  0  0  0  0  0
   27.1774   15.8970   20.1193 C   0  0  0  0  0  0  0  0  0  0  0  0
   25.8751   15.1629   20.2807 N   0  0  0  0  0  0  0  0  0  0  0  0
   33.5956   16.0884   20.0121 O   0  0  0  0  0  0  0  0  0  0  0  0
  2  1  1  6  0  0  0
  2  3  1  0  0  0  0
  2  5  1  0  0  0  0
  3  4  1  0  0  0  0
  3 10  1  0  0  0  0
  5  6  1  0  0  0  0
  6  7  1  0  0  0  0
  7  8  1  0  0  0  0
  8  9  1  0  0  0  0
M  END
>  <CHROM.1>
-55.06956623,62.08367445,-178.72081972,-176.96928766,-174.84197853,30.34446536
16.28406779,20.75068986,0.07444685,0.20828730,1.33414263

>  <Name>
ligand

>  <RI>
0

>  <Rbt.Current_Directory>
/home/itssahil/PROJECTS/Mol_Feturizer/New_Systems/rnas/3DIL

>  <Rbt.Executable>
rbdock ($Id: //depot/dev/client3/rdock/2013.1/src/exe/rbdock.cxx#4 $)

>  <Rbt.Library>
libRbt.so (2013.1, Build901 2013/11/27)

>  <Rbt.Parameter_File>
/export/apps/rDock/src/rDock_2013.1_src/data/scripts/dock_solv.prm

>  <Rbt.Receptor>
prm/pocket_docking_5.prm

>  <SCORE>
-7.11959

>  <SCORE.INTER>
-6.29258

>  <SCORE.INTER.CONST>
1

>  <SCORE.INTER.POLAR>
0

>  <SCORE.INTER.ROT>
5

>  <SCORE.INTER.SOLV>
17.7435

>  <SCORE.INTER.VDW>
-17.0429

>  <SCORE.INTER.norm>
-0.629258

>  <SCORE.INTRA>
-0.82701

>  <SCORE.INTRA.DIHEDRAL>
-1.26087

>  <SCORE.INTRA.DIHEDRAL.0>
2.93688

>  <SCORE.INTRA.POLAR>
0

>  <SCORE.INTRA.POLAR.0>
0

>  <SCORE.INTRA.REPUL>
0

>  <SCORE.INTRA.REPUL.0>
0

>  <SCORE.INTRA.SOLV>
-0.617346

>  <SCORE.INTRA.SOLV.lig_0>
-32.2816

>  <SCORE.INTRA.VDW>
0.112098

>  <SCORE.INTRA.VDW.0>
-0.749945

>  <SCORE.INTRA.norm>
-0.082701

>  <SCORE.RESTR>
0

>  <SCORE.RESTR.CAVITY>
0

>  <SCORE.RESTR.norm>
0

>  <SCORE.SYSTEM>
0

>  <SCORE.SYSTEM.CONST>
0

>  <SCORE.SYSTEM.DIHEDRAL>
0

>  <SCORE.SYSTEM.SOLV>
0

>  <SCORE.SYSTEM.norm>
0

>  <SCORE.heavy>
10

>  <SCORE.norm>
-0.711959

>  <RMSD>
1.861

$$$$
ligand
 OpenBabel11021811473D
libRbt.so/2013.1/901 2013/11/27
 10  9  0  0  0  0  0  0  0  0999 V2000
   31.7126   18.0445   22.2716 N   0  0  0  0  0  0  0  0  0  0  0  0
   31.9864   16.6576   21.7897 C   0  0  2  0  0  0  0  0  0  0  0  0
   32.5323   16.6619   20.3621 C   0  0  0  0  0  0  0  0  0  0  0  0
   33.6496   16.2155   20.1074 O   0  0  0  0  0  0  0  0  0  0  0  0
   30.7375   15.7773   21.9178 C   0  0  0  0  0  0  0  0  0  0  0  0
   29.5516   16.3031   21.1098 C   0  0  0  0  0  0  0  0  0  0  0  0
   28.3246   15.4090   21.2249 C   0  0  0  0  0  0  0  0  0  0  0  0
   27.2081   15.8831   20.2998 C   0  0  0  0  0  0  0  0  0  0  0  0
   25.9509   15.0671   20.4206 N   0  0  0  0  0  0  0  0  0  0  0  0
   31.8755   17.0835   19.4056 O   0  0  0  0  0  0  0  0  0  0  0  0
  2  1  1  6  0  0  0
  2  3  1  0  0  0  0
  2  5  1  0  0  0  0
  3  4  1  0  0  0  0
  3 10  1  0  0  0  0
  5  6  1  0  0  0  0
  6  7  1  0  0  0  0
  7  8  1  0  0  0  0
  8  9  1  0  0  0  0
M  END
>  <CHROM.1>
118.64200420,59.96858902,179.01314509,-174.29533512,-177.49399390,30.37789038
16.31216802,20.86021368,0.07003726,0.22571427,1.30713224

>  <Name>
ligand

>  <RI>
0

>  <Rbt.Current_Directory>
/home/itssahil/PROJECTS/Mol_Feturizer/New_Systems/rnas/3DIL

>  <Rbt.Executable>
rbdock ($Id: //depot/dev/client3/rdock/2013.1/src/exe/rbdock.cxx#4 $)

>  <Rbt.Library>
libRbt.so (2013.1, Build901 2013/11/27)

>  <Rbt.Parameter_File>
/export/apps/rDock/src/rDock_2013.1_src/data/scripts/dock_solv.prm

>  <Rbt.Receptor>
prm/blind_docking_80.prm

>  <SCORE>
-6.83051

>  <SCORE.INTER>
-6.03499

>  <SCORE.INTER.CONST>
1

>  <SCORE.INTER.POLAR>
0

>  <SCORE.INTER.ROT>
5

>  <SCORE.INTER.SOLV>
18.1063

>  <SCORE.INTER.VDW>
-16.9921

>  <SCORE.INTER.norm>
-0.603499

>  <SCORE.INTRA>
-0.795522

>  <SCORE.INTRA.DIHEDRAL>
-1.25643

>  <SCORE.INTRA.DIHEDRAL.0>
2.93688

>  <SCORE.INTRA.POLAR>
0

>  <SCORE.INTRA.POLAR.0>
0

>  <SCORE.INTRA.REPUL>
0

>  <SCORE.INTRA.REPUL.0>
0

>  <SCORE.INTRA.SOLV>
-0.619716

>  <SCORE.INTRA.SOLV.lig_0>
-32.2816

>  <SCORE.INTRA.VDW>
0.14255

>  <SCORE.INTRA.VDW.0>
-0.749945

>  <SCORE.INTRA.norm>
-0.0795522

>  <SCORE.RESTR>
0

>  <SCORE.RESTR.CAVITY>
0

>  <SCORE.RESTR.norm>
0

>  <SCORE.SYSTEM>
0

>  <SCORE.SYSTEM.CONST>
0

>  <SCORE.SYSTEM.DIHEDRAL>
0

>  <SCORE.SYSTEM.SOLV>
0

>  <SCORE.SYSTEM.norm>
0

>  <SCORE.heavy>
10

>  <SCORE.norm>
-0.683051

>  <RMSD>
1.873

$$$$
ligand
 OpenBabel11021811473D
libRbt.so/2013.1/901 2013/11/27
 10  9  0  0  0  0  0  0  0  0999 V2000
   31.1853   17.3284   22.3429 N   0  0  0  0  0  0  0  0  0  0  0  0
   31.3287   16.5059   21.1045 C   0  0  2  0  0  0  0  0  0  0  0  0
   32.6472   16.8007   20.3900 C   0  0  0  0  0  0  0  0  0  0  0  0
   33.4617   17.5931   20.8601 O   0  0  0  0  0  0  0  0  0  0  0  0
   30.1237   16.6998   20.1764 C   0  0  0  0  0  0  0  0  0  0  0  0
   28.8614   16.0038   20.6843 C   0  0  0  0  0  0  0  0  0  0  0  0
   27.6724   16.1995   19.7535 C   0  0  0  0  0  0  0  0  0  0  0  0
   27.9393   15.5871   18.3820 C   0  0  0  0  0  0  0  0  0  0  0  0
   28.1081   14.0935   18.4219 N   0  0  0  0  0  0  0  0  0  0  0  0
   32.9646   16.2443   19.3347 O   0  0  0  0  0  0  0  0  0  0  0  0
  2  1  1  1  0  0  0
  2  3  1  0  0  0  0
  2  5  1  0  0  0  0
  3  4  1  0  0  0  0
  3 10  1  0  0  0  0
  5  6  1  0  0  0  0
  6  7  1  0  0  0  0
  7  8  1  0  0  0  0
  8  9  1  0  0  0  0
M  END
>  <CHROM.1>
2.38198654,-73.56306261,-179.84257547,62.40176349,64.10819287,30.46919353
16.31440623,20.13327654,0.45847672,0.14238638,1.05720764

>  <Name>
ligand

>  <RI>
0

>  <Rbt.Current_Directory>
/home/itssahil/PROJECTS/Mol_Feturizer/New_Systems/rnas/3DIL

>  <Rbt.Executable>
rbdock ($Id: //depot/dev/client3/rdock/2013.1/src/exe/rbdock.cxx#4 $)

>  <Rbt.Library>
libRbt.so (2013.1, Build901 2013/11/27)

>  <Rbt.Parameter_File>
/export/apps/rDock/src/rDock_2013.1_src/data/scripts/dock_solv.prm

>  <Rbt.Receptor>
prm/blind_docking_60.prm

>  <SCORE>
-6.80839

>  <SCORE.INTER>
-7.69219

>  <SCORE.INTER.CONST>
1

>  <SCORE.INTER.POLAR>
0

>  <SCORE.INTER.ROT>
5

>  <SCORE.INTER.SOLV>
12.519

>  <SCORE.INTER.VDW>
-16.2345

>  <SCORE.INTER.norm>
-0.769219

>  <SCORE.INTRA>
0.883801

>  <SCORE.INTRA.DIHEDRAL>
-0.618663

>  <SCORE.INTRA.DIHEDRAL.0>
2.93688

>  <SCORE.INTRA.POLAR>
0

>  <SCORE.INTRA.POLAR.0>
0

>  <SCORE.INTRA.REPUL>
0

>  <SCORE.INTRA.REPUL.0>
0

>  <SCORE.INTRA.SOLV>
0.706274

>  <SCORE.INTRA.SOLV.lig_0>
-32.2816

>  <SCORE.INTRA.VDW>
0.839996

>  <SCORE.INTRA.VDW.0>
-0.749945

>  <SCORE.INTRA.norm>
0.0883801

>  <SCORE.RESTR>
0

>  <SCORE.RESTR.CAVITY>
0

>  <SCORE.RESTR.norm>
0

>  <SCORE.SYSTEM>
0

>  <SCORE.SYSTEM.CONST>
0

>  <SCORE.SYSTEM.DIHEDRAL>
0

>  <SCORE.SYSTEM.SOLV>
0

>  <SCORE.SYSTEM.norm>
0

>  <SCORE.heavy>
10

>  <SCORE.norm>
-0.680839

>  <RMSD>
1.876

$$$$
ligand
 OpenBabel11021811473D
libRbt.so/2013.1/901 2013/11/27
 10  9  0  0  0  0  0  0  0  0999 V2000
   31.5174   17.4944   22.1063 N   0  0  0  0  0  0  0  0  0  0  0  0
   31.7614   16.2613   21.2997 C   0  0  2  0  0  0  0  0  0  0  0  0
   32.7545   16.5238   20.1680 C   0  0  0  0  0  0  0  0  0  0  0  0
   32.7904   15.8014   19.1734 O   0  0  0  0  0  0  0  0  0  0  0  0
   30.4427   15.6808   20.7752 C   0  0  0  0  0  0  0  0  0  0  0  0
   29.4813   15.2788   21.8932 C   0  0  0  0  0  0  0  0  0  0  0  0
   28.1750   14.7053   21.3614 C   0  0  0  0  0  0  0  0  0  0  0  0
   27.3617   15.7702   20.6322 C   0  0  0  0  0  0  0  0  0  0  0  0
   26.0029   15.2892   20.2042 N   0  0  0  0  0  0  0  0  0  0  0  0
   33.5390   17.4768   20.1862 O   0  0  0  0  0  0  0  0  0  0  0  0
  2  1  1  6  0  0  0
  2  3  1  0  0  0  0
  2  5  1  0  0  0  0
  3  4  1  0  0  0  0
  3 10  1  0  0  0  0
  5  6  1  0  0  0  0
  6  7  1  0  0  0  0
  7  8  1  0  0  0  0
  8  9  1  0  0  0  0
M  END
>  <CHROM.1>
-157.82580911,-60.77257974,179.93652737,-67.00055545,-174.38874120,30.41715928
16.03643506,20.75415530,0.01102942,0.27467229,1.21777040

>  <Name>
ligand

>  <RI>
0

>  <Rbt.Current_Directory>
/home/itssahil/PROJECTS/Mol_Feturizer/New_Systems/rnas/3DIL

>  <Rbt.Executable>
rbdock ($Id: //depot/dev/client3/rdock/2013.1/src/exe/rbdock.cxx#4 $)

>  <Rbt.Library>
libRbt.so (2013.1, Build901 2013/11/27)

>  <Rbt.Parameter_File>
/export/apps/rDock/src/rDock_2013.1_src/data/scripts/dock_solv.prm

>  <Rbt.Receptor>
prm/blind_docking_60.prm

>  <SCORE>
-8.02642

>  <SCORE.INTER>
-8.26485

>  <SCORE.INTER.CONST>
1

>  <SCORE.INTER.POLAR>
0

>  <SCORE.INTER.ROT>
5

>  <SCORE.INTER.SOLV>
17.3122

>  <SCORE.INTER.VDW>
-18.214

>  <SCORE.INTER.norm>
-0.826485

>  <SCORE.INTRA>
0.23843

>  <SCORE.INTRA.DIHEDRAL>
-1.05425

>  <SCORE.INTRA.DIHEDRAL.0>
2.93688

>  <SCORE.INTRA.POLAR>
0

>  <SCORE.INTRA.POLAR.0>
0

>  <SCORE.INTRA.REPUL>
0

>  <SCORE.INTRA.REPUL.0>
0

>  <SCORE.INTRA.SOLV>
-0.408678

>  <SCORE.INTRA.SOLV.lig_0>
-32.2816

>  <SCORE.INTRA.VDW>
0.969896

>  <SCORE.INTRA.VDW.0>
-0.749945

>  <SCORE.INTRA.norm>
0.023843

>  <SCORE.RESTR>
0

>  <SCORE.RESTR.CAVITY>
0

>  <SCORE.RESTR.norm>
0

>  <SCORE.SYSTEM>
0

>  <SCORE.SYSTEM.CONST>
0

>  <SCORE.SYSTEM.DIHEDRAL>
0

>  <SCORE.SYSTEM.SOLV>
0

>  <SCORE.SYSTEM.norm>
0

>  <SCORE.heavy>
10

>  <SCORE.norm>
-0.802642

>  <RMSD>
1.892

$$$$
ligand
 OpenBabel11021811473D
libRbt.so/2013.1/901 2013/11/27
 10  9  0  0  0  0  0  0  0  0999 V2000
   31.3369   16.4408   22.2637 N   0  0  0  0  0  0  0  0  0  0  0  0
   31.4008   16.0197   20.8321 C   0  0  2  0  0  0  0  0  0  0  0  0
   32.6746   16.5291   20.1583 C   0  0  0  0  0  0  0  0  0  0  0  0
   33.0770   16.0374   19.1054 O   0  0  0  0  0  0  0  0  0  0  0  0
   30.1424   16.4608   20.0754 C   0  0  0  0  0  0  0  0  0  0  0  0
   28.8813   15.7324   20.5392 C   0  0  0  0  0  0  0  0  0  0  0  0
   27.6788   16.0251   19.6522 C   0  0  0  0  0  0  0  0  0  0  0  0
   27.8937   15.4928   18.2388 C   0  0  0  0  0  0  0  0  0  0  0  0
   28.0563   13.9989   18.1858 N   0  0  0  0  0  0  0  0  0  0  0  0
   33.3364   17.4639   20.6191 O   0  0  0  0  0  0  0  0  0  0  0  0
  2  1  1  1  0  0  0
  2  3  1  0  0  0  0
  2  5  1  0  0  0  0
  3  4  1  0  0  0  0
  3 10  1  0  0  0  0
  5  6  1  0  0  0  0
  6  7  1  0  0  0  0
  7  8  1  0  0  0  0
  8  9  1  0  0  0  0
M  END
>  <CHROM.1>
162.20271833,-67.35907561,-171.67077891,64.58654265,62.28916863,30.48657198
16.03347827,19.95509257,0.40026575,0.17865869,1.20971243

>  <Name>
ligand

>  <RI>
0

>  <Rbt.Current_Directory>
/home/itssahil/PROJECTS/Mol_Feturizer/New_Systems/rnas/3DIL

>  <Rbt.Executable>
rbdock ($Id: //depot/dev/client3/rdock/2013.1/src/exe/rbdock.cxx#4 $)

>  <Rbt.Library>
libRbt.so (2013.1, Build901 2013/11/27)

>  <Rbt.Parameter_File>
/export/apps/rDock/src/rDock_2013.1_src/data/scripts/dock_solv.prm

>  <Rbt.Receptor>
prm/blind_docking_80.prm

>  <SCORE>
-6.98676

>  <SCORE.INTER>
-7.5862

>  <SCORE.INTER.CONST>
1

>  <SCORE.INTER.POLAR>
0

>  <SCORE.INTER.ROT>
5

>  <SCORE.INTER.SOLV>
14.2615

>  <SCORE.INTER.VDW>
-16.7446

>  <SCORE.INTER.norm>
-0.75862

>  <SCORE.INTRA>
0.599439

>  <SCORE.INTRA.DIHEDRAL>
-0.852277

>  <SCORE.INTRA.DIHEDRAL.0>
2.93688

>  <SCORE.INTRA.POLAR>
0

>  <SCORE.INTRA.POLAR.0>
0

>  <SCORE.INTRA.REPUL>
0

>  <SCORE.INTRA.REPUL.0>
0

>  <SCORE.INTRA.SOLV>
0.755753

>  <SCORE.INTRA.SOLV.lig_0>
-32.2816

>  <SCORE.INTRA.VDW>
0.6477

>  <SCORE.INTRA.VDW.0>
-0.749945

>  <SCORE.INTRA.norm>
0.0599439

>  <SCORE.RESTR>
0

>  <SCORE.RESTR.CAVITY>
0

>  <SCORE.RESTR.norm>
0

>  <SCORE.SYSTEM>
0

>  <SCORE.SYSTEM.CONST>
0

>  <SCORE.SYSTEM.DIHEDRAL>
0

>  <SCORE.SYSTEM.SOLV>
0

>  <SCORE.SYSTEM.norm>
0

>  <SCORE.heavy>
10

>  <SCORE.norm>
-0.698676

>  <RMSD>
1.927

$$$$
ligand
 OpenBabel11021811473D
libRbt.so/2013.1/901 2013/11/27
 10  9  0  0  0  0  0  0  0  0999 V2000
   31.5106   17.8558   22.1604 N   0  0  0  0  0  0  0  0  0  0  0  0
   31.8052   16.4574   21.7267 C   0  0  2  0  0  0  0  0  0  0  0  0
   32.4645   16.4292   20.3482 C   0  0  0  0  0  0  0  0  0  0  0  0
   32.1248   15.6086   19.4976 O   0  0  0  0  0  0  0  0  0  0  0  0
   30.5393   15.5933   21.7689 C   0  0  0  0  0  0  0  0  0  0  0  0
   29.4180   16.1341   20.8822 C   0  0  0  0  0  0  0  0  0  0  0  0
   28.1243   15.3452   21.0311 C   0  0  0  0  0  0  0  0  0  0  0  0
   27.0553   15.8526   20.0684 C   0  0  0  0  0  0  0  0  0  0  0  0
   25.7157   15.2007   20.2722 N   0  0  0  0  0  0  0  0  0  0  0  0
   33.3391   17.2357   20.0183 O   0  0  0  0  0  0  0  0  0  0  0  0
  2  1  1  6  0  0  0
  2  3  1  0  0  0  0
  2  5  1  0  0  0  0
  3  4  1  0  0  0  0
  3 10  1  0  0  0  0
  5  6  1  0  0  0  0
  6  7  1  0  0  0  0
  7  8  1  0  0  0  0
  8  9  1  0  0  0  0
M  END
>  <CHROM.1>
-136.98389674,58.69379394,-174.60792760,-176.30786038,-174.12706587,30.23704642
16.17243213,20.74814164,0.12248607,0.19215717,1.12714844

>  <Name>
ligand

>  <RI>
0

>  <Rbt.Current_Directory>
/home/itssahil/PROJECTS/Mol_Feturizer/New_Systems/rnas/3DIL

>  <Rbt.Executable>
rbdock ($Id: //depot/dev/client3/rdock/2013.1/src/exe/rbdock.cxx#4 $)

>  <Rbt.Library>
libRbt.so (2013.1, Build901 2013/11/27)

>  <Rbt.Parameter_File>
/export/apps/rDock/src/rDock_2013.1_src/data/scripts/dock_solv.prm

>  <Rbt.Receptor>
prm/pocket_docking_5.prm

>  <SCORE>
-7.74093

>  <SCORE.INTER>
-7.65144

>  <SCORE.INTER.CONST>
1

>  <SCORE.INTER.POLAR>
0

>  <SCORE.INTER.ROT>
5

>  <SCORE.INTER.SOLV>
17.992

>  <SCORE.INTER.VDW>
-18.0316

>  <SCORE.INTER.norm>
-0.765144

>  <SCORE.INTRA>
-0.0894981

>  <SCORE.INTRA.DIHEDRAL>
-1.06573

>  <SCORE.INTRA.DIHEDRAL.0>
2.93688

>  <SCORE.INTRA.POLAR>
0

>  <SCORE.INTRA.POLAR.0>
0

>  <SCORE.INTRA.REPUL>
0

>  <SCORE.INTRA.REPUL.0>
0

>  <SCORE.INTRA.SOLV>
-0.549986

>  <SCORE.INTRA.SOLV.lig_0>
-32.2816

>  <SCORE.INTRA.VDW>
0.71836

>  <SCORE.INTRA.VDW.0>
-0.749945

>  <SCORE.INTRA.norm>
-0.00894981

>  <SCORE.RESTR>
0

>  <SCORE.RESTR.CAVITY>
0

>  <SCORE.RESTR.norm>
0

>  <SCORE.SYSTEM>
0

>  <SCORE.SYSTEM.CONST>
0

>  <SCORE.SYSTEM.DIHEDRAL>
0

>  <SCORE.SYSTEM.SOLV>
0

>  <SCORE.SYSTEM.norm>
0

>  <SCORE.heavy>
10

>  <SCORE.norm>
-0.774093

>  <RMSD>
1.948

$$$$
ligand
 OpenBabel11021811473D
libRbt.so/2013.1/901 2013/11/27
 10  9  0  0  0  0  0  0  0  0999 V2000
   31.2123   16.0621   22.1474 N   0  0  0  0  0  0  0  0  0  0  0  0
   31.1365   16.0101   20.6567 C   0  0  2  0  0  0  0  0  0  0  0  0
   32.4785   16.3667   20.0182 C   0  0  0  0  0  0  0  0  0  0  0  0
   32.8314   15.8596   18.9548 O   0  0  0  0  0  0  0  0  0  0  0  0
   30.0041   16.9026   20.1350 C   0  0  0  0  0  0  0  0  0  0  0  0
   28.6205   16.4354   20.5856 C   0  0  0  0  0  0  0  0  0  0  0  0
   28.2231   15.1035   19.9640 C   0  0  0  0  0  0  0  0  0  0  0  0
   28.0157   15.2378   18.4586 C   0  0  0  0  0  0  0  0  0  0  0  0
   27.6023   13.9510   17.7996 N   0  0  0  0  0  0  0  0  0  0  0  0
   33.2498   17.1900   20.5195 O   0  0  0  0  0  0  0  0  0  0  0  0
  2  1  1  1  0  0  0
  2  3  1  0  0  0  0
  2  5  1  0  0  0  0
  3  4  1  0  0  0  0
  3 10  1  0  0  0  0
  5  6  1  0  0  0  0
  6  7  1  0  0  0  0
  7  8  1  0  0  0  0
  8  9  1  0  0  0  0
M  END
>  <CHROM.1>
147.78974144,-64.00115843,-67.37491267,-67.23186228,-179.19066181,30.37695417
15.92206050,19.91212380,0.41973188,0.18756431,1.15864932

>  <Name>
ligand

>  <RI>
0

>  <Rbt.Current_Directory>
/home/itssahil/PROJECTS/Mol_Feturizer/New_Systems/rnas/3DIL

>  <Rbt.Executable>
rbdock ($Id: //depot/dev/client3/rdock/2013.1/src/exe/rbdock.cxx#4 $)

>  <Rbt.Library>
libRbt.so (2013.1, Build901 2013/11/27)

>  <Rbt.Parameter_File>
/export/apps/rDock/src/rDock_2013.1_src/data/scripts/dock_solv.prm

>  <Rbt.Receptor>
prm/blind_docking_80.prm

>  <SCORE>
-6.84483

>  <SCORE.INTER>
-6.95879

>  <SCORE.INTER.CONST>
1

>  <SCORE.INTER.POLAR>
0

>  <SCORE.INTER.ROT>
5

>  <SCORE.INTER.SOLV>
16.0781

>  <SCORE.INTER.VDW>
-16.9319

>  <SCORE.INTER.norm>
-0.695879

>  <SCORE.INTRA>
0.113956

>  <SCORE.INTRA.DIHEDRAL>
-0.964412

>  <SCORE.INTRA.DIHEDRAL.0>
2.93688

>  <SCORE.INTRA.POLAR>
0

>  <SCORE.INTRA.POLAR.0>
0

>  <SCORE.INTRA.REPUL>
0

>  <SCORE.INTRA.REPUL.0>
0

>  <SCORE.INTRA.SOLV>
0.0471348

>  <SCORE.INTRA.SOLV.lig_0>
-32.2816

>  <SCORE.INTRA.VDW>
0.572595

>  <SCORE.INTRA.VDW.0>
-0.749945

>  <SCORE.INTRA.norm>
0.0113956

>  <SCORE.RESTR>
0

>  <SCORE.RESTR.CAVITY>
0

>  <SCORE.RESTR.norm>
0

>  <SCORE.SYSTEM>
0

>  <SCORE.SYSTEM.CONST>
0

>  <SCORE.SYSTEM.DIHEDRAL>
0

>  <SCORE.SYSTEM.SOLV>
0

>  <SCORE.SYSTEM.norm>
0

>  <SCORE.heavy>
10

>  <SCORE.norm>
-0.684483

>  <RMSD>
1.966

$$$$
ligand
 OpenBabel11021811473D
libRbt.so/2013.1/901 2013/11/27
 10  9  0  0  0  0  0  0  0  0999 V2000
   31.0148   17.1175   22.1217 N   0  0  0  0  0  0  0  0  0  0  0  0
   31.1048   16.1860   20.9578 C   0  0  2  0  0  0  0  0  0  0  0  0
   32.3586   16.4539   20.1259 C   0  0  0  0  0  0  0  0  0  0  0  0
   33.1539   17.3374   20.4411 O   0  0  0  0  0  0  0  0  0  0  0  0
   29.8323   16.2515   20.1049 C   0  0  0  0  0  0  0  0  0  0  0  0
   28.5807   15.8158   20.8663 C   0  0  0  0  0  0  0  0  0  0  0  0
   27.3169   15.9286   20.0247 C   0  0  0  0  0  0  0  0  0  0  0  0
   27.2506   14.8207   18.9782 C   0  0  0  0  0  0  0  0  0  0  0  0
   28.3004   14.9505   17.9095 N   0  0  0  0  0  0  0  0  0  0  0  0
   32.6424   15.7871   19.1265 O   0  0  0  0  0  0  0  0  0  0  0  0
  2  1  1  1  0  0  0
  2  3  1  0  0  0  0
  2  5  1  0  0  0  0
  3  4  1  0  0  0  0
  3 10  1  0  0  0  0
  5  6  1  0  0  0  0
  6  7  1  0  0  0  0
  7  8  1  0  0  0  0
  8  9  1  0  0  0  0
M  END
>  <CHROM.1>
0.43159636,-62.35755558,178.09879020,73.97990833,-67.85868894,30.19412084
16.07237824,20.05056761,0.32716040,0.16957662,1.14526547

>  <Name>
ligand

>  <RI>
0

>  <Rbt.Current_Directory>
/home/itssahil/PROJECTS/Mol_Feturizer/New_Systems/rnas/3DIL

>  <Rbt.Executable>
rbdock ($Id: //depot/dev/client3/rdock/2013.1/src/exe/rbdock.cxx#4 $)

>  <Rbt.Library>
libRbt.so (2013.1, Build901 2013/11/27)

>  <Rbt.Parameter_File>
/export/apps/rDock/src/rDock_2013.1_src/data/scripts/dock_solv.prm

>  <Rbt.Receptor>
prm/pocket_docking_7.prm

>  <SCORE>
-7.30397

>  <SCORE.INTER>
-8.56533

>  <SCORE.INTER.CONST>
1

>  <SCORE.INTER.POLAR>
0

>  <SCORE.INTER.ROT>
5

>  <SCORE.INTER.SOLV>
12.1105

>  <SCORE.INTER.VDW>
-16.6804

>  <SCORE.INTER.norm>
-0.856533

>  <SCORE.INTRA>
1.26135

>  <SCORE.INTRA.DIHEDRAL>
-0.368044

>  <SCORE.INTRA.DIHEDRAL.0>
2.93688

>  <SCORE.INTRA.POLAR>
0

>  <SCORE.INTRA.POLAR.0>
0

>  <SCORE.INTRA.REPUL>
0

>  <SCORE.INTRA.REPUL.0>
0

>  <SCORE.INTRA.SOLV>
1.63689

>  <SCORE.INTRA.SOLV.lig_0>
-32.2816

>  <SCORE.INTRA.VDW>
0.62693

>  <SCORE.INTRA.VDW.0>
-0.749945

>  <SCORE.INTRA.norm>
0.126135

>  <SCORE.RESTR>
0

>  <SCORE.RESTR.CAVITY>
0

>  <SCORE.RESTR.norm>
0

>  <SCORE.SYSTEM>
0

>  <SCORE.SYSTEM.CONST>
0

>  <SCORE.SYSTEM.DIHEDRAL>
0

>  <SCORE.SYSTEM.SOLV>
0

>  <SCORE.SYSTEM.norm>
0

>  <SCORE.heavy>
10

>  <SCORE.norm>
-0.730397

>  <RMSD>
1.972

$$$$
ligand
 OpenBabel11021811473D
libRbt.so/2013.1/901 2013/11/27
 10  9  0  0  0  0  0  0  0  0999 V2000
   32.6343   18.0962   22.3318 N   0  0  0  0  0  0  0  0  0  0  0  0
   32.1930   16.7750   21.7930 C   0  0  2  0  0  0  0  0  0  0  0  0
   32.5182   16.6437   20.3054 C   0  0  0  0  0  0  0  0  0  0  0  0
   33.4800   15.9806   19.9210 O   0  0  0  0  0  0  0  0  0  0  0  0
   30.7037   16.5402   22.0719 C   0  0  0  0  0  0  0  0  0  0  0  0
   30.2100   15.1826   21.5727 C   0  0  0  0  0  0  0  0  0  0  0  0
   28.7227   14.9744   21.8232 C   0  0  0  0  0  0  0  0  0  0  0  0
   27.8801   15.8394   20.8909 C   0  0  0  0  0  0  0  0  0  0  0  0
   28.0518   15.4881   19.4390 N   0  0  0  0  0  0  0  0  0  0  0  0
   31.8242   17.1680   19.4294 O   0  0  0  0  0  0  0  0  0  0  0  0
  2  1  1  6  0  0  0
  2  3  1  0  0  0  0
  2  5  1  0  0  0  0
  3  4  1  0  0  0  0
  3 10  1  0  0  0  0
  5  6  1  0  0  0  0
  6  7  1  0  0  0  0
  7  8  1  0  0  0  0
  8  9  1  0  0  0  0
M  END
>  <CHROM.1>
102.33653003,-178.44772540,-178.55513794,72.13417044,63.59675766,30.83907147
16.26824226,20.92533415,0.06266958,0.32501334,1.39586210

>  <Name>
ligand

>  <RI>
0

>  <Rbt.Current_Directory>
/home/itssahil/PROJECTS/Mol_Feturizer/New_Systems/rnas/3DIL

>  <Rbt.Executable>
rbdock ($Id: //depot/dev/client3/rdock/2013.1/src/exe/rbdock.cxx#4 $)

>  <Rbt.Library>
libRbt.so (2013.1, Build901 2013/11/27)

>  <Rbt.Parameter_File>
/export/apps/rDock/src/rDock_2013.1_src/data/scripts/dock_solv.prm

>  <Rbt.Receptor>
prm/blind_docking_100.prm

>  <SCORE>
-7.84236

>  <SCORE.INTER>
-7.89934

>  <SCORE.INTER.CONST>
1

>  <SCORE.INTER.POLAR>
0

>  <SCORE.INTER.ROT>
5

>  <SCORE.INTER.SOLV>
11.5518

>  <SCORE.INTER.VDW>
-16.0502

>  <SCORE.INTER.norm>
-0.789934

>  <SCORE.INTRA>
0.0569853

>  <SCORE.INTRA.DIHEDRAL>
-0.721698

>  <SCORE.INTRA.DIHEDRAL.0>
2.93688

>  <SCORE.INTRA.POLAR>
0

>  <SCORE.INTRA.POLAR.0>
0

>  <SCORE.INTRA.REPUL>
0

>  <SCORE.INTRA.REPUL.0>
0

>  <SCORE.INTRA.SOLV>
-0.176545

>  <SCORE.INTRA.SOLV.lig_0>
-32.2816

>  <SCORE.INTRA.VDW>
0.506107

>  <SCORE.INTRA.VDW.0>
-0.749945

>  <SCORE.INTRA.norm>
0.00569853

>  <SCORE.RESTR>
0

>  <SCORE.RESTR.CAVITY>
0

>  <SCORE.RESTR.norm>
0

>  <SCORE.SYSTEM>
0

>  <SCORE.SYSTEM.CONST>
0

>  <SCORE.SYSTEM.DIHEDRAL>
0

>  <SCORE.SYSTEM.SOLV>
0

>  <SCORE.SYSTEM.norm>
0

>  <SCORE.heavy>
10

>  <SCORE.norm>
-0.784236

>  <RMSD>
1.973

$$$$
ligand
 OpenBabel11021811473D
libRbt.so/2013.1/901 2013/11/27
 10  9  0  0  0  0  0  0  0  0999 V2000
   32.4777   18.0554   22.3213 N   0  0  0  0  0  0  0  0  0  0  0  0
   32.0026   16.7570   21.7564 C   0  0  2  0  0  0  0  0  0  0  0  0
   32.5248   16.5436   20.3360 C   0  0  0  0  0  0  0  0  0  0  0  0
   32.1555   15.5847   19.6602 O   0  0  0  0  0  0  0  0  0  0  0  0
   30.4738   16.6591   21.8204 C   0  0  0  0  0  0  0  0  0  0  0  0
   29.9518   15.2582   21.5029 C   0  0  0  0  0  0  0  0  0  0  0  0
   28.4380   15.1567   21.6303 C   0  0  0  0  0  0  0  0  0  0  0  0
   27.7378   15.9490   20.5308 C   0  0  0  0  0  0  0  0  0  0  0  0
   28.0143   15.4203   19.1506 N   0  0  0  0  0  0  0  0  0  0  0  0
   33.3111   17.3280   19.7971 O   0  0  0  0  0  0  0  0  0  0  0  0
  2  1  1  6  0  0  0
  2  3  1  0  0  0  0
  2  5  1  0  0  0  0
  3  4  1  0  0  0  0
  3 10  1  0  0  0  0
  5  6  1  0  0  0  0
  6  7  1  0  0  0  0
  7  8  1  0  0  0  0
  8  9  1  0  0  0  0
M  END
>  <CHROM.1>
-174.01290605,-169.18596542,177.42541654,69.03772937,63.75786341,30.73029667
16.26889587,20.82015197,0.16188167,0.31098984,1.23879678

>  <Name>
ligand

>  <RI>
0

>  <Rbt.Current_Directory>
/home/itssahil/PROJECTS/Mol_Feturizer/New_Systems/rnas/3DIL

>  <Rbt.Executable>
rbdock ($Id: //depot/dev/client3/rdock/2013.1/src/exe/rbdock.cxx#4 $)

>  <Rbt.Library>
libRbt.so (2013.1, Build901 2013/11/27)

>  <Rbt.Parameter_File>
/export/apps/rDock/src/rDock_2013.1_src/data/scripts/dock_solv.prm

>  <Rbt.Receptor>
prm/pocket_docking_7.prm

>  <SCORE>
-8.41112

>  <SCORE.INTER>
-8.98698

>  <SCORE.INTER.CONST>
1

>  <SCORE.INTER.POLAR>
0

>  <SCORE.INTER.ROT>
5

>  <SCORE.INTER.SOLV>
11.6179

>  <SCORE.INTER.VDW>
-16.7973

>  <SCORE.INTER.norm>
-0.898698

>  <SCORE.INTRA>
0.575857

>  <SCORE.INTRA.DIHEDRAL>
-0.574542

>  <SCORE.INTRA.DIHEDRAL.0>
2.93688

>  <SCORE.INTRA.POLAR>
0

>  <SCORE.INTRA.POLAR.0>
0

>  <SCORE.INTRA.REPUL>
0

>  <SCORE.INTRA.REPUL.0>
0

>  <SCORE.INTRA.SOLV>
-0.101591

>  <SCORE.INTRA.SOLV.lig_0>
-32.2816

>  <SCORE.INTRA.VDW>
0.913923

>  <SCORE.INTRA.VDW.0>
-0.749945

>  <SCORE.INTRA.norm>
0.0575857

>  <SCORE.RESTR>
0

>  <SCORE.RESTR.CAVITY>
0

>  <SCORE.RESTR.norm>
0

>  <SCORE.SYSTEM>
0

>  <SCORE.SYSTEM.CONST>
0

>  <SCORE.SYSTEM.DIHEDRAL>
0

>  <SCORE.SYSTEM.SOLV>
0

>  <SCORE.SYSTEM.norm>
0

>  <SCORE.heavy>
10

>  <SCORE.norm>
-0.841112

>  <RMSD>
1.982

$$$$
ligand
 OpenBabel11021811473D
libRbt.so/2013.1/901 2013/11/27
 10  9  0  0  0  0  0  0  0  0999 V2000
   32.1311   17.8137   22.1383 N   0  0  0  0  0  0  0  0  0  0  0  0
   31.5273   16.7556   21.2743 C   0  0  2  0  0  0  0  0  0  0  0  0
   32.3759   16.5028   20.0286 C   0  0  0  0  0  0  0  0  0  0  0  0
   32.1563   15.5411   19.2942 O   0  0  0  0  0  0  0  0  0  0  0  0
   30.0785   17.1047   20.9136 C   0  0  0  0  0  0  0  0  0  0  0  0
   29.3116   15.9252   20.3164 C   0  0  0  0  0  0  0  0  0  0  0  0
   27.8525   16.2589   20.0374 C   0  0  0  0  0  0  0  0  0  0  0  0
   27.1109   15.0543   19.4664 C   0  0  0  0  0  0  0  0  0  0  0  0
   27.6468   14.6036   18.1358 N   0  0  0  0  0  0  0  0  0  0  0  0
   33.2928   17.2571   19.6904 O   0  0  0  0  0  0  0  0  0  0  0  0
  2  1  1  6  0  0  0
  2  3  1  0  0  0  0
  2  5  1  0  0  0  0
  3  4  1  0  0  0  0
  3 10  1  0  0  0  0
  5  6  1  0  0  0  0
  6  7  1  0  0  0  0
  7  8  1  0  0  0  0
  8  9  1  0  0  0  0
M  END
>  <CHROM.1>
169.30114504,-166.50999818,176.65522614,-178.96490675,-63.09351046,30.37753740
16.27844498,20.10497547,0.40676523,0.14537016,0.97267310

>  <Name>
ligand

>  <RI>
0

>  <Rbt.Current_Directory>
/home/itssahil/PROJECTS/Mol_Feturizer/New_Systems/rnas/3DIL

>  <Rbt.Executable>
rbdock ($Id: //depot/dev/client3/rdock/2013.1/src/exe/rbdock.cxx#4 $)

>  <Rbt.Library>
libRbt.so (2013.1, Build901 2013/11/27)

>  <Rbt.Parameter_File>
/export/apps/rDock/src/rDock_2013.1_src/data/scripts/dock_solv.prm

>  <Rbt.Receptor>
prm/pocket_docking_4.prm

>  <SCORE>
-7.99452

>  <SCORE.INTER>
-7.44635

>  <SCORE.INTER.CONST>
1

>  <SCORE.INTER.POLAR>
0

>  <SCORE.INTER.ROT>
5

>  <SCORE.INTER.SOLV>
13.4725

>  <SCORE.INTER.VDW>
-16.3884

>  <SCORE.INTER.norm>
-0.744635

>  <SCORE.INTRA>
-0.548175

>  <SCORE.INTRA.DIHEDRAL>
-0.715738

>  <SCORE.INTRA.DIHEDRAL.0>
2.93688

>  <SCORE.INTRA.POLAR>
0

>  <SCORE.INTRA.POLAR.0>
0

>  <SCORE.INTRA.REPUL>
0

>  <SCORE.INTRA.REPUL.0>
0

>  <SCORE.INTRA.SOLV>
-0.592

>  <SCORE.INTRA.SOLV.lig_0>
-32.2816

>  <SCORE.INTRA.VDW>
0.105695

>  <SCORE.INTRA.VDW.0>
-0.749945

>  <SCORE.INTRA.norm>
-0.0548175

>  <SCORE.RESTR>
0

>  <SCORE.RESTR.CAVITY>
0

>  <SCORE.RESTR.norm>
0

>  <SCORE.SYSTEM>
0

>  <SCORE.SYSTEM.CONST>
0

>  <SCORE.SYSTEM.DIHEDRAL>
0

>  <SCORE.SYSTEM.SOLV>
0

>  <SCORE.SYSTEM.norm>
0

>  <SCORE.heavy>
10

>  <SCORE.norm>
-0.799452

>  <RMSD>
1.985

$$$$
ligand
 OpenBabel11021811473D
libRbt.so/2013.1/901 2013/11/27
 10  9  0  0  0  0  0  0  0  0999 V2000
   31.9485   17.8427   22.1945 N   0  0  0  0  0  0  0  0  0  0  0  0
   31.3980   16.7783   21.3031 C   0  0  2  0  0  0  0  0  0  0  0  0
   32.3200   16.5175   20.1123 C   0  0  0  0  0  0  0  0  0  0  0  0
   33.3206   17.2061   19.9203 O   0  0  0  0  0  0  0  0  0  0  0  0
   29.9734   17.1238   20.8537 C   0  0  0  0  0  0  0  0  0  0  0  0
   29.2372   15.9344   20.2379 C   0  0  0  0  0  0  0  0  0  0  0  0
   27.7976   16.2663   19.8694 C   0  0  0  0  0  0  0  0  0  0  0  0
   27.0672   15.0372   19.3376 C   0  0  0  0  0  0  0  0  0  0  0  0
   27.6639   14.4955   18.0681 N   0  0  0  0  0  0  0  0  0  0  0  0
   32.1211   15.5983   19.3126 O   0  0  0  0  0  0  0  0  0  0  0  0
  2  1  1  6  0  0  0
  2  3  1  0  0  0  0
  2  5  1  0  0  0  0
  3  4  1  0  0  0  0
  3 10  1  0  0  0  0
  5  6  1  0  0  0  0
  6  7  1  0  0  0  0
  7  8  1  0  0  0  0
  8  9  1  0  0  0  0
M  END
>  <CHROM.1>
-5.06589114,-165.68924225,176.66828750,-176.52801954,-62.77047739,30.31596316
16.27652466,20.09853544,0.44805422,0.11553468,0.94249723

>  <Name>
ligand

>  <RI>
0

>  <Rbt.Current_Directory>
/home/itssahil/PROJECTS/Mol_Feturizer/New_Systems/rnas/3DIL

>  <Rbt.Executable>
rbdock ($Id: //depot/dev/client3/rdock/2013.1/src/exe/rbdock.cxx#4 $)

>  <Rbt.Library>
libRbt.so (2013.1, Build901 2013/11/27)

>  <Rbt.Parameter_File>
/export/apps/rDock/src/rDock_2013.1_src/data/scripts/dock_solv.prm

>  <Rbt.Receptor>
prm/blind_docking_80.prm

>  <SCORE>
-8.03241

>  <SCORE.INTER>
-7.60759

>  <SCORE.INTER.CONST>
1

>  <SCORE.INTER.POLAR>
0

>  <SCORE.INTER.ROT>
5

>  <SCORE.INTER.SOLV>
13.5983

>  <SCORE.INTER.VDW>
-16.5378

>  <SCORE.INTER.norm>
-0.760759

>  <SCORE.INTRA>
-0.424827

>  <SCORE.INTRA.DIHEDRAL>
-0.5459

>  <SCORE.INTRA.DIHEDRAL.0>
2.93688

>  <SCORE.INTRA.POLAR>
0

>  <SCORE.INTRA.POLAR.0>
0

>  <SCORE.INTRA.REPUL>
0

>  <SCORE.INTRA.REPUL.0>
0

>  <SCORE.INTRA.SOLV>
-0.587278

>  <SCORE.INTRA.SOLV.lig_0>
-32.2816

>  <SCORE.INTRA.VDW>
0.141762

>  <SCORE.INTRA.VDW.0>
-0.749945

>  <SCORE.INTRA.norm>
-0.0424827

>  <SCORE.RESTR>
0

>  <SCORE.RESTR.CAVITY>
0

>  <SCORE.RESTR.norm>
0

>  <SCORE.SYSTEM>
0

>  <SCORE.SYSTEM.CONST>
0

>  <SCORE.SYSTEM.DIHEDRAL>
0

>  <SCORE.SYSTEM.SOLV>
0

>  <SCORE.SYSTEM.norm>
0

>  <SCORE.heavy>
10

>  <SCORE.norm>
-0.803241

>  <RMSD>
1.993

$$$$
ligand
 OpenBabel11021811473D
libRbt.so/2013.1/901 2013/11/27
 10  9  0  0  0  0  0  0  0  0999 V2000
   31.9395   17.8564   22.1915 N   0  0  0  0  0  0  0  0  0  0  0  0
   31.3997   16.7918   21.2938 C   0  0  2  0  0  0  0  0  0  0  0  0
   32.3288   16.5407   20.1066 C   0  0  0  0  0  0  0  0  0  0  0  0
   32.1320   15.6061   19.3318 O   0  0  0  0  0  0  0  0  0  0  0  0
   29.9751   17.1302   20.8388 C   0  0  0  0  0  0  0  0  0  0  0  0
   29.2447   15.9355   20.2265 C   0  0  0  0  0  0  0  0  0  0  0  0
   27.8022   16.2580   19.8613 C   0  0  0  0  0  0  0  0  0  0  0  0
   27.0808   15.0259   19.3240 C   0  0  0  0  0  0  0  0  0  0  0  0
   27.6926   14.4834   18.0621 N   0  0  0  0  0  0  0  0  0  0  0  0
   33.2926   17.2705   19.8569 O   0  0  0  0  0  0  0  0  0  0  0  0
  2  1  1  6  0  0  0
  2  3  1  0  0  0  0
  2  5  1  0  0  0  0
  3  4  1  0  0  0  0
  3 10  1  0  0  0  0
  5  6  1  0  0  0  0
  6  7  1  0  0  0  0
  7  8  1  0  0  0  0
  8  9  1  0  0  0  0
M  END
>  <CHROM.1>
172.22640376,-165.18662253,176.27839288,-176.91707070,-61.93032911,30.31961121
16.28687336,20.08651926,0.45197622,0.12463638,0.94362385

>  <Name>
ligand

>  <RI>
0

>  <Rbt.Current_Directory>
/home/itssahil/PROJECTS/Mol_Feturizer/New_Systems/rnas/3DIL

>  <Rbt.Executable>
rbdock ($Id: //depot/dev/client3/rdock/2013.1/src/exe/rbdock.cxx#4 $)

>  <Rbt.Library>
libRbt.so (2013.1, Build901 2013/11/27)

>  <Rbt.Parameter_File>
/export/apps/rDock/src/rDock_2013.1_src/data/scripts/dock_solv.prm

>  <Rbt.Receptor>
prm/pocket_docking_5.prm

>  <SCORE>
-8.04193

>  <SCORE.INTER>
-7.60667

>  <SCORE.INTER.CONST>
1

>  <SCORE.INTER.POLAR>
0

>  <SCORE.INTER.ROT>
5

>  <SCORE.INTER.SOLV>
13.5892

>  <SCORE.INTER.VDW>
-16.5342

>  <SCORE.INTER.norm>
-0.760667

>  <SCORE.INTRA>
-0.435258

>  <SCORE.INTRA.DIHEDRAL>
-0.552432

>  <SCORE.INTRA.DIHEDRAL.0>
2.93688

>  <SCORE.INTRA.POLAR>
0

>  <SCORE.INTRA.POLAR.0>
0

>  <SCORE.INTRA.REPUL>
0

>  <SCORE.INTRA.REPUL.0>
0

>  <SCORE.INTRA.SOLV>
-0.582067

>  <SCORE.INTRA.SOLV.lig_0>
-32.2816

>  <SCORE.INTRA.VDW>
0.131992

>  <SCORE.INTRA.VDW.0>
-0.749945

>  <SCORE.INTRA.norm>
-0.0435258

>  <SCORE.RESTR>
0

>  <SCORE.RESTR.CAVITY>
0

>  <SCORE.RESTR.norm>
0

>  <SCORE.SYSTEM>
0

>  <SCORE.SYSTEM.CONST>
0

>  <SCORE.SYSTEM.DIHEDRAL>
0

>  <SCORE.SYSTEM.SOLV>
0

>  <SCORE.SYSTEM.norm>
0

>  <SCORE.heavy>
10

>  <SCORE.norm>
-0.804193

>  <RMSD>
1.995

$$$$
ligand
 OpenBabel11021811473D
libRbt.so/2013.1/901 2013/11/27
 10  9  0  0  0  0  0  0  0  0999 V2000
   32.7875   17.8924   22.4094 N   0  0  0  0  0  0  0  0  0  0  0  0
   32.0795   16.7690   21.7258 C   0  0  2  0  0  0  0  0  0  0  0  0
   32.6275   16.5404   20.3175 C   0  0  0  0  0  0  0  0  0  0  0  0
   32.3003   15.5538   19.6604 O   0  0  0  0  0  0  0  0  0  0  0  0
   30.5643   17.0033   21.7148 C   0  0  0  0  0  0  0  0  0  0  0  0
   29.7768   15.7914   21.2177 C   0  0  0  0  0  0  0  0  0  0  0  0
   28.2804   16.0609   21.1369 C   0  0  0  0  0  0  0  0  0  0  0  0
   27.5265   14.8368   20.6266 C   0  0  0  0  0  0  0  0  0  0  0  0
   26.0509   15.0746   20.4624 N   0  0  0  0  0  0  0  0  0  0  0  0
   33.3935   17.3387   19.7698 O   0  0  0  0  0  0  0  0  0  0  0  0
  2  1  1  6  0  0  0
  2  3  1  0  0  0  0
  2  5  1  0  0  0  0
  3  4  1  0  0  0  0
  3 10  1  0  0  0  0
  5  6  1  0  0  0  0
  6  7  1  0  0  0  0
  7  8  1  0  0  0  0
  8  9  1  0  0  0  0
M  END
>  <CHROM.1>
170.32871092,-171.34137686,-176.79471831,179.50621774,-177.07933467,30.56272092
16.28346387,20.87325379,0.16933424,0.25703482,1.00908809

>  <Name>
ligand

>  <RI>
0

>  <Rbt.Current_Directory>
/home/itssahil/PROJECTS/Mol_Feturizer/New_Systems/rnas/3DIL

>  <Rbt.Executable>
rbdock ($Id: //depot/dev/client3/rdock/2013.1/src/exe/rbdock.cxx#4 $)

>  <Rbt.Library>
libRbt.so (2013.1, Build901 2013/11/27)

>  <Rbt.Parameter_File>
/export/apps/rDock/src/rDock_2013.1_src/data/scripts/dock_solv.prm

>  <Rbt.Receptor>
prm/pocket_docking_3.prm

>  <SCORE>
-7.46832

>  <SCORE.INTER>
-6.3145

>  <SCORE.INTER.CONST>
1

>  <SCORE.INTER.POLAR>
0

>  <SCORE.INTER.ROT>
5

>  <SCORE.INTER.SOLV>
18.9991

>  <SCORE.INTER.VDW>
-17.476

>  <SCORE.INTER.norm>
-0.63145

>  <SCORE.INTRA>
-1.15382

>  <SCORE.INTRA.DIHEDRAL>
-1.11177

>  <SCORE.INTRA.DIHEDRAL.0>
2.93688

>  <SCORE.INTRA.POLAR>
0

>  <SCORE.INTRA.POLAR.0>
0

>  <SCORE.INTRA.REPUL>
0

>  <SCORE.INTRA.REPUL.0>
0

>  <SCORE.INTRA.SOLV>
-1.49233

>  <SCORE.INTRA.SOLV.lig_0>
-32.2816

>  <SCORE.INTRA.VDW>
0.14823

>  <SCORE.INTRA.VDW.0>
-0.749945

>  <SCORE.INTRA.norm>
-0.115382

>  <SCORE.RESTR>
0

>  <SCORE.RESTR.CAVITY>
0

>  <SCORE.RESTR.norm>
0

>  <SCORE.SYSTEM>
0

>  <SCORE.SYSTEM.CONST>
0

>  <SCORE.SYSTEM.DIHEDRAL>
0

>  <SCORE.SYSTEM.SOLV>
0

>  <SCORE.SYSTEM.norm>
0

>  <SCORE.heavy>
10

>  <SCORE.norm>
-0.746832

>  <RMSD>
1.997

$$$$
ligand
 OpenBabel11021811473D
libRbt.so/2013.1/901 2013/11/27
 10  9  0  0  0  0  0  0  0  0999 V2000
   31.9530   17.8500   22.1896 N   0  0  0  0  0  0  0  0  0  0  0  0
   31.4060   16.7872   21.2940 C   0  0  2  0  0  0  0  0  0  0  0  0
   32.3252   16.5392   20.0984 C   0  0  0  0  0  0  0  0  0  0  0  0
   32.1210   15.6076   19.3220 O   0  0  0  0  0  0  0  0  0  0  0  0
   29.9775   17.1261   20.8519 C   0  0  0  0  0  0  0  0  0  0  0  0
   29.2445   15.9340   20.2377 C   0  0  0  0  0  0  0  0  0  0  0  0
   27.8025   16.2601   19.8735 C   0  0  0  0  0  0  0  0  0  0  0  0
   27.0806   15.0322   19.3274 C   0  0  0  0  0  0  0  0  0  0  0  0
   27.6802   14.5102   18.0511 N   0  0  0  0  0  0  0  0  0  0  0  0
   33.2878   17.2689   19.8435 O   0  0  0  0  0  0  0  0  0  0  0  0
  2  1  1  6  0  0  0
  2  3  1  0  0  0  0
  2  5  1  0  0  0  0
  3  4  1  0  0  0  0
  3 10  1  0  0  0  0
  5  6  1  0  0  0  0
  6  7  1  0  0  0  0
  7  8  1  0  0  0  0
  8  9  1  0  0  0  0
M  END
>  <CHROM.1>
172.33768145,-165.42812212,176.80566835,-177.21630158,-62.79864623,30.31844988
16.28860684,20.08588651,0.44886866,0.12703226,0.95204415

>  <Name>
ligand

>  <RI>
0

>  <Rbt.Current_Directory>
/home/itssahil/PROJECTS/Mol_Feturizer/New_Systems/rnas/3DIL

>  <Rbt.Executable>
rbdock ($Id: //depot/dev/client3/rdock/2013.1/src/exe/rbdock.cxx#4 $)

>  <Rbt.Library>
libRbt.so (2013.1, Build901 2013/11/27)

>  <Rbt.Parameter_File>
/export/apps/rDock/src/rDock_2013.1_src/data/scripts/dock_solv.prm

>  <Rbt.Receptor>
prm/pocket_docking_7.prm

>  <SCORE>
-8.05068

>  <SCORE.INTER>
-7.59245

>  <SCORE.INTER.CONST>
1

>  <SCORE.INTER.POLAR>
0

>  <SCORE.INTER.ROT>
5

>  <SCORE.INTER.SOLV>
13.6041

>  <SCORE.INTER.VDW>
-16.5297

>  <SCORE.INTER.norm>
-0.759245

>  <SCORE.INTRA>
-0.458228

>  <SCORE.INTRA.DIHEDRAL>
-0.584044

>  <SCORE.INTRA.DIHEDRAL.0>
2.93688

>  <SCORE.INTRA.POLAR>
0

>  <SCORE.INTRA.POLAR.0>
0

>  <SCORE.INTRA.REPUL>
0

>  <SCORE.INTRA.REPUL.0>
0

>  <SCORE.INTRA.SOLV>
-0.593455

>  <SCORE.INTRA.SOLV.lig_0>
-32.2816

>  <SCORE.INTRA.VDW>
0.130521

>  <SCORE.INTRA.VDW.0>
-0.749945

>  <SCORE.INTRA.norm>
-0.0458228

>  <SCORE.RESTR>
0

>  <SCORE.RESTR.CAVITY>
0

>  <SCORE.RESTR.norm>
0

>  <SCORE.SYSTEM>
0

>  <SCORE.SYSTEM.CONST>
0

>  <SCORE.SYSTEM.DIHEDRAL>
0

>  <SCORE.SYSTEM.SOLV>
0

>  <SCORE.SYSTEM.norm>
0

>  <SCORE.heavy>
10

>  <SCORE.norm>
-0.805068

>  <RMSD>
1.997

$$$$
ligand
 OpenBabel11021811473D
libRbt.so/2013.1/901 2013/11/27
 10  9  0  0  0  0  0  0  0  0999 V2000
   32.0917   17.8275   22.1147 N   0  0  0  0  0  0  0  0  0  0  0  0
   31.4812   16.7520   21.2773 C   0  0  2  0  0  0  0  0  0  0  0  0
   32.3229   16.4698   20.0332 C   0  0  0  0  0  0  0  0  0  0  0  0
   32.0748   15.5131   19.3013 O   0  0  0  0  0  0  0  0  0  0  0  0
   30.0314   17.0963   20.9162 C   0  0  0  0  0  0  0  0  0  0  0  0
   29.2663   15.9124   20.3257 C   0  0  0  0  0  0  0  0  0  0  0  0
   27.8120   16.2486   20.0255 C   0  0  0  0  0  0  0  0  0  0  0  0
   27.0725   15.0405   19.4589 C   0  0  0  0  0  0  0  0  0  0  0  0
   27.6460   14.5503   18.1582 N   0  0  0  0  0  0  0  0  0  0  0  0
   33.2627   17.1949   19.6938 O   0  0  0  0  0  0  0  0  0  0  0  0
  2  1  1  6  0  0  0
  2  3  1  0  0  0  0
  2  5  1  0  0  0  0
  3  4  1  0  0  0  0
  3 10  1  0  0  0  0
  5  6  1  0  0  0  0
  6  7  1  0  0  0  0
  7  8  1  0  0  0  0
  8  9  1  0  0  0  0
M  END
>  <CHROM.1>
171.28434940,-167.54345962,177.58184372,-179.09451244,-61.53372418,30.33513052
16.25667127,20.10597512,0.41116282,0.14005284,0.95609766

>  <Name>
ligand

>  <RI>
0

>  <Rbt.Current_Directory>
/home/itssahil/PROJECTS/Mol_Feturizer/New_Systems/rnas/3DIL

>  <Rbt.Executable>
rbdock ($Id: //depot/dev/client3/rdock/2013.1/src/exe/rbdock.cxx#4 $)

>  <Rbt.Library>
libRbt.so (2013.1, Build901 2013/11/27)

>  <Rbt.Parameter_File>
/export/apps/rDock/src/rDock_2013.1_src/data/scripts/dock_solv.prm

>  <Rbt.Receptor>
prm/blind_docking_60.prm

>  <SCORE>
-8.06848

>  <SCORE.INTER>
-7.53088

>  <SCORE.INTER.CONST>
1

>  <SCORE.INTER.POLAR>
0

>  <SCORE.INTER.ROT>
5

>  <SCORE.INTER.SOLV>
13.4702

>  <SCORE.INTER.VDW>
-16.444

>  <SCORE.INTER.norm>
-0.753088

>  <SCORE.INTRA>
-0.537594

>  <SCORE.INTRA.DIHEDRAL>
-0.85731

>  <SCORE.INTRA.DIHEDRAL.0>
2.93688

>  <SCORE.INTRA.POLAR>
0

>  <SCORE.INTRA.POLAR.0>
0

>  <SCORE.INTRA.REPUL>
0

>  <SCORE.INTRA.REPUL.0>
0

>  <SCORE.INTRA.SOLV>
-0.570516

>  <SCORE.INTRA.SOLV.lig_0>
-32.2816

>  <SCORE.INTRA.VDW>
0.176319

>  <SCORE.INTRA.VDW.0>
-0.749945

>  <SCORE.INTRA.norm>
-0.0537594

>  <SCORE.RESTR>
0

>  <SCORE.RESTR.CAVITY>
0

>  <SCORE.RESTR.norm>
0

>  <SCORE.SYSTEM>
0

>  <SCORE.SYSTEM.CONST>
0

>  <SCORE.SYSTEM.DIHEDRAL>
0

>  <SCORE.SYSTEM.SOLV>
0

>  <SCORE.SYSTEM.norm>
0

>  <SCORE.heavy>
10

>  <SCORE.norm>
-0.806848

>  <RMSD>
1.998

$$$$
ligand
 OpenBabel11021811473D
libRbt.so/2013.1/901 2013/11/27
 10  9  0  0  0  0  0  0  0  0999 V2000
   31.0550   17.8111   21.9245 N   0  0  0  0  0  0  0  0  0  0  0  0
   31.3353   16.3515   21.7772 C   0  0  2  0  0  0  0  0  0  0  0  0
   31.9733   16.0410   20.4235 C   0  0  0  0  0  0  0  0  0  0  0  0
   31.3546   15.4293   19.5544 O   0  0  0  0  0  0  0  0  0  0  0  0
   30.0655   15.5243   22.0099 C   0  0  0  0  0  0  0  0  0  0  0  0
   28.9207   15.9127   21.0749 C   0  0  0  0  0  0  0  0  0  0  0  0
   27.6756   15.0638   21.2927 C   0  0  0  0  0  0  0  0  0  0  0  0
   26.6274   15.3366   20.2184 C   0  0  0  0  0  0  0  0  0  0  0  0
   27.1163   15.0487   18.8259 N   0  0  0  0  0  0  0  0  0  0  0  0
   33.1155   16.4081   20.1326 O   0  0  0  0  0  0  0  0  0  0  0  0
  2  1  1  6  0  0  0
  2  3  1  0  0  0  0
  2  5  1  0  0  0  0
  3  4  1  0  0  0  0
  3 10  1  0  0  0  0
  5  6  1  0  0  0  0
  6  7  1  0  0  0  0
  7  8  1  0  0  0  0
  8  9  1  0  0  0  0
M  END
>  <CHROM.1>
-110.02970940,57.03985940,178.67970591,-171.82492628,59.54711981,29.94941669
15.88788054,20.69564748,0.20241815,0.18459270,1.18440587

>  <Name>
ligand

>  <RI>
0

>  <Rbt.Current_Directory>
/home/itssahil/PROJECTS/Mol_Feturizer/New_Systems/rnas/3DIL

>  <Rbt.Executable>
rbdock ($Id: //depot/dev/client3/rdock/2013.1/src/exe/rbdock.cxx#4 $)

>  <Rbt.Library>
libRbt.so (2013.1, Build901 2013/11/27)

>  <Rbt.Parameter_File>
/export/apps/rDock/src/rDock_2013.1_src/data/scripts/dock_solv.prm

>  <Rbt.Receptor>
prm/pocket_docking_2.prm

>  <SCORE>
-9.11577

>  <SCORE.INTER>
-9.69506

>  <SCORE.INTER.CONST>
1

>  <SCORE.INTER.POLAR>
0

>  <SCORE.INTER.ROT>
5

>  <SCORE.INTER.SOLV>
14.5214

>  <SCORE.INTER.VDW>
-18.2372

>  <SCORE.INTER.norm>
-0.969506

>  <SCORE.INTRA>
0.579287

>  <SCORE.INTRA.DIHEDRAL>
-1.12559

>  <SCORE.INTRA.DIHEDRAL.0>
2.93688

>  <SCORE.INTRA.POLAR>
0

>  <SCORE.INTRA.POLAR.0>
0

>  <SCORE.INTRA.REPUL>
0

>  <SCORE.INTRA.REPUL.0>
0

>  <SCORE.INTRA.SOLV>
0.4214

>  <SCORE.INTRA.SOLV.lig_0>
-32.2816

>  <SCORE.INTRA.VDW>
0.931383

>  <SCORE.INTRA.VDW.0>
-0.749945

>  <SCORE.INTRA.norm>
0.0579287

>  <SCORE.RESTR>
0

>  <SCORE.RESTR.CAVITY>
0

>  <SCORE.RESTR.norm>
0

>  <SCORE.SYSTEM>
0

>  <SCORE.SYSTEM.CONST>
0

>  <SCORE.SYSTEM.DIHEDRAL>
0

>  <SCORE.SYSTEM.SOLV>
0

>  <SCORE.SYSTEM.norm>
0

>  <SCORE.heavy>
10

>  <SCORE.norm>
-0.911577

>  <RMSD>
2.006

$$$$
ligand
 OpenBabel11021811473D
libRbt.so/2013.1/901 2013/11/27
 10  9  0  0  0  0  0  0  0  0999 V2000
   31.9891   17.8235   22.1229 N   0  0  0  0  0  0  0  0  0  0  0  0
   31.4087   16.7596   21.2499 C   0  0  2  0  0  0  0  0  0  0  0  0
   32.3008   16.4842   20.0399 C   0  0  0  0  0  0  0  0  0  0  0  0
   32.0844   15.5303   19.2945 O   0  0  0  0  0  0  0  0  0  0  0  0
   29.9774   17.1160   20.8312 C   0  0  0  0  0  0  0  0  0  0  0  0
   29.2151   15.9293   20.2425 C   0  0  0  0  0  0  0  0  0  0  0  0
   27.7799   16.2816   19.8759 C   0  0  0  0  0  0  0  0  0  0  0  0
   27.0311   15.0625   19.3465 C   0  0  0  0  0  0  0  0  0  0  0  0
   27.6153   14.5137   18.0743 N   0  0  0  0  0  0  0  0  0  0  0  0
   33.2523   17.2123   19.7421 O   0  0  0  0  0  0  0  0  0  0  0  0
  2  1  1  6  0  0  0
  2  3  1  0  0  0  0
  2  5  1  0  0  0  0
  3  4  1  0  0  0  0
  3 10  1  0  0  0  0
  5  6  1  0  0  0  0
  6  7  1  0  0  0  0
  7  8  1  0  0  0  0
  8  9  1  0  0  0  0
M  END
>  <CHROM.1>
170.75146863,-165.51808568,177.96866251,-177.62922026,-62.95506073,30.29549778
16.26759383,20.05846836,0.42961486,0.12149119,0.94401007

>  <Name>
ligand

>  <RI>
0

>  <Rbt.Current_Directory>
/home/itssahil/PROJECTS/Mol_Feturizer/New_Systems/rnas/3DIL

>  <Rbt.Executable>
rbdock ($Id: //depot/dev/client3/rdock/2013.1/src/exe/rbdock.cxx#4 $)

>  <Rbt.Library>
libRbt.so (2013.1, Build901 2013/11/27)

>  <Rbt.Parameter_File>
/export/apps/rDock/src/rDock_2013.1_src/data/scripts/dock_solv.prm

>  <Rbt.Receptor>
prm/pocket_docking_3.prm

>  <SCORE>
-8.03229

>  <SCORE.INTER>
-7.52688

>  <SCORE.INTER.CONST>
1

>  <SCORE.INTER.POLAR>
0

>  <SCORE.INTER.ROT>
5

>  <SCORE.INTER.SOLV>
13.6672

>  <SCORE.INTER.VDW>
-16.507

>  <SCORE.INTER.norm>
-0.752688

>  <SCORE.INTRA>
-0.50541

>  <SCORE.INTRA.DIHEDRAL>
-0.628038

>  <SCORE.INTRA.DIHEDRAL.0>
2.93688

>  <SCORE.INTRA.POLAR>
0

>  <SCORE.INTRA.POLAR.0>
0

>  <SCORE.INTRA.REPUL>
0

>  <SCORE.INTRA.REPUL.0>
0

>  <SCORE.INTRA.SOLV>
-0.59434

>  <SCORE.INTRA.SOLV.lig_0>
-32.2816

>  <SCORE.INTRA.VDW>
0.105779

>  <SCORE.INTRA.VDW.0>
-0.749945

>  <SCORE.INTRA.norm>
-0.050541

>  <SCORE.RESTR>
0

>  <SCORE.RESTR.CAVITY>
0

>  <SCORE.RESTR.norm>
0

>  <SCORE.SYSTEM>
0

>  <SCORE.SYSTEM.CONST>
0

>  <SCORE.SYSTEM.DIHEDRAL>
0

>  <SCORE.SYSTEM.SOLV>
0

>  <SCORE.SYSTEM.norm>
0

>  <SCORE.heavy>
10

>  <SCORE.norm>
-0.803229

>  <RMSD>
2.015

$$$$
ligand
 OpenBabel11021811473D
libRbt.so/2013.1/901 2013/11/27
 10  9  0  0  0  0  0  0  0  0999 V2000
   31.0782   17.8170   21.9269 N   0  0  0  0  0  0  0  0  0  0  0  0
   31.3411   16.3535   21.7865 C   0  0  2  0  0  0  0  0  0  0  0  0
   31.9513   16.0257   20.4241 C   0  0  0  0  0  0  0  0  0  0  0  0
   31.3151   15.4025   19.5759 O   0  0  0  0  0  0  0  0  0  0  0  0
   30.0675   15.5411   22.0490 C   0  0  0  0  0  0  0  0  0  0  0  0
   28.9090   15.9357   21.1336 C   0  0  0  0  0  0  0  0  0  0  0  0
   27.6620   15.0962   21.3756 C   0  0  0  0  0  0  0  0  0  0  0  0
   26.6039   15.3604   20.3090 C   0  0  0  0  0  0  0  0  0  0  0  0
   27.0621   15.0123   18.9198 N   0  0  0  0  0  0  0  0  0  0  0  0
   33.0869   16.3895   20.1048 O   0  0  0  0  0  0  0  0  0  0  0  0
  2  1  1  6  0  0  0
  2  3  1  0  0  0  0
  2  5  1  0  0  0  0
  3  4  1  0  0  0  0
  3 10  1  0  0  0  0
  5  6  1  0  0  0  0
  6  7  1  0  0  0  0
  7  8  1  0  0  0  0
  8  9  1  0  0  0  0
M  END
>  <CHROM.1>
-110.71728865,56.92558150,178.36991382,-171.07291314,61.30439798,29.93264644
15.88814535,20.73236860,0.18725823,0.18541634,1.17110941

>  <Name>
ligand

>  <RI>
0

>  <Rbt.Current_Directory>
/home/itssahil/PROJECTS/Mol_Feturizer/New_Systems/rnas/3DIL

>  <Rbt.Executable>
rbdock ($Id: //depot/dev/client3/rdock/2013.1/src/exe/rbdock.cxx#4 $)

>  <Rbt.Library>
libRbt.so (2013.1, Build901 2013/11/27)

>  <Rbt.Parameter_File>
/export/apps/rDock/src/rDock_2013.1_src/data/scripts/dock_solv.prm

>  <Rbt.Receptor>
prm/blind_docking_80.prm

>  <SCORE>
-9.14932

>  <SCORE.INTER>
-9.73043

>  <SCORE.INTER.CONST>
1

>  <SCORE.INTER.POLAR>
0

>  <SCORE.INTER.ROT>
5

>  <SCORE.INTER.SOLV>
14.64

>  <SCORE.INTER.VDW>
-18.3003

>  <SCORE.INTER.norm>
-0.973043

>  <SCORE.INTRA>
0.58111

>  <SCORE.INTRA.DIHEDRAL>
-1.05919

>  <SCORE.INTRA.DIHEDRAL.0>
2.93688

>  <SCORE.INTRA.POLAR>
0

>  <SCORE.INTRA.POLAR.0>
0

>  <SCORE.INTRA.REPUL>
0

>  <SCORE.INTRA.REPUL.0>
0

>  <SCORE.INTRA.SOLV>
0.402733

>  <SCORE.INTRA.SOLV.lig_0>
-32.2816

>  <SCORE.INTRA.VDW>
0.909337

>  <SCORE.INTRA.VDW.0>
-0.749945

>  <SCORE.INTRA.norm>
0.058111

>  <SCORE.RESTR>
0

>  <SCORE.RESTR.CAVITY>
0

>  <SCORE.RESTR.norm>
0

>  <SCORE.SYSTEM>
0

>  <SCORE.SYSTEM.CONST>
0

>  <SCORE.SYSTEM.DIHEDRAL>
0

>  <SCORE.SYSTEM.SOLV>
0

>  <SCORE.SYSTEM.norm>
0

>  <SCORE.heavy>
10

>  <SCORE.norm>
-0.914932

>  <RMSD>
2.017

$$$$
ligand
 OpenBabel11021811473D
libRbt.so/2013.1/901 2013/11/27
 10  9  0  0  0  0  0  0  0  0999 V2000
   31.4136   17.8507   22.2199 N   0  0  0  0  0  0  0  0  0  0  0  0
   31.6504   16.4304   21.8232 C   0  0  2  0  0  0  0  0  0  0  0  0
   32.2687   16.3376   20.4285 C   0  0  0  0  0  0  0  0  0  0  0  0
   31.8579   15.5229   19.6039 O   0  0  0  0  0  0  0  0  0  0  0  0
   30.3590   15.6105   21.9278 C   0  0  0  0  0  0  0  0  0  0  0  0
   29.2586   16.1084   20.9912 C   0  0  0  0  0  0  0  0  0  0  0  0
   27.9519   15.3476   21.1696 C   0  0  0  0  0  0  0  0  0  0  0  0
   26.9153   15.7830   20.1386 C   0  0  0  0  0  0  0  0  0  0  0  0
   25.5644   15.1591   20.3555 N   0  0  0  0  0  0  0  0  0  0  0  0
   33.1798   17.0844   20.0595 O   0  0  0  0  0  0  0  0  0  0  0  0
  2  1  1  6  0  0  0
  2  3  1  0  0  0  0
  2  5  1  0  0  0  0
  3  4  1  0  0  0  0
  3 10  1  0  0  0  0
  5  6  1  0  0  0  0
  6  7  1  0  0  0  0
  7  8  1  0  0  0  0
  8  9  1  0  0  0  0
M  END
>  <CHROM.1>
-135.31769451,62.25137908,-176.16214349,-174.94994300,-174.37368635,30.06834534
16.12314291,20.84213573,0.12201782,0.18838220,1.12791150

>  <Name>
ligand

>  <RI>
0

>  <Rbt.Current_Directory>
/home/itssahil/PROJECTS/Mol_Feturizer/New_Systems/rnas/3DIL

>  <Rbt.Executable>
rbdock ($Id: //depot/dev/client3/rdock/2013.1/src/exe/rbdock.cxx#4 $)

>  <Rbt.Library>
libRbt.so (2013.1, Build901 2013/11/27)

>  <Rbt.Parameter_File>
/export/apps/rDock/src/rDock_2013.1_src/data/scripts/dock_solv.prm

>  <Rbt.Receptor>
prm/pocket_docking_8.prm

>  <SCORE>
-7.73916

>  <SCORE.INTER>
-7.68562

>  <SCORE.INTER.CONST>
1

>  <SCORE.INTER.POLAR>
0

>  <SCORE.INTER.ROT>
5

>  <SCORE.INTER.SOLV>
18.5655

>  <SCORE.INTER.VDW>
-18.2456

>  <SCORE.INTER.norm>
-0.768562

>  <SCORE.INTRA>
-0.0535423

>  <SCORE.INTRA.DIHEDRAL>
-1.08466

>  <SCORE.INTRA.DIHEDRAL.0>
2.93688

>  <SCORE.INTRA.POLAR>
0

>  <SCORE.INTRA.POLAR.0>
0

>  <SCORE.INTRA.REPUL>
0

>  <SCORE.INTRA.REPUL.0>
0

>  <SCORE.INTRA.SOLV>
-0.605754

>  <SCORE.INTRA.SOLV.lig_0>
-32.2816

>  <SCORE.INTRA.VDW>
0.791666

>  <SCORE.INTRA.VDW.0>
-0.749945

>  <SCORE.INTRA.norm>
-0.00535423

>  <SCORE.RESTR>
0

>  <SCORE.RESTR.CAVITY>
0

>  <SCORE.RESTR.norm>
0

>  <SCORE.SYSTEM>
0

>  <SCORE.SYSTEM.CONST>
0

>  <SCORE.SYSTEM.DIHEDRAL>
0

>  <SCORE.SYSTEM.SOLV>
0

>  <SCORE.SYSTEM.norm>
0

>  <SCORE.heavy>
10

>  <SCORE.norm>
-0.773916

>  <RMSD>
2.019

$$$$
ligand
 OpenBabel11021811473D
libRbt.so/2013.1/901 2013/11/27
 10  9  0  0  0  0  0  0  0  0999 V2000
   32.6512   18.0741   22.3073 N   0  0  0  0  0  0  0  0  0  0  0  0
   32.1406   16.7723   21.7828 C   0  0  2  0  0  0  0  0  0  0  0  0
   32.5744   16.5467   20.3348 C   0  0  0  0  0  0  0  0  0  0  0  0
   33.3696   17.3060   19.7837 O   0  0  0  0  0  0  0  0  0  0  0  0
   30.6184   16.6778   21.9412 C   0  0  0  0  0  0  0  0  0  0  0  0
   30.0726   15.2825   21.6395 C   0  0  0  0  0  0  0  0  0  0  0  0
   28.5559   15.2122   21.7521 C   0  0  0  0  0  0  0  0  0  0  0  0
   27.8827   15.9813   20.6196 C   0  0  0  0  0  0  0  0  0  0  0  0
   28.1503   15.3931   19.2619 N   0  0  0  0  0  0  0  0  0  0  0  0
   32.1730   15.5890   19.6671 O   0  0  0  0  0  0  0  0  0  0  0  0
  2  1  1  6  0  0  0
  2  3  1  0  0  0  0
  2  5  1  0  0  0  0
  3  4  1  0  0  0  0
  3 10  1  0  0  0  0
  5  6  1  0  0  0  0
  6  7  1  0  0  0  0
  7  8  1  0  0  0  0
  8  9  1  0  0  0  0
M  END
>  <CHROM.1>
7.60498965,-170.36504424,-177.98518752,69.99207188,64.51499606,30.83905342
16.28071628,20.87791894,0.14067452,0.32203147,1.25014494

>  <Name>
ligand

>  <RI>
0

>  <Rbt.Current_Directory>
/home/itssahil/PROJECTS/Mol_Feturizer/New_Systems/rnas/3DIL

>  <Rbt.Executable>
rbdock ($Id: //depot/dev/client3/rdock/2013.1/src/exe/rbdock.cxx#4 $)

>  <Rbt.Library>
libRbt.so (2013.1, Build901 2013/11/27)

>  <Rbt.Parameter_File>
/export/apps/rDock/src/rDock_2013.1_src/data/scripts/dock_solv.prm

>  <Rbt.Receptor>
prm/pocket_docking_5.prm

>  <SCORE>
-8.41108

>  <SCORE.INTER>
-8.89047

>  <SCORE.INTER.CONST>
1

>  <SCORE.INTER.POLAR>
0

>  <SCORE.INTER.ROT>
5

>  <SCORE.INTER.SOLV>
11.5814

>  <SCORE.INTER.VDW>
-16.7208

>  <SCORE.INTER.norm>
-0.889047

>  <SCORE.INTRA>
0.479395

>  <SCORE.INTRA.DIHEDRAL>
-0.606316

>  <SCORE.INTRA.DIHEDRAL.0>
2.93688

>  <SCORE.INTRA.POLAR>
0

>  <SCORE.INTRA.POLAR.0>
0

>  <SCORE.INTRA.REPUL>
0

>  <SCORE.INTRA.REPUL.0>
0

>  <SCORE.INTRA.SOLV>
-0.124317

>  <SCORE.INTRA.SOLV.lig_0>
-32.2816

>  <SCORE.INTRA.VDW>
0.844711

>  <SCORE.INTRA.VDW.0>
-0.749945

>  <SCORE.INTRA.norm>
0.0479395

>  <SCORE.RESTR>
0

>  <SCORE.RESTR.CAVITY>
0

>  <SCORE.RESTR.norm>
0

>  <SCORE.SYSTEM>
0

>  <SCORE.SYSTEM.CONST>
0

>  <SCORE.SYSTEM.DIHEDRAL>
0

>  <SCORE.SYSTEM.SOLV>
0

>  <SCORE.SYSTEM.norm>
0

>  <SCORE.heavy>
10

>  <SCORE.norm>
-0.841108

>  <RMSD>
2.022

$$$$
ligand
 OpenBabel11021811473D
libRbt.so/2013.1/901 2013/11/27
 10  9  0  0  0  0  0  0  0  0999 V2000
   31.0656   17.8052   21.9398 N   0  0  0  0  0  0  0  0  0  0  0  0
   31.3246   16.3414   21.7954 C   0  0  2  0  0  0  0  0  0  0  0  0
   31.9403   16.0165   20.4348 C   0  0  0  0  0  0  0  0  0  0  0  0
   33.0990   16.3316   20.1697 O   0  0  0  0  0  0  0  0  0  0  0  0
   30.0472   15.5321   22.0489 C   0  0  0  0  0  0  0  0  0  0  0  0
   28.8944   15.9332   21.1291 C   0  0  0  0  0  0  0  0  0  0  0  0
   27.6375   15.1102   21.3758 C   0  0  0  0  0  0  0  0  0  0  0  0
   26.5851   15.3761   20.3038 C   0  0  0  0  0  0  0  0  0  0  0  0
   27.0456   15.0168   18.9183 N   0  0  0  0  0  0  0  0  0  0  0  0
   31.3203   15.4065   19.5586 O   0  0  0  0  0  0  0  0  0  0  0  0
  2  1  1  6  0  0  0
  2  3  1  0  0  0  0
  2  5  1  0  0  0  0
  3  4  1  0  0  0  0
  3 10  1  0  0  0  0
  5  6  1  0  0  0  0
  6  7  1  0  0  0  0
  7  8  1  0  0  0  0
  8  9  1  0  0  0  0
M  END
>  <CHROM.1>
71.32658614,56.94177887,179.18260287,-170.93234589,60.98891883,29.92149512
15.88120865,20.73968381,0.18920422,0.17449041,1.16616761

>  <Name>
ligand

>  <RI>
0

>  <Rbt.Current_Directory>
/home/itssahil/PROJECTS/Mol_Feturizer/New_Systems/rnas/3DIL

>  <Rbt.Executable>
rbdock ($Id: //depot/dev/client3/rdock/2013.1/src/exe/rbdock.cxx#4 $)

>  <Rbt.Library>
libRbt.so (2013.1, Build901 2013/11/27)

>  <Rbt.Parameter_File>
/export/apps/rDock/src/rDock_2013.1_src/data/scripts/dock_solv.prm

>  <Rbt.Receptor>
prm/blind_docking_100.prm

>  <SCORE>
-9.2525

>  <SCORE.INTER>
-9.71918

>  <SCORE.INTER.CONST>
1

>  <SCORE.INTER.POLAR>
0

>  <SCORE.INTER.ROT>
5

>  <SCORE.INTER.SOLV>
14.6769

>  <SCORE.INTER.VDW>
-18.3051

>  <SCORE.INTER.norm>
-0.971918

>  <SCORE.INTRA>
0.466674

>  <SCORE.INTRA.DIHEDRAL>
-1.0123

>  <SCORE.INTRA.DIHEDRAL.0>
2.93688

>  <SCORE.INTRA.POLAR>
0

>  <SCORE.INTRA.POLAR.0>
0

>  <SCORE.INTRA.REPUL>
0

>  <SCORE.INTRA.REPUL.0>
0

>  <SCORE.INTRA.SOLV>
0.400749

>  <SCORE.INTRA.SOLV.lig_0>
-32.2816

>  <SCORE.INTRA.VDW>
0.772448

>  <SCORE.INTRA.VDW.0>
-0.749945

>  <SCORE.INTRA.norm>
0.0466674

>  <SCORE.RESTR>
0

>  <SCORE.RESTR.CAVITY>
0

>  <SCORE.RESTR.norm>
0

>  <SCORE.SYSTEM>
0

>  <SCORE.SYSTEM.CONST>
0

>  <SCORE.SYSTEM.DIHEDRAL>
0

>  <SCORE.SYSTEM.SOLV>
0

>  <SCORE.SYSTEM.norm>
0

>  <SCORE.heavy>
10

>  <SCORE.norm>
-0.92525

>  <RMSD>
2.023

$$$$
ligand
 OpenBabel11021811473D
libRbt.so/2013.1/901 2013/11/27
 10  9  0  0  0  0  0  0  0  0999 V2000
   31.0682   17.8128   21.9488 N   0  0  0  0  0  0  0  0  0  0  0  0
   31.3359   16.3530   21.7812 C   0  0  2  0  0  0  0  0  0  0  0  0
   31.9299   16.0502   20.4060 C   0  0  0  0  0  0  0  0  0  0  0  0
   33.0537   16.4437   20.0982 O   0  0  0  0  0  0  0  0  0  0  0  0
   30.0695   15.5305   22.0468 C   0  0  0  0  0  0  0  0  0  0  0  0
   28.9035   15.9207   21.1391 C   0  0  0  0  0  0  0  0  0  0  0  0
   27.6595   15.0802   21.3932 C   0  0  0  0  0  0  0  0  0  0  0  0
   26.5923   15.3411   20.3348 C   0  0  0  0  0  0  0  0  0  0  0  0
   27.0516   15.0247   18.9384 N   0  0  0  0  0  0  0  0  0  0  0  0
   31.3284   15.3821   19.5599 O   0  0  0  0  0  0  0  0  0  0  0  0
  2  1  1  6  0  0  0
  2  3  1  0  0  0  0
  2  5  1  0  0  0  0
  3  4  1  0  0  0  0
  3 10  1  0  0  0  0
  5  6  1  0  0  0  0
  6  7  1  0  0  0  0
  7  8  1  0  0  0  0
  8  9  1  0  0  0  0
M  END
>  <CHROM.1>
67.18102633,57.75155666,178.91678792,-171.14730041,59.79760979,29.92431058
15.88878211,20.73643060,0.18316973,0.19403642,1.17717320

>  <Name>
ligand

>  <RI>
0

>  <Rbt.Current_Directory>
/home/itssahil/PROJECTS/Mol_Feturizer/New_Systems/rnas/3DIL

>  <Rbt.Executable>
rbdock ($Id: //depot/dev/client3/rdock/2013.1/src/exe/rbdock.cxx#4 $)

>  <Rbt.Library>
libRbt.so (2013.1, Build901 2013/11/27)

>  <Rbt.Parameter_File>
/export/apps/rDock/src/rDock_2013.1_src/data/scripts/dock_solv.prm

>  <Rbt.Receptor>
prm/pocket_docking_7.prm

>  <SCORE>
-9.26883

>  <SCORE.INTER>
-9.7507

>  <SCORE.INTER.CONST>
1

>  <SCORE.INTER.POLAR>
0

>  <SCORE.INTER.ROT>
5

>  <SCORE.INTER.SOLV>
14.6645

>  <SCORE.INTER.VDW>
-18.322

>  <SCORE.INTER.norm>
-0.97507

>  <SCORE.INTRA>
0.481873

>  <SCORE.INTRA.DIHEDRAL>
-1.05889

>  <SCORE.INTRA.DIHEDRAL.0>
2.93688

>  <SCORE.INTRA.POLAR>
0

>  <SCORE.INTRA.POLAR.0>
0

>  <SCORE.INTRA.REPUL>
0

>  <SCORE.INTRA.REPUL.0>
0

>  <SCORE.INTRA.SOLV>
0.405652

>  <SCORE.INTRA.SOLV.lig_0>
-32.2816

>  <SCORE.INTRA.VDW>
0.808492

>  <SCORE.INTRA.VDW.0>
-0.749945

>  <SCORE.INTRA.norm>
0.0481873

>  <SCORE.RESTR>
0

>  <SCORE.RESTR.CAVITY>
0

>  <SCORE.RESTR.norm>
0

>  <SCORE.SYSTEM>
0

>  <SCORE.SYSTEM.CONST>
0

>  <SCORE.SYSTEM.DIHEDRAL>
0

>  <SCORE.SYSTEM.SOLV>
0

>  <SCORE.SYSTEM.norm>
0

>  <SCORE.heavy>
10

>  <SCORE.norm>
-0.926883

>  <RMSD>
2.026

$$$$
ligand
 OpenBabel11021811473D
libRbt.so/2013.1/901 2013/11/27
 10  9  0  0  0  0  0  0  0  0999 V2000
   31.1460   17.7680   22.0175 N   0  0  0  0  0  0  0  0  0  0  0  0
   31.3773   16.3087   21.7987 C   0  0  2  0  0  0  0  0  0  0  0  0
   31.9598   16.0392   20.4117 C   0  0  0  0  0  0  0  0  0  0  0  0
   33.0703   16.4624   20.0952 O   0  0  0  0  0  0  0  0  0  0  0  0
   30.0918   15.5088   22.0404 C   0  0  0  0  0  0  0  0  0  0  0  0
   28.9369   15.9496   21.1416 C   0  0  0  0  0  0  0  0  0  0  0  0
   27.6815   15.1144   21.3526 C   0  0  0  0  0  0  0  0  0  0  0  0
   26.6256   15.4298   20.2977 C   0  0  0  0  0  0  0  0  0  0  0  0
   27.0917   15.1624   18.8933 N   0  0  0  0  0  0  0  0  0  0  0  0
   31.3624   15.3698   19.5637 O   0  0  0  0  0  0  0  0  0  0  0  0
  2  1  1  6  0  0  0
  2  3  1  0  0  0  0
  2  5  1  0  0  0  0
  3  4  1  0  0  0  0
  3 10  1  0  0  0  0
  5  6  1  0  0  0  0
  6  7  1  0  0  0  0
  7  8  1  0  0  0  0
  8  9  1  0  0  0  0
M  END
>  <CHROM.1>
64.19215105,58.29785569,177.83391290,-171.07846626,59.86862256,29.95911527
15.90661336,20.73285815,0.18137315,0.17825860,1.21023218

>  <Name>
ligand

>  <RI>
0

>  <Rbt.Current_Directory>
/home/itssahil/PROJECTS/Mol_Feturizer/New_Systems/rnas/3DIL

>  <Rbt.Executable>
rbdock ($Id: //depot/dev/client3/rdock/2013.1/src/exe/rbdock.cxx#4 $)

>  <Rbt.Library>
libRbt.so (2013.1, Build901 2013/11/27)

>  <Rbt.Parameter_File>
/export/apps/rDock/src/rDock_2013.1_src/data/scripts/dock_solv.prm

>  <Rbt.Receptor>
prm/pocket_docking_8.prm

>  <SCORE>
-9.18745

>  <SCORE.INTER>
-9.66943

>  <SCORE.INTER.CONST>
1

>  <SCORE.INTER.POLAR>
0

>  <SCORE.INTER.ROT>
5

>  <SCORE.INTER.SOLV>
14.3016

>  <SCORE.INTER.VDW>
-18.1468

>  <SCORE.INTER.norm>
-0.966943

>  <SCORE.INTRA>
0.481987

>  <SCORE.INTRA.DIHEDRAL>
-1.05736

>  <SCORE.INTRA.DIHEDRAL.0>
2.93688

>  <SCORE.INTRA.POLAR>
0

>  <SCORE.INTRA.POLAR.0>
0

>  <SCORE.INTRA.REPUL>
0

>  <SCORE.INTRA.REPUL.0>
0

>  <SCORE.INTRA.SOLV>
0.394637

>  <SCORE.INTRA.SOLV.lig_0>
-32.2816

>  <SCORE.INTRA.VDW>
0.81335

>  <SCORE.INTRA.VDW.0>
-0.749945

>  <SCORE.INTRA.norm>
0.0481987

>  <SCORE.RESTR>
0

>  <SCORE.RESTR.CAVITY>
0

>  <SCORE.RESTR.norm>
0

>  <SCORE.SYSTEM>
0

>  <SCORE.SYSTEM.CONST>
0

>  <SCORE.SYSTEM.DIHEDRAL>
0

>  <SCORE.SYSTEM.SOLV>
0

>  <SCORE.SYSTEM.norm>
0

>  <SCORE.heavy>
10

>  <SCORE.norm>
-0.918745

>  <RMSD>
2.028

$$$$
ligand
 OpenBabel11021811473D
libRbt.so/2013.1/901 2013/11/27
 10  9  0  0  0  0  0  0  0  0999 V2000
   32.3658   17.9378   22.3100 N   0  0  0  0  0  0  0  0  0  0  0  0
   31.7293   16.9158   21.4263 C   0  0  2  0  0  0  0  0  0  0  0  0
   32.6429   16.5423   20.2593 C   0  0  0  0  0  0  0  0  0  0  0  0
   33.7367   17.0842   20.1095 O   0  0  0  0  0  0  0  0  0  0  0  0
   30.3545   17.3914   20.9419 C   0  0  0  0  0  0  0  0  0  0  0  0
   29.5386   16.2816   20.2797 C   0  0  0  0  0  0  0  0  0  0  0  0
   28.2250   16.7891   19.7007 C   0  0  0  0  0  0  0  0  0  0  0  0
   27.3760   15.6387   19.1687 C   0  0  0  0  0  0  0  0  0  0  0  0
   26.9642   14.6624   20.2357 N   0  0  0  0  0  0  0  0  0  0  0  0
   32.3417   15.6713   19.4379 O   0  0  0  0  0  0  0  0  0  0  0  0
  2  1  1  6  0  0  0
  2  3  1  0  0  0  0
  2  5  1  0  0  0  0
  3  4  1  0  0  0  0
  3 10  1  0  0  0  0
  5  6  1  0  0  0  0
  6  7  1  0  0  0  0
  7  8  1  0  0  0  0
  8  9  1  0  0  0  0
M  END
>  <CHROM.1>
-1.84480545,-168.07094979,-175.27836345,-174.51419782,62.72837752,30.55913060
16.48458630,20.36397978,0.29942207,0.09511537,0.88887925

>  <Name>
ligand

>  <RI>
0

>  <Rbt.Current_Directory>
/home/itssahil/PROJECTS/Mol_Feturizer/New_Systems/rnas/3DIL

>  <Rbt.Executable>
rbdock ($Id: //depot/dev/client3/rdock/2013.1/src/exe/rbdock.cxx#4 $)

>  <Rbt.Library>
libRbt.so (2013.1, Build901 2013/11/27)

>  <Rbt.Parameter_File>
/export/apps/rDock/src/rDock_2013.1_src/data/scripts/dock_solv.prm

>  <Rbt.Receptor>
prm/pocket_docking_6.prm

>  <SCORE>
-7.15282

>  <SCORE.INTER>
-6.79383

>  <SCORE.INTER.CONST>
1

>  <SCORE.INTER.POLAR>
0

>  <SCORE.INTER.ROT>
5

>  <SCORE.INTER.SOLV>
14.9205

>  <SCORE.INTER.VDW>
-16.4361

>  <SCORE.INTER.norm>
-0.679383

>  <SCORE.INTRA>
-0.358983

>  <SCORE.INTRA.DIHEDRAL>
-0.656592

>  <SCORE.INTRA.DIHEDRAL.0>
2.93688

>  <SCORE.INTRA.POLAR>
0

>  <SCORE.INTRA.POLAR.0>
0

>  <SCORE.INTRA.REPUL>
0

>  <SCORE.INTRA.REPUL.0>
0

>  <SCORE.INTRA.SOLV>
-0.543186

>  <SCORE.INTRA.SOLV.lig_0>
-32.2816

>  <SCORE.INTRA.VDW>
0.240906

>  <SCORE.INTRA.VDW.0>
-0.749945

>  <SCORE.INTRA.norm>
-0.0358983

>  <SCORE.RESTR>
0

>  <SCORE.RESTR.CAVITY>
0

>  <SCORE.RESTR.norm>
0

>  <SCORE.SYSTEM>
0

>  <SCORE.SYSTEM.CONST>
0

>  <SCORE.SYSTEM.DIHEDRAL>
0

>  <SCORE.SYSTEM.SOLV>
0

>  <SCORE.SYSTEM.norm>
0

>  <SCORE.heavy>
10

>  <SCORE.norm>
-0.715282

>  <RMSD>
2.032

$$$$
ligand
 OpenBabel11021811473D
libRbt.so/2013.1/901 2013/11/27
 10  9  0  0  0  0  0  0  0  0999 V2000
   31.0169   17.7645   21.9884 N   0  0  0  0  0  0  0  0  0  0  0  0
   31.2697   16.3048   21.7989 C   0  0  2  0  0  0  0  0  0  0  0  0
   31.8831   16.0193   20.4284 C   0  0  0  0  0  0  0  0  0  0  0  0
   33.0298   16.3726   20.1591 O   0  0  0  0  0  0  0  0  0  0  0  0
   29.9892   15.4934   22.0284 C   0  0  0  0  0  0  0  0  0  0  0  0
   28.8454   15.9096   21.1040 C   0  0  0  0  0  0  0  0  0  0  0  0
   27.5922   15.0701   21.3118 C   0  0  0  0  0  0  0  0  0  0  0  0
   26.5528   15.3546   20.2320 C   0  0  0  0  0  0  0  0  0  0  0  0
   27.0311   15.0221   18.8458 N   0  0  0  0  0  0  0  0  0  0  0  0
   31.2739   15.4050   19.5478 O   0  0  0  0  0  0  0  0  0  0  0  0
  2  1  1  6  0  0  0
  2  3  1  0  0  0  0
  2  5  1  0  0  0  0
  3  4  1  0  0  0  0
  3 10  1  0  0  0  0
  5  6  1  0  0  0  0
  6  7  1  0  0  0  0
  7  8  1  0  0  0  0
  8  9  1  0  0  0  0
M  END
>  <CHROM.1>
69.17588819,58.02924149,178.29525672,-170.85402590,61.54112038,29.87384347
15.86674054,20.71660911,0.20256180,0.17909540,1.18948747

>  <Name>
ligand

>  <RI>
0

>  <Rbt.Current_Directory>
/home/itssahil/PROJECTS/Mol_Feturizer/New_Systems/rnas/3DIL

>  <Rbt.Executable>
rbdock ($Id: //depot/dev/client3/rdock/2013.1/src/exe/rbdock.cxx#4 $)

>  <Rbt.Library>
libRbt.so (2013.1, Build901 2013/11/27)

>  <Rbt.Parameter_File>
/export/apps/rDock/src/rDock_2013.1_src/data/scripts/dock_solv.prm

>  <Rbt.Receptor>
prm/pocket_docking_2.prm

>  <SCORE>
-9.24011

>  <SCORE.INTER>
-9.71598

>  <SCORE.INTER.CONST>
1

>  <SCORE.INTER.POLAR>
0

>  <SCORE.INTER.ROT>
5

>  <SCORE.INTER.SOLV>
14.833

>  <SCORE.INTER.VDW>
-18.355

>  <SCORE.INTER.norm>
-0.971598

>  <SCORE.INTRA>
0.475867

>  <SCORE.INTRA.DIHEDRAL>
-1.0214

>  <SCORE.INTRA.DIHEDRAL.0>
2.93688

>  <SCORE.INTRA.POLAR>
0

>  <SCORE.INTRA.POLAR.0>
0

>  <SCORE.INTRA.REPUL>
0

>  <SCORE.INTRA.REPUL.0>
0

>  <SCORE.INTRA.SOLV>
0.376583

>  <SCORE.INTRA.SOLV.lig_0>
-32.2816

>  <SCORE.INTRA.VDW>
0.798277

>  <SCORE.INTRA.VDW.0>
-0.749945

>  <SCORE.INTRA.norm>
0.0475867

>  <SCORE.RESTR>
0

>  <SCORE.RESTR.CAVITY>
0

>  <SCORE.RESTR.norm>
0

>  <SCORE.SYSTEM>
0

>  <SCORE.SYSTEM.CONST>
0

>  <SCORE.SYSTEM.DIHEDRAL>
0

>  <SCORE.SYSTEM.SOLV>
0

>  <SCORE.SYSTEM.norm>
0

>  <SCORE.heavy>
10

>  <SCORE.norm>
-0.924011

>  <RMSD>
2.047

$$$$
ligand
 OpenBabel11021811473D
libRbt.so/2013.1/901 2013/11/27
 10  9  0  0  0  0  0  0  0  0999 V2000
   31.0941   17.6767   22.0184 N   0  0  0  0  0  0  0  0  0  0  0  0
   31.3305   16.2178   21.8029 C   0  0  2  0  0  0  0  0  0  0  0  0
   31.9086   15.9466   20.4143 C   0  0  0  0  0  0  0  0  0  0  0  0
   33.0733   16.2336   20.1434 O   0  0  0  0  0  0  0  0  0  0  0  0
   30.0493   15.4133   22.0521 C   0  0  0  0  0  0  0  0  0  0  0  0
   28.8940   15.8351   21.1447 C   0  0  0  0  0  0  0  0  0  0  0  0
   27.6339   15.0149   21.3848 C   0  0  0  0  0  0  0  0  0  0  0  0
   26.5713   15.3159   20.3324 C   0  0  0  0  0  0  0  0  0  0  0  0
   27.0128   14.9883   18.9329 N   0  0  0  0  0  0  0  0  0  0  0  0
   31.2503   15.4091   19.5189 O   0  0  0  0  0  0  0  0  0  0  0  0
  2  1  1  6  0  0  0
  2  3  1  0  0  0  0
  2  5  1  0  0  0  0
  3  4  1  0  0  0  0
  3 10  1  0  0  0  0
  5  6  1  0  0  0  0
  6  7  1  0  0  0  0
  7  8  1  0  0  0  0
  8  9  1  0  0  0  0
M  END
>  <CHROM.1>
72.88792178,59.00687496,179.06698134,-171.61608867,61.03392461,29.90649653
15.80046307,20.74598881,0.17876468,0.17986323,1.21122578

>  <Name>
ligand

>  <RI>
0

>  <Rbt.Current_Directory>
/home/itssahil/PROJECTS/Mol_Feturizer/New_Systems/rnas/3DIL

>  <Rbt.Executable>
rbdock ($Id: //depot/dev/client3/rdock/2013.1/src/exe/rbdock.cxx#4 $)

>  <Rbt.Library>
libRbt.so (2013.1, Build901 2013/11/27)

>  <Rbt.Parameter_File>
/export/apps/rDock/src/rDock_2013.1_src/data/scripts/dock_solv.prm

>  <Rbt.Receptor>
prm/pocket_docking_2.prm

>  <SCORE>
-9.1842

>  <SCORE.INTER>
-9.65795

>  <SCORE.INTER.CONST>
1

>  <SCORE.INTER.POLAR>
0

>  <SCORE.INTER.ROT>
5

>  <SCORE.INTER.SOLV>
14.6208

>  <SCORE.INTER.VDW>
-18.2456

>  <SCORE.INTER.norm>
-0.965795

>  <SCORE.INTRA>
0.473746

>  <SCORE.INTRA.DIHEDRAL>
-1.09342

>  <SCORE.INTRA.DIHEDRAL.0>
2.93688

>  <SCORE.INTRA.POLAR>
0

>  <SCORE.INTRA.POLAR.0>
0

>  <SCORE.INTRA.REPUL>
0

>  <SCORE.INTRA.REPUL.0>
0

>  <SCORE.INTRA.SOLV>
0.367729

>  <SCORE.INTRA.SOLV.lig_0>
-32.2816

>  <SCORE.INTRA.VDW>
0.836591

>  <SCORE.INTRA.VDW.0>
-0.749945

>  <SCORE.INTRA.norm>
0.0473746

>  <SCORE.RESTR>
0

>  <SCORE.RESTR.CAVITY>
0

>  <SCORE.RESTR.norm>
0

>  <SCORE.SYSTEM>
0

>  <SCORE.SYSTEM.CONST>
0

>  <SCORE.SYSTEM.DIHEDRAL>
0

>  <SCORE.SYSTEM.SOLV>
0

>  <SCORE.SYSTEM.norm>
0

>  <SCORE.heavy>
10

>  <SCORE.norm>
-0.91842

>  <RMSD>
2.055

$$$$
ligand
 OpenBabel11021811473D
libRbt.so/2013.1/901 2013/11/27
 10  9  0  0  0  0  0  0  0  0999 V2000
   30.6894   16.0396   22.1109 N   0  0  0  0  0  0  0  0  0  0  0  0
   30.7205   15.9568   20.6200 C   0  0  2  0  0  0  0  0  0  0  0  0
   32.0907   16.3504   20.0691 C   0  0  0  0  0  0  0  0  0  0  0  0
   32.7807   17.2006   20.6289 O   0  0  0  0  0  0  0  0  0  0  0  0
   29.5968   16.7971   20.0018 C   0  0  0  0  0  0  0  0  0  0  0  0
   28.2027   16.3185   20.4058 C   0  0  0  0  0  0  0  0  0  0  0  0
   27.8772   14.9371   19.8542 C   0  0  0  0  0  0  0  0  0  0  0  0
   27.7483   14.9667   18.3345 C   0  0  0  0  0  0  0  0  0  0  0  0
   27.4368   13.6215   17.7392 N   0  0  0  0  0  0  0  0  0  0  0  0
   32.5748   15.8212   19.0643 O   0  0  0  0  0  0  0  0  0  0  0  0
  2  1  1  1  0  0  0
  2  3  1  0  0  0  0
  2  5  1  0  0  0  0
  3  4  1  0  0  0  0
  3 10  1  0  0  0  0
  5  6  1  0  0  0  0
  6  7  1  0  0  0  0
  7  8  1  0  0  0  0
  8  9  1  0  0  0  0
M  END
>  <CHROM.1>
-32.89704398,-61.92083637,-66.13194585,-67.40918961,179.57097702,30.01208730
15.81209741,19.87393836,0.48222193,0.19110183,1.08849304

>  <Name>
ligand

>  <RI>
0

>  <Rbt.Current_Directory>
/home/itssahil/PROJECTS/Mol_Feturizer/New_Systems/rnas/3DIL

>  <Rbt.Executable>
rbdock ($Id: //depot/dev/client3/rdock/2013.1/src/exe/rbdock.cxx#4 $)

>  <Rbt.Library>
libRbt.so (2013.1, Build901 2013/11/27)

>  <Rbt.Parameter_File>
/export/apps/rDock/src/rDock_2013.1_src/data/scripts/dock_solv.prm

>  <Rbt.Receptor>
prm/pocket_docking_5.prm

>  <SCORE>
-6.70207

>  <SCORE.INTER>
-6.89678

>  <SCORE.INTER.CONST>
1

>  <SCORE.INTER.POLAR>
0

>  <SCORE.INTER.ROT>
5

>  <SCORE.INTER.SOLV>
16.0067

>  <SCORE.INTER.VDW>
-16.8668

>  <SCORE.INTER.norm>
-0.689678

>  <SCORE.INTRA>
0.194709

>  <SCORE.INTRA.DIHEDRAL>
-0.971524

>  <SCORE.INTRA.DIHEDRAL.0>
2.93688

>  <SCORE.INTRA.POLAR>
0

>  <SCORE.INTRA.POLAR.0>
0

>  <SCORE.INTRA.REPUL>
0

>  <SCORE.INTRA.REPUL.0>
0

>  <SCORE.INTRA.SOLV>
0.122402

>  <SCORE.INTRA.SOLV.lig_0>
-32.2816

>  <SCORE.INTRA.VDW>
0.61927

>  <SCORE.INTRA.VDW.0>
-0.749945

>  <SCORE.INTRA.norm>
0.0194709

>  <SCORE.RESTR>
0

>  <SCORE.RESTR.CAVITY>
0

>  <SCORE.RESTR.norm>
0

>  <SCORE.SYSTEM>
0

>  <SCORE.SYSTEM.CONST>
0

>  <SCORE.SYSTEM.DIHEDRAL>
0

>  <SCORE.SYSTEM.SOLV>
0

>  <SCORE.SYSTEM.norm>
0

>  <SCORE.heavy>
10

>  <SCORE.norm>
-0.670207

>  <RMSD>
2.074

$$$$
ligand
 OpenBabel11021811473D
libRbt.so/2013.1/901 2013/11/27
 10  9  0  0  0  0  0  0  0  0999 V2000
   31.9502   17.7260   22.2161 N   0  0  0  0  0  0  0  0  0  0  0  0
   31.3783   16.4620   21.6630 C   0  0  2  0  0  0  0  0  0  0  0  0
   31.8613   16.2104   20.2350 C   0  0  0  0  0  0  0  0  0  0  0  0
   31.3549   15.3330   19.5378 O   0  0  0  0  0  0  0  0  0  0  0  0
   29.8477   16.4690   21.7522 C   0  0  0  0  0  0  0  0  0  0  0  0
   29.2293   15.0933   21.5049 C   0  0  0  0  0  0  0  0  0  0  0  0
   27.7073   15.1310   21.4943 C   0  0  0  0  0  0  0  0  0  0  0  0
   27.1828   15.8797   20.2730 C   0  0  0  0  0  0  0  0  0  0  0  0
   27.5669   15.2333   18.9708 N   0  0  0  0  0  0  0  0  0  0  0  0
   32.7527   16.8852   19.7113 O   0  0  0  0  0  0  0  0  0  0  0  0
  2  1  1  6  0  0  0
  2  3  1  0  0  0  0
  2  5  1  0  0  0  0
  3  4  1  0  0  0  0
  3 10  1  0  0  0  0
  5  6  1  0  0  0  0
  6  7  1  0  0  0  0
  7  8  1  0  0  0  0
  8  9  1  0  0  0  0
M  END
>  <CHROM.1>
-169.22002933,-166.78946819,-175.78933286,68.78725837,61.97330554,30.10366910
16.03863066,20.70535320,0.16349183,0.26657283,1.25176895

>  <Name>
ligand

>  <RI>
0

>  <Rbt.Current_Directory>
/home/itssahil/PROJECTS/Mol_Feturizer/New_Systems/rnas/3DIL

>  <Rbt.Executable>
rbdock ($Id: //depot/dev/client3/rdock/2013.1/src/exe/rbdock.cxx#4 $)

>  <Rbt.Library>
libRbt.so (2013.1, Build901 2013/11/27)

>  <Rbt.Parameter_File>
/export/apps/rDock/src/rDock_2013.1_src/data/scripts/dock_solv.prm

>  <Rbt.Receptor>
prm/blind_docking_100.prm

>  <SCORE>
-8.45579

>  <SCORE.INTER>
-9.16991

>  <SCORE.INTER.CONST>
1

>  <SCORE.INTER.POLAR>
0

>  <SCORE.INTER.ROT>
5

>  <SCORE.INTER.SOLV>
11.903

>  <SCORE.INTER.VDW>
-17.0143

>  <SCORE.INTER.norm>
-0.916991

>  <SCORE.INTRA>
0.714124

>  <SCORE.INTRA.DIHEDRAL>
-0.364927

>  <SCORE.INTRA.DIHEDRAL.0>
2.93688

>  <SCORE.INTRA.POLAR>
0

>  <SCORE.INTRA.POLAR.0>
0

>  <SCORE.INTRA.REPUL>
0

>  <SCORE.INTRA.REPUL.0>
0

>  <SCORE.INTRA.SOLV>
0.0473977

>  <SCORE.INTRA.SOLV.lig_0>
-32.2816

>  <SCORE.INTRA.VDW>
0.872889

>  <SCORE.INTRA.VDW.0>
-0.749945

>  <SCORE.INTRA.norm>
0.0714124

>  <SCORE.RESTR>
0

>  <SCORE.RESTR.CAVITY>
0

>  <SCORE.RESTR.norm>
0

>  <SCORE.SYSTEM>
0

>  <SCORE.SYSTEM.CONST>
0

>  <SCORE.SYSTEM.DIHEDRAL>
0

>  <SCORE.SYSTEM.SOLV>
0

>  <SCORE.SYSTEM.norm>
0

>  <SCORE.heavy>
10

>  <SCORE.norm>
-0.845579

>  <RMSD>
2.095

$$$$
ligand
 OpenBabel11021811473D
libRbt.so/2013.1/901 2013/11/27
 10  9  0  0  0  0  0  0  0  0999 V2000
   31.8729   17.6426   22.2026 N   0  0  0  0  0  0  0  0  0  0  0  0
   31.2939   16.3483   21.7332 C   0  0  2  0  0  0  0  0  0  0  0  0
   31.8474   15.9548   20.3640 C   0  0  0  0  0  0  0  0  0  0  0  0
   33.0051   16.2212   20.0458 O   0  0  0  0  0  0  0  0  0  0  0  0
   29.7616   16.4029   21.7323 C   0  0  0  0  0  0  0  0  0  0  0  0
   29.1159   15.0308   21.5411 C   0  0  0  0  0  0  0  0  0  0  0  0
   27.5984   15.1085   21.4434 C   0  0  0  0  0  0  0  0  0  0  0  0
   27.1640   15.8216   20.1667 C   0  0  0  0  0  0  0  0  0  0  0  0
   27.5873   15.1059   18.9139 N   0  0  0  0  0  0  0  0  0  0  0  0
   31.1758   15.3353   19.5339 O   0  0  0  0  0  0  0  0  0  0  0  0
  2  1  1  6  0  0  0
  2  3  1  0  0  0  0
  2  5  1  0  0  0  0
  3  4  1  0  0  0  0
  3 10  1  0  0  0  0
  5  6  1  0  0  0  0
  6  7  1  0  0  0  0
  7  8  1  0  0  0  0
  8  9  1  0  0  0  0
M  END
>  <CHROM.1>
34.15908288,-168.14547110,-175.95560243,67.23641419,62.62769744,30.06485247
15.88968269,20.73928171,0.20213397,0.18759099,1.17714455

>  <Name>
ligand

>  <RI>
0

>  <Rbt.Current_Directory>
/home/itssahil/PROJECTS/Mol_Feturizer/New_Systems/rnas/3DIL

>  <Rbt.Executable>
rbdock ($Id: //depot/dev/client3/rdock/2013.1/src/exe/rbdock.cxx#4 $)

>  <Rbt.Library>
libRbt.so (2013.1, Build901 2013/11/27)

>  <Rbt.Parameter_File>
/export/apps/rDock/src/rDock_2013.1_src/data/scripts/dock_solv.prm

>  <Rbt.Receptor>
prm/pocket_docking_5.prm

>  <SCORE>
-8.6253

>  <SCORE.INTER>
-9.49465

>  <SCORE.INTER.CONST>
1

>  <SCORE.INTER.POLAR>
0

>  <SCORE.INTER.ROT>
5

>  <SCORE.INTER.SOLV>
12.1673

>  <SCORE.INTER.VDW>
-17.3189

>  <SCORE.INTER.norm>
-0.949465

>  <SCORE.INTRA>
0.869351

>  <SCORE.INTRA.DIHEDRAL>
-0.66136

>  <SCORE.INTRA.DIHEDRAL.0>
2.93688

>  <SCORE.INTRA.POLAR>
0

>  <SCORE.INTRA.POLAR.0>
0

>  <SCORE.INTRA.REPUL>
0

>  <SCORE.INTRA.REPUL.0>
0

>  <SCORE.INTRA.SOLV>
0.156411

>  <SCORE.INTRA.SOLV.lig_0>
-32.2816

>  <SCORE.INTRA.VDW>
1.12183

>  <SCORE.INTRA.VDW.0>
-0.749945

>  <SCORE.INTRA.norm>
0.0869351

>  <SCORE.RESTR>
0

>  <SCORE.RESTR.CAVITY>
0

>  <SCORE.RESTR.norm>
0

>  <SCORE.SYSTEM>
0

>  <SCORE.SYSTEM.CONST>
0

>  <SCORE.SYSTEM.DIHEDRAL>
0

>  <SCORE.SYSTEM.SOLV>
0

>  <SCORE.SYSTEM.norm>
0

>  <SCORE.heavy>
10

>  <SCORE.norm>
-0.86253

>  <RMSD>
2.106

$$$$
ligand
 OpenBabel11021811473D
libRbt.so/2013.1/901 2013/11/27
 10  9  0  0  0  0  0  0  0  0999 V2000
   31.8704   17.6212   22.2239 N   0  0  0  0  0  0  0  0  0  0  0  0
   31.2831   16.3318   21.7514 C   0  0  2  0  0  0  0  0  0  0  0  0
   31.8267   15.9428   20.3770 C   0  0  0  0  0  0  0  0  0  0  0  0
   31.1086   15.3988   19.5399 O   0  0  0  0  0  0  0  0  0  0  0  0
   29.7510   16.3928   21.7600 C   0  0  0  0  0  0  0  0  0  0  0  0
   29.0984   15.0264   21.5530 C   0  0  0  0  0  0  0  0  0  0  0  0
   27.5811   15.1125   21.4598 C   0  0  0  0  0  0  0  0  0  0  0  0
   27.1467   15.8245   20.1826 C   0  0  0  0  0  0  0  0  0  0  0  0
   27.5606   15.1022   18.9305 N   0  0  0  0  0  0  0  0  0  0  0  0
   32.9900   16.1776   20.0369 O   0  0  0  0  0  0  0  0  0  0  0  0
  2  1  1  6  0  0  0
  2  3  1  0  0  0  0
  2  5  1  0  0  0  0
  3  4  1  0  0  0  0
  3 10  1  0  0  0  0
  5  6  1  0  0  0  0
  6  7  1  0  0  0  0
  7  8  1  0  0  0  0
  8  9  1  0  0  0  0
M  END
>  <CHROM.1>
-143.22562218,-168.67295320,-175.74600340,68.12595825,62.68539678,30.04365285
15.88615219,20.75264427,0.19859887,0.18752284,1.19228985

>  <Name>
ligand

>  <RI>
0

>  <Rbt.Current_Directory>
/home/itssahil/PROJECTS/Mol_Feturizer/New_Systems/rnas/3DIL

>  <Rbt.Executable>
rbdock ($Id: //depot/dev/client3/rdock/2013.1/src/exe/rbdock.cxx#4 $)

>  <Rbt.Library>
libRbt.so (2013.1, Build901 2013/11/27)

>  <Rbt.Parameter_File>
/export/apps/rDock/src/rDock_2013.1_src/data/scripts/dock_solv.prm

>  <Rbt.Receptor>
prm/pocket_docking_2.prm

>  <SCORE>
-8.43281

>  <SCORE.INTER>
-9.51252

>  <SCORE.INTER.CONST>
1

>  <SCORE.INTER.POLAR>
0

>  <SCORE.INTER.ROT>
5

>  <SCORE.INTER.SOLV>
12.2167

>  <SCORE.INTER.VDW>
-17.3472

>  <SCORE.INTER.norm>
-0.951252

>  <SCORE.INTRA>
1.07971

>  <SCORE.INTRA.DIHEDRAL>
-0.535269

>  <SCORE.INTRA.DIHEDRAL.0>
2.93688

>  <SCORE.INTRA.POLAR>
0

>  <SCORE.INTRA.POLAR.0>
0

>  <SCORE.INTRA.REPUL>
0

>  <SCORE.INTRA.REPUL.0>
0

>  <SCORE.INTRA.SOLV>
0.16626

>  <SCORE.INTRA.SOLV.lig_0>
-32.2816

>  <SCORE.INTRA.VDW>
1.26421

>  <SCORE.INTRA.VDW.0>
-0.749945

>  <SCORE.INTRA.norm>
0.107971

>  <SCORE.RESTR>
0

>  <SCORE.RESTR.CAVITY>
0

>  <SCORE.RESTR.norm>
0

>  <SCORE.SYSTEM>
0

>  <SCORE.SYSTEM.CONST>
0

>  <SCORE.SYSTEM.DIHEDRAL>
0

>  <SCORE.SYSTEM.SOLV>
0

>  <SCORE.SYSTEM.norm>
0

>  <SCORE.heavy>
10

>  <SCORE.norm>
-0.843281

>  <RMSD>
2.111

$$$$
ligand
 OpenBabel11021811473D
libRbt.so/2013.1/901 2013/11/27
 10  9  0  0  0  0  0  0  0  0999 V2000
   31.9745   17.7962   22.1342 N   0  0  0  0  0  0  0  0  0  0  0  0
   31.4199   16.4678   21.7360 C   0  0  2  0  0  0  0  0  0  0  0  0
   31.9365   16.0377   20.3634 C   0  0  0  0  0  0  0  0  0  0  0  0
   33.0805   16.3074   20.0015 O   0  0  0  0  0  0  0  0  0  0  0  0
   29.8876   16.4765   21.7893 C   0  0  0  0  0  0  0  0  0  0  0  0
   29.2805   15.0753   21.7260 C   0  0  0  0  0  0  0  0  0  0  0  0
   27.7630   15.1016   21.6050 C   0  0  0  0  0  0  0  0  0  0  0  0
   27.3279   15.6093   20.2338 C   0  0  0  0  0  0  0  0  0  0  0  0
   25.8391   15.5617   20.0286 N   0  0  0  0  0  0  0  0  0  0  0  0
   31.2478   15.3845   19.5741 O   0  0  0  0  0  0  0  0  0  0  0  0
  2  1  1  6  0  0  0
  2  3  1  0  0  0  0
  2  5  1  0  0  0  0
  3  4  1  0  0  0  0
  3 10  1  0  0  0  0
  5  6  1  0  0  0  0
  6  7  1  0  0  0  0
  7  8  1  0  0  0  0
  8  9  1  0  0  0  0
M  END
>  <CHROM.1>
35.34002692,-166.03631560,-172.87802832,70.10180965,175.88559682,29.99887390
15.97353171,20.88962589,0.11523557,0.17538825,1.12398962

>  <Name>
ligand

>  <RI>
0

>  <Rbt.Current_Directory>
/home/itssahil/PROJECTS/Mol_Feturizer/New_Systems/rnas/3DIL

>  <Rbt.Executable>
rbdock ($Id: //depot/dev/client3/rdock/2013.1/src/exe/rbdock.cxx#4 $)

>  <Rbt.Library>
libRbt.so (2013.1, Build901 2013/11/27)

>  <Rbt.Parameter_File>
/export/apps/rDock/src/rDock_2013.1_src/data/scripts/dock_solv.prm

>  <Rbt.Receptor>
prm/pocket_docking_8.prm

>  <SCORE>
-7.62905

>  <SCORE.INTER>
-7.88996

>  <SCORE.INTER.CONST>
1

>  <SCORE.INTER.POLAR>
0

>  <SCORE.INTER.ROT>
5

>  <SCORE.INTER.SOLV>
17.9517

>  <SCORE.INTER.VDW>
-18.1772

>  <SCORE.INTER.norm>
-0.788996

>  <SCORE.INTRA>
0.260911

>  <SCORE.INTRA.DIHEDRAL>
-0.0856854

>  <SCORE.INTRA.DIHEDRAL.0>
2.93688

>  <SCORE.INTRA.POLAR>
0

>  <SCORE.INTRA.POLAR.0>
0

>  <SCORE.INTRA.REPUL>
0

>  <SCORE.INTRA.REPUL.0>
0

>  <SCORE.INTRA.SOLV>
-1.31481

>  <SCORE.INTRA.SOLV.lig_0>
-32.2816

>  <SCORE.INTRA.VDW>
0.96116

>  <SCORE.INTRA.VDW.0>
-0.749945

>  <SCORE.INTRA.norm>
0.0260911

>  <SCORE.RESTR>
0

>  <SCORE.RESTR.CAVITY>
0

>  <SCORE.RESTR.norm>
0

>  <SCORE.SYSTEM>
0

>  <SCORE.SYSTEM.CONST>
0

>  <SCORE.SYSTEM.DIHEDRAL>
0

>  <SCORE.SYSTEM.SOLV>
0

>  <SCORE.SYSTEM.norm>
0

>  <SCORE.heavy>
10

>  <SCORE.norm>
-0.762905

>  <RMSD>
2.147

$$$$
ligand
 OpenBabel11021811473D
libRbt.so/2013.1/901 2013/11/27
 10  9  0  0  0  0  0  0  0  0999 V2000
   33.4604   18.1227   21.6508 N   0  0  0  0  0  0  0  0  0  0  0  0
   32.4289   17.0464   21.5598 C   0  0  2  0  0  0  0  0  0  0  0  0
   32.3549   16.4640   20.1486 C   0  0  0  0  0  0  0  0  0  0  0  0
   31.8811   15.3475   19.9457 O   0  0  0  0  0  0  0  0  0  0  0  0
   31.0634   17.5554   22.0366 C   0  0  0  0  0  0  0  0  0  0  0  0
   30.0142   16.4482   22.1323 C   0  0  0  0  0  0  0  0  0  0  0  0
   29.2587   16.2457   20.8261 C   0  0  0  0  0  0  0  0  0  0  0  0
   28.1751   15.1823   20.9751 C   0  0  0  0  0  0  0  0  0  0  0  0
   27.4171   14.9252   19.7021 N   0  0  0  0  0  0  0  0  0  0  0  0
   32.7377   17.0897   19.1556 O   0  0  0  0  0  0  0  0  0  0  0  0
  2  1  1  6  0  0  0
  2  3  1  0  0  0  0
  2  5  1  0  0  0  0
  3  4  1  0  0  0  0
  3 10  1  0  0  0  0
  5  6  1  0  0  0  0
  6  7  1  0  0  0  0
  7  8  1  0  0  0  0
  8  9  1  0  0  0  0
M  END
>  <CHROM.1>
158.57578586,-172.68465053,-88.73829741,-177.25011912,-178.84620392,30.88712247
16.43179640,20.78216685,0.24312333,0.33214741,1.07346578

>  <Name>
ligand

>  <RI>
0

>  <Rbt.Current_Directory>
/home/itssahil/PROJECTS/Mol_Feturizer/New_Systems/rnas/3DIL

>  <Rbt.Executable>
rbdock ($Id: //depot/dev/client3/rdock/2013.1/src/exe/rbdock.cxx#4 $)

>  <Rbt.Library>
libRbt.so (2013.1, Build901 2013/11/27)

>  <Rbt.Parameter_File>
/export/apps/rDock/src/rDock_2013.1_src/data/scripts/dock_solv.prm

>  <Rbt.Receptor>
prm/pocket_docking_8.prm

>  <SCORE>
-6.19048

>  <SCORE.INTER>
-6.40689

>  <SCORE.INTER.CONST>
1

>  <SCORE.INTER.POLAR>
0

>  <SCORE.INTER.ROT>
5

>  <SCORE.INTER.SOLV>
14.1899

>  <SCORE.INTER.VDW>
-15.9345

>  <SCORE.INTER.norm>
-0.640689

>  <SCORE.INTRA>
0.216412

>  <SCORE.INTRA.DIHEDRAL>
1.60702

>  <SCORE.INTRA.DIHEDRAL.0>
2.93688

>  <SCORE.INTRA.POLAR>
0

>  <SCORE.INTRA.POLAR.0>
0

>  <SCORE.INTRA.REPUL>
0

>  <SCORE.INTRA.REPUL.0>
0

>  <SCORE.INTRA.SOLV>
-1.46352

>  <SCORE.INTRA.SOLV.lig_0>
-32.2816

>  <SCORE.INTRA.VDW>
0.144662

>  <SCORE.INTRA.VDW.0>
-0.749945

>  <SCORE.INTRA.norm>
0.0216412

>  <SCORE.RESTR>
0

>  <SCORE.RESTR.CAVITY>
0

>  <SCORE.RESTR.norm>
0

>  <SCORE.SYSTEM>
0

>  <SCORE.SYSTEM.CONST>
0

>  <SCORE.SYSTEM.DIHEDRAL>
0

>  <SCORE.SYSTEM.SOLV>
0

>  <SCORE.SYSTEM.norm>
0

>  <SCORE.heavy>
10

>  <SCORE.norm>
-0.619048

>  <RMSD>
2.161

$$$$
ligand
 OpenBabel11021811473D
libRbt.so/2013.1/901 2013/11/27
 10  9  0  0  0  0  0  0  0  0999 V2000
   31.7671   17.5243   22.1311 N   0  0  0  0  0  0  0  0  0  0  0  0
   31.1341   16.2425   21.6989 C   0  0  2  0  0  0  0  0  0  0  0  0
   31.6607   15.7933   20.3363 C   0  0  0  0  0  0  0  0  0  0  0  0
   32.8447   15.9329   20.0347 O   0  0  0  0  0  0  0  0  0  0  0  0
   29.6052   16.3570   21.7076 C   0  0  0  0  0  0  0  0  0  0  0  0
   28.9048   15.0061   21.5650 C   0  0  0  0  0  0  0  0  0  0  0  0
   27.3955   15.1437   21.4197 C   0  0  0  0  0  0  0  0  0  0  0  0
   27.0269   15.8003   20.0929 C   0  0  0  0  0  0  0  0  0  0  0  0
   27.4928   15.0198   18.8951 N   0  0  0  0  0  0  0  0  0  0  0  0
   30.9374   15.2516   19.4951 O   0  0  0  0  0  0  0  0  0  0  0  0
  2  1  1  6  0  0  0
  2  3  1  0  0  0  0
  2  5  1  0  0  0  0
  3  4  1  0  0  0  0
  3 10  1  0  0  0  0
  5  6  1  0  0  0  0
  6  7  1  0  0  0  0
  7  8  1  0  0  0  0
  8  9  1  0  0  0  0
M  END
>  <CHROM.1>
38.62046916,-167.77985769,-173.64676512,67.67817666,60.59944970,29.89883439
15.79808837,20.70938269,0.19393992,0.15550531,1.15880831

>  <Name>
ligand

>  <RI>
0

>  <Rbt.Current_Directory>
/home/itssahil/PROJECTS/Mol_Feturizer/New_Systems/rnas/3DIL

>  <Rbt.Executable>
rbdock ($Id: //depot/dev/client3/rdock/2013.1/src/exe/rbdock.cxx#4 $)

>  <Rbt.Library>
libRbt.so (2013.1, Build901 2013/11/27)

>  <Rbt.Parameter_File>
/export/apps/rDock/src/rDock_2013.1_src/data/scripts/dock_solv.prm

>  <Rbt.Receptor>
prm/blind_docking_100.prm

>  <SCORE>
-8.63783

>  <SCORE.INTER>
-9.59915

>  <SCORE.INTER.CONST>
1

>  <SCORE.INTER.POLAR>
0

>  <SCORE.INTER.ROT>
5

>  <SCORE.INTER.SOLV>
12.4783

>  <SCORE.INTER.VDW>
-17.4922

>  <SCORE.INTER.norm>
-0.959915

>  <SCORE.INTRA>
0.961322

>  <SCORE.INTRA.DIHEDRAL>
-0.524867

>  <SCORE.INTRA.DIHEDRAL.0>
2.93688

>  <SCORE.INTRA.POLAR>
0

>  <SCORE.INTRA.POLAR.0>
0

>  <SCORE.INTRA.REPUL>
0

>  <SCORE.INTRA.REPUL.0>
0

>  <SCORE.INTRA.SOLV>
0.278115

>  <SCORE.INTRA.SOLV.lig_0>
-32.2816

>  <SCORE.INTRA.VDW>
1.0847

>  <SCORE.INTRA.VDW.0>
-0.749945

>  <SCORE.INTRA.norm>
0.0961322

>  <SCORE.RESTR>
0

>  <SCORE.RESTR.CAVITY>
0

>  <SCORE.RESTR.norm>
0

>  <SCORE.SYSTEM>
0

>  <SCORE.SYSTEM.CONST>
0

>  <SCORE.SYSTEM.DIHEDRAL>
0

>  <SCORE.SYSTEM.SOLV>
0

>  <SCORE.SYSTEM.norm>
0

>  <SCORE.heavy>
10

>  <SCORE.norm>
-0.863783

>  <RMSD>
2.191

$$$$
ligand
 OpenBabel11021811473D
libRbt.so/2013.1/901 2013/11/27
 10  9  0  0  0  0  0  0  0  0999 V2000
   31.7524   17.4582   22.1550 N   0  0  0  0  0  0  0  0  0  0  0  0
   31.1108   16.1880   21.7015 C   0  0  2  0  0  0  0  0  0  0  0  0
   31.6240   15.7655   20.3253 C   0  0  0  0  0  0  0  0  0  0  0  0
   30.8683   15.2757   19.4878 O   0  0  0  0  0  0  0  0  0  0  0  0
   29.5825   16.3080   21.7257 C   0  0  0  0  0  0  0  0  0  0  0  0
   28.8757   14.9625   21.5645 C   0  0  0  0  0  0  0  0  0  0  0  0
   27.3640   15.1067   21.4551 C   0  0  0  0  0  0  0  0  0  0  0  0
   26.9677   15.7790   20.1443 C   0  0  0  0  0  0  0  0  0  0  0  0
   27.4322   15.0271   18.9278 N   0  0  0  0  0  0  0  0  0  0  0  0
   32.8006   15.9186   19.9841 O   0  0  0  0  0  0  0  0  0  0  0  0
  2  1  1  6  0  0  0
  2  3  1  0  0  0  0
  2  5  1  0  0  0  0
  3  4  1  0  0  0  0
  3 10  1  0  0  0  0
  5  6  1  0  0  0  0
  6  7  1  0  0  0  0
  7  8  1  0  0  0  0
  8  9  1  0  0  0  0
M  END
>  <CHROM.1>
-141.18373999,-167.62969456,-174.47364193,68.49279286,59.20915703,29.85910352
15.77099549,20.71809031,0.17774308,0.16177327,1.18619344

>  <Name>
ligand

>  <RI>
0

>  <Rbt.Current_Directory>
/home/itssahil/PROJECTS/Mol_Feturizer/New_Systems/rnas/3DIL

>  <Rbt.Executable>
rbdock ($Id: //depot/dev/client3/rdock/2013.1/src/exe/rbdock.cxx#4 $)

>  <Rbt.Library>
libRbt.so (2013.1, Build901 2013/11/27)

>  <Rbt.Parameter_File>
/export/apps/rDock/src/rDock_2013.1_src/data/scripts/dock_solv.prm

>  <Rbt.Receptor>
prm/pocket_docking_3.prm

>  <SCORE>
-8.50603

>  <SCORE.INTER>
-9.66805

>  <SCORE.INTER.CONST>
1

>  <SCORE.INTER.POLAR>
0

>  <SCORE.INTER.ROT>
5

>  <SCORE.INTER.SOLV>
12.6415

>  <SCORE.INTER.VDW>
-17.5925

>  <SCORE.INTER.norm>
-0.966805

>  <SCORE.INTRA>
1.16202

>  <SCORE.INTRA.DIHEDRAL>
-0.39649

>  <SCORE.INTRA.DIHEDRAL.0>
2.93688

>  <SCORE.INTRA.POLAR>
0

>  <SCORE.INTRA.POLAR.0>
0

>  <SCORE.INTRA.REPUL>
0

>  <SCORE.INTRA.REPUL.0>
0

>  <SCORE.INTRA.SOLV>
0.30726

>  <SCORE.INTRA.SOLV.lig_0>
-32.2816

>  <SCORE.INTRA.VDW>
1.20663

>  <SCORE.INTRA.VDW.0>
-0.749945

>  <SCORE.INTRA.norm>
0.116202

>  <SCORE.RESTR>
0

>  <SCORE.RESTR.CAVITY>
0

>  <SCORE.RESTR.norm>
0

>  <SCORE.SYSTEM>
0

>  <SCORE.SYSTEM.CONST>
0

>  <SCORE.SYSTEM.DIHEDRAL>
0

>  <SCORE.SYSTEM.SOLV>
0

>  <SCORE.SYSTEM.norm>
0

>  <SCORE.heavy>
10

>  <SCORE.norm>
-0.850603

>  <RMSD>
2.211

$$$$
ligand
 OpenBabel11021811473D
libRbt.so/2013.1/901 2013/11/27
 10  9  0  0  0  0  0  0  0  0999 V2000
   30.4140   16.7738   22.6939 N   0  0  0  0  0  0  0  0  0  0  0  0
   30.6006   15.7028   21.6698 C   0  0  2  0  0  0  0  0  0  0  0  0
   31.2448   16.2543   20.3984 C   0  0  0  0  0  0  0  0  0  0  0  0
   30.8780   17.3224   19.9116 O   0  0  0  0  0  0  0  0  0  0  0  0
   29.2745   14.9927   21.3729 C   0  0  0  0  0  0  0  0  0  0  0  0
   28.1460   15.9604   21.0180 C   0  0  0  0  0  0  0  0  0  0  0  0
   26.9089   15.2462   20.4909 C   0  0  0  0  0  0  0  0  0  0  0  0
   27.0182   14.9884   18.9913 C   0  0  0  0  0  0  0  0  0  0  0  0
   28.2026   14.1398   18.6199 N   0  0  0  0  0  0  0  0  0  0  0  0
   32.1700   15.6745   19.8224 O   0  0  0  0  0  0  0  0  0  0  0  0
  2  1  1  1  0  0  0
  2  3  1  0  0  0  0
  2  5  1  0  0  0  0
  3  4  1  0  0  0  0
  3 10  1  0  0  0  0
  5  6  1  0  0  0  0
  6  7  1  0  0  0  0
  7  8  1  0  0  0  0
  8  9  1  0  0  0  0
M  END
>  <CHROM.1>
-43.62137035,52.26539060,169.97007781,-85.33298180,59.68965153,29.50970292
15.71995362,20.47426150,0.38783584,0.24552135,1.24000253

>  <Name>
ligand

>  <RI>
0

>  <Rbt.Current_Directory>
/home/itssahil/PROJECTS/Mol_Feturizer/New_Systems/rnas/3DIL

>  <Rbt.Executable>
rbdock ($Id: //depot/dev/client3/rdock/2013.1/src/exe/rbdock.cxx#4 $)

>  <Rbt.Library>
libRbt.so (2013.1, Build901 2013/11/27)

>  <Rbt.Parameter_File>
/export/apps/rDock/src/rDock_2013.1_src/data/scripts/dock_solv.prm

>  <Rbt.Receptor>
prm/pocket_docking_5.prm

>  <SCORE>
-6.48973

>  <SCORE.INTER>
-8.30951

>  <SCORE.INTER.CONST>
1

>  <SCORE.INTER.POLAR>
0

>  <SCORE.INTER.ROT>
5

>  <SCORE.INTER.SOLV>
14.387

>  <SCORE.INTER.VDW>
-17.2687

>  <SCORE.INTER.norm>
-0.830951

>  <SCORE.INTRA>
1.81978

>  <SCORE.INTRA.DIHEDRAL>
1.59282

>  <SCORE.INTRA.DIHEDRAL.0>
2.93688

>  <SCORE.INTRA.POLAR>
0

>  <SCORE.INTRA.POLAR.0>
0

>  <SCORE.INTRA.REPUL>
0

>  <SCORE.INTRA.REPUL.0>
0

>  <SCORE.INTRA.SOLV>
1.78995

>  <SCORE.INTRA.SOLV.lig_0>
-32.2816

>  <SCORE.INTRA.VDW>
0.128392

>  <SCORE.INTRA.VDW.0>
-0.749945

>  <SCORE.INTRA.norm>
0.181978

>  <SCORE.RESTR>
0

>  <SCORE.RESTR.CAVITY>
0

>  <SCORE.RESTR.norm>
0

>  <SCORE.SYSTEM>
0

>  <SCORE.SYSTEM.CONST>
0

>  <SCORE.SYSTEM.DIHEDRAL>
0

>  <SCORE.SYSTEM.SOLV>
0

>  <SCORE.SYSTEM.norm>
0

>  <SCORE.heavy>
10

>  <SCORE.norm>
-0.648973

>  <RMSD>
2.309

$$$$
ligand
 OpenBabel11021811473D
libRbt.so/2013.1/901 2013/11/27
 10  9  0  0  0  0  0  0  0  0999 V2000
   30.3571   16.7500   22.7264 N   0  0  0  0  0  0  0  0  0  0  0  0
   30.5755   15.6586   21.7305 C   0  0  2  0  0  0  0  0  0  0  0  0
   31.3136   16.1721   20.4946 C   0  0  0  0  0  0  0  0  0  0  0  0
   31.6007   15.4180   19.5665 O   0  0  0  0  0  0  0  0  0  0  0  0
   29.2502   14.9821   21.3606 C   0  0  0  0  0  0  0  0  0  0  0  0
   28.1811   15.9742   20.9038 C   0  0  0  0  0  0  0  0  0  0  0  0
   26.9394   15.2833   20.3571 C   0  0  0  0  0  0  0  0  0  0  0  0
   27.0868   14.9806   18.8692 C   0  0  0  0  0  0  0  0  0  0  0  0
   28.2606   14.0939   18.5576 N   0  0  0  0  0  0  0  0  0  0  0  0
   31.6286   17.3581   20.3594 O   0  0  0  0  0  0  0  0  0  0  0  0
  2  1  1  1  0  0  0
  2  3  1  0  0  0  0
  2  5  1  0  0  0  0
  3  4  1  0  0  0  0
  3 10  1  0  0  0  0
  5  6  1  0  0  0  0
  6  7  1  0  0  0  0
  7  8  1  0  0  0  0
  8  9  1  0  0  0  0
M  END
>  <CHROM.1>
179.15698012,53.07701371,172.04539422,-87.10992511,59.30932620,29.54483835
15.68015719,20.46886189,0.47684526,0.23473923,1.19208664

>  <Name>
ligand

>  <RI>
0

>  <Rbt.Current_Directory>
/home/itssahil/PROJECTS/Mol_Feturizer/New_Systems/rnas/3DIL

>  <Rbt.Executable>
rbdock ($Id: //depot/dev/client3/rdock/2013.1/src/exe/rbdock.cxx#4 $)

>  <Rbt.Library>
libRbt.so (2013.1, Build901 2013/11/27)

>  <Rbt.Parameter_File>
/export/apps/rDock/src/rDock_2013.1_src/data/scripts/dock_solv.prm

>  <Rbt.Receptor>
prm/pocket_docking_8.prm

>  <SCORE>
-5.95495

>  <SCORE.INTER>
-7.97063

>  <SCORE.INTER.CONST>
1

>  <SCORE.INTER.POLAR>
0

>  <SCORE.INTER.ROT>
5

>  <SCORE.INTER.SOLV>
14.5507

>  <SCORE.INTER.VDW>
-17.0973

>  <SCORE.INTER.norm>
-0.797063

>  <SCORE.INTRA>
2.01499

>  <SCORE.INTRA.DIHEDRAL>
1.63023

>  <SCORE.INTRA.DIHEDRAL.0>
2.93688

>  <SCORE.INTRA.POLAR>
0

>  <SCORE.INTRA.POLAR.0>
0

>  <SCORE.INTRA.REPUL>
0

>  <SCORE.INTRA.REPUL.0>
0

>  <SCORE.INTRA.SOLV>
1.89044

>  <SCORE.INTRA.SOLV.lig_0>
-32.2816

>  <SCORE.INTRA.VDW>
0.254651

>  <SCORE.INTRA.VDW.0>
-0.749945

>  <SCORE.INTRA.norm>
0.201499

>  <SCORE.RESTR>
0.000687544

>  <SCORE.RESTR.CAVITY>
0.000687544

>  <SCORE.RESTR.norm>
6.87544e-05

>  <SCORE.SYSTEM>
0

>  <SCORE.SYSTEM.CONST>
0

>  <SCORE.SYSTEM.DIHEDRAL>
0

>  <SCORE.SYSTEM.SOLV>
0

>  <SCORE.SYSTEM.norm>
0

>  <SCORE.heavy>
10

>  <SCORE.norm>
-0.595495

>  <RMSD>
2.332

$$$$
ligand
 OpenBabel11021811473D
libRbt.so/2013.1/901 2013/11/27
 10  9  0  0  0  0  0  0  0  0999 V2000
   31.5617   17.3864   21.9971 N   0  0  0  0  0  0  0  0  0  0  0  0
   30.9038   16.1088   21.5903 C   0  0  2  0  0  0  0  0  0  0  0  0
   31.3835   15.6493   20.2138 C   0  0  0  0  0  0  0  0  0  0  0  0
   30.6024   15.1625   19.3982 O   0  0  0  0  0  0  0  0  0  0  0  0
   29.3770   16.2376   21.6461 C   0  0  0  0  0  0  0  0  0  0  0  0
   28.6615   14.8891   21.5732 C   0  0  0  0  0  0  0  0  0  0  0  0
   27.1522   15.0360   21.4358 C   0  0  0  0  0  0  0  0  0  0  0  0
   26.7485   15.2410   19.9791 C   0  0  0  0  0  0  0  0  0  0  0  0
   27.3088   16.5012   19.3799 N   0  0  0  0  0  0  0  0  0  0  0  0
   32.5573   15.7683   19.8503 O   0  0  0  0  0  0  0  0  0  0  0  0
  2  1  1  6  0  0  0
  2  3  1  0  0  0  0
  2  5  1  0  0  0  0
  3  4  1  0  0  0  0
  3 10  1  0  0  0  0
  5  6  1  0  0  0  0
  6  7  1  0  0  0  0
  7  8  1  0  0  0  0
  8  9  1  0  0  0  0
M  END
>  <CHROM.1>
-140.00856386,-166.05815892,-172.09805219,84.15864389,-62.53268822,29.64612754
15.78829500,20.67686407,0.07636664,0.12861781,1.26426440

>  <Name>
ligand

>  <RI>
0

>  <Rbt.Current_Directory>
/home/itssahil/PROJECTS/Mol_Feturizer/New_Systems/rnas/3DIL

>  <Rbt.Executable>
rbdock ($Id: //depot/dev/client3/rdock/2013.1/src/exe/rbdock.cxx#4 $)

>  <Rbt.Library>
libRbt.so (2013.1, Build901 2013/11/27)

>  <Rbt.Parameter_File>
/export/apps/rDock/src/rDock_2013.1_src/data/scripts/dock_solv.prm

>  <Rbt.Receptor>
prm/pocket_docking_6.prm

>  <SCORE>
-7.2274

>  <SCORE.INTER>
-9.38375

>  <SCORE.INTER.CONST>
1

>  <SCORE.INTER.POLAR>
0

>  <SCORE.INTER.ROT>
5

>  <SCORE.INTER.SOLV>
14.7084

>  <SCORE.INTER.VDW>
-18.092

>  <SCORE.INTER.norm>
-0.938375

>  <SCORE.INTRA>
2.15635

>  <SCORE.INTRA.DIHEDRAL>
1.74327

>  <SCORE.INTRA.DIHEDRAL.0>
2.93688

>  <SCORE.INTRA.POLAR>
0

>  <SCORE.INTRA.POLAR.0>
0

>  <SCORE.INTRA.REPUL>
0

>  <SCORE.INTRA.REPUL.0>
0

>  <SCORE.INTRA.SOLV>
1.02216

>  <SCORE.INTRA.SOLV.lig_0>
-32.2816

>  <SCORE.INTRA.VDW>
0.773639

>  <SCORE.INTRA.VDW.0>
-0.749945

>  <SCORE.INTRA.norm>
0.215635

>  <SCORE.RESTR>
0

>  <SCORE.RESTR.CAVITY>
0

>  <SCORE.RESTR.norm>
0

>  <SCORE.SYSTEM>
0

>  <SCORE.SYSTEM.CONST>
0

>  <SCORE.SYSTEM.DIHEDRAL>
0

>  <SCORE.SYSTEM.SOLV>
0

>  <SCORE.SYSTEM.norm>
0

>  <SCORE.heavy>
10

>  <SCORE.norm>
-0.72274

>  <RMSD>
2.418

$$$$
ligand
 OpenBabel11021811473D
libRbt.so/2013.1/901 2013/11/27
 10  9  0  0  0  0  0  0  0  0999 V2000
   31.5406   17.3687   21.9963 N   0  0  0  0  0  0  0  0  0  0  0  0
   30.8792   16.0914   21.5941 C   0  0  2  0  0  0  0  0  0  0  0  0
   31.3555   15.6271   20.2181 C   0  0  0  0  0  0  0  0  0  0  0  0
   30.5680   15.1599   19.3971 O   0  0  0  0  0  0  0  0  0  0  0  0
   29.3527   16.2238   21.6522 C   0  0  0  0  0  0  0  0  0  0  0  0
   28.6344   14.8761   21.5935 C   0  0  0  0  0  0  0  0  0  0  0  0
   27.1268   15.0245   21.4406 C   0  0  0  0  0  0  0  0  0  0  0  0
   26.7406   15.2560   19.9830 C   0  0  0  0  0  0  0  0  0  0  0  0
   27.3362   16.5091   19.4033 N   0  0  0  0  0  0  0  0  0  0  0  0
   32.5332   15.7227   19.8605 O   0  0  0  0  0  0  0  0  0  0  0  0
  2  1  1  6  0  0  0
  2  3  1  0  0  0  0
  2  5  1  0  0  0  0
  3  4  1  0  0  0  0
  3 10  1  0  0  0  0
  5  6  1  0  0  0  0
  6  7  1  0  0  0  0
  7  8  1  0  0  0  0
  8  9  1  0  0  0  0
M  END
>  <CHROM.1>
-138.80987714,-165.67907041,-171.37622537,82.21498087,-61.04344560,29.62702984
15.77606888,20.68432680,0.07106720,0.12531691,1.26513033

>  <Name>
ligand

>  <RI>
0

>  <Rbt.Current_Directory>
/home/itssahil/PROJECTS/Mol_Feturizer/New_Systems/rnas/3DIL

>  <Rbt.Executable>
rbdock ($Id: //depot/dev/client3/rdock/2013.1/src/exe/rbdock.cxx#4 $)

>  <Rbt.Library>
libRbt.so (2013.1, Build901 2013/11/27)

>  <Rbt.Parameter_File>
/export/apps/rDock/src/rDock_2013.1_src/data/scripts/dock_solv.prm

>  <Rbt.Receptor>
prm/pocket_docking_3.prm

>  <SCORE>
-7.20827

>  <SCORE.INTER>
-9.36354

>  <SCORE.INTER.CONST>
1

>  <SCORE.INTER.POLAR>
0

>  <SCORE.INTER.ROT>
5

>  <SCORE.INTER.SOLV>
14.7048

>  <SCORE.INTER.VDW>
-18.0773

>  <SCORE.INTER.norm>
-0.936354

>  <SCORE.INTRA>
2.15528

>  <SCORE.INTRA.DIHEDRAL>
1.51615

>  <SCORE.INTRA.DIHEDRAL.0>
2.93688

>  <SCORE.INTRA.POLAR>
0

>  <SCORE.INTRA.POLAR.0>
0

>  <SCORE.INTRA.REPUL>
0

>  <SCORE.INTRA.REPUL.0>
0

>  <SCORE.INTRA.SOLV>
1.13728

>  <SCORE.INTRA.SOLV.lig_0>
-32.2816

>  <SCORE.INTRA.VDW>
0.828561

>  <SCORE.INTRA.VDW.0>
-0.749945

>  <SCORE.INTRA.norm>
0.215528

>  <SCORE.RESTR>
0

>  <SCORE.RESTR.CAVITY>
0

>  <SCORE.RESTR.norm>
0

>  <SCORE.SYSTEM>
0

>  <SCORE.SYSTEM.CONST>
0

>  <SCORE.SYSTEM.DIHEDRAL>
0

>  <SCORE.SYSTEM.SOLV>
0

>  <SCORE.SYSTEM.norm>
0

>  <SCORE.heavy>
10

>  <SCORE.norm>
-0.720827

>  <RMSD>
2.436

$$$$
ligand
 OpenBabel11021811473D
libRbt.so/2013.1/901 2013/11/27
 10  9  0  0  0  0  0  0  0  0999 V2000
   28.8265   15.7232   21.8701 N   0  0  0  0  0  0  0  0  0  0  0  0
   29.6921   16.0585   20.7001 C   0  0  2  0  0  0  0  0  0  0  0  0
   30.9053   16.8859   21.1241 C   0  0  0  0  0  0  0  0  0  0  0  0
   30.7792   18.0454   21.5141 O   0  0  0  0  0  0  0  0  0  0  0  0
   28.8819   16.7592   19.6031 C   0  0  0  0  0  0  0  0  0  0  0  0
   27.7609   15.8863   19.0397 C   0  0  0  0  0  0  0  0  0  0  0  0
   28.2870   14.6423   18.3371 C   0  0  0  0  0  0  0  0  0  0  0  0
   27.1440   13.7945   17.7876 C   0  0  0  0  0  0  0  0  0  0  0  0
   27.5934   12.4556   17.2713 N   0  0  0  0  0  0  0  0  0  0  0  0
   32.0511   16.4265   21.1207 O   0  0  0  0  0  0  0  0  0  0  0  0
  2  1  1  1  0  0  0
  2  3  1  0  0  0  0
  2  5  1  0  0  0  0
  3  4  1  0  0  0  0
  3 10  1  0  0  0  0
  5  6  1  0  0  0  0
  6  7  1  0  0  0  0
  7  8  1  0  0  0  0
  8  9  1  0  0  0  0
M  END
>  <CHROM.1>
-69.09691517,-61.99141028,-63.80334083,179.99064070,-171.18652427,29.22652155
15.69182951,19.85371335,0.94574489,-0.26410501,0.61633037

>  <Name>
ligand

>  <RI>
0

>  <Rbt.Current_Directory>
/home/itssahil/PROJECTS/Mol_Feturizer/New_Systems/rnas/3DIL

>  <Rbt.Executable>
rbdock ($Id: //depot/dev/client3/rdock/2013.1/src/exe/rbdock.cxx#4 $)

>  <Rbt.Library>
libRbt.so (2013.1, Build901 2013/11/27)

>  <Rbt.Parameter_File>
/export/apps/rDock/src/rDock_2013.1_src/data/scripts/dock_solv.prm

>  <Rbt.Receptor>
prm/pocket_docking_6.prm

>  <SCORE>
-5.90416

>  <SCORE.INTER>
-5.5717

>  <SCORE.INTER.CONST>
1

>  <SCORE.INTER.POLAR>
0

>  <SCORE.INTER.ROT>
5

>  <SCORE.INTER.SOLV>
16.3141

>  <SCORE.INTER.VDW>
-16.0858

>  <SCORE.INTER.norm>
-0.55717

>  <SCORE.INTRA>
-0.332463

>  <SCORE.INTRA.DIHEDRAL>
-1.08711

>  <SCORE.INTRA.DIHEDRAL.0>
2.93688

>  <SCORE.INTRA.POLAR>
0

>  <SCORE.INTRA.POLAR.0>
0

>  <SCORE.INTRA.REPUL>
0

>  <SCORE.INTRA.REPUL.0>
0

>  <SCORE.INTRA.SOLV>
-0.0781224

>  <SCORE.INTRA.SOLV.lig_0>
-32.2816

>  <SCORE.INTRA.VDW>
0.250151

>  <SCORE.INTRA.VDW.0>
-0.749945

>  <SCORE.INTRA.norm>
-0.0332463

>  <SCORE.RESTR>
0

>  <SCORE.RESTR.CAVITY>
0

>  <SCORE.RESTR.norm>
0

>  <SCORE.SYSTEM>
0

>  <SCORE.SYSTEM.CONST>
0

>  <SCORE.SYSTEM.DIHEDRAL>
0

>  <SCORE.SYSTEM.SOLV>
0

>  <SCORE.SYSTEM.norm>
0

>  <SCORE.heavy>
10

>  <SCORE.norm>
-0.590416

>  <RMSD>
2.668

$$$$
ligand
 OpenBabel11021811473D
libRbt.so/2013.1/901 2013/11/27
 10  9  0  0  0  0  0  0  0  0999 V2000
   30.6912   16.3802   22.2077 N   0  0  0  0  0  0  0  0  0  0  0  0
   29.3664   16.4965   21.5280 C   0  0  2  0  0  0  0  0  0  0  0  0
   28.4799   15.2876   21.8256 C   0  0  0  0  0  0  0  0  0  0  0  0
   28.9501   14.1526   21.8806 O   0  0  0  0  0  0  0  0  0  0  0  0
   29.5422   16.7149   20.0206 C   0  0  0  0  0  0  0  0  0  0  0  0
   28.2223   16.9858   19.2991 C   0  0  0  0  0  0  0  0  0  0  0  0
   27.4117   15.7175   19.0696 C   0  0  0  0  0  0  0  0  0  0  0  0
   28.0791   14.8162   18.0355 C   0  0  0  0  0  0  0  0  0  0  0  0
   27.2858   13.5762   17.7291 N   0  0  0  0  0  0  0  0  0  0  0  0
   27.2705   15.3951   22.0485 O   0  0  0  0  0  0  0  0  0  0  0  0
  2  1  1  1  0  0  0
  2  3  1  0  0  0  0
  2  5  1  0  0  0  0
  3  4  1  0  0  0  0
  3 10  1  0  0  0  0
  5  6  1  0  0  0  0
  6  7  1  0  0  0  0
  7  8  1  0  0  0  0
  8  9  1  0  0  0  0
M  END
>  <CHROM.1>
-38.98066841,-174.00796245,-77.70511511,-69.54186778,-177.50898156,28.51280509
15.52769733,20.38010796,-0.77612775,-0.94186172,-1.19098222

>  <Name>
ligand

>  <RI>
0

>  <Rbt.Current_Directory>
/home/itssahil/PROJECTS/Mol_Feturizer/New_Systems/rnas/3DIL

>  <Rbt.Executable>
rbdock ($Id: //depot/dev/client3/rdock/2013.1/src/exe/rbdock.cxx#4 $)

>  <Rbt.Library>
libRbt.so (2013.1, Build901 2013/11/27)

>  <Rbt.Parameter_File>
/export/apps/rDock/src/rDock_2013.1_src/data/scripts/dock_solv.prm

>  <Rbt.Receptor>
prm/blind_docking_100.prm

>  <SCORE>
-7.80782

>  <SCORE.INTER>
-8.03198

>  <SCORE.INTER.CONST>
1

>  <SCORE.INTER.POLAR>
0

>  <SCORE.INTER.ROT>
5

>  <SCORE.INTER.SOLV>
16.5786

>  <SCORE.INTER.VDW>
-17.8142

>  <SCORE.INTER.norm>
-0.803198

>  <SCORE.INTRA>
0.224163

>  <SCORE.INTRA.DIHEDRAL>
0.365233

>  <SCORE.INTRA.DIHEDRAL.0>
2.93688

>  <SCORE.INTRA.POLAR>
0

>  <SCORE.INTRA.POLAR.0>
0

>  <SCORE.INTRA.REPUL>
0

>  <SCORE.INTRA.REPUL.0>
0

>  <SCORE.INTRA.SOLV>
-1.19932

>  <SCORE.INTRA.SOLV.lig_0>
-32.2816

>  <SCORE.INTRA.VDW>
0.641207

>  <SCORE.INTRA.VDW.0>
-0.749945

>  <SCORE.INTRA.norm>
0.0224163

>  <SCORE.RESTR>
0

>  <SCORE.RESTR.CAVITY>
0

>  <SCORE.RESTR.norm>
0

>  <SCORE.SYSTEM>
0

>  <SCORE.SYSTEM.CONST>
0

>  <SCORE.SYSTEM.DIHEDRAL>
0

>  <SCORE.SYSTEM.SOLV>
0

>  <SCORE.SYSTEM.norm>
0

>  <SCORE.heavy>
10

>  <SCORE.norm>
-0.780782

>  <RMSD>
3.648

$$$$
ligand
 OpenBabel11021811473D
libRbt.so/2013.1/901 2013/11/27
 10  9  0  0  0  0  0  0  0  0999 V2000
   30.6528   16.3649   22.2060 N   0  0  0  0  0  0  0  0  0  0  0  0
   29.3339   16.4919   21.5166 C   0  0  2  0  0  0  0  0  0  0  0  0
   28.4389   15.2861   21.8006 C   0  0  0  0  0  0  0  0  0  0  0  0
   28.9001   14.1467   21.8377 O   0  0  0  0  0  0  0  0  0  0  0  0
   29.5226   16.7176   20.0119 C   0  0  0  0  0  0  0  0  0  0  0  0
   28.2070   16.9735   19.2774 C   0  0  0  0  0  0  0  0  0  0  0  0
   27.3961   15.7012   19.0724 C   0  0  0  0  0  0  0  0  0  0  0  0
   28.0420   14.7984   18.0260 C   0  0  0  0  0  0  0  0  0  0  0  0
   27.2418   13.5585   17.7370 N   0  0  0  0  0  0  0  0  0  0  0  0
   27.2312   15.4000   22.0298 O   0  0  0  0  0  0  0  0  0  0  0  0
  2  1  1  1  0  0  0
  2  3  1  0  0  0  0
  2  5  1  0  0  0  0
  3  4  1  0  0  0  0
  3 10  1  0  0  0  0
  5  6  1  0  0  0  0
  6  7  1  0  0  0  0
  7  8  1  0  0  0  0
  8  9  1  0  0  0  0
M  END
>  <CHROM.1>
-39.82794225,-175.08267064,-75.97921586,-71.55714773,-177.12693225,28.47930320
15.51941715,20.36686148,-0.77518507,-0.93928311,-1.20131007

>  <Name>
ligand

>  <RI>
0

>  <Rbt.Current_Directory>
/home/itssahil/PROJECTS/Mol_Feturizer/New_Systems/rnas/3DIL

>  <Rbt.Executable>
rbdock ($Id: //depot/dev/client3/rdock/2013.1/src/exe/rbdock.cxx#4 $)

>  <Rbt.Library>
libRbt.so (2013.1, Build901 2013/11/27)

>  <Rbt.Parameter_File>
/export/apps/rDock/src/rDock_2013.1_src/data/scripts/dock_solv.prm

>  <Rbt.Receptor>
prm/blind_docking_100.prm

>  <SCORE>
-7.81281

>  <SCORE.INTER>
-8.10033

>  <SCORE.INTER.CONST>
1

>  <SCORE.INTER.POLAR>
0

>  <SCORE.INTER.ROT>
5

>  <SCORE.INTER.SOLV>
16.6738

>  <SCORE.INTER.VDW>
-17.8915

>  <SCORE.INTER.norm>
-0.810033

>  <SCORE.INTRA>
0.287518

>  <SCORE.INTRA.DIHEDRAL>
0.284575

>  <SCORE.INTRA.DIHEDRAL.0>
2.93688

>  <SCORE.INTRA.POLAR>
0

>  <SCORE.INTRA.POLAR.0>
0

>  <SCORE.INTRA.REPUL>
0

>  <SCORE.INTRA.REPUL.0>
0

>  <SCORE.INTRA.SOLV>
-1.20018

>  <SCORE.INTRA.SOLV.lig_0>
-32.2816

>  <SCORE.INTRA.VDW>
0.745322

>  <SCORE.INTRA.VDW.0>
-0.749945

>  <SCORE.INTRA.norm>
0.0287518

>  <SCORE.RESTR>
0

>  <SCORE.RESTR.CAVITY>
0

>  <SCORE.RESTR.norm>
0

>  <SCORE.SYSTEM>
0

>  <SCORE.SYSTEM.CONST>
0

>  <SCORE.SYSTEM.DIHEDRAL>
0

>  <SCORE.SYSTEM.SOLV>
0

>  <SCORE.SYSTEM.norm>
0

>  <SCORE.heavy>
10

>  <SCORE.norm>
-0.781281

>  <RMSD>
3.671

$$$$
ligand
 OpenBabel11021811473D
libRbt.so/2013.1/901 2013/11/27
 10  9  0  0  0  0  0  0  0  0999 V2000
   30.6740   16.3417   21.9807 N   0  0  0  0  0  0  0  0  0  0  0  0
   29.3070   16.4315   21.3858 C   0  0  2  0  0  0  0  0  0  0  0  0
   28.4391   15.2447   21.8032 C   0  0  0  0  0  0  0  0  0  0  0  0
   27.2326   15.3779   22.0010 O   0  0  0  0  0  0  0  0  0  0  0  0
   29.3821   16.5719   19.8608 C   0  0  0  0  0  0  0  0  0  0  0  0
   28.0100   16.7393   19.2088 C   0  0  0  0  0  0  0  0  0  0  0  0
   27.2947   15.4107   19.0052 C   0  0  0  0  0  0  0  0  0  0  0  0
   27.9802   14.5747   17.9290 C   0  0  0  0  0  0  0  0  0  0  0  0
   27.2108   13.3367   17.5595 N   0  0  0  0  0  0  0  0  0  0  0  0
   28.8971   14.1058   21.9336 O   0  0  0  0  0  0  0  0  0  0  0  0
  2  1  1  6  0  0  0
  2  3  1  0  0  0  0
  2  5  1  0  0  0  0
  3  4  1  0  0  0  0
  3 10  1  0  0  0  0
  5  6  1  0  0  0  0
  6  7  1  0  0  0  0
  7  8  1  0  0  0  0
  8  9  1  0  0  0  0
M  END
>  <CHROM.1>
144.87302886,-177.07872603,-81.91580493,-69.54275723,-172.30144447,28.42593781
15.39000660,20.28450415,-0.79999459,-0.93430841,-1.25686279

>  <Name>
ligand

>  <RI>
0

>  <Rbt.Current_Directory>
/home/itssahil/PROJECTS/Mol_Feturizer/New_Systems/rnas/3DIL

>  <Rbt.Executable>
rbdock ($Id: //depot/dev/client3/rdock/2013.1/src/exe/rbdock.cxx#4 $)

>  <Rbt.Library>
libRbt.so (2013.1, Build901 2013/11/27)

>  <Rbt.Parameter_File>
/export/apps/rDock/src/rDock_2013.1_src/data/scripts/dock_solv.prm

>  <Rbt.Receptor>
prm/blind_docking_100.prm

>  <SCORE>
-7.75784

>  <SCORE.INTER>
-8.26337

>  <SCORE.INTER.CONST>
1

>  <SCORE.INTER.POLAR>
0

>  <SCORE.INTER.ROT>
5

>  <SCORE.INTER.SOLV>
16.4181

>  <SCORE.INTER.VDW>
-17.9149

>  <SCORE.INTER.norm>
-0.826337

>  <SCORE.INTRA>
0.50553

>  <SCORE.INTRA.DIHEDRAL>
0.945893

>  <SCORE.INTRA.DIHEDRAL.0>
2.93688

>  <SCORE.INTRA.POLAR>
0

>  <SCORE.INTRA.POLAR.0>
0

>  <SCORE.INTRA.REPUL>
0

>  <SCORE.INTRA.REPUL.0>
0

>  <SCORE.INTRA.SOLV>
-1.24891

>  <SCORE.INTRA.SOLV.lig_0>
-32.2816

>  <SCORE.INTRA.VDW>
0.657038

>  <SCORE.INTRA.VDW.0>
-0.749945

>  <SCORE.INTRA.norm>
0.050553

>  <SCORE.RESTR>
0

>  <SCORE.RESTR.CAVITY>
0

>  <SCORE.RESTR.norm>
0

>  <SCORE.SYSTEM>
0

>  <SCORE.SYSTEM.CONST>
0

>  <SCORE.SYSTEM.DIHEDRAL>
0

>  <SCORE.SYSTEM.SOLV>
0

>  <SCORE.SYSTEM.norm>
0

>  <SCORE.heavy>
10

>  <SCORE.norm>
-0.775784

>  <RMSD>
3.696

$$$$
ligand
 OpenBabel11021811473D
libRbt.so/2013.1/901 2013/11/27
 10  9  0  0  0  0  0  0  0  0999 V2000
   30.3188   16.7603   22.2772 N   0  0  0  0  0  0  0  0  0  0  0  0
   29.1485   16.5184   21.3814 C   0  0  2  0  0  0  0  0  0  0  0  0
   28.4423   15.2083   21.7294 C   0  0  0  0  0  0  0  0  0  0  0  0
   27.2151   15.1294   21.7340 O   0  0  0  0  0  0  0  0  0  0  0  0
   29.5691   16.5629   19.9076 C   0  0  0  0  0  0  0  0  0  0  0  0
   28.4373   16.1855   18.9525 C   0  0  0  0  0  0  0  0  0  0  0  0
   28.2966   14.6792   18.7806 C   0  0  0  0  0  0  0  0  0  0  0  0
   27.2271   14.3398   17.7471 C   0  0  0  0  0  0  0  0  0  0  0  0
   27.0958   12.8638   17.4920 N   0  0  0  0  0  0  0  0  0  0  0  0
   29.0627   14.1740   21.9928 O   0  0  0  0  0  0  0  0  0  0  0  0
  2  1  1  1  0  0  0
  2  3  1  0  0  0  0
  2  5  1  0  0  0  0
  3  4  1  0  0  0  0
  3 10  1  0  0  0  0
  5  6  1  0  0  0  0
  6  7  1  0  0  0  0
  7  8  1  0  0  0  0
  8  9  1  0  0  0  0
M  END
>  <CHROM.1>
139.01718009,174.33678088,-83.56921583,-175.92436932,177.21576129,28.46748482
15.21714526,20.21577211,-0.80144601,-0.96218450,-1.39202382

>  <Name>
ligand

>  <RI>
0

>  <Rbt.Current_Directory>
/home/itssahil/PROJECTS/Mol_Feturizer/New_Systems/rnas/3DIL

>  <Rbt.Executable>
rbdock ($Id: //depot/dev/client3/rdock/2013.1/src/exe/rbdock.cxx#4 $)

>  <Rbt.Library>
libRbt.so (2013.1, Build901 2013/11/27)

>  <Rbt.Parameter_File>
/export/apps/rDock/src/rDock_2013.1_src/data/scripts/dock_solv.prm

>  <Rbt.Receptor>
prm/blind_docking_100.prm

>  <SCORE>
-6.76348

>  <SCORE.INTER>
-6.78778

>  <SCORE.INTER.CONST>
1

>  <SCORE.INTER.POLAR>
0

>  <SCORE.INTER.ROT>
5

>  <SCORE.INTER.SOLV>
16.8432

>  <SCORE.INTER.VDW>
-17.0729

>  <SCORE.INTER.norm>
-0.678778

>  <SCORE.INTRA>
0.024293

>  <SCORE.INTRA.DIHEDRAL>
0.815298

>  <SCORE.INTRA.DIHEDRAL.0>
2.93688

>  <SCORE.INTRA.POLAR>
0

>  <SCORE.INTRA.POLAR.0>
0

>  <SCORE.INTRA.REPUL>
0

>  <SCORE.INTRA.REPUL.0>
0

>  <SCORE.INTRA.SOLV>
-1.37822

>  <SCORE.INTRA.SOLV.lig_0>
-32.2816

>  <SCORE.INTRA.VDW>
0.305753

>  <SCORE.INTRA.VDW.0>
-0.749945

>  <SCORE.INTRA.norm>
0.0024293

>  <SCORE.RESTR>
0

>  <SCORE.RESTR.CAVITY>
0

>  <SCORE.RESTR.norm>
0

>  <SCORE.SYSTEM>
0

>  <SCORE.SYSTEM.CONST>
0

>  <SCORE.SYSTEM.DIHEDRAL>
0

>  <SCORE.SYSTEM.SOLV>
0

>  <SCORE.SYSTEM.norm>
0

>  <SCORE.heavy>
10

>  <SCORE.norm>
-0.676348

>  <RMSD>
3.757

$$$$
ligand
 OpenBabel11021811473D
libRbt.so/2013.1/901 2013/11/27
 10  9  0  0  0  0  0  0  0  0999 V2000
   30.0857   16.2682   20.8177 N   0  0  0  0  0  0  0  0  0  0  0  0
   28.6027   16.4258   20.8977 C   0  0  2  0  0  0  0  0  0  0  0  0
   27.9424   15.1845   21.4968 C   0  0  0  0  0  0  0  0  0  0  0  0
   26.7201   15.1050   21.6068 O   0  0  0  0  0  0  0  0  0  0  0  0
   28.0148   16.7759   19.5255 C   0  0  0  0  0  0  0  0  0  0  0  0
   28.2231   15.6728   18.4883 C   0  0  0  0  0  0  0  0  0  0  0  0
   27.1983   14.5537   18.6128 C   0  0  0  0  0  0  0  0  0  0  0  0
   27.4715   13.4414   17.6051 C   0  0  0  0  0  0  0  0  0  0  0  0
   26.3572   12.4358   17.5148 N   0  0  0  0  0  0  0  0  0  0  0  0
   28.5946   14.2046   21.8689 O   0  0  0  0  0  0  0  0  0  0  0  0
  2  1  1  6  0  0  0
  2  3  1  0  0  0  0
  2  5  1  0  0  0  0
  3  4  1  0  0  0  0
  3 10  1  0  0  0  0
  5  6  1  0  0  0  0
  6  7  1  0  0  0  0
  7  8  1  0  0  0  0
  8  9  1  0  0  0  0
M  END
>  <CHROM.1>
-177.71604892,63.24904139,81.03193480,-177.48590237,-169.65562756,27.90841065
14.98444417,19.86545904,-0.82775622,-0.98767536,-1.52951025

>  <Name>
ligand

>  <RI>
0

>  <Rbt.Current_Directory>
/home/itssahil/PROJECTS/Mol_Feturizer/New_Systems/rnas/3DIL

>  <Rbt.Executable>
rbdock ($Id: //depot/dev/client3/rdock/2013.1/src/exe/rbdock.cxx#4 $)

>  <Rbt.Library>
libRbt.so (2013.1, Build901 2013/11/27)

>  <Rbt.Parameter_File>
/export/apps/rDock/src/rDock_2013.1_src/data/scripts/dock_solv.prm

>  <Rbt.Receptor>
prm/pocket_docking_8.prm

>  <SCORE>
-7.76463

>  <SCORE.INTER>
-8.24535

>  <SCORE.INTER.CONST>
1

>  <SCORE.INTER.POLAR>
0

>  <SCORE.INTER.ROT>
5

>  <SCORE.INTER.SOLV>
16.221

>  <SCORE.INTER.VDW>
-17.8372

>  <SCORE.INTER.norm>
-0.824535

>  <SCORE.INTRA>
0.480715

>  <SCORE.INTRA.DIHEDRAL>
0.704774

>  <SCORE.INTRA.DIHEDRAL.0>
2.93688

>  <SCORE.INTRA.POLAR>
0

>  <SCORE.INTRA.POLAR.0>
0

>  <SCORE.INTRA.REPUL>
0

>  <SCORE.INTRA.REPUL.0>
0

>  <SCORE.INTRA.SOLV>
-0.306803

>  <SCORE.INTRA.SOLV.lig_0>
-32.2816

>  <SCORE.INTRA.VDW>
0.28173

>  <SCORE.INTRA.VDW.0>
-0.749945

>  <SCORE.INTRA.norm>
0.0480715

>  <SCORE.RESTR>
0

>  <SCORE.RESTR.CAVITY>
0

>  <SCORE.RESTR.norm>
0

>  <SCORE.SYSTEM>
0

>  <SCORE.SYSTEM.CONST>
0

>  <SCORE.SYSTEM.DIHEDRAL>
0

>  <SCORE.SYSTEM.SOLV>
0

>  <SCORE.SYSTEM.norm>
0

>  <SCORE.heavy>
10

>  <SCORE.norm>
-0.776463

>  <RMSD>
4.124

$$$$
ligand
 OpenBabel11021811473D
libRbt.so/2013.1/901 2013/11/27
 10  9  0  0  0  0  0  0  0  0999 V2000
   28.0058   16.6658   18.8375 N   0  0  0  0  0  0  0  0  0  0  0  0
   28.2891   15.3128   19.4030 C   0  0  2  0  0  0  0  0  0  0  0  0
   29.5068   15.3391   20.3263 C   0  0  0  0  0  0  0  0  0  0  0  0
   29.4562   14.8628   21.4590 O   0  0  0  0  0  0  0  0  0  0  0  0
   28.4457   14.2746   18.2856 C   0  0  0  0  0  0  0  0  0  0  0  0
   27.1093   13.7123   17.8022 C   0  0  0  0  0  0  0  0  0  0  0  0
   27.2490   12.3306   17.1780 C   0  0  0  0  0  0  0  0  0  0  0  0
   25.8907   11.6517   17.0318 C   0  0  0  0  0  0  0  0  0  0  0  0
   25.9884   10.1623   16.8497 N   0  0  0  0  0  0  0  0  0  0  0  0
   30.5924   15.8094   19.9737 O   0  0  0  0  0  0  0  0  0  0  0  0
  2  1  1  6  0  0  0
  2  3  1  0  0  0  0
  2  5  1  0  0  0  0
  3  4  1  0  0  0  0
  3 10  1  0  0  0  0
  5  6  1  0  0  0  0
  6  7  1  0  0  0  0
  7  8  1  0  0  0  0
  8  9  1  0  0  0  0
M  END
>  <CHROM.1>
129.16305163,-83.88560316,-155.36738768,165.58251228,-161.37165133,28.08629281
14.02106478,18.74293271,0.62801898,-0.87600639,-0.17062959

>  <Name>
ligand

>  <RI>
0

>  <Rbt.Current_Directory>
/home/itssahil/PROJECTS/Mol_Feturizer/New_Systems/rnas/3DIL

>  <Rbt.Executable>
rbdock ($Id: //depot/dev/client3/rdock/2013.1/src/exe/rbdock.cxx#4 $)

>  <Rbt.Library>
libRbt.so (2013.1, Build901 2013/11/27)

>  <Rbt.Parameter_File>
/export/apps/rDock/src/rDock_2013.1_src/data/scripts/dock_solv.prm

>  <Rbt.Receptor>
prm/blind_docking_60.prm

>  <SCORE>
-2.399

>  <SCORE.INTER>
-4.0697

>  <SCORE.INTER.CONST>
1

>  <SCORE.INTER.POLAR>
0

>  <SCORE.INTER.ROT>
5

>  <SCORE.INTER.SOLV>
16.0486

>  <SCORE.INTER.VDW>
-14.996

>  <SCORE.INTER.norm>
-0.40697

>  <SCORE.INTRA>
1.67071

>  <SCORE.INTRA.DIHEDRAL>
4.81643

>  <SCORE.INTRA.DIHEDRAL.0>
2.93688

>  <SCORE.INTRA.POLAR>
0

>  <SCORE.INTRA.POLAR.0>
0

>  <SCORE.INTRA.REPUL>
0

>  <SCORE.INTRA.REPUL.0>
0

>  <SCORE.INTRA.SOLV>
-0.992161

>  <SCORE.INTRA.SOLV.lig_0>
-32.2816

>  <SCORE.INTRA.VDW>
-0.241429

>  <SCORE.INTRA.VDW.0>
-0.749945

>  <SCORE.INTRA.norm>
0.167071

>  <SCORE.RESTR>
0

>  <SCORE.RESTR.CAVITY>
0

>  <SCORE.RESTR.norm>
0

>  <SCORE.SYSTEM>
0

>  <SCORE.SYSTEM.CONST>
0

>  <SCORE.SYSTEM.DIHEDRAL>
0

>  <SCORE.SYSTEM.SOLV>
0

>  <SCORE.SYSTEM.norm>
0

>  <SCORE.heavy>
10

>  <SCORE.norm>
-0.2399

>  <RMSD>
4.435

$$$$
ligand
 OpenBabel11021811473D
libRbt.so/2013.1/901 2013/11/27
 10  9  0  0  0  0  0  0  0  0999 V2000
   28.6431   17.2810   19.6064 N   0  0  0  0  0  0  0  0  0  0  0  0
   27.6670   16.1505   19.6072 C   0  0  2  0  0  0  0  0  0  0  0  0
   27.7781   15.3199   20.8854 C   0  0  0  0  0  0  0  0  0  0  0  0
   28.8633   14.8884   21.2709 O   0  0  0  0  0  0  0  0  0  0  0  0
   27.8304   15.2857   18.3517 C   0  0  0  0  0  0  0  0  0  0  0  0
   27.0622   13.9669   18.4315 C   0  0  0  0  0  0  0  0  0  0  0  0
   26.7850   13.3690   17.0589 C   0  0  0  0  0  0  0  0  0  0  0  0
   26.2273   11.9540   17.1763 C   0  0  0  0  0  0  0  0  0  0  0  0
   27.2963   10.9019   17.2830 N   0  0  0  0  0  0  0  0  0  0  0  0
   26.8006   15.0689   21.5963 O   0  0  0  0  0  0  0  0  0  0  0  0
  2  1  1  1  0  0  0
  2  3  1  0  0  0  0
  2  5  1  0  0  0  0
  3  4  1  0  0  0  0
  3 10  1  0  0  0  0
  5  6  1  0  0  0  0
  6  7  1  0  0  0  0
  7  8  1  0  0  0  0
  8  9  1  0  0  0  0
M  END
>  <CHROM.1>
-51.22727140,168.36303884,158.40112648,170.62024966,-85.90340514,27.49935298
14.40912671,19.16288811,-0.46159863,-1.30316310,-1.33064530

>  <Name>
ligand

>  <RI>
0

>  <Rbt.Current_Directory>
/home/itssahil/PROJECTS/Mol_Feturizer/New_Systems/rnas/3DIL

>  <Rbt.Executable>
rbdock ($Id: //depot/dev/client3/rdock/2013.1/src/exe/rbdock.cxx#4 $)

>  <Rbt.Library>
libRbt.so (2013.1, Build901 2013/11/27)

>  <Rbt.Parameter_File>
/export/apps/rDock/src/rDock_2013.1_src/data/scripts/dock_solv.prm

>  <Rbt.Receptor>
prm/blind_docking_40.prm

>  <SCORE>
-2.18329

>  <SCORE.INTER>
-3.76326

>  <SCORE.INTER.CONST>
1

>  <SCORE.INTER.POLAR>
0

>  <SCORE.INTER.ROT>
5

>  <SCORE.INTER.SOLV>
18.9496

>  <SCORE.INTER.VDW>
-15.7587

>  <SCORE.INTER.norm>
-0.376326

>  <SCORE.INTRA>
1.57997

>  <SCORE.INTRA.DIHEDRAL>
3.42617

>  <SCORE.INTRA.DIHEDRAL.0>
2.93688

>  <SCORE.INTRA.POLAR>
0

>  <SCORE.INTRA.POLAR.0>
0

>  <SCORE.INTRA.REPUL>
0

>  <SCORE.INTRA.REPUL.0>
0

>  <SCORE.INTRA.SOLV>
-0.870864

>  <SCORE.INTRA.SOLV.lig_0>
-32.2816

>  <SCORE.INTRA.VDW>
0.302317

>  <SCORE.INTRA.VDW.0>
-0.749945

>  <SCORE.INTRA.norm>
0.157997

>  <SCORE.RESTR>
0

>  <SCORE.RESTR.CAVITY>
0

>  <SCORE.RESTR.norm>
0

>  <SCORE.SYSTEM>
0

>  <SCORE.SYSTEM.CONST>
0

>  <SCORE.SYSTEM.DIHEDRAL>
0

>  <SCORE.SYSTEM.SOLV>
0

>  <SCORE.SYSTEM.norm>
0

>  <SCORE.heavy>
10

>  <SCORE.norm>
-0.218329

>  <RMSD>
4.770

$$$$
ligand
 OpenBabel11021811473D
libRbt.so/2013.1/901 2013/11/27
 10  9  0  0  0  0  0  0  0  0999 V2000
   29.0626   17.0745   20.2621 N   0  0  0  0  0  0  0  0  0  0  0  0
   27.9078   16.2039   19.8890 C   0  0  2  0  0  0  0  0  0  0  0  0
   27.2914   15.5391   21.1194 C   0  0  0  0  0  0  0  0  0  0  0  0
   26.1501   15.0819   21.0903 O   0  0  0  0  0  0  0  0  0  0  0  0
   28.3195   15.1722   18.8321 C   0  0  0  0  0  0  0  0  0  0  0  0
   27.1369   14.3720   18.2871 C   0  0  0  0  0  0  0  0  0  0  0  0
   27.5739   13.1138   17.5495 C   0  0  0  0  0  0  0  0  0  0  0  0
   26.3699   12.2929   17.0982 C   0  0  0  0  0  0  0  0  0  0  0  0
   26.7182   10.8734   16.7454 N   0  0  0  0  0  0  0  0  0  0  0  0
   27.9116   15.4075   22.1787 O   0  0  0  0  0  0  0  0  0  0  0  0
  2  1  1  1  0  0  0
  2  3  1  0  0  0  0
  2  5  1  0  0  0  0
  3  4  1  0  0  0  0
  3 10  1  0  0  0  0
  5  6  1  0  0  0  0
  6  7  1  0  0  0  0
  7  8  1  0  0  0  0
  8  9  1  0  0  0  0
M  END
>  <CHROM.1>
160.58319631,-172.78857220,-164.00774637,176.30161084,-162.64072606,27.43137557
14.50700310,19.34045996,-1.28264874,-0.84433562,-2.14379317

>  <Name>
ligand

>  <RI>
0

>  <Rbt.Current_Directory>
/home/itssahil/PROJECTS/Mol_Feturizer/New_Systems/rnas/3DIL

>  <Rbt.Executable>
rbdock ($Id: //depot/dev/client3/rdock/2013.1/src/exe/rbdock.cxx#4 $)

>  <Rbt.Library>
libRbt.so (2013.1, Build901 2013/11/27)

>  <Rbt.Parameter_File>
/export/apps/rDock/src/rDock_2013.1_src/data/scripts/dock_solv.prm

>  <Rbt.Receptor>
prm/pocket_docking_7.prm

>  <SCORE>
-7.82914

>  <SCORE.INTER>
-7.50526

>  <SCORE.INTER.CONST>
1

>  <SCORE.INTER.POLAR>
0

>  <SCORE.INTER.ROT>
5

>  <SCORE.INTER.SOLV>
17.7307

>  <SCORE.INTER.VDW>
-17.8471

>  <SCORE.INTER.norm>
-0.750526

>  <SCORE.INTRA>
-0.323876

>  <SCORE.INTRA.DIHEDRAL>
0.84156

>  <SCORE.INTRA.DIHEDRAL.0>
2.93688

>  <SCORE.INTRA.POLAR>
0

>  <SCORE.INTRA.POLAR.0>
0

>  <SCORE.INTRA.REPUL>
0

>  <SCORE.INTRA.REPUL.0>
0

>  <SCORE.INTRA.SOLV>
-1.47791

>  <SCORE.INTRA.SOLV.lig_0>
-32.2816

>  <SCORE.INTRA.VDW>
-0.00570245

>  <SCORE.INTRA.VDW.0>
-0.749945

>  <SCORE.INTRA.norm>
-0.0323876

>  <SCORE.RESTR>
0

>  <SCORE.RESTR.CAVITY>
0

>  <SCORE.RESTR.norm>
0

>  <SCORE.SYSTEM>
0

>  <SCORE.SYSTEM.CONST>
0

>  <SCORE.SYSTEM.DIHEDRAL>
0

>  <SCORE.SYSTEM.SOLV>
0

>  <SCORE.SYSTEM.norm>
0

>  <SCORE.heavy>
10

>  <SCORE.norm>
-0.782914

>  <RMSD>
4.847

$$$$
ligand
 OpenBabel11021811473D
libRbt.so/2013.1/901 2013/11/27
 10  9  0  0  0  0  0  0  0  0999 V2000
   29.4192   15.9940   19.5883 N   0  0  0  0  0  0  0  0  0  0  0  0
   27.9550   15.8453   19.8427 C   0  0  2  0  0  0  0  0  0  0  0  0
   27.6895   15.0101   21.0948 C   0  0  0  0  0  0  0  0  0  0  0  0
   26.5609   14.9269   21.5761 O   0  0  0  0  0  0  0  0  0  0  0  0
   27.2418   15.2694   18.6137 C   0  0  0  0  0  0  0  0  0  0  0  0
   27.8261   13.9332   18.1565 C   0  0  0  0  0  0  0  0  0  0  0  0
   26.8226   13.0930   17.3785 C   0  0  0  0  0  0  0  0  0  0  0  0
   27.3902   11.7141   17.0566 C   0  0  0  0  0  0  0  0  0  0  0  0
   26.3298   10.6920   16.7536 N   0  0  0  0  0  0  0  0  0  0  0  0
   28.5788   14.3662   21.6594 O   0  0  0  0  0  0  0  0  0  0  0  0
  2  1  1  6  0  0  0
  2  3  1  0  0  0  0
  2  5  1  0  0  0  0
  3  4  1  0  0  0  0
  3 10  1  0  0  0  0
  5  6  1  0  0  0  0
  6  7  1  0  0  0  0
  7  8  1  0  0  0  0
  8  9  1  0  0  0  0
M  END
>  <CHROM.1>
169.88773520,56.23082494,155.50813994,-174.41276542,159.07424406,27.57678478
14.07454425,19.20843870,-1.13550563,-1.02408204,-1.93569546

>  <Name>
ligand

>  <RI>
0

>  <Rbt.Current_Directory>
/home/itssahil/PROJECTS/Mol_Feturizer/New_Systems/rnas/3DIL

>  <Rbt.Executable>
rbdock ($Id: //depot/dev/client3/rdock/2013.1/src/exe/rbdock.cxx#4 $)

>  <Rbt.Library>
libRbt.so (2013.1, Build901 2013/11/27)

>  <Rbt.Parameter_File>
/export/apps/rDock/src/rDock_2013.1_src/data/scripts/dock_solv.prm

>  <Rbt.Receptor>
prm/pocket_docking_8.prm

>  <SCORE>
-7.12258

>  <SCORE.INTER>
-8.05799

>  <SCORE.INTER.CONST>
1

>  <SCORE.INTER.POLAR>
0

>  <SCORE.INTER.ROT>
5

>  <SCORE.INTER.SOLV>
14.1895

>  <SCORE.INTER.VDW>
-17.0352

>  <SCORE.INTER.norm>
-0.805799

>  <SCORE.INTRA>
0.935414

>  <SCORE.INTRA.DIHEDRAL>
2.42276

>  <SCORE.INTRA.DIHEDRAL.0>
2.93688

>  <SCORE.INTRA.POLAR>
0

>  <SCORE.INTRA.POLAR.0>
0

>  <SCORE.INTRA.REPUL>
0

>  <SCORE.INTRA.REPUL.0>
0

>  <SCORE.INTRA.SOLV>
-0.57825

>  <SCORE.INTRA.SOLV.lig_0>
-32.2816

>  <SCORE.INTRA.VDW>
0.0131596

>  <SCORE.INTRA.VDW.0>
-0.749945

>  <SCORE.INTRA.norm>
0.0935414

>  <SCORE.RESTR>
0

>  <SCORE.RESTR.CAVITY>
0

>  <SCORE.RESTR.norm>
0

>  <SCORE.SYSTEM>
0

>  <SCORE.SYSTEM.CONST>
0

>  <SCORE.SYSTEM.DIHEDRAL>
0

>  <SCORE.SYSTEM.SOLV>
0

>  <SCORE.SYSTEM.norm>
0

>  <SCORE.heavy>
10

>  <SCORE.norm>
-0.712258

>  <RMSD>
4.859

$$$$
ligand
 OpenBabel11021811473D
libRbt.so/2013.1/901 2013/11/27
 10  9  0  0  0  0  0  0  0  0999 V2000
   26.9755   14.0972   18.7946 N   0  0  0  0  0  0  0  0  0  0  0  0
   26.8212   15.4054   19.4985 C   0  0  2  0  0  0  0  0  0  0  0  0
   27.7785   16.4561   18.9369 C   0  0  0  0  0  0  0  0  0  0  0  0
   28.3777   16.2696   17.8792 O   0  0  0  0  0  0  0  0  0  0  0  0
   26.9895   15.2351   21.0129 C   0  0  0  0  0  0  0  0  0  0  0  0
   28.4075   14.8295   21.4138 C   0  0  0  0  0  0  0  0  0  0  0  0
   29.3613   16.0153   21.4647 C   0  0  0  0  0  0  0  0  0  0  0  0
   30.8040   15.5549   21.6485 C   0  0  0  0  0  0  0  0  0  0  0  0
   31.7911   16.6890   21.6651 N   0  0  0  0  0  0  0  0  0  0  0  0
   27.9726   17.5388   19.4973 O   0  0  0  0  0  0  0  0  0  0  0  0
  2  1  1  6  0  0  0
  2  3  1  0  0  0  0
  2  5  1  0  0  0  0
  3  4  1  0  0  0  0
  3 10  1  0  0  0  0
  5  6  1  0  0  0  0
  6  7  1  0  0  0  0
  7  8  1  0  0  0  0
  8  9  1  0  0  0  0
M  END
>  <CHROM.1>
12.99842604,66.42337835,80.91145745,-171.00277566,178.32864870,28.54068366
15.83344594,20.16204451,2.73497706,-0.52644720,-0.92875057

>  <Name>
ligand

>  <RI>
0

>  <Rbt.Current_Directory>
/home/itssahil/PROJECTS/Mol_Feturizer/New_Systems/rnas/3DIL

>  <Rbt.Executable>
rbdock ($Id: //depot/dev/client3/rdock/2013.1/src/exe/rbdock.cxx#4 $)

>  <Rbt.Library>
libRbt.so (2013.1, Build901 2013/11/27)

>  <Rbt.Parameter_File>
/export/apps/rDock/src/rDock_2013.1_src/data/scripts/dock_solv.prm

>  <Rbt.Receptor>
prm/pocket_docking_8.prm

>  <SCORE>
-7.80662

>  <SCORE.INTER>
-8.74051

>  <SCORE.INTER.CONST>
1

>  <SCORE.INTER.POLAR>
0

>  <SCORE.INTER.ROT>
5

>  <SCORE.INTER.SOLV>
16.0468

>  <SCORE.INTER.VDW>
-18.1093

>  <SCORE.INTER.norm>
-0.874051

>  <SCORE.INTRA>
0.933888

>  <SCORE.INTRA.DIHEDRAL>
0.68912

>  <SCORE.INTRA.DIHEDRAL.0>
2.93688

>  <SCORE.INTRA.POLAR>
0

>  <SCORE.INTRA.POLAR.0>
0

>  <SCORE.INTRA.REPUL>
0

>  <SCORE.INTRA.REPUL.0>
0

>  <SCORE.INTRA.SOLV>
-0.363964

>  <SCORE.INTRA.SOLV.lig_0>
-32.2816

>  <SCORE.INTRA.VDW>
0.77131

>  <SCORE.INTRA.VDW.0>
-0.749945

>  <SCORE.INTRA.norm>
0.0933888

>  <SCORE.RESTR>
0

>  <SCORE.RESTR.CAVITY>
0

>  <SCORE.RESTR.norm>
0

>  <SCORE.SYSTEM>
0

>  <SCORE.SYSTEM.CONST>
0

>  <SCORE.SYSTEM.DIHEDRAL>
0

>  <SCORE.SYSTEM.SOLV>
0

>  <SCORE.SYSTEM.norm>
0

>  <SCORE.heavy>
10

>  <SCORE.norm>
-0.780662

>  <RMSD>
4.890

$$$$
ligand
 OpenBabel11021811473D
libRbt.so/2013.1/901 2013/11/27
 10  9  0  0  0  0  0  0  0  0999 V2000
   27.0718   14.9706   18.7814 N   0  0  0  0  0  0  0  0  0  0  0  0
   28.1454   15.3239   19.7578 C   0  0  2  0  0  0  0  0  0  0  0  0
   27.7604   14.9171   21.1799 C   0  0  0  0  0  0  0  0  0  0  0  0
   28.5898   14.4361   21.9501 O   0  0  0  0  0  0  0  0  0  0  0  0
   28.4975   16.8135   19.6686 C   0  0  0  0  0  0  0  0  0  0  0  0
   29.9500   17.1066   20.0429 C   0  0  0  0  0  0  0  0  0  0  0  0
   30.2412   16.8308   21.5117 C   0  0  0  0  0  0  0  0  0  0  0  0
   31.6743   17.2114   21.8706 C   0  0  0  0  0  0  0  0  0  0  0  0
   32.7006   16.5581   20.9868 N   0  0  0  0  0  0  0  0  0  0  0  0
   26.6200   15.0749   21.6256 O   0  0  0  0  0  0  0  0  0  0  0  0
  2  1  1  6  0  0  0
  2  3  1  0  0  0  0
  2  5  1  0  0  0  0
  3  4  1  0  0  0  0
  3 10  1  0  0  0  0
  5  6  1  0  0  0  0
  6  7  1  0  0  0  0
  7  8  1  0  0  0  0
  8  9  1  0  0  0  0
M  END
>  <CHROM.1>
140.29898140,-150.60453335,-66.59153693,-176.62736555,-54.27020400,29.10888030
15.91034074,20.76781609,3.13726950,0.43666696,1.97528080

>  <Name>
ligand

>  <RI>
0

>  <Rbt.Current_Directory>
/home/itssahil/PROJECTS/Mol_Feturizer/New_Systems/rnas/3DIL

>  <Rbt.Executable>
rbdock ($Id: //depot/dev/client3/rdock/2013.1/src/exe/rbdock.cxx#4 $)

>  <Rbt.Library>
libRbt.so (2013.1, Build901 2013/11/27)

>  <Rbt.Parameter_File>
/export/apps/rDock/src/rDock_2013.1_src/data/scripts/dock_solv.prm

>  <Rbt.Receptor>
prm/pocket_docking_2.prm

>  <SCORE>
-6.89439

>  <SCORE.INTER>
-7.75536

>  <SCORE.INTER.CONST>
1

>  <SCORE.INTER.POLAR>
0

>  <SCORE.INTER.ROT>
5

>  <SCORE.INTER.SOLV>
14.5468

>  <SCORE.INTER.VDW>
-16.9525

>  <SCORE.INTER.norm>
-0.775536

>  <SCORE.INTRA>
0.860974

>  <SCORE.INTRA.DIHEDRAL>
1.61264

>  <SCORE.INTRA.DIHEDRAL.0>
2.93688

>  <SCORE.INTRA.POLAR>
0

>  <SCORE.INTRA.POLAR.0>
0

>  <SCORE.INTRA.REPUL>
0

>  <SCORE.INTRA.REPUL.0>
0

>  <SCORE.INTRA.SOLV>
-0.333963

>  <SCORE.INTRA.SOLV.lig_0>
-32.2816

>  <SCORE.INTRA.VDW>
0.221633

>  <SCORE.INTRA.VDW.0>
-0.749945

>  <SCORE.INTRA.norm>
0.0860974

>  <SCORE.RESTR>
0

>  <SCORE.RESTR.CAVITY>
0

>  <SCORE.RESTR.norm>
0

>  <SCORE.SYSTEM>
0

>  <SCORE.SYSTEM.CONST>
0

>  <SCORE.SYSTEM.DIHEDRAL>
0

>  <SCORE.SYSTEM.SOLV>
0

>  <SCORE.SYSTEM.norm>
0

>  <SCORE.heavy>
10

>  <SCORE.norm>
-0.689439

>  <RMSD>
4.944

$$$$
ligand
 OpenBabel11021811473D
libRbt.so/2013.1/901 2013/11/27
 10  9  0  0  0  0  0  0  0  0999 V2000
   27.0080   15.2408   19.0566 N   0  0  0  0  0  0  0  0  0  0  0  0
   28.2330   15.4196   19.8920 C   0  0  2  0  0  0  0  0  0  0  0  0
   27.9893   14.9865   21.3373 C   0  0  0  0  0  0  0  0  0  0  0  0
   28.7592   14.2162   21.9086 O   0  0  0  0  0  0  0  0  0  0  0  0
   28.7455   16.8623   19.8099 C   0  0  0  0  0  0  0  0  0  0  0  0
   30.2231   16.9924   20.1783 C   0  0  0  0  0  0  0  0  0  0  0  0
   30.4884   16.6821   21.6451 C   0  0  0  0  0  0  0  0  0  0  0  0
   31.9797   16.7432   21.9606 C   0  0  0  0  0  0  0  0  0  0  0  0
   32.5655   18.1180   21.7938 N   0  0  0  0  0  0  0  0  0  0  0  0
   27.0354   15.4050   21.9997 O   0  0  0  0  0  0  0  0  0  0  0  0
  2  1  1  6  0  0  0
  2  3  1  0  0  0  0
  2  5  1  0  0  0  0
  3  4  1  0  0  0  0
  3 10  1  0  0  0  0
  5  6  1  0  0  0  0
  6  7  1  0  0  0  0
  7  8  1  0  0  0  0
  8  9  1  0  0  0  0
M  END
>  <CHROM.1>
129.77664110,-158.22861786,-66.81713748,176.75645974,64.56845221,29.28967745
16.05136270,20.98837098,3.10082659,0.51524847,2.08663828

>  <Name>
ligand

>  <RI>
0

>  <Rbt.Current_Directory>
/home/itssahil/PROJECTS/Mol_Feturizer/New_Systems/rnas/3DIL

>  <Rbt.Executable>
rbdock ($Id: //depot/dev/client3/rdock/2013.1/src/exe/rbdock.cxx#4 $)

>  <Rbt.Library>
libRbt.so (2013.1, Build901 2013/11/27)

>  <Rbt.Parameter_File>
/export/apps/rDock/src/rDock_2013.1_src/data/scripts/dock_solv.prm

>  <Rbt.Receptor>
prm/pocket_docking_7.prm

>  <SCORE>
-7.85048

>  <SCORE.INTER>
-8.02044

>  <SCORE.INTER.CONST>
1

>  <SCORE.INTER.POLAR>
0

>  <SCORE.INTER.ROT>
5

>  <SCORE.INTER.SOLV>
13.8511

>  <SCORE.INTER.VDW>
-16.8973

>  <SCORE.INTER.norm>
-0.802044

>  <SCORE.INTRA>
0.169954

>  <SCORE.INTRA.DIHEDRAL>
0.4952

>  <SCORE.INTRA.DIHEDRAL.0>
2.93688

>  <SCORE.INTRA.POLAR>
0

>  <SCORE.INTRA.POLAR.0>
0

>  <SCORE.INTRA.REPUL>
0

>  <SCORE.INTRA.REPUL.0>
0

>  <SCORE.INTRA.SOLV>
-0.500501

>  <SCORE.INTRA.SOLV.lig_0>
-32.2816

>  <SCORE.INTRA.VDW>
0.172604

>  <SCORE.INTRA.VDW.0>
-0.749945

>  <SCORE.INTRA.norm>
0.0169954

>  <SCORE.RESTR>
0

>  <SCORE.RESTR.CAVITY>
0

>  <SCORE.RESTR.norm>
0

>  <SCORE.SYSTEM>
0

>  <SCORE.SYSTEM.CONST>
0

>  <SCORE.SYSTEM.DIHEDRAL>
0

>  <SCORE.SYSTEM.SOLV>
0

>  <SCORE.SYSTEM.norm>
0

>  <SCORE.heavy>
10

>  <SCORE.norm>
-0.785048

>  <RMSD>
4.951

$$$$
ligand
 OpenBabel11021811473D
libRbt.so/2013.1/901 2013/11/27
 10  9  0  0  0  0  0  0  0  0999 V2000
   26.9992   15.2340   19.0795 N   0  0  0  0  0  0  0  0  0  0  0  0
   28.2303   15.4227   19.9038 C   0  0  2  0  0  0  0  0  0  0  0  0
   28.0023   14.9907   21.3520 C   0  0  0  0  0  0  0  0  0  0  0  0
   27.0390   15.4045   21.9947 O   0  0  0  0  0  0  0  0  0  0  0  0
   28.7321   16.8688   19.8145 C   0  0  0  0  0  0  0  0  0  0  0  0
   30.2090   17.0115   20.1809 C   0  0  0  0  0  0  0  0  0  0  0  0
   30.4804   16.6938   21.6450 C   0  0  0  0  0  0  0  0  0  0  0  0
   31.9739   16.7423   21.9520 C   0  0  0  0  0  0  0  0  0  0  0  0
   32.5644   18.1179   21.8100 N   0  0  0  0  0  0  0  0  0  0  0  0
   28.7498   14.1953   21.9288 O   0  0  0  0  0  0  0  0  0  0  0  0
  2  1  1  6  0  0  0
  2  3  1  0  0  0  0
  2  5  1  0  0  0  0
  3  4  1  0  0  0  0
  3 10  1  0  0  0  0
  5  6  1  0  0  0  0
  6  7  1  0  0  0  0
  7  8  1  0  0  0  0
  8  9  1  0  0  0  0
M  END
>  <CHROM.1>
-50.87660587,-158.70760144,-66.13279796,175.69082046,65.57477592,29.28479373
16.05252318,20.99616965,3.09151557,0.51591639,2.09990980

>  <Name>
ligand

>  <RI>
0

>  <Rbt.Current_Directory>
/home/itssahil/PROJECTS/Mol_Feturizer/New_Systems/rnas/3DIL

>  <Rbt.Executable>
rbdock ($Id: //depot/dev/client3/rdock/2013.1/src/exe/rbdock.cxx#4 $)

>  <Rbt.Library>
libRbt.so (2013.1, Build901 2013/11/27)

>  <Rbt.Parameter_File>
/export/apps/rDock/src/rDock_2013.1_src/data/scripts/dock_solv.prm

>  <Rbt.Receptor>
prm/pocket_docking_7.prm

>  <SCORE>
-7.80474

>  <SCORE.INTER>
-8.00736

>  <SCORE.INTER.CONST>
1

>  <SCORE.INTER.POLAR>
0

>  <SCORE.INTER.ROT>
5

>  <SCORE.INTER.SOLV>
13.8778

>  <SCORE.INTER.VDW>
-16.8975

>  <SCORE.INTER.norm>
-0.800736

>  <SCORE.INTRA>
0.202617

>  <SCORE.INTRA.DIHEDRAL>
0.509712

>  <SCORE.INTRA.DIHEDRAL.0>
2.93688

>  <SCORE.INTRA.POLAR>
0

>  <SCORE.INTRA.POLAR.0>
0

>  <SCORE.INTRA.REPUL>
0

>  <SCORE.INTRA.REPUL.0>
0

>  <SCORE.INTRA.SOLV>
-0.500431

>  <SCORE.INTRA.SOLV.lig_0>
-32.2816

>  <SCORE.INTRA.VDW>
0.197977

>  <SCORE.INTRA.VDW.0>
-0.749945

>  <SCORE.INTRA.norm>
0.0202617

>  <SCORE.RESTR>
0

>  <SCORE.RESTR.CAVITY>
0

>  <SCORE.RESTR.norm>
0

>  <SCORE.SYSTEM>
0

>  <SCORE.SYSTEM.CONST>
0

>  <SCORE.SYSTEM.DIHEDRAL>
0

>  <SCORE.SYSTEM.SOLV>
0

>  <SCORE.SYSTEM.norm>
0

>  <SCORE.heavy>
10

>  <SCORE.norm>
-0.780474

>  <RMSD>
4.954

$$$$
ligand
 OpenBabel11021811473D
libRbt.so/2013.1/901 2013/11/27
 10  9  0  0  0  0  0  0  0  0999 V2000
   27.3817   15.3166   18.9374 N   0  0  0  0  0  0  0  0  0  0  0  0
   28.3188   15.0345   20.0657 C   0  0  2  0  0  0  0  0  0  0  0  0
   27.6157   15.1570   21.4172 C   0  0  0  0  0  0  0  0  0  0  0  0
   28.2396   15.4580   22.4334 O   0  0  0  0  0  0  0  0  0  0  0  0
   29.5577   15.9344   19.9860 C   0  0  0  0  0  0  0  0  0  0  0  0
   30.7643   15.3550   20.7237 C   0  0  0  0  0  0  0  0  0  0  0  0
   32.0023   16.2322   20.5967 C   0  0  0  0  0  0  0  0  0  0  0  0
   32.0585   17.2713   21.7121 C   0  0  0  0  0  0  0  0  0  0  0  0
   30.8623   18.1822   21.7351 N   0  0  0  0  0  0  0  0  0  0  0  0
   26.3997   14.9881   21.5462 O   0  0  0  0  0  0  0  0  0  0  0  0
  2  1  1  6  0  0  0
  2  3  1  0  0  0  0
  2  5  1  0  0  0  0
  3  4  1  0  0  0  0
  3 10  1  0  0  0  0
  5  6  1  0  0  0  0
  6  7  1  0  0  0  0
  7  8  1  0  0  0  0
  8  9  1  0  0  0  0
M  END
>  <CHROM.1>
-152.62653021,-157.10160994,177.96533491,89.01405527,-58.96653014,29.29568460
15.89059159,20.94445556,-2.92788539,0.35630656,1.24165782

>  <Name>
ligand

>  <RI>
0

>  <Rbt.Current_Directory>
/home/itssahil/PROJECTS/Mol_Feturizer/New_Systems/rnas/3DIL

>  <Rbt.Executable>
rbdock ($Id: //depot/dev/client3/rdock/2013.1/src/exe/rbdock.cxx#4 $)

>  <Rbt.Library>
libRbt.so (2013.1, Build901 2013/11/27)

>  <Rbt.Parameter_File>
/export/apps/rDock/src/rDock_2013.1_src/data/scripts/dock_solv.prm

>  <Rbt.Receptor>
prm/pocket_docking_5.prm

>  <SCORE>
-5.63213

>  <SCORE.INTER>
-8.12503

>  <SCORE.INTER.CONST>
1

>  <SCORE.INTER.POLAR>
0

>  <SCORE.INTER.ROT>
5

>  <SCORE.INTER.SOLV>
13.9203

>  <SCORE.INTER.VDW>
-16.9901

>  <SCORE.INTER.norm>
-0.812503

>  <SCORE.INTRA>
2.4929

>  <SCORE.INTRA.DIHEDRAL>
3.33391

>  <SCORE.INTRA.DIHEDRAL.0>
2.93688

>  <SCORE.INTRA.POLAR>
0

>  <SCORE.INTRA.POLAR.0>
0

>  <SCORE.INTRA.REPUL>
0

>  <SCORE.INTRA.REPUL.0>
0

>  <SCORE.INTRA.SOLV>
0.761019

>  <SCORE.INTRA.SOLV.lig_0>
-32.2816

>  <SCORE.INTRA.VDW>
0.445437

>  <SCORE.INTRA.VDW.0>
-0.749945

>  <SCORE.INTRA.norm>
0.24929

>  <SCORE.RESTR>
0

>  <SCORE.RESTR.CAVITY>
0

>  <SCORE.RESTR.norm>
0

>  <SCORE.SYSTEM>
0

>  <SCORE.SYSTEM.CONST>
0

>  <SCORE.SYSTEM.DIHEDRAL>
0

>  <SCORE.SYSTEM.SOLV>
0

>  <SCORE.SYSTEM.norm>
0

>  <SCORE.heavy>
10

>  <SCORE.norm>
-0.563213

>  <RMSD>
4.976

$$$$
ligand
 OpenBabel11021811473D
libRbt.so/2013.1/901 2013/11/27
 10  9  0  0  0  0  0  0  0  0999 V2000
   29.2832   15.9596   19.3906 N   0  0  0  0  0  0  0  0  0  0  0  0
   27.8366   15.7307   19.6830 C   0  0  2  0  0  0  0  0  0  0  0  0
   27.6496   14.9051   20.9556 C   0  0  0  0  0  0  0  0  0  0  0  0
   28.5777   14.2552   21.4338 O   0  0  0  0  0  0  0  0  0  0  0  0
   27.1302   15.0910   18.4819 C   0  0  0  0  0  0  0  0  0  0  0  0
   27.7800   13.7817   18.0354 C   0  0  0  0  0  0  0  0  0  0  0  0
   26.8044   12.8627   17.3128 C   0  0  0  0  0  0  0  0  0  0  0  0
   27.4331   11.5009   17.0344 C   0  0  0  0  0  0  0  0  0  0  0  0
   26.4192   10.4225   16.7695 N   0  0  0  0  0  0  0  0  0  0  0  0
   26.5796   14.8735   21.5705 O   0  0  0  0  0  0  0  0  0  0  0  0
  2  1  1  6  0  0  0
  2  3  1  0  0  0  0
  2  5  1  0  0  0  0
  3  4  1  0  0  0  0
  3 10  1  0  0  0  0
  5  6  1  0  0  0  0
  6  7  1  0  0  0  0
  7  8  1  0  0  0  0
  8  9  1  0  0  0  0
M  END
>  <CHROM.1>
-17.06385591,56.31765451,154.75569136,-172.97734142,160.15124420,27.54660658
13.92938258,19.10373825,-1.12922511,-1.09505203,-1.95456755

>  <Name>
ligand

>  <RI>
0

>  <Rbt.Current_Directory>
/home/itssahil/PROJECTS/Mol_Feturizer/New_Systems/rnas/3DIL

>  <Rbt.Executable>
rbdock ($Id: //depot/dev/client3/rdock/2013.1/src/exe/rbdock.cxx#4 $)

>  <Rbt.Library>
libRbt.so (2013.1, Build901 2013/11/27)

>  <Rbt.Parameter_File>
/export/apps/rDock/src/rDock_2013.1_src/data/scripts/dock_solv.prm

>  <Rbt.Receptor>
prm/blind_docking_40.prm

>  <SCORE>
-7.04591

>  <SCORE.INTER>
-8.00706

>  <SCORE.INTER.CONST>
1

>  <SCORE.INTER.POLAR>
0

>  <SCORE.INTER.ROT>
5

>  <SCORE.INTER.SOLV>
14.0042

>  <SCORE.INTER.VDW>
-16.9394

>  <SCORE.INTER.norm>
-0.800706

>  <SCORE.INTRA>
0.961144

>  <SCORE.INTRA.DIHEDRAL>
2.55046

>  <SCORE.INTRA.DIHEDRAL.0>
2.93688

>  <SCORE.INTRA.POLAR>
0

>  <SCORE.INTRA.POLAR.0>
0

>  <SCORE.INTRA.REPUL>
0

>  <SCORE.INTRA.REPUL.0>
0

>  <SCORE.INTRA.SOLV>
-0.574079

>  <SCORE.INTRA.SOLV.lig_0>
-32.2816

>  <SCORE.INTRA.VDW>
-0.027044

>  <SCORE.INTRA.VDW.0>
-0.749945

>  <SCORE.INTRA.norm>
0.0961144

>  <SCORE.RESTR>
0

>  <SCORE.RESTR.CAVITY>
0

>  <SCORE.RESTR.norm>
0

>  <SCORE.SYSTEM>
0

>  <SCORE.SYSTEM.CONST>
0

>  <SCORE.SYSTEM.DIHEDRAL>
0

>  <SCORE.SYSTEM.SOLV>
0

>  <SCORE.SYSTEM.norm>
0

>  <SCORE.heavy>
10

>  <SCORE.norm>
-0.704591

>  <RMSD>
4.983

$$$$
ligand
 OpenBabel11021811473D
libRbt.so/2013.1/901 2013/11/27
 10  9  0  0  0  0  0  0  0  0999 V2000
   26.0201   15.1421   20.4374 N   0  0  0  0  0  0  0  0  0  0  0  0
   27.3682   15.7552   20.6313 C   0  0  2  0  0  0  0  0  0  0  0  0
   27.8939   16.3663   19.3328 C   0  0  0  0  0  0  0  0  0  0  0  0
   28.3719   17.4991   19.3111 O   0  0  0  0  0  0  0  0  0  0  0  0
   28.3526   14.7376   21.2197 C   0  0  0  0  0  0  0  0  0  0  0  0
   29.6544   15.3768   21.7019 C   0  0  0  0  0  0  0  0  0  0  0  0
   30.5556   15.8044   20.5515 C   0  0  0  0  0  0  0  0  0  0  0  0
   31.8498   16.4262   21.0669 C   0  0  0  0  0  0  0  0  0  0  0  0
   31.6284   17.6816   21.8645 N   0  0  0  0  0  0  0  0  0  0  0  0
   27.8882   15.7494   18.2634 O   0  0  0  0  0  0  0  0  0  0  0  0
  2  1  1  6  0  0  0
  2  3  1  0  0  0  0
  2  5  1  0  0  0  0
  3  4  1  0  0  0  0
  3 10  1  0  0  0  0
  5  6  1  0  0  0  0
  6  7  1  0  0  0  0
  7  8  1  0  0  0  0
  8  9  1  0  0  0  0
M  END
>  <CHROM.1>
132.48246422,-168.29216322,-73.18783736,-179.49266580,-62.46845260,28.96173880
16.06738929,20.40609927,2.98227119,-0.40370237,-0.94261269

>  <Name>
ligand

>  <RI>
0

>  <Rbt.Current_Directory>
/home/itssahil/PROJECTS/Mol_Feturizer/New_Systems/rnas/3DIL

>  <Rbt.Executable>
rbdock ($Id: //depot/dev/client3/rdock/2013.1/src/exe/rbdock.cxx#4 $)

>  <Rbt.Library>
libRbt.so (2013.1, Build901 2013/11/27)

>  <Rbt.Parameter_File>
/export/apps/rDock/src/rDock_2013.1_src/data/scripts/dock_solv.prm

>  <Rbt.Receptor>
prm/pocket_docking_7.prm

>  <SCORE>
-8.49664

>  <SCORE.INTER>
-8.33165

>  <SCORE.INTER.CONST>
1

>  <SCORE.INTER.POLAR>
0

>  <SCORE.INTER.ROT>
5

>  <SCORE.INTER.SOLV>
16.8096

>  <SCORE.INTER.VDW>
-18.091

>  <SCORE.INTER.norm>
-0.833165

>  <SCORE.INTRA>
-0.16499

>  <SCORE.INTRA.DIHEDRAL>
-0.235906

>  <SCORE.INTRA.DIHEDRAL.0>
2.93688

>  <SCORE.INTRA.POLAR>
0

>  <SCORE.INTRA.POLAR.0>
0

>  <SCORE.INTRA.REPUL>
0

>  <SCORE.INTRA.REPUL.0>
0

>  <SCORE.INTRA.SOLV>
-0.4928

>  <SCORE.INTRA.SOLV.lig_0>
-32.2816

>  <SCORE.INTRA.VDW>
0.199363

>  <SCORE.INTRA.VDW.0>
-0.749945

>  <SCORE.INTRA.norm>
-0.016499

>  <SCORE.RESTR>
0

>  <SCORE.RESTR.CAVITY>
0

>  <SCORE.RESTR.norm>
0

>  <SCORE.SYSTEM>
0

>  <SCORE.SYSTEM.CONST>
0

>  <SCORE.SYSTEM.DIHEDRAL>
0

>  <SCORE.SYSTEM.SOLV>
0

>  <SCORE.SYSTEM.norm>
0

>  <SCORE.heavy>
10

>  <SCORE.norm>
-0.849664

>  <RMSD>
5.000

$$$$
ligand
 OpenBabel11021811473D
libRbt.so/2013.1/901 2013/11/27
 10  9  0  0  0  0  0  0  0  0999 V2000
   25.9282   15.2617   20.2895 N   0  0  0  0  0  0  0  0  0  0  0  0
   27.2927   15.7956   20.5791 C   0  0  2  0  0  0  0  0  0  0  0  0
   27.9480   16.3615   19.3196 C   0  0  0  0  0  0  0  0  0  0  0  0
   28.4268   17.4941   19.3061 O   0  0  0  0  0  0  0  0  0  0  0  0
   28.1684   14.7272   21.2443 C   0  0  0  0  0  0  0  0  0  0  0  0
   29.3828   15.3140   21.9631 C   0  0  0  0  0  0  0  0  0  0  0  0
   30.4402   15.8298   20.9965 C   0  0  0  0  0  0  0  0  0  0  0  0
   31.5951   16.4897   21.7436 C   0  0  0  0  0  0  0  0  0  0  0  0
   32.6521   17.0455   20.8299 N   0  0  0  0  0  0  0  0  0  0  0  0
   28.0503   15.7069   18.2779 O   0  0  0  0  0  0  0  0  0  0  0  0
  2  1  1  6  0  0  0
  2  3  1  0  0  0  0
  2  5  1  0  0  0  0
  3  4  1  0  0  0  0
  3 10  1  0  0  0  0
  5  6  1  0  0  0  0
  6  7  1  0  0  0  0
  7  8  1  0  0  0  0
  8  9  1  0  0  0  0
M  END
>  <CHROM.1>
128.33766748,-161.38844665,-71.88447162,176.29770677,-178.63640515,28.99437984
16.01563414,20.42378536,2.96727362,-0.31214551,-1.03177832

>  <Name>
ligand

>  <RI>
0

>  <Rbt.Current_Directory>
/home/itssahil/PROJECTS/Mol_Feturizer/New_Systems/rnas/3DIL

>  <Rbt.Executable>
rbdock ($Id: //depot/dev/client3/rdock/2013.1/src/exe/rbdock.cxx#4 $)

>  <Rbt.Library>
libRbt.so (2013.1, Build901 2013/11/27)

>  <Rbt.Parameter_File>
/export/apps/rDock/src/rDock_2013.1_src/data/scripts/dock_solv.prm

>  <Rbt.Receptor>
prm/blind_docking_100.prm

>  <SCORE>
-8.75604

>  <SCORE.INTER>
-8.17766

>  <SCORE.INTER.CONST>
1

>  <SCORE.INTER.POLAR>
0

>  <SCORE.INTER.ROT>
5

>  <SCORE.INTER.SOLV>
17.9409

>  <SCORE.INTER.VDW>
-18.3654

>  <SCORE.INTER.norm>
-0.817766

>  <SCORE.INTRA>
-0.578381

>  <SCORE.INTRA.DIHEDRAL>
0.411862

>  <SCORE.INTRA.DIHEDRAL.0>
2.93688

>  <SCORE.INTRA.POLAR>
0

>  <SCORE.INTRA.POLAR.0>
0

>  <SCORE.INTRA.REPUL>
0

>  <SCORE.INTRA.REPUL.0>
0

>  <SCORE.INTRA.SOLV>
-1.39776

>  <SCORE.INTRA.SOLV.lig_0>
-32.2816

>  <SCORE.INTRA.VDW>
-0.0854312

>  <SCORE.INTRA.VDW.0>
-0.749945

>  <SCORE.INTRA.norm>
-0.0578381

>  <SCORE.RESTR>
0

>  <SCORE.RESTR.CAVITY>
0

>  <SCORE.RESTR.norm>
0

>  <SCORE.SYSTEM>
0

>  <SCORE.SYSTEM.CONST>
0

>  <SCORE.SYSTEM.DIHEDRAL>
0

>  <SCORE.SYSTEM.SOLV>
0

>  <SCORE.SYSTEM.norm>
0

>  <SCORE.heavy>
10

>  <SCORE.norm>
-0.875604

>  <RMSD>
5.002

$$$$
ligand
 OpenBabel11021811473D
libRbt.so/2013.1/901 2013/11/27
 10  9  0  0  0  0  0  0  0  0999 V2000
   26.0130   15.1989   20.4570 N   0  0  0  0  0  0  0  0  0  0  0  0
   27.3775   15.7805   20.6316 C   0  0  2  0  0  0  0  0  0  0  0  0
   27.8986   16.3795   19.3256 C   0  0  0  0  0  0  0  0  0  0  0  0
   27.8686   15.7393   18.2760 O   0  0  0  0  0  0  0  0  0  0  0  0
   28.3463   14.7401   21.2059 C   0  0  0  0  0  0  0  0  0  0  0  0
   29.6603   15.3520   21.6906 C   0  0  0  0  0  0  0  0  0  0  0  0
   30.5683   15.7697   20.5420 C   0  0  0  0  0  0  0  0  0  0  0  0
   31.8538   16.4076   21.0593 C   0  0  0  0  0  0  0  0  0  0  0  0
   31.6164   17.6672   21.8454 N   0  0  0  0  0  0  0  0  0  0  0  0
   28.3438   17.5290   19.2581 O   0  0  0  0  0  0  0  0  0  0  0  0
  2  1  1  6  0  0  0
  2  3  1  0  0  0  0
  2  5  1  0  0  0  0
  3  4  1  0  0  0  0
  3 10  1  0  0  0  0
  5  6  1  0  0  0  0
  6  7  1  0  0  0  0
  7  8  1  0  0  0  0
  8  9  1  0  0  0  0
M  END
>  <CHROM.1>
-49.93950098,-167.34098567,-73.49681083,178.57175170,-62.06951680,28.95731382
16.06979405,20.39678772,2.97937574,-0.39401372,-0.92802225

>  <Name>
ligand

>  <RI>
0

>  <Rbt.Current_Directory>
/home/itssahil/PROJECTS/Mol_Feturizer/New_Systems/rnas/3DIL

>  <Rbt.Executable>
rbdock ($Id: //depot/dev/client3/rdock/2013.1/src/exe/rbdock.cxx#4 $)

>  <Rbt.Library>
libRbt.so (2013.1, Build901 2013/11/27)

>  <Rbt.Parameter_File>
/export/apps/rDock/src/rDock_2013.1_src/data/scripts/dock_solv.prm

>  <Rbt.Receptor>
prm/pocket_docking_8.prm

>  <SCORE>
-8.53084

>  <SCORE.INTER>
-8.36361

>  <SCORE.INTER.CONST>
1

>  <SCORE.INTER.POLAR>
0

>  <SCORE.INTER.ROT>
5

>  <SCORE.INTER.SOLV>
16.8039

>  <SCORE.INTER.VDW>
-18.1104

>  <SCORE.INTER.norm>
-0.836361

>  <SCORE.INTRA>
-0.167228

>  <SCORE.INTRA.DIHEDRAL>
-0.0671158

>  <SCORE.INTRA.DIHEDRAL.0>
2.93688

>  <SCORE.INTRA.POLAR>
0

>  <SCORE.INTRA.POLAR.0>
0

>  <SCORE.INTRA.REPUL>
0

>  <SCORE.INTRA.REPUL.0>
0

>  <SCORE.INTRA.SOLV>
-0.465895

>  <SCORE.INTRA.SOLV.lig_0>
-32.2816

>  <SCORE.INTRA.VDW>
0.0992776

>  <SCORE.INTRA.VDW.0>
-0.749945

>  <SCORE.INTRA.norm>
-0.0167228

>  <SCORE.RESTR>
0

>  <SCORE.RESTR.CAVITY>
0

>  <SCORE.RESTR.norm>
0

>  <SCORE.SYSTEM>
0

>  <SCORE.SYSTEM.CONST>
0

>  <SCORE.SYSTEM.DIHEDRAL>
0

>  <SCORE.SYSTEM.SOLV>
0

>  <SCORE.SYSTEM.norm>
0

>  <SCORE.heavy>
10

>  <SCORE.norm>
-0.853084

>  <RMSD>
5.003

$$$$
ligand
 OpenBabel11021811473D
libRbt.so/2013.1/901 2013/11/27
 10  9  0  0  0  0  0  0  0  0999 V2000
   25.8616   15.2400   20.2277 N   0  0  0  0  0  0  0  0  0  0  0  0
   27.1991   15.8068   20.5747 C   0  0  2  0  0  0  0  0  0  0  0  0
   27.8978   16.3796   19.3419 C   0  0  0  0  0  0  0  0  0  0  0  0
   28.3636   17.5178   19.3466 O   0  0  0  0  0  0  0  0  0  0  0  0
   28.0678   14.7629   21.2864 C   0  0  0  0  0  0  0  0  0  0  0  0
   29.2781   15.3745   21.9913 C   0  0  0  0  0  0  0  0  0  0  0  0
   30.3541   15.8292   21.0147 C   0  0  0  0  0  0  0  0  0  0  0  0
   31.5177   16.4918   21.7456 C   0  0  0  0  0  0  0  0  0  0  0  0
   32.6083   16.9605   20.8227 N   0  0  0  0  0  0  0  0  0  0  0  0
   28.0493   15.7258   18.3058 O   0  0  0  0  0  0  0  0  0  0  0  0
  2  1  1  6  0  0  0
  2  3  1  0  0  0  0
  2  5  1  0  0  0  0
  3  4  1  0  0  0  0
  3 10  1  0  0  0  0
  5  6  1  0  0  0  0
  6  7  1  0  0  0  0
  7  8  1  0  0  0  0
  8  9  1  0  0  0  0
M  END
>  <CHROM.1>
129.12325149,-164.53650141,-72.87939318,177.39029841,-179.95092482,28.92658336
16.02214675,20.43517220,2.96360448,-0.30304021,-1.04478987

>  <Name>
ligand

>  <RI>
0

>  <Rbt.Current_Directory>
/home/itssahil/PROJECTS/Mol_Feturizer/New_Systems/rnas/3DIL

>  <Rbt.Executable>
rbdock ($Id: //depot/dev/client3/rdock/2013.1/src/exe/rbdock.cxx#4 $)

>  <Rbt.Library>
libRbt.so (2013.1, Build901 2013/11/27)

>  <Rbt.Parameter_File>
/export/apps/rDock/src/rDock_2013.1_src/data/scripts/dock_solv.prm

>  <Rbt.Receptor>
prm/blind_docking_100.prm

>  <SCORE>
-8.82436

>  <SCORE.INTER>
-8.1599

>  <SCORE.INTER.CONST>
1

>  <SCORE.INTER.POLAR>
0

>  <SCORE.INTER.ROT>
5

>  <SCORE.INTER.SOLV>
17.9868

>  <SCORE.INTER.VDW>
-18.3689

>  <SCORE.INTER.norm>
-0.81599

>  <SCORE.INTRA>
-0.664455

>  <SCORE.INTRA.DIHEDRAL>
0.106994

>  <SCORE.INTRA.DIHEDRAL.0>
2.93688

>  <SCORE.INTRA.POLAR>
0

>  <SCORE.INTRA.POLAR.0>
0

>  <SCORE.INTRA.REPUL>
0

>  <SCORE.INTRA.REPUL.0>
0

>  <SCORE.INTRA.SOLV>
-1.40279

>  <SCORE.INTRA.SOLV.lig_0>
-32.2816

>  <SCORE.INTRA.VDW>
-0.0165548

>  <SCORE.INTRA.VDW.0>
-0.749945

>  <SCORE.INTRA.norm>
-0.0664455

>  <SCORE.RESTR>
0

>  <SCORE.RESTR.CAVITY>
0

>  <SCORE.RESTR.norm>
0

>  <SCORE.SYSTEM>
0

>  <SCORE.SYSTEM.CONST>
0

>  <SCORE.SYSTEM.DIHEDRAL>
0

>  <SCORE.SYSTEM.SOLV>
0

>  <SCORE.SYSTEM.norm>
0

>  <SCORE.heavy>
10

>  <SCORE.norm>
-0.882436

>  <RMSD>
5.006

$$$$
ligand
 OpenBabel11021811473D
libRbt.so/2013.1/901 2013/11/27
 10  9  0  0  0  0  0  0  0  0999 V2000
   25.9077   15.2577   20.2589 N   0  0  0  0  0  0  0  0  0  0  0  0
   27.2581   15.8107   20.5772 C   0  0  2  0  0  0  0  0  0  0  0  0
   27.9396   16.3690   19.3283 C   0  0  0  0  0  0  0  0  0  0  0  0
   28.0336   15.6984   18.3018 O   0  0  0  0  0  0  0  0  0  0  0  0
   28.1281   14.7604   21.2778 C   0  0  0  0  0  0  0  0  0  0  0  0
   29.3389   15.3658   21.9874 C   0  0  0  0  0  0  0  0  0  0  0  0
   30.4160   15.8254   21.0143 C   0  0  0  0  0  0  0  0  0  0  0  0
   31.5699   16.5015   21.7483 C   0  0  0  0  0  0  0  0  0  0  0  0
   32.6451   17.0061   20.8262 N   0  0  0  0  0  0  0  0  0  0  0  0
   28.3980   17.5143   19.2829 O   0  0  0  0  0  0  0  0  0  0  0  0
  2  1  1  6  0  0  0
  2  3  1  0  0  0  0
  2  5  1  0  0  0  0
  3  4  1  0  0  0  0
  3 10  1  0  0  0  0
  5  6  1  0  0  0  0
  6  7  1  0  0  0  0
  7  8  1  0  0  0  0
  8  9  1  0  0  0  0
M  END
>  <CHROM.1>
-51.24979873,-163.02345019,-73.11428758,176.49223844,-178.51131867,28.96931228
16.02385535,20.42899907,2.96118630,-0.30782404,-1.04167857

>  <Name>
ligand

>  <RI>
0

>  <Rbt.Current_Directory>
/home/itssahil/PROJECTS/Mol_Feturizer/New_Systems/rnas/3DIL

>  <Rbt.Executable>
rbdock ($Id: //depot/dev/client3/rdock/2013.1/src/exe/rbdock.cxx#4 $)

>  <Rbt.Library>
libRbt.so (2013.1, Build901 2013/11/27)

>  <Rbt.Parameter_File>
/export/apps/rDock/src/rDock_2013.1_src/data/scripts/dock_solv.prm

>  <Rbt.Receptor>
prm/pocket_docking_3.prm

>  <SCORE>
-8.72083

>  <SCORE.INTER>
-8.12533

>  <SCORE.INTER.CONST>
1

>  <SCORE.INTER.POLAR>
0

>  <SCORE.INTER.ROT>
5

>  <SCORE.INTER.SOLV>
17.9499

>  <SCORE.INTER.VDW>
-18.3335

>  <SCORE.INTER.norm>
-0.812533

>  <SCORE.INTRA>
-0.595503

>  <SCORE.INTRA.DIHEDRAL>
0.371471

>  <SCORE.INTRA.DIHEDRAL.0>
2.93688

>  <SCORE.INTRA.POLAR>
0

>  <SCORE.INTRA.POLAR.0>
0

>  <SCORE.INTRA.REPUL>
0

>  <SCORE.INTRA.REPUL.0>
0

>  <SCORE.INTRA.SOLV>
-1.38925

>  <SCORE.INTRA.SOLV.lig_0>
-32.2816

>  <SCORE.INTRA.VDW>
-0.0866121

>  <SCORE.INTRA.VDW.0>
-0.749945

>  <SCORE.INTRA.norm>
-0.0595503

>  <SCORE.RESTR>
0

>  <SCORE.RESTR.CAVITY>
0

>  <SCORE.RESTR.norm>
0

>  <SCORE.SYSTEM>
0

>  <SCORE.SYSTEM.CONST>
0

>  <SCORE.SYSTEM.DIHEDRAL>
0

>  <SCORE.SYSTEM.SOLV>
0

>  <SCORE.SYSTEM.norm>
0

>  <SCORE.heavy>
10

>  <SCORE.norm>
-0.872083

>  <RMSD>
5.007

$$$$
ligand
 OpenBabel11021811473D
libRbt.so/2013.1/901 2013/11/27
 10  9  0  0  0  0  0  0  0  0999 V2000
   25.8902   15.2964   20.3430 N   0  0  0  0  0  0  0  0  0  0  0  0
   27.2524   15.8511   20.6023 C   0  0  2  0  0  0  0  0  0  0  0  0
   27.8982   16.3653   19.3161 C   0  0  0  0  0  0  0  0  0  0  0  0
   27.8794   15.6968   18.2840 O   0  0  0  0  0  0  0  0  0  0  0  0
   28.1382   14.8185   21.3094 C   0  0  0  0  0  0  0  0  0  0  0  0
   29.4355   15.4171   21.8522 C   0  0  0  0  0  0  0  0  0  0  0  0
   30.4535   15.6960   20.7548 C   0  0  0  0  0  0  0  0  0  0  0  0
   31.7431   16.2708   21.3323 C   0  0  0  0  0  0  0  0  0  0  0  0
   31.5441   17.5845   22.0364 N   0  0  0  0  0  0  0  0  0  0  0  0
   28.4387   17.4730   19.2461 O   0  0  0  0  0  0  0  0  0  0  0  0
  2  1  1  6  0  0  0
  2  3  1  0  0  0  0
  2  5  1  0  0  0  0
  3  4  1  0  0  0  0
  3 10  1  0  0  0  0
  5  6  1  0  0  0  0
  6  7  1  0  0  0  0
  7  8  1  0  0  0  0
  8  9  1  0  0  0  0
M  END
>  <CHROM.1>
-46.39358898,-168.24594643,-75.06723028,-179.07374750,-61.52420409,28.87294921
16.05872428,20.47508227,2.88244598,-0.39192510,-1.02168587

>  <Name>
ligand

>  <RI>
0

>  <Rbt.Current_Directory>
/home/itssahil/PROJECTS/Mol_Feturizer/New_Systems/rnas/3DIL

>  <Rbt.Executable>
rbdock ($Id: //depot/dev/client3/rdock/2013.1/src/exe/rbdock.cxx#4 $)

>  <Rbt.Library>
libRbt.so (2013.1, Build901 2013/11/27)

>  <Rbt.Parameter_File>
/export/apps/rDock/src/rDock_2013.1_src/data/scripts/dock_solv.prm

>  <Rbt.Receptor>
prm/blind_docking_100.prm

>  <SCORE>
-8.47749

>  <SCORE.INTER>
-8.34101

>  <SCORE.INTER.CONST>
1

>  <SCORE.INTER.POLAR>
0

>  <SCORE.INTER.ROT>
5

>  <SCORE.INTER.SOLV>
16.9905

>  <SCORE.INTER.VDW>
-18.1575

>  <SCORE.INTER.norm>
-0.834101

>  <SCORE.INTRA>
-0.136486

>  <SCORE.INTRA.DIHEDRAL>
0.0208207

>  <SCORE.INTRA.DIHEDRAL.0>
2.93688

>  <SCORE.INTRA.POLAR>
0

>  <SCORE.INTRA.POLAR.0>
0

>  <SCORE.INTRA.REPUL>
0

>  <SCORE.INTRA.REPUL.0>
0

>  <SCORE.INTRA.SOLV>
-0.47713

>  <SCORE.INTRA.SOLV.lig_0>
-32.2816

>  <SCORE.INTRA.VDW>
0.0916684

>  <SCORE.INTRA.VDW.0>
-0.749945

>  <SCORE.INTRA.norm>
-0.0136486

>  <SCORE.RESTR>
0

>  <SCORE.RESTR.CAVITY>
0

>  <SCORE.RESTR.norm>
0

>  <SCORE.SYSTEM>
0

>  <SCORE.SYSTEM.CONST>
0

>  <SCORE.SYSTEM.DIHEDRAL>
0

>  <SCORE.SYSTEM.SOLV>
0

>  <SCORE.SYSTEM.norm>
0

>  <SCORE.heavy>
10

>  <SCORE.norm>
-0.847749

>  <RMSD>
5.011

$$$$
ligand
 OpenBabel11021811473D
libRbt.so/2013.1/901 2013/11/27
 10  9  0  0  0  0  0  0  0  0999 V2000
   25.8612   15.2725   20.2346 N   0  0  0  0  0  0  0  0  0  0  0  0
   27.2076   15.8234   20.5724 C   0  0  2  0  0  0  0  0  0  0  0  0
   27.9113   16.3736   19.3322 C   0  0  0  0  0  0  0  0  0  0  0  0
   27.9863   15.7123   18.2980 O   0  0  0  0  0  0  0  0  0  0  0  0
   28.0631   14.7744   21.2926 C   0  0  0  0  0  0  0  0  0  0  0  0
   29.2818   15.3760   21.9916 C   0  0  0  0  0  0  0  0  0  0  0  0
   30.3634   15.8073   21.0106 C   0  0  0  0  0  0  0  0  0  0  0  0
   31.5300   16.4729   21.7339 C   0  0  0  0  0  0  0  0  0  0  0  0
   32.6047   16.9611   20.8024 N   0  0  0  0  0  0  0  0  0  0  0  0
   28.4076   17.5035   19.3018 O   0  0  0  0  0  0  0  0  0  0  0  0
  2  1  1  6  0  0  0
  2  3  1  0  0  0  0
  2  5  1  0  0  0  0
  3  4  1  0  0  0  0
  3 10  1  0  0  0  0
  5  6  1  0  0  0  0
  6  7  1  0  0  0  0
  7  8  1  0  0  0  0
  8  9  1  0  0  0  0
M  END
>  <CHROM.1>
-49.10885546,-164.37183365,-72.92265743,176.84666842,-177.97867081,28.92801470
16.02053991,20.42592602,2.95865068,-0.29902203,-1.05149323

>  <Name>
ligand

>  <RI>
0

>  <Rbt.Current_Directory>
/home/itssahil/PROJECTS/Mol_Feturizer/New_Systems/rnas/3DIL

>  <Rbt.Executable>
rbdock ($Id: //depot/dev/client3/rdock/2013.1/src/exe/rbdock.cxx#4 $)

>  <Rbt.Library>
libRbt.so (2013.1, Build901 2013/11/27)

>  <Rbt.Parameter_File>
/export/apps/rDock/src/rDock_2013.1_src/data/scripts/dock_solv.prm

>  <Rbt.Receptor>
prm/pocket_docking_3.prm

>  <SCORE>
-8.85128

>  <SCORE.INTER>
-8.24469

>  <SCORE.INTER.CONST>
1

>  <SCORE.INTER.POLAR>
0

>  <SCORE.INTER.ROT>
5

>  <SCORE.INTER.SOLV>
17.9661

>  <SCORE.INTER.VDW>
-18.4185

>  <SCORE.INTER.norm>
-0.824469

>  <SCORE.INTRA>
-0.606582

>  <SCORE.INTRA.DIHEDRAL>
0.204245

>  <SCORE.INTRA.DIHEDRAL.0>
2.93688

>  <SCORE.INTRA.POLAR>
0

>  <SCORE.INTRA.POLAR.0>
0

>  <SCORE.INTRA.REPUL>
0

>  <SCORE.INTRA.REPUL.0>
0

>  <SCORE.INTRA.SOLV>
-1.38596

>  <SCORE.INTRA.SOLV.lig_0>
-32.2816

>  <SCORE.INTRA.VDW>
-0.0157249

>  <SCORE.INTRA.VDW.0>
-0.749945

>  <SCORE.INTRA.norm>
-0.0606582

>  <SCORE.RESTR>
0

>  <SCORE.RESTR.CAVITY>
0

>  <SCORE.RESTR.norm>
0

>  <SCORE.SYSTEM>
0

>  <SCORE.SYSTEM.CONST>
0

>  <SCORE.SYSTEM.DIHEDRAL>
0

>  <SCORE.SYSTEM.SOLV>
0

>  <SCORE.SYSTEM.norm>
0

>  <SCORE.heavy>
10

>  <SCORE.norm>
-0.885128

>  <RMSD>
5.011

$$$$
ligand
 OpenBabel11021811473D
libRbt.so/2013.1/901 2013/11/27
 10  9  0  0  0  0  0  0  0  0999 V2000
   25.8702   15.2701   20.2274 N   0  0  0  0  0  0  0  0  0  0  0  0
   27.2165   15.8194   20.5689 C   0  0  2  0  0  0  0  0  0  0  0  0
   27.9211   16.3754   19.3318 C   0  0  0  0  0  0  0  0  0  0  0  0
   27.9966   15.7192   18.2945 O   0  0  0  0  0  0  0  0  0  0  0  0
   28.0713   14.7668   21.2847 C   0  0  0  0  0  0  0  0  0  0  0  0
   29.2692   15.3694   22.0181 C   0  0  0  0  0  0  0  0  0  0  0  0
   30.3578   15.8448   21.0657 C   0  0  0  0  0  0  0  0  0  0  0  0
   31.5068   16.5009   21.8250 C   0  0  0  0  0  0  0  0  0  0  0  0
   32.5837   17.0379   20.9235 N   0  0  0  0  0  0  0  0  0  0  0  0
   28.4177   17.5053   19.3072 O   0  0  0  0  0  0  0  0  0  0  0  0
  2  1  1  6  0  0  0
  2  3  1  0  0  0  0
  2  5  1  0  0  0  0
  3  4  1  0  0  0  0
  3 10  1  0  0  0  0
  5  6  1  0  0  0  0
  6  7  1  0  0  0  0
  7  8  1  0  0  0  0
  8  9  1  0  0  0  0
M  END
>  <CHROM.1>
-49.09244016,-162.86454125,-72.38168226,177.25305550,-177.67863699,28.92749358
16.03379316,20.45343609,2.94319819,-0.32056252,-1.04966999

>  <Name>
ligand

>  <RI>
0

>  <Rbt.Current_Directory>
/home/itssahil/PROJECTS/Mol_Feturizer/New_Systems/rnas/3DIL

>  <Rbt.Executable>
rbdock ($Id: //depot/dev/client3/rdock/2013.1/src/exe/rbdock.cxx#4 $)

>  <Rbt.Library>
libRbt.so (2013.1, Build901 2013/11/27)

>  <Rbt.Parameter_File>
/export/apps/rDock/src/rDock_2013.1_src/data/scripts/dock_solv.prm

>  <Rbt.Receptor>
prm/pocket_docking_8.prm

>  <SCORE>
-8.75644

>  <SCORE.INTER>
-8.1819

>  <SCORE.INTER.CONST>
1

>  <SCORE.INTER.POLAR>
0

>  <SCORE.INTER.ROT>
5

>  <SCORE.INTER.SOLV>
17.8917

>  <SCORE.INTER.VDW>
-18.3518

>  <SCORE.INTER.norm>
-0.81819

>  <SCORE.INTRA>
-0.574538

>  <SCORE.INTRA.DIHEDRAL>
0.314861

>  <SCORE.INTRA.DIHEDRAL.0>
2.93688

>  <SCORE.INTRA.POLAR>
0

>  <SCORE.INTRA.POLAR.0>
0

>  <SCORE.INTRA.REPUL>
0

>  <SCORE.INTRA.REPUL.0>
0

>  <SCORE.INTRA.SOLV>
-1.38357

>  <SCORE.INTRA.SOLV.lig_0>
-32.2816

>  <SCORE.INTRA.VDW>
-0.0401853

>  <SCORE.INTRA.VDW.0>
-0.749945

>  <SCORE.INTRA.norm>
-0.0574538

>  <SCORE.RESTR>
0

>  <SCORE.RESTR.CAVITY>
0

>  <SCORE.RESTR.norm>
0

>  <SCORE.SYSTEM>
0

>  <SCORE.SYSTEM.CONST>
0

>  <SCORE.SYSTEM.DIHEDRAL>
0

>  <SCORE.SYSTEM.SOLV>
0

>  <SCORE.SYSTEM.norm>
0

>  <SCORE.heavy>
10

>  <SCORE.norm>
-0.875644

>  <RMSD>
5.014

$$$$
ligand
 OpenBabel11021811473D
libRbt.so/2013.1/901 2013/11/27
 10  9  0  0  0  0  0  0  0  0999 V2000
   25.8768   15.2708   20.2425 N   0  0  0  0  0  0  0  0  0  0  0  0
   27.2226   15.8243   20.5787 C   0  0  2  0  0  0  0  0  0  0  0  0
   27.8868   16.4549   19.3551 C   0  0  0  0  0  0  0  0  0  0  0  0
   27.9353   15.8591   18.2804 O   0  0  0  0  0  0  0  0  0  0  0  0
   28.1116   14.7510   21.2179 C   0  0  0  0  0  0  0  0  0  0  0  0
   29.3193   15.3351   21.9502 C   0  0  0  0  0  0  0  0  0  0  0  0
   30.3941   15.8367   20.9956 C   0  0  0  0  0  0  0  0  0  0  0  0
   31.5411   16.4967   21.7545 C   0  0  0  0  0  0  0  0  0  0  0  0
   32.6154   17.0383   20.8525 N   0  0  0  0  0  0  0  0  0  0  0  0
   28.3759   17.5881   19.3802 O   0  0  0  0  0  0  0  0  0  0  0  0
  2  1  1  6  0  0  0
  2  3  1  0  0  0  0
  2  5  1  0  0  0  0
  3  4  1  0  0  0  0
  3 10  1  0  0  0  0
  5  6  1  0  0  0  0
  6  7  1  0  0  0  0
  7  8  1  0  0  0  0
  8  9  1  0  0  0  0
M  END
>  <CHROM.1>
-48.42020686,-162.94163860,-74.14546842,176.19587322,-178.66045276,28.93324907
16.06016094,20.43012220,2.96947424,-0.31075651,-0.99060541

>  <Name>
ligand

>  <RI>
0

>  <Rbt.Current_Directory>
/home/itssahil/PROJECTS/Mol_Feturizer/New_Systems/rnas/3DIL

>  <Rbt.Executable>
rbdock ($Id: //depot/dev/client3/rdock/2013.1/src/exe/rbdock.cxx#4 $)

>  <Rbt.Library>
libRbt.so (2013.1, Build901 2013/11/27)

>  <Rbt.Parameter_File>
/export/apps/rDock/src/rDock_2013.1_src/data/scripts/dock_solv.prm

>  <Rbt.Receptor>
prm/blind_docking_80.prm

>  <SCORE>
-8.65405

>  <SCORE.INTER>
-8.08971

>  <SCORE.INTER.CONST>
1

>  <SCORE.INTER.POLAR>
0

>  <SCORE.INTER.ROT>
5

>  <SCORE.INTER.SOLV>
17.9987

>  <SCORE.INTER.VDW>
-18.3261

>  <SCORE.INTER.norm>
-0.808971

>  <SCORE.INTRA>
-0.564332

>  <SCORE.INTRA.DIHEDRAL>
0.503723

>  <SCORE.INTRA.DIHEDRAL.0>
2.93688

>  <SCORE.INTRA.POLAR>
0

>  <SCORE.INTRA.POLAR.0>
0

>  <SCORE.INTRA.REPUL>
0

>  <SCORE.INTRA.REPUL.0>
0

>  <SCORE.INTRA.SOLV>
-1.39394

>  <SCORE.INTRA.SOLV.lig_0>
-32.2816

>  <SCORE.INTRA.VDW>
-0.119225

>  <SCORE.INTRA.VDW.0>
-0.749945

>  <SCORE.INTRA.norm>
-0.0564332

>  <SCORE.RESTR>
0

>  <SCORE.RESTR.CAVITY>
0

>  <SCORE.RESTR.norm>
0

>  <SCORE.SYSTEM>
0

>  <SCORE.SYSTEM.CONST>
0

>  <SCORE.SYSTEM.DIHEDRAL>
0

>  <SCORE.SYSTEM.SOLV>
0

>  <SCORE.SYSTEM.norm>
0

>  <SCORE.heavy>
10

>  <SCORE.norm>
-0.865405

>  <RMSD>
5.015

$$$$
ligand
 OpenBabel11021811473D
libRbt.so/2013.1/901 2013/11/27
 10  9  0  0  0  0  0  0  0  0999 V2000
   25.9042   15.2052   20.2356 N   0  0  0  0  0  0  0  0  0  0  0  0
   27.2386   15.7858   20.5713 C   0  0  2  0  0  0  0  0  0  0  0  0
   27.9141   16.3799   19.3358 C   0  0  0  0  0  0  0  0  0  0  0  0
   27.9640   15.7565   18.2769 O   0  0  0  0  0  0  0  0  0  0  0  0
   28.1297   14.7462   21.2614 C   0  0  0  0  0  0  0  0  0  0  0  0
   29.3300   15.3682   21.9742 C   0  0  0  0  0  0  0  0  0  0  0  0
   30.4175   15.8133   21.0060 C   0  0  0  0  0  0  0  0  0  0  0  0
   31.5684   16.4909   21.7431 C   0  0  0  0  0  0  0  0  0  0  0  0
   32.6534   16.9823   20.8252 N   0  0  0  0  0  0  0  0  0  0  0  0
   28.4114   17.5099   19.3347 O   0  0  0  0  0  0  0  0  0  0  0  0
  2  1  1  6  0  0  0
  2  3  1  0  0  0  0
  2  5  1  0  0  0  0
  3  4  1  0  0  0  0
  3 10  1  0  0  0  0
  5  6  1  0  0  0  0
  6  7  1  0  0  0  0
  7  8  1  0  0  0  0
  8  9  1  0  0  0  0
M  END
>  <CHROM.1>
-47.09786804,-163.70618917,-75.08064867,177.19467484,-178.46818158,28.95871316
16.01755756,20.42542941,2.96360289,-0.31019177,-1.02950028

>  <Name>
ligand

>  <RI>
0

>  <Rbt.Current_Directory>
/home/itssahil/PROJECTS/Mol_Feturizer/New_Systems/rnas/3DIL

>  <Rbt.Executable>
rbdock ($Id: //depot/dev/client3/rdock/2013.1/src/exe/rbdock.cxx#4 $)

>  <Rbt.Library>
libRbt.so (2013.1, Build901 2013/11/27)

>  <Rbt.Parameter_File>
/export/apps/rDock/src/rDock_2013.1_src/data/scripts/dock_solv.prm

>  <Rbt.Receptor>
prm/blind_docking_80.prm

>  <SCORE>
-8.72996

>  <SCORE.INTER>
-8.15473

>  <SCORE.INTER.CONST>
1

>  <SCORE.INTER.POLAR>
0

>  <SCORE.INTER.ROT>
5

>  <SCORE.INTER.SOLV>
18.0006

>  <SCORE.INTER.VDW>
-18.37

>  <SCORE.INTER.norm>
-0.815473

>  <SCORE.INTRA>
-0.575228

>  <SCORE.INTRA.DIHEDRAL>
0.498316

>  <SCORE.INTRA.DIHEDRAL.0>
2.93688

>  <SCORE.INTRA.POLAR>
0

>  <SCORE.INTRA.POLAR.0>
0

>  <SCORE.INTRA.REPUL>
0

>  <SCORE.INTRA.REPUL.0>
0

>  <SCORE.INTRA.SOLV>
-1.3989

>  <SCORE.INTRA.SOLV.lig_0>
-32.2816

>  <SCORE.INTRA.VDW>
-0.124935

>  <SCORE.INTRA.VDW.0>
-0.749945

>  <SCORE.INTRA.norm>
-0.0575228

>  <SCORE.RESTR>
0

>  <SCORE.RESTR.CAVITY>
0

>  <SCORE.RESTR.norm>
0

>  <SCORE.SYSTEM>
0

>  <SCORE.SYSTEM.CONST>
0

>  <SCORE.SYSTEM.DIHEDRAL>
0

>  <SCORE.SYSTEM.SOLV>
0

>  <SCORE.SYSTEM.norm>
0

>  <SCORE.heavy>
10

>  <SCORE.norm>
-0.872996

>  <RMSD>
5.015

$$$$
ligand
 OpenBabel11021811473D
libRbt.so/2013.1/901 2013/11/27
 10  9  0  0  0  0  0  0  0  0999 V2000
   25.8802   15.2179   20.2303 N   0  0  0  0  0  0  0  0  0  0  0  0
   27.2142   15.7945   20.5745 C   0  0  2  0  0  0  0  0  0  0  0  0
   27.8803   16.4253   19.3521 C   0  0  0  0  0  0  0  0  0  0  0  0
   27.9528   15.8196   18.2842 O   0  0  0  0  0  0  0  0  0  0  0  0
   28.1133   14.7400   21.2306 C   0  0  0  0  0  0  0  0  0  0  0  0
   29.3135   15.3473   21.9562 C   0  0  0  0  0  0  0  0  0  0  0  0
   30.3606   15.8943   20.9956 C   0  0  0  0  0  0  0  0  0  0  0  0
   31.5149   16.5455   21.7509 C   0  0  0  0  0  0  0  0  0  0  0  0
   32.5525   17.1476   20.8443 N   0  0  0  0  0  0  0  0  0  0  0  0
   28.3469   17.5681   19.3709 O   0  0  0  0  0  0  0  0  0  0  0  0
  2  1  1  6  0  0  0
  2  3  1  0  0  0  0
  2  5  1  0  0  0  0
  3  4  1  0  0  0  0
  3 10  1  0  0  0  0
  5  6  1  0  0  0  0
  6  7  1  0  0  0  0
  7  8  1  0  0  0  0
  8  9  1  0  0  0  0
M  END
>  <CHROM.1>
-48.72669010,-163.58252713,-71.95414058,177.56799908,-177.86001874,28.91839141
16.06443279,20.42831030,2.98313684,-0.33160343,-0.99556265

>  <Name>
ligand

>  <RI>
0

>  <Rbt.Current_Directory>
/home/itssahil/PROJECTS/Mol_Feturizer/New_Systems/rnas/3DIL

>  <Rbt.Executable>
rbdock ($Id: //depot/dev/client3/rdock/2013.1/src/exe/rbdock.cxx#4 $)

>  <Rbt.Library>
libRbt.so (2013.1, Build901 2013/11/27)

>  <Rbt.Parameter_File>
/export/apps/rDock/src/rDock_2013.1_src/data/scripts/dock_solv.prm

>  <Rbt.Receptor>
prm/blind_docking_80.prm

>  <SCORE>
-8.68853

>  <SCORE.INTER>
-8.10254

>  <SCORE.INTER.CONST>
1

>  <SCORE.INTER.POLAR>
0

>  <SCORE.INTER.ROT>
5

>  <SCORE.INTER.SOLV>
17.8944

>  <SCORE.INTER.VDW>
-18.2998

>  <SCORE.INTER.norm>
-0.810254

>  <SCORE.INTRA>
-0.585996

>  <SCORE.INTRA.DIHEDRAL>
0.183171

>  <SCORE.INTRA.DIHEDRAL.0>
2.93688

>  <SCORE.INTRA.POLAR>
0

>  <SCORE.INTRA.POLAR.0>
0

>  <SCORE.INTRA.REPUL>
0

>  <SCORE.INTRA.REPUL.0>
0

>  <SCORE.INTRA.SOLV>
-1.38052

>  <SCORE.INTRA.SOLV.lig_0>
-32.2816

>  <SCORE.INTRA.VDW>
0.0126803

>  <SCORE.INTRA.VDW.0>
-0.749945

>  <SCORE.INTRA.norm>
-0.0585996

>  <SCORE.RESTR>
0

>  <SCORE.RESTR.CAVITY>
0

>  <SCORE.RESTR.norm>
0

>  <SCORE.SYSTEM>
0

>  <SCORE.SYSTEM.CONST>
0

>  <SCORE.SYSTEM.DIHEDRAL>
0

>  <SCORE.SYSTEM.SOLV>
0

>  <SCORE.SYSTEM.norm>
0

>  <SCORE.heavy>
10

>  <SCORE.norm>
-0.868853

>  <RMSD>
5.018

$$$$
ligand
 OpenBabel11021811473D
libRbt.so/2013.1/901 2013/11/27
 10  9  0  0  0  0  0  0  0  0999 V2000
   25.9001   15.2747   20.2819 N   0  0  0  0  0  0  0  0  0  0  0  0
   27.2665   15.8094   20.5603 C   0  0  2  0  0  0  0  0  0  0  0  0
   27.9089   16.3808   19.2967 C   0  0  0  0  0  0  0  0  0  0  0  0
   28.4200   17.4993   19.2934 O   0  0  0  0  0  0  0  0  0  0  0  0
   28.1501   14.7397   21.2130 C   0  0  0  0  0  0  0  0  0  0  0  0
   29.3601   15.3269   21.9390 C   0  0  0  0  0  0  0  0  0  0  0  0
   30.4381   15.8112   20.9790 C   0  0  0  0  0  0  0  0  0  0  0  0
   31.5784   16.4928   21.7290 C   0  0  0  0  0  0  0  0  0  0  0  0
   32.5945   17.1235   20.8176 N   0  0  0  0  0  0  0  0  0  0  0  0
   27.9681   15.7441   18.2407 O   0  0  0  0  0  0  0  0  0  0  0  0
  2  1  1  6  0  0  0
  2  3  1  0  0  0  0
  2  5  1  0  0  0  0
  3  4  1  0  0  0  0
  3 10  1  0  0  0  0
  5  6  1  0  0  0  0
  6  7  1  0  0  0  0
  7  8  1  0  0  0  0
  8  9  1  0  0  0  0
M  END
>  <CHROM.1>
130.43701415,-160.58143334,-74.17688319,175.38285099,-173.61444876,28.96409890
16.03336188,20.40376658,2.96777212,-0.31796281,-1.02393798

>  <Name>
ligand

>  <RI>
0

>  <Rbt.Current_Directory>
/home/itssahil/PROJECTS/Mol_Feturizer/New_Systems/rnas/3DIL

>  <Rbt.Executable>
rbdock ($Id: //depot/dev/client3/rdock/2013.1/src/exe/rbdock.cxx#4 $)

>  <Rbt.Library>
libRbt.so (2013.1, Build901 2013/11/27)

>  <Rbt.Parameter_File>
/export/apps/rDock/src/rDock_2013.1_src/data/scripts/dock_solv.prm

>  <Rbt.Receptor>
prm/pocket_docking_5.prm

>  <SCORE>
-8.73913

>  <SCORE.INTER>
-8.2934

>  <SCORE.INTER.CONST>
1

>  <SCORE.INTER.POLAR>
0

>  <SCORE.INTER.ROT>
5

>  <SCORE.INTER.SOLV>
17.9285

>  <SCORE.INTER.VDW>
-18.4384

>  <SCORE.INTER.norm>
-0.82934

>  <SCORE.INTRA>
-0.445737

>  <SCORE.INTRA.DIHEDRAL>
0.91607

>  <SCORE.INTRA.DIHEDRAL.0>
2.93688

>  <SCORE.INTRA.POLAR>
0

>  <SCORE.INTRA.POLAR.0>
0

>  <SCORE.INTRA.REPUL>
0

>  <SCORE.INTRA.REPUL.0>
0

>  <SCORE.INTRA.SOLV>
-1.40783

>  <SCORE.INTRA.SOLV.lig_0>
-32.2816

>  <SCORE.INTRA.VDW>
-0.199859

>  <SCORE.INTRA.VDW.0>
-0.749945

>  <SCORE.INTRA.norm>
-0.0445737

>  <SCORE.RESTR>
0

>  <SCORE.RESTR.CAVITY>
0

>  <SCORE.RESTR.norm>
0

>  <SCORE.SYSTEM>
0

>  <SCORE.SYSTEM.CONST>
0

>  <SCORE.SYSTEM.DIHEDRAL>
0

>  <SCORE.SYSTEM.SOLV>
0

>  <SCORE.SYSTEM.norm>
0

>  <SCORE.heavy>
10

>  <SCORE.norm>
-0.873913

>  <RMSD>
5.019

$$$$
ligand
 OpenBabel11021811473D
libRbt.so/2013.1/901 2013/11/27
 10  9  0  0  0  0  0  0  0  0999 V2000
   25.8546   15.2336   20.2115 N   0  0  0  0  0  0  0  0  0  0  0  0
   27.1921   15.7983   20.5618 C   0  0  2  0  0  0  0  0  0  0  0  0
   27.8976   16.3641   19.3297 C   0  0  0  0  0  0  0  0  0  0  0  0
   28.0137   15.6987   18.3020 O   0  0  0  0  0  0  0  0  0  0  0  0
   28.0549   14.7551   21.2816 C   0  0  0  0  0  0  0  0  0  0  0  0
   29.2468   15.3698   22.0147 C   0  0  0  0  0  0  0  0  0  0  0  0
   30.3546   15.8052   21.0651 C   0  0  0  0  0  0  0  0  0  0  0  0
   31.5109   16.4479   21.8248 C   0  0  0  0  0  0  0  0  0  0  0  0
   32.6142   16.9335   20.9259 N   0  0  0  0  0  0  0  0  0  0  0  0
   28.3547   17.5105   19.2992 O   0  0  0  0  0  0  0  0  0  0  0  0
  2  1  1  6  0  0  0
  2  3  1  0  0  0  0
  2  5  1  0  0  0  0
  3  4  1  0  0  0  0
  3 10  1  0  0  0  0
  5  6  1  0  0  0  0
  6  7  1  0  0  0  0
  7  8  1  0  0  0  0
  8  9  1  0  0  0  0
M  END
>  <CHROM.1>
-50.75111032,-163.28189147,-74.47993450,178.45801837,-178.25959961,28.91575733
16.00483829,20.45048448,2.93658127,-0.30907811,-1.04684354

>  <Name>
ligand

>  <RI>
0

>  <Rbt.Current_Directory>
/home/itssahil/PROJECTS/Mol_Feturizer/New_Systems/rnas/3DIL

>  <Rbt.Executable>
rbdock ($Id: //depot/dev/client3/rdock/2013.1/src/exe/rbdock.cxx#4 $)

>  <Rbt.Library>
libRbt.so (2013.1, Build901 2013/11/27)

>  <Rbt.Parameter_File>
/export/apps/rDock/src/rDock_2013.1_src/data/scripts/dock_solv.prm

>  <Rbt.Receptor>
prm/pocket_docking_3.prm

>  <SCORE>
-8.72028

>  <SCORE.INTER>
-8.11431

>  <SCORE.INTER.CONST>
1

>  <SCORE.INTER.POLAR>
0

>  <SCORE.INTER.ROT>
5

>  <SCORE.INTER.SOLV>
18.0453

>  <SCORE.INTER.VDW>
-18.358

>  <SCORE.INTER.norm>
-0.811431

>  <SCORE.INTRA>
-0.605974

>  <SCORE.INTRA.DIHEDRAL>
0.449395

>  <SCORE.INTRA.DIHEDRAL.0>
2.93688

>  <SCORE.INTRA.POLAR>
0

>  <SCORE.INTRA.POLAR.0>
0

>  <SCORE.INTRA.REPUL>
0

>  <SCORE.INTRA.REPUL.0>
0

>  <SCORE.INTRA.SOLV>
-1.39809

>  <SCORE.INTRA.SOLV.lig_0>
-32.2816

>  <SCORE.INTRA.VDW>
-0.131627

>  <SCORE.INTRA.VDW.0>
-0.749945

>  <SCORE.INTRA.norm>
-0.0605974

>  <SCORE.RESTR>
0

>  <SCORE.RESTR.CAVITY>
0

>  <SCORE.RESTR.norm>
0

>  <SCORE.SYSTEM>
0

>  <SCORE.SYSTEM.CONST>
0

>  <SCORE.SYSTEM.DIHEDRAL>
0

>  <SCORE.SYSTEM.SOLV>
0

>  <SCORE.SYSTEM.norm>
0

>  <SCORE.heavy>
10

>  <SCORE.norm>
-0.872028

>  <RMSD>
5.023

$$$$
ligand
 OpenBabel11021811473D
libRbt.so/2013.1/901 2013/11/27
 10  9  0  0  0  0  0  0  0  0999 V2000
   27.2895   15.1241   18.8144 N   0  0  0  0  0  0  0  0  0  0  0  0
   28.3454   15.3597   19.8440 C   0  0  2  0  0  0  0  0  0  0  0  0
   27.8660   14.9517   21.2367 C   0  0  0  0  0  0  0  0  0  0  0  0
   26.6841   15.0596   21.5591 O   0  0  0  0  0  0  0  0  0  0  0  0
   28.8254   16.8155   19.8122 C   0  0  0  0  0  0  0  0  0  0  0  0
   29.9315   17.1014   20.8274 C   0  0  0  0  0  0  0  0  0  0  0  0
   31.2642   16.4827   20.4281 C   0  0  0  0  0  0  0  0  0  0  0  0
   32.3226   16.7123   21.5026 C   0  0  0  0  0  0  0  0  0  0  0  0
   32.5755   18.1674   21.7849 N   0  0  0  0  0  0  0  0  0  0  0  0
   28.6276   14.4757   22.0837 O   0  0  0  0  0  0  0  0  0  0  0  0
  2  1  1  6  0  0  0
  2  3  1  0  0  0  0
  2  5  1  0  0  0  0
  3  4  1  0  0  0  0
  3 10  1  0  0  0  0
  5  6  1  0  0  0  0
  6  7  1  0  0  0  0
  7  8  1  0  0  0  0
  8  9  1  0  0  0  0
M  END
>  <CHROM.1>
-32.38574860,-178.67571830,72.48305404,-176.46154692,-59.27268233,29.35387421
16.00976449,20.81867233,3.10407854,0.48356973,1.96633672

>  <Name>
ligand

>  <RI>
0

>  <Rbt.Current_Directory>
/home/itssahil/PROJECTS/Mol_Feturizer/New_Systems/rnas/3DIL

>  <Rbt.Executable>
rbdock ($Id: //depot/dev/client3/rdock/2013.1/src/exe/rbdock.cxx#4 $)

>  <Rbt.Library>
libRbt.so (2013.1, Build901 2013/11/27)

>  <Rbt.Parameter_File>
/export/apps/rDock/src/rDock_2013.1_src/data/scripts/dock_solv.prm

>  <Rbt.Receptor>
prm/pocket_docking_2.prm

>  <SCORE>
-8.81702

>  <SCORE.INTER>
-8.42731

>  <SCORE.INTER.CONST>
1

>  <SCORE.INTER.POLAR>
0

>  <SCORE.INTER.ROT>
5

>  <SCORE.INTER.SOLV>
13.3976

>  <SCORE.INTER.VDW>
-17.0174

>  <SCORE.INTER.norm>
-0.842731

>  <SCORE.INTRA>
-0.391079

>  <SCORE.INTRA.DIHEDRAL>
-0.685981

>  <SCORE.INTRA.DIHEDRAL.0>
2.93688

>  <SCORE.INTRA.POLAR>
0

>  <SCORE.INTRA.POLAR.0>
0

>  <SCORE.INTRA.REPUL>
0

>  <SCORE.INTRA.REPUL.0>
0

>  <SCORE.INTRA.SOLV>
-0.378943

>  <SCORE.INTRA.SOLV.lig_0>
-32.2816

>  <SCORE.INTRA.VDW>
0.141383

>  <SCORE.INTRA.VDW.0>
-0.749945

>  <SCORE.INTRA.norm>
-0.0391079

>  <SCORE.RESTR>
0.00136835

>  <SCORE.RESTR.CAVITY>
0.00136835

>  <SCORE.RESTR.norm>
0.000136835

>  <SCORE.SYSTEM>
0

>  <SCORE.SYSTEM.CONST>
0

>  <SCORE.SYSTEM.DIHEDRAL>
0

>  <SCORE.SYSTEM.SOLV>
0

>  <SCORE.SYSTEM.norm>
0

>  <SCORE.heavy>
10

>  <SCORE.norm>
-0.881702

>  <RMSD>
5.060

$$$$
ligand
 OpenBabel11021811473D
libRbt.so/2013.1/901 2013/11/27
 10  9  0  0  0  0  0  0  0  0999 V2000
   25.9887   15.2443   20.5741 N   0  0  0  0  0  0  0  0  0  0  0  0
   27.4044   15.7191   20.5383 C   0  0  2  0  0  0  0  0  0  0  0  0
   27.8532   16.0243   19.1095 C   0  0  0  0  0  0  0  0  0  0  0  0
   27.6160   15.2448   18.1884 O   0  0  0  0  0  0  0  0  0  0  0  0
   28.3363   14.7131   21.2240 C   0  0  0  0  0  0  0  0  0  0  0  0
   29.7994   15.1551   21.2179 C   0  0  0  0  0  0  0  0  0  0  0  0
   30.0346   16.4062   22.0531 C   0  0  0  0  0  0  0  0  0  0  0  0
   31.5047   16.8130   22.0348 C   0  0  0  0  0  0  0  0  0  0  0  0
   31.9950   17.2042   20.6682 N   0  0  0  0  0  0  0  0  0  0  0  0
   28.4438   17.0667   18.8118 O   0  0  0  0  0  0  0  0  0  0  0  0
  2  1  1  6  0  0  0
  2  3  1  0  0  0  0
  2  5  1  0  0  0  0
  3  4  1  0  0  0  0
  3 10  1  0  0  0  0
  5  6  1  0  0  0  0
  6  7  1  0  0  0  0
  7  8  1  0  0  0  0
  8  9  1  0  0  0  0
M  END
>  <CHROM.1>
-45.90970840,-179.83252531,65.72923950,179.54189628,63.89126018,28.89891732
15.96528711,20.40600925,2.82157903,-0.41361998,-1.21300056

>  <Name>
ligand

>  <RI>
0

>  <Rbt.Current_Directory>
/home/itssahil/PROJECTS/Mol_Feturizer/New_Systems/rnas/3DIL

>  <Rbt.Executable>
rbdock ($Id: //depot/dev/client3/rdock/2013.1/src/exe/rbdock.cxx#4 $)

>  <Rbt.Library>
libRbt.so (2013.1, Build901 2013/11/27)

>  <Rbt.Parameter_File>
/export/apps/rDock/src/rDock_2013.1_src/data/scripts/dock_solv.prm

>  <Rbt.Receptor>
prm/pocket_docking_6.prm

>  <SCORE>
-8.52507

>  <SCORE.INTER>
-7.80795

>  <SCORE.INTER.CONST>
1

>  <SCORE.INTER.POLAR>
0

>  <SCORE.INTER.ROT>
5

>  <SCORE.INTER.SOLV>
17.1127

>  <SCORE.INTER.VDW>
-17.8429

>  <SCORE.INTER.norm>
-0.780795

>  <SCORE.INTRA>
-0.717125

>  <SCORE.INTRA.DIHEDRAL>
-1.2004

>  <SCORE.INTRA.DIHEDRAL.0>
2.93688

>  <SCORE.INTRA.POLAR>
0

>  <SCORE.INTRA.POLAR.0>
0

>  <SCORE.INTRA.REPUL>
0

>  <SCORE.INTRA.REPUL.0>
0

>  <SCORE.INTRA.SOLV>
-0.405005

>  <SCORE.INTRA.SOLV.lig_0>
-32.2816

>  <SCORE.INTRA.VDW>
0.0855779

>  <SCORE.INTRA.VDW.0>
-0.749945

>  <SCORE.INTRA.norm>
-0.0717125

>  <SCORE.RESTR>
0

>  <SCORE.RESTR.CAVITY>
0

>  <SCORE.RESTR.norm>
0

>  <SCORE.SYSTEM>
0

>  <SCORE.SYSTEM.CONST>
0

>  <SCORE.SYSTEM.DIHEDRAL>
0

>  <SCORE.SYSTEM.SOLV>
0

>  <SCORE.SYSTEM.norm>
0

>  <SCORE.heavy>
10

>  <SCORE.norm>
-0.852507

>  <RMSD>
5.062

$$$$
ligand
 OpenBabel11021811473D
libRbt.so/2013.1/901 2013/11/27
 10  9  0  0  0  0  0  0  0  0999 V2000
   29.0894   14.8498   19.0054 N   0  0  0  0  0  0  0  0  0  0  0  0
   27.9062   14.7475   19.9111 C   0  0  2  0  0  0  0  0  0  0  0  0
   26.9693   15.9429   19.7402 C   0  0  0  0  0  0  0  0  0  0  0  0
   27.4109   17.0739   19.5447 O   0  0  0  0  0  0  0  0  0  0  0  0
   28.3468   14.5749   21.3695 C   0  0  0  0  0  0  0  0  0  0  0  0
   29.2652   15.6972   21.8521 C   0  0  0  0  0  0  0  0  0  0  0  0
   30.6785   15.5732   21.2993 C   0  0  0  0  0  0  0  0  0  0  0  0
   31.6159   16.5854   21.9504 C   0  0  0  0  0  0  0  0  0  0  0  0
   31.2021   18.0122   21.7180 N   0  0  0  0  0  0  0  0  0  0  0  0
   25.7405   15.8268   19.7632 O   0  0  0  0  0  0  0  0  0  0  0  0
  2  1  1  6  0  0  0
  2  3  1  0  0  0  0
  2  5  1  0  0  0  0
  3  4  1  0  0  0  0
  3 10  1  0  0  0  0
  5  6  1  0  0  0  0
  6  7  1  0  0  0  0
  7  8  1  0  0  0  0
  8  9  1  0  0  0  0
M  END
>  <CHROM.1>
-37.53802876,56.54630231,-75.07136920,-171.95085247,-60.70902525,28.79231528
15.91130879,20.60610480,-2.93661951,-0.44450603,0.00318775

>  <Name>
ligand

>  <RI>
0

>  <Rbt.Current_Directory>
/home/itssahil/PROJECTS/Mol_Feturizer/New_Systems/rnas/3DIL

>  <Rbt.Executable>
rbdock ($Id: //depot/dev/client3/rdock/2013.1/src/exe/rbdock.cxx#4 $)

>  <Rbt.Library>
libRbt.so (2013.1, Build901 2013/11/27)

>  <Rbt.Parameter_File>
/export/apps/rDock/src/rDock_2013.1_src/data/scripts/dock_solv.prm

>  <Rbt.Receptor>
prm/pocket_docking_3.prm

>  <SCORE>
-7.55767

>  <SCORE.INTER>
-8.75427

>  <SCORE.INTER.CONST>
1

>  <SCORE.INTER.POLAR>
0

>  <SCORE.INTER.ROT>
5

>  <SCORE.INTER.SOLV>
13.9189

>  <SCORE.INTER.VDW>
-17.4091

>  <SCORE.INTER.norm>
-0.875427

>  <SCORE.INTRA>
1.1966

>  <SCORE.INTRA.DIHEDRAL>
-0.150573

>  <SCORE.INTRA.DIHEDRAL.0>
2.93688

>  <SCORE.INTRA.POLAR>
0

>  <SCORE.INTRA.POLAR.0>
0

>  <SCORE.INTRA.REPUL>
0

>  <SCORE.INTRA.REPUL.0>
0

>  <SCORE.INTRA.SOLV>
1.79475

>  <SCORE.INTRA.SOLV.lig_0>
-32.2816

>  <SCORE.INTRA.VDW>
0.374513

>  <SCORE.INTRA.VDW.0>
-0.749945

>  <SCORE.INTRA.norm>
0.11966

>  <SCORE.RESTR>
0

>  <SCORE.RESTR.CAVITY>
0

>  <SCORE.RESTR.norm>
0

>  <SCORE.SYSTEM>
0

>  <SCORE.SYSTEM.CONST>
0

>  <SCORE.SYSTEM.DIHEDRAL>
0

>  <SCORE.SYSTEM.SOLV>
0

>  <SCORE.SYSTEM.norm>
0

>  <SCORE.heavy>
10

>  <SCORE.norm>
-0.755767

>  <RMSD>
5.067

$$$$
ligand
 OpenBabel11021811473D
libRbt.so/2013.1/901 2013/11/27
 10  9  0  0  0  0  0  0  0  0999 V2000
   25.9681   15.2610   20.5361 N   0  0  0  0  0  0  0  0  0  0  0  0
   27.3891   15.7198   20.5031 C   0  0  2  0  0  0  0  0  0  0  0  0
   27.8509   15.9989   19.0732 C   0  0  0  0  0  0  0  0  0  0  0  0
   27.6365   15.1951   18.1675 O   0  0  0  0  0  0  0  0  0  0  0  0
   28.3053   14.7140   21.2100 C   0  0  0  0  0  0  0  0  0  0  0  0
   29.7733   15.1394   21.2065 C   0  0  0  0  0  0  0  0  0  0  0  0
   30.0195   16.3934   22.0342 C   0  0  0  0  0  0  0  0  0  0  0  0
   31.4990   16.7651   22.0450 C   0  0  0  0  0  0  0  0  0  0  0  0
   32.0426   17.0762   20.6780 N   0  0  0  0  0  0  0  0  0  0  0  0
   28.4298   17.0430   18.7586 O   0  0  0  0  0  0  0  0  0  0  0  0
  2  1  1  6  0  0  0
  2  3  1  0  0  0  0
  2  5  1  0  0  0  0
  3  4  1  0  0  0  0
  3 10  1  0  0  0  0
  5  6  1  0  0  0  0
  6  7  1  0  0  0  0
  7  8  1  0  0  0  0
  8  9  1  0  0  0  0
M  END
>  <CHROM.1>
-47.48290499,-179.88368088,66.23804011,178.23295267,61.56751776,28.89297359
15.93631644,20.38509733,2.79920765,-0.39543373,-1.23771202

>  <Name>
ligand

>  <RI>
0

>  <Rbt.Current_Directory>
/home/itssahil/PROJECTS/Mol_Feturizer/New_Systems/rnas/3DIL

>  <Rbt.Executable>
rbdock ($Id: //depot/dev/client3/rdock/2013.1/src/exe/rbdock.cxx#4 $)

>  <Rbt.Library>
libRbt.so (2013.1, Build901 2013/11/27)

>  <Rbt.Parameter_File>
/export/apps/rDock/src/rDock_2013.1_src/data/scripts/dock_solv.prm

>  <Rbt.Receptor>
prm/pocket_docking_8.prm

>  <SCORE>
-8.47665

>  <SCORE.INTER>
-7.78718

>  <SCORE.INTER.CONST>
1

>  <SCORE.INTER.POLAR>
0

>  <SCORE.INTER.ROT>
5

>  <SCORE.INTER.SOLV>
17.0378

>  <SCORE.INTER.VDW>
-17.8041

>  <SCORE.INTER.norm>
-0.778718

>  <SCORE.INTRA>
-0.689466

>  <SCORE.INTRA.DIHEDRAL>
-1.21445

>  <SCORE.INTRA.DIHEDRAL.0>
2.93688

>  <SCORE.INTRA.POLAR>
0

>  <SCORE.INTRA.POLAR.0>
0

>  <SCORE.INTRA.REPUL>
0

>  <SCORE.INTRA.REPUL.0>
0

>  <SCORE.INTRA.SOLV>
-0.382687

>  <SCORE.INTRA.SOLV.lig_0>
-32.2816

>  <SCORE.INTRA.VDW>
0.109103

>  <SCORE.INTRA.VDW.0>
-0.749945

>  <SCORE.INTRA.norm>
-0.0689466

>  <SCORE.RESTR>
0

>  <SCORE.RESTR.CAVITY>
0

>  <SCORE.RESTR.norm>
0

>  <SCORE.SYSTEM>
0

>  <SCORE.SYSTEM.CONST>
0

>  <SCORE.SYSTEM.DIHEDRAL>
0

>  <SCORE.SYSTEM.SOLV>
0

>  <SCORE.SYSTEM.norm>
0

>  <SCORE.heavy>
10

>  <SCORE.norm>
-0.847665

>  <RMSD>
5.069

$$$$
ligand
 OpenBabel11021811473D
libRbt.so/2013.1/901 2013/11/27
 10  9  0  0  0  0  0  0  0  0999 V2000
   25.9811   15.0250   20.7428 N   0  0  0  0  0  0  0  0  0  0  0  0
   27.3235   15.6780   20.7912 C   0  0  2  0  0  0  0  0  0  0  0  0
   27.7394   16.1983   19.4156 C   0  0  0  0  0  0  0  0  0  0  0  0
   28.1794   17.3378   19.2733 O   0  0  0  0  0  0  0  0  0  0  0  0
   28.3730   14.7282   21.3806 C   0  0  0  0  0  0  0  0  0  0  0  0
   29.6812   15.4328   21.7385 C   0  0  0  0  0  0  0  0  0  0  0  0
   30.5063   15.7908   20.5099 C   0  0  0  0  0  0  0  0  0  0  0  0
   31.8466   16.4027   20.9051 C   0  0  0  0  0  0  0  0  0  0  0  0
   31.7082   17.6637   21.7124 N   0  0  0  0  0  0  0  0  0  0  0  0
   27.6793   15.4992   18.3998 O   0  0  0  0  0  0  0  0  0  0  0  0
  2  1  1  6  0  0  0
  2  3  1  0  0  0  0
  2  5  1  0  0  0  0
  3  4  1  0  0  0  0
  3 10  1  0  0  0  0
  5  6  1  0  0  0  0
  6  7  1  0  0  0  0
  7  8  1  0  0  0  0
  8  9  1  0  0  0  0
M  END
>  <CHROM.1>
132.11540041,-167.34327414,-73.98938744,-176.01391479,-59.99194483,28.90250367
15.98687400,20.45369813,3.02238868,-0.37421470,-1.00872383

>  <Name>
ligand

>  <RI>
0

>  <Rbt.Current_Directory>
/home/itssahil/PROJECTS/Mol_Feturizer/New_Systems/rnas/3DIL

>  <Rbt.Executable>
rbdock ($Id: //depot/dev/client3/rdock/2013.1/src/exe/rbdock.cxx#4 $)

>  <Rbt.Library>
libRbt.so (2013.1, Build901 2013/11/27)

>  <Rbt.Parameter_File>
/export/apps/rDock/src/rDock_2013.1_src/data/scripts/dock_solv.prm

>  <Rbt.Receptor>
prm/blind_docking_80.prm

>  <SCORE>
-8.53255

>  <SCORE.INTER>
-8.4226

>  <SCORE.INTER.CONST>
1

>  <SCORE.INTER.POLAR>
0

>  <SCORE.INTER.ROT>
5

>  <SCORE.INTER.SOLV>
17.384

>  <SCORE.INTER.VDW>
-18.3431

>  <SCORE.INTER.norm>
-0.84226

>  <SCORE.INTRA>
-0.109942

>  <SCORE.INTRA.DIHEDRAL>
-0.0257573

>  <SCORE.INTRA.DIHEDRAL.0>
2.93688

>  <SCORE.INTRA.POLAR>
0

>  <SCORE.INTRA.POLAR.0>
0

>  <SCORE.INTRA.REPUL>
0

>  <SCORE.INTRA.REPUL.0>
0

>  <SCORE.INTRA.SOLV>
-0.482479

>  <SCORE.INTRA.SOLV.lig_0>
-32.2816

>  <SCORE.INTRA.VDW>
0.144176

>  <SCORE.INTRA.VDW.0>
-0.749945

>  <SCORE.INTRA.norm>
-0.0109942

>  <SCORE.RESTR>
0

>  <SCORE.RESTR.CAVITY>
0

>  <SCORE.RESTR.norm>
0

>  <SCORE.SYSTEM>
0

>  <SCORE.SYSTEM.CONST>
0

>  <SCORE.SYSTEM.DIHEDRAL>
0

>  <SCORE.SYSTEM.SOLV>
0

>  <SCORE.SYSTEM.norm>
0

>  <SCORE.heavy>
10

>  <SCORE.norm>
-0.853255

>  <RMSD>
5.076

$$$$
ligand
 OpenBabel11021811473D
libRbt.so/2013.1/901 2013/11/27
 10  9  0  0  0  0  0  0  0  0999 V2000
   25.6235   15.4870   20.0195 N   0  0  0  0  0  0  0  0  0  0  0  0
   27.0250   15.8966   20.3333 C   0  0  2  0  0  0  0  0  0  0  0  0
   27.8421   16.1071   19.0590 C   0  0  0  0  0  0  0  0  0  0  0  0
   27.8779   15.2499   18.1779 O   0  0  0  0  0  0  0  0  0  0  0  0
   27.6919   14.8877   21.2758 C   0  0  0  0  0  0  0  0  0  0  0  0
   28.9080   15.4625   22.0013 C   0  0  0  0  0  0  0  0  0  0  0  0
   30.0970   15.6703   21.0731 C   0  0  0  0  0  0  0  0  0  0  0  0
   31.2622   16.3256   21.8079 C   0  0  0  0  0  0  0  0  0  0  0  0
   32.4243   16.6476   20.9097 N   0  0  0  0  0  0  0  0  0  0  0  0
   28.4750   17.1452   18.8447 O   0  0  0  0  0  0  0  0  0  0  0  0
  2  1  1  6  0  0  0
  2  3  1  0  0  0  0
  2  5  1  0  0  0  0
  3  4  1  0  0  0  0
  3 10  1  0  0  0  0
  5  6  1  0  0  0  0
  6  7  1  0  0  0  0
  7  8  1  0  0  0  0
  8  9  1  0  0  0  0
M  END
>  <CHROM.1>
-50.90452598,-160.42422079,-71.16525794,176.41971915,-175.63592498,28.73202615
15.89336922,20.31733373,2.82231325,-0.25025308,-1.26673682

>  <Name>
ligand

>  <RI>
0

>  <Rbt.Current_Directory>
/home/itssahil/PROJECTS/Mol_Feturizer/New_Systems/rnas/3DIL

>  <Rbt.Executable>
rbdock ($Id: //depot/dev/client3/rdock/2013.1/src/exe/rbdock.cxx#4 $)

>  <Rbt.Library>
libRbt.so (2013.1, Build901 2013/11/27)

>  <Rbt.Parameter_File>
/export/apps/rDock/src/rDock_2013.1_src/data/scripts/dock_solv.prm

>  <Rbt.Receptor>
prm/blind_docking_60.prm

>  <SCORE>
-8.51434

>  <SCORE.INTER>
-8.03065

>  <SCORE.INTER.CONST>
1

>  <SCORE.INTER.POLAR>
0

>  <SCORE.INTER.ROT>
5

>  <SCORE.INTER.SOLV>
18.0636

>  <SCORE.INTER.VDW>
-18.3083

>  <SCORE.INTER.norm>
-0.803065

>  <SCORE.INTRA>
-0.483693

>  <SCORE.INTRA.DIHEDRAL>
0.568146

>  <SCORE.INTRA.DIHEDRAL.0>
2.93688

>  <SCORE.INTRA.POLAR>
0

>  <SCORE.INTRA.POLAR.0>
0

>  <SCORE.INTRA.REPUL>
0

>  <SCORE.INTRA.REPUL.0>
0

>  <SCORE.INTRA.SOLV>
-1.37575

>  <SCORE.INTRA.SOLV.lig_0>
-32.2816

>  <SCORE.INTRA.VDW>
-0.0798905

>  <SCORE.INTRA.VDW.0>
-0.749945

>  <SCORE.INTRA.norm>
-0.0483693

>  <SCORE.RESTR>
0

>  <SCORE.RESTR.CAVITY>
0

>  <SCORE.RESTR.norm>
0

>  <SCORE.SYSTEM>
0

>  <SCORE.SYSTEM.CONST>
0

>  <SCORE.SYSTEM.DIHEDRAL>
0

>  <SCORE.SYSTEM.SOLV>
0

>  <SCORE.SYSTEM.norm>
0

>  <SCORE.heavy>
10

>  <SCORE.norm>
-0.851434

>  <RMSD>
5.095

$$$$
ligand
 OpenBabel11021811473D
libRbt.so/2013.1/901 2013/11/27
 10  9  0  0  0  0  0  0  0  0999 V2000
   27.5214   15.5168   18.8673 N   0  0  0  0  0  0  0  0  0  0  0  0
   28.4952   15.1309   19.9318 C   0  0  2  0  0  0  0  0  0  0  0  0
   27.8268   15.0779   21.3052 C   0  0  0  0  0  0  0  0  0  0  0  0
   26.6025   15.0385   21.4153 O   0  0  0  0  0  0  0  0  0  0  0  0
   29.7102   16.0661   19.9270 C   0  0  0  0  0  0  0  0  0  0  0  0
   30.8728   15.5381   20.7669 C   0  0  0  0  0  0  0  0  0  0  0  0
   32.0354   16.5189   20.8362 C   0  0  0  0  0  0  0  0  0  0  0  0
   31.6825   17.7327   21.6902 C   0  0  0  0  0  0  0  0  0  0  0  0
   32.8307   18.6872   21.8678 N   0  0  0  0  0  0  0  0  0  0  0  0
   28.4763   15.0455   22.3545 O   0  0  0  0  0  0  0  0  0  0  0  0
  2  1  1  6  0  0  0
  2  3  1  0  0  0  0
  2  5  1  0  0  0  0
  3  4  1  0  0  0  0
  3 10  1  0  0  0  0
  5  6  1  0  0  0  0
  6  7  1  0  0  0  0
  7  8  1  0  0  0  0
  8  9  1  0  0  0  0
M  END
>  <CHROM.1>
16.26026191,-166.90921831,-175.91626296,70.90594564,176.04436147,29.58079996
16.02732060,20.92505679,-2.97306931,0.48412612,1.51157937

>  <Name>
ligand

>  <RI>
0

>  <Rbt.Current_Directory>
/home/itssahil/PROJECTS/Mol_Feturizer/New_Systems/rnas/3DIL

>  <Rbt.Executable>
rbdock ($Id: //depot/dev/client3/rdock/2013.1/src/exe/rbdock.cxx#4 $)

>  <Rbt.Library>
libRbt.so (2013.1, Build901 2013/11/27)

>  <Rbt.Parameter_File>
/export/apps/rDock/src/rDock_2013.1_src/data/scripts/dock_solv.prm

>  <Rbt.Receptor>
prm/pocket_docking_2.prm

>  <SCORE>
-7.22612

>  <SCORE.INTER>
-7.27715

>  <SCORE.INTER.CONST>
1

>  <SCORE.INTER.POLAR>
0

>  <SCORE.INTER.ROT>
5

>  <SCORE.INTER.SOLV>
13.9416

>  <SCORE.INTER.VDW>
-16.432

>  <SCORE.INTER.norm>
-0.727715

>  <SCORE.INTRA>
0.0510329

>  <SCORE.INTRA.DIHEDRAL>
-0.232195

>  <SCORE.INTRA.DIHEDRAL.0>
2.93688

>  <SCORE.INTRA.POLAR>
0

>  <SCORE.INTRA.POLAR.0>
0

>  <SCORE.INTRA.REPUL>
0

>  <SCORE.INTRA.REPUL.0>
0

>  <SCORE.INTRA.SOLV>
-1.31335

>  <SCORE.INTRA.SOLV.lig_0>
-32.2816

>  <SCORE.INTRA.VDW>
0.823805

>  <SCORE.INTRA.VDW.0>
-0.749945

>  <SCORE.INTRA.norm>
0.00510329

>  <SCORE.RESTR>
0

>  <SCORE.RESTR.CAVITY>
0

>  <SCORE.RESTR.norm>
0

>  <SCORE.SYSTEM>
0

>  <SCORE.SYSTEM.CONST>
0

>  <SCORE.SYSTEM.DIHEDRAL>
0

>  <SCORE.SYSTEM.SOLV>
0

>  <SCORE.SYSTEM.norm>
0

>  <SCORE.heavy>
10

>  <SCORE.norm>
-0.722612

>  <RMSD>
5.113

$$$$
ligand
 OpenBabel11021811473D
libRbt.so/2013.1/901 2013/11/27
 10  9  0  0  0  0  0  0  0  0999 V2000
   27.9871   14.4507   20.4438 N   0  0  0  0  0  0  0  0  0  0  0  0
   28.5847   15.1735   19.2814 C   0  0  2  0  0  0  0  0  0  0  0  0
   27.9138   16.5294   19.0643 C   0  0  0  0  0  0  0  0  0  0  0  0
   28.4651   17.4144   18.4123 O   0  0  0  0  0  0  0  0  0  0  0  0
   28.5391   14.3079   18.0167 C   0  0  0  0  0  0  0  0  0  0  0  0
   27.1719   13.6666   17.7817 C   0  0  0  0  0  0  0  0  0  0  0  0
   27.2765   12.2811   17.1589 C   0  0  0  0  0  0  0  0  0  0  0  0
   25.9053   11.6219   17.0473 C   0  0  0  0  0  0  0  0  0  0  0  0
   25.9774   10.1352   16.8340 N   0  0  0  0  0  0  0  0  0  0  0  0
   26.7898   16.7876   19.5048 O   0  0  0  0  0  0  0  0  0  0  0  0
  2  1  1  1  0  0  0
  2  3  1  0  0  0  0
  2  5  1  0  0  0  0
  3  4  1  0  0  0  0
  3 10  1  0  0  0  0
  5  6  1  0  0  0  0
  6  7  1  0  0  0  0
  7  8  1  0  0  0  0
  8  9  1  0  0  0  0
M  END
>  <CHROM.1>
160.61578578,47.53110449,-145.33827095,175.17104970,-162.78399634,27.45137130
14.27801868,18.35456484,-0.32595390,1.27784112,2.28946453

>  <Name>
ligand

>  <RI>
0

>  <Rbt.Current_Directory>
/home/itssahil/PROJECTS/Mol_Feturizer/New_Systems/rnas/3DIL

>  <Rbt.Executable>
rbdock ($Id: //depot/dev/client3/rdock/2013.1/src/exe/rbdock.cxx#4 $)

>  <Rbt.Library>
libRbt.so (2013.1, Build901 2013/11/27)

>  <Rbt.Parameter_File>
/export/apps/rDock/src/rDock_2013.1_src/data/scripts/dock_solv.prm

>  <Rbt.Receptor>
prm/blind_docking_40.prm

>  <SCORE>
-2.88095

>  <SCORE.INTER>
-4.89355

>  <SCORE.INTER.CONST>
1

>  <SCORE.INTER.POLAR>
0

>  <SCORE.INTER.ROT>
5

>  <SCORE.INTER.SOLV>
15.4931

>  <SCORE.INTER.VDW>
-15.3601

>  <SCORE.INTER.norm>
-0.489355

>  <SCORE.INTRA>
2.0126

>  <SCORE.INTRA.DIHEDRAL>
4.08624

>  <SCORE.INTRA.DIHEDRAL.0>
2.93688

>  <SCORE.INTRA.POLAR>
0

>  <SCORE.INTRA.POLAR.0>
0

>  <SCORE.INTRA.REPUL>
0

>  <SCORE.INTRA.REPUL.0>
0

>  <SCORE.INTRA.SOLV>
-0.179951

>  <SCORE.INTRA.SOLV.lig_0>
-32.2816

>  <SCORE.INTRA.VDW>
0.0594519

>  <SCORE.INTRA.VDW.0>
-0.749945

>  <SCORE.INTRA.norm>
0.20126

>  <SCORE.RESTR>
0

>  <SCORE.RESTR.CAVITY>
0

>  <SCORE.RESTR.norm>
0

>  <SCORE.SYSTEM>
0

>  <SCORE.SYSTEM.CONST>
0

>  <SCORE.SYSTEM.DIHEDRAL>
0

>  <SCORE.SYSTEM.SOLV>
0

>  <SCORE.SYSTEM.norm>
0

>  <SCORE.heavy>
10

>  <SCORE.norm>
-0.288095

>  <RMSD>
5.116

$$$$
ligand
 OpenBabel11021811473D
libRbt.so/2013.1/901 2013/11/27
 10  9  0  0  0  0  0  0  0  0999 V2000
   25.7914   15.2830   20.3780 N   0  0  0  0  0  0  0  0  0  0  0  0
   27.2011   15.7723   20.4417 C   0  0  2  0  0  0  0  0  0  0  0  0
   27.7749   16.0005   19.0437 C   0  0  0  0  0  0  0  0  0  0  0  0
   28.3393   17.0535   18.7522 O   0  0  0  0  0  0  0  0  0  0  0  0
   28.0745   14.8189   21.2658 C   0  0  0  0  0  0  0  0  0  0  0  0
   29.4081   15.4397   21.6805 C   0  0  0  0  0  0  0  0  0  0  0  0
   30.3607   15.6150   20.5057 C   0  0  0  0  0  0  0  0  0  0  0  0
   31.6924   16.2051   20.9590 C   0  0  0  0  0  0  0  0  0  0  0  0
   31.5564   17.5663   21.5832 N   0  0  0  0  0  0  0  0  0  0  0  0
   27.7234   15.1394   18.1605 O   0  0  0  0  0  0  0  0  0  0  0  0
  2  1  1  6  0  0  0
  2  3  1  0  0  0  0
  2  5  1  0  0  0  0
  3  4  1  0  0  0  0
  3 10  1  0  0  0  0
  5  6  1  0  0  0  0
  6  7  1  0  0  0  0
  7  8  1  0  0  0  0
  8  9  1  0  0  0  0
M  END
>  <CHROM.1>
130.27024025,-164.53991434,-70.80915941,-178.64369553,-61.00930765,28.79687418
15.89426694,20.24236126,2.86758962,-0.35114274,-1.23079830

>  <Name>
ligand

>  <RI>
0

>  <Rbt.Current_Directory>
/home/itssahil/PROJECTS/Mol_Feturizer/New_Systems/rnas/3DIL

>  <Rbt.Executable>
rbdock ($Id: //depot/dev/client3/rdock/2013.1/src/exe/rbdock.cxx#4 $)

>  <Rbt.Library>
libRbt.so (2013.1, Build901 2013/11/27)

>  <Rbt.Parameter_File>
/export/apps/rDock/src/rDock_2013.1_src/data/scripts/dock_solv.prm

>  <Rbt.Receptor>
prm/pocket_docking_5.prm

>  <SCORE>
-8.48466

>  <SCORE.INTER>
-8.38194

>  <SCORE.INTER.CONST>
1

>  <SCORE.INTER.POLAR>
0

>  <SCORE.INTER.ROT>
5

>  <SCORE.INTER.SOLV>
17.0143

>  <SCORE.INTER.VDW>
-18.1927

>  <SCORE.INTER.norm>
-0.838194

>  <SCORE.INTRA>
-0.102721

>  <SCORE.INTRA.DIHEDRAL>
-0.105982

>  <SCORE.INTRA.DIHEDRAL.0>
2.93688

>  <SCORE.INTRA.POLAR>
0

>  <SCORE.INTRA.POLAR.0>
0

>  <SCORE.INTRA.REPUL>
0

>  <SCORE.INTRA.REPUL.0>
0

>  <SCORE.INTRA.SOLV>
-0.468803

>  <SCORE.INTRA.SOLV.lig_0>
-32.2816

>  <SCORE.INTRA.VDW>
0.184672

>  <SCORE.INTRA.VDW.0>
-0.749945

>  <SCORE.INTRA.norm>
-0.0102721

>  <SCORE.RESTR>
0

>  <SCORE.RESTR.CAVITY>
0

>  <SCORE.RESTR.norm>
0

>  <SCORE.SYSTEM>
0

>  <SCORE.SYSTEM.CONST>
0

>  <SCORE.SYSTEM.DIHEDRAL>
0

>  <SCORE.SYSTEM.SOLV>
0

>  <SCORE.SYSTEM.norm>
0

>  <SCORE.heavy>
10

>  <SCORE.norm>
-0.848466

>  <RMSD>
5.119

$$$$
ligand
 OpenBabel11021811473D
libRbt.so/2013.1/901 2013/11/27
 10  9  0  0  0  0  0  0  0  0999 V2000
   28.7272   15.2275   22.2074 N   0  0  0  0  0  0  0  0  0  0  0  0
   28.4798   16.1727   21.0778 C   0  0  2  0  0  0  0  0  0  0  0  0
   27.7922   15.4723   19.9063 C   0  0  0  0  0  0  0  0  0  0  0  0
   28.2982   14.4894   19.3675 O   0  0  0  0  0  0  0  0  0  0  0  0
   29.7800   16.8603   20.6449 C   0  0  0  0  0  0  0  0  0  0  0  0
   30.8980   15.8707   20.3182 C   0  0  0  0  0  0  0  0  0  0  0  0
   32.2208   16.5627   20.0187 C   0  0  0  0  0  0  0  0  0  0  0  0
   32.9023   17.0282   21.3016 C   0  0  0  0  0  0  0  0  0  0  0  0
   32.1290   18.0908   22.0323 N   0  0  0  0  0  0  0  0  0  0  0  0
   26.6976   15.8390   19.4685 O   0  0  0  0  0  0  0  0  0  0  0  0
  2  1  1  1  0  0  0
  2  3  1  0  0  0  0
  2  5  1  0  0  0  0
  3  4  1  0  0  0  0
  3 10  1  0  0  0  0
  5  6  1  0  0  0  0
  6  7  1  0  0  0  0
  7  8  1  0  0  0  0
  8  9  1  0  0  0  0
M  END
>  <CHROM.1>
-57.27579576,53.74764235,-174.52899485,77.31663727,-64.87006787,29.76613411
16.14310972,20.60715051,2.76415623,-0.22600784,-2.02218172

>  <Name>
ligand

>  <RI>
0

>  <Rbt.Current_Directory>
/home/itssahil/PROJECTS/Mol_Feturizer/New_Systems/rnas/3DIL

>  <Rbt.Executable>
rbdock ($Id: //depot/dev/client3/rdock/2013.1/src/exe/rbdock.cxx#4 $)

>  <Rbt.Library>
libRbt.so (2013.1, Build901 2013/11/27)

>  <Rbt.Parameter_File>
/export/apps/rDock/src/rDock_2013.1_src/data/scripts/dock_solv.prm

>  <Rbt.Receptor>
prm/blind_docking_100.prm

>  <SCORE>
-5.32754

>  <SCORE.INTER>
-6.8347

>  <SCORE.INTER.CONST>
1

>  <SCORE.INTER.POLAR>
0

>  <SCORE.INTER.ROT>
5

>  <SCORE.INTER.SOLV>
14.1024

>  <SCORE.INTER.VDW>
-16.1906

>  <SCORE.INTER.norm>
-0.68347

>  <SCORE.INTRA>
1.50716

>  <SCORE.INTRA.DIHEDRAL>
0.130556

>  <SCORE.INTRA.DIHEDRAL.0>
2.93688

>  <SCORE.INTRA.POLAR>
0

>  <SCORE.INTRA.POLAR.0>
0

>  <SCORE.INTRA.REPUL>
0

>  <SCORE.INTRA.REPUL.0>
0

>  <SCORE.INTRA.SOLV>
1.86476

>  <SCORE.INTRA.SOLV.lig_0>
-32.2816

>  <SCORE.INTRA.VDW>
0.509505

>  <SCORE.INTRA.VDW.0>
-0.749945

>  <SCORE.INTRA.norm>
0.150716

>  <SCORE.RESTR>
0

>  <SCORE.RESTR.CAVITY>
0

>  <SCORE.RESTR.norm>
0

>  <SCORE.SYSTEM>
0

>  <SCORE.SYSTEM.CONST>
0

>  <SCORE.SYSTEM.DIHEDRAL>
0

>  <SCORE.SYSTEM.SOLV>
0

>  <SCORE.SYSTEM.norm>
0

>  <SCORE.heavy>
10

>  <SCORE.norm>
-0.532754

>  <RMSD>
5.166

$$$$
ligand
 OpenBabel11021811473D
libRbt.so/2013.1/901 2013/11/27
 10  9  0  0  0  0  0  0  0  0999 V2000
   25.9266   14.9310   20.8267 N   0  0  0  0  0  0  0  0  0  0  0  0
   27.2511   15.6174   20.7542 C   0  0  2  0  0  0  0  0  0  0  0  0
   27.8247   15.5724   19.3383 C   0  0  0  0  0  0  0  0  0  0  0  0
   28.5081   16.4959   18.8996 O   0  0  0  0  0  0  0  0  0  0  0  0
   28.2273   15.0324   21.7816 C   0  0  0  0  0  0  0  0  0  0  0  0
   29.5029   15.8608   21.9315 C   0  0  0  0  0  0  0  0  0  0  0  0
   30.5057   15.5951   20.8171 C   0  0  0  0  0  0  0  0  0  0  0  0
   31.6302   16.6260   20.8298 C   0  0  0  0  0  0  0  0  0  0  0  0
   32.3960   16.6525   22.1236 N   0  0  0  0  0  0  0  0  0  0  0  0
   27.6538   14.6076   18.5874 O   0  0  0  0  0  0  0  0  0  0  0  0
  2  1  1  6  0  0  0
  2  3  1  0  0  0  0
  2  5  1  0  0  0  0
  3  4  1  0  0  0  0
  3 10  1  0  0  0  0
  5  6  1  0  0  0  0
  6  7  1  0  0  0  0
  7  8  1  0  0  0  0
  8  9  1  0  0  0  0
M  END
>  <CHROM.1>
146.77991376,-169.33489980,-79.55541373,168.44927821,59.09837137,28.94653646
15.69737348,20.55382496,2.82296275,-0.29806513,-1.48041976

>  <Name>
ligand

>  <RI>
0

>  <Rbt.Current_Directory>
/home/itssahil/PROJECTS/Mol_Feturizer/New_Systems/rnas/3DIL

>  <Rbt.Executable>
rbdock ($Id: //depot/dev/client3/rdock/2013.1/src/exe/rbdock.cxx#4 $)

>  <Rbt.Library>
libRbt.so (2013.1, Build901 2013/11/27)

>  <Rbt.Parameter_File>
/export/apps/rDock/src/rDock_2013.1_src/data/scripts/dock_solv.prm

>  <Rbt.Receptor>
prm/pocket_docking_2.prm

>  <SCORE>
-6.32004

>  <SCORE.INTER>
-6.7842

>  <SCORE.INTER.CONST>
1

>  <SCORE.INTER.POLAR>
0

>  <SCORE.INTER.ROT>
5

>  <SCORE.INTER.SOLV>
19.9525

>  <SCORE.INTER.VDW>
-18.107

>  <SCORE.INTER.norm>
-0.67842

>  <SCORE.INTRA>
0.463765

>  <SCORE.INTRA.DIHEDRAL>
0.945871

>  <SCORE.INTRA.DIHEDRAL.0>
2.93688

>  <SCORE.INTRA.POLAR>
0

>  <SCORE.INTRA.POLAR.0>
0

>  <SCORE.INTRA.REPUL>
0

>  <SCORE.INTRA.REPUL.0>
0

>  <SCORE.INTRA.SOLV>
-0.510191

>  <SCORE.INTRA.SOLV.lig_0>
-32.2816

>  <SCORE.INTRA.VDW>
0.245925

>  <SCORE.INTRA.VDW.0>
-0.749945

>  <SCORE.INTRA.norm>
0.0463765

>  <SCORE.RESTR>
0.000393637

>  <SCORE.RESTR.CAVITY>
0.000393637

>  <SCORE.RESTR.norm>
3.93637e-05

>  <SCORE.SYSTEM>
0

>  <SCORE.SYSTEM.CONST>
0

>  <SCORE.SYSTEM.DIHEDRAL>
0

>  <SCORE.SYSTEM.SOLV>
0

>  <SCORE.SYSTEM.norm>
0

>  <SCORE.heavy>
10

>  <SCORE.norm>
-0.632004

>  <RMSD>
5.175

$$$$
ligand
 OpenBabel11021811473D
libRbt.so/2013.1/901 2013/11/27
 10  9  0  0  0  0  0  0  0  0999 V2000
   29.0270   14.8854   19.0732 N   0  0  0  0  0  0  0  0  0  0  0  0
   27.9938   14.6310   20.1212 C   0  0  2  0  0  0  0  0  0  0  0  0
   26.8701   15.6650   20.0578 C   0  0  0  0  0  0  0  0  0  0  0  0
   27.0832   16.8126   19.6704 O   0  0  0  0  0  0  0  0  0  0  0  0
   28.6313   14.5694   21.5144 C   0  0  0  0  0  0  0  0  0  0  0  0
   29.2875   15.8859   21.9289 C   0  0  0  0  0  0  0  0  0  0  0  0
   30.6243   16.1149   21.2369 C   0  0  0  0  0  0  0  0  0  0  0  0
   31.3012   17.3818   21.7508 C   0  0  0  0  0  0  0  0  0  0  0  0
   32.6487   17.6279   21.1304 N   0  0  0  0  0  0  0  0  0  0  0  0
   25.7052   15.3932   20.3630 O   0  0  0  0  0  0  0  0  0  0  0  0
  2  1  1  6  0  0  0
  2  3  1  0  0  0  0
  2  5  1  0  0  0  0
  3  4  1  0  0  0  0
  3 10  1  0  0  0  0
  5  6  1  0  0  0  0
  6  7  1  0  0  0  0
  7  8  1  0  0  0  0
  8  9  1  0  0  0  0
M  END
>  <CHROM.1>
-30.31665536,62.83141234,-76.14933701,-175.67303576,178.06628660,28.88198047
15.91472240,20.67916021,-2.91096609,-0.33476786,-0.26991445

>  <Name>
ligand

>  <RI>
0

>  <Rbt.Current_Directory>
/home/itssahil/PROJECTS/Mol_Feturizer/New_Systems/rnas/3DIL

>  <Rbt.Executable>
rbdock ($Id: //depot/dev/client3/rdock/2013.1/src/exe/rbdock.cxx#4 $)

>  <Rbt.Library>
libRbt.so (2013.1, Build901 2013/11/27)

>  <Rbt.Parameter_File>
/export/apps/rDock/src/rDock_2013.1_src/data/scripts/dock_solv.prm

>  <Rbt.Receptor>
prm/pocket_docking_3.prm

>  <SCORE>
-8.66642

>  <SCORE.INTER>
-9.06766

>  <SCORE.INTER.CONST>
1

>  <SCORE.INTER.POLAR>
0

>  <SCORE.INTER.ROT>
5

>  <SCORE.INTER.SOLV>
13.0815

>  <SCORE.INTER.VDW>
-17.3389

>  <SCORE.INTER.norm>
-0.906766

>  <SCORE.INTRA>
0.401235

>  <SCORE.INTRA.DIHEDRAL>
-0.226512

>  <SCORE.INTRA.DIHEDRAL.0>
2.93688

>  <SCORE.INTRA.POLAR>
0

>  <SCORE.INTRA.POLAR.0>
0

>  <SCORE.INTRA.REPUL>
0

>  <SCORE.INTRA.REPUL.0>
0

>  <SCORE.INTRA.SOLV>
0.755852

>  <SCORE.INTRA.SOLV.lig_0>
-32.2816

>  <SCORE.INTRA.VDW>
0.136565

>  <SCORE.INTRA.VDW.0>
-0.749945

>  <SCORE.INTRA.norm>
0.0401235

>  <SCORE.RESTR>
0

>  <SCORE.RESTR.CAVITY>
0

>  <SCORE.RESTR.norm>
0

>  <SCORE.SYSTEM>
0

>  <SCORE.SYSTEM.CONST>
0

>  <SCORE.SYSTEM.DIHEDRAL>
0

>  <SCORE.SYSTEM.SOLV>
0

>  <SCORE.SYSTEM.norm>
0

>  <SCORE.heavy>
10

>  <SCORE.norm>
-0.866642

>  <RMSD>
5.186

$$$$
ligand
 OpenBabel11021811473D
libRbt.so/2013.1/901 2013/11/27
 10  9  0  0  0  0  0  0  0  0999 V2000
   28.7910   14.6009   18.9294 N   0  0  0  0  0  0  0  0  0  0  0  0
   28.2558   14.7254   20.3182 C   0  0  2  0  0  0  0  0  0  0  0  0
   26.8881   15.4074   20.3286 C   0  0  0  0  0  0  0  0  0  0  0  0
   25.9818   15.0035   21.0553 O   0  0  0  0  0  0  0  0  0  0  0  0
   29.2573   15.4467   21.2279 C   0  0  0  0  0  0  0  0  0  0  0  0
   29.6859   16.8083   20.6820 C   0  0  0  0  0  0  0  0  0  0  0  0
   30.6722   17.5201   21.5979 C   0  0  0  0  0  0  0  0  0  0  0  0
   32.0203   16.8062   21.6175 C   0  0  0  0  0  0  0  0  0  0  0  0
   32.7229   16.8285   20.2883 N   0  0  0  0  0  0  0  0  0  0  0  0
   26.6400   16.3994   19.6370 O   0  0  0  0  0  0  0  0  0  0  0  0
  2  1  1  6  0  0  0
  2  3  1  0  0  0  0
  2  5  1  0  0  0  0
  3  4  1  0  0  0  0
  3 10  1  0  0  0  0
  5  6  1  0  0  0  0
  6  7  1  0  0  0  0
  7  8  1  0  0  0  0
  8  9  1  0  0  0  0
M  END
>  <CHROM.1>
138.58179243,54.64388975,179.57671193,68.74240043,64.80716615,29.05076514
15.96421019,20.56748712,-2.82449602,0.12556371,0.81410361

>  <Name>
ligand

>  <RI>
0

>  <Rbt.Current_Directory>
/home/itssahil/PROJECTS/Mol_Feturizer/New_Systems/rnas/3DIL

>  <Rbt.Executable>
rbdock ($Id: //depot/dev/client3/rdock/2013.1/src/exe/rbdock.cxx#4 $)

>  <Rbt.Library>
libRbt.so (2013.1, Build901 2013/11/27)

>  <Rbt.Parameter_File>
/export/apps/rDock/src/rDock_2013.1_src/data/scripts/dock_solv.prm

>  <Rbt.Receptor>
prm/pocket_docking_8.prm

>  <SCORE>
-8.28961

>  <SCORE.INTER>
-8.76575

>  <SCORE.INTER.CONST>
1

>  <SCORE.INTER.POLAR>
0

>  <SCORE.INTER.ROT>
5

>  <SCORE.INTER.SOLV>
13.7785

>  <SCORE.INTER.VDW>
-17.37

>  <SCORE.INTER.norm>
-0.876575

>  <SCORE.INTRA>
0.476142

>  <SCORE.INTRA.DIHEDRAL>
-0.942724

>  <SCORE.INTRA.DIHEDRAL.0>
2.93688

>  <SCORE.INTRA.POLAR>
0

>  <SCORE.INTRA.POLAR.0>
0

>  <SCORE.INTRA.REPUL>
0

>  <SCORE.INTRA.REPUL.0>
0

>  <SCORE.INTRA.SOLV>
0.829266

>  <SCORE.INTRA.SOLV.lig_0>
-32.2816

>  <SCORE.INTRA.VDW>
0.532871

>  <SCORE.INTRA.VDW.0>
-0.749945

>  <SCORE.INTRA.norm>
0.0476142

>  <SCORE.RESTR>
0

>  <SCORE.RESTR.CAVITY>
0

>  <SCORE.RESTR.norm>
0

>  <SCORE.SYSTEM>
0

>  <SCORE.SYSTEM.CONST>
0

>  <SCORE.SYSTEM.DIHEDRAL>
0

>  <SCORE.SYSTEM.SOLV>
0

>  <SCORE.SYSTEM.norm>
0

>  <SCORE.heavy>
10

>  <SCORE.norm>
-0.828961

>  <RMSD>
5.186

$$$$
ligand
 OpenBabel11021811473D
libRbt.so/2013.1/901 2013/11/27
 10  9  0  0  0  0  0  0  0  0999 V2000
   29.3227   15.7204   19.6463 N   0  0  0  0  0  0  0  0  0  0  0  0
   27.8353   15.7922   19.5318 C   0  0  2  0  0  0  0  0  0  0  0  0
   27.1523   15.1415   20.7343 C   0  0  0  0  0  0  0  0  0  0  0  0
   25.9288   15.0280   20.7859 O   0  0  0  0  0  0  0  0  0  0  0  0
   27.3583   15.1821   18.2085 C   0  0  0  0  0  0  0  0  0  0  0  0
   27.8331   13.7430   18.0096 C   0  0  0  0  0  0  0  0  0  0  0  0
   26.8098   12.8870   17.2760 C   0  0  0  0  0  0  0  0  0  0  0  0
   27.3336   11.4717   17.0524 C   0  0  0  0  0  0  0  0  0  0  0  0
   26.2418   10.4659   16.8130 N   0  0  0  0  0  0  0  0  0  0  0  0
   27.7897   14.6809   21.6859 O   0  0  0  0  0  0  0  0  0  0  0  0
  2  1  1  1  0  0  0
  2  3  1  0  0  0  0
  2  5  1  0  0  0  0
  3  4  1  0  0  0  0
  3 10  1  0  0  0  0
  5  6  1  0  0  0  0
  6  7  1  0  0  0  0
  7  8  1  0  0  0  0
  8  9  1  0  0  0  0
M  END
>  <CHROM.1>
-175.54563940,55.75395915,145.29386205,178.07079493,158.69742345,27.34598011
14.00624424,19.00868231,-1.34542814,-0.79195875,-2.22923071

>  <Name>
ligand

>  <RI>
0

>  <Rbt.Current_Directory>
/home/itssahil/PROJECTS/Mol_Feturizer/New_Systems/rnas/3DIL

>  <Rbt.Executable>
rbdock ($Id: //depot/dev/client3/rdock/2013.1/src/exe/rbdock.cxx#4 $)

>  <Rbt.Library>
libRbt.so (2013.1, Build901 2013/11/27)

>  <Rbt.Parameter_File>
/export/apps/rDock/src/rDock_2013.1_src/data/scripts/dock_solv.prm

>  <Rbt.Receptor>
prm/blind_docking_40.prm

>  <SCORE>
-6.99666

>  <SCORE.INTER>
-8.84855

>  <SCORE.INTER.CONST>
1

>  <SCORE.INTER.POLAR>
0

>  <SCORE.INTER.ROT>
5

>  <SCORE.INTER.SOLV>
13.5242

>  <SCORE.INTER.VDW>
-17.3404

>  <SCORE.INTER.norm>
-0.884855

>  <SCORE.INTRA>
1.85189

>  <SCORE.INTRA.DIHEDRAL>
4.02921

>  <SCORE.INTRA.DIHEDRAL.0>
2.93688

>  <SCORE.INTRA.POLAR>
0

>  <SCORE.INTRA.POLAR.0>
0

>  <SCORE.INTRA.REPUL>
0

>  <SCORE.INTRA.REPUL.0>
0

>  <SCORE.INTRA.SOLV>
-0.564156

>  <SCORE.INTRA.SOLV.lig_0>
-32.2816

>  <SCORE.INTRA.VDW>
0.119359

>  <SCORE.INTRA.VDW.0>
-0.749945

>  <SCORE.INTRA.norm>
0.185189

>  <SCORE.RESTR>
0

>  <SCORE.RESTR.CAVITY>
0

>  <SCORE.RESTR.norm>
0

>  <SCORE.SYSTEM>
0

>  <SCORE.SYSTEM.CONST>
0

>  <SCORE.SYSTEM.DIHEDRAL>
0

>  <SCORE.SYSTEM.SOLV>
0

>  <SCORE.SYSTEM.norm>
0

>  <SCORE.heavy>
10

>  <SCORE.norm>
-0.699666

>  <RMSD>
5.187

$$$$
ligand
 OpenBabel11021811473D
libRbt.so/2013.1/901 2013/11/27
 10  9  0  0  0  0  0  0  0  0999 V2000
   25.6284   15.0703   20.4493 N   0  0  0  0  0  0  0  0  0  0  0  0
   27.0181   15.6074   20.5536 C   0  0  2  0  0  0  0  0  0  0  0  0
   27.7149   15.6167   19.1933 C   0  0  0  0  0  0  0  0  0  0  0  0
   28.5177   16.4996   18.8962 O   0  0  0  0  0  0  0  0  0  0  0  0
   27.8269   14.8329   21.6010 C   0  0  0  0  0  0  0  0  0  0  0  0
   29.0600   15.5948   22.0855 C   0  0  0  0  0  0  0  0  0  0  0  0
   30.2037   15.5531   21.0812 C   0  0  0  0  0  0  0  0  0  0  0  0
   31.3950   16.3722   21.5680 C   0  0  0  0  0  0  0  0  0  0  0  0
   32.5089   16.4552   20.5613 N   0  0  0  0  0  0  0  0  0  0  0  0
   27.5276   14.7349   18.3499 O   0  0  0  0  0  0  0  0  0  0  0  0
  2  1  1  6  0  0  0
  2  3  1  0  0  0  0
  2  5  1  0  0  0  0
  3  4  1  0  0  0  0
  3 10  1  0  0  0  0
  5  6  1  0  0  0  0
  6  7  1  0  0  0  0
  7  8  1  0  0  0  0
  8  9  1  0  0  0  0
M  END
>  <CHROM.1>
145.93850965,-160.93351003,-77.07507253,177.53185724,-175.30838065,28.74690499
15.63364426,20.40014903,2.89789550,-0.24465757,-1.45482722

>  <Name>
ligand

>  <RI>
0

>  <Rbt.Current_Directory>
/home/itssahil/PROJECTS/Mol_Feturizer/New_Systems/rnas/3DIL

>  <Rbt.Executable>
rbdock ($Id: //depot/dev/client3/rdock/2013.1/src/exe/rbdock.cxx#4 $)

>  <Rbt.Library>
libRbt.so (2013.1, Build901 2013/11/27)

>  <Rbt.Parameter_File>
/export/apps/rDock/src/rDock_2013.1_src/data/scripts/dock_solv.prm

>  <Rbt.Receptor>
prm/pocket_docking_2.prm

>  <SCORE>
-7.41388

>  <SCORE.INTER>
-7.21857

>  <SCORE.INTER.CONST>
1

>  <SCORE.INTER.POLAR>
0

>  <SCORE.INTER.ROT>
5

>  <SCORE.INTER.SOLV>
19.0507

>  <SCORE.INTER.VDW>
-18.096

>  <SCORE.INTER.norm>
-0.721857

>  <SCORE.INTRA>
-0.199068

>  <SCORE.INTRA.DIHEDRAL>
1.04936

>  <SCORE.INTRA.DIHEDRAL.0>
2.93688

>  <SCORE.INTRA.POLAR>
0

>  <SCORE.INTRA.POLAR.0>
0

>  <SCORE.INTRA.REPUL>
0

>  <SCORE.INTRA.REPUL.0>
0

>  <SCORE.INTRA.SOLV>
-1.41792

>  <SCORE.INTRA.SOLV.lig_0>
-32.2816

>  <SCORE.INTRA.VDW>
-0.0147893

>  <SCORE.INTRA.VDW.0>
-0.749945

>  <SCORE.INTRA.norm>
-0.0199068

>  <SCORE.RESTR>
0.00375329

>  <SCORE.RESTR.CAVITY>
0.00375329

>  <SCORE.RESTR.norm>
0.000375329

>  <SCORE.SYSTEM>
0

>  <SCORE.SYSTEM.CONST>
0

>  <SCORE.SYSTEM.DIHEDRAL>
0

>  <SCORE.SYSTEM.SOLV>
0

>  <SCORE.SYSTEM.norm>
0

>  <SCORE.heavy>
10

>  <SCORE.norm>
-0.741388

>  <RMSD>
5.196

$$$$
ligand
 OpenBabel11021811473D
libRbt.so/2013.1/901 2013/11/27
 10  9  0  0  0  0  0  0  0  0999 V2000
   29.0453   14.9597   19.0943 N   0  0  0  0  0  0  0  0  0  0  0  0
   28.0008   14.6243   20.1077 C   0  0  2  0  0  0  0  0  0  0  0  0
   26.8274   15.6014   20.0421 C   0  0  0  0  0  0  0  0  0  0  0  0
   25.7356   15.3177   20.5320 O   0  0  0  0  0  0  0  0  0  0  0  0
   28.6056   14.5564   21.5150 C   0  0  0  0  0  0  0  0  0  0  0  0
   29.2799   15.8610   21.9381 C   0  0  0  0  0  0  0  0  0  0  0  0
   30.6276   16.0679   21.2605 C   0  0  0  0  0  0  0  0  0  0  0  0
   31.3013   17.3455   21.7515 C   0  0  0  0  0  0  0  0  0  0  0  0
   32.6485   17.5834   21.1274 N   0  0  0  0  0  0  0  0  0  0  0  0
   26.9264   16.7179   19.5247 O   0  0  0  0  0  0  0  0  0  0  0  0
  2  1  1  6  0  0  0
  2  3  1  0  0  0  0
  2  5  1  0  0  0  0
  3  4  1  0  0  0  0
  3 10  1  0  0  0  0
  5  6  1  0  0  0  0
  6  7  1  0  0  0  0
  7  8  1  0  0  0  0
  8  9  1  0  0  0  0
M  END
>  <CHROM.1>
161.20348918,58.31762970,-75.35636395,-177.43292428,179.05005027,28.86349631
15.88030685,20.68438528,3.03998355,0.38317333,2.51768448

>  <Name>
ligand

>  <RI>
0

>  <Rbt.Current_Directory>
/home/itssahil/PROJECTS/Mol_Feturizer/New_Systems/rnas/3DIL

>  <Rbt.Executable>
rbdock ($Id: //depot/dev/client3/rdock/2013.1/src/exe/rbdock.cxx#4 $)

>  <Rbt.Library>
libRbt.so (2013.1, Build901 2013/11/27)

>  <Rbt.Parameter_File>
/export/apps/rDock/src/rDock_2013.1_src/data/scripts/dock_solv.prm

>  <Rbt.Receptor>
prm/blind_docking_80.prm

>  <SCORE>
-8.75272

>  <SCORE.INTER>
-9.22671

>  <SCORE.INTER.CONST>
1

>  <SCORE.INTER.POLAR>
0

>  <SCORE.INTER.ROT>
5

>  <SCORE.INTER.SOLV>
12.8967

>  <SCORE.INTER.VDW>
-17.3834

>  <SCORE.INTER.norm>
-0.922671

>  <SCORE.INTRA>
0.47399

>  <SCORE.INTRA.DIHEDRAL>
-0.492291

>  <SCORE.INTRA.DIHEDRAL.0>
2.93688

>  <SCORE.INTRA.POLAR>
0

>  <SCORE.INTRA.POLAR.0>
0

>  <SCORE.INTRA.REPUL>
0

>  <SCORE.INTRA.REPUL.0>
0

>  <SCORE.INTRA.SOLV>
0.883868

>  <SCORE.INTRA.SOLV.lig_0>
-32.2816

>  <SCORE.INTRA.VDW>
0.278201

>  <SCORE.INTRA.VDW.0>
-0.749945

>  <SCORE.INTRA.norm>
0.047399

>  <SCORE.RESTR>
0

>  <SCORE.RESTR.CAVITY>
0

>  <SCORE.RESTR.norm>
0

>  <SCORE.SYSTEM>
0

>  <SCORE.SYSTEM.CONST>
0

>  <SCORE.SYSTEM.DIHEDRAL>
0

>  <SCORE.SYSTEM.SOLV>
0

>  <SCORE.SYSTEM.norm>
0

>  <SCORE.heavy>
10

>  <SCORE.norm>
-0.875272

>  <RMSD>
5.207

$$$$
ligand
 OpenBabel11021811473D
libRbt.so/2013.1/901 2013/11/27
 10  9  0  0  0  0  0  0  0  0999 V2000
   29.0743   14.9802   19.1397 N   0  0  0  0  0  0  0  0  0  0  0  0
   28.0287   14.6415   20.1510 C   0  0  2  0  0  0  0  0  0  0  0  0
   26.8426   15.6019   20.0685 C   0  0  0  0  0  0  0  0  0  0  0  0
   26.9434   16.6896   19.5035 O   0  0  0  0  0  0  0  0  0  0  0  0
   28.6266   14.5968   21.5621 C   0  0  0  0  0  0  0  0  0  0  0  0
   29.2964   15.9092   21.9681 C   0  0  0  0  0  0  0  0  0  0  0  0
   30.6742   16.0791   21.3428 C   0  0  0  0  0  0  0  0  0  0  0  0
   31.3128   17.3983   21.7659 C   0  0  0  0  0  0  0  0  0  0  0  0
   32.6677   17.6246   21.1542 N   0  0  0  0  0  0  0  0  0  0  0  0
   25.7343   15.3235   20.5356 O   0  0  0  0  0  0  0  0  0  0  0  0
  2  1  1  6  0  0  0
  2  3  1  0  0  0  0
  2  5  1  0  0  0  0
  3  4  1  0  0  0  0
  3 10  1  0  0  0  0
  5  6  1  0  0  0  0
  6  7  1  0  0  0  0
  7  8  1  0  0  0  0
  8  9  1  0  0  0  0
M  END
>  <CHROM.1>
-18.20671298,57.59295943,-77.91454552,179.89831694,-178.99497058,28.88340904
15.90068504,20.71309376,3.06502301,0.39472124,2.44847033

>  <Name>
ligand

>  <RI>
0

>  <Rbt.Current_Directory>
/home/itssahil/PROJECTS/Mol_Feturizer/New_Systems/rnas/3DIL

>  <Rbt.Executable>
rbdock ($Id: //depot/dev/client3/rdock/2013.1/src/exe/rbdock.cxx#4 $)

>  <Rbt.Library>
libRbt.so (2013.1, Build901 2013/11/27)

>  <Rbt.Parameter_File>
/export/apps/rDock/src/rDock_2013.1_src/data/scripts/dock_solv.prm

>  <Rbt.Receptor>
prm/pocket_docking_7.prm

>  <SCORE>
-8.67556

>  <SCORE.INTER>
-9.27047

>  <SCORE.INTER.CONST>
1

>  <SCORE.INTER.POLAR>
0

>  <SCORE.INTER.ROT>
5

>  <SCORE.INTER.SOLV>
12.9315

>  <SCORE.INTER.VDW>
-17.4241

>  <SCORE.INTER.norm>
-0.927047

>  <SCORE.INTRA>
0.594902

>  <SCORE.INTRA.DIHEDRAL>
-0.0986061

>  <SCORE.INTRA.DIHEDRAL.0>
2.93688

>  <SCORE.INTRA.POLAR>
0

>  <SCORE.INTRA.POLAR.0>
0

>  <SCORE.INTRA.REPUL>
0

>  <SCORE.INTRA.REPUL.0>
0

>  <SCORE.INTRA.SOLV>
0.880355

>  <SCORE.INTRA.SOLV.lig_0>
-32.2816

>  <SCORE.INTRA.VDW>
0.204028

>  <SCORE.INTRA.VDW.0>
-0.749945

>  <SCORE.INTRA.norm>
0.0594902

>  <SCORE.RESTR>
0

>  <SCORE.RESTR.CAVITY>
0

>  <SCORE.RESTR.norm>
0

>  <SCORE.SYSTEM>
0

>  <SCORE.SYSTEM.CONST>
0

>  <SCORE.SYSTEM.DIHEDRAL>
0

>  <SCORE.SYSTEM.SOLV>
0

>  <SCORE.SYSTEM.norm>
0

>  <SCORE.heavy>
10

>  <SCORE.norm>
-0.867556

>  <RMSD>
5.208

$$$$
ligand
 OpenBabel11021811473D
libRbt.so/2013.1/901 2013/11/27
 10  9  0  0  0  0  0  0  0  0999 V2000
   29.0415   14.9720   19.1099 N   0  0  0  0  0  0  0  0  0  0  0  0
   28.0083   14.6066   20.1246 C   0  0  2  0  0  0  0  0  0  0  0  0
   26.8061   15.5480   20.0590 C   0  0  0  0  0  0  0  0  0  0  0  0
   25.7269   15.2368   20.5598 O   0  0  0  0  0  0  0  0  0  0  0  0
   28.6161   14.5584   21.5314 C   0  0  0  0  0  0  0  0  0  0  0  0
   29.2870   15.8705   21.9367 C   0  0  0  0  0  0  0  0  0  0  0  0
   30.6413   16.0643   21.2683 C   0  0  0  0  0  0  0  0  0  0  0  0
   31.2970   17.3661   21.7184 C   0  0  0  0  0  0  0  0  0  0  0  0
   32.6555   17.5864   21.1128 N   0  0  0  0  0  0  0  0  0  0  0  0
   26.8682   16.6619   19.5305 O   0  0  0  0  0  0  0  0  0  0  0  0
  2  1  1  6  0  0  0
  2  3  1  0  0  0  0
  2  5  1  0  0  0  0
  3  4  1  0  0  0  0
  3 10  1  0  0  0  0
  5  6  1  0  0  0  0
  6  7  1  0  0  0  0
  7  8  1  0  0  0  0
  8  9  1  0  0  0  0
M  END
>  <CHROM.1>
161.80960381,56.64818800,-76.13272763,-178.69357001,178.48782329,28.85779993
15.86295891,20.69030545,3.04947166,0.38684272,2.46339015

>  <Name>
ligand

>  <RI>
0

>  <Rbt.Current_Directory>
/home/itssahil/PROJECTS/Mol_Feturizer/New_Systems/rnas/3DIL

>  <Rbt.Executable>
rbdock ($Id: //depot/dev/client3/rdock/2013.1/src/exe/rbdock.cxx#4 $)

>  <Rbt.Library>
libRbt.so (2013.1, Build901 2013/11/27)

>  <Rbt.Parameter_File>
/export/apps/rDock/src/rDock_2013.1_src/data/scripts/dock_solv.prm

>  <Rbt.Receptor>
prm/pocket_docking_4.prm

>  <SCORE>
-8.75442

>  <SCORE.INTER>
-9.30883

>  <SCORE.INTER.CONST>
1

>  <SCORE.INTER.POLAR>
0

>  <SCORE.INTER.ROT>
5

>  <SCORE.INTER.SOLV>
12.8891

>  <SCORE.INTER.VDW>
-17.4356

>  <SCORE.INTER.norm>
-0.930883

>  <SCORE.INTRA>
0.554414

>  <SCORE.INTRA.DIHEDRAL>
-0.378397

>  <SCORE.INTRA.DIHEDRAL.0>
2.93688

>  <SCORE.INTRA.POLAR>
0

>  <SCORE.INTRA.POLAR.0>
0

>  <SCORE.INTRA.REPUL>
0

>  <SCORE.INTRA.REPUL.0>
0

>  <SCORE.INTRA.SOLV>
0.915849

>  <SCORE.INTRA.SOLV.lig_0>
-32.2816

>  <SCORE.INTRA.VDW>
0.285688

>  <SCORE.INTRA.VDW.0>
-0.749945

>  <SCORE.INTRA.norm>
0.0554414

>  <SCORE.RESTR>
0

>  <SCORE.RESTR.CAVITY>
0

>  <SCORE.RESTR.norm>
0

>  <SCORE.SYSTEM>
0

>  <SCORE.SYSTEM.CONST>
0

>  <SCORE.SYSTEM.DIHEDRAL>
0

>  <SCORE.SYSTEM.SOLV>
0

>  <SCORE.SYSTEM.norm>
0

>  <SCORE.heavy>
10

>  <SCORE.norm>
-0.875442

>  <RMSD>
5.224

$$$$
ligand
 OpenBabel11021811473D
libRbt.so/2013.1/901 2013/11/27
 10  9  0  0  0  0  0  0  0  0999 V2000
   29.0332   14.9892   19.1238 N   0  0  0  0  0  0  0  0  0  0  0  0
   28.0012   14.6167   20.1371 C   0  0  2  0  0  0  0  0  0  0  0  0
   26.7998   15.5598   20.0808 C   0  0  0  0  0  0  0  0  0  0  0  0
   26.8782   16.6570   19.5309 O   0  0  0  0  0  0  0  0  0  0  0  0
   28.6111   14.5568   21.5426 C   0  0  0  0  0  0  0  0  0  0  0  0
   29.2773   15.8674   21.9602 C   0  0  0  0  0  0  0  0  0  0  0  0
   30.6320   16.0711   21.2956 C   0  0  0  0  0  0  0  0  0  0  0  0
   31.2806   17.3736   21.7538 C   0  0  0  0  0  0  0  0  0  0  0  0
   32.6313   17.6126   21.1378 N   0  0  0  0  0  0  0  0  0  0  0  0
   25.7008   15.2575   20.5548 O   0  0  0  0  0  0  0  0  0  0  0  0
  2  1  1  6  0  0  0
  2  3  1  0  0  0  0
  2  5  1  0  0  0  0
  3  4  1  0  0  0  0
  3 10  1  0  0  0  0
  5  6  1  0  0  0  0
  6  7  1  0  0  0  0
  7  8  1  0  0  0  0
  8  9  1  0  0  0  0
M  END
>  <CHROM.1>
-18.00292507,56.95800547,-76.32302197,-178.91618393,179.26209029,28.84753669
15.87196302,20.70632123,3.05783058,0.39243318,2.44723496

>  <Name>
ligand

>  <RI>
0

>  <Rbt.Current_Directory>
/home/itssahil/PROJECTS/Mol_Feturizer/New_Systems/rnas/3DIL

>  <Rbt.Executable>
rbdock ($Id: //depot/dev/client3/rdock/2013.1/src/exe/rbdock.cxx#4 $)

>  <Rbt.Library>
libRbt.so (2013.1, Build901 2013/11/27)

>  <Rbt.Parameter_File>
/export/apps/rDock/src/rDock_2013.1_src/data/scripts/dock_solv.prm

>  <Rbt.Receptor>
prm/pocket_docking_5.prm

>  <SCORE>
-8.72407

>  <SCORE.INTER>
-9.3234

>  <SCORE.INTER.CONST>
1

>  <SCORE.INTER.POLAR>
0

>  <SCORE.INTER.ROT>
5

>  <SCORE.INTER.SOLV>
12.8295

>  <SCORE.INTER.VDW>
-17.4254

>  <SCORE.INTER.norm>
-0.93234

>  <SCORE.INTRA>
0.599327

>  <SCORE.INTRA.DIHEDRAL>
-0.279815

>  <SCORE.INTRA.DIHEDRAL.0>
2.93688

>  <SCORE.INTRA.POLAR>
0

>  <SCORE.INTRA.POLAR.0>
0

>  <SCORE.INTRA.REPUL>
0

>  <SCORE.INTRA.REPUL.0>
0

>  <SCORE.INTRA.SOLV>
0.916778

>  <SCORE.INTRA.SOLV.lig_0>
-32.2816

>  <SCORE.INTRA.VDW>
0.280845

>  <SCORE.INTRA.VDW.0>
-0.749945

>  <SCORE.INTRA.norm>
0.0599327

>  <SCORE.RESTR>
0

>  <SCORE.RESTR.CAVITY>
0

>  <SCORE.RESTR.norm>
0

>  <SCORE.SYSTEM>
0

>  <SCORE.SYSTEM.CONST>
0

>  <SCORE.SYSTEM.DIHEDRAL>
0

>  <SCORE.SYSTEM.SOLV>
0

>  <SCORE.SYSTEM.norm>
0

>  <SCORE.heavy>
10

>  <SCORE.norm>
-0.872407

>  <RMSD>
5.226

$$$$
ligand
 OpenBabel11021811473D
libRbt.so/2013.1/901 2013/11/27
 10  9  0  0  0  0  0  0  0  0999 V2000
   29.0000   14.9458   19.1354 N   0  0  0  0  0  0  0  0  0  0  0  0
   27.9603   14.6040   20.1517 C   0  0  2  0  0  0  0  0  0  0  0  0
   26.7691   15.5583   20.0723 C   0  0  0  0  0  0  0  0  0  0  0  0
   25.6826   15.2614   20.5661 O   0  0  0  0  0  0  0  0  0  0  0  0
   28.5642   14.5652   21.5605 C   0  0  0  0  0  0  0  0  0  0  0  0
   29.2527   15.8727   21.9507 C   0  0  0  0  0  0  0  0  0  0  0  0
   30.6197   16.0296   21.2989 C   0  0  0  0  0  0  0  0  0  0  0  0
   31.2827   17.3384   21.7165 C   0  0  0  0  0  0  0  0  0  0  0  0
   32.6294   17.5503   21.0819 N   0  0  0  0  0  0  0  0  0  0  0  0
   26.8477   16.6690   19.5392 O   0  0  0  0  0  0  0  0  0  0  0  0
  2  1  1  6  0  0  0
  2  3  1  0  0  0  0
  2  5  1  0  0  0  0
  3  4  1  0  0  0  0
  3 10  1  0  0  0  0
  5  6  1  0  0  0  0
  6  7  1  0  0  0  0
  7  8  1  0  0  0  0
  8  9  1  0  0  0  0
M  END
>  <CHROM.1>
161.30943036,56.48263122,-76.95482933,-179.59722278,-179.14084181,28.82404385
15.85571244,20.70221993,3.05840579,0.37927903,2.44929451

>  <Name>
ligand

>  <RI>
0

>  <Rbt.Current_Directory>
/home/itssahil/PROJECTS/Mol_Feturizer/New_Systems/rnas/3DIL

>  <Rbt.Executable>
rbdock ($Id: //depot/dev/client3/rdock/2013.1/src/exe/rbdock.cxx#4 $)

>  <Rbt.Library>
libRbt.so (2013.1, Build901 2013/11/27)

>  <Rbt.Parameter_File>
/export/apps/rDock/src/rDock_2013.1_src/data/scripts/dock_solv.prm

>  <Rbt.Receptor>
prm/pocket_docking_6.prm

>  <SCORE>
-8.75379

>  <SCORE.INTER>
-9.31649

>  <SCORE.INTER.CONST>
1

>  <SCORE.INTER.POLAR>
0

>  <SCORE.INTER.ROT>
5

>  <SCORE.INTER.SOLV>
12.779

>  <SCORE.INTER.VDW>
-17.404

>  <SCORE.INTER.norm>
-0.931649

>  <SCORE.INTRA>
0.562701

>  <SCORE.INTRA.DIHEDRAL>
-0.286253

>  <SCORE.INTRA.DIHEDRAL.0>
2.93688

>  <SCORE.INTRA.POLAR>
0

>  <SCORE.INTRA.POLAR.0>
0

>  <SCORE.INTRA.REPUL>
0

>  <SCORE.INTRA.REPUL.0>
0

>  <SCORE.INTRA.SOLV>
0.909846

>  <SCORE.INTRA.SOLV.lig_0>
-32.2816

>  <SCORE.INTRA.VDW>
0.250905

>  <SCORE.INTRA.VDW.0>
-0.749945

>  <SCORE.INTRA.norm>
0.0562701

>  <SCORE.RESTR>
0

>  <SCORE.RESTR.CAVITY>
0

>  <SCORE.RESTR.norm>
0

>  <SCORE.SYSTEM>
0

>  <SCORE.SYSTEM.CONST>
0

>  <SCORE.SYSTEM.DIHEDRAL>
0

>  <SCORE.SYSTEM.SOLV>
0

>  <SCORE.SYSTEM.norm>
0

>  <SCORE.heavy>
10

>  <SCORE.norm>
-0.875379

>  <RMSD>
5.233

$$$$
ligand
 OpenBabel11021811473D
libRbt.so/2013.1/901 2013/11/27
 10  9  0  0  0  0  0  0  0  0999 V2000
   27.4126   14.9783   18.3567 N   0  0  0  0  0  0  0  0  0  0  0  0
   27.9287   15.4408   19.6797 C   0  0  2  0  0  0  0  0  0  0  0  0
   26.8960   15.2268   20.7858 C   0  0  0  0  0  0  0  0  0  0  0  0
   25.7052   15.0697   20.5221 O   0  0  0  0  0  0  0  0  0  0  0  0
   28.3892   16.9015   19.6070 C   0  0  0  0  0  0  0  0  0  0  0  0
   29.8423   17.0912   20.0408 C   0  0  0  0  0  0  0  0  0  0  0  0
   30.0804   16.6690   21.4842 C   0  0  0  0  0  0  0  0  0  0  0  0
   31.4984   17.0101   21.9316 C   0  0  0  0  0  0  0  0  0  0  0  0
   32.5583   16.4370   21.0321 N   0  0  0  0  0  0  0  0  0  0  0  0
   27.2082   15.1754   21.9791 O   0  0  0  0  0  0  0  0  0  0  0  0
  2  1  1  6  0  0  0
  2  3  1  0  0  0  0
  2  5  1  0  0  0  0
  3  4  1  0  0  0  0
  3 10  1  0  0  0  0
  5  6  1  0  0  0  0
  6  7  1  0  0  0  0
  7  8  1  0  0  0  0
  8  9  1  0  0  0  0
M  END
>  <CHROM.1>
-19.27771801,-123.85624693,-61.04121517,-173.86252698,-54.80504602,28.71979919
15.99055759,20.56463208,-2.95952936,0.33402812,1.62860199

>  <Name>
ligand

>  <RI>
0

>  <Rbt.Current_Directory>
/home/itssahil/PROJECTS/Mol_Feturizer/New_Systems/rnas/3DIL

>  <Rbt.Executable>
rbdock ($Id: //depot/dev/client3/rdock/2013.1/src/exe/rbdock.cxx#4 $)

>  <Rbt.Library>
libRbt.so (2013.1, Build901 2013/11/27)

>  <Rbt.Parameter_File>
/export/apps/rDock/src/rDock_2013.1_src/data/scripts/dock_solv.prm

>  <Rbt.Receptor>
prm/pocket_docking_2.prm

>  <SCORE>
-6.78253

>  <SCORE.INTER>
-9.11946

>  <SCORE.INTER.CONST>
1

>  <SCORE.INTER.POLAR>
0

>  <SCORE.INTER.ROT>
5

>  <SCORE.INTER.SOLV>
14.1019

>  <SCORE.INTER.VDW>
-17.7136

>  <SCORE.INTER.norm>
-0.911946

>  <SCORE.INTRA>
2.3261

>  <SCORE.INTRA.DIHEDRAL>
4.55753

>  <SCORE.INTRA.DIHEDRAL.0>
2.93688

>  <SCORE.INTRA.POLAR>
0

>  <SCORE.INTRA.POLAR.0>
0

>  <SCORE.INTRA.REPUL>
0

>  <SCORE.INTRA.REPUL.0>
0

>  <SCORE.INTRA.SOLV>
-0.0930726

>  <SCORE.INTRA.SOLV.lig_0>
-32.2816

>  <SCORE.INTRA.VDW>
0.0938744

>  <SCORE.INTRA.VDW.0>
-0.749945

>  <SCORE.INTRA.norm>
0.23261

>  <SCORE.RESTR>
0.0108255

>  <SCORE.RESTR.CAVITY>
0.0108255

>  <SCORE.RESTR.norm>
0.00108255

>  <SCORE.SYSTEM>
0

>  <SCORE.SYSTEM.CONST>
0

>  <SCORE.SYSTEM.DIHEDRAL>
0

>  <SCORE.SYSTEM.SOLV>
0

>  <SCORE.SYSTEM.norm>
0

>  <SCORE.heavy>
10

>  <SCORE.norm>
-0.678253

>  <RMSD>
5.245

$$$$
ligand
 OpenBabel11021811473D
libRbt.so/2013.1/901 2013/11/27
 10  9  0  0  0  0  0  0  0  0999 V2000
   28.8996   14.5230   21.2632 N   0  0  0  0  0  0  0  0  0  0  0  0
   28.1616   15.7890   20.9746 C   0  0  2  0  0  0  0  0  0  0  0  0
   26.9506   15.5353   20.0773 C   0  0  0  0  0  0  0  0  0  0  0  0
   25.8321   15.3539   20.5552 O   0  0  0  0  0  0  0  0  0  0  0  0
   29.0994   16.8453   20.3782 C   0  0  0  0  0  0  0  0  0  0  0  0
   30.2498   17.2177   21.3129 C   0  0  0  0  0  0  0  0  0  0  0  0
   31.2951   16.1158   21.4196 C   0  0  0  0  0  0  0  0  0  0  0  0
   32.1600   16.0530   20.1645 C   0  0  0  0  0  0  0  0  0  0  0  0
   33.1117   17.2107   20.0413 N   0  0  0  0  0  0  0  0  0  0  0  0
   27.0322   15.5273   18.8455 O   0  0  0  0  0  0  0  0  0  0  0  0
  2  1  1  6  0  0  0
  2  3  1  0  0  0  0
  2  5  1  0  0  0  0
  3  4  1  0  0  0  0
  3 10  1  0  0  0  0
  5  6  1  0  0  0  0
  6  7  1  0  0  0  0
  7  8  1  0  0  0  0
  8  9  1  0  0  0  0
M  END
>  <CHROM.1>
94.39074846,-60.54802867,72.51462353,74.85770576,71.56127893,29.24035543
16.00954128,20.48345042,-3.12866591,-0.24162477,-1.18280476

>  <Name>
ligand

>  <RI>
0

>  <Rbt.Current_Directory>
/home/itssahil/PROJECTS/Mol_Feturizer/New_Systems/rnas/3DIL

>  <Rbt.Executable>
rbdock ($Id: //depot/dev/client3/rdock/2013.1/src/exe/rbdock.cxx#4 $)

>  <Rbt.Library>
libRbt.so (2013.1, Build901 2013/11/27)

>  <Rbt.Parameter_File>
/export/apps/rDock/src/rDock_2013.1_src/data/scripts/dock_solv.prm

>  <Rbt.Receptor>
prm/pocket_docking_5.prm

>  <SCORE>
-5.95301

>  <SCORE.INTER>
-8.37148

>  <SCORE.INTER.CONST>
1

>  <SCORE.INTER.POLAR>
0

>  <SCORE.INTER.ROT>
5

>  <SCORE.INTER.SOLV>
15.1286

>  <SCORE.INTER.VDW>
-17.5572

>  <SCORE.INTER.norm>
-0.837148

>  <SCORE.INTRA>
2.41847

>  <SCORE.INTRA.DIHEDRAL>
0.632642

>  <SCORE.INTRA.DIHEDRAL.0>
2.93688

>  <SCORE.INTRA.POLAR>
0

>  <SCORE.INTRA.POLAR.0>
0

>  <SCORE.INTRA.REPUL>
0

>  <SCORE.INTRA.REPUL.0>
0

>  <SCORE.INTRA.SOLV>
2.33975

>  <SCORE.INTRA.SOLV.lig_0>
-32.2816

>  <SCORE.INTRA.VDW>
0.932272

>  <SCORE.INTRA.VDW.0>
-0.749945

>  <SCORE.INTRA.norm>
0.241847

>  <SCORE.RESTR>
0

>  <SCORE.RESTR.CAVITY>
0

>  <SCORE.RESTR.norm>
0

>  <SCORE.SYSTEM>
0

>  <SCORE.SYSTEM.CONST>
0

>  <SCORE.SYSTEM.DIHEDRAL>
0

>  <SCORE.SYSTEM.SOLV>
0

>  <SCORE.SYSTEM.norm>
0

>  <SCORE.heavy>
10

>  <SCORE.norm>
-0.595301

>  <RMSD>
5.252

$$$$
ligand
 OpenBabel11021811473D
libRbt.so/2013.1/901 2013/11/27
 10  9  0  0  0  0  0  0  0  0999 V2000
   25.7876   15.5806   20.0430 N   0  0  0  0  0  0  0  0  0  0  0  0
   27.2800   15.5241   20.0515 C   0  0  2  0  0  0  0  0  0  0  0  0
   27.8183   14.8361   18.7974 C   0  0  0  0  0  0  0  0  0  0  0  0
   29.0034   14.9267   18.4815 O   0  0  0  0  0  0  0  0  0  0  0  0
   27.7949   14.8556   21.3317 C   0  0  0  0  0  0  0  0  0  0  0  0
   29.3092   14.9757   21.4998 C   0  0  0  0  0  0  0  0  0  0  0  0
   29.7550   16.4068   21.7676 C   0  0  0  0  0  0  0  0  0  0  0  0
   31.2715   16.4947   21.9082 C   0  0  0  0  0  0  0  0  0  0  0  0
   32.0026   16.2401   20.6191 N   0  0  0  0  0  0  0  0  0  0  0  0
   27.1039   14.1439   18.0663 O   0  0  0  0  0  0  0  0  0  0  0  0
  2  1  1  6  0  0  0
  2  3  1  0  0  0  0
  2  5  1  0  0  0  0
  3  4  1  0  0  0  0
  3 10  1  0  0  0  0
  5  6  1  0  0  0  0
  6  7  1  0  0  0  0
  7  8  1  0  0  0  0
  8  9  1  0  0  0  0
M  END
>  <CHROM.1>
165.09748859,-170.57897253,68.31010447,-179.09920394,68.77855756,28.71716127
15.38128735,20.22345249,2.56274253,-0.14290500,-1.88380753

>  <Name>
ligand

>  <RI>
0

>  <Rbt.Current_Directory>
/home/itssahil/PROJECTS/Mol_Feturizer/New_Systems/rnas/3DIL

>  <Rbt.Executable>
rbdock ($Id: //depot/dev/client3/rdock/2013.1/src/exe/rbdock.cxx#4 $)

>  <Rbt.Library>
libRbt.so (2013.1, Build901 2013/11/27)

>  <Rbt.Parameter_File>
/export/apps/rDock/src/rDock_2013.1_src/data/scripts/dock_solv.prm

>  <Rbt.Receptor>
prm/pocket_docking_4.prm

>  <SCORE>
-8.27693

>  <SCORE.INTER>
-7.8956

>  <SCORE.INTER.CONST>
1

>  <SCORE.INTER.POLAR>
0

>  <SCORE.INTER.ROT>
5

>  <SCORE.INTER.SOLV>
17.6252

>  <SCORE.INTER.VDW>
-18.0721

>  <SCORE.INTER.norm>
-0.78956

>  <SCORE.INTRA>
-0.381334

>  <SCORE.INTRA.DIHEDRAL>
-0.573518

>  <SCORE.INTRA.DIHEDRAL.0>
2.93688

>  <SCORE.INTRA.POLAR>
0

>  <SCORE.INTRA.POLAR.0>
0

>  <SCORE.INTRA.REPUL>
0

>  <SCORE.INTRA.REPUL.0>
0

>  <SCORE.INTRA.SOLV>
-0.361988

>  <SCORE.INTRA.SOLV.lig_0>
-32.2816

>  <SCORE.INTRA.VDW>
0.0864185

>  <SCORE.INTRA.VDW.0>
-0.749945

>  <SCORE.INTRA.norm>
-0.0381334

>  <SCORE.RESTR>
0

>  <SCORE.RESTR.CAVITY>
0

>  <SCORE.RESTR.norm>
0

>  <SCORE.SYSTEM>
0

>  <SCORE.SYSTEM.CONST>
0

>  <SCORE.SYSTEM.DIHEDRAL>
0

>  <SCORE.SYSTEM.SOLV>
0

>  <SCORE.SYSTEM.norm>
0

>  <SCORE.heavy>
10

>  <SCORE.norm>
-0.827693

>  <RMSD>
5.264

$$$$
ligand
 OpenBabel11021811473D
libRbt.so/2013.1/901 2013/11/27
 10  9  0  0  0  0  0  0  0  0999 V2000
   27.9366   14.8539   18.2784 N   0  0  0  0  0  0  0  0  0  0  0  0
   28.0321   14.8518   19.7689 C   0  0  2  0  0  0  0  0  0  0  0  0
   26.6818   15.1627   20.4138 C   0  0  0  0  0  0  0  0  0  0  0  0
   25.7740   15.6839   19.7683 O   0  0  0  0  0  0  0  0  0  0  0  0
   29.1256   15.8137   20.2484 C   0  0  0  0  0  0  0  0  0  0  0  0
   29.4419   15.6636   21.7361 C   0  0  0  0  0  0  0  0  0  0  0  0
   30.3983   16.7356   22.2405 C   0  0  0  0  0  0  0  0  0  0  0  0
   31.8042   16.5247   21.6873 C   0  0  0  0  0  0  0  0  0  0  0  0
   31.9246   16.8648   20.2276 N   0  0  0  0  0  0  0  0  0  0  0  0
   26.4327   14.8845   21.5905 O   0  0  0  0  0  0  0  0  0  0  0  0
  2  1  1  6  0  0  0
  2  3  1  0  0  0  0
  2  5  1  0  0  0  0
  3  4  1  0  0  0  0
  3 10  1  0  0  0  0
  5  6  1  0  0  0  0
  6  7  1  0  0  0  0
  7  8  1  0  0  0  0
  8  9  1  0  0  0  0
M  END
>  <CHROM.1>
-17.59700890,-169.44237309,-172.79802824,-70.52027788,72.70963755,28.71550100
15.70595181,20.60718394,-2.85519671,0.25736799,1.43284904

>  <Name>
ligand

>  <RI>
0

>  <Rbt.Current_Directory>
/home/itssahil/PROJECTS/Mol_Feturizer/New_Systems/rnas/3DIL

>  <Rbt.Executable>
rbdock ($Id: //depot/dev/client3/rdock/2013.1/src/exe/rbdock.cxx#4 $)

>  <Rbt.Library>
libRbt.so (2013.1, Build901 2013/11/27)

>  <Rbt.Parameter_File>
/export/apps/rDock/src/rDock_2013.1_src/data/scripts/dock_solv.prm

>  <Rbt.Receptor>
prm/pocket_docking_3.prm

>  <SCORE>
-8.2346

>  <SCORE.INTER>
-9.29721

>  <SCORE.INTER.CONST>
1

>  <SCORE.INTER.POLAR>
0

>  <SCORE.INTER.ROT>
5

>  <SCORE.INTER.SOLV>
12.9734

>  <SCORE.INTER.VDW>
-17.4559

>  <SCORE.INTER.norm>
-0.929721

>  <SCORE.INTRA>
1.06261

>  <SCORE.INTRA.DIHEDRAL>
0.277926

>  <SCORE.INTRA.DIHEDRAL.0>
2.93688

>  <SCORE.INTRA.POLAR>
0

>  <SCORE.INTRA.POLAR.0>
0

>  <SCORE.INTRA.REPUL>
0

>  <SCORE.INTRA.REPUL.0>
0

>  <SCORE.INTRA.SOLV>
0.641646

>  <SCORE.INTRA.SOLV.lig_0>
-32.2816

>  <SCORE.INTRA.VDW>
0.602824

>  <SCORE.INTRA.VDW.0>
-0.749945

>  <SCORE.INTRA.norm>
0.106261

>  <SCORE.RESTR>
0

>  <SCORE.RESTR.CAVITY>
0

>  <SCORE.RESTR.norm>
0

>  <SCORE.SYSTEM>
0

>  <SCORE.SYSTEM.CONST>
0

>  <SCORE.SYSTEM.DIHEDRAL>
0

>  <SCORE.SYSTEM.SOLV>
0

>  <SCORE.SYSTEM.norm>
0

>  <SCORE.heavy>
10

>  <SCORE.norm>
-0.82346

>  <RMSD>
5.267

$$$$
ligand
 OpenBabel11021811473D
libRbt.so/2013.1/901 2013/11/27
 10  9  0  0  0  0  0  0  0  0999 V2000
   28.6994   16.8188   19.5478 N   0  0  0  0  0  0  0  0  0  0  0  0
   28.2097   15.4587   19.9235 C   0  0  2  0  0  0  0  0  0  0  0  0
   26.8843   15.1344   19.2349 C   0  0  0  0  0  0  0  0  0  0  0  0
   25.8232   15.6000   19.6468 O   0  0  0  0  0  0  0  0  0  0  0  0
   28.1087   15.3150   21.4467 C   0  0  0  0  0  0  0  0  0  0  0  0
   29.4440   14.9654   22.1028 C   0  0  0  0  0  0  0  0  0  0  0  0
   30.4385   16.1173   22.0522 C   0  0  0  0  0  0  0  0  0  0  0  0
   31.2752   16.0677   20.7776 C   0  0  0  0  0  0  0  0  0  0  0  0
   32.3543   17.1140   20.7352 N   0  0  0  0  0  0  0  0  0  0  0  0
   26.8203   14.4206   18.2298 O   0  0  0  0  0  0  0  0  0  0  0  0
  2  1  1  1  0  0  0
  2  3  1  0  0  0  0
  2  5  1  0  0  0  0
  3  4  1  0  0  0  0
  3 10  1  0  0  0  0
  5  6  1  0  0  0  0
  6  7  1  0  0  0  0
  7  8  1  0  0  0  0
  8  9  1  0  0  0  0
M  END
>  <CHROM.1>
-77.98755090,-82.68645857,69.58758892,-89.29974861,-174.97377666,28.76753040
15.69133436,20.34918086,-2.81287039,0.35947008,1.82870184

>  <Name>
ligand

>  <RI>
0

>  <Rbt.Current_Directory>
/home/itssahil/PROJECTS/Mol_Feturizer/New_Systems/rnas/3DIL

>  <Rbt.Executable>
rbdock ($Id: //depot/dev/client3/rdock/2013.1/src/exe/rbdock.cxx#4 $)

>  <Rbt.Library>
libRbt.so (2013.1, Build901 2013/11/27)

>  <Rbt.Parameter_File>
/export/apps/rDock/src/rDock_2013.1_src/data/scripts/dock_solv.prm

>  <Rbt.Receptor>
prm/blind_docking_60.prm

>  <SCORE>
-5.74346

>  <SCORE.INTER>
-9.26684

>  <SCORE.INTER.CONST>
1

>  <SCORE.INTER.POLAR>
0

>  <SCORE.INTER.ROT>
5

>  <SCORE.INTER.SOLV>
12.3464

>  <SCORE.INTER.VDW>
-17.2267

>  <SCORE.INTER.norm>
-0.926684

>  <SCORE.INTRA>
3.52338

>  <SCORE.INTRA.DIHEDRAL>
3.78684

>  <SCORE.INTRA.DIHEDRAL.0>
2.93688

>  <SCORE.INTRA.POLAR>
0

>  <SCORE.INTRA.POLAR.0>
0

>  <SCORE.INTRA.REPUL>
0

>  <SCORE.INTRA.REPUL.0>
0

>  <SCORE.INTRA.SOLV>
2.27755

>  <SCORE.INTRA.SOLV.lig_0>
-32.2816

>  <SCORE.INTRA.VDW>
0.491185

>  <SCORE.INTRA.VDW.0>
-0.749945

>  <SCORE.INTRA.norm>
0.352338

>  <SCORE.RESTR>
0

>  <SCORE.RESTR.CAVITY>
0

>  <SCORE.RESTR.norm>
0

>  <SCORE.SYSTEM>
0

>  <SCORE.SYSTEM.CONST>
0

>  <SCORE.SYSTEM.DIHEDRAL>
0

>  <SCORE.SYSTEM.SOLV>
0

>  <SCORE.SYSTEM.norm>
0

>  <SCORE.heavy>
10

>  <SCORE.norm>
-0.574346

>  <RMSD>
5.268

$$$$
ligand
 OpenBabel11021811473D
libRbt.so/2013.1/901 2013/11/27
 10  9  0  0  0  0  0  0  0  0999 V2000
   27.9404   14.8500   18.2819 N   0  0  0  0  0  0  0  0  0  0  0  0
   28.0159   14.8455   19.7735 C   0  0  2  0  0  0  0  0  0  0  0  0
   26.6546   15.1446   20.4008 C   0  0  0  0  0  0  0  0  0  0  0  0
   26.4306   14.8933   21.5836 O   0  0  0  0  0  0  0  0  0  0  0  0
   29.0954   15.8148   20.2696 C   0  0  0  0  0  0  0  0  0  0  0  0
   29.4393   15.6199   21.7460 C   0  0  0  0  0  0  0  0  0  0  0  0
   30.4144   16.6694   22.2616 C   0  0  0  0  0  0  0  0  0  0  0  0
   31.8035   16.4729   21.6625 C   0  0  0  0  0  0  0  0  0  0  0  0
   31.8798   16.8431   20.2071 N   0  0  0  0  0  0  0  0  0  0  0  0
   25.7363   15.6705   19.7651 O   0  0  0  0  0  0  0  0  0  0  0  0
  2  1  1  6  0  0  0
  2  3  1  0  0  0  0
  2  5  1  0  0  0  0
  3  4  1  0  0  0  0
  3 10  1  0  0  0  0
  5  6  1  0  0  0  0
  6  7  1  0  0  0  0
  7  8  1  0  0  0  0
  8  9  1  0  0  0  0
M  END
>  <CHROM.1>
163.32080012,-166.75981586,-174.62200757,-69.86218228,71.76145430,28.70136440
15.68482388,20.60640614,-2.85905380,0.25197233,1.44488740

>  <Name>
ligand

>  <RI>
0

>  <Rbt.Current_Directory>
/home/itssahil/PROJECTS/Mol_Feturizer/New_Systems/rnas/3DIL

>  <Rbt.Executable>
rbdock ($Id: //depot/dev/client3/rdock/2013.1/src/exe/rbdock.cxx#4 $)

>  <Rbt.Library>
libRbt.so (2013.1, Build901 2013/11/27)

>  <Rbt.Parameter_File>
/export/apps/rDock/src/rDock_2013.1_src/data/scripts/dock_solv.prm

>  <Rbt.Receptor>
prm/pocket_docking_3.prm

>  <SCORE>
-8.20548

>  <SCORE.INTER>
-9.27082

>  <SCORE.INTER.CONST>
1

>  <SCORE.INTER.POLAR>
0

>  <SCORE.INTER.ROT>
5

>  <SCORE.INTER.SOLV>
12.9729

>  <SCORE.INTER.VDW>
-17.4382

>  <SCORE.INTER.norm>
-0.927082

>  <SCORE.INTRA>
1.06534

>  <SCORE.INTRA.DIHEDRAL>
0.187791

>  <SCORE.INTRA.DIHEDRAL.0>
2.93688

>  <SCORE.INTRA.POLAR>
0

>  <SCORE.INTRA.POLAR.0>
0

>  <SCORE.INTRA.REPUL>
0

>  <SCORE.INTRA.REPUL.0>
0

>  <SCORE.INTRA.SOLV>
0.685241

>  <SCORE.INTRA.SOLV.lig_0>
-32.2816

>  <SCORE.INTRA.VDW>
0.628829

>  <SCORE.INTRA.VDW.0>
-0.749945

>  <SCORE.INTRA.norm>
0.106534

>  <SCORE.RESTR>
0

>  <SCORE.RESTR.CAVITY>
0

>  <SCORE.RESTR.norm>
0

>  <SCORE.SYSTEM>
0

>  <SCORE.SYSTEM.CONST>
0

>  <SCORE.SYSTEM.DIHEDRAL>
0

>  <SCORE.SYSTEM.SOLV>
0

>  <SCORE.SYSTEM.norm>
0

>  <SCORE.heavy>
10

>  <SCORE.norm>
-0.820548

>  <RMSD>
5.271

$$$$
ligand
 OpenBabel11021811473D
libRbt.so/2013.1/901 2013/11/27
 10  9  0  0  0  0  0  0  0  0999 V2000
   27.5006   15.5352   18.9649 N   0  0  0  0  0  0  0  0  0  0  0  0
   28.5887   15.3415   19.9695 C   0  0  2  0  0  0  0  0  0  0  0  0
   28.0378   14.8054   21.2905 C   0  0  0  0  0  0  0  0  0  0  0  0
   28.7608   14.2054   22.0840 O   0  0  0  0  0  0  0  0  0  0  0  0
   29.3853   16.6362   20.1697 C   0  0  0  0  0  0  0  0  0  0  0  0
   30.6448   16.4375   21.0124 C   0  0  0  0  0  0  0  0  0  0  0  0
   31.3515   17.7496   21.3240 C   0  0  0  0  0  0  0  0  0  0  0  0
   32.6786   17.5056   22.0356 C   0  0  0  0  0  0  0  0  0  0  0  0
   33.4006   18.7744   22.3960 N   0  0  0  0  0  0  0  0  0  0  0  0
   26.8628   14.9707   21.6311 O   0  0  0  0  0  0  0  0  0  0  0  0
  2  1  1  6  0  0  0
  2  3  1  0  0  0  0
  2  5  1  0  0  0  0
  3  4  1  0  0  0  0
  3 10  1  0  0  0  0
  5  6  1  0  0  0  0
  6  7  1  0  0  0  0
  7  8  1  0  0  0  0
  8  9  1  0  0  0  0
M  END
>  <CHROM.1>
157.63936288,-170.71650878,-174.17083657,-173.93201590,-178.57794283,29.69968459
16.17688898,21.11450635,3.07760788,0.58715978,2.06429980

>  <Name>
ligand

>  <RI>
0

>  <Rbt.Current_Directory>
/home/itssahil/PROJECTS/Mol_Feturizer/New_Systems/rnas/3DIL

>  <Rbt.Executable>
rbdock ($Id: //depot/dev/client3/rdock/2013.1/src/exe/rbdock.cxx#4 $)

>  <Rbt.Library>
libRbt.so (2013.1, Build901 2013/11/27)

>  <Rbt.Parameter_File>
/export/apps/rDock/src/rDock_2013.1_src/data/scripts/dock_solv.prm

>  <Rbt.Receptor>
prm/pocket_docking_2.prm

>  <SCORE>
-7.90146

>  <SCORE.INTER>
-6.67036

>  <SCORE.INTER.CONST>
1

>  <SCORE.INTER.POLAR>
0

>  <SCORE.INTER.ROT>
5

>  <SCORE.INTER.SOLV>
14.1878

>  <SCORE.INTER.VDW>
-16.1095

>  <SCORE.INTER.norm>
-0.667036

>  <SCORE.INTRA>
-1.2311

>  <SCORE.INTRA.DIHEDRAL>
-0.866114

>  <SCORE.INTRA.DIHEDRAL.0>
2.93688

>  <SCORE.INTRA.POLAR>
0

>  <SCORE.INTRA.POLAR.0>
0

>  <SCORE.INTRA.REPUL>
0

>  <SCORE.INTRA.REPUL.0>
0

>  <SCORE.INTRA.SOLV>
-1.49671

>  <SCORE.INTRA.SOLV.lig_0>
-32.2816

>  <SCORE.INTRA.VDW>
-0.0496855

>  <SCORE.INTRA.VDW.0>
-0.749945

>  <SCORE.INTRA.norm>
-0.12311

>  <SCORE.RESTR>
0

>  <SCORE.RESTR.CAVITY>
0

>  <SCORE.RESTR.norm>
0

>  <SCORE.SYSTEM>
0

>  <SCORE.SYSTEM.CONST>
0

>  <SCORE.SYSTEM.DIHEDRAL>
0

>  <SCORE.SYSTEM.SOLV>
0

>  <SCORE.SYSTEM.norm>
0

>  <SCORE.heavy>
10

>  <SCORE.norm>
-0.790146

>  <RMSD>
5.276

$$$$
ligand
 OpenBabel11021811473D
libRbt.so/2013.1/901 2013/11/27
 10  9  0  0  0  0  0  0  0  0999 V2000
   28.6039   14.5759   18.8209 N   0  0  0  0  0  0  0  0  0  0  0  0
   27.8399   14.5216   20.1031 C   0  0  2  0  0  0  0  0  0  0  0  0
   26.6801   15.5169   20.1028 C   0  0  0  0  0  0  0  0  0  0  0  0
   25.6106   15.2471   20.6466 O   0  0  0  0  0  0  0  0  0  0  0  0
   28.7700   14.7334   21.3035 C   0  0  0  0  0  0  0  0  0  0  0  0
   29.6564   15.9702   21.1606 C   0  0  0  0  0  0  0  0  0  0  0  0
   30.7187   16.0557   22.2480 C   0  0  0  0  0  0  0  0  0  0  0  0
   31.6807   17.2110   21.9893 C   0  0  0  0  0  0  0  0  0  0  0  0
   32.4386   17.0741   20.6978 N   0  0  0  0  0  0  0  0  0  0  0  0
   26.7699   16.6348   19.5866 O   0  0  0  0  0  0  0  0  0  0  0  0
  2  1  1  6  0  0  0
  2  3  1  0  0  0  0
  2  5  1  0  0  0  0
  3  4  1  0  0  0  0
  3 10  1  0  0  0  0
  5  6  1  0  0  0  0
  6  7  1  0  0  0  0
  7  8  1  0  0  0  0
  8  9  1  0  0  0  0
M  END
>  <CHROM.1>
143.90096056,50.61892547,-171.27741984,173.67190267,-61.44772824,28.84010855
15.77146093,20.66288357,-2.77594049,0.12926371,1.13948481

>  <Name>
ligand

>  <RI>
0

>  <Rbt.Current_Directory>
/home/itssahil/PROJECTS/Mol_Feturizer/New_Systems/rnas/3DIL

>  <Rbt.Executable>
rbdock ($Id: //depot/dev/client3/rdock/2013.1/src/exe/rbdock.cxx#4 $)

>  <Rbt.Library>
libRbt.so (2013.1, Build901 2013/11/27)

>  <Rbt.Parameter_File>
/export/apps/rDock/src/rDock_2013.1_src/data/scripts/dock_solv.prm

>  <Rbt.Receptor>
prm/pocket_docking_3.prm

>  <SCORE>
-8.80541

>  <SCORE.INTER>
-8.8292

>  <SCORE.INTER.CONST>
1

>  <SCORE.INTER.POLAR>
0

>  <SCORE.INTER.ROT>
5

>  <SCORE.INTER.SOLV>
13.0684

>  <SCORE.INTER.VDW>
-17.1756

>  <SCORE.INTER.norm>
-0.88292

>  <SCORE.INTRA>
0.0237857

>  <SCORE.INTRA.DIHEDRAL>
-0.62902

>  <SCORE.INTRA.DIHEDRAL.0>
2.93688

>  <SCORE.INTRA.POLAR>
0

>  <SCORE.INTRA.POLAR.0>
0

>  <SCORE.INTRA.REPUL>
0

>  <SCORE.INTRA.REPUL.0>
0

>  <SCORE.INTRA.SOLV>
0.517352

>  <SCORE.INTRA.SOLV.lig_0>
-32.2816

>  <SCORE.INTRA.VDW>
0.0796195

>  <SCORE.INTRA.VDW.0>
-0.749945

>  <SCORE.INTRA.norm>
0.00237857

>  <SCORE.RESTR>
0

>  <SCORE.RESTR.CAVITY>
0

>  <SCORE.RESTR.norm>
0

>  <SCORE.SYSTEM>
0

>  <SCORE.SYSTEM.CONST>
0

>  <SCORE.SYSTEM.DIHEDRAL>
0

>  <SCORE.SYSTEM.SOLV>
0

>  <SCORE.SYSTEM.norm>
0

>  <SCORE.heavy>
10

>  <SCORE.norm>
-0.880541

>  <RMSD>
5.277

$$$$
ligand
 OpenBabel11021811473D
libRbt.so/2013.1/901 2013/11/27
 10  9  0  0  0  0  0  0  0  0999 V2000
   28.5547   14.4438   18.7376 N   0  0  0  0  0  0  0  0  0  0  0  0
   27.7619   14.5628   19.9977 C   0  0  2  0  0  0  0  0  0  0  0  0
   26.7445   15.7000   19.9101 C   0  0  0  0  0  0  0  0  0  0  0  0
   27.0838   16.8316   19.5684 O   0  0  0  0  0  0  0  0  0  0  0  0
   28.6848   14.7184   21.2122 C   0  0  0  0  0  0  0  0  0  0  0  0
   29.7189   15.8300   21.0371 C   0  0  0  0  0  0  0  0  0  0  0  0
   30.7368   15.8638   22.1690 C   0  0  0  0  0  0  0  0  0  0  0  0
   31.8152   16.9111   21.9096 C   0  0  0  0  0  0  0  0  0  0  0  0
   31.2871   18.3190   21.9092 N   0  0  0  0  0  0  0  0  0  0  0  0
   25.5450   15.5323   20.1489 O   0  0  0  0  0  0  0  0  0  0  0  0
  2  1  1  6  0  0  0
  2  3  1  0  0  0  0
  2  5  1  0  0  0  0
  3  4  1  0  0  0  0
  3 10  1  0  0  0  0
  5  6  1  0  0  0  0
  6  7  1  0  0  0  0
  7  8  1  0  0  0  0
  8  9  1  0  0  0  0
M  END
>  <CHROM.1>
-51.54196554,51.34598044,-172.90309541,175.58884690,65.39337577,28.76028234
15.89163100,20.65311795,-2.73727632,-0.36100421,0.23974309

>  <Name>
ligand

>  <RI>
0

>  <Rbt.Current_Directory>
/home/itssahil/PROJECTS/Mol_Feturizer/New_Systems/rnas/3DIL

>  <Rbt.Executable>
rbdock ($Id: //depot/dev/client3/rdock/2013.1/src/exe/rbdock.cxx#4 $)

>  <Rbt.Library>
libRbt.so (2013.1, Build901 2013/11/27)

>  <Rbt.Parameter_File>
/export/apps/rDock/src/rDock_2013.1_src/data/scripts/dock_solv.prm

>  <Rbt.Receptor>
prm/pocket_docking_8.prm

>  <SCORE>
-8.05476

>  <SCORE.INTER>
-7.99036

>  <SCORE.INTER.CONST>
1

>  <SCORE.INTER.POLAR>
0

>  <SCORE.INTER.ROT>
5

>  <SCORE.INTER.SOLV>
15.3466

>  <SCORE.INTER.VDW>
-17.3758

>  <SCORE.INTER.norm>
-0.799036

>  <SCORE.INTRA>
-0.0643993

>  <SCORE.INTRA.DIHEDRAL>
-0.699477

>  <SCORE.INTRA.DIHEDRAL.0>
2.93688

>  <SCORE.INTRA.POLAR>
0

>  <SCORE.INTRA.POLAR.0>
0

>  <SCORE.INTRA.REPUL>
0

>  <SCORE.INTRA.REPUL.0>
0

>  <SCORE.INTRA.SOLV>
0.393173

>  <SCORE.INTRA.SOLV.lig_0>
-32.2816

>  <SCORE.INTRA.VDW>
0.0887526

>  <SCORE.INTRA.VDW.0>
-0.749945

>  <SCORE.INTRA.norm>
-0.00643993

>  <SCORE.RESTR>
0

>  <SCORE.RESTR.CAVITY>
0

>  <SCORE.RESTR.norm>
0

>  <SCORE.SYSTEM>
0

>  <SCORE.SYSTEM.CONST>
0

>  <SCORE.SYSTEM.DIHEDRAL>
0

>  <SCORE.SYSTEM.SOLV>
0

>  <SCORE.SYSTEM.norm>
0

>  <SCORE.heavy>
10

>  <SCORE.norm>
-0.805476

>  <RMSD>
5.277

$$$$
ligand
 OpenBabel11021811473D
libRbt.so/2013.1/901 2013/11/27
 10  9  0  0  0  0  0  0  0  0999 V2000
   29.2846   14.6556   19.2923 N   0  0  0  0  0  0  0  0  0  0  0  0
   28.2035   15.3376   18.5197 C   0  0  2  0  0  0  0  0  0  0  0  0
   27.6790   16.5663   19.2619 C   0  0  0  0  0  0  0  0  0  0  0  0
   26.6076   16.5355   19.8649 O   0  0  0  0  0  0  0  0  0  0  0  0
   27.0758   14.3576   18.1750 C   0  0  0  0  0  0  0  0  0  0  0  0
   27.5819   13.0705   17.5245 C   0  0  0  0  0  0  0  0  0  0  0  0
   26.4523   12.1146   17.1659 C   0  0  0  0  0  0  0  0  0  0  0  0
   26.9771   10.6995   16.9440 C   0  0  0  0  0  0  0  0  0  0  0  0
   25.8851    9.6709   16.8421 N   0  0  0  0  0  0  0  0  0  0  0  0
   28.3105   17.6258   19.3132 O   0  0  0  0  0  0  0  0  0  0  0  0
  2  1  1  1  0  0  0
  2  3  1  0  0  0  0
  2  5  1  0  0  0  0
  3  4  1  0  0  0  0
  3 10  1  0  0  0  0
  5  6  1  0  0  0  0
  6  7  1  0  0  0  0
  7  8  1  0  0  0  0
  8  9  1  0  0  0  0
M  END
>  <CHROM.1>
-102.84403533,-50.82381903,-179.06720513,-161.87882337,169.21557585,27.39756624
14.10344525,18.31119459,-1.35594396,0.01676382,-2.76099160

>  <Name>
ligand

>  <RI>
0

>  <Rbt.Current_Directory>
/home/itssahil/PROJECTS/Mol_Feturizer/New_Systems/rnas/3DIL

>  <Rbt.Executable>
rbdock ($Id: //depot/dev/client3/rdock/2013.1/src/exe/rbdock.cxx#4 $)

>  <Rbt.Library>
libRbt.so (2013.1, Build901 2013/11/27)

>  <Rbt.Parameter_File>
/export/apps/rDock/src/rDock_2013.1_src/data/scripts/dock_solv.prm

>  <Rbt.Receptor>
prm/blind_docking_80.prm

>  <SCORE>
-4.91709

>  <SCORE.INTER>
-5.52206

>  <SCORE.INTER.CONST>
1

>  <SCORE.INTER.POLAR>
0

>  <SCORE.INTER.ROT>
5

>  <SCORE.INTER.SOLV>
15.0901

>  <SCORE.INTER.VDW>
-15.6448

>  <SCORE.INTER.norm>
-0.552206

>  <SCORE.INTRA>
0.604973

>  <SCORE.INTRA.DIHEDRAL>
0.545502

>  <SCORE.INTRA.DIHEDRAL.0>
2.93688

>  <SCORE.INTRA.POLAR>
0

>  <SCORE.INTRA.POLAR.0>
0

>  <SCORE.INTRA.REPUL>
0

>  <SCORE.INTRA.REPUL.0>
0

>  <SCORE.INTRA.SOLV>
-0.481947

>  <SCORE.INTRA.SOLV.lig_0>
-32.2816

>  <SCORE.INTRA.VDW>
0.573195

>  <SCORE.INTRA.VDW.0>
-0.749945

>  <SCORE.INTRA.norm>
0.0604973

>  <SCORE.RESTR>
0

>  <SCORE.RESTR.CAVITY>
0

>  <SCORE.RESTR.norm>
0

>  <SCORE.SYSTEM>
0

>  <SCORE.SYSTEM.CONST>
0

>  <SCORE.SYSTEM.DIHEDRAL>
0

>  <SCORE.SYSTEM.SOLV>
0

>  <SCORE.SYSTEM.norm>
0

>  <SCORE.heavy>
10

>  <SCORE.norm>
-0.491709

>  <RMSD>
5.283

$$$$
ligand
 OpenBabel11021811473D
libRbt.so/2013.1/901 2013/11/27
 10  9  0  0  0  0  0  0  0  0999 V2000
   27.3024   14.7816   21.7106 N   0  0  0  0  0  0  0  0  0  0  0  0
   28.1833   15.8515   21.1538 C   0  0  2  0  0  0  0  0  0  0  0  0
   27.6076   16.4302   19.8617 C   0  0  0  0  0  0  0  0  0  0  0  0
   28.0889   17.4378   19.3465 O   0  0  0  0  0  0  0  0  0  0  0  0
   29.6137   15.3355   20.9576 C   0  0  0  0  0  0  0  0  0  0  0  0
   30.6074   16.4462   20.6189 C   0  0  0  0  0  0  0  0  0  0  0  0
   31.9990   15.9104   20.3111 C   0  0  0  0  0  0  0  0  0  0  0  0
   33.0010   17.0472   20.1353 C   0  0  0  0  0  0  0  0  0  0  0  0
   33.1888   17.8702   21.3797 N   0  0  0  0  0  0  0  0  0  0  0  0
   26.6617   15.9049   19.2672 O   0  0  0  0  0  0  0  0  0  0  0  0
  2  1  1  6  0  0  0
  2  3  1  0  0  0  0
  2  5  1  0  0  0  0
  3  4  1  0  0  0  0
  3 10  1  0  0  0  0
  5  6  1  0  0  0  0
  6  7  1  0  0  0  0
  7  8  1  0  0  0  0
  8  9  1  0  0  0  0
M  END
>  <CHROM.1>
170.23117536,-170.15713412,-175.16926084,-173.48023996,63.04173748,29.60141226
16.31323992,20.44520591,-3.05801110,-0.21265786,-0.78335884

>  <Name>
ligand

>  <RI>
0

>  <Rbt.Current_Directory>
/home/itssahil/PROJECTS/Mol_Feturizer/New_Systems/rnas/3DIL

>  <Rbt.Executable>
rbdock ($Id: //depot/dev/client3/rdock/2013.1/src/exe/rbdock.cxx#4 $)

>  <Rbt.Library>
libRbt.so (2013.1, Build901 2013/11/27)

>  <Rbt.Parameter_File>
/export/apps/rDock/src/rDock_2013.1_src/data/scripts/dock_solv.prm

>  <Rbt.Receptor>
prm/pocket_docking_8.prm

>  <SCORE>
-6.91463

>  <SCORE.INTER>
-6.44465

>  <SCORE.INTER.CONST>
1

>  <SCORE.INTER.POLAR>
0

>  <SCORE.INTER.ROT>
5

>  <SCORE.INTER.SOLV>
18.2429

>  <SCORE.INTER.VDW>
-17.3107

>  <SCORE.INTER.norm>
-0.644465

>  <SCORE.INTRA>
-0.469981

>  <SCORE.INTRA.DIHEDRAL>
-0.798986

>  <SCORE.INTRA.DIHEDRAL.0>
2.93688

>  <SCORE.INTRA.POLAR>
0

>  <SCORE.INTRA.POLAR.0>
0

>  <SCORE.INTRA.REPUL>
0

>  <SCORE.INTRA.REPUL.0>
0

>  <SCORE.INTRA.SOLV>
-0.55392

>  <SCORE.INTRA.SOLV.lig_0>
-32.2816

>  <SCORE.INTRA.VDW>
0.206472

>  <SCORE.INTRA.VDW.0>
-0.749945

>  <SCORE.INTRA.norm>
-0.0469981

>  <SCORE.RESTR>
0

>  <SCORE.RESTR.CAVITY>
0

>  <SCORE.RESTR.norm>
0

>  <SCORE.SYSTEM>
0

>  <SCORE.SYSTEM.CONST>
0

>  <SCORE.SYSTEM.DIHEDRAL>
0

>  <SCORE.SYSTEM.SOLV>
0

>  <SCORE.SYSTEM.norm>
0

>  <SCORE.heavy>
10

>  <SCORE.norm>
-0.691463

>  <RMSD>
5.286

$$$$
ligand
 OpenBabel11021811473D
libRbt.so/2013.1/901 2013/11/27
 10  9  0  0  0  0  0  0  0  0999 V2000
   28.9860   14.9782   18.9301 N   0  0  0  0  0  0  0  0  0  0  0  0
   28.5625   14.8768   20.3588 C   0  0  2  0  0  0  0  0  0  0  0  0
   27.1371   15.3923   20.5548 C   0  0  0  0  0  0  0  0  0  0  0  0
   26.5119   15.1560   21.5871 O   0  0  0  0  0  0  0  0  0  0  0  0
   29.5580   15.5957   21.2769 C   0  0  0  0  0  0  0  0  0  0  0  0
   29.7620   17.0634   20.9027 C   0  0  0  0  0  0  0  0  0  0  0  0
   30.8854   17.7172   21.6958 C   0  0  0  0  0  0  0  0  0  0  0  0
   32.2523   17.2904   21.1699 C   0  0  0  0  0  0  0  0  0  0  0  0
   33.3962   17.9686   21.8717 N   0  0  0  0  0  0  0  0  0  0  0  0
   26.5632   16.0839   19.7085 O   0  0  0  0  0  0  0  0  0  0  0  0
  2  1  1  6  0  0  0
  2  3  1  0  0  0  0
  2  5  1  0  0  0  0
  3  4  1  0  0  0  0
  3 10  1  0  0  0  0
  5  6  1  0  0  0  0
  6  7  1  0  0  0  0
  7  8  1  0  0  0  0
  8  9  1  0  0  0  0
M  END
>  <CHROM.1>
165.51158714,56.35245588,-172.28037901,76.35353027,176.81696024,29.31948295
16.21685104,20.80810141,-2.75731249,0.24577971,1.01788803

>  <Name>
ligand

>  <RI>
0

>  <Rbt.Current_Directory>
/home/itssahil/PROJECTS/Mol_Feturizer/New_Systems/rnas/3DIL

>  <Rbt.Executable>
rbdock ($Id: //depot/dev/client3/rdock/2013.1/src/exe/rbdock.cxx#4 $)

>  <Rbt.Library>
libRbt.so (2013.1, Build901 2013/11/27)

>  <Rbt.Parameter_File>
/export/apps/rDock/src/rDock_2013.1_src/data/scripts/dock_solv.prm

>  <Rbt.Receptor>
prm/pocket_docking_2.prm

>  <SCORE>
-7.41969

>  <SCORE.INTER>
-7.588

>  <SCORE.INTER.CONST>
1

>  <SCORE.INTER.POLAR>
0

>  <SCORE.INTER.ROT>
5

>  <SCORE.INTER.SOLV>
13.8037

>  <SCORE.INTER.VDW>
-16.5932

>  <SCORE.INTER.norm>
-0.7588

>  <SCORE.INTRA>
0.167449

>  <SCORE.INTRA.DIHEDRAL>
-0.0677464

>  <SCORE.INTRA.DIHEDRAL.0>
2.93688

>  <SCORE.INTRA.POLAR>
0

>  <SCORE.INTRA.POLAR.0>
0

>  <SCORE.INTRA.REPUL>
0

>  <SCORE.INTRA.REPUL.0>
0

>  <SCORE.INTRA.SOLV>
-0.287478

>  <SCORE.INTRA.SOLV.lig_0>
-32.2816

>  <SCORE.INTRA.VDW>
0.345061

>  <SCORE.INTRA.VDW.0>
-0.749945

>  <SCORE.INTRA.norm>
0.0167449

>  <SCORE.RESTR>
0.000853844

>  <SCORE.RESTR.CAVITY>
0.000853844

>  <SCORE.RESTR.norm>
8.53844e-05

>  <SCORE.SYSTEM>
0

>  <SCORE.SYSTEM.CONST>
0

>  <SCORE.SYSTEM.DIHEDRAL>
0

>  <SCORE.SYSTEM.SOLV>
0

>  <SCORE.SYSTEM.norm>
0

>  <SCORE.heavy>
10

>  <SCORE.norm>
-0.741969

>  <RMSD>
5.287

$$$$
ligand
 OpenBabel11021811473D
libRbt.so/2013.1/901 2013/11/27
 10  9  0  0  0  0  0  0  0  0999 V2000
   25.7289   15.6824   19.7647 N   0  0  0  0  0  0  0  0  0  0  0  0
   27.2113   15.5445   19.8841 C   0  0  2  0  0  0  0  0  0  0  0  0
   27.7917   14.7445   18.7183 C   0  0  0  0  0  0  0  0  0  0  0  0
   28.9727   14.8581   18.3948 O   0  0  0  0  0  0  0  0  0  0  0  0
   27.5970   14.9370   21.2379 C   0  0  0  0  0  0  0  0  0  0  0  0
   29.1013   14.9811   21.5048 C   0  0  0  0  0  0  0  0  0  0  0  0
   29.6184   16.4001   21.6978 C   0  0  0  0  0  0  0  0  0  0  0  0
   31.1318   16.4140   21.8896 C   0  0  0  0  0  0  0  0  0  0  0  0
   31.8929   16.1379   20.6225 N   0  0  0  0  0  0  0  0  0  0  0  0
   27.1179   13.9370   18.0718 O   0  0  0  0  0  0  0  0  0  0  0  0
  2  1  1  6  0  0  0
  2  3  1  0  0  0  0
  2  5  1  0  0  0  0
  3  4  1  0  0  0  0
  3 10  1  0  0  0  0
  5  6  1  0  0  0  0
  6  7  1  0  0  0  0
  7  8  1  0  0  0  0
  8  9  1  0  0  0  0
M  END
>  <CHROM.1>
157.27580039,-170.74416520,67.78639560,-177.05202375,73.13065003,28.62217424
15.34405828,20.14720177,2.52918310,-0.09745786,-1.94103294

>  <Name>
ligand

>  <RI>
0

>  <Rbt.Current_Directory>
/home/itssahil/PROJECTS/Mol_Feturizer/New_Systems/rnas/3DIL

>  <Rbt.Executable>
rbdock ($Id: //depot/dev/client3/rdock/2013.1/src/exe/rbdock.cxx#4 $)

>  <Rbt.Library>
libRbt.so (2013.1, Build901 2013/11/27)

>  <Rbt.Parameter_File>
/export/apps/rDock/src/rDock_2013.1_src/data/scripts/dock_solv.prm

>  <Rbt.Receptor>
prm/pocket_docking_8.prm

>  <SCORE>
-8.24346

>  <SCORE.INTER>
-7.8702

>  <SCORE.INTER.CONST>
1

>  <SCORE.INTER.POLAR>
0

>  <SCORE.INTER.ROT>
5

>  <SCORE.INTER.SOLV>
17.9815

>  <SCORE.INTER.VDW>
-18.174

>  <SCORE.INTER.norm>
-0.78702

>  <SCORE.INTRA>
-0.373257

>  <SCORE.INTRA.DIHEDRAL>
-0.256339

>  <SCORE.INTRA.DIHEDRAL.0>
2.93688

>  <SCORE.INTRA.POLAR>
0

>  <SCORE.INTRA.POLAR.0>
0

>  <SCORE.INTRA.REPUL>
0

>  <SCORE.INTRA.REPUL.0>
0

>  <SCORE.INTRA.SOLV>
-0.401545

>  <SCORE.INTRA.SOLV.lig_0>
-32.2816

>  <SCORE.INTRA.VDW>
-0.0443156

>  <SCORE.INTRA.VDW.0>
-0.749945

>  <SCORE.INTRA.norm>
-0.0373257

>  <SCORE.RESTR>
0

>  <SCORE.RESTR.CAVITY>
0

>  <SCORE.RESTR.norm>
0

>  <SCORE.SYSTEM>
0

>  <SCORE.SYSTEM.CONST>
0

>  <SCORE.SYSTEM.DIHEDRAL>
0

>  <SCORE.SYSTEM.SOLV>
0

>  <SCORE.SYSTEM.norm>
0

>  <SCORE.heavy>
10

>  <SCORE.norm>
-0.824346

>  <RMSD>
5.289

$$$$
ligand
 OpenBabel11021811473D
libRbt.so/2013.1/901 2013/11/27
 10  9  0  0  0  0  0  0  0  0999 V2000
   27.2006   14.6171   20.2975 N   0  0  0  0  0  0  0  0  0  0  0  0
   27.2363   15.5668   19.1454 C   0  0  2  0  0  0  0  0  0  0  0  0
   27.9182   14.9410   17.9290 C   0  0  0  0  0  0  0  0  0  0  0  0
   28.1574   13.7355   17.8845 O   0  0  0  0  0  0  0  0  0  0  0  0
   27.8963   16.8909   19.5480 C   0  0  0  0  0  0  0  0  0  0  0  0
   29.3457   16.7213   20.0020 C   0  0  0  0  0  0  0  0  0  0  0  0
   29.4543   16.1022   21.3888 C   0  0  0  0  0  0  0  0  0  0  0  0
   30.9080   16.0217   21.8443 C   0  0  0  0  0  0  0  0  0  0  0  0
   31.5727   17.3665   21.9479 N   0  0  0  0  0  0  0  0  0  0  0  0
   28.2326   15.6029   16.9355 O   0  0  0  0  0  0  0  0  0  0  0  0
  2  1  1  1  0  0  0
  2  3  1  0  0  0  0
  2  5  1  0  0  0  0
  3  4  1  0  0  0  0
  3 10  1  0  0  0  0
  5  6  1  0  0  0  0
  6  7  1  0  0  0  0
  7  8  1  0  0  0  0
  8  9  1  0  0  0  0
M  END
>  <CHROM.1>
12.27119733,61.05043025,-74.24666258,-176.70444609,61.25740379,28.79892859
15.73913452,19.65717520,2.36660932,-0.62847111,-1.49140667

>  <Name>
ligand

>  <RI>
0

>  <Rbt.Current_Directory>
/home/itssahil/PROJECTS/Mol_Feturizer/New_Systems/rnas/3DIL

>  <Rbt.Executable>
rbdock ($Id: //depot/dev/client3/rdock/2013.1/src/exe/rbdock.cxx#4 $)

>  <Rbt.Library>
libRbt.so (2013.1, Build901 2013/11/27)

>  <Rbt.Parameter_File>
/export/apps/rDock/src/rDock_2013.1_src/data/scripts/dock_solv.prm

>  <Rbt.Receptor>
prm/pocket_docking_4.prm

>  <SCORE>
-7.9881

>  <SCORE.INTER>
-9.23435

>  <SCORE.INTER.CONST>
1

>  <SCORE.INTER.POLAR>
0

>  <SCORE.INTER.ROT>
5

>  <SCORE.INTER.SOLV>
12.6678

>  <SCORE.INTER.VDW>
-17.3122

>  <SCORE.INTER.norm>
-0.923435

>  <SCORE.INTRA>
1.24625

>  <SCORE.INTRA.DIHEDRAL>
-0.591101

>  <SCORE.INTRA.DIHEDRAL.0>
2.93688

>  <SCORE.INTRA.POLAR>
0

>  <SCORE.INTRA.POLAR.0>
0

>  <SCORE.INTRA.REPUL>
0

>  <SCORE.INTRA.REPUL.0>
0

>  <SCORE.INTRA.SOLV>
1.78788

>  <SCORE.INTRA.SOLV.lig_0>
-32.2816

>  <SCORE.INTRA.VDW>
0.647855

>  <SCORE.INTRA.VDW.0>
-0.749945

>  <SCORE.INTRA.norm>
0.124625

>  <SCORE.RESTR>
0

>  <SCORE.RESTR.CAVITY>
0

>  <SCORE.RESTR.norm>
0

>  <SCORE.SYSTEM>
0

>  <SCORE.SYSTEM.CONST>
0

>  <SCORE.SYSTEM.DIHEDRAL>
0

>  <SCORE.SYSTEM.SOLV>
0

>  <SCORE.SYSTEM.norm>
0

>  <SCORE.heavy>
10

>  <SCORE.norm>
-0.79881

>  <RMSD>
5.293

$$$$
ligand
 OpenBabel11021811473D
libRbt.so/2013.1/901 2013/11/27
 10  9  0  0  0  0  0  0  0  0999 V2000
   25.6230   15.0846   20.5127 N   0  0  0  0  0  0  0  0  0  0  0  0
   26.9748   15.7054   20.3785 C   0  0  2  0  0  0  0  0  0  0  0  0
   27.5266   15.5371   18.9631 C   0  0  0  0  0  0  0  0  0  0  0  0
   28.1188   16.4551   18.3984 O   0  0  0  0  0  0  0  0  0  0  0  0
   27.9388   15.1506   21.4338 C   0  0  0  0  0  0  0  0  0  0  0  0
   29.2568   15.9214   21.5019 C   0  0  0  0  0  0  0  0  0  0  0  0
   30.2193   15.5311   20.3886 C   0  0  0  0  0  0  0  0  0  0  0  0
   31.3994   16.4952   20.3168 C   0  0  0  0  0  0  0  0  0  0  0  0
   32.1764   16.5785   21.6015 N   0  0  0  0  0  0  0  0  0  0  0  0
   27.4288   14.4769   18.3384 O   0  0  0  0  0  0  0  0  0  0  0  0
  2  1  1  6  0  0  0
  2  3  1  0  0  0  0
  2  5  1  0  0  0  0
  3  4  1  0  0  0  0
  3 10  1  0  0  0  0
  5  6  1  0  0  0  0
  6  7  1  0  0  0  0
  7  8  1  0  0  0  0
  8  9  1  0  0  0  0
M  END
>  <CHROM.1>
138.71470144,-169.93618602,-78.96956509,168.93854804,57.93860993,28.66963475
15.68935760,20.14841067,2.83891128,-0.24882077,-1.53742167

>  <Name>
ligand

>  <RI>
0

>  <Rbt.Current_Directory>
/home/itssahil/PROJECTS/Mol_Feturizer/New_Systems/rnas/3DIL

>  <Rbt.Executable>
rbdock ($Id: //depot/dev/client3/rdock/2013.1/src/exe/rbdock.cxx#4 $)

>  <Rbt.Library>
libRbt.so (2013.1, Build901 2013/11/27)

>  <Rbt.Parameter_File>
/export/apps/rDock/src/rDock_2013.1_src/data/scripts/dock_solv.prm

>  <Rbt.Receptor>
prm/pocket_docking_3.prm

>  <SCORE>
-7.58501

>  <SCORE.INTER>
-7.83097

>  <SCORE.INTER.CONST>
1

>  <SCORE.INTER.POLAR>
0

>  <SCORE.INTER.ROT>
5

>  <SCORE.INTER.SOLV>
18.3693

>  <SCORE.INTER.VDW>
-18.2771

>  <SCORE.INTER.norm>
-0.783097

>  <SCORE.INTRA>
0.245956

>  <SCORE.INTRA.DIHEDRAL>
0.800351

>  <SCORE.INTRA.DIHEDRAL.0>
2.93688

>  <SCORE.INTRA.POLAR>
0

>  <SCORE.INTRA.POLAR.0>
0

>  <SCORE.INTRA.REPUL>
0

>  <SCORE.INTRA.REPUL.0>
0

>  <SCORE.INTRA.SOLV>
-0.492676

>  <SCORE.INTRA.SOLV.lig_0>
-32.2816

>  <SCORE.INTRA.VDW>
0.0921181

>  <SCORE.INTRA.VDW.0>
-0.749945

>  <SCORE.INTRA.norm>
0.0245956

>  <SCORE.RESTR>
0

>  <SCORE.RESTR.CAVITY>
0

>  <SCORE.RESTR.norm>
0

>  <SCORE.SYSTEM>
0

>  <SCORE.SYSTEM.CONST>
0

>  <SCORE.SYSTEM.DIHEDRAL>
0

>  <SCORE.SYSTEM.SOLV>
0

>  <SCORE.SYSTEM.norm>
0

>  <SCORE.heavy>
10

>  <SCORE.norm>
-0.758501

>  <RMSD>
5.301

$$$$
ligand
 OpenBabel11021811473D
libRbt.so/2013.1/901 2013/11/27
 10  9  0  0  0  0  0  0  0  0999 V2000
   28.6042   16.9424   19.9569 N   0  0  0  0  0  0  0  0  0  0  0  0
   28.5437   15.5445   20.4795 C   0  0  2  0  0  0  0  0  0  0  0  0
   27.1191   14.9931   20.4306 C   0  0  0  0  0  0  0  0  0  0  0  0
   26.3669   15.0883   21.3989 O   0  0  0  0  0  0  0  0  0  0  0  0
   29.1368   15.4620   21.8910 C   0  0  0  0  0  0  0  0  0  0  0  0
   30.6192   15.8309   21.9377 C   0  0  0  0  0  0  0  0  0  0  0  0
   30.8572   17.3195   21.7242 C   0  0  0  0  0  0  0  0  0  0  0  0
   32.3467   17.6481   21.7436 C   0  0  0  0  0  0  0  0  0  0  0  0
   33.1097   17.0101   20.6158 N   0  0  0  0  0  0  0  0  0  0  0  0
   26.6533   14.4569   19.4209 O   0  0  0  0  0  0  0  0  0  0  0  0
  2  1  1  1  0  0  0
  2  3  1  0  0  0  0
  2  5  1  0  0  0  0
  3  4  1  0  0  0  0
  3 10  1  0  0  0  0
  5  6  1  0  0  0  0
  6  7  1  0  0  0  0
  7  8  1  0  0  0  0
  8  9  1  0  0  0  0
M  END
>  <CHROM.1>
-92.83586988,-62.74986208,71.42313042,-178.64311040,64.19167461,29.29357525
16.01243553,20.95571751,-3.01608302,0.41149571,1.68603112

>  <Name>
ligand

>  <RI>
0

>  <Rbt.Current_Directory>
/home/itssahil/PROJECTS/Mol_Feturizer/New_Systems/rnas/3DIL

>  <Rbt.Executable>
rbdock ($Id: //depot/dev/client3/rdock/2013.1/src/exe/rbdock.cxx#4 $)

>  <Rbt.Library>
libRbt.so (2013.1, Build901 2013/11/27)

>  <Rbt.Parameter_File>
/export/apps/rDock/src/rDock_2013.1_src/data/scripts/dock_solv.prm

>  <Rbt.Receptor>
prm/pocket_docking_3.prm

>  <SCORE>
-7.5889

>  <SCORE.INTER>
-8.80432

>  <SCORE.INTER.CONST>
1

>  <SCORE.INTER.POLAR>
0

>  <SCORE.INTER.ROT>
5

>  <SCORE.INTER.SOLV>
14.5753

>  <SCORE.INTER.VDW>
-17.6613

>  <SCORE.INTER.norm>
-0.880432

>  <SCORE.INTRA>
1.21542

>  <SCORE.INTRA.DIHEDRAL>
-0.839474

>  <SCORE.INTRA.DIHEDRAL.0>
2.93688

>  <SCORE.INTRA.POLAR>
0

>  <SCORE.INTRA.POLAR.0>
0

>  <SCORE.INTRA.REPUL>
0

>  <SCORE.INTRA.REPUL.0>
0

>  <SCORE.INTRA.SOLV>
1.76432

>  <SCORE.INTRA.SOLV.lig_0>
-32.2816

>  <SCORE.INTRA.VDW>
0.752999

>  <SCORE.INTRA.VDW.0>
-0.749945

>  <SCORE.INTRA.norm>
0.121542

>  <SCORE.RESTR>
0

>  <SCORE.RESTR.CAVITY>
0

>  <SCORE.RESTR.norm>
0

>  <SCORE.SYSTEM>
0

>  <SCORE.SYSTEM.CONST>
0

>  <SCORE.SYSTEM.DIHEDRAL>
0

>  <SCORE.SYSTEM.SOLV>
0

>  <SCORE.SYSTEM.norm>
0

>  <SCORE.heavy>
10

>  <SCORE.norm>
-0.75889

>  <RMSD>
5.301

$$$$
ligand
 OpenBabel11021811473D
libRbt.so/2013.1/901 2013/11/27
 10  9  0  0  0  0  0  0  0  0999 V2000
   27.3469   14.6164   18.2135 N   0  0  0  0  0  0  0  0  0  0  0  0
   27.9500   15.0918   19.4945 C   0  0  2  0  0  0  0  0  0  0  0  0
   26.9275   15.0773   20.6303 C   0  0  0  0  0  0  0  0  0  0  0  0
   27.2847   15.0577   21.8070 O   0  0  0  0  0  0  0  0  0  0  0  0
   28.5854   16.4762   19.3195 C   0  0  0  0  0  0  0  0  0  0  0  0
   29.4215   16.9054   20.5247 C   0  0  0  0  0  0  0  0  0  0  0  0
   30.6415   16.0189   20.7342 C   0  0  0  0  0  0  0  0  0  0  0  0
   31.3999   16.4142   21.9974 C   0  0  0  0  0  0  0  0  0  0  0  0
   31.9525   17.8116   21.9448 N   0  0  0  0  0  0  0  0  0  0  0  0
   25.7109   15.1113   20.4236 O   0  0  0  0  0  0  0  0  0  0  0  0
  2  1  1  6  0  0  0
  2  3  1  0  0  0  0
  2  5  1  0  0  0  0
  3  4  1  0  0  0  0
  3 10  1  0  0  0  0
  5  6  1  0  0  0  0
  6  7  1  0  0  0  0
  7  8  1  0  0  0  0
  8  9  1  0  0  0  0
M  END
>  <CHROM.1>
159.05040232,-170.14343434,65.02692706,-176.10794956,-62.61252232,28.69079519
15.85297545,20.53152525,-2.79449593,0.39209680,1.50655114

>  <Name>
ligand

>  <RI>
0

>  <Rbt.Current_Directory>
/home/itssahil/PROJECTS/Mol_Feturizer/New_Systems/rnas/3DIL

>  <Rbt.Executable>
rbdock ($Id: //depot/dev/client3/rdock/2013.1/src/exe/rbdock.cxx#4 $)

>  <Rbt.Library>
libRbt.so (2013.1, Build901 2013/11/27)

>  <Rbt.Parameter_File>
/export/apps/rDock/src/rDock_2013.1_src/data/scripts/dock_solv.prm

>  <Rbt.Receptor>
prm/pocket_docking_2.prm

>  <SCORE>
-10.0883

>  <SCORE.INTER>
-9.6248

>  <SCORE.INTER.CONST>
1

>  <SCORE.INTER.POLAR>
0

>  <SCORE.INTER.ROT>
5

>  <SCORE.INTER.SOLV>
13.9261

>  <SCORE.INTER.VDW>
-17.9919

>  <SCORE.INTER.norm>
-0.96248

>  <SCORE.INTRA>
-0.463502

>  <SCORE.INTRA.DIHEDRAL>
-0.932265

>  <SCORE.INTRA.DIHEDRAL.0>
2.93688

>  <SCORE.INTRA.POLAR>
0

>  <SCORE.INTRA.POLAR.0>
0

>  <SCORE.INTRA.REPUL>
0

>  <SCORE.INTRA.REPUL.0>
0

>  <SCORE.INTRA.SOLV>
-0.334941

>  <SCORE.INTRA.SOLV.lig_0>
-32.2816

>  <SCORE.INTRA.VDW>
0.170101

>  <SCORE.INTRA.VDW.0>
-0.749945

>  <SCORE.INTRA.norm>
-0.0463502

>  <SCORE.RESTR>
0

>  <SCORE.RESTR.CAVITY>
0

>  <SCORE.RESTR.norm>
0

>  <SCORE.SYSTEM>
0

>  <SCORE.SYSTEM.CONST>
0

>  <SCORE.SYSTEM.DIHEDRAL>
0

>  <SCORE.SYSTEM.SOLV>
0

>  <SCORE.SYSTEM.norm>
0

>  <SCORE.heavy>
10

>  <SCORE.norm>
-1.00883

>  <RMSD>
5.304

$$$$
ligand
 OpenBabel11021811473D
libRbt.so/2013.1/901 2013/11/27
 10  9  0  0  0  0  0  0  0  0999 V2000
   26.5002   14.7643   19.8444 N   0  0  0  0  0  0  0  0  0  0  0  0
   27.7309   14.3335   19.1160 C   0  0  2  0  0  0  0  0  0  0  0  0
   28.9112   15.2542   19.4243 C   0  0  0  0  0  0  0  0  0  0  0  0
   28.7654   16.2694   20.1028 O   0  0  0  0  0  0  0  0  0  0  0  0
   27.4675   14.2325   17.6089 C   0  0  0  0  0  0  0  0  0  0  0  0
   26.6128   13.0227   17.2324 C   0  0  0  0  0  0  0  0  0  0  0  0
   27.4313   11.7444   17.1124 C   0  0  0  0  0  0  0  0  0  0  0  0
   26.5285   10.5185   17.0172 C   0  0  0  0  0  0  0  0  0  0  0  0
   27.2909    9.2251   16.9349 N   0  0  0  0  0  0  0  0  0  0  0  0
   30.0571   15.0112   19.0343 O   0  0  0  0  0  0  0  0  0  0  0  0
  2  1  1  1  0  0  0
  2  3  1  0  0  0  0
  2  5  1  0  0  0  0
  3  4  1  0  0  0  0
  3 10  1  0  0  0  0
  5  6  1  0  0  0  0
  6  7  1  0  0  0  0
  7  8  1  0  0  0  0
  8  9  1  0  0  0  0
M  END
>  <CHROM.1>
-5.70529164,-72.98762029,-82.62440736,168.51825415,-178.41430287,27.75994684
13.46721362,18.35604689,1.27309188,0.00280013,0.48000692

>  <Name>
ligand

>  <RI>
0

>  <Rbt.Current_Directory>
/home/itssahil/PROJECTS/Mol_Feturizer/New_Systems/rnas/3DIL

>  <Rbt.Executable>
rbdock ($Id: //depot/dev/client3/rdock/2013.1/src/exe/rbdock.cxx#4 $)

>  <Rbt.Library>
libRbt.so (2013.1, Build901 2013/11/27)

>  <Rbt.Parameter_File>
/export/apps/rDock/src/rDock_2013.1_src/data/scripts/dock_solv.prm

>  <Rbt.Receptor>
prm/blind_docking_40.prm

>  <SCORE>
-1.86968

>  <SCORE.INTER>
-2.44318

>  <SCORE.INTER.CONST>
1

>  <SCORE.INTER.POLAR>
0

>  <SCORE.INTER.ROT>
5

>  <SCORE.INTER.SOLV>
18.3114

>  <SCORE.INTER.VDW>
-14.6659

>  <SCORE.INTER.norm>
-0.244318

>  <SCORE.INTRA>
0.573507

>  <SCORE.INTRA.DIHEDRAL>
1.71298

>  <SCORE.INTRA.DIHEDRAL.0>
2.93688

>  <SCORE.INTRA.POLAR>
0

>  <SCORE.INTRA.POLAR.0>
0

>  <SCORE.INTRA.REPUL>
0

>  <SCORE.INTRA.REPUL.0>
0

>  <SCORE.INTRA.SOLV>
-0.484554

>  <SCORE.INTRA.SOLV.lig_0>
-32.2816

>  <SCORE.INTRA.VDW>
-0.0407043

>  <SCORE.INTRA.VDW.0>
-0.749945

>  <SCORE.INTRA.norm>
0.0573507

>  <SCORE.RESTR>
0

>  <SCORE.RESTR.CAVITY>
0

>  <SCORE.RESTR.norm>
0

>  <SCORE.SYSTEM>
0

>  <SCORE.SYSTEM.CONST>
0

>  <SCORE.SYSTEM.DIHEDRAL>
0

>  <SCORE.SYSTEM.SOLV>
0

>  <SCORE.SYSTEM.norm>
0

>  <SCORE.heavy>
10

>  <SCORE.norm>
-0.186968

>  <RMSD>
5.305

$$$$
ligand
 OpenBabel11021811473D
libRbt.so/2013.1/901 2013/11/27
 10  9  0  0  0  0  0  0  0  0999 V2000
   27.9913   17.2653   19.6080 N   0  0  0  0  0  0  0  0  0  0  0  0
   27.6604   15.8102   19.5454 C   0  0  2  0  0  0  0  0  0  0  0  0
   26.7207   15.4037   20.6801 C   0  0  0  0  0  0  0  0  0  0  0  0
   27.1009   15.3989   21.8496 O   0  0  0  0  0  0  0  0  0  0  0  0
   28.9357   14.9592   19.5313 C   0  0  0  0  0  0  0  0  0  0  0  0
   29.8148   15.1814   20.7616 C   0  0  0  0  0  0  0  0  0  0  0  0
   30.5709   16.5019   20.7079 C   0  0  0  0  0  0  0  0  0  0  0  0
   31.5464   16.6265   21.8741 C   0  0  0  0  0  0  0  0  0  0  0  0
   32.3217   17.9149   21.8640 N   0  0  0  0  0  0  0  0  0  0  0  0
   25.5431   15.0908   20.4817 O   0  0  0  0  0  0  0  0  0  0  0  0
  2  1  1  1  0  0  0
  2  3  1  0  0  0  0
  2  5  1  0  0  0  0
  3  4  1  0  0  0  0
  3 10  1  0  0  0  0
  5  6  1  0  0  0  0
  6  7  1  0  0  0  0
  7  8  1  0  0  0  0
  8  9  1  0  0  0  0
M  END
>  <CHROM.1>
-68.44040008,59.06497183,-75.16956281,-174.05200727,179.85523037,28.78863393
16.00348819,20.71198097,-2.99503232,0.33908681,1.70965584

>  <Name>
ligand

>  <RI>
0

>  <Rbt.Current_Directory>
/home/itssahil/PROJECTS/Mol_Feturizer/New_Systems/rnas/3DIL

>  <Rbt.Executable>
rbdock ($Id: //depot/dev/client3/rdock/2013.1/src/exe/rbdock.cxx#4 $)

>  <Rbt.Library>
libRbt.so (2013.1, Build901 2013/11/27)

>  <Rbt.Parameter_File>
/export/apps/rDock/src/rDock_2013.1_src/data/scripts/dock_solv.prm

>  <Rbt.Receptor>
prm/pocket_docking_6.prm

>  <SCORE>
-7.51904

>  <SCORE.INTER>
-8.32835

>  <SCORE.INTER.CONST>
1

>  <SCORE.INTER.POLAR>
0

>  <SCORE.INTER.ROT>
5

>  <SCORE.INTER.SOLV>
15.2737

>  <SCORE.INTER.VDW>
-17.5768

>  <SCORE.INTER.norm>
-0.832835

>  <SCORE.INTRA>
0.809312

>  <SCORE.INTRA.DIHEDRAL>
-0.386525

>  <SCORE.INTRA.DIHEDRAL.0>
2.93688

>  <SCORE.INTRA.POLAR>
0

>  <SCORE.INTRA.POLAR.0>
0

>  <SCORE.INTRA.REPUL>
0

>  <SCORE.INTRA.REPUL.0>
0

>  <SCORE.INTRA.SOLV>
0.839216

>  <SCORE.INTRA.SOLV.lig_0>
-32.2816

>  <SCORE.INTRA.VDW>
0.582967

>  <SCORE.INTRA.VDW.0>
-0.749945

>  <SCORE.INTRA.norm>
0.0809312

>  <SCORE.RESTR>
0

>  <SCORE.RESTR.CAVITY>
0

>  <SCORE.RESTR.norm>
0

>  <SCORE.SYSTEM>
0

>  <SCORE.SYSTEM.CONST>
0

>  <SCORE.SYSTEM.DIHEDRAL>
0

>  <SCORE.SYSTEM.SOLV>
0

>  <SCORE.SYSTEM.norm>
0

>  <SCORE.heavy>
10

>  <SCORE.norm>
-0.751904

>  <RMSD>
5.314

$$$$
ligand
 OpenBabel11021811473D
libRbt.so/2013.1/901 2013/11/27
 10  9  0  0  0  0  0  0  0  0999 V2000
   27.2446   14.1052   18.3958 N   0  0  0  0  0  0  0  0  0  0  0  0
   27.8338   14.8625   19.5403 C   0  0  2  0  0  0  0  0  0  0  0  0
   26.8209   15.0396   20.6711 C   0  0  0  0  0  0  0  0  0  0  0  0
   25.6132   15.0793   20.4424 O   0  0  0  0  0  0  0  0  0  0  0  0
   28.4030   16.2068   19.0717 C   0  0  0  0  0  0  0  0  0  0  0  0
   28.8682   17.0930   20.2268 C   0  0  0  0  0  0  0  0  0  0  0  0
   30.0795   16.5206   20.9503 C   0  0  0  0  0  0  0  0  0  0  0  0
   31.3505   16.7026   20.1265 C   0  0  0  0  0  0  0  0  0  0  0  0
   32.6055   16.3986   20.8970 N   0  0  0  0  0  0  0  0  0  0  0  0
   27.1612   15.1230   21.8548 O   0  0  0  0  0  0  0  0  0  0  0  0
  2  1  1  6  0  0  0
  2  3  1  0  0  0  0
  2  5  1  0  0  0  0
  3  4  1  0  0  0  0
  3 10  1  0  0  0  0
  5  6  1  0  0  0  0
  6  7  1  0  0  0  0
  7  8  1  0  0  0  0
  8  9  1  0  0  0  0
M  END
>  <CHROM.1>
-28.30807817,173.16428923,67.23254172,74.93036761,168.94363301,28.56670224
15.71183370,20.24222417,-2.97883340,0.30966107,1.31848486

>  <Name>
ligand

>  <RI>
0

>  <Rbt.Current_Directory>
/home/itssahil/PROJECTS/Mol_Feturizer/New_Systems/rnas/3DIL

>  <Rbt.Executable>
rbdock ($Id: //depot/dev/client3/rdock/2013.1/src/exe/rbdock.cxx#4 $)

>  <Rbt.Library>
libRbt.so (2013.1, Build901 2013/11/27)

>  <Rbt.Parameter_File>
/export/apps/rDock/src/rDock_2013.1_src/data/scripts/dock_solv.prm

>  <Rbt.Receptor>
prm/pocket_docking_2.prm

>  <SCORE>
-8.10745

>  <SCORE.INTER>
-8.4381

>  <SCORE.INTER.CONST>
1

>  <SCORE.INTER.POLAR>
0

>  <SCORE.INTER.ROT>
5

>  <SCORE.INTER.SOLV>
15.9665

>  <SCORE.INTER.VDW>
-17.8809

>  <SCORE.INTER.norm>
-0.84381

>  <SCORE.INTRA>
0.330651

>  <SCORE.INTRA.DIHEDRAL>
0.379229

>  <SCORE.INTRA.DIHEDRAL.0>
2.93688

>  <SCORE.INTRA.POLAR>
0

>  <SCORE.INTRA.POLAR.0>
0

>  <SCORE.INTRA.REPUL>
0

>  <SCORE.INTRA.REPUL.0>
0

>  <SCORE.INTRA.SOLV>
-1.20399

>  <SCORE.INTRA.SOLV.lig_0>
-32.2816

>  <SCORE.INTRA.VDW>
0.743031

>  <SCORE.INTRA.VDW.0>
-0.749945

>  <SCORE.INTRA.norm>
0.0330651

>  <SCORE.RESTR>
0

>  <SCORE.RESTR.CAVITY>
0

>  <SCORE.RESTR.norm>
0

>  <SCORE.SYSTEM>
0

>  <SCORE.SYSTEM.CONST>
0

>  <SCORE.SYSTEM.DIHEDRAL>
0

>  <SCORE.SYSTEM.SOLV>
0

>  <SCORE.SYSTEM.norm>
0

>  <SCORE.heavy>
10

>  <SCORE.norm>
-0.810745

>  <RMSD>
5.315

$$$$
ligand
 OpenBabel11021811473D
libRbt.so/2013.1/901 2013/11/27
 10  9  0  0  0  0  0  0  0  0999 V2000
   28.5017   17.0052   20.2074 N   0  0  0  0  0  0  0  0  0  0  0  0
   28.4801   15.5372   20.4815 C   0  0  2  0  0  0  0  0  0  0  0  0
   27.0570   14.9822   20.4308 C   0  0  0  0  0  0  0  0  0  0  0  0
   26.6268   14.4265   19.4216 O   0  0  0  0  0  0  0  0  0  0  0  0
   29.1668   15.2194   21.8151 C   0  0  0  0  0  0  0  0  0  0  0  0
   30.6569   15.5591   21.8147 C   0  0  0  0  0  0  0  0  0  0  0  0
   30.9136   17.0589   21.8713 C   0  0  0  0  0  0  0  0  0  0  0  0
   32.4066   17.3655   21.8067 C   0  0  0  0  0  0  0  0  0  0  0  0
   33.0273   17.0161   20.4824 N   0  0  0  0  0  0  0  0  0  0  0  0
   26.2910   15.0409   21.3972 O   0  0  0  0  0  0  0  0  0  0  0  0
  2  1  1  1  0  0  0
  2  3  1  0  0  0  0
  2  5  1  0  0  0  0
  3  4  1  0  0  0  0
  3 10  1  0  0  0  0
  5  6  1  0  0  0  0
  6  7  1  0  0  0  0
  7  8  1  0  0  0  0
  8  9  1  0  0  0  0
M  END
>  <CHROM.1>
97.95406271,-64.38110617,73.18860663,-177.47008393,67.01370796,29.27073047
15.90375612,20.96855087,-3.05451541,0.39282765,1.78224610

>  <Name>
ligand

>  <RI>
0

>  <Rbt.Current_Directory>
/home/itssahil/PROJECTS/Mol_Feturizer/New_Systems/rnas/3DIL

>  <Rbt.Executable>
rbdock ($Id: //depot/dev/client3/rdock/2013.1/src/exe/rbdock.cxx#4 $)

>  <Rbt.Library>
libRbt.so (2013.1, Build901 2013/11/27)

>  <Rbt.Parameter_File>
/export/apps/rDock/src/rDock_2013.1_src/data/scripts/dock_solv.prm

>  <Rbt.Receptor>
prm/pocket_docking_7.prm

>  <SCORE>
-7.65016

>  <SCORE.INTER>
-8.71026

>  <SCORE.INTER.CONST>
1

>  <SCORE.INTER.POLAR>
0

>  <SCORE.INTER.ROT>
5

>  <SCORE.INTER.SOLV>
15.4471

>  <SCORE.INTER.VDW>
-17.8892

>  <SCORE.INTER.norm>
-0.871026

>  <SCORE.INTRA>
1.0601

>  <SCORE.INTRA.DIHEDRAL>
-0.379179

>  <SCORE.INTRA.DIHEDRAL.0>
2.93688

>  <SCORE.INTRA.POLAR>
0

>  <SCORE.INTRA.POLAR.0>
0

>  <SCORE.INTRA.REPUL>
0

>  <SCORE.INTRA.REPUL.0>
0

>  <SCORE.INTRA.SOLV>
1.65405

>  <SCORE.INTRA.SOLV.lig_0>
-32.2816

>  <SCORE.INTRA.VDW>
0.422661

>  <SCORE.INTRA.VDW.0>
-0.749945

>  <SCORE.INTRA.norm>
0.10601

>  <SCORE.RESTR>
0

>  <SCORE.RESTR.CAVITY>
0

>  <SCORE.RESTR.norm>
0

>  <SCORE.SYSTEM>
0

>  <SCORE.SYSTEM.CONST>
0

>  <SCORE.SYSTEM.DIHEDRAL>
0

>  <SCORE.SYSTEM.SOLV>
0

>  <SCORE.SYSTEM.norm>
0

>  <SCORE.heavy>
10

>  <SCORE.norm>
-0.765016

>  <RMSD>
5.320

$$$$
ligand
 OpenBabel11021811473D
libRbt.so/2013.1/901 2013/11/27
 10  9  0  0  0  0  0  0  0  0999 V2000
   27.8560   14.6147   18.4489 N   0  0  0  0  0  0  0  0  0  0  0  0
   28.1076   14.6880   19.9192 C   0  0  2  0  0  0  0  0  0  0  0  0
   26.9046   15.2690   20.6617 C   0  0  0  0  0  0  0  0  0  0  0  0
   26.9292   15.4356   21.8799 O   0  0  0  0  0  0  0  0  0  0  0  0
   29.3914   15.4721   20.2162 C   0  0  0  0  0  0  0  0  0  0  0  0
   29.8099   15.3976   21.6842 C   0  0  0  0  0  0  0  0  0  0  0  0
   31.1674   16.0388   21.9373 C   0  0  0  0  0  0  0  0  0  0  0  0
   31.1058   17.5517   21.7512 C   0  0  0  0  0  0  0  0  0  0  0  0
   32.4295   18.2307   21.9700 N   0  0  0  0  0  0  0  0  0  0  0  0
   25.8748   15.6189   20.0777 O   0  0  0  0  0  0  0  0  0  0  0  0
  2  1  1  6  0  0  0
  2  3  1  0  0  0  0
  2  5  1  0  0  0  0
  3  4  1  0  0  0  0
  3 10  1  0  0  0  0
  5  6  1  0  0  0  0
  6  7  1  0  0  0  0
  7  8  1  0  0  0  0
  8  9  1  0  0  0  0
M  END
>  <CHROM.1>
-178.46497183,-171.27093853,173.25327213,68.53469091,-179.12402813,28.92123785
15.83923339,20.86771447,-2.65067035,0.22207554,1.08560512

>  <Name>
ligand

>  <RI>
0

>  <Rbt.Current_Directory>
/home/itssahil/PROJECTS/Mol_Feturizer/New_Systems/rnas/3DIL

>  <Rbt.Executable>
rbdock ($Id: //depot/dev/client3/rdock/2013.1/src/exe/rbdock.cxx#4 $)

>  <Rbt.Library>
libRbt.so (2013.1, Build901 2013/11/27)

>  <Rbt.Parameter_File>
/export/apps/rDock/src/rDock_2013.1_src/data/scripts/dock_solv.prm

>  <Rbt.Receptor>
prm/pocket_docking_4.prm

>  <SCORE>
-9.17861

>  <SCORE.INTER>
-9.15611

>  <SCORE.INTER.CONST>
1

>  <SCORE.INTER.POLAR>
0

>  <SCORE.INTER.ROT>
5

>  <SCORE.INTER.SOLV>
14.0579

>  <SCORE.INTER.VDW>
-17.7234

>  <SCORE.INTER.norm>
-0.915611

>  <SCORE.INTRA>
-0.0224989

>  <SCORE.INTRA.DIHEDRAL>
-0.661067

>  <SCORE.INTRA.DIHEDRAL.0>
2.93688

>  <SCORE.INTRA.POLAR>
0

>  <SCORE.INTRA.POLAR.0>
0

>  <SCORE.INTRA.REPUL>
0

>  <SCORE.INTRA.REPUL.0>
0

>  <SCORE.INTRA.SOLV>
-1.28508

>  <SCORE.INTRA.SOLV.lig_0>
-32.2816

>  <SCORE.INTRA.VDW>
0.950575

>  <SCORE.INTRA.VDW.0>
-0.749945

>  <SCORE.INTRA.norm>
-0.00224989

>  <SCORE.RESTR>
0

>  <SCORE.RESTR.CAVITY>
0

>  <SCORE.RESTR.norm>
0

>  <SCORE.SYSTEM>
0

>  <SCORE.SYSTEM.CONST>
0

>  <SCORE.SYSTEM.DIHEDRAL>
0

>  <SCORE.SYSTEM.SOLV>
0

>  <SCORE.SYSTEM.norm>
0

>  <SCORE.heavy>
10

>  <SCORE.norm>
-0.917861

>  <RMSD>
5.321

$$$$
ligand
 OpenBabel11021811473D
libRbt.so/2013.1/901 2013/11/27
 10  9  0  0  0  0  0  0  0  0999 V2000
   27.3003   15.0021   18.3105 N   0  0  0  0  0  0  0  0  0  0  0  0
   27.8451   15.4053   19.6414 C   0  0  2  0  0  0  0  0  0  0  0  0
   26.7844   15.2893   20.7355 C   0  0  0  0  0  0  0  0  0  0  0  0
   27.0882   15.3567   21.9253 O   0  0  0  0  0  0  0  0  0  0  0  0
   28.4482   16.8137   19.5818 C   0  0  0  0  0  0  0  0  0  0  0  0
   29.8786   16.8733   20.1168 C   0  0  0  0  0  0  0  0  0  0  0  0
   29.9695   16.4798   21.5848 C   0  0  0  0  0  0  0  0  0  0  0  0
   31.4219   16.3909   22.0429 C   0  0  0  0  0  0  0  0  0  0  0  0
   32.1545   17.7008   21.9503 N   0  0  0  0  0  0  0  0  0  0  0  0
   25.5846   15.1511   20.4796 O   0  0  0  0  0  0  0  0  0  0  0  0
  2  1  1  6  0  0  0
  2  3  1  0  0  0  0
  2  5  1  0  0  0  0
  3  4  1  0  0  0  0
  3 10  1  0  0  0  0
  5  6  1  0  0  0  0
  6  7  1  0  0  0  0
  7  8  1  0  0  0  0
  8  9  1  0  0  0  0
M  END
>  <CHROM.1>
167.63331778,-127.58414465,-61.86193803,173.33237397,62.31877857,28.61495906
16.03943731,20.65852691,-2.85159705,0.37958322,1.61737397

>  <Name>
ligand

>  <RI>
0

>  <Rbt.Current_Directory>
/home/itssahil/PROJECTS/Mol_Feturizer/New_Systems/rnas/3DIL

>  <Rbt.Executable>
rbdock ($Id: //depot/dev/client3/rdock/2013.1/src/exe/rbdock.cxx#4 $)

>  <Rbt.Library>
libRbt.so (2013.1, Build901 2013/11/27)

>  <Rbt.Parameter_File>
/export/apps/rDock/src/rDock_2013.1_src/data/scripts/dock_solv.prm

>  <Rbt.Receptor>
prm/pocket_docking_4.prm

>  <SCORE>
-7.65586

>  <SCORE.INTER>
-9.73357

>  <SCORE.INTER.CONST>
1

>  <SCORE.INTER.POLAR>
0

>  <SCORE.INTER.ROT>
5

>  <SCORE.INTER.SOLV>
13.6104

>  <SCORE.INTER.VDW>
-17.9592

>  <SCORE.INTER.norm>
-0.973357

>  <SCORE.INTRA>
2.0773

>  <SCORE.INTRA.DIHEDRAL>
4.25644

>  <SCORE.INTRA.DIHEDRAL.0>
2.93688

>  <SCORE.INTRA.POLAR>
0

>  <SCORE.INTRA.POLAR.0>
0

>  <SCORE.INTRA.REPUL>
0

>  <SCORE.INTRA.REPUL.0>
0

>  <SCORE.INTRA.SOLV>
-0.25299

>  <SCORE.INTRA.SOLV.lig_0>
-32.2816

>  <SCORE.INTRA.VDW>
0.0755759

>  <SCORE.INTRA.VDW.0>
-0.749945

>  <SCORE.INTRA.norm>
0.20773

>  <SCORE.RESTR>
0.000408091

>  <SCORE.RESTR.CAVITY>
0.000408091

>  <SCORE.RESTR.norm>
4.08091e-05

>  <SCORE.SYSTEM>
0

>  <SCORE.SYSTEM.CONST>
0

>  <SCORE.SYSTEM.DIHEDRAL>
0

>  <SCORE.SYSTEM.SOLV>
0

>  <SCORE.SYSTEM.norm>
0

>  <SCORE.heavy>
10

>  <SCORE.norm>
-0.765586

>  <RMSD>
5.327

$$$$
ligand
 OpenBabel11021811473D
libRbt.so/2013.1/901 2013/11/27
 10  9  0  0  0  0  0  0  0  0999 V2000
   28.5053   14.5640   18.8315 N   0  0  0  0  0  0  0  0  0  0  0  0
   27.7534   14.5162   20.1210 C   0  0  2  0  0  0  0  0  0  0  0  0
   26.5670   15.4797   20.1098 C   0  0  0  0  0  0  0  0  0  0  0  0
   26.6616   16.5989   19.6090 O   0  0  0  0  0  0  0  0  0  0  0  0
   28.6869   14.7784   21.3088 C   0  0  0  0  0  0  0  0  0  0  0  0
   29.5362   16.0369   21.1336 C   0  0  0  0  0  0  0  0  0  0  0  0
   30.5754   16.1976   22.2348 C   0  0  0  0  0  0  0  0  0  0  0  0
   31.5051   17.3726   21.9482 C   0  0  0  0  0  0  0  0  0  0  0  0
   32.3417   17.1799   20.7138 N   0  0  0  0  0  0  0  0  0  0  0  0
   25.4641   15.1739   20.5727 O   0  0  0  0  0  0  0  0  0  0  0  0
  2  1  1  6  0  0  0
  2  3  1  0  0  0  0
  2  5  1  0  0  0  0
  3  4  1  0  0  0  0
  3 10  1  0  0  0  0
  5  6  1  0  0  0  0
  6  7  1  0  0  0  0
  7  8  1  0  0  0  0
  8  9  1  0  0  0  0
M  END
>  <CHROM.1>
-40.32503102,50.73052239,-173.10800899,173.66578329,-64.40473765,28.72232455
15.80600182,20.65436565,-2.74467992,0.10239669,0.98947604

>  <Name>
ligand

>  <RI>
0

>  <Rbt.Current_Directory>
/home/itssahil/PROJECTS/Mol_Feturizer/New_Systems/rnas/3DIL

>  <Rbt.Executable>
rbdock ($Id: //depot/dev/client3/rdock/2013.1/src/exe/rbdock.cxx#4 $)

>  <Rbt.Library>
libRbt.so (2013.1, Build901 2013/11/27)

>  <Rbt.Parameter_File>
/export/apps/rDock/src/rDock_2013.1_src/data/scripts/dock_solv.prm

>  <Rbt.Receptor>
prm/pocket_docking_3.prm

>  <SCORE>
-8.94302

>  <SCORE.INTER>
-8.94652

>  <SCORE.INTER.CONST>
1

>  <SCORE.INTER.POLAR>
0

>  <SCORE.INTER.ROT>
5

>  <SCORE.INTER.SOLV>
12.8723

>  <SCORE.INTER.VDW>
-17.1884

>  <SCORE.INTER.norm>
-0.894652

>  <SCORE.INTRA>
0.0034972

>  <SCORE.INTRA.DIHEDRAL>
-0.593918

>  <SCORE.INTRA.DIHEDRAL.0>
2.93688

>  <SCORE.INTRA.POLAR>
0

>  <SCORE.INTRA.POLAR.0>
0

>  <SCORE.INTRA.REPUL>
0

>  <SCORE.INTRA.REPUL.0>
0

>  <SCORE.INTRA.SOLV>
0.476447

>  <SCORE.INTRA.SOLV.lig_0>
-32.2816

>  <SCORE.INTRA.VDW>
0.062233

>  <SCORE.INTRA.VDW.0>
-0.749945

>  <SCORE.INTRA.norm>
0.00034972

>  <SCORE.RESTR>
0

>  <SCORE.RESTR.CAVITY>
0

>  <SCORE.RESTR.norm>
0

>  <SCORE.SYSTEM>
0

>  <SCORE.SYSTEM.CONST>
0

>  <SCORE.SYSTEM.DIHEDRAL>
0

>  <SCORE.SYSTEM.SOLV>
0

>  <SCORE.SYSTEM.norm>
0

>  <SCORE.heavy>
10

>  <SCORE.norm>
-0.894302

>  <RMSD>
5.329

$$$$
ligand
 OpenBabel11021811473D
libRbt.so/2013.1/901 2013/11/27
 10  9  0  0  0  0  0  0  0  0999 V2000
   27.2416   14.2460   18.3434 N   0  0  0  0  0  0  0  0  0  0  0  0
   27.9797   14.5375   19.6087 C   0  0  2  0  0  0  0  0  0  0  0  0
   27.0442   15.0872   20.6850 C   0  0  0  0  0  0  0  0  0  0  0  0
   27.4220   15.2218   21.8475 O   0  0  0  0  0  0  0  0  0  0  0  0
   29.1615   15.4790   19.3482 C   0  0  0  0  0  0  0  0  0  0  0  0
   30.0627   15.6573   20.5696 C   0  0  0  0  0  0  0  0  0  0  0  0
   31.3397   16.4208   20.2462 C   0  0  0  0  0  0  0  0  0  0  0  0
   32.1023   16.7830   21.5168 C   0  0  0  0  0  0  0  0  0  0  0  0
   31.4060   17.8227   22.3507 N   0  0  0  0  0  0  0  0  0  0  0  0
   25.8885   15.4428   20.4359 O   0  0  0  0  0  0  0  0  0  0  0  0
  2  1  1  6  0  0  0
  2  3  1  0  0  0  0
  2  5  1  0  0  0  0
  3  4  1  0  0  0  0
  3 10  1  0  0  0  0
  5  6  1  0  0  0  0
  6  7  1  0  0  0  0
  7  8  1  0  0  0  0
  8  9  1  0  0  0  0
M  END
>  <CHROM.1>
170.26824581,-172.11590067,171.41708885,170.58398324,-69.35624161,28.93460728
15.67668256,20.51693469,-2.70711782,0.25599392,1.12100668

>  <Name>
ligand

>  <RI>
0

>  <Rbt.Current_Directory>
/home/itssahil/PROJECTS/Mol_Feturizer/New_Systems/rnas/3DIL

>  <Rbt.Executable>
rbdock ($Id: //depot/dev/client3/rdock/2013.1/src/exe/rbdock.cxx#4 $)

>  <Rbt.Library>
libRbt.so (2013.1, Build901 2013/11/27)

>  <Rbt.Parameter_File>
/export/apps/rDock/src/rDock_2013.1_src/data/scripts/dock_solv.prm

>  <Rbt.Receptor>
prm/pocket_docking_2.prm

>  <SCORE>
-7.97182

>  <SCORE.INTER>
-7.7492

>  <SCORE.INTER.CONST>
1

>  <SCORE.INTER.POLAR>
0

>  <SCORE.INTER.ROT>
5

>  <SCORE.INTER.SOLV>
15.1843

>  <SCORE.INTER.VDW>
-17.1609

>  <SCORE.INTER.norm>
-0.77492

>  <SCORE.INTRA>
-0.223022

>  <SCORE.INTRA.DIHEDRAL>
-0.242442

>  <SCORE.INTRA.DIHEDRAL.0>
2.93688

>  <SCORE.INTRA.POLAR>
0

>  <SCORE.INTRA.POLAR.0>
0

>  <SCORE.INTRA.REPUL>
0

>  <SCORE.INTRA.REPUL.0>
0

>  <SCORE.INTRA.SOLV>
-0.626257

>  <SCORE.INTRA.SOLV.lig_0>
-32.2816

>  <SCORE.INTRA.VDW>
0.211327

>  <SCORE.INTRA.VDW.0>
-0.749945

>  <SCORE.INTRA.norm>
-0.0223022

>  <SCORE.RESTR>
0.00040426

>  <SCORE.RESTR.CAVITY>
0.00040426

>  <SCORE.RESTR.norm>
4.0426e-05

>  <SCORE.SYSTEM>
0

>  <SCORE.SYSTEM.CONST>
0

>  <SCORE.SYSTEM.DIHEDRAL>
0

>  <SCORE.SYSTEM.SOLV>
0

>  <SCORE.SYSTEM.norm>
0

>  <SCORE.heavy>
10

>  <SCORE.norm>
-0.797182

>  <RMSD>
5.330

$$$$
ligand
 OpenBabel11021811473D
libRbt.so/2013.1/901 2013/11/27
 10  9  0  0  0  0  0  0  0  0999 V2000
   27.2165   14.6081   18.3201 N   0  0  0  0  0  0  0  0  0  0  0  0
   27.8357   15.1204   19.5790 C   0  0  2  0  0  0  0  0  0  0  0  0
   26.7976   15.2644   20.6915 C   0  0  0  0  0  0  0  0  0  0  0  0
   25.5937   15.2705   20.4408 O   0  0  0  0  0  0  0  0  0  0  0  0
   28.5830   16.4350   19.3256 C   0  0  0  0  0  0  0  0  0  0  0  0
   29.4366   16.8747   20.5147 C   0  0  0  0  0  0  0  0  0  0  0  0
   30.5884   15.9183   20.7917 C   0  0  0  0  0  0  0  0  0  0  0  0
   31.3610   16.3325   22.0402 C   0  0  0  0  0  0  0  0  0  0  0  0
   32.0077   17.6844   21.9163 N   0  0  0  0  0  0  0  0  0  0  0  0
   27.1137   15.3532   21.8816 O   0  0  0  0  0  0  0  0  0  0  0  0
  2  1  1  6  0  0  0
  2  3  1  0  0  0  0
  2  5  1  0  0  0  0
  3  4  1  0  0  0  0
  3 10  1  0  0  0  0
  5  6  1  0  0  0  0
  6  7  1  0  0  0  0
  7  8  1  0  0  0  0
  8  9  1  0  0  0  0
M  END
>  <CHROM.1>
-16.50299131,-169.89682303,65.72701923,-176.07077265,-62.39464939,28.62115741
15.88436847,20.57228082,-2.78568674,0.31475132,1.43035550

>  <Name>
ligand

>  <RI>
0

>  <Rbt.Current_Directory>
/home/itssahil/PROJECTS/Mol_Feturizer/New_Systems/rnas/3DIL

>  <Rbt.Executable>
rbdock ($Id: //depot/dev/client3/rdock/2013.1/src/exe/rbdock.cxx#4 $)

>  <Rbt.Library>
libRbt.so (2013.1, Build901 2013/11/27)

>  <Rbt.Parameter_File>
/export/apps/rDock/src/rDock_2013.1_src/data/scripts/dock_solv.prm

>  <Rbt.Receptor>
prm/pocket_docking_8.prm

>  <SCORE>
-10.1674

>  <SCORE.INTER>
-9.81141

>  <SCORE.INTER.CONST>
1

>  <SCORE.INTER.POLAR>
0

>  <SCORE.INTER.ROT>
5

>  <SCORE.INTER.SOLV>
13.7361

>  <SCORE.INTER.VDW>
-18.053

>  <SCORE.INTER.norm>
-0.981141

>  <SCORE.INTRA>
-0.356004

>  <SCORE.INTRA.DIHEDRAL>
-0.791863

>  <SCORE.INTRA.DIHEDRAL.0>
2.93688

>  <SCORE.INTRA.POLAR>
0

>  <SCORE.INTRA.POLAR.0>
0

>  <SCORE.INTRA.REPUL>
0

>  <SCORE.INTRA.REPUL.0>
0

>  <SCORE.INTRA.SOLV>
-0.320539

>  <SCORE.INTRA.SOLV.lig_0>
-32.2816

>  <SCORE.INTRA.VDW>
0.200197

>  <SCORE.INTRA.VDW.0>
-0.749945

>  <SCORE.INTRA.norm>
-0.0356004

>  <SCORE.RESTR>
0

>  <SCORE.RESTR.CAVITY>
0

>  <SCORE.RESTR.norm>
0

>  <SCORE.SYSTEM>
0

>  <SCORE.SYSTEM.CONST>
0

>  <SCORE.SYSTEM.DIHEDRAL>
0

>  <SCORE.SYSTEM.SOLV>
0

>  <SCORE.SYSTEM.norm>
0

>  <SCORE.heavy>
10

>  <SCORE.norm>
-1.01674

>  <RMSD>
5.330

$$$$
ligand
 OpenBabel11021811473D
libRbt.so/2013.1/901 2013/11/27
 10  9  0  0  0  0  0  0  0  0999 V2000
   27.1140   14.3188   18.3531 N   0  0  0  0  0  0  0  0  0  0  0  0
   27.7657   15.0410   19.4863 C   0  0  2  0  0  0  0  0  0  0  0  0
   26.8245   15.1619   20.6844 C   0  0  0  0  0  0  0  0  0  0  0  0
   27.2622   15.2983   21.8255 O   0  0  0  0  0  0  0  0  0  0  0  0
   28.2888   16.4096   19.0343 C   0  0  0  0  0  0  0  0  0  0  0  0
   29.2620   17.0358   20.0326 C   0  0  0  0  0  0  0  0  0  0  0  0
   30.5349   16.2170   20.1988 C   0  0  0  0  0  0  0  0  0  0  0  0
   31.5939   16.9952   20.9734 C   0  0  0  0  0  0  0  0  0  0  0  0
   31.1507   17.3845   22.3565 N   0  0  0  0  0  0  0  0  0  0  0  0
   25.5961   15.1555   20.5618 O   0  0  0  0  0  0  0  0  0  0  0  0
  2  1  1  6  0  0  0
  2  3  1  0  0  0  0
  2  5  1  0  0  0  0
  3  4  1  0  0  0  0
  3 10  1  0  0  0  0
  5  6  1  0  0  0  0
  6  7  1  0  0  0  0
  7  8  1  0  0  0  0
  8  9  1  0  0  0  0
M  END
>  <CHROM.1>
155.37075700,-165.41199601,63.70924269,168.60023695,60.04419714,28.51012554
15.89963099,20.37565212,-2.81799485,0.38528069,1.38649694

>  <Name>
ligand

>  <RI>
0

>  <Rbt.Current_Directory>
/home/itssahil/PROJECTS/Mol_Feturizer/New_Systems/rnas/3DIL

>  <Rbt.Executable>
rbdock ($Id: //depot/dev/client3/rdock/2013.1/src/exe/rbdock.cxx#4 $)

>  <Rbt.Library>
libRbt.so (2013.1, Build901 2013/11/27)

>  <Rbt.Parameter_File>
/export/apps/rDock/src/rDock_2013.1_src/data/scripts/dock_solv.prm

>  <Rbt.Receptor>
prm/pocket_docking_7.prm

>  <SCORE>
-9.38987

>  <SCORE.INTER>
-9.28948

>  <SCORE.INTER.CONST>
1

>  <SCORE.INTER.POLAR>
0

>  <SCORE.INTER.ROT>
5

>  <SCORE.INTER.SOLV>
14.6096

>  <SCORE.INTER.VDW>
-17.9962

>  <SCORE.INTER.norm>
-0.928948

>  <SCORE.INTRA>
-0.100395

>  <SCORE.INTRA.DIHEDRAL>
-0.128576

>  <SCORE.INTRA.DIHEDRAL.0>
2.93688

>  <SCORE.INTRA.POLAR>
0

>  <SCORE.INTRA.POLAR.0>
0

>  <SCORE.INTRA.REPUL>
0

>  <SCORE.INTRA.REPUL.0>
0

>  <SCORE.INTRA.SOLV>
-0.282834

>  <SCORE.INTRA.SOLV.lig_0>
-32.2816

>  <SCORE.INTRA.VDW>
0.105311

>  <SCORE.INTRA.VDW.0>
-0.749945

>  <SCORE.INTRA.norm>
-0.0100395

>  <SCORE.RESTR>
0

>  <SCORE.RESTR.CAVITY>
0

>  <SCORE.RESTR.norm>
0

>  <SCORE.SYSTEM>
0

>  <SCORE.SYSTEM.CONST>
0

>  <SCORE.SYSTEM.DIHEDRAL>
0

>  <SCORE.SYSTEM.SOLV>
0

>  <SCORE.SYSTEM.norm>
0

>  <SCORE.heavy>
10

>  <SCORE.norm>
-0.938987

>  <RMSD>
5.332

$$$$
ligand
 OpenBabel11021811473D
libRbt.so/2013.1/901 2013/11/27
 10  9  0  0  0  0  0  0  0  0999 V2000
   27.2225   14.4815   18.3308 N   0  0  0  0  0  0  0  0  0  0  0  0
   27.8324   15.0062   19.5892 C   0  0  2  0  0  0  0  0  0  0  0  0
   26.7760   15.2197   20.6729 C   0  0  0  0  0  0  0  0  0  0  0  0
   27.0931   15.3382   21.8552 O   0  0  0  0  0  0  0  0  0  0  0  0
   28.6337   16.2847   19.3170 C   0  0  0  0  0  0  0  0  0  0  0  0
   29.4474   16.7473   20.5253 C   0  0  0  0  0  0  0  0  0  0  0  0
   30.5713   15.7820   20.8762 C   0  0  0  0  0  0  0  0  0  0  0  0
   31.3676   16.2770   22.0796 C   0  0  0  0  0  0  0  0  0  0  0  0
   32.0258   17.6090   21.8482 N   0  0  0  0  0  0  0  0  0  0  0  0
   25.5725   15.3090   20.4129 O   0  0  0  0  0  0  0  0  0  0  0  0
  2  1  1  6  0  0  0
  2  3  1  0  0  0  0
  2  5  1  0  0  0  0
  3  4  1  0  0  0  0
  3 10  1  0  0  0  0
  5  6  1  0  0  0  0
  6  7  1  0  0  0  0
  7  8  1  0  0  0  0
  8  9  1  0  0  0  0
M  END
>  <CHROM.1>
162.61983095,-171.44169313,66.91284331,179.66254237,-60.90402318,28.62174795
15.80600753,20.57228047,-2.76980851,0.28646473,1.38073926

>  <Name>
ligand

>  <RI>
0

>  <Rbt.Current_Directory>
/home/itssahil/PROJECTS/Mol_Feturizer/New_Systems/rnas/3DIL

>  <Rbt.Executable>
rbdock ($Id: //depot/dev/client3/rdock/2013.1/src/exe/rbdock.cxx#4 $)

>  <Rbt.Library>
libRbt.so (2013.1, Build901 2013/11/27)

>  <Rbt.Parameter_File>
/export/apps/rDock/src/rDock_2013.1_src/data/scripts/dock_solv.prm

>  <Rbt.Receptor>
prm/pocket_docking_4.prm

>  <SCORE>
-10.2393

>  <SCORE.INTER>
-9.81649

>  <SCORE.INTER.CONST>
1

>  <SCORE.INTER.POLAR>
0

>  <SCORE.INTER.ROT>
5

>  <SCORE.INTER.SOLV>
13.8392

>  <SCORE.INTER.VDW>
-18.0907

>  <SCORE.INTER.norm>
-0.981649

>  <SCORE.INTRA>
-0.422799

>  <SCORE.INTRA.DIHEDRAL>
-1.00788

>  <SCORE.INTRA.DIHEDRAL.0>
2.93688

>  <SCORE.INTRA.POLAR>
0

>  <SCORE.INTRA.POLAR.0>
0

>  <SCORE.INTRA.REPUL>
0

>  <SCORE.INTRA.REPUL.0>
0

>  <SCORE.INTRA.SOLV>
-0.31058

>  <SCORE.INTRA.SOLV.lig_0>
-32.2816

>  <SCORE.INTRA.VDW>
0.236431

>  <SCORE.INTRA.VDW.0>
-0.749945

>  <SCORE.INTRA.norm>
-0.0422799

>  <SCORE.RESTR>
0

>  <SCORE.RESTR.CAVITY>
0

>  <SCORE.RESTR.norm>
0

>  <SCORE.SYSTEM>
0

>  <SCORE.SYSTEM.CONST>
0

>  <SCORE.SYSTEM.DIHEDRAL>
0

>  <SCORE.SYSTEM.SOLV>
0

>  <SCORE.SYSTEM.norm>
0

>  <SCORE.heavy>
10

>  <SCORE.norm>
-1.02393

>  <RMSD>
5.334

$$$$
ligand
 OpenBabel11021811473D
libRbt.so/2013.1/901 2013/11/27
 10  9  0  0  0  0  0  0  0  0999 V2000
   28.0950   15.0305   18.5728 N   0  0  0  0  0  0  0  0  0  0  0  0
   28.2661   15.4952   19.9819 C   0  0  2  0  0  0  0  0  0  0  0  0
   26.9833   15.3044   20.7906 C   0  0  0  0  0  0  0  0  0  0  0  0
   25.8800   15.3301   20.2481 O   0  0  0  0  0  0  0  0  0  0  0  0
   28.7531   16.9485   20.0234 C   0  0  0  0  0  0  0  0  0  0  0  0
   30.2647   17.0659   20.2161 C   0  0  0  0  0  0  0  0  0  0  0  0
   30.7243   16.5304   21.5652 C   0  0  0  0  0  0  0  0  0  0  0  0
   32.2258   16.7245   21.7529 C   0  0  0  0  0  0  0  0  0  0  0  0
   32.6314   18.1701   21.8349 N   0  0  0  0  0  0  0  0  0  0  0  0
   26.9954   15.0914   22.0066 O   0  0  0  0  0  0  0  0  0  0  0  0
  2  1  1  6  0  0  0
  2  3  1  0  0  0  0
  2  5  1  0  0  0  0
  3  4  1  0  0  0  0
  3 10  1  0  0  0  0
  5  6  1  0  0  0  0
  6  7  1  0  0  0  0
  7  8  1  0  0  0  0
  8  9  1  0  0  0  0
M  END
>  <CHROM.1>
-28.47688302,-97.80627686,-64.72239929,-177.22645356,65.82154263,29.04342061
16.15933253,20.71516211,-2.93449312,0.39250175,1.57908586

>  <Name>
ligand

>  <RI>
0

>  <Rbt.Current_Directory>
/home/itssahil/PROJECTS/Mol_Feturizer/New_Systems/rnas/3DIL

>  <Rbt.Executable>
rbdock ($Id: //depot/dev/client3/rdock/2013.1/src/exe/rbdock.cxx#4 $)

>  <Rbt.Library>
libRbt.so (2013.1, Build901 2013/11/27)

>  <Rbt.Parameter_File>
/export/apps/rDock/src/rDock_2013.1_src/data/scripts/dock_solv.prm

>  <Rbt.Receptor>
prm/pocket_docking_2.prm

>  <SCORE>
-7.58311

>  <SCORE.INTER>
-9.14164

>  <SCORE.INTER.CONST>
1

>  <SCORE.INTER.POLAR>
0

>  <SCORE.INTER.ROT>
5

>  <SCORE.INTER.SOLV>
12.2113

>  <SCORE.INTER.VDW>
-17.0982

>  <SCORE.INTER.norm>
-0.914164

>  <SCORE.INTRA>
1.55746

>  <SCORE.INTRA.DIHEDRAL>
2.93304

>  <SCORE.INTRA.DIHEDRAL.0>
2.93688

>  <SCORE.INTRA.POLAR>
0

>  <SCORE.INTRA.POLAR.0>
0

>  <SCORE.INTRA.REPUL>
0

>  <SCORE.INTRA.REPUL.0>
0

>  <SCORE.INTRA.SOLV>
0.124367

>  <SCORE.INTRA.SOLV.lig_0>
-32.2816

>  <SCORE.INTRA.VDW>
0.0287606

>  <SCORE.INTRA.VDW.0>
-0.749945

>  <SCORE.INTRA.norm>
0.155746

>  <SCORE.RESTR>
0.00106865

>  <SCORE.RESTR.CAVITY>
0.00106865

>  <SCORE.RESTR.norm>
0.000106865

>  <SCORE.SYSTEM>
0

>  <SCORE.SYSTEM.CONST>
0

>  <SCORE.SYSTEM.DIHEDRAL>
0

>  <SCORE.SYSTEM.SOLV>
0

>  <SCORE.SYSTEM.norm>
0

>  <SCORE.heavy>
10

>  <SCORE.norm>
-0.758311

>  <RMSD>
5.335

$$$$
ligand
 OpenBabel11021811473D
libRbt.so/2013.1/901 2013/11/27
 10  9  0  0  0  0  0  0  0  0999 V2000
   27.0289   14.2996   18.3867 N   0  0  0  0  0  0  0  0  0  0  0  0
   27.6902   15.0472   19.4977 C   0  0  2  0  0  0  0  0  0  0  0  0
   26.7934   15.1165   20.7334 C   0  0  0  0  0  0  0  0  0  0  0  0
   27.2722   15.2175   21.8616 O   0  0  0  0  0  0  0  0  0  0  0  0
   28.1279   16.4417   19.0344 C   0  0  0  0  0  0  0  0  0  0  0  0
   29.0651   17.1324   20.0245 C   0  0  0  0  0  0  0  0  0  0  0  0
   30.3937   16.4042   20.1759 C   0  0  0  0  0  0  0  0  0  0  0  0
   31.3423   17.1722   21.0909 C   0  0  0  0  0  0  0  0  0  0  0  0
   30.8190   17.3279   22.4920 N   0  0  0  0  0  0  0  0  0  0  0  0
   25.5613   15.1016   20.6562 O   0  0  0  0  0  0  0  0  0  0  0  0
  2  1  1  6  0  0  0
  2  3  1  0  0  0  0
  2  5  1  0  0  0  0
  3  4  1  0  0  0  0
  3 10  1  0  0  0  0
  5  6  1  0  0  0  0
  6  7  1  0  0  0  0
  7  8  1  0  0  0  0
  8  9  1  0  0  0  0
M  END
>  <CHROM.1>
152.58573028,-167.72464224,64.53627240,175.86669626,61.93007634,28.38176156
15.92251980,20.42105101,-2.81461914,0.44398256,1.44224651

>  <Name>
ligand

>  <RI>
0

>  <Rbt.Current_Directory>
/home/itssahil/PROJECTS/Mol_Feturizer/New_Systems/rnas/3DIL

>  <Rbt.Executable>
rbdock ($Id: //depot/dev/client3/rdock/2013.1/src/exe/rbdock.cxx#4 $)

>  <Rbt.Library>
libRbt.so (2013.1, Build901 2013/11/27)

>  <Rbt.Parameter_File>
/export/apps/rDock/src/rDock_2013.1_src/data/scripts/dock_solv.prm

>  <Rbt.Receptor>
prm/pocket_docking_6.prm

>  <SCORE>
-9.46063

>  <SCORE.INTER>
-8.9759

>  <SCORE.INTER.CONST>
1

>  <SCORE.INTER.POLAR>
0

>  <SCORE.INTER.ROT>
5

>  <SCORE.INTER.SOLV>
15.6514

>  <SCORE.INTER.VDW>
-18.1344

>  <SCORE.INTER.norm>
-0.89759

>  <SCORE.INTRA>
-0.484727

>  <SCORE.INTRA.DIHEDRAL>
-0.76535

>  <SCORE.INTRA.DIHEDRAL.0>
2.93688

>  <SCORE.INTRA.POLAR>
0

>  <SCORE.INTRA.POLAR.0>
0

>  <SCORE.INTRA.REPUL>
0

>  <SCORE.INTRA.REPUL.0>
0

>  <SCORE.INTRA.SOLV>
-0.308026

>  <SCORE.INTRA.SOLV.lig_0>
-32.2816

>  <SCORE.INTRA.VDW>
0.0519607

>  <SCORE.INTRA.VDW.0>
-0.749945

>  <SCORE.INTRA.norm>
-0.0484727

>  <SCORE.RESTR>
0

>  <SCORE.RESTR.CAVITY>
0

>  <SCORE.RESTR.norm>
0

>  <SCORE.SYSTEM>
0

>  <SCORE.SYSTEM.CONST>
0

>  <SCORE.SYSTEM.DIHEDRAL>
0

>  <SCORE.SYSTEM.SOLV>
0

>  <SCORE.SYSTEM.norm>
0

>  <SCORE.heavy>
10

>  <SCORE.norm>
-0.946063

>  <RMSD>
5.335

$$$$
ligand
 OpenBabel11021811473D
libRbt.so/2013.1/901 2013/11/27
 10  9  0  0  0  0  0  0  0  0999 V2000
   29.1225   16.4798   19.4914 N   0  0  0  0  0  0  0  0  0  0  0  0
   27.8869   15.7753   19.0355 C   0  0  2  0  0  0  0  0  0  0  0  0
   26.9426   15.4949   20.2041 C   0  0  0  0  0  0  0  0  0  0  0  0
   27.3762   15.2860   21.3358 O   0  0  0  0  0  0  0  0  0  0  0  0
   28.2385   14.4947   18.2692 C   0  0  0  0  0  0  0  0  0  0  0  0
   27.0094   13.7735   17.7169 C   0  0  0  0  0  0  0  0  0  0  0  0
   27.3298   12.3696   17.2223 C   0  0  0  0  0  0  0  0  0  0  0  0
   26.0565   11.5591   17.0008 C   0  0  0  0  0  0  0  0  0  0  0  0
   26.3166   10.0955   16.7748 N   0  0  0  0  0  0  0  0  0  0  0  0
   25.7150   15.4915   20.0744 O   0  0  0  0  0  0  0  0  0  0  0  0
  2  1  1  1  0  0  0
  2  3  1  0  0  0  0
  2  5  1  0  0  0  0
  3  4  1  0  0  0  0
  3 10  1  0  0  0  0
  5  6  1  0  0  0  0
  6  7  1  0  0  0  0
  7  8  1  0  0  0  0
  8  9  1  0  0  0  0
M  END
>  <CHROM.1>
-31.36113808,-176.98739141,-167.79497703,166.07251574,-168.69796149,27.17972193
14.08646664,18.74478572,-1.33881294,-0.56464770,-2.40736332

>  <Name>
ligand

>  <RI>
0

>  <Rbt.Current_Directory>
/home/itssahil/PROJECTS/Mol_Feturizer/New_Systems/rnas/3DIL

>  <Rbt.Executable>
rbdock ($Id: //depot/dev/client3/rdock/2013.1/src/exe/rbdock.cxx#4 $)

>  <Rbt.Library>
libRbt.so (2013.1, Build901 2013/11/27)

>  <Rbt.Parameter_File>
/export/apps/rDock/src/rDock_2013.1_src/data/scripts/dock_solv.prm

>  <Rbt.Receptor>
prm/blind_docking_100.prm

>  <SCORE>
-9.19496

>  <SCORE.INTER>
-8.64341

>  <SCORE.INTER.CONST>
1

>  <SCORE.INTER.POLAR>
0

>  <SCORE.INTER.ROT>
5

>  <SCORE.INTER.SOLV>
13.6977

>  <SCORE.INTER.VDW>
-17.2615

>  <SCORE.INTER.norm>
-0.864341

>  <SCORE.INTRA>
-0.551547

>  <SCORE.INTRA.DIHEDRAL>
0.505615

>  <SCORE.INTRA.DIHEDRAL.0>
2.93688

>  <SCORE.INTRA.POLAR>
0

>  <SCORE.INTRA.POLAR.0>
0

>  <SCORE.INTRA.REPUL>
0

>  <SCORE.INTRA.REPUL.0>
0

>  <SCORE.INTRA.SOLV>
-1.48414

>  <SCORE.INTRA.SOLV.lig_0>
-32.2816

>  <SCORE.INTRA.VDW>
-0.0622861

>  <SCORE.INTRA.VDW.0>
-0.749945

>  <SCORE.INTRA.norm>
-0.0551547

>  <SCORE.RESTR>
0

>  <SCORE.RESTR.CAVITY>
0

>  <SCORE.RESTR.norm>
0

>  <SCORE.SYSTEM>
0

>  <SCORE.SYSTEM.CONST>
0

>  <SCORE.SYSTEM.DIHEDRAL>
0

>  <SCORE.SYSTEM.SOLV>
0

>  <SCORE.SYSTEM.norm>
0

>  <SCORE.heavy>
10

>  <SCORE.norm>
-0.919496

>  <RMSD>
5.337

$$$$
ligand
 OpenBabel11021811473D
libRbt.so/2013.1/901 2013/11/27
 10  9  0  0  0  0  0  0  0  0999 V2000
   27.2157   14.4886   18.3294 N   0  0  0  0  0  0  0  0  0  0  0  0
   27.8173   15.0086   19.5936 C   0  0  2  0  0  0  0  0  0  0  0  0
   26.7588   15.1871   20.6815 C   0  0  0  0  0  0  0  0  0  0  0  0
   27.0765   15.3158   21.8626 O   0  0  0  0  0  0  0  0  0  0  0  0
   28.5930   16.3060   19.3372 C   0  0  0  0  0  0  0  0  0  0  0  0
   29.3827   16.7800   20.5568 C   0  0  0  0  0  0  0  0  0  0  0  0
   30.4780   15.8019   20.9591 C   0  0  0  0  0  0  0  0  0  0  0  0
   31.2413   16.3013   22.1819 C   0  0  0  0  0  0  0  0  0  0  0  0
   31.9483   17.6074   21.9473 N   0  0  0  0  0  0  0  0  0  0  0  0
   25.5520   15.2369   20.4263 O   0  0  0  0  0  0  0  0  0  0  0  0
  2  1  1  6  0  0  0
  2  3  1  0  0  0  0
  2  5  1  0  0  0  0
  3  4  1  0  0  0  0
  3 10  1  0  0  0  0
  5  6  1  0  0  0  0
  6  7  1  0  0  0  0
  7  8  1  0  0  0  0
  8  9  1  0  0  0  0
M  END
>  <CHROM.1>
163.68808539,-172.31336953,63.95037199,-179.72367169,-61.90223227,28.57400633
15.80303137,20.60901070,-2.75234867,0.30662876,1.40422755

>  <Name>
ligand

>  <RI>
0

>  <Rbt.Current_Directory>
/home/itssahil/PROJECTS/Mol_Feturizer/New_Systems/rnas/3DIL

>  <Rbt.Executable>
rbdock ($Id: //depot/dev/client3/rdock/2013.1/src/exe/rbdock.cxx#4 $)

>  <Rbt.Library>
libRbt.so (2013.1, Build901 2013/11/27)

>  <Rbt.Parameter_File>
/export/apps/rDock/src/rDock_2013.1_src/data/scripts/dock_solv.prm

>  <Rbt.Receptor>
prm/pocket_docking_6.prm

>  <SCORE>
-10.165

>  <SCORE.INTER>
-9.74037

>  <SCORE.INTER.CONST>
1

>  <SCORE.INTER.POLAR>
0

>  <SCORE.INTER.ROT>
5

>  <SCORE.INTER.SOLV>
13.9178

>  <SCORE.INTER.VDW>
-18.0662

>  <SCORE.INTER.norm>
-0.974037

>  <SCORE.INTRA>
-0.437776

>  <SCORE.INTRA.DIHEDRAL>
-1.18092

>  <SCORE.INTRA.DIHEDRAL.0>
2.93688

>  <SCORE.INTRA.POLAR>
0

>  <SCORE.INTRA.POLAR.0>
0

>  <SCORE.INTRA.REPUL>
0

>  <SCORE.INTRA.REPUL.0>
0

>  <SCORE.INTRA.SOLV>
-0.318302

>  <SCORE.INTRA.SOLV.lig_0>
-32.2816

>  <SCORE.INTRA.VDW>
0.311833

>  <SCORE.INTRA.VDW.0>
-0.749945

>  <SCORE.INTRA.norm>
-0.0437776

>  <SCORE.RESTR>
0.0131512

>  <SCORE.RESTR.CAVITY>
0.0131512

>  <SCORE.RESTR.norm>
0.00131512

>  <SCORE.SYSTEM>
0

>  <SCORE.SYSTEM.CONST>
0

>  <SCORE.SYSTEM.DIHEDRAL>
0

>  <SCORE.SYSTEM.SOLV>
0

>  <SCORE.SYSTEM.norm>
0

>  <SCORE.heavy>
10

>  <SCORE.norm>
-1.0165

>  <RMSD>
5.337

$$$$
ligand
 OpenBabel11021811473D
libRbt.so/2013.1/901 2013/11/27
 10  9  0  0  0  0  0  0  0  0999 V2000
   27.1581   14.4719   18.2826 N   0  0  0  0  0  0  0  0  0  0  0  0
   27.7842   15.0090   19.5277 C   0  0  2  0  0  0  0  0  0  0  0  0
   26.7491   15.1916   20.6372 C   0  0  0  0  0  0  0  0  0  0  0  0
   27.0908   15.3046   21.8132 O   0  0  0  0  0  0  0  0  0  0  0  0
   28.5450   16.3089   19.2407 C   0  0  0  0  0  0  0  0  0  0  0  0
   29.3876   16.7808   20.4252 C   0  0  0  0  0  0  0  0  0  0  0  0
   30.4568   15.7712   20.8199 C   0  0  0  0  0  0  0  0  0  0  0  0
   31.2598   16.2598   22.0214 C   0  0  0  0  0  0  0  0  0  0  0  0
   32.0251   17.5251   21.7487 N   0  0  0  0  0  0  0  0  0  0  0  0
   25.5384   15.2605   20.4055 O   0  0  0  0  0  0  0  0  0  0  0  0
  2  1  1  6  0  0  0
  2  3  1  0  0  0  0
  2  5  1  0  0  0  0
  3  4  1  0  0  0  0
  3 10  1  0  0  0  0
  5  6  1  0  0  0  0
  6  7  1  0  0  0  0
  7  8  1  0  0  0  0
  8  9  1  0  0  0  0
M  END
>  <CHROM.1>
162.03883512,-170.78934859,61.02633861,-178.83008411,-62.90491529,28.56757579
15.78823650,20.51442268,-2.78617007,0.30244476,1.42008606

>  <Name>
ligand

>  <RI>
0

>  <Rbt.Current_Directory>
/home/itssahil/PROJECTS/Mol_Feturizer/New_Systems/rnas/3DIL

>  <Rbt.Executable>
rbdock ($Id: //depot/dev/client3/rdock/2013.1/src/exe/rbdock.cxx#4 $)

>  <Rbt.Library>
libRbt.so (2013.1, Build901 2013/11/27)

>  <Rbt.Parameter_File>
/export/apps/rDock/src/rDock_2013.1_src/data/scripts/dock_solv.prm

>  <Rbt.Receptor>
prm/pocket_docking_3.prm

>  <SCORE>
-10.1914

>  <SCORE.INTER>
-9.77522

>  <SCORE.INTER.CONST>
1

>  <SCORE.INTER.POLAR>
0

>  <SCORE.INTER.ROT>
5

>  <SCORE.INTER.SOLV>
14.0047

>  <SCORE.INTER.VDW>
-18.1184

>  <SCORE.INTER.norm>
-0.977522

>  <SCORE.INTRA>
-0.41638

>  <SCORE.INTRA.DIHEDRAL>
-1.12599

>  <SCORE.INTRA.DIHEDRAL.0>
2.93688

>  <SCORE.INTRA.POLAR>
0

>  <SCORE.INTRA.POLAR.0>
0

>  <SCORE.INTRA.REPUL>
0

>  <SCORE.INTRA.REPUL.0>
0

>  <SCORE.INTRA.SOLV>
-0.310571

>  <SCORE.INTRA.SOLV.lig_0>
-32.2816

>  <SCORE.INTRA.VDW>
0.3019

>  <SCORE.INTRA.VDW.0>
-0.749945

>  <SCORE.INTRA.norm>
-0.041638

>  <SCORE.RESTR>
0.000170021

>  <SCORE.RESTR.CAVITY>
0.000170021

>  <SCORE.RESTR.norm>
1.70021e-05

>  <SCORE.SYSTEM>
0

>  <SCORE.SYSTEM.CONST>
0

>  <SCORE.SYSTEM.DIHEDRAL>
0

>  <SCORE.SYSTEM.SOLV>
0

>  <SCORE.SYSTEM.norm>
0

>  <SCORE.heavy>
10

>  <SCORE.norm>
-1.01914

>  <RMSD>
5.340

$$$$
ligand
 OpenBabel11021811473D
libRbt.so/2013.1/901 2013/11/27
 10  9  0  0  0  0  0  0  0  0999 V2000
   27.1737   14.5677   18.3320 N   0  0  0  0  0  0  0  0  0  0  0  0
   27.8030   15.0755   19.5877 C   0  0  2  0  0  0  0  0  0  0  0  0
   26.7709   15.2309   20.7043 C   0  0  0  0  0  0  0  0  0  0  0  0
   25.5653   15.2169   20.4621 O   0  0  0  0  0  0  0  0  0  0  0  0
   28.5619   16.3825   19.3296 C   0  0  0  0  0  0  0  0  0  0  0  0
   29.4071   16.8273   20.5228 C   0  0  0  0  0  0  0  0  0  0  0  0
   30.5347   15.8528   20.8348 C   0  0  0  0  0  0  0  0  0  0  0  0
   31.3404   16.3116   22.0462 C   0  0  0  0  0  0  0  0  0  0  0  0
   32.0059   17.6450   21.8458 N   0  0  0  0  0  0  0  0  0  0  0  0
   27.0941   15.3493   21.8899 O   0  0  0  0  0  0  0  0  0  0  0  0
  2  1  1  6  0  0  0
  2  3  1  0  0  0  0
  2  5  1  0  0  0  0
  3  4  1  0  0  0  0
  3 10  1  0  0  0  0
  5  6  1  0  0  0  0
  6  7  1  0  0  0  0
  7  8  1  0  0  0  0
  8  9  1  0  0  0  0
M  END
>  <CHROM.1>
-14.78188749,-170.81735884,64.72177956,-178.86838909,-61.43113993,28.59360853
15.84444543,20.57778490,-2.79120983,0.31441134,1.42811047

>  <Name>
ligand

>  <RI>
0

>  <Rbt.Current_Directory>
/home/itssahil/PROJECTS/Mol_Feturizer/New_Systems/rnas/3DIL

>  <Rbt.Executable>
rbdock ($Id: //depot/dev/client3/rdock/2013.1/src/exe/rbdock.cxx#4 $)

>  <Rbt.Library>
libRbt.so (2013.1, Build901 2013/11/27)

>  <Rbt.Parameter_File>
/export/apps/rDock/src/rDock_2013.1_src/data/scripts/dock_solv.prm

>  <Rbt.Receptor>
prm/pocket_docking_6.prm

>  <SCORE>
-10.1224

>  <SCORE.INTER>
-9.75621

>  <SCORE.INTER.CONST>
1

>  <SCORE.INTER.POLAR>
0

>  <SCORE.INTER.ROT>
5

>  <SCORE.INTER.SOLV>
13.8551

>  <SCORE.INTER.VDW>
-18.0559

>  <SCORE.INTER.norm>
-0.975621

>  <SCORE.INTRA>
-0.366159

>  <SCORE.INTRA.DIHEDRAL>
-0.976503

>  <SCORE.INTRA.DIHEDRAL.0>
2.93688

>  <SCORE.INTRA.POLAR>
0

>  <SCORE.INTRA.POLAR.0>
0

>  <SCORE.INTRA.REPUL>
0

>  <SCORE.INTRA.REPUL.0>
0

>  <SCORE.INTRA.SOLV>
-0.296597

>  <SCORE.INTRA.SOLV.lig_0>
-32.2816

>  <SCORE.INTRA.VDW>
0.270391

>  <SCORE.INTRA.VDW.0>
-0.749945

>  <SCORE.INTRA.norm>
-0.0366159

>  <SCORE.RESTR>
0

>  <SCORE.RESTR.CAVITY>
0

>  <SCORE.RESTR.norm>
0

>  <SCORE.SYSTEM>
0

>  <SCORE.SYSTEM.CONST>
0

>  <SCORE.SYSTEM.DIHEDRAL>
0

>  <SCORE.SYSTEM.SOLV>
0

>  <SCORE.SYSTEM.norm>
0

>  <SCORE.heavy>
10

>  <SCORE.norm>
-1.01224

>  <RMSD>
5.340

$$$$
ligand
 OpenBabel11021811473D
libRbt.so/2013.1/901 2013/11/27
 10  9  0  0  0  0  0  0  0  0999 V2000
   27.4014   14.6093   18.0914 N   0  0  0  0  0  0  0  0  0  0  0  0
   27.8306   15.0269   19.4597 C   0  0  2  0  0  0  0  0  0  0  0  0
   26.6307   15.2045   20.3896 C   0  0  0  0  0  0  0  0  0  0  0  0
   26.7346   15.0284   21.6022 O   0  0  0  0  0  0  0  0  0  0  0  0
   28.6951   16.2917   19.3998 C   0  0  0  0  0  0  0  0  0  0  0  0
   29.2861   16.6753   20.7561 C   0  0  0  0  0  0  0  0  0  0  0  0
   30.3517   15.6949   21.2267 C   0  0  0  0  0  0  0  0  0  0  0  0
   31.6407   15.8558   20.4268 C   0  0  0  0  0  0  0  0  0  0  0  0
   32.3394   17.1621   20.6840 N   0  0  0  0  0  0  0  0  0  0  0  0
   25.5214   15.5546   19.9760 O   0  0  0  0  0  0  0  0  0  0  0  0
  2  1  1  6  0  0  0
  2  3  1  0  0  0  0
  2  5  1  0  0  0  0
  3  4  1  0  0  0  0
  3 10  1  0  0  0  0
  5  6  1  0  0  0  0
  6  7  1  0  0  0  0
  7  8  1  0  0  0  0
  8  9  1  0  0  0  0
M  END
>  <CHROM.1>
151.31094513,-173.75712035,69.46807189,73.07566556,67.78890910,28.60705931
15.71068730,20.22050506,-2.96280906,0.22520107,1.38933569

>  <Name>
ligand

>  <RI>
0

>  <Rbt.Current_Directory>
/home/itssahil/PROJECTS/Mol_Feturizer/New_Systems/rnas/3DIL

>  <Rbt.Executable>
rbdock ($Id: //depot/dev/client3/rdock/2013.1/src/exe/rbdock.cxx#4 $)

>  <Rbt.Library>
libRbt.so (2013.1, Build901 2013/11/27)

>  <Rbt.Parameter_File>
/export/apps/rDock/src/rDock_2013.1_src/data/scripts/dock_solv.prm

>  <Rbt.Receptor>
prm/pocket_docking_8.prm

>  <SCORE>
-8.94824

>  <SCORE.INTER>
-9.35458

>  <SCORE.INTER.CONST>
1

>  <SCORE.INTER.POLAR>
0

>  <SCORE.INTER.ROT>
5

>  <SCORE.INTER.SOLV>
14.2817

>  <SCORE.INTER.VDW>
-17.9303

>  <SCORE.INTER.norm>
-0.935458

>  <SCORE.INTRA>
0.406339

>  <SCORE.INTRA.DIHEDRAL>
-0.0606285

>  <SCORE.INTRA.DIHEDRAL.0>
2.93688

>  <SCORE.INTRA.POLAR>
0

>  <SCORE.INTRA.POLAR.0>
0

>  <SCORE.INTRA.REPUL>
0

>  <SCORE.INTRA.REPUL.0>
0

>  <SCORE.INTRA.SOLV>
-0.0211022

>  <SCORE.INTRA.SOLV.lig_0>
-32.2816

>  <SCORE.INTRA.VDW>
0.447205

>  <SCORE.INTRA.VDW.0>
-0.749945

>  <SCORE.INTRA.norm>
0.0406339

>  <SCORE.RESTR>
0

>  <SCORE.RESTR.CAVITY>
0

>  <SCORE.RESTR.norm>
0

>  <SCORE.SYSTEM>
0

>  <SCORE.SYSTEM.CONST>
0

>  <SCORE.SYSTEM.DIHEDRAL>
0

>  <SCORE.SYSTEM.SOLV>
0

>  <SCORE.SYSTEM.norm>
0

>  <SCORE.heavy>
10

>  <SCORE.norm>
-0.894824

>  <RMSD>
5.340

$$$$
ligand
 OpenBabel11021811473D
libRbt.so/2013.1/901 2013/11/27
 10  9  0  0  0  0  0  0  0  0999 V2000
   27.1602   14.5317   18.3558 N   0  0  0  0  0  0  0  0  0  0  0  0
   27.8065   15.0232   19.6093 C   0  0  2  0  0  0  0  0  0  0  0  0
   26.7852   15.1894   20.7341 C   0  0  0  0  0  0  0  0  0  0  0  0
   25.5772   15.1526   20.5064 O   0  0  0  0  0  0  0  0  0  0  0  0
   28.5844   16.3192   19.3520 C   0  0  0  0  0  0  0  0  0  0  0  0
   29.4175   16.7636   20.5538 C   0  0  0  0  0  0  0  0  0  0  0  0
   30.5586   15.8032   20.8601 C   0  0  0  0  0  0  0  0  0  0  0  0
   31.3665   16.2735   22.0656 C   0  0  0  0  0  0  0  0  0  0  0  0
   32.0519   17.5931   21.8422 N   0  0  0  0  0  0  0  0  0  0  0  0
   27.1201   15.3397   21.9128 O   0  0  0  0  0  0  0  0  0  0  0  0
  2  1  1  6  0  0  0
  2  3  1  0  0  0  0
  2  5  1  0  0  0  0
  3  4  1  0  0  0  0
  3 10  1  0  0  0  0
  5  6  1  0  0  0  0
  6  7  1  0  0  0  0
  7  8  1  0  0  0  0
  8  9  1  0  0  0  0
M  END
>  <CHROM.1>
-12.40651959,-172.27898272,66.70334455,-179.84188963,-63.34036906,28.61089837
15.79763942,20.60168583,-2.79378422,0.31116575,1.42354123

>  <Name>
ligand

>  <RI>
0

>  <Rbt.Current_Directory>
/home/itssahil/PROJECTS/Mol_Feturizer/New_Systems/rnas/3DIL

>  <Rbt.Executable>
rbdock ($Id: //depot/dev/client3/rdock/2013.1/src/exe/rbdock.cxx#4 $)

>  <Rbt.Library>
libRbt.so (2013.1, Build901 2013/11/27)

>  <Rbt.Parameter_File>
/export/apps/rDock/src/rDock_2013.1_src/data/scripts/dock_solv.prm

>  <Rbt.Receptor>
prm/pocket_docking_5.prm

>  <SCORE>
-10.2476

>  <SCORE.INTER>
-9.89127

>  <SCORE.INTER.CONST>
1

>  <SCORE.INTER.POLAR>
0

>  <SCORE.INTER.ROT>
5

>  <SCORE.INTER.SOLV>
13.9576

>  <SCORE.INTER.VDW>
-18.18

>  <SCORE.INTER.norm>
-0.989127

>  <SCORE.INTRA>
-0.356856

>  <SCORE.INTRA.DIHEDRAL>
-0.949549

>  <SCORE.INTRA.DIHEDRAL.0>
2.93688

>  <SCORE.INTRA.POLAR>
0

>  <SCORE.INTRA.POLAR.0>
0

>  <SCORE.INTRA.REPUL>
0

>  <SCORE.INTRA.REPUL.0>
0

>  <SCORE.INTRA.SOLV>
-0.340497

>  <SCORE.INTRA.SOLV.lig_0>
-32.2816

>  <SCORE.INTRA.VDW>
0.288167

>  <SCORE.INTRA.VDW.0>
-0.749945

>  <SCORE.INTRA.norm>
-0.0356856

>  <SCORE.RESTR>
0.000551682

>  <SCORE.RESTR.CAVITY>
0.000551682

>  <SCORE.RESTR.norm>
5.51682e-05

>  <SCORE.SYSTEM>
0

>  <SCORE.SYSTEM.CONST>
0

>  <SCORE.SYSTEM.DIHEDRAL>
0

>  <SCORE.SYSTEM.SOLV>
0

>  <SCORE.SYSTEM.norm>
0

>  <SCORE.heavy>
10

>  <SCORE.norm>
-1.02476

>  <RMSD>
5.341

$$$$
ligand
 OpenBabel11021811473D
libRbt.so/2013.1/901 2013/11/27
 10  9  0  0  0  0  0  0  0  0999 V2000
   27.8100   15.3405   18.5555 N   0  0  0  0  0  0  0  0  0  0  0  0
   27.9965   14.8136   19.9405 C   0  0  2  0  0  0  0  0  0  0  0  0
   26.8357   15.2153   20.8500 C   0  0  0  0  0  0  0  0  0  0  0  0
   25.6862   15.2882   20.4190 O   0  0  0  0  0  0  0  0  0  0  0  0
   29.3478   15.2538   20.5160 C   0  0  0  0  0  0  0  0  0  0  0  0
   29.5158   16.7725   20.5496 C   0  0  0  0  0  0  0  0  0  0  0  0
   30.8530   17.1989   21.1399 C   0  0  0  0  0  0  0  0  0  0  0  0
   32.0092   16.8083   20.2246 C   0  0  0  0  0  0  0  0  0  0  0  0
   33.3475   17.2737   20.7279 N   0  0  0  0  0  0  0  0  0  0  0  0
   26.9910   15.4564   22.0507 O   0  0  0  0  0  0  0  0  0  0  0  0
  2  1  1  6  0  0  0
  2  3  1  0  0  0  0
  2  5  1  0  0  0  0
  3  4  1  0  0  0  0
  3 10  1  0  0  0  0
  5  6  1  0  0  0  0
  6  7  1  0  0  0  0
  7  8  1  0  0  0  0
  8  9  1  0  0  0  0
M  END
>  <CHROM.1>
35.26791055,58.00475032,179.23311276,67.98361402,176.88626923,29.00226562
15.94452329,20.51718559,-3.04434641,0.30643724,1.30602746

>  <Name>
ligand

>  <RI>
0

>  <Rbt.Current_Directory>
/home/itssahil/PROJECTS/Mol_Feturizer/New_Systems/rnas/3DIL

>  <Rbt.Executable>
rbdock ($Id: //depot/dev/client3/rdock/2013.1/src/exe/rbdock.cxx#4 $)

>  <Rbt.Library>
libRbt.so (2013.1, Build901 2013/11/27)

>  <Rbt.Parameter_File>
/export/apps/rDock/src/rDock_2013.1_src/data/scripts/dock_solv.prm

>  <Rbt.Receptor>
prm/pocket_docking_7.prm

>  <SCORE>
-8.95872

>  <SCORE.INTER>
-9.25009

>  <SCORE.INTER.CONST>
1

>  <SCORE.INTER.POLAR>
0

>  <SCORE.INTER.ROT>
5

>  <SCORE.INTER.SOLV>
13.7774

>  <SCORE.INTER.VDW>
-17.6925

>  <SCORE.INTER.norm>
-0.925009

>  <SCORE.INTRA>
0.291368

>  <SCORE.INTRA.DIHEDRAL>
-1.15828

>  <SCORE.INTRA.DIHEDRAL.0>
2.93688

>  <SCORE.INTRA.POLAR>
0

>  <SCORE.INTRA.POLAR.0>
0

>  <SCORE.INTRA.REPUL>
0

>  <SCORE.INTRA.REPUL.0>
0

>  <SCORE.INTRA.SOLV>
-0.38475

>  <SCORE.INTRA.SOLV.lig_0>
-32.2816

>  <SCORE.INTRA.VDW>
1.06288

>  <SCORE.INTRA.VDW.0>
-0.749945

>  <SCORE.INTRA.norm>
0.0291368

>  <SCORE.RESTR>
0

>  <SCORE.RESTR.CAVITY>
0

>  <SCORE.RESTR.norm>
0

>  <SCORE.SYSTEM>
0

>  <SCORE.SYSTEM.CONST>
0

>  <SCORE.SYSTEM.DIHEDRAL>
0

>  <SCORE.SYSTEM.SOLV>
0

>  <SCORE.SYSTEM.norm>
0

>  <SCORE.heavy>
10

>  <SCORE.norm>
-0.895872

>  <RMSD>
5.347

$$$$
ligand
 OpenBabel11021811473D
libRbt.so/2013.1/901 2013/11/27
 10  9  0  0  0  0  0  0  0  0999 V2000
   27.3185   14.0987   18.4046 N   0  0  0  0  0  0  0  0  0  0  0  0
   27.8935   14.9134   19.5165 C   0  0  2  0  0  0  0  0  0  0  0  0
   26.8918   15.0828   20.6583 C   0  0  0  0  0  0  0  0  0  0  0  0
   27.2700   15.2413   21.8177 O   0  0  0  0  0  0  0  0  0  0  0  0
   28.3994   16.2652   18.9993 C   0  0  0  0  0  0  0  0  0  0  0  0
   29.0847   17.0994   20.0811 C   0  0  0  0  0  0  0  0  0  0  0  0
   30.4218   16.5120   20.5116 C   0  0  0  0  0  0  0  0  0  0  0  0
   31.0568   17.3426   21.6225 C   0  0  0  0  0  0  0  0  0  0  0  0
   32.4260   16.8606   22.0149 N   0  0  0  0  0  0  0  0  0  0  0  0
   25.6718   15.0952   20.4695 O   0  0  0  0  0  0  0  0  0  0  0  0
  2  1  1  6  0  0  0
  2  3  1  0  0  0  0
  2  5  1  0  0  0  0
  3  4  1  0  0  0  0
  3 10  1  0  0  0  0
  5  6  1  0  0  0  0
  6  7  1  0  0  0  0
  7  8  1  0  0  0  0
  8  9  1  0  0  0  0
M  END
>  <CHROM.1>
151.75295693,-176.06926441,69.67496987,-178.15920095,-175.84577213,28.61273280
15.84982537,20.43301000,-2.79122758,0.37889507,1.41066322

>  <Name>
ligand

>  <RI>
0

>  <Rbt.Current_Directory>
/home/itssahil/PROJECTS/Mol_Feturizer/New_Systems/rnas/3DIL

>  <Rbt.Executable>
rbdock ($Id: //depot/dev/client3/rdock/2013.1/src/exe/rbdock.cxx#4 $)

>  <Rbt.Library>
libRbt.so (2013.1, Build901 2013/11/27)

>  <Rbt.Parameter_File>
/export/apps/rDock/src/rDock_2013.1_src/data/scripts/dock_solv.prm

>  <Rbt.Receptor>
prm/pocket_docking_2.prm

>  <SCORE>
-9.65352

>  <SCORE.INTER>
-8.56514

>  <SCORE.INTER.CONST>
1

>  <SCORE.INTER.POLAR>
0

>  <SCORE.INTER.ROT>
5

>  <SCORE.INTER.SOLV>
16.4338

>  <SCORE.INTER.VDW>
-18.1213

>  <SCORE.INTER.norm>
-0.856514

>  <SCORE.INTRA>
-1.08957

>  <SCORE.INTRA.DIHEDRAL>
-0.967499

>  <SCORE.INTRA.DIHEDRAL.0>
2.93688

>  <SCORE.INTRA.POLAR>
0

>  <SCORE.INTRA.POLAR.0>
0

>  <SCORE.INTRA.REPUL>
0

>  <SCORE.INTRA.REPUL.0>
0

>  <SCORE.INTRA.SOLV>
-1.29423

>  <SCORE.INTRA.SOLV.lig_0>
-32.2816

>  <SCORE.INTRA.VDW>
0.0413004

>  <SCORE.INTRA.VDW.0>
-0.749945

>  <SCORE.INTRA.norm>
-0.108957

>  <SCORE.RESTR>
0.00117866

>  <SCORE.RESTR.CAVITY>
0.00117866

>  <SCORE.RESTR.norm>
0.000117866

>  <SCORE.SYSTEM>
0

>  <SCORE.SYSTEM.CONST>
0

>  <SCORE.SYSTEM.DIHEDRAL>
0

>  <SCORE.SYSTEM.SOLV>
0

>  <SCORE.SYSTEM.norm>
0

>  <SCORE.heavy>
10

>  <SCORE.norm>
-0.965352

>  <RMSD>
5.349

$$$$
ligand
 OpenBabel11021811473D
libRbt.so/2013.1/901 2013/11/27
 10  9  0  0  0  0  0  0  0  0999 V2000
   25.5711   15.0036   20.5926 N   0  0  0  0  0  0  0  0  0  0  0  0
   26.9055   15.6535   20.4265 C   0  0  2  0  0  0  0  0  0  0  0  0
   27.4187   15.5128   18.9937 C   0  0  0  0  0  0  0  0  0  0  0  0
   28.0647   16.4121   18.4586 O   0  0  0  0  0  0  0  0  0  0  0  0
   27.9112   15.1066   21.4465 C   0  0  0  0  0  0  0  0  0  0  0  0
   29.2017   15.9230   21.5086 C   0  0  0  0  0  0  0  0  0  0  0  0
   30.1742   15.5630   20.3937 C   0  0  0  0  0  0  0  0  0  0  0  0
   31.3352   16.5509   20.3344 C   0  0  0  0  0  0  0  0  0  0  0  0
   32.1414   16.5956   21.6029 N   0  0  0  0  0  0  0  0  0  0  0  0
   27.2346   14.4922   18.3240 O   0  0  0  0  0  0  0  0  0  0  0  0
  2  1  1  6  0  0  0
  2  3  1  0  0  0  0
  2  5  1  0  0  0  0
  3  4  1  0  0  0  0
  3 10  1  0  0  0  0
  5  6  1  0  0  0  0
  6  7  1  0  0  0  0
  7  8  1  0  0  0  0
  8  9  1  0  0  0  0
M  END
>  <CHROM.1>
144.32466293,-168.59202419,-80.96682299,170.11296239,60.27517913,28.59819453
15.67749058,20.17289922,2.85010100,-0.26782476,-1.52399522

>  <Name>
ligand

>  <RI>
0

>  <Rbt.Current_Directory>
/home/itssahil/PROJECTS/Mol_Feturizer/New_Systems/rnas/3DIL

>  <Rbt.Executable>
rbdock ($Id: //depot/dev/client3/rdock/2013.1/src/exe/rbdock.cxx#4 $)

>  <Rbt.Library>
libRbt.so (2013.1, Build901 2013/11/27)

>  <Rbt.Parameter_File>
/export/apps/rDock/src/rDock_2013.1_src/data/scripts/dock_solv.prm

>  <Rbt.Receptor>
prm/pocket_docking_3.prm

>  <SCORE>
-7.51487

>  <SCORE.INTER>
-7.81939

>  <SCORE.INTER.CONST>
1

>  <SCORE.INTER.POLAR>
0

>  <SCORE.INTER.ROT>
5

>  <SCORE.INTER.SOLV>
18.5362

>  <SCORE.INTER.VDW>
-18.325

>  <SCORE.INTER.norm>
-0.781939

>  <SCORE.INTRA>
0.304523

>  <SCORE.INTRA.DIHEDRAL>
1.06023

>  <SCORE.INTRA.DIHEDRAL.0>
2.93688

>  <SCORE.INTRA.POLAR>
0

>  <SCORE.INTRA.POLAR.0>
0

>  <SCORE.INTRA.REPUL>
0

>  <SCORE.INTRA.REPUL.0>
0

>  <SCORE.INTRA.SOLV>
-0.534807

>  <SCORE.INTRA.SOLV.lig_0>
-32.2816

>  <SCORE.INTRA.VDW>
0.0418102

>  <SCORE.INTRA.VDW.0>
-0.749945

>  <SCORE.INTRA.norm>
0.0304523

>  <SCORE.RESTR>
0

>  <SCORE.RESTR.CAVITY>
0

>  <SCORE.RESTR.norm>
0

>  <SCORE.SYSTEM>
0

>  <SCORE.SYSTEM.CONST>
0

>  <SCORE.SYSTEM.DIHEDRAL>
0

>  <SCORE.SYSTEM.SOLV>
0

>  <SCORE.SYSTEM.norm>
0

>  <SCORE.heavy>
10

>  <SCORE.norm>
-0.751487

>  <RMSD>
5.350

$$$$
ligand
 OpenBabel11021811473D
libRbt.so/2013.1/901 2013/11/27
 10  9  0  0  0  0  0  0  0  0999 V2000
   25.5719   15.2327   20.3144 N   0  0  0  0  0  0  0  0  0  0  0  0
   26.9654   15.7520   20.1754 C   0  0  2  0  0  0  0  0  0  0  0  0
   27.5379   15.4463   18.7916 C   0  0  0  0  0  0  0  0  0  0  0  0
   27.3343   14.3641   18.2442 O   0  0  0  0  0  0  0  0  0  0  0  0
   27.8644   15.2125   21.2941 C   0  0  0  0  0  0  0  0  0  0  0  0
   29.1917   15.9618   21.4064 C   0  0  0  0  0  0  0  0  0  0  0  0
   30.1955   15.5333   20.3448 C   0  0  0  0  0  0  0  0  0  0  0  0
   31.4315   16.4273   20.3618 C   0  0  0  0  0  0  0  0  0  0  0  0
   32.1440   16.4294   21.6860 N   0  0  0  0  0  0  0  0  0  0  0  0
   28.2006   16.2706   18.1549 O   0  0  0  0  0  0  0  0  0  0  0  0
  2  1  1  6  0  0  0
  2  3  1  0  0  0  0
  2  5  1  0  0  0  0
  3  4  1  0  0  0  0
  3 10  1  0  0  0  0
  5  6  1  0  0  0  0
  6  7  1  0  0  0  0
  7  8  1  0  0  0  0
  8  9  1  0  0  0  0
M  END
>  <CHROM.1>
-40.38098265,-166.02012591,-78.27999973,172.21246968,58.73980617,28.64695921
15.65573509,20.04226831,2.77108414,-0.20902790,-1.61036019

>  <Name>
ligand

>  <RI>
0

>  <Rbt.Current_Directory>
/home/itssahil/PROJECTS/Mol_Feturizer/New_Systems/rnas/3DIL

>  <Rbt.Executable>
rbdock ($Id: //depot/dev/client3/rdock/2013.1/src/exe/rbdock.cxx#4 $)

>  <Rbt.Library>
libRbt.so (2013.1, Build901 2013/11/27)

>  <Rbt.Parameter_File>
/export/apps/rDock/src/rDock_2013.1_src/data/scripts/dock_solv.prm

>  <Rbt.Receptor>
prm/pocket_docking_4.prm

>  <SCORE>
-7.55679

>  <SCORE.INTER>
-7.76239

>  <SCORE.INTER.CONST>
1

>  <SCORE.INTER.POLAR>
0

>  <SCORE.INTER.ROT>
5

>  <SCORE.INTER.SOLV>
18.5211

>  <SCORE.INTER.VDW>
-18.2819

>  <SCORE.INTER.norm>
-0.776239

>  <SCORE.INTRA>
0.2056

>  <SCORE.INTRA.DIHEDRAL>
0.875765

>  <SCORE.INTRA.DIHEDRAL.0>
2.93688

>  <SCORE.INTRA.POLAR>
0

>  <SCORE.INTRA.POLAR.0>
0

>  <SCORE.INTRA.REPUL>
0

>  <SCORE.INTRA.REPUL.0>
0

>  <SCORE.INTRA.SOLV>
-0.483581

>  <SCORE.INTRA.SOLV.lig_0>
-32.2816

>  <SCORE.INTRA.VDW>
0.00950821

>  <SCORE.INTRA.VDW.0>
-0.749945

>  <SCORE.INTRA.norm>
0.02056

>  <SCORE.RESTR>
0

>  <SCORE.RESTR.CAVITY>
0

>  <SCORE.RESTR.norm>
0

>  <SCORE.SYSTEM>
0

>  <SCORE.SYSTEM.CONST>
0

>  <SCORE.SYSTEM.DIHEDRAL>
0

>  <SCORE.SYSTEM.SOLV>
0

>  <SCORE.SYSTEM.norm>
0

>  <SCORE.heavy>
10

>  <SCORE.norm>
-0.755679

>  <RMSD>
5.350

$$$$
ligand
 OpenBabel11021811473D
libRbt.so/2013.1/901 2013/11/27
 10  9  0  0  0  0  0  0  0  0999 V2000
   27.1030   14.7612   18.3858 N   0  0  0  0  0  0  0  0  0  0  0  0
   27.7384   15.1997   19.6644 C   0  0  2  0  0  0  0  0  0  0  0  0
   26.7289   15.2132   20.8118 C   0  0  0  0  0  0  0  0  0  0  0  0
   25.5304   15.0289   20.6064 O   0  0  0  0  0  0  0  0  0  0  0  0
   28.4251   16.5601   19.4956 C   0  0  0  0  0  0  0  0  0  0  0  0
   29.8362   16.5929   20.0817 C   0  0  0  0  0  0  0  0  0  0  0  0
   29.8457   16.3986   21.5918 C   0  0  0  0  0  0  0  0  0  0  0  0
   31.2704   16.3843   22.1369 C   0  0  0  0  0  0  0  0  0  0  0  0
   31.9993   17.6825   21.9262 N   0  0  0  0  0  0  0  0  0  0  0  0
   27.0677   15.3809   21.9870 O   0  0  0  0  0  0  0  0  0  0  0  0
  2  1  1  6  0  0  0
  2  3  1  0  0  0  0
  2  5  1  0  0  0  0
  3  4  1  0  0  0  0
  3 10  1  0  0  0  0
  5  6  1  0  0  0  0
  6  7  1  0  0  0  0
  7  8  1  0  0  0  0
  8  9  1  0  0  0  0
M  END
>  <CHROM.1>
-7.77146947,-133.13674815,-64.26585388,177.87073990,63.01559279,28.52308655
15.91539294,20.69156897,-2.82175480,0.37642981,1.53824807

>  <Name>
ligand

>  <RI>
0

>  <Rbt.Current_Directory>
/home/itssahil/PROJECTS/Mol_Feturizer/New_Systems/rnas/3DIL

>  <Rbt.Executable>
rbdock ($Id: //depot/dev/client3/rdock/2013.1/src/exe/rbdock.cxx#4 $)

>  <Rbt.Library>
libRbt.so (2013.1, Build901 2013/11/27)

>  <Rbt.Parameter_File>
/export/apps/rDock/src/rDock_2013.1_src/data/scripts/dock_solv.prm

>  <Rbt.Receptor>
prm/pocket_docking_7.prm

>  <SCORE>
-7.62194

>  <SCORE.INTER>
-9.52156

>  <SCORE.INTER.CONST>
1

>  <SCORE.INTER.POLAR>
0

>  <SCORE.INTER.ROT>
5

>  <SCORE.INTER.SOLV>
13.9776

>  <SCORE.INTER.VDW>
-17.9402

>  <SCORE.INTER.norm>
-0.952156

>  <SCORE.INTRA>
1.89932

>  <SCORE.INTRA.DIHEDRAL>
3.7871

>  <SCORE.INTRA.DIHEDRAL.0>
2.93688

>  <SCORE.INTRA.POLAR>
0

>  <SCORE.INTRA.POLAR.0>
0

>  <SCORE.INTRA.REPUL>
0

>  <SCORE.INTRA.REPUL.0>
0

>  <SCORE.INTRA.SOLV>
-0.304552

>  <SCORE.INTRA.SOLV.lig_0>
-32.2816

>  <SCORE.INTRA.VDW>
0.158049

>  <SCORE.INTRA.VDW.0>
-0.749945

>  <SCORE.INTRA.norm>
0.189932

>  <SCORE.RESTR>
0.00029271

>  <SCORE.RESTR.CAVITY>
0.00029271

>  <SCORE.RESTR.norm>
2.9271e-05

>  <SCORE.SYSTEM>
0

>  <SCORE.SYSTEM.CONST>
0

>  <SCORE.SYSTEM.DIHEDRAL>
0

>  <SCORE.SYSTEM.SOLV>
0

>  <SCORE.SYSTEM.norm>
0

>  <SCORE.heavy>
10

>  <SCORE.norm>
-0.762194

>  <RMSD>
5.350

$$$$
ligand
 OpenBabel11021811473D
libRbt.so/2013.1/901 2013/11/27
 10  9  0  0  0  0  0  0  0  0999 V2000
   27.1233   14.5383   18.3164 N   0  0  0  0  0  0  0  0  0  0  0  0
   27.7722   15.0606   19.5561 C   0  0  2  0  0  0  0  0  0  0  0  0
   26.7643   15.1967   20.6970 C   0  0  0  0  0  0  0  0  0  0  0  0
   25.5538   15.1542   20.4843 O   0  0  0  0  0  0  0  0  0  0  0  0
   28.4981   16.3823   19.2785 C   0  0  0  0  0  0  0  0  0  0  0  0
   29.3785   16.8354   20.4427 C   0  0  0  0  0  0  0  0  0  0  0  0
   30.5342   15.8798   20.7067 C   0  0  0  0  0  0  0  0  0  0  0  0
   31.3258   16.2999   21.9412 C   0  0  0  0  0  0  0  0  0  0  0  0
   32.0056   17.6320   21.7852 N   0  0  0  0  0  0  0  0  0  0  0  0
   27.1135   15.3270   21.8739 O   0  0  0  0  0  0  0  0  0  0  0  0
  2  1  1  6  0  0  0
  2  3  1  0  0  0  0
  2  5  1  0  0  0  0
  3  4  1  0  0  0  0
  3 10  1  0  0  0  0
  5  6  1  0  0  0  0
  6  7  1  0  0  0  0
  7  8  1  0  0  0  0
  8  9  1  0  0  0  0
M  END
>  <CHROM.1>
-14.57862139,-169.97547940,64.75364824,-175.45663759,-64.15905956,28.57538303
15.82860718,20.53116554,-2.81004329,0.32636588,1.43871344

>  <Name>
ligand

>  <RI>
0

>  <Rbt.Current_Directory>
/home/itssahil/PROJECTS/Mol_Feturizer/New_Systems/rnas/3DIL

>  <Rbt.Executable>
rbdock ($Id: //depot/dev/client3/rdock/2013.1/src/exe/rbdock.cxx#4 $)

>  <Rbt.Library>
libRbt.so (2013.1, Build901 2013/11/27)

>  <Rbt.Parameter_File>
/export/apps/rDock/src/rDock_2013.1_src/data/scripts/dock_solv.prm

>  <Rbt.Receptor>
prm/pocket_docking_3.prm

>  <SCORE>
-10.1226

>  <SCORE.INTER>
-9.78779

>  <SCORE.INTER.CONST>
1

>  <SCORE.INTER.POLAR>
0

>  <SCORE.INTER.ROT>
5

>  <SCORE.INTER.SOLV>
14.111

>  <SCORE.INTER.VDW>
-18.1622

>  <SCORE.INTER.norm>
-0.978779

>  <SCORE.INTRA>
-0.334802

>  <SCORE.INTRA.DIHEDRAL>
-0.778164

>  <SCORE.INTRA.DIHEDRAL.0>
2.93688

>  <SCORE.INTRA.POLAR>
0

>  <SCORE.INTRA.POLAR.0>
0

>  <SCORE.INTRA.REPUL>
0

>  <SCORE.INTRA.REPUL.0>
0

>  <SCORE.INTRA.SOLV>
-0.343714

>  <SCORE.INTRA.SOLV.lig_0>
-32.2816

>  <SCORE.INTRA.VDW>
0.226138

>  <SCORE.INTRA.VDW.0>
-0.749945

>  <SCORE.INTRA.norm>
-0.0334802

>  <SCORE.RESTR>
3.89035e-06

>  <SCORE.RESTR.CAVITY>
3.89035e-06

>  <SCORE.RESTR.norm>
3.89035e-07

>  <SCORE.SYSTEM>
0

>  <SCORE.SYSTEM.CONST>
0

>  <SCORE.SYSTEM.DIHEDRAL>
0

>  <SCORE.SYSTEM.SOLV>
0

>  <SCORE.SYSTEM.norm>
0

>  <SCORE.heavy>
10

>  <SCORE.norm>
-1.01226

>  <RMSD>
5.351

$$$$
ligand
 OpenBabel11021811473D
libRbt.so/2013.1/901 2013/11/27
 10  9  0  0  0  0  0  0  0  0999 V2000
   27.3116   14.1152   18.4087 N   0  0  0  0  0  0  0  0  0  0  0  0
   27.8921   14.9211   19.5241 C   0  0  2  0  0  0  0  0  0  0  0  0
   26.8933   15.0878   20.6689 C   0  0  0  0  0  0  0  0  0  0  0  0
   25.6816   15.0992   20.4589 O   0  0  0  0  0  0  0  0  0  0  0  0
   28.4024   16.2739   19.0138 C   0  0  0  0  0  0  0  0  0  0  0  0
   29.0644   17.1126   20.1065 C   0  0  0  0  0  0  0  0  0  0  0  0
   30.3926   16.5277   20.5671 C   0  0  0  0  0  0  0  0  0  0  0  0
   31.0447   17.4087   21.6281 C   0  0  0  0  0  0  0  0  0  0  0  0
   32.3838   16.8976   22.0824 N   0  0  0  0  0  0  0  0  0  0  0  0
   27.2501   15.1905   21.8463 O   0  0  0  0  0  0  0  0  0  0  0  0
  2  1  1  6  0  0  0
  2  3  1  0  0  0  0
  2  5  1  0  0  0  0
  3  4  1  0  0  0  0
  3 10  1  0  0  0  0
  5  6  1  0  0  0  0
  6  7  1  0  0  0  0
  7  8  1  0  0  0  0
  8  9  1  0  0  0  0
M  END
>  <CHROM.1>
-29.50822346,-177.39968323,69.42028064,178.38620661,-178.03456435,28.60086065
15.86126129,20.45377693,-2.78832305,0.39429355,1.42860656

>  <Name>
ligand

>  <RI>
0

>  <Rbt.Current_Directory>
/home/itssahil/PROJECTS/Mol_Feturizer/New_Systems/rnas/3DIL

>  <Rbt.Executable>
rbdock ($Id: //depot/dev/client3/rdock/2013.1/src/exe/rbdock.cxx#4 $)

>  <Rbt.Library>
libRbt.so (2013.1, Build901 2013/11/27)

>  <Rbt.Parameter_File>
/export/apps/rDock/src/rDock_2013.1_src/data/scripts/dock_solv.prm

>  <Rbt.Receptor>
prm/pocket_docking_2.prm

>  <SCORE>
-9.69008

>  <SCORE.INTER>
-8.62754

>  <SCORE.INTER.CONST>
1

>  <SCORE.INTER.POLAR>
0

>  <SCORE.INTER.ROT>
5

>  <SCORE.INTER.SOLV>
16.4163

>  <SCORE.INTER.VDW>
-18.1571

>  <SCORE.INTER.norm>
-0.862754

>  <SCORE.INTRA>
-1.06373

>  <SCORE.INTRA.DIHEDRAL>
-0.963085

>  <SCORE.INTRA.DIHEDRAL.0>
2.93688

>  <SCORE.INTRA.POLAR>
0

>  <SCORE.INTRA.POLAR.0>
0

>  <SCORE.INTRA.REPUL>
0

>  <SCORE.INTRA.REPUL.0>
0

>  <SCORE.INTRA.SOLV>
-1.29024

>  <SCORE.INTRA.SOLV.lig_0>
-32.2816

>  <SCORE.INTRA.VDW>
0.0629352

>  <SCORE.INTRA.VDW.0>
-0.749945

>  <SCORE.INTRA.norm>
-0.106373

>  <SCORE.RESTR>
0.00119246

>  <SCORE.RESTR.CAVITY>
0.00119246

>  <SCORE.RESTR.norm>
0.000119246

>  <SCORE.SYSTEM>
0

>  <SCORE.SYSTEM.CONST>
0

>  <SCORE.SYSTEM.DIHEDRAL>
0

>  <SCORE.SYSTEM.SOLV>
0

>  <SCORE.SYSTEM.norm>
0

>  <SCORE.heavy>
10

>  <SCORE.norm>
-0.969008

>  <RMSD>
5.353

$$$$
ligand
 OpenBabel11021811473D
libRbt.so/2013.1/901 2013/11/27
 10  9  0  0  0  0  0  0  0  0999 V2000
   25.9321   15.0982   20.3523 N   0  0  0  0  0  0  0  0  0  0  0  0
   27.0383   15.8717   19.7132 C   0  0  2  0  0  0  0  0  0  0  0  0
   27.5114   15.2037   18.4226 C   0  0  0  0  0  0  0  0  0  0  0  0
   27.2347   14.0313   18.1751 O   0  0  0  0  0  0  0  0  0  0  0  0
   28.1939   16.0887   20.6974 C   0  0  0  0  0  0  0  0  0  0  0  0
   29.2459   17.0670   20.1759 C   0  0  0  0  0  0  0  0  0  0  0  0
   30.3618   17.3148   21.1817 C   0  0  0  0  0  0  0  0  0  0  0  0
   31.2463   16.0819   21.3388 C   0  0  0  0  0  0  0  0  0  0  0  0
   32.0084   15.7355   20.0897 N   0  0  0  0  0  0  0  0  0  0  0  0
   28.1625   15.8094   17.5662 O   0  0  0  0  0  0  0  0  0  0  0  0
  2  1  1  1  0  0  0
  2  3  1  0  0  0  0
  2  5  1  0  0  0  0
  3  4  1  0  0  0  0
  3 10  1  0  0  0  0
  5  6  1  0  0  0  0
  6  7  1  0  0  0  0
  7  8  1  0  0  0  0
  8  9  1  0  0  0  0
M  END
>  <CHROM.1>
-16.92603768,-170.43997060,177.86839544,70.18994541,65.34470605,28.69434502
15.81354794,19.73770343,2.61196513,-0.11335946,-2.00407142

>  <Name>
ligand

>  <RI>
0

>  <Rbt.Current_Directory>
/home/itssahil/PROJECTS/Mol_Feturizer/New_Systems/rnas/3DIL

>  <Rbt.Executable>
rbdock ($Id: //depot/dev/client3/rdock/2013.1/src/exe/rbdock.cxx#4 $)

>  <Rbt.Library>
libRbt.so (2013.1, Build901 2013/11/27)

>  <Rbt.Parameter_File>
/export/apps/rDock/src/rDock_2013.1_src/data/scripts/dock_solv.prm

>  <Rbt.Receptor>
prm/pocket_docking_8.prm

>  <SCORE>
-7.51236

>  <SCORE.INTER>
-7.64994

>  <SCORE.INTER.CONST>
1

>  <SCORE.INTER.POLAR>
0

>  <SCORE.INTER.ROT>
5

>  <SCORE.INTER.SOLV>
19.036

>  <SCORE.INTER.VDW>
-18.3786

>  <SCORE.INTER.norm>
-0.764994

>  <SCORE.INTRA>
0.137583

>  <SCORE.INTRA.DIHEDRAL>
-0.501262

>  <SCORE.INTRA.DIHEDRAL.0>
2.93688

>  <SCORE.INTRA.POLAR>
0

>  <SCORE.INTRA.POLAR.0>
0

>  <SCORE.INTRA.REPUL>
0

>  <SCORE.INTRA.REPUL.0>
0

>  <SCORE.INTRA.SOLV>
-0.14413

>  <SCORE.INTRA.SOLV.lig_0>
-32.2816

>  <SCORE.INTRA.VDW>
0.460278

>  <SCORE.INTRA.VDW.0>
-0.749945

>  <SCORE.INTRA.norm>
0.0137583

>  <SCORE.RESTR>
0

>  <SCORE.RESTR.CAVITY>
0

>  <SCORE.RESTR.norm>
0

>  <SCORE.SYSTEM>
0

>  <SCORE.SYSTEM.CONST>
0

>  <SCORE.SYSTEM.DIHEDRAL>
0

>  <SCORE.SYSTEM.SOLV>
0

>  <SCORE.SYSTEM.norm>
0

>  <SCORE.heavy>
10

>  <SCORE.norm>
-0.751236

>  <RMSD>
5.357

$$$$
ligand
 OpenBabel11021811473D
libRbt.so/2013.1/901 2013/11/27
 10  9  0  0  0  0  0  0  0  0999 V2000
   27.7746   15.4502   18.5231 N   0  0  0  0  0  0  0  0  0  0  0  0
   28.0264   14.7681   19.8277 C   0  0  2  0  0  0  0  0  0  0  0  0
   26.8794   15.0042   20.8098 C   0  0  0  0  0  0  0  0  0  0  0  0
   25.7168   15.0962   20.4194 O   0  0  0  0  0  0  0  0  0  0  0  0
   29.3759   15.1953   20.4169 C   0  0  0  0  0  0  0  0  0  0  0  0
   29.5078   16.7103   20.5691 C   0  0  0  0  0  0  0  0  0  0  0  0
   30.8520   17.1234   21.1529 C   0  0  0  0  0  0  0  0  0  0  0  0
   31.9942   16.7859   20.1996 C   0  0  0  0  0  0  0  0  0  0  0  0
   33.3366   17.2475   20.6953 N   0  0  0  0  0  0  0  0  0  0  0  0
   27.0602   15.0859   22.0283 O   0  0  0  0  0  0  0  0  0  0  0  0
  2  1  1  6  0  0  0
  2  3  1  0  0  0  0
  2  5  1  0  0  0  0
  3  4  1  0  0  0  0
  3 10  1  0  0  0  0
  5  6  1  0  0  0  0
  6  7  1  0  0  0  0
  7  8  1  0  0  0  0
  8  9  1  0  0  0  0
M  END
>  <CHROM.1>
34.22598603,55.23144484,-179.91435222,65.62561009,176.62432332,29.01585126
15.84516388,20.48529692,-3.08434422,0.34226525,1.44689329

>  <Name>
ligand

>  <RI>
0

>  <Rbt.Current_Directory>
/home/itssahil/PROJECTS/Mol_Feturizer/New_Systems/rnas/3DIL

>  <Rbt.Executable>
rbdock ($Id: //depot/dev/client3/rdock/2013.1/src/exe/rbdock.cxx#4 $)

>  <Rbt.Library>
libRbt.so (2013.1, Build901 2013/11/27)

>  <Rbt.Parameter_File>
/export/apps/rDock/src/rDock_2013.1_src/data/scripts/dock_solv.prm

>  <Rbt.Receptor>
prm/pocket_docking_2.prm

>  <SCORE>
-8.32131

>  <SCORE.INTER>
-8.6884

>  <SCORE.INTER.CONST>
1

>  <SCORE.INTER.POLAR>
0

>  <SCORE.INTER.ROT>
5

>  <SCORE.INTER.SOLV>
14.2232

>  <SCORE.INTER.VDW>
-17.4667

>  <SCORE.INTER.norm>
-0.86884

>  <SCORE.INTRA>
0.365724

>  <SCORE.INTRA.DIHEDRAL>
-1.2066

>  <SCORE.INTRA.DIHEDRAL.0>
2.93688

>  <SCORE.INTRA.POLAR>
0

>  <SCORE.INTRA.POLAR.0>
0

>  <SCORE.INTRA.REPUL>
0

>  <SCORE.INTRA.REPUL.0>
0

>  <SCORE.INTRA.SOLV>
-0.330764

>  <SCORE.INTRA.SOLV.lig_0>
-32.2816

>  <SCORE.INTRA.VDW>
1.13441

>  <SCORE.INTRA.VDW.0>
-0.749945

>  <SCORE.INTRA.norm>
0.0365724

>  <SCORE.RESTR>
0.00137466

>  <SCORE.RESTR.CAVITY>
0.00137466

>  <SCORE.RESTR.norm>
0.000137466

>  <SCORE.SYSTEM>
0

>  <SCORE.SYSTEM.CONST>
0

>  <SCORE.SYSTEM.DIHEDRAL>
0

>  <SCORE.SYSTEM.SOLV>
0

>  <SCORE.SYSTEM.norm>
0

>  <SCORE.heavy>
10

>  <SCORE.norm>
-0.832131

>  <RMSD>
5.359

$$$$
ligand
 OpenBabel11021811473D
libRbt.so/2013.1/901 2013/11/27
 10  9  0  0  0  0  0  0  0  0999 V2000
   27.1263   14.4419   18.2838 N   0  0  0  0  0  0  0  0  0  0  0  0
   27.7512   14.9960   19.5219 C   0  0  2  0  0  0  0  0  0  0  0  0
   26.7193   15.1724   20.6354 C   0  0  0  0  0  0  0  0  0  0  0  0
   27.0648   15.2859   21.8102 O   0  0  0  0  0  0  0  0  0  0  0  0
   28.4928   16.3041   19.2222 C   0  0  0  0  0  0  0  0  0  0  0  0
   29.3235   16.8033   20.4039 C   0  0  0  0  0  0  0  0  0  0  0  0
   30.4414   15.8403   20.7796 C   0  0  0  0  0  0  0  0  0  0  0  0
   31.2055   16.3334   22.0044 C   0  0  0  0  0  0  0  0  0  0  0  0
   31.9000   17.6482   21.7807 N   0  0  0  0  0  0  0  0  0  0  0  0
   25.5075   15.2353   20.4083 O   0  0  0  0  0  0  0  0  0  0  0  0
  2  1  1  6  0  0  0
  2  3  1  0  0  0  0
  2  5  1  0  0  0  0
  3  4  1  0  0  0  0
  3 10  1  0  0  0  0
  5  6  1  0  0  0  0
  6  7  1  0  0  0  0
  7  8  1  0  0  0  0
  8  9  1  0  0  0  0
M  END
>  <CHROM.1>
161.36724098,-171.38093385,63.27940638,-177.13491456,-62.68049171,28.52150708
15.80558465,20.50736157,-2.77623528,0.32165394,1.40527034

>  <Name>
ligand

>  <RI>
0

>  <Rbt.Current_Directory>
/home/itssahil/PROJECTS/Mol_Feturizer/New_Systems/rnas/3DIL

>  <Rbt.Executable>
rbdock ($Id: //depot/dev/client3/rdock/2013.1/src/exe/rbdock.cxx#4 $)

>  <Rbt.Library>
libRbt.so (2013.1, Build901 2013/11/27)

>  <Rbt.Parameter_File>
/export/apps/rDock/src/rDock_2013.1_src/data/scripts/dock_solv.prm

>  <Rbt.Receptor>
prm/pocket_docking_4.prm

>  <SCORE>
-10.2265

>  <SCORE.INTER>
-9.78211

>  <SCORE.INTER.CONST>
1

>  <SCORE.INTER.POLAR>
0

>  <SCORE.INTER.ROT>
5

>  <SCORE.INTER.SOLV>
14.2295

>  <SCORE.INTER.VDW>
-18.1979

>  <SCORE.INTER.norm>
-0.978211

>  <SCORE.INTRA>
-0.46005

>  <SCORE.INTRA.DIHEDRAL>
-1.10123

>  <SCORE.INTRA.DIHEDRAL.0>
2.93688

>  <SCORE.INTRA.POLAR>
0

>  <SCORE.INTRA.POLAR.0>
0

>  <SCORE.INTRA.REPUL>
0

>  <SCORE.INTRA.REPUL.0>
0

>  <SCORE.INTRA.SOLV>
-0.331341

>  <SCORE.INTRA.SOLV.lig_0>
-32.2816

>  <SCORE.INTRA.VDW>
0.256236

>  <SCORE.INTRA.VDW.0>
-0.749945

>  <SCORE.INTRA.norm>
-0.046005

>  <SCORE.RESTR>
0.0156589

>  <SCORE.RESTR.CAVITY>
0.0156589

>  <SCORE.RESTR.norm>
0.00156589

>  <SCORE.SYSTEM>
0

>  <SCORE.SYSTEM.CONST>
0

>  <SCORE.SYSTEM.DIHEDRAL>
0

>  <SCORE.SYSTEM.SOLV>
0

>  <SCORE.SYSTEM.norm>
0

>  <SCORE.heavy>
10

>  <SCORE.norm>
-1.02265

>  <RMSD>
5.359

$$$$
ligand
 OpenBabel11021811473D
libRbt.so/2013.1/901 2013/11/27
 10  9  0  0  0  0  0  0  0  0999 V2000
   27.1651   14.4918   18.2476 N   0  0  0  0  0  0  0  0  0  0  0  0
   27.7583   15.0129   19.5154 C   0  0  2  0  0  0  0  0  0  0  0  0
   26.6897   15.2104   20.5901 C   0  0  0  0  0  0  0  0  0  0  0  0
   26.9943   15.3252   21.7760 O   0  0  0  0  0  0  0  0  0  0  0  0
   28.5516   16.2998   19.2597 C   0  0  0  0  0  0  0  0  0  0  0  0
   29.3226   16.7795   20.4891 C   0  0  0  0  0  0  0  0  0  0  0  0
   30.3896   15.7879   20.9323 C   0  0  0  0  0  0  0  0  0  0  0  0
   31.1105   16.2768   22.1847 C   0  0  0  0  0  0  0  0  0  0  0  0
   31.8983   17.5380   21.9616 N   0  0  0  0  0  0  0  0  0  0  0  0
   25.4879   15.2898   20.3190 O   0  0  0  0  0  0  0  0  0  0  0  0
  2  1  1  6  0  0  0
  2  3  1  0  0  0  0
  2  5  1  0  0  0  0
  3  4  1  0  0  0  0
  3 10  1  0  0  0  0
  5  6  1  0  0  0  0
  6  7  1  0  0  0  0
  7  8  1  0  0  0  0
  8  9  1  0  0  0  0
M  END
>  <CHROM.1>
162.71534603,-172.83892087,63.28956023,-178.27033028,-64.79120805,28.50426276
15.80141293,20.54853817,-2.73365942,0.29295134,1.40383507

>  <Name>
ligand

>  <RI>
0

>  <Rbt.Current_Directory>
/home/itssahil/PROJECTS/Mol_Feturizer/New_Systems/rnas/3DIL

>  <Rbt.Executable>
rbdock ($Id: //depot/dev/client3/rdock/2013.1/src/exe/rbdock.cxx#4 $)

>  <Rbt.Library>
libRbt.so (2013.1, Build901 2013/11/27)

>  <Rbt.Parameter_File>
/export/apps/rDock/src/rDock_2013.1_src/data/scripts/dock_solv.prm

>  <Rbt.Receptor>
prm/pocket_docking_4.prm

>  <SCORE>
-10.2908

>  <SCORE.INTER>
-9.82598

>  <SCORE.INTER.CONST>
1

>  <SCORE.INTER.POLAR>
0

>  <SCORE.INTER.ROT>
5

>  <SCORE.INTER.SOLV>
14.072

>  <SCORE.INTER.VDW>
-18.1747

>  <SCORE.INTER.norm>
-0.982598

>  <SCORE.INTRA>
-0.464848

>  <SCORE.INTRA.DIHEDRAL>
-1.14629

>  <SCORE.INTRA.DIHEDRAL.0>
2.93688

>  <SCORE.INTRA.POLAR>
0

>  <SCORE.INTRA.POLAR.0>
0

>  <SCORE.INTRA.REPUL>
0

>  <SCORE.INTRA.REPUL.0>
0

>  <SCORE.INTRA.SOLV>
-0.366802

>  <SCORE.INTRA.SOLV.lig_0>
-32.2816

>  <SCORE.INTRA.VDW>
0.291699

>  <SCORE.INTRA.VDW.0>
-0.749945

>  <SCORE.INTRA.norm>
-0.0464848

>  <SCORE.RESTR>
0

>  <SCORE.RESTR.CAVITY>
0

>  <SCORE.RESTR.norm>
0

>  <SCORE.SYSTEM>
0

>  <SCORE.SYSTEM.CONST>
0

>  <SCORE.SYSTEM.DIHEDRAL>
0

>  <SCORE.SYSTEM.SOLV>
0

>  <SCORE.SYSTEM.norm>
0

>  <SCORE.heavy>
10

>  <SCORE.norm>
-1.02908

>  <RMSD>
5.359

$$$$
ligand
 OpenBabel11021811473D
libRbt.so/2013.1/901 2013/11/27
 10  9  0  0  0  0  0  0  0  0999 V2000
   27.1306   14.4388   18.2586 N   0  0  0  0  0  0  0  0  0  0  0  0
   27.7529   14.9812   19.5033 C   0  0  2  0  0  0  0  0  0  0  0  0
   26.7117   15.1840   20.6036 C   0  0  0  0  0  0  0  0  0  0  0  0
   27.0461   15.3057   21.7807 O   0  0  0  0  0  0  0  0  0  0  0  0
   28.5282   16.2711   19.2100 C   0  0  0  0  0  0  0  0  0  0  0  0
   29.3582   16.7519   20.3999 C   0  0  0  0  0  0  0  0  0  0  0  0
   30.4418   15.7580   20.7953 C   0  0  0  0  0  0  0  0  0  0  0  0
   31.2631   16.2768   21.9715 C   0  0  0  0  0  0  0  0  0  0  0  0
   32.0849   17.4895   21.6324 N   0  0  0  0  0  0  0  0  0  0  0  0
   25.5034   15.2611   20.3626 O   0  0  0  0  0  0  0  0  0  0  0  0
  2  1  1  6  0  0  0
  2  3  1  0  0  0  0
  2  5  1  0  0  0  0
  3  4  1  0  0  0  0
  3 10  1  0  0  0  0
  5  6  1  0  0  0  0
  6  7  1  0  0  0  0
  7  8  1  0  0  0  0
  8  9  1  0  0  0  0
M  END
>  <CHROM.1>
162.10798826,-171.24788533,62.81480907,179.19618795,-66.71739236,28.54993487
15.77212432,20.47388131,-2.79472674,0.29474082,1.40588598

>  <Name>
ligand

>  <RI>
0

>  <Rbt.Current_Directory>
/home/itssahil/PROJECTS/Mol_Feturizer/New_Systems/rnas/3DIL

>  <Rbt.Executable>
rbdock ($Id: //depot/dev/client3/rdock/2013.1/src/exe/rbdock.cxx#4 $)

>  <Rbt.Library>
libRbt.so (2013.1, Build901 2013/11/27)

>  <Rbt.Parameter_File>
/export/apps/rDock/src/rDock_2013.1_src/data/scripts/dock_solv.prm

>  <Rbt.Receptor>
prm/blind_docking_60.prm

>  <SCORE>
-10.1733

>  <SCORE.INTER>
-9.739

>  <SCORE.INTER.CONST>
1

>  <SCORE.INTER.POLAR>
0

>  <SCORE.INTER.ROT>
5

>  <SCORE.INTER.SOLV>
14.1607

>  <SCORE.INTER.VDW>
-18.1462

>  <SCORE.INTER.norm>
-0.9739

>  <SCORE.INTRA>
-0.434308

>  <SCORE.INTRA.DIHEDRAL>
-0.993314

>  <SCORE.INTRA.DIHEDRAL.0>
2.93688

>  <SCORE.INTRA.POLAR>
0

>  <SCORE.INTRA.POLAR.0>
0

>  <SCORE.INTRA.REPUL>
0

>  <SCORE.INTRA.REPUL.0>
0

>  <SCORE.INTRA.SOLV>
-0.368019

>  <SCORE.INTRA.SOLV.lig_0>
-32.2816

>  <SCORE.INTRA.VDW>
0.246359

>  <SCORE.INTRA.VDW.0>
-0.749945

>  <SCORE.INTRA.norm>
-0.0434308

>  <SCORE.RESTR>
0

>  <SCORE.RESTR.CAVITY>
0

>  <SCORE.RESTR.norm>
0

>  <SCORE.SYSTEM>
0

>  <SCORE.SYSTEM.CONST>
0

>  <SCORE.SYSTEM.DIHEDRAL>
0

>  <SCORE.SYSTEM.SOLV>
0

>  <SCORE.SYSTEM.norm>
0

>  <SCORE.heavy>
10

>  <SCORE.norm>
-1.01733

>  <RMSD>
5.362

$$$$
ligand
 OpenBabel11021811473D
libRbt.so/2013.1/901 2013/11/27
 10  9  0  0  0  0  0  0  0  0999 V2000
   27.1134   14.6079   18.3719 N   0  0  0  0  0  0  0  0  0  0  0  0
   27.7392   15.1325   19.6225 C   0  0  2  0  0  0  0  0  0  0  0  0
   26.7249   15.2080   20.7633 C   0  0  0  0  0  0  0  0  0  0  0  0
   27.0884   15.3623   21.9279 O   0  0  0  0  0  0  0  0  0  0  0  0
   28.4131   16.4865   19.3707 C   0  0  0  0  0  0  0  0  0  0  0  0
   29.3253   16.9212   20.5173 C   0  0  0  0  0  0  0  0  0  0  0  0
   30.5145   15.9886   20.7027 C   0  0  0  0  0  0  0  0  0  0  0  0
   31.2969   16.3371   21.9650 C   0  0  0  0  0  0  0  0  0  0  0  0
   31.9198   17.7049   21.9183 N   0  0  0  0  0  0  0  0  0  0  0  0
   25.5074   15.1455   20.5691 O   0  0  0  0  0  0  0  0  0  0  0  0
  2  1  1  6  0  0  0
  2  3  1  0  0  0  0
  2  5  1  0  0  0  0
  3  4  1  0  0  0  0
  3 10  1  0  0  0  0
  5  6  1  0  0  0  0
  6  7  1  0  0  0  0
  7  8  1  0  0  0  0
  8  9  1  0  0  0  0
M  END
>  <CHROM.1>
165.71994697,-167.25631276,64.41109646,-172.28244589,-63.66830724,28.53283145
15.88676357,20.59594284,-2.81347647,0.33758917,1.44771823

>  <Name>
ligand

>  <RI>
0

>  <Rbt.Current_Directory>
/home/itssahil/PROJECTS/Mol_Feturizer/New_Systems/rnas/3DIL

>  <Rbt.Executable>
rbdock ($Id: //depot/dev/client3/rdock/2013.1/src/exe/rbdock.cxx#4 $)

>  <Rbt.Library>
libRbt.so (2013.1, Build901 2013/11/27)

>  <Rbt.Parameter_File>
/export/apps/rDock/src/rDock_2013.1_src/data/scripts/dock_solv.prm

>  <Rbt.Receptor>
prm/blind_docking_80.prm

>  <SCORE>
-10.0864

>  <SCORE.INTER>
-9.87464

>  <SCORE.INTER.CONST>
1

>  <SCORE.INTER.POLAR>
0

>  <SCORE.INTER.ROT>
5

>  <SCORE.INTER.SOLV>
14.1078

>  <SCORE.INTER.VDW>
-18.219

>  <SCORE.INTER.norm>
-0.987464

>  <SCORE.INTRA>
-0.211773

>  <SCORE.INTRA.DIHEDRAL>
-0.502013

>  <SCORE.INTRA.DIHEDRAL.0>
2.93688

>  <SCORE.INTRA.POLAR>
0

>  <SCORE.INTRA.POLAR.0>
0

>  <SCORE.INTRA.REPUL>
0

>  <SCORE.INTRA.REPUL.0>
0

>  <SCORE.INTRA.SOLV>
-0.334358

>  <SCORE.INTRA.SOLV.lig_0>
-32.2816

>  <SCORE.INTRA.VDW>
0.206413

>  <SCORE.INTRA.VDW.0>
-0.749945

>  <SCORE.INTRA.norm>
-0.0211773

>  <SCORE.RESTR>
0

>  <SCORE.RESTR.CAVITY>
0

>  <SCORE.RESTR.norm>
0

>  <SCORE.SYSTEM>
0

>  <SCORE.SYSTEM.CONST>
0

>  <SCORE.SYSTEM.DIHEDRAL>
0

>  <SCORE.SYSTEM.SOLV>
0

>  <SCORE.SYSTEM.norm>
0

>  <SCORE.heavy>
10

>  <SCORE.norm>
-1.00864

>  <RMSD>
5.363

$$$$
ligand
 OpenBabel11021811473D
libRbt.so/2013.1/901 2013/11/27
 10  9  0  0  0  0  0  0  0  0999 V2000
   27.0832   14.4971   18.2998 N   0  0  0  0  0  0  0  0  0  0  0  0
   27.7249   15.0337   19.5371 C   0  0  2  0  0  0  0  0  0  0  0  0
   26.7013   15.2291   20.6552 C   0  0  0  0  0  0  0  0  0  0  0  0
   25.4951   15.2488   20.4165 O   0  0  0  0  0  0  0  0  0  0  0  0
   28.4937   16.3262   19.2384 C   0  0  0  0  0  0  0  0  0  0  0  0
   29.3285   16.8112   20.4231 C   0  0  0  0  0  0  0  0  0  0  0  0
   30.4485   15.8444   20.7825 C   0  0  0  0  0  0  0  0  0  0  0  0
   31.2229   16.3276   22.0048 C   0  0  0  0  0  0  0  0  0  0  0  0
   31.8605   17.6752   21.8086 N   0  0  0  0  0  0  0  0  0  0  0  0
   27.0315   15.3480   21.8388 O   0  0  0  0  0  0  0  0  0  0  0  0
  2  1  1  6  0  0  0
  2  3  1  0  0  0  0
  2  5  1  0  0  0  0
  3  4  1  0  0  0  0
  3 10  1  0  0  0  0
  5  6  1  0  0  0  0
  6  7  1  0  0  0  0
  7  8  1  0  0  0  0
  8  9  1  0  0  0  0
M  END
>  <CHROM.1>
-16.40688906,-171.96397148,64.80211103,-177.51928698,-59.83045758,28.50718811
15.83343189,20.52281413,-2.77718145,0.31393270,1.40295153

>  <Name>
ligand

>  <RI>
0

>  <Rbt.Current_Directory>
/home/itssahil/PROJECTS/Mol_Feturizer/New_Systems/rnas/3DIL

>  <Rbt.Executable>
rbdock ($Id: //depot/dev/client3/rdock/2013.1/src/exe/rbdock.cxx#4 $)

>  <Rbt.Library>
libRbt.so (2013.1, Build901 2013/11/27)

>  <Rbt.Parameter_File>
/export/apps/rDock/src/rDock_2013.1_src/data/scripts/dock_solv.prm

>  <Rbt.Receptor>
prm/pocket_docking_3.prm

>  <SCORE>
-10.1192

>  <SCORE.INTER>
-9.74206

>  <SCORE.INTER.CONST>
1

>  <SCORE.INTER.POLAR>
0

>  <SCORE.INTER.ROT>
5

>  <SCORE.INTER.SOLV>
14.2503

>  <SCORE.INTER.VDW>
-18.1781

>  <SCORE.INTER.norm>
-0.974206

>  <SCORE.INTRA>
-0.377138

>  <SCORE.INTRA.DIHEDRAL>
-1.03028

>  <SCORE.INTRA.DIHEDRAL.0>
2.93688

>  <SCORE.INTRA.POLAR>
0

>  <SCORE.INTRA.POLAR.0>
0

>  <SCORE.INTRA.REPUL>
0

>  <SCORE.INTRA.REPUL.0>
0

>  <SCORE.INTRA.SOLV>
-0.289931

>  <SCORE.INTRA.SOLV.lig_0>
-32.2816

>  <SCORE.INTRA.VDW>
0.28297

>  <SCORE.INTRA.VDW.0>
-0.749945

>  <SCORE.INTRA.norm>
-0.0377138

>  <SCORE.RESTR>
0

>  <SCORE.RESTR.CAVITY>
0

>  <SCORE.RESTR.norm>
0

>  <SCORE.SYSTEM>
0

>  <SCORE.SYSTEM.CONST>
0

>  <SCORE.SYSTEM.DIHEDRAL>
0

>  <SCORE.SYSTEM.SOLV>
0

>  <SCORE.SYSTEM.norm>
0

>  <SCORE.heavy>
10

>  <SCORE.norm>
-1.01192

>  <RMSD>
5.365

$$$$
ligand
 OpenBabel11021811473D
libRbt.so/2013.1/901 2013/11/27
 10  9  0  0  0  0  0  0  0  0999 V2000
   27.0309   14.2297   18.3823 N   0  0  0  0  0  0  0  0  0  0  0  0
   27.6682   14.9969   19.4940 C   0  0  2  0  0  0  0  0  0  0  0  0
   26.7254   15.1318   20.6893 C   0  0  0  0  0  0  0  0  0  0  0  0
   27.1615   15.2866   21.8287 O   0  0  0  0  0  0  0  0  0  0  0  0
   28.1624   16.3629   19.0031 C   0  0  0  0  0  0  0  0  0  0  0  0
   29.0845   17.0586   20.0038 C   0  0  0  0  0  0  0  0  0  0  0  0
   30.4086   16.3285   20.1826 C   0  0  0  0  0  0  0  0  0  0  0  0
   31.3563   17.1174   21.0808 C   0  0  0  0  0  0  0  0  0  0  0  0
   30.8461   17.2775   22.4861 N   0  0  0  0  0  0  0  0  0  0  0  0
   25.4971   15.1189   20.5658 O   0  0  0  0  0  0  0  0  0  0  0  0
  2  1  1  6  0  0  0
  2  3  1  0  0  0  0
  2  5  1  0  0  0  0
  3  4  1  0  0  0  0
  3 10  1  0  0  0  0
  5  6  1  0  0  0  0
  6  7  1  0  0  0  0
  7  8  1  0  0  0  0
  8  9  1  0  0  0  0
M  END
>  <CHROM.1>
154.12669645,-167.41224841,66.86207526,174.48961723,63.74849952,28.36523343
15.88891566,20.39643255,-2.79507750,0.41161802,1.39457802

>  <Name>
ligand

>  <RI>
0

>  <Rbt.Current_Directory>
/home/itssahil/PROJECTS/Mol_Feturizer/New_Systems/rnas/3DIL

>  <Rbt.Executable>
rbdock ($Id: //depot/dev/client3/rdock/2013.1/src/exe/rbdock.cxx#4 $)

>  <Rbt.Library>
libRbt.so (2013.1, Build901 2013/11/27)

>  <Rbt.Parameter_File>
/export/apps/rDock/src/rDock_2013.1_src/data/scripts/dock_solv.prm

>  <Rbt.Receptor>
prm/pocket_docking_5.prm

>  <SCORE>
-9.44612

>  <SCORE.INTER>
-9.01555

>  <SCORE.INTER.CONST>
1

>  <SCORE.INTER.POLAR>
0

>  <SCORE.INTER.ROT>
5

>  <SCORE.INTER.SOLV>
15.5469

>  <SCORE.INTER.VDW>
-18.126

>  <SCORE.INTER.norm>
-0.901555

>  <SCORE.INTRA>
-0.430572

>  <SCORE.INTRA.DIHEDRAL>
-0.533569

>  <SCORE.INTRA.DIHEDRAL.0>
2.93688

>  <SCORE.INTRA.POLAR>
0

>  <SCORE.INTRA.POLAR.0>
0

>  <SCORE.INTRA.REPUL>
0

>  <SCORE.INTRA.REPUL.0>
0

>  <SCORE.INTRA.SOLV>
-0.348857

>  <SCORE.INTRA.SOLV.lig_0>
-32.2816

>  <SCORE.INTRA.VDW>
0.0106417

>  <SCORE.INTRA.VDW.0>
-0.749945

>  <SCORE.INTRA.norm>
-0.0430572

>  <SCORE.RESTR>
0

>  <SCORE.RESTR.CAVITY>
0

>  <SCORE.RESTR.norm>
0

>  <SCORE.SYSTEM>
0

>  <SCORE.SYSTEM.CONST>
0

>  <SCORE.SYSTEM.DIHEDRAL>
0

>  <SCORE.SYSTEM.SOLV>
0

>  <SCORE.SYSTEM.norm>
0

>  <SCORE.heavy>
10

>  <SCORE.norm>
-0.944612

>  <RMSD>
5.365

$$$$
ligand
 OpenBabel11021811473D
libRbt.so/2013.1/901 2013/11/27
 10  9  0  0  0  0  0  0  0  0999 V2000
   27.6334   14.8987   18.4581 N   0  0  0  0  0  0  0  0  0  0  0  0
   27.9958   14.8144   19.9046 C   0  0  2  0  0  0  0  0  0  0  0  0
   26.8235   15.2214   20.7969 C   0  0  0  0  0  0  0  0  0  0  0  0
   26.9799   15.4212   22.0002 O   0  0  0  0  0  0  0  0  0  0  0  0
   29.2513   15.6424   20.2032 C   0  0  0  0  0  0  0  0  0  0  0  0
   29.8292   15.3701   21.5916 C   0  0  0  0  0  0  0  0  0  0  0  0
   31.1956   16.0115   21.7910 C   0  0  0  0  0  0  0  0  0  0  0  0
   31.0944   17.5336   21.7982 C   0  0  0  0  0  0  0  0  0  0  0  0
   32.4225   18.2158   21.9763 N   0  0  0  0  0  0  0  0  0  0  0  0
   25.6845   15.3927   20.3527 O   0  0  0  0  0  0  0  0  0  0  0  0
  2  1  1  6  0  0  0
  2  3  1  0  0  0  0
  2  5  1  0  0  0  0
  3  4  1  0  0  0  0
  3 10  1  0  0  0  0
  5  6  1  0  0  0  0
  6  7  1  0  0  0  0
  7  8  1  0  0  0  0
  8  9  1  0  0  0  0
M  END
>  <CHROM.1>
-168.43856505,-168.34062320,170.30876461,66.95466576,-179.32120692,28.85507420
15.85595366,20.90384835,-2.72212645,0.28713975,1.21824542

>  <Name>
ligand

>  <RI>
0

>  <Rbt.Current_Directory>
/home/itssahil/PROJECTS/Mol_Feturizer/New_Systems/rnas/3DIL

>  <Rbt.Executable>
rbdock ($Id: //depot/dev/client3/rdock/2013.1/src/exe/rbdock.cxx#4 $)

>  <Rbt.Library>
libRbt.so (2013.1, Build901 2013/11/27)

>  <Rbt.Parameter_File>
/export/apps/rDock/src/rDock_2013.1_src/data/scripts/dock_solv.prm

>  <Rbt.Receptor>
prm/pocket_docking_4.prm

>  <SCORE>
-9.25915

>  <SCORE.INTER>
-9.55924

>  <SCORE.INTER.CONST>
1

>  <SCORE.INTER.POLAR>
0

>  <SCORE.INTER.ROT>
5

>  <SCORE.INTER.SOLV>
13.9896

>  <SCORE.INTER.VDW>
-17.9694

>  <SCORE.INTER.norm>
-0.955924

>  <SCORE.INTRA>
0.300098

>  <SCORE.INTRA.DIHEDRAL>
-0.320348

>  <SCORE.INTRA.DIHEDRAL.0>
2.93688

>  <SCORE.INTRA.POLAR>
0

>  <SCORE.INTRA.POLAR.0>
0

>  <SCORE.INTRA.REPUL>
0

>  <SCORE.INTRA.REPUL.0>
0

>  <SCORE.INTRA.SOLV>
-1.27269

>  <SCORE.INTRA.SOLV.lig_0>
-32.2816

>  <SCORE.INTRA.VDW>
1.09662

>  <SCORE.INTRA.VDW.0>
-0.749945

>  <SCORE.INTRA.norm>
0.0300098

>  <SCORE.RESTR>
0

>  <SCORE.RESTR.CAVITY>
0

>  <SCORE.RESTR.norm>
0

>  <SCORE.SYSTEM>
0

>  <SCORE.SYSTEM.CONST>
0

>  <SCORE.SYSTEM.DIHEDRAL>
0

>  <SCORE.SYSTEM.SOLV>
0

>  <SCORE.SYSTEM.norm>
0

>  <SCORE.heavy>
10

>  <SCORE.norm>
-0.925915

>  <RMSD>
5.366

$$$$
ligand
 OpenBabel11021811473D
libRbt.so/2013.1/901 2013/11/27
 10  9  0  0  0  0  0  0  0  0999 V2000
   27.2427   14.0229   18.3889 N   0  0  0  0  0  0  0  0  0  0  0  0
   27.7310   14.9321   19.4685 C   0  0  2  0  0  0  0  0  0  0  0  0
   26.6227   15.2510   20.4714 C   0  0  0  0  0  0  0  0  0  0  0  0
   25.4593   15.4076   20.1048 O   0  0  0  0  0  0  0  0  0  0  0  0
   28.3442   16.2060   18.8751 C   0  0  0  0  0  0  0  0  0  0  0  0
   28.7594   17.2203   19.9403 C   0  0  0  0  0  0  0  0  0  0  0  0
   29.8502   16.6880   20.8595 C   0  0  0  0  0  0  0  0  0  0  0  0
   31.2051   16.6769   20.1586 C   0  0  0  0  0  0  0  0  0  0  0  0
   32.3404   16.2958   21.0679 N   0  0  0  0  0  0  0  0  0  0  0  0
   26.8355   15.3389   21.6843 O   0  0  0  0  0  0  0  0  0  0  0  0
  2  1  1  6  0  0  0
  2  3  1  0  0  0  0
  2  5  1  0  0  0  0
  3  4  1  0  0  0  0
  3 10  1  0  0  0  0
  5  6  1  0  0  0  0
  6  7  1  0  0  0  0
  7  8  1  0  0  0  0
  8  9  1  0  0  0  0
M  END
>  <CHROM.1>
-37.12808422,175.44140223,62.90856303,75.04022978,173.97440100,28.40559710
15.80621076,20.12342849,-2.91550184,0.24272892,1.20489753

>  <Name>
ligand

>  <RI>
0

>  <Rbt.Current_Directory>
/home/itssahil/PROJECTS/Mol_Feturizer/New_Systems/rnas/3DIL

>  <Rbt.Executable>
rbdock ($Id: //depot/dev/client3/rdock/2013.1/src/exe/rbdock.cxx#4 $)

>  <Rbt.Library>
libRbt.so (2013.1, Build901 2013/11/27)

>  <Rbt.Parameter_File>
/export/apps/rDock/src/rDock_2013.1_src/data/scripts/dock_solv.prm

>  <Rbt.Receptor>
prm/pocket_docking_3.prm

>  <SCORE>
-8.53942

>  <SCORE.INTER>
-8.51073

>  <SCORE.INTER.CONST>
1

>  <SCORE.INTER.POLAR>
0

>  <SCORE.INTER.ROT>
5

>  <SCORE.INTER.SOLV>
15.8151

>  <SCORE.INTER.VDW>
-17.8789

>  <SCORE.INTER.norm>
-0.851073

>  <SCORE.INTRA>
-0.0291558

>  <SCORE.INTRA.DIHEDRAL>
-0.214439

>  <SCORE.INTRA.DIHEDRAL.0>
2.93688

>  <SCORE.INTRA.POLAR>
0

>  <SCORE.INTRA.POLAR.0>
0

>  <SCORE.INTRA.REPUL>
0

>  <SCORE.INTRA.REPUL.0>
0

>  <SCORE.INTRA.SOLV>
-1.15734

>  <SCORE.INTRA.SOLV.lig_0>
-32.2816

>  <SCORE.INTRA.VDW>
0.656736

>  <SCORE.INTRA.VDW.0>
-0.749945

>  <SCORE.INTRA.norm>
-0.00291558

>  <SCORE.RESTR>
0.000461768

>  <SCORE.RESTR.CAVITY>
0.000461768

>  <SCORE.RESTR.norm>
4.61768e-05

>  <SCORE.SYSTEM>
0

>  <SCORE.SYSTEM.CONST>
0

>  <SCORE.SYSTEM.DIHEDRAL>
0

>  <SCORE.SYSTEM.SOLV>
0

>  <SCORE.SYSTEM.norm>
0

>  <SCORE.heavy>
10

>  <SCORE.norm>
-0.853942

>  <RMSD>
5.369

$$$$
ligand
 OpenBabel11021811473D
libRbt.so/2013.1/901 2013/11/27
 10  9  0  0  0  0  0  0  0  0999 V2000
   28.6031   14.7241   18.9088 N   0  0  0  0  0  0  0  0  0  0  0  0
   28.5040   15.4443   20.2135 C   0  0  2  0  0  0  0  0  0  0  0  0
   27.1161   15.2848   20.8334 C   0  0  0  0  0  0  0  0  0  0  0  0
   26.9271   15.4912   22.0309 O   0  0  0  0  0  0  0  0  0  0  0  0
   28.8892   16.9198   20.0547 C   0  0  0  0  0  0  0  0  0  0  0  0
   30.4008   17.1394   20.0022 C   0  0  0  0  0  0  0  0  0  0  0  0
   31.0532   17.0384   21.3742 C   0  0  0  0  0  0  0  0  0  0  0  0
   32.5363   17.3892   21.3067 C   0  0  0  0  0  0  0  0  0  0  0  0
   33.1952   17.4434   22.6572 N   0  0  0  0  0  0  0  0  0  0  0  0
   26.1267   14.9716   20.1647 O   0  0  0  0  0  0  0  0  0  0  0  0
  2  1  1  6  0  0  0
  2  3  1  0  0  0  0
  2  5  1  0  0  0  0
  3  4  1  0  0  0  0
  3 10  1  0  0  0  0
  5  6  1  0  0  0  0
  6  7  1  0  0  0  0
  7  8  1  0  0  0  0
  8  9  1  0  0  0  0
M  END
>  <CHROM.1>
160.92827300,-78.89393574,-76.45591593,-174.73761638,174.02589151,29.29385245
16.17613961,20.76694824,-2.87408146,0.35235098,1.41047361

>  <Name>
ligand

>  <RI>
0

>  <Rbt.Current_Directory>
/home/itssahil/PROJECTS/Mol_Feturizer/New_Systems/rnas/3DIL

>  <Rbt.Executable>
rbdock ($Id: //depot/dev/client3/rdock/2013.1/src/exe/rbdock.cxx#4 $)

>  <Rbt.Library>
libRbt.so (2013.1, Build901 2013/11/27)

>  <Rbt.Parameter_File>
/export/apps/rDock/src/rDock_2013.1_src/data/scripts/dock_solv.prm

>  <Rbt.Receptor>
prm/pocket_docking_8.prm

>  <SCORE>
-6.06942

>  <SCORE.INTER>
-6.30076

>  <SCORE.INTER.CONST>
1

>  <SCORE.INTER.POLAR>
0

>  <SCORE.INTER.ROT>
5

>  <SCORE.INTER.SOLV>
14.7637

>  <SCORE.INTER.VDW>
-16.0551

>  <SCORE.INTER.norm>
-0.630076

>  <SCORE.INTRA>
0.222895

>  <SCORE.INTRA.DIHEDRAL>
1.17309

>  <SCORE.INTRA.DIHEDRAL.0>
2.93688

>  <SCORE.INTRA.POLAR>
0

>  <SCORE.INTRA.POLAR.0>
0

>  <SCORE.INTRA.REPUL>
0

>  <SCORE.INTRA.REPUL.0>
0

>  <SCORE.INTRA.SOLV>
-0.545638

>  <SCORE.INTRA.SOLV.lig_0>
-32.2816

>  <SCORE.INTRA.VDW>
-0.0908328

>  <SCORE.INTRA.VDW.0>
-0.749945

>  <SCORE.INTRA.norm>
0.0222895

>  <SCORE.RESTR>
0.0084497

>  <SCORE.RESTR.CAVITY>
0.0084497

>  <SCORE.RESTR.norm>
0.00084497

>  <SCORE.SYSTEM>
0

>  <SCORE.SYSTEM.CONST>
0

>  <SCORE.SYSTEM.DIHEDRAL>
0

>  <SCORE.SYSTEM.SOLV>
0

>  <SCORE.SYSTEM.norm>
0

>  <SCORE.heavy>
10

>  <SCORE.norm>
-0.606942

>  <RMSD>
5.372

$$$$
ligand
 OpenBabel11021811473D
libRbt.so/2013.1/901 2013/11/27
 10  9  0  0  0  0  0  0  0  0999 V2000
   26.8854   14.5458   18.4769 N   0  0  0  0  0  0  0  0  0  0  0  0
   27.5852   15.1845   19.6314 C   0  0  2  0  0  0  0  0  0  0  0  0
   26.8327   14.9455   20.9400 C   0  0  0  0  0  0  0  0  0  0  0  0
   27.4260   14.9058   22.0165 O   0  0  0  0  0  0  0  0  0  0  0  0
   27.8158   16.6781   19.3731 C   0  0  0  0  0  0  0  0  0  0  0  0
   29.2782   17.0925   19.5330 C   0  0  0  0  0  0  0  0  0  0  0  0
   29.8157   16.8093   20.9291 C   0  0  0  0  0  0  0  0  0  0  0  0
   31.2991   17.1509   21.0286 C   0  0  0  0  0  0  0  0  0  0  0  0
   31.9063   16.7784   22.3528 N   0  0  0  0  0  0  0  0  0  0  0  0
   25.6064   14.8096   20.9807 O   0  0  0  0  0  0  0  0  0  0  0  0
  2  1  1  6  0  0  0
  2  3  1  0  0  0  0
  2  5  1  0  0  0  0
  3  4  1  0  0  0  0
  3 10  1  0  0  0  0
  5  6  1  0  0  0  0
  6  7  1  0  0  0  0
  7  8  1  0  0  0  0
  8  9  1  0  0  0  0
M  END
>  <CHROM.1>
151.49949184,-126.02996656,-59.45304770,176.36596660,-175.03604624,28.42005967
15.87976557,20.55392000,-3.02439944,0.46965933,1.82717633

>  <Name>
ligand

>  <RI>
0

>  <Rbt.Current_Directory>
/home/itssahil/PROJECTS/Mol_Feturizer/New_Systems/rnas/3DIL

>  <Rbt.Executable>
rbdock ($Id: //depot/dev/client3/rdock/2013.1/src/exe/rbdock.cxx#4 $)

>  <Rbt.Library>
libRbt.so (2013.1, Build901 2013/11/27)

>  <Rbt.Parameter_File>
/export/apps/rDock/src/rDock_2013.1_src/data/scripts/dock_solv.prm

>  <Rbt.Receptor>
prm/pocket_docking_4.prm

>  <SCORE>
-5.471

>  <SCORE.INTER>
-6.96593

>  <SCORE.INTER.CONST>
1

>  <SCORE.INTER.POLAR>
0

>  <SCORE.INTER.ROT>
5

>  <SCORE.INTER.SOLV>
17.1121

>  <SCORE.INTER.VDW>
-17.2813

>  <SCORE.INTER.norm>
-0.696593

>  <SCORE.INTRA>
1.49493

>  <SCORE.INTRA.DIHEDRAL>
4.25295

>  <SCORE.INTRA.DIHEDRAL.0>
2.93688

>  <SCORE.INTRA.POLAR>
0

>  <SCORE.INTRA.POLAR.0>
0

>  <SCORE.INTRA.REPUL>
0

>  <SCORE.INTRA.REPUL.0>
0

>  <SCORE.INTRA.SOLV>
-1.10203

>  <SCORE.INTRA.SOLV.lig_0>
-32.2816

>  <SCORE.INTRA.VDW>
-0.080529

>  <SCORE.INTRA.VDW.0>
-0.749945

>  <SCORE.INTRA.norm>
0.149493

>  <SCORE.RESTR>
0

>  <SCORE.RESTR.CAVITY>
0

>  <SCORE.RESTR.norm>
0

>  <SCORE.SYSTEM>
0

>  <SCORE.SYSTEM.CONST>
0

>  <SCORE.SYSTEM.DIHEDRAL>
0

>  <SCORE.SYSTEM.SOLV>
0

>  <SCORE.SYSTEM.norm>
0

>  <SCORE.heavy>
10

>  <SCORE.norm>
-0.5471

>  <RMSD>
5.375

$$$$
ligand
 OpenBabel11021811473D
libRbt.so/2013.1/901 2013/11/27
 10  9  0  0  0  0  0  0  0  0999 V2000
   27.5050   16.9169   19.2083 N   0  0  0  0  0  0  0  0  0  0  0  0
   27.5478   15.4906   19.6493 C   0  0  2  0  0  0  0  0  0  0  0  0
   26.6516   15.2565   20.8650 C   0  0  0  0  0  0  0  0  0  0  0  0
   25.4885   14.8790   20.7341 O   0  0  0  0  0  0  0  0  0  0  0  0
   28.9903   15.0422   19.9120 C   0  0  0  0  0  0  0  0  0  0  0  0
   29.7272   15.9497   20.8966 C   0  0  0  0  0  0  0  0  0  0  0  0
   31.2217   15.6631   20.9482 C   0  0  0  0  0  0  0  0  0  0  0  0
   31.9133   16.5294   21.9962 C   0  0  0  0  0  0  0  0  0  0  0  0
   31.8216   18.0014   21.7035 N   0  0  0  0  0  0  0  0  0  0  0  0
   27.0557   15.4076   22.0216 O   0  0  0  0  0  0  0  0  0  0  0  0
  2  1  1  1  0  0  0
  2  3  1  0  0  0  0
  2  5  1  0  0  0  0
  3  4  1  0  0  0  0
  3 10  1  0  0  0  0
  5  6  1  0  0  0  0
  6  7  1  0  0  0  0
  7  8  1  0  0  0  0
  8  9  1  0  0  0  0
M  END
>  <CHROM.1>
93.33597802,54.26503594,-168.97669071,-176.74833598,-62.67833002,28.76103465
15.90407156,20.81705916,-3.05248346,0.31831576,1.85649406

>  <Name>
ligand

>  <RI>
0

>  <Rbt.Current_Directory>
/home/itssahil/PROJECTS/Mol_Feturizer/New_Systems/rnas/3DIL

>  <Rbt.Executable>
rbdock ($Id: //depot/dev/client3/rdock/2013.1/src/exe/rbdock.cxx#4 $)

>  <Rbt.Library>
libRbt.so (2013.1, Build901 2013/11/27)

>  <Rbt.Parameter_File>
/export/apps/rDock/src/rDock_2013.1_src/data/scripts/dock_solv.prm

>  <Rbt.Receptor>
prm/blind_docking_60.prm

>  <SCORE>
-6.84777

>  <SCORE.INTER>
-7.26365

>  <SCORE.INTER.CONST>
1

>  <SCORE.INTER.POLAR>
0

>  <SCORE.INTER.ROT>
5

>  <SCORE.INTER.SOLV>
16.1676

>  <SCORE.INTER.VDW>
-17.165

>  <SCORE.INTER.norm>
-0.726365

>  <SCORE.INTRA>
0.414271

>  <SCORE.INTRA.DIHEDRAL>
-0.66484

>  <SCORE.INTRA.DIHEDRAL.0>
2.93688

>  <SCORE.INTRA.POLAR>
0

>  <SCORE.INTRA.POLAR.0>
0

>  <SCORE.INTRA.REPUL>
0

>  <SCORE.INTRA.REPUL.0>
0

>  <SCORE.INTRA.SOLV>
0.401619

>  <SCORE.INTRA.SOLV.lig_0>
-32.2816

>  <SCORE.INTRA.VDW>
0.545881

>  <SCORE.INTRA.VDW.0>
-0.749945

>  <SCORE.INTRA.norm>
0.0414271

>  <SCORE.RESTR>
0.00161313

>  <SCORE.RESTR.CAVITY>
0.00161313

>  <SCORE.RESTR.norm>
0.000161313

>  <SCORE.SYSTEM>
0

>  <SCORE.SYSTEM.CONST>
0

>  <SCORE.SYSTEM.DIHEDRAL>
0

>  <SCORE.SYSTEM.SOLV>
0

>  <SCORE.SYSTEM.norm>
0

>  <SCORE.heavy>
10

>  <SCORE.norm>
-0.684777

>  <RMSD>
5.376

$$$$
ligand
 OpenBabel11021811473D
libRbt.so/2013.1/901 2013/11/27
 10  9  0  0  0  0  0  0  0  0999 V2000
   27.8034   14.9872   18.4935 N   0  0  0  0  0  0  0  0  0  0  0  0
   28.1379   14.9488   19.9485 C   0  0  2  0  0  0  0  0  0  0  0  0
   26.9070   15.2279   20.8104 C   0  0  0  0  0  0  0  0  0  0  0  0
   25.7763   15.2149   20.3270 O   0  0  0  0  0  0  0  0  0  0  0  0
   29.2874   15.9109   20.2712 C   0  0  0  0  0  0  0  0  0  0  0  0
   29.9491   15.6195   21.6177 C   0  0  0  0  0  0  0  0  0  0  0  0
   30.9597   16.6870   22.0145 C   0  0  0  0  0  0  0  0  0  0  0  0
   32.1389   16.7166   21.0471 C   0  0  0  0  0  0  0  0  0  0  0  0
   33.1561   17.7716   21.3837 N   0  0  0  0  0  0  0  0  0  0  0  0
   26.9864   15.4502   22.0221 O   0  0  0  0  0  0  0  0  0  0  0  0
  2  1  1  6  0  0  0
  2  3  1  0  0  0  0
  2  5  1  0  0  0  0
  3  4  1  0  0  0  0
  3 10  1  0  0  0  0
  5  6  1  0  0  0  0
  6  7  1  0  0  0  0
  7  8  1  0  0  0  0
  8  9  1  0  0  0  0
M  END
>  <CHROM.1>
12.94438599,-162.65483063,-172.31647882,-64.82592346,179.06117767,29.07194641
15.85415058,20.81025531,-2.89568006,0.29595854,1.37241436

>  <Name>
ligand

>  <RI>
0

>  <Rbt.Current_Directory>
/home/itssahil/PROJECTS/Mol_Feturizer/New_Systems/rnas/3DIL

>  <Rbt.Executable>
rbdock ($Id: //depot/dev/client3/rdock/2013.1/src/exe/rbdock.cxx#4 $)

>  <Rbt.Library>
libRbt.so (2013.1, Build901 2013/11/27)

>  <Rbt.Parameter_File>
/export/apps/rDock/src/rDock_2013.1_src/data/scripts/dock_solv.prm

>  <Rbt.Receptor>
prm/pocket_docking_5.prm

>  <SCORE>
-9.08576

>  <SCORE.INTER>
-9.37841

>  <SCORE.INTER.CONST>
1

>  <SCORE.INTER.POLAR>
0

>  <SCORE.INTER.ROT>
5

>  <SCORE.INTER.SOLV>
13.9179

>  <SCORE.INTER.VDW>
-17.8249

>  <SCORE.INTER.norm>
-0.937841

>  <SCORE.INTRA>
0.29265

>  <SCORE.INTRA.DIHEDRAL>
-0.0449289

>  <SCORE.INTRA.DIHEDRAL.0>
2.93688

>  <SCORE.INTRA.POLAR>
0

>  <SCORE.INTRA.POLAR.0>
0

>  <SCORE.INTRA.REPUL>
0

>  <SCORE.INTRA.REPUL.0>
0

>  <SCORE.INTRA.SOLV>
-1.24334

>  <SCORE.INTRA.SOLV.lig_0>
-32.2816

>  <SCORE.INTRA.VDW>
0.936786

>  <SCORE.INTRA.VDW.0>
-0.749945

>  <SCORE.INTRA.norm>
0.029265

>  <SCORE.RESTR>
0

>  <SCORE.RESTR.CAVITY>
0

>  <SCORE.RESTR.norm>
0

>  <SCORE.SYSTEM>
0

>  <SCORE.SYSTEM.CONST>
0

>  <SCORE.SYSTEM.DIHEDRAL>
0

>  <SCORE.SYSTEM.SOLV>
0

>  <SCORE.SYSTEM.norm>
0

>  <SCORE.heavy>
10

>  <SCORE.norm>
-0.908576

>  <RMSD>
5.377

$$$$
ligand
 OpenBabel11021811473D
libRbt.so/2013.1/901 2013/11/27
 10  9  0  0  0  0  0  0  0  0999 V2000
   28.4352   14.9616   18.7933 N   0  0  0  0  0  0  0  0  0  0  0  0
   27.8450   14.5314   20.0961 C   0  0  2  0  0  0  0  0  0  0  0  0
   26.4979   15.2081   20.3475 C   0  0  0  0  0  0  0  0  0  0  0  0
   25.7571   14.8324   21.2545 O   0  0  0  0  0  0  0  0  0  0  0  0
   28.8268   14.7747   21.2484 C   0  0  0  0  0  0  0  0  0  0  0  0
   29.4459   16.1718   21.2198 C   0  0  0  0  0  0  0  0  0  0  0  0
   30.4936   16.3683   22.3071 C   0  0  0  0  0  0  0  0  0  0  0  0
   31.2865   17.6521   22.0831 C   0  0  0  0  0  0  0  0  0  0  0  0
   32.0966   17.6358   20.8165 N   0  0  0  0  0  0  0  0  0  0  0  0
   26.1066   16.1686   19.6778 O   0  0  0  0  0  0  0  0  0  0  0  0
  2  1  1  6  0  0  0
  2  3  1  0  0  0  0
  2  5  1  0  0  0  0
  3  4  1  0  0  0  0
  3 10  1  0  0  0  0
  5  6  1  0  0  0  0
  6  7  1  0  0  0  0
  7  8  1  0  0  0  0
  8  9  1  0  0  0  0
M  END
>  <CHROM.1>
168.42766341,47.69059214,-175.83117971,168.55390515,-64.05911599,28.63898718
15.83928575,20.78694077,-2.83935373,0.36648235,1.43440118

>  <Name>
ligand

>  <RI>
0

>  <Rbt.Current_Directory>
/home/itssahil/PROJECTS/Mol_Feturizer/New_Systems/rnas/3DIL

>  <Rbt.Executable>
rbdock ($Id: //depot/dev/client3/rdock/2013.1/src/exe/rbdock.cxx#4 $)

>  <Rbt.Library>
libRbt.so (2013.1, Build901 2013/11/27)

>  <Rbt.Parameter_File>
/export/apps/rDock/src/rDock_2013.1_src/data/scripts/dock_solv.prm

>  <Rbt.Receptor>
prm/pocket_docking_3.prm

>  <SCORE>
-8.05434

>  <SCORE.INTER>
-8.41586

>  <SCORE.INTER.CONST>
1

>  <SCORE.INTER.POLAR>
0

>  <SCORE.INTER.ROT>
5

>  <SCORE.INTER.SOLV>
12.6704

>  <SCORE.INTER.VDW>
-16.7674

>  <SCORE.INTER.norm>
-0.841586

>  <SCORE.INTRA>
0.36152

>  <SCORE.INTRA.DIHEDRAL>
-0.190909

>  <SCORE.INTRA.DIHEDRAL.0>
2.93688

>  <SCORE.INTRA.POLAR>
0

>  <SCORE.INTRA.POLAR.0>
0

>  <SCORE.INTRA.REPUL>
0

>  <SCORE.INTRA.REPUL.0>
0

>  <SCORE.INTRA.SOLV>
0.535115

>  <SCORE.INTRA.SOLV.lig_0>
-32.2816

>  <SCORE.INTRA.VDW>
0.189417

>  <SCORE.INTRA.VDW.0>
-0.749945

>  <SCORE.INTRA.norm>
0.036152

>  <SCORE.RESTR>
0

>  <SCORE.RESTR.CAVITY>
0

>  <SCORE.RESTR.norm>
0

>  <SCORE.SYSTEM>
0

>  <SCORE.SYSTEM.CONST>
0

>  <SCORE.SYSTEM.DIHEDRAL>
0

>  <SCORE.SYSTEM.SOLV>
0

>  <SCORE.SYSTEM.norm>
0

>  <SCORE.heavy>
10

>  <SCORE.norm>
-0.805434

>  <RMSD>
5.378

$$$$
ligand
 OpenBabel11021811473D
libRbt.so/2013.1/901 2013/11/27
 10  9  0  0  0  0  0  0  0  0999 V2000
   28.5063   14.2692   19.9829 N   0  0  0  0  0  0  0  0  0  0  0  0
   28.2096   14.9659   18.6955 C   0  0  2  0  0  0  0  0  0  0  0  0
   27.8416   16.4311   18.9273 C   0  0  0  0  0  0  0  0  0  0  0  0
   26.8314   16.7410   19.5564 O   0  0  0  0  0  0  0  0  0  0  0  0
   27.1216   14.2242   17.9101 C   0  0  0  0  0  0  0  0  0  0  0  0
   27.5471   12.8201   17.4819 C   0  0  0  0  0  0  0  0  0  0  0  0
   26.3814   11.9901   16.9618 C   0  0  0  0  0  0  0  0  0  0  0  0
   26.7855   10.5318   16.7694 C   0  0  0  0  0  0  0  0  0  0  0  0
   26.9375    9.7824   18.0641 N   0  0  0  0  0  0  0  0  0  0  0  0
   28.5461   17.3605   18.5224 O   0  0  0  0  0  0  0  0  0  0  0  0
  2  1  1  1  0  0  0
  2  3  1  0  0  0  0
  2  5  1  0  0  0  0
  3  4  1  0  0  0  0
  3 10  1  0  0  0  0
  5  6  1  0  0  0  0
  6  7  1  0  0  0  0
  7  8  1  0  0  0  0
  8  9  1  0  0  0  0
M  END
>  <CHROM.1>
-64.07607878,-63.65897595,168.19463370,-170.27613455,73.56041440,27.46626124
13.95641243,18.29592762,-1.19658192,1.07723464,3.09582292

>  <Name>
ligand

>  <RI>
0

>  <Rbt.Current_Directory>
/home/itssahil/PROJECTS/Mol_Feturizer/New_Systems/rnas/3DIL

>  <Rbt.Executable>
rbdock ($Id: //depot/dev/client3/rdock/2013.1/src/exe/rbdock.cxx#4 $)

>  <Rbt.Library>
libRbt.so (2013.1, Build901 2013/11/27)

>  <Rbt.Parameter_File>
/export/apps/rDock/src/rDock_2013.1_src/data/scripts/dock_solv.prm

>  <Rbt.Receptor>
prm/blind_docking_40.prm

>  <SCORE>
-3.88448

>  <SCORE.INTER>
-4.07285

>  <SCORE.INTER.CONST>
1

>  <SCORE.INTER.POLAR>
0

>  <SCORE.INTER.ROT>
5

>  <SCORE.INTER.SOLV>
16.3235

>  <SCORE.INTER.VDW>
-15.0897

>  <SCORE.INTER.norm>
-0.407285

>  <SCORE.INTRA>
0.188371

>  <SCORE.INTRA.DIHEDRAL>
0.238865

>  <SCORE.INTRA.DIHEDRAL.0>
2.93688

>  <SCORE.INTRA.POLAR>
0

>  <SCORE.INTRA.POLAR.0>
0

>  <SCORE.INTRA.REPUL>
0

>  <SCORE.INTRA.REPUL.0>
0

>  <SCORE.INTRA.SOLV>
0.235318

>  <SCORE.INTRA.SOLV.lig_0>
-32.2816

>  <SCORE.INTRA.VDW>
-0.0487205

>  <SCORE.INTRA.VDW.0>
-0.749945

>  <SCORE.INTRA.norm>
0.0188371

>  <SCORE.RESTR>
0

>  <SCORE.RESTR.CAVITY>
0

>  <SCORE.RESTR.norm>
0

>  <SCORE.SYSTEM>
0

>  <SCORE.SYSTEM.CONST>
0

>  <SCORE.SYSTEM.DIHEDRAL>
0

>  <SCORE.SYSTEM.SOLV>
0

>  <SCORE.SYSTEM.norm>
0

>  <SCORE.heavy>
10

>  <SCORE.norm>
-0.388448

>  <RMSD>
5.379

$$$$
ligand
 OpenBabel11021811473D
libRbt.so/2013.1/901 2013/11/27
 10  9  0  0  0  0  0  0  0  0999 V2000
   28.5726   16.4757   19.5546 N   0  0  0  0  0  0  0  0  0  0  0  0
   28.1047   15.3684   20.4409 C   0  0  2  0  0  0  0  0  0  0  0  0
   26.5788   15.2864   20.4712 C   0  0  0  0  0  0  0  0  0  0  0  0
   25.8994   15.7418   19.5528 O   0  0  0  0  0  0  0  0  0  0  0  0
   28.6942   15.5087   21.8493 C   0  0  0  0  0  0  0  0  0  0  0  0
   30.2196   15.6034   21.8509 C   0  0  0  0  0  0  0  0  0  0  0  0
   30.7171   17.0134   21.5634 C   0  0  0  0  0  0  0  0  0  0  0  0
   32.2415   17.0653   21.5356 C   0  0  0  0  0  0  0  0  0  0  0  0
   32.8398   16.3111   20.3805 N   0  0  0  0  0  0  0  0  0  0  0  0
   25.9653   14.7424   21.3941 O   0  0  0  0  0  0  0  0  0  0  0  0
  2  1  1  6  0  0  0
  2  3  1  0  0  0  0
  2  5  1  0  0  0  0
  3  4  1  0  0  0  0
  3 10  1  0  0  0  0
  5  6  1  0  0  0  0
  6  7  1  0  0  0  0
  7  8  1  0  0  0  0
  8  9  1  0  0  0  0
M  END
>  <CHROM.1>
23.16675867,-54.67446502,82.38708927,-178.49113410,67.19824784,28.93813993
15.90561799,20.85733201,-3.10270945,0.25870007,1.92248001

>  <Name>
ligand

>  <RI>
0

>  <Rbt.Current_Directory>
/home/itssahil/PROJECTS/Mol_Feturizer/New_Systems/rnas/3DIL

>  <Rbt.Executable>
rbdock ($Id: //depot/dev/client3/rdock/2013.1/src/exe/rbdock.cxx#4 $)

>  <Rbt.Library>
libRbt.so (2013.1, Build901 2013/11/27)

>  <Rbt.Parameter_File>
/export/apps/rDock/src/rDock_2013.1_src/data/scripts/dock_solv.prm

>  <Rbt.Receptor>
prm/pocket_docking_7.prm

>  <SCORE>
-8.34314

>  <SCORE.INTER>
-10.1374

>  <SCORE.INTER.CONST>
1

>  <SCORE.INTER.POLAR>
0

>  <SCORE.INTER.ROT>
5

>  <SCORE.INTER.SOLV>
13.4441

>  <SCORE.INTER.VDW>
-18.173

>  <SCORE.INTER.norm>
-1.01374

>  <SCORE.INTRA>
1.79423

>  <SCORE.INTRA.DIHEDRAL>
0.696692

>  <SCORE.INTRA.DIHEDRAL.0>
2.93688

>  <SCORE.INTRA.POLAR>
0

>  <SCORE.INTRA.POLAR.0>
0

>  <SCORE.INTRA.REPUL>
0

>  <SCORE.INTRA.REPUL.0>
0

>  <SCORE.INTRA.SOLV>
1.77946

>  <SCORE.INTRA.SOLV.lig_0>
-32.2816

>  <SCORE.INTRA.VDW>
0.556151

>  <SCORE.INTRA.VDW.0>
-0.749945

>  <SCORE.INTRA.norm>
0.179423

>  <SCORE.RESTR>
0

>  <SCORE.RESTR.CAVITY>
0

>  <SCORE.RESTR.norm>
0

>  <SCORE.SYSTEM>
0

>  <SCORE.SYSTEM.CONST>
0

>  <SCORE.SYSTEM.DIHEDRAL>
0

>  <SCORE.SYSTEM.SOLV>
0

>  <SCORE.SYSTEM.norm>
0

>  <SCORE.heavy>
10

>  <SCORE.norm>
-0.834314

>  <RMSD>
5.381

$$$$
ligand
 OpenBabel11021811473D
libRbt.so/2013.1/901 2013/11/27
 10  9  0  0  0  0  0  0  0  0999 V2000
   27.6370   14.9107   18.4449 N   0  0  0  0  0  0  0  0  0  0  0  0
   28.0209   14.9010   19.8882 C   0  0  2  0  0  0  0  0  0  0  0  0
   26.8305   15.2444   20.7833 C   0  0  0  0  0  0  0  0  0  0  0  0
   26.9760   15.4339   21.9896 O   0  0  0  0  0  0  0  0  0  0  0  0
   29.2115   15.8325   20.1440 C   0  0  0  0  0  0  0  0  0  0  0  0
   29.8769   15.5921   21.4988 C   0  0  0  0  0  0  0  0  0  0  0  0
   30.9704   16.6077   21.8004 C   0  0  0  0  0  0  0  0  0  0  0  0
   32.1082   16.5095   20.7890 C   0  0  0  0  0  0  0  0  0  0  0  0
   33.1977   17.5193   21.0218 N   0  0  0  0  0  0  0  0  0  0  0  0
   25.6860   15.3726   20.3388 O   0  0  0  0  0  0  0  0  0  0  0  0
  2  1  1  6  0  0  0
  2  3  1  0  0  0  0
  2  5  1  0  0  0  0
  3  4  1  0  0  0  0
  3 10  1  0  0  0  0
  5  6  1  0  0  0  0
  6  7  1  0  0  0  0
  7  8  1  0  0  0  0
  8  9  1  0  0  0  0
M  END
>  <CHROM.1>
-171.80569404,-164.87248068,-174.48808150,-62.97335369,178.41841553,29.01415486
15.79556625,20.68791769,-2.94763181,0.26220291,1.36739359

>  <Name>
ligand

>  <RI>
0

>  <Rbt.Current_Directory>
/home/itssahil/PROJECTS/Mol_Feturizer/New_Systems/rnas/3DIL

>  <Rbt.Executable>
rbdock ($Id: //depot/dev/client3/rdock/2013.1/src/exe/rbdock.cxx#4 $)

>  <Rbt.Library>
libRbt.so (2013.1, Build901 2013/11/27)

>  <Rbt.Parameter_File>
/export/apps/rDock/src/rDock_2013.1_src/data/scripts/dock_solv.prm

>  <Rbt.Receptor>
prm/pocket_docking_8.prm

>  <SCORE>
-9.00978

>  <SCORE.INTER>
-9.28007

>  <SCORE.INTER.CONST>
1

>  <SCORE.INTER.POLAR>
0

>  <SCORE.INTER.ROT>
5

>  <SCORE.INTER.SOLV>
14.4536

>  <SCORE.INTER.VDW>
-17.9379

>  <SCORE.INTER.norm>
-0.928007

>  <SCORE.INTRA>
0.270294

>  <SCORE.INTRA.DIHEDRAL>
-0.414372

>  <SCORE.INTRA.DIHEDRAL.0>
2.93688

>  <SCORE.INTRA.POLAR>
0

>  <SCORE.INTRA.POLAR.0>
0

>  <SCORE.INTRA.REPUL>
0

>  <SCORE.INTRA.REPUL.0>
0

>  <SCORE.INTRA.SOLV>
-1.23633

>  <SCORE.INTRA.SOLV.lig_0>
-32.2816

>  <SCORE.INTRA.VDW>
1.09565

>  <SCORE.INTRA.VDW.0>
-0.749945

>  <SCORE.INTRA.norm>
0.0270294

>  <SCORE.RESTR>
0

>  <SCORE.RESTR.CAVITY>
0

>  <SCORE.RESTR.norm>
0

>  <SCORE.SYSTEM>
0

>  <SCORE.SYSTEM.CONST>
0

>  <SCORE.SYSTEM.DIHEDRAL>
0

>  <SCORE.SYSTEM.SOLV>
0

>  <SCORE.SYSTEM.norm>
0

>  <SCORE.heavy>
10

>  <SCORE.norm>
-0.900978

>  <RMSD>
5.384

$$$$
ligand
 OpenBabel11021811473D
libRbt.so/2013.1/901 2013/11/27
 10  9  0  0  0  0  0  0  0  0999 V2000
   27.1539   14.2161   18.3477 N   0  0  0  0  0  0  0  0  0  0  0  0
   27.8722   14.5661   19.6095 C   0  0  2  0  0  0  0  0  0  0  0  0
   26.9105   15.1123   20.6643 C   0  0  0  0  0  0  0  0  0  0  0  0
   27.2787   15.3042   21.8219 O   0  0  0  0  0  0  0  0  0  0  0  0
   29.0235   15.5398   19.3317 C   0  0  0  0  0  0  0  0  0  0  0  0
   29.9323   15.7501   20.5423 C   0  0  0  0  0  0  0  0  0  0  0  0
   31.2054   16.5081   20.1917 C   0  0  0  0  0  0  0  0  0  0  0  0
   32.0248   16.8172   21.4408 C   0  0  0  0  0  0  0  0  0  0  0  0
   31.3928   17.8586   22.3223 N   0  0  0  0  0  0  0  0  0  0  0  0
   25.7412   15.4082   20.4013 O   0  0  0  0  0  0  0  0  0  0  0  0
  2  1  1  6  0  0  0
  2  3  1  0  0  0  0
  2  5  1  0  0  0  0
  3  4  1  0  0  0  0
  3 10  1  0  0  0  0
  5  6  1  0  0  0  0
  6  7  1  0  0  0  0
  7  8  1  0  0  0  0
  8  9  1  0  0  0  0
M  END
>  <CHROM.1>
171.06145220,-170.45907369,169.50500036,174.58106336,-70.62327018,28.82265316
15.71480781,20.48870400,-2.71497111,0.26469337,1.11858623

>  <Name>
ligand

>  <RI>
0

>  <Rbt.Current_Directory>
/home/itssahil/PROJECTS/Mol_Feturizer/New_Systems/rnas/3DIL

>  <Rbt.Executable>
rbdock ($Id: //depot/dev/client3/rdock/2013.1/src/exe/rbdock.cxx#4 $)

>  <Rbt.Library>
libRbt.so (2013.1, Build901 2013/11/27)

>  <Rbt.Parameter_File>
/export/apps/rDock/src/rDock_2013.1_src/data/scripts/dock_solv.prm

>  <Rbt.Receptor>
prm/blind_docking_100.prm

>  <SCORE>
-7.90224

>  <SCORE.INTER>
-7.68687

>  <SCORE.INTER.CONST>
1

>  <SCORE.INTER.POLAR>
0

>  <SCORE.INTER.ROT>
5

>  <SCORE.INTER.SOLV>
15.3939

>  <SCORE.INTER.VDW>
-17.1892

>  <SCORE.INTER.norm>
-0.768687

>  <SCORE.INTRA>
-0.21537

>  <SCORE.INTRA.DIHEDRAL>
-0.138371

>  <SCORE.INTRA.DIHEDRAL.0>
2.93688

>  <SCORE.INTRA.POLAR>
0

>  <SCORE.INTRA.POLAR.0>
0

>  <SCORE.INTRA.REPUL>
0

>  <SCORE.INTRA.REPUL.0>
0

>  <SCORE.INTRA.SOLV>
-0.66879

>  <SCORE.INTRA.SOLV.lig_0>
-32.2816

>  <SCORE.INTRA.VDW>
0.18821

>  <SCORE.INTRA.VDW.0>
-0.749945

>  <SCORE.INTRA.norm>
-0.021537

>  <SCORE.RESTR>
0

>  <SCORE.RESTR.CAVITY>
0

>  <SCORE.RESTR.norm>
0

>  <SCORE.SYSTEM>
0

>  <SCORE.SYSTEM.CONST>
0

>  <SCORE.SYSTEM.DIHEDRAL>
0

>  <SCORE.SYSTEM.SOLV>
0

>  <SCORE.SYSTEM.norm>
0

>  <SCORE.heavy>
10

>  <SCORE.norm>
-0.790224

>  <RMSD>
5.385

$$$$
ligand
 OpenBabel11021811473D
libRbt.so/2013.1/901 2013/11/27
 10  9  0  0  0  0  0  0  0  0999 V2000
   27.0364   14.4420   18.2816 N   0  0  0  0  0  0  0  0  0  0  0  0
   27.6656   15.0048   19.5137 C   0  0  2  0  0  0  0  0  0  0  0  0
   26.6340   15.2064   20.6232 C   0  0  0  0  0  0  0  0  0  0  0  0
   26.9799   15.3467   21.7950 O   0  0  0  0  0  0  0  0  0  0  0  0
   28.4219   16.3008   19.1987 C   0  0  0  0  0  0  0  0  0  0  0  0
   29.2609   16.8025   20.3735 C   0  0  0  0  0  0  0  0  0  0  0  0
   30.3695   15.8314   20.7557 C   0  0  0  0  0  0  0  0  0  0  0  0
   31.1261   16.3160   21.9886 C   0  0  0  0  0  0  0  0  0  0  0  0
   31.8476   17.6168   21.7686 N   0  0  0  0  0  0  0  0  0  0  0  0
   25.4221   15.2640   20.3951 O   0  0  0  0  0  0  0  0  0  0  0  0
  2  1  1  6  0  0  0
  2  3  1  0  0  0  0
  2  5  1  0  0  0  0
  3  4  1  0  0  0  0
  3 10  1  0  0  0  0
  5  6  1  0  0  0  0
  6  7  1  0  0  0  0
  7  8  1  0  0  0  0
  8  9  1  0  0  0  0
M  END
>  <CHROM.1>
162.23752818,-171.14140105,63.37187048,-176.13427992,-63.54505014,28.44463443
15.81332073,20.49161162,-2.77511483,0.30735785,1.39245930

>  <Name>
ligand

>  <RI>
0

>  <Rbt.Current_Directory>
/home/itssahil/PROJECTS/Mol_Feturizer/New_Systems/rnas/3DIL

>  <Rbt.Executable>
rbdock ($Id: //depot/dev/client3/rdock/2013.1/src/exe/rbdock.cxx#4 $)

>  <Rbt.Library>
libRbt.so (2013.1, Build901 2013/11/27)

>  <Rbt.Parameter_File>
/export/apps/rDock/src/rDock_2013.1_src/data/scripts/dock_solv.prm

>  <Rbt.Receptor>
prm/pocket_docking_3.prm

>  <SCORE>
-10.2037

>  <SCORE.INTER>
-9.76686

>  <SCORE.INTER.CONST>
1

>  <SCORE.INTER.POLAR>
0

>  <SCORE.INTER.ROT>
5

>  <SCORE.INTER.SOLV>
14.4488

>  <SCORE.INTER.VDW>
-18.2608

>  <SCORE.INTER.norm>
-0.976686

>  <SCORE.INTRA>
-0.436838

>  <SCORE.INTRA.DIHEDRAL>
-1.03363

>  <SCORE.INTRA.DIHEDRAL.0>
2.93688

>  <SCORE.INTRA.POLAR>
0

>  <SCORE.INTRA.POLAR.0>
0

>  <SCORE.INTRA.REPUL>
0

>  <SCORE.INTRA.REPUL.0>
0

>  <SCORE.INTRA.SOLV>
-0.346165

>  <SCORE.INTRA.SOLV.lig_0>
-32.2816

>  <SCORE.INTRA.VDW>
0.253058

>  <SCORE.INTRA.VDW.0>
-0.749945

>  <SCORE.INTRA.norm>
-0.0436838

>  <SCORE.RESTR>
0

>  <SCORE.RESTR.CAVITY>
0

>  <SCORE.RESTR.norm>
0

>  <SCORE.SYSTEM>
0

>  <SCORE.SYSTEM.CONST>
0

>  <SCORE.SYSTEM.DIHEDRAL>
0

>  <SCORE.SYSTEM.SOLV>
0

>  <SCORE.SYSTEM.norm>
0

>  <SCORE.heavy>
10

>  <SCORE.norm>
-1.02037

>  <RMSD>
5.389

$$$$
ligand
 OpenBabel11021811473D
libRbt.so/2013.1/901 2013/11/27
 10  9  0  0  0  0  0  0  0  0999 V2000
   28.3459   17.2702   19.5705 N   0  0  0  0  0  0  0  0  0  0  0  0
   28.2425   15.8236   19.9275 C   0  0  2  0  0  0  0  0  0  0  0  0
   26.9427   15.2128   19.4049 C   0  0  0  0  0  0  0  0  0  0  0  0
   26.9313   14.5091   18.3964 O   0  0  0  0  0  0  0  0  0  0  0  0
   28.3982   15.6207   21.4393 C   0  0  0  0  0  0  0  0  0  0  0  0
   29.6367   16.3113   22.0095 C   0  0  0  0  0  0  0  0  0  0  0  0
   30.9287   15.7997   21.3871 C   0  0  0  0  0  0  0  0  0  0  0  0
   32.1441   16.5020   21.9843 C   0  0  0  0  0  0  0  0  0  0  0  0
   32.2072   17.9665   21.6493 N   0  0  0  0  0  0  0  0  0  0  0  0
   25.8611   15.3727   19.9782 O   0  0  0  0  0  0  0  0  0  0  0  0
  2  1  1  1  0  0  0
  2  3  1  0  0  0  0
  2  5  1  0  0  0  0
  3  4  1  0  0  0  0
  3 10  1  0  0  0  0
  5  6  1  0  0  0  0
  6  7  1  0  0  0  0
  7  8  1  0  0  0  0
  8  9  1  0  0  0  0
M  END
>  <CHROM.1>
102.35045333,-50.77982012,-60.24238027,-179.62068070,-66.38956330,28.92570184
16.02104546,20.55722740,-2.94756825,0.51229163,2.15080200

>  <Name>
ligand

>  <RI>
0

>  <Rbt.Current_Directory>
/home/itssahil/PROJECTS/Mol_Feturizer/New_Systems/rnas/3DIL

>  <Rbt.Executable>
rbdock ($Id: //depot/dev/client3/rdock/2013.1/src/exe/rbdock.cxx#4 $)

>  <Rbt.Library>
libRbt.so (2013.1, Build901 2013/11/27)

>  <Rbt.Parameter_File>
/export/apps/rDock/src/rDock_2013.1_src/data/scripts/dock_solv.prm

>  <Rbt.Receptor>
prm/pocket_docking_8.prm

>  <SCORE>
-6.90791

>  <SCORE.INTER>
-7.57763

>  <SCORE.INTER.CONST>
1

>  <SCORE.INTER.POLAR>
0

>  <SCORE.INTER.ROT>
5

>  <SCORE.INTER.SOLV>
14.6614

>  <SCORE.INTER.VDW>
-16.8722

>  <SCORE.INTER.norm>
-0.757763

>  <SCORE.INTRA>
0.669715

>  <SCORE.INTRA.DIHEDRAL>
-0.92137

>  <SCORE.INTRA.DIHEDRAL.0>
2.93688

>  <SCORE.INTRA.POLAR>
0

>  <SCORE.INTRA.POLAR.0>
0

>  <SCORE.INTRA.REPUL>
0

>  <SCORE.INTRA.REPUL.0>
0

>  <SCORE.INTRA.SOLV>
1.11593

>  <SCORE.INTRA.SOLV.lig_0>
-32.2816

>  <SCORE.INTRA.VDW>
0.572435

>  <SCORE.INTRA.VDW.0>
-0.749945

>  <SCORE.INTRA.norm>
0.0669715

>  <SCORE.RESTR>
0

>  <SCORE.RESTR.CAVITY>
0

>  <SCORE.RESTR.norm>
0

>  <SCORE.SYSTEM>
0

>  <SCORE.SYSTEM.CONST>
0

>  <SCORE.SYSTEM.DIHEDRAL>
0

>  <SCORE.SYSTEM.SOLV>
0

>  <SCORE.SYSTEM.norm>
0

>  <SCORE.heavy>
10

>  <SCORE.norm>
-0.690791

>  <RMSD>
5.397

$$$$
ligand
 OpenBabel11021811473D
libRbt.so/2013.1/901 2013/11/27
 10  9  0  0  0  0  0  0  0  0999 V2000
   28.5065   16.4101   19.5483 N   0  0  0  0  0  0  0  0  0  0  0  0
   28.0280   15.3019   20.4278 C   0  0  2  0  0  0  0  0  0  0  0  0
   26.5015   15.2309   20.4533 C   0  0  0  0  0  0  0  0  0  0  0  0
   25.9061   14.6764   21.3754 O   0  0  0  0  0  0  0  0  0  0  0  0
   28.6144   15.4310   21.8386 C   0  0  0  0  0  0  0  0  0  0  0  0
   30.1409   15.5059   21.8457 C   0  0  0  0  0  0  0  0  0  0  0  0
   30.6578   16.9063   21.5454 C   0  0  0  0  0  0  0  0  0  0  0  0
   32.1820   16.9304   21.4865 C   0  0  0  0  0  0  0  0  0  0  0  0
   32.7417   16.1935   20.3012 N   0  0  0  0  0  0  0  0  0  0  0  0
   25.8023   15.7436   19.5745 O   0  0  0  0  0  0  0  0  0  0  0  0
  2  1  1  6  0  0  0
  2  3  1  0  0  0  0
  2  5  1  0  0  0  0
  3  4  1  0  0  0  0
  3 10  1  0  0  0  0
  5  6  1  0  0  0  0
  6  7  1  0  0  0  0
  7  8  1  0  0  0  0
  8  9  1  0  0  0  0
M  END
>  <CHROM.1>
-158.74512124,-55.02587136,81.62952189,-176.96529455,68.67781379,28.86291251
15.82784165,20.83819306,-3.10843993,0.24430040,1.93600091

>  <Name>
ligand

>  <RI>
0

>  <Rbt.Current_Directory>
/home/itssahil/PROJECTS/Mol_Feturizer/New_Systems/rnas/3DIL

>  <Rbt.Executable>
rbdock ($Id: //depot/dev/client3/rdock/2013.1/src/exe/rbdock.cxx#4 $)

>  <Rbt.Library>
libRbt.so (2013.1, Build901 2013/11/27)

>  <Rbt.Parameter_File>
/export/apps/rDock/src/rDock_2013.1_src/data/scripts/dock_solv.prm

>  <Rbt.Receptor>
prm/blind_docking_100.prm

>  <SCORE>
-8.38034

>  <SCORE.INTER>
-10.2959

>  <SCORE.INTER.CONST>
1

>  <SCORE.INTER.POLAR>
0

>  <SCORE.INTER.ROT>
5

>  <SCORE.INTER.SOLV>
13.5127

>  <SCORE.INTER.VDW>
-18.3015

>  <SCORE.INTER.norm>
-1.02959

>  <SCORE.INTRA>
1.91553

>  <SCORE.INTRA.DIHEDRAL>
0.783733

>  <SCORE.INTRA.DIHEDRAL.0>
2.93688

>  <SCORE.INTRA.POLAR>
0

>  <SCORE.INTRA.POLAR.0>
0

>  <SCORE.INTRA.REPUL>
0

>  <SCORE.INTRA.REPUL.0>
0

>  <SCORE.INTRA.SOLV>
1.84358

>  <SCORE.INTRA.SOLV.lig_0>
-32.2816

>  <SCORE.INTRA.VDW>
0.601877

>  <SCORE.INTRA.VDW.0>
-0.749945

>  <SCORE.INTRA.norm>
0.191553

>  <SCORE.RESTR>
0

>  <SCORE.RESTR.CAVITY>
0

>  <SCORE.RESTR.norm>
0

>  <SCORE.SYSTEM>
0

>  <SCORE.SYSTEM.CONST>
0

>  <SCORE.SYSTEM.DIHEDRAL>
0

>  <SCORE.SYSTEM.SOLV>
0

>  <SCORE.SYSTEM.norm>
0

>  <SCORE.heavy>
10

>  <SCORE.norm>
-0.838034

>  <RMSD>
5.400

$$$$
ligand
 OpenBabel11021811473D
libRbt.so/2013.1/901 2013/11/27
 10  9  0  0  0  0  0  0  0  0999 V2000
   25.6433   15.7384   19.6759 N   0  0  0  0  0  0  0  0  0  0  0  0
   27.1082   15.5726   19.9151 C   0  0  2  0  0  0  0  0  0  0  0  0
   27.7591   14.7287   18.8196 C   0  0  0  0  0  0  0  0  0  0  0  0
   27.0903   13.9709   18.1190 O   0  0  0  0  0  0  0  0  0  0  0  0
   27.3728   14.9945   21.3103 C   0  0  0  0  0  0  0  0  0  0  0  0
   28.8614   14.8897   21.6402 C   0  0  0  0  0  0  0  0  0  0  0  0
   29.5520   16.2465   21.6588 C   0  0  0  0  0  0  0  0  0  0  0  0
   31.0397   16.1037   21.9645 C   0  0  0  0  0  0  0  0  0  0  0  0
   31.7820   17.4108   21.9232 N   0  0  0  0  0  0  0  0  0  0  0  0
   28.9671   14.7871   18.5716 O   0  0  0  0  0  0  0  0  0  0  0  0
  2  1  1  6  0  0  0
  2  3  1  0  0  0  0
  2  5  1  0  0  0  0
  3  4  1  0  0  0  0
  3 10  1  0  0  0  0
  5  6  1  0  0  0  0
  6  7  1  0  0  0  0
  7  8  1  0  0  0  0
  8  9  1  0  0  0  0
M  END
>  <CHROM.1>
-20.94827717,-176.26740591,62.22765545,-178.91538225,176.98374371,28.52476521
15.42348351,20.32856852,2.44084555,-0.11879856,-1.97712820

>  <Name>
ligand

>  <RI>
0

>  <Rbt.Current_Directory>
/home/itssahil/PROJECTS/Mol_Feturizer/New_Systems/rnas/3DIL

>  <Rbt.Executable>
rbdock ($Id: //depot/dev/client3/rdock/2013.1/src/exe/rbdock.cxx#4 $)

>  <Rbt.Library>
libRbt.so (2013.1, Build901 2013/11/27)

>  <Rbt.Parameter_File>
/export/apps/rDock/src/rDock_2013.1_src/data/scripts/dock_solv.prm

>  <Rbt.Receptor>
prm/pocket_docking_3.prm

>  <SCORE>
-9.43113

>  <SCORE.INTER>
-8.42526

>  <SCORE.INTER.CONST>
1

>  <SCORE.INTER.POLAR>
0

>  <SCORE.INTER.ROT>
5

>  <SCORE.INTER.SOLV>
17.3748

>  <SCORE.INTER.VDW>
-18.3418

>  <SCORE.INTER.norm>
-0.842526

>  <SCORE.INTRA>
-1.00587

>  <SCORE.INTRA.DIHEDRAL>
-1.27196

>  <SCORE.INTRA.DIHEDRAL.0>
2.93688

>  <SCORE.INTRA.POLAR>
0

>  <SCORE.INTRA.POLAR.0>
0

>  <SCORE.INTRA.REPUL>
0

>  <SCORE.INTRA.REPUL.0>
0

>  <SCORE.INTRA.SOLV>
-1.23992

>  <SCORE.INTRA.SOLV.lig_0>
-32.2816

>  <SCORE.INTRA.VDW>
0.250068

>  <SCORE.INTRA.VDW.0>
-0.749945

>  <SCORE.INTRA.norm>
-0.100587

>  <SCORE.RESTR>
0

>  <SCORE.RESTR.CAVITY>
0

>  <SCORE.RESTR.norm>
0

>  <SCORE.SYSTEM>
0

>  <SCORE.SYSTEM.CONST>
0

>  <SCORE.SYSTEM.DIHEDRAL>
0

>  <SCORE.SYSTEM.SOLV>
0

>  <SCORE.SYSTEM.norm>
0

>  <SCORE.heavy>
10

>  <SCORE.norm>
-0.943113

>  <RMSD>
5.400

$$$$
ligand
 OpenBabel11021811473D
libRbt.so/2013.1/901 2013/11/27
 10  9  0  0  0  0  0  0  0  0999 V2000
   25.4734   15.0906   20.4987 N   0  0  0  0  0  0  0  0  0  0  0  0
   26.8441   15.6547   20.3155 C   0  0  2  0  0  0  0  0  0  0  0  0
   27.3808   15.3693   18.9132 C   0  0  0  0  0  0  0  0  0  0  0  0
   27.1812   14.2871   18.3641 O   0  0  0  0  0  0  0  0  0  0  0  0
   27.7961   15.1432   21.4032 C   0  0  0  0  0  0  0  0  0  0  0  0
   29.1006   15.9362   21.4753 C   0  0  0  0  0  0  0  0  0  0  0  0
   30.0570   15.5908   20.3420 C   0  0  0  0  0  0  0  0  0  0  0  0
   31.2556   16.5344   20.3251 C   0  0  0  0  0  0  0  0  0  0  0  0
   32.0489   16.5087   21.6022 N   0  0  0  0  0  0  0  0  0  0  0  0
   28.0087   16.2102   18.2631 O   0  0  0  0  0  0  0  0  0  0  0  0
  2  1  1  6  0  0  0
  2  3  1  0  0  0  0
  2  5  1  0  0  0  0
  3  4  1  0  0  0  0
  3 10  1  0  0  0  0
  5  6  1  0  0  0  0
  6  7  1  0  0  0  0
  7  8  1  0  0  0  0
  8  9  1  0  0  0  0
M  END
>  <CHROM.1>
-39.53334066,-165.93233626,-75.56377454,171.85450304,59.13626543,28.51698916
15.62536110,20.11512991,2.81290634,-0.25147882,-1.59996728

>  <Name>
ligand

>  <RI>
0

>  <Rbt.Current_Directory>
/home/itssahil/PROJECTS/Mol_Feturizer/New_Systems/rnas/3DIL

>  <Rbt.Executable>
rbdock ($Id: //depot/dev/client3/rdock/2013.1/src/exe/rbdock.cxx#4 $)

>  <Rbt.Library>
libRbt.so (2013.1, Build901 2013/11/27)

>  <Rbt.Parameter_File>
/export/apps/rDock/src/rDock_2013.1_src/data/scripts/dock_solv.prm

>  <Rbt.Receptor>
prm/pocket_docking_7.prm

>  <SCORE>
-7.55397

>  <SCORE.INTER>
-7.77262

>  <SCORE.INTER.CONST>
1

>  <SCORE.INTER.POLAR>
0

>  <SCORE.INTER.ROT>
5

>  <SCORE.INTER.SOLV>
18.454

>  <SCORE.INTER.VDW>
-18.2664

>  <SCORE.INTER.norm>
-0.777262

>  <SCORE.INTRA>
0.218658

>  <SCORE.INTRA.DIHEDRAL>
0.569062

>  <SCORE.INTRA.DIHEDRAL.0>
2.93688

>  <SCORE.INTRA.POLAR>
0

>  <SCORE.INTRA.POLAR.0>
0

>  <SCORE.INTRA.REPUL>
0

>  <SCORE.INTRA.REPUL.0>
0

>  <SCORE.INTRA.SOLV>
-0.473269

>  <SCORE.INTRA.SOLV.lig_0>
-32.2816

>  <SCORE.INTRA.VDW>
0.170762

>  <SCORE.INTRA.VDW.0>
-0.749945

>  <SCORE.INTRA.norm>
0.0218658

>  <SCORE.RESTR>
0

>  <SCORE.RESTR.CAVITY>
0

>  <SCORE.RESTR.norm>
0

>  <SCORE.SYSTEM>
0

>  <SCORE.SYSTEM.CONST>
0

>  <SCORE.SYSTEM.DIHEDRAL>
0

>  <SCORE.SYSTEM.SOLV>
0

>  <SCORE.SYSTEM.norm>
0

>  <SCORE.heavy>
10

>  <SCORE.norm>
-0.755397

>  <RMSD>
5.402

$$$$
ligand
 OpenBabel11021811473D
libRbt.so/2013.1/901 2013/11/27
 10  9  0  0  0  0  0  0  0  0999 V2000
   25.6002   15.7126   19.7026 N   0  0  0  0  0  0  0  0  0  0  0  0
   27.0724   15.5891   19.9219 C   0  0  2  0  0  0  0  0  0  0  0  0
   27.7377   14.7933   18.7994 C   0  0  0  0  0  0  0  0  0  0  0  0
   28.9369   14.9173   18.5567 O   0  0  0  0  0  0  0  0  0  0  0  0
   27.3716   14.9869   21.2999 C   0  0  0  0  0  0  0  0  0  0  0  0
   28.8677   14.8922   21.5974 C   0  0  0  0  0  0  0  0  0  0  0  0
   29.5338   16.2588   21.6809 C   0  0  0  0  0  0  0  0  0  0  0  0
   31.0344   16.1270   21.9217 C   0  0  0  0  0  0  0  0  0  0  0  0
   31.7439   17.4513   21.9842 N   0  0  0  0  0  0  0  0  0  0  0  0
   27.1166   13.9792   18.1099 O   0  0  0  0  0  0  0  0  0  0  0  0
  2  1  1  6  0  0  0
  2  3  1  0  0  0  0
  2  5  1  0  0  0  0
  3  4  1  0  0  0  0
  3 10  1  0  0  0  0
  5  6  1  0  0  0  0
  6  7  1  0  0  0  0
  7  8  1  0  0  0  0
  8  9  1  0  0  0  0
M  END
>  <CHROM.1>
157.31854031,-177.64261827,64.39314133,-177.67310441,178.83169936,28.50930600
15.45070795,20.32610354,2.44222968,-0.13489413,-1.95880158

>  <Name>
ligand

>  <RI>
0

>  <Rbt.Current_Directory>
/home/itssahil/PROJECTS/Mol_Feturizer/New_Systems/rnas/3DIL

>  <Rbt.Executable>
rbdock ($Id: //depot/dev/client3/rdock/2013.1/src/exe/rbdock.cxx#4 $)

>  <Rbt.Library>
libRbt.so (2013.1, Build901 2013/11/27)

>  <Rbt.Parameter_File>
/export/apps/rDock/src/rDock_2013.1_src/data/scripts/dock_solv.prm

>  <Rbt.Receptor>
prm/pocket_docking_4.prm

>  <SCORE>
-9.46824

>  <SCORE.INTER>
-8.38451

>  <SCORE.INTER.CONST>
1

>  <SCORE.INTER.POLAR>
0

>  <SCORE.INTER.ROT>
5

>  <SCORE.INTER.SOLV>
17.4368

>  <SCORE.INTER.VDW>
-18.3353

>  <SCORE.INTER.norm>
-0.838451

>  <SCORE.INTRA>
-1.08373

>  <SCORE.INTRA.DIHEDRAL>
-1.35516

>  <SCORE.INTRA.DIHEDRAL.0>
2.93688

>  <SCORE.INTRA.POLAR>
0

>  <SCORE.INTRA.POLAR.0>
0

>  <SCORE.INTRA.REPUL>
0

>  <SCORE.INTRA.REPUL.0>
0

>  <SCORE.INTRA.SOLV>
-1.27276

>  <SCORE.INTRA.SOLV.lig_0>
-32.2816

>  <SCORE.INTRA.VDW>
0.230223

>  <SCORE.INTRA.VDW.0>
-0.749945

>  <SCORE.INTRA.norm>
-0.108373

>  <SCORE.RESTR>
0

>  <SCORE.RESTR.CAVITY>
0

>  <SCORE.RESTR.norm>
0

>  <SCORE.SYSTEM>
0

>  <SCORE.SYSTEM.CONST>
0

>  <SCORE.SYSTEM.DIHEDRAL>
0

>  <SCORE.SYSTEM.SOLV>
0

>  <SCORE.SYSTEM.norm>
0

>  <SCORE.heavy>
10

>  <SCORE.norm>
-0.946824

>  <RMSD>
5.404

$$$$
ligand
 OpenBabel11021811473D
libRbt.so/2013.1/901 2013/11/27
 10  9  0  0  0  0  0  0  0  0999 V2000
   27.8204   14.7213   18.2296 N   0  0  0  0  0  0  0  0  0  0  0  0
   27.9384   14.6934   19.7182 C   0  0  2  0  0  0  0  0  0  0  0  0
   26.6727   15.2283   20.3873 C   0  0  0  0  0  0  0  0  0  0  0  0
   25.8041   15.8051   19.7351 O   0  0  0  0  0  0  0  0  0  0  0  0
   29.1892   15.4492   20.1822 C   0  0  0  0  0  0  0  0  0  0  0  0
   29.4381   15.3251   21.6850 C   0  0  0  0  0  0  0  0  0  0  0  0
   30.8082   15.8476   22.0948 C   0  0  0  0  0  0  0  0  0  0  0  0
   30.9102   17.3546   21.8807 C   0  0  0  0  0  0  0  0  0  0  0  0
   32.2699   17.9091   22.2040 N   0  0  0  0  0  0  0  0  0  0  0  0
   26.4528   15.0849   21.5936 O   0  0  0  0  0  0  0  0  0  0  0  0
  2  1  1  6  0  0  0
  2  3  1  0  0  0  0
  2  5  1  0  0  0  0
  3  4  1  0  0  0  0
  3 10  1  0  0  0  0
  5  6  1  0  0  0  0
  6  7  1  0  0  0  0
  7  8  1  0  0  0  0
  8  9  1  0  0  0  0
M  END
>  <CHROM.1>
-11.40334265,-173.88197040,169.12149133,66.32300851,-177.02188399,28.69233920
15.74822908,20.78122531,-2.63514799,0.23458979,1.24950975

>  <Name>
ligand

>  <RI>
0

>  <Rbt.Current_Directory>
/home/itssahil/PROJECTS/Mol_Feturizer/New_Systems/rnas/3DIL

>  <Rbt.Executable>
rbdock ($Id: //depot/dev/client3/rdock/2013.1/src/exe/rbdock.cxx#4 $)

>  <Rbt.Library>
libRbt.so (2013.1, Build901 2013/11/27)

>  <Rbt.Parameter_File>
/export/apps/rDock/src/rDock_2013.1_src/data/scripts/dock_solv.prm

>  <Rbt.Receptor>
prm/pocket_docking_6.prm

>  <SCORE>
-9.55988

>  <SCORE.INTER>
-9.4388

>  <SCORE.INTER.CONST>
1

>  <SCORE.INTER.POLAR>
0

>  <SCORE.INTER.ROT>
5

>  <SCORE.INTER.SOLV>
13.8686

>  <SCORE.INTER.VDW>
-17.8487

>  <SCORE.INTER.norm>
-0.94388

>  <SCORE.INTRA>
-0.121083

>  <SCORE.INTRA.DIHEDRAL>
-0.57951

>  <SCORE.INTRA.DIHEDRAL.0>
2.93688

>  <SCORE.INTRA.POLAR>
0

>  <SCORE.INTRA.POLAR.0>
0

>  <SCORE.INTRA.REPUL>
0

>  <SCORE.INTRA.REPUL.0>
0

>  <SCORE.INTRA.SOLV>
-1.25402

>  <SCORE.INTRA.SOLV.lig_0>
-32.2816

>  <SCORE.INTRA.VDW>
0.795681

>  <SCORE.INTRA.VDW.0>
-0.749945

>  <SCORE.INTRA.norm>
-0.0121083

>  <SCORE.RESTR>
0

>  <SCORE.RESTR.CAVITY>
0

>  <SCORE.RESTR.norm>
0

>  <SCORE.SYSTEM>
0

>  <SCORE.SYSTEM.CONST>
0

>  <SCORE.SYSTEM.DIHEDRAL>
0

>  <SCORE.SYSTEM.SOLV>
0

>  <SCORE.SYSTEM.norm>
0

>  <SCORE.heavy>
10

>  <SCORE.norm>
-0.955988

>  <RMSD>
5.405

$$$$
ligand
 OpenBabel11021811473D
libRbt.so/2013.1/901 2013/11/27
 10  9  0  0  0  0  0  0  0  0999 V2000
   25.6219   15.7329   19.6856 N   0  0  0  0  0  0  0  0  0  0  0  0
   27.0903   15.5772   19.9097 C   0  0  2  0  0  0  0  0  0  0  0  0
   27.7397   14.7574   18.7952 C   0  0  0  0  0  0  0  0  0  0  0  0
   27.0836   13.9594   18.1280 O   0  0  0  0  0  0  0  0  0  0  0  0
   27.3722   14.9791   21.2930 C   0  0  0  0  0  0  0  0  0  0  0  0
   28.8644   14.8885   21.6110 C   0  0  0  0  0  0  0  0  0  0  0  0
   29.5375   16.2538   21.6463 C   0  0  0  0  0  0  0  0  0  0  0  0
   31.0381   16.1226   21.8871 C   0  0  0  0  0  0  0  0  0  0  0  0
   31.7558   17.4440   21.8932 N   0  0  0  0  0  0  0  0  0  0  0  0
   28.9321   14.8756   18.4980 O   0  0  0  0  0  0  0  0  0  0  0  0
  2  1  1  6  0  0  0
  2  3  1  0  0  0  0
  2  5  1  0  0  0  0
  3  4  1  0  0  0  0
  3 10  1  0  0  0  0
  5  6  1  0  0  0  0
  6  7  1  0  0  0  0
  7  8  1  0  0  0  0
  8  9  1  0  0  0  0
M  END
>  <CHROM.1>
-24.29885082,-176.02735760,62.15253535,-176.77215009,178.42922049,28.51067475
15.43878456,20.30308227,2.44803135,-0.14089338,-1.95861984

>  <Name>
ligand

>  <RI>
0

>  <Rbt.Current_Directory>
/home/itssahil/PROJECTS/Mol_Feturizer/New_Systems/rnas/3DIL

>  <Rbt.Executable>
rbdock ($Id: //depot/dev/client3/rdock/2013.1/src/exe/rbdock.cxx#4 $)

>  <Rbt.Library>
libRbt.so (2013.1, Build901 2013/11/27)

>  <Rbt.Parameter_File>
/export/apps/rDock/src/rDock_2013.1_src/data/scripts/dock_solv.prm

>  <Rbt.Receptor>
prm/pocket_docking_7.prm

>  <SCORE>
-9.50146

>  <SCORE.INTER>
-8.4559

>  <SCORE.INTER.CONST>
1

>  <SCORE.INTER.POLAR>
0

>  <SCORE.INTER.ROT>
5

>  <SCORE.INTER.SOLV>
17.3018

>  <SCORE.INTER.VDW>
-18.3379

>  <SCORE.INTER.norm>
-0.84559

>  <SCORE.INTRA>
-1.04557

>  <SCORE.INTRA.DIHEDRAL>
-1.25015

>  <SCORE.INTRA.DIHEDRAL.0>
2.93688

>  <SCORE.INTRA.POLAR>
0

>  <SCORE.INTRA.POLAR.0>
0

>  <SCORE.INTRA.REPUL>
0

>  <SCORE.INTRA.REPUL.0>
0

>  <SCORE.INTRA.SOLV>
-1.23861

>  <SCORE.INTRA.SOLV.lig_0>
-32.2816

>  <SCORE.INTRA.VDW>
0.198815

>  <SCORE.INTRA.VDW.0>
-0.749945

>  <SCORE.INTRA.norm>
-0.104557

>  <SCORE.RESTR>
0

>  <SCORE.RESTR.CAVITY>
0

>  <SCORE.RESTR.norm>
0

>  <SCORE.SYSTEM>
0

>  <SCORE.SYSTEM.CONST>
0

>  <SCORE.SYSTEM.DIHEDRAL>
0

>  <SCORE.SYSTEM.SOLV>
0

>  <SCORE.SYSTEM.norm>
0

>  <SCORE.heavy>
10

>  <SCORE.norm>
-0.950146

>  <RMSD>
5.405

$$$$
ligand
 OpenBabel11021811473D
libRbt.so/2013.1/901 2013/11/27
 10  9  0  0  0  0  0  0  0  0999 V2000
   27.8305   14.7342   18.2189 N   0  0  0  0  0  0  0  0  0  0  0  0
   27.9432   14.7021   19.7078 C   0  0  2  0  0  0  0  0  0  0  0  0
   26.6623   15.2032   20.3741 C   0  0  0  0  0  0  0  0  0  0  0  0
   26.4620   15.0330   21.5755 O   0  0  0  0  0  0  0  0  0  0  0  0
   29.1735   15.4856   20.1804 C   0  0  0  0  0  0  0  0  0  0  0  0
   29.4329   15.3415   21.6797 C   0  0  0  0  0  0  0  0  0  0  0  0
   30.8027   15.8660   22.0880 C   0  0  0  0  0  0  0  0  0  0  0  0
   30.9013   17.3736   21.8766 C   0  0  0  0  0  0  0  0  0  0  0  0
   32.2582   17.9314   22.2061 N   0  0  0  0  0  0  0  0  0  0  0  0
   25.7916   15.8182   19.7514 O   0  0  0  0  0  0  0  0  0  0  0  0
  2  1  1  6  0  0  0
  2  3  1  0  0  0  0
  2  5  1  0  0  0  0
  3  4  1  0  0  0  0
  3 10  1  0  0  0  0
  5  6  1  0  0  0  0
  6  7  1  0  0  0  0
  7  8  1  0  0  0  0
  8  9  1  0  0  0  0
M  END
>  <CHROM.1>
166.83775251,-172.91839827,167.74968699,65.53419274,-177.34576804,28.68787271
15.75494679,20.77630474,-2.63754623,0.24795671,1.26313583

>  <Name>
ligand

>  <RI>
0

>  <Rbt.Current_Directory>
/home/itssahil/PROJECTS/Mol_Feturizer/New_Systems/rnas/3DIL

>  <Rbt.Executable>
rbdock ($Id: //depot/dev/client3/rdock/2013.1/src/exe/rbdock.cxx#4 $)

>  <Rbt.Library>
libRbt.so (2013.1, Build901 2013/11/27)

>  <Rbt.Parameter_File>
/export/apps/rDock/src/rDock_2013.1_src/data/scripts/dock_solv.prm

>  <Rbt.Receptor>
prm/pocket_docking_6.prm

>  <SCORE>
-9.48389

>  <SCORE.INTER>
-9.3959

>  <SCORE.INTER.CONST>
1

>  <SCORE.INTER.POLAR>
0

>  <SCORE.INTER.ROT>
5

>  <SCORE.INTER.SOLV>
13.9017

>  <SCORE.INTER.VDW>
-17.8312

>  <SCORE.INTER.norm>
-0.93959

>  <SCORE.INTRA>
-0.0879907

>  <SCORE.INTRA.DIHEDRAL>
-0.524817

>  <SCORE.INTRA.DIHEDRAL.0>
2.93688

>  <SCORE.INTRA.POLAR>
0

>  <SCORE.INTRA.POLAR.0>
0

>  <SCORE.INTRA.REPUL>
0

>  <SCORE.INTRA.REPUL.0>
0

>  <SCORE.INTRA.SOLV>
-1.26137

>  <SCORE.INTRA.SOLV.lig_0>
-32.2816

>  <SCORE.INTRA.VDW>
0.805104

>  <SCORE.INTRA.VDW.0>
-0.749945

>  <SCORE.INTRA.norm>
-0.00879907

>  <SCORE.RESTR>
0

>  <SCORE.RESTR.CAVITY>
0

>  <SCORE.RESTR.norm>
0

>  <SCORE.SYSTEM>
0

>  <SCORE.SYSTEM.CONST>
0

>  <SCORE.SYSTEM.DIHEDRAL>
0

>  <SCORE.SYSTEM.SOLV>
0

>  <SCORE.SYSTEM.norm>
0

>  <SCORE.heavy>
10

>  <SCORE.norm>
-0.948389

>  <RMSD>
5.410

$$$$
ligand
 OpenBabel11021811473D
libRbt.so/2013.1/901 2013/11/27
 10  9  0  0  0  0  0  0  0  0999 V2000
   28.3406   14.3351   21.0629 N   0  0  0  0  0  0  0  0  0  0  0  0
   28.2193   15.8213   20.9795 C   0  0  2  0  0  0  0  0  0  0  0  0
   27.3293   16.2425   19.8106 C   0  0  0  0  0  0  0  0  0  0  0  0
   27.7833   16.8839   18.8647 O   0  0  0  0  0  0  0  0  0  0  0  0
   29.6021   16.4799   20.9068 C   0  0  0  0  0  0  0  0  0  0  0  0
   30.4885   16.1399   22.1045 C   0  0  0  0  0  0  0  0  0  0  0  0
   31.9003   16.6917   21.9610 C   0  0  0  0  0  0  0  0  0  0  0  0
   31.9055   18.2159   22.0245 C   0  0  0  0  0  0  0  0  0  0  0  0
   33.2860   18.8079   21.9545 N   0  0  0  0  0  0  0  0  0  0  0  0
   26.1341   15.9396   19.7487 O   0  0  0  0  0  0  0  0  0  0  0  0
  2  1  1  6  0  0  0
  2  3  1  0  0  0  0
  2  5  1  0  0  0  0
  3  4  1  0  0  0  0
  3 10  1  0  0  0  0
  5  6  1  0  0  0  0
  6  7  1  0  0  0  0
  7  8  1  0  0  0  0
  8  9  1  0  0  0  0
M  END
>  <CHROM.1>
-115.53914475,-58.32808512,174.69715705,67.74167373,177.19800507,29.46763591
16.56146148,20.91178613,-3.04868416,-0.50608332,-0.55805879

>  <Name>
ligand

>  <RI>
0

>  <Rbt.Current_Directory>
/home/itssahil/PROJECTS/Mol_Feturizer/New_Systems/rnas/3DIL

>  <Rbt.Executable>
rbdock ($Id: //depot/dev/client3/rdock/2013.1/src/exe/rbdock.cxx#4 $)

>  <Rbt.Library>
libRbt.so (2013.1, Build901 2013/11/27)

>  <Rbt.Parameter_File>
/export/apps/rDock/src/rDock_2013.1_src/data/scripts/dock_solv.prm

>  <Rbt.Receptor>
prm/pocket_docking_4.prm

>  <SCORE>
-6.05589

>  <SCORE.INTER>
-6.57252

>  <SCORE.INTER.CONST>
1

>  <SCORE.INTER.POLAR>
0

>  <SCORE.INTER.ROT>
5

>  <SCORE.INTER.SOLV>
16.3662

>  <SCORE.INTER.VDW>
-16.7704

>  <SCORE.INTER.norm>
-0.657252

>  <SCORE.INTRA>
0.516631

>  <SCORE.INTRA.DIHEDRAL>
-1.03448

>  <SCORE.INTRA.DIHEDRAL.0>
2.93688

>  <SCORE.INTRA.POLAR>
0

>  <SCORE.INTRA.POLAR.0>
0

>  <SCORE.INTRA.REPUL>
0

>  <SCORE.INTRA.REPUL.0>
0

>  <SCORE.INTRA.SOLV>
-0.357246

>  <SCORE.INTRA.SOLV.lig_0>
-32.2816

>  <SCORE.INTRA.VDW>
1.2125

>  <SCORE.INTRA.VDW.0>
-0.749945

>  <SCORE.INTRA.norm>
0.0516631

>  <SCORE.RESTR>
0

>  <SCORE.RESTR.CAVITY>
0

>  <SCORE.RESTR.norm>
0

>  <SCORE.SYSTEM>
0

>  <SCORE.SYSTEM.CONST>
0

>  <SCORE.SYSTEM.DIHEDRAL>
0

>  <SCORE.SYSTEM.SOLV>
0

>  <SCORE.SYSTEM.norm>
0

>  <SCORE.heavy>
10

>  <SCORE.norm>
-0.605589

>  <RMSD>
5.411

$$$$
ligand
 OpenBabel11021811473D
libRbt.so/2013.1/901 2013/11/27
 10  9  0  0  0  0  0  0  0  0999 V2000
   28.4635   15.0080   18.9289 N   0  0  0  0  0  0  0  0  0  0  0  0
   27.9457   14.8649   20.3225 C   0  0  2  0  0  0  0  0  0  0  0  0
   26.4450   15.1467   20.3905 C   0  0  0  0  0  0  0  0  0  0  0  0
   25.7617   14.7302   21.3243 O   0  0  0  0  0  0  0  0  0  0  0  0
   28.7348   15.7516   21.2930 C   0  0  0  0  0  0  0  0  0  0  0  0
   30.1774   15.2859   21.4880 C   0  0  0  0  0  0  0  0  0  0  0  0
   30.9798   16.2277   22.3754 C   0  0  0  0  0  0  0  0  0  0  0  0
   31.3732   17.4942   21.6215 C   0  0  0  0  0  0  0  0  0  0  0  0
   32.3326   17.2385   20.4922 N   0  0  0  0  0  0  0  0  0  0  0  0
   25.8605   15.8196   19.5364 O   0  0  0  0  0  0  0  0  0  0  0  0
  2  1  1  6  0  0  0
  2  3  1  0  0  0  0
  2  5  1  0  0  0  0
  3  4  1  0  0  0  0
  3 10  1  0  0  0  0
  5  6  1  0  0  0  0
  6  7  1  0  0  0  0
  7  8  1  0  0  0  0
  8  9  1  0  0  0  0
M  END
>  <CHROM.1>
159.20244964,-68.27942315,175.95519656,-75.80967665,-65.94604313,28.76308807
15.75823458,20.77664273,-2.96827537,0.32795364,1.66140533

>  <Name>
ligand

>  <RI>
0

>  <Rbt.Current_Directory>
/home/itssahil/PROJECTS/Mol_Feturizer/New_Systems/rnas/3DIL

>  <Rbt.Executable>
rbdock ($Id: //depot/dev/client3/rdock/2013.1/src/exe/rbdock.cxx#4 $)

>  <Rbt.Library>
libRbt.so (2013.1, Build901 2013/11/27)

>  <Rbt.Parameter_File>
/export/apps/rDock/src/rDock_2013.1_src/data/scripts/dock_solv.prm

>  <Rbt.Receptor>
prm/pocket_docking_8.prm

>  <SCORE>
-9.14548

>  <SCORE.INTER>
-9.68772

>  <SCORE.INTER.CONST>
1

>  <SCORE.INTER.POLAR>
0

>  <SCORE.INTER.ROT>
5

>  <SCORE.INTER.SOLV>
12.2489

>  <SCORE.INTER.VDW>
-17.4748

>  <SCORE.INTER.norm>
-0.968772

>  <SCORE.INTRA>
0.542243

>  <SCORE.INTRA.DIHEDRAL>
-0.00221067

>  <SCORE.INTRA.DIHEDRAL.0>
2.93688

>  <SCORE.INTRA.POLAR>
0

>  <SCORE.INTRA.POLAR.0>
0

>  <SCORE.INTRA.REPUL>
0

>  <SCORE.INTRA.REPUL.0>
0

>  <SCORE.INTRA.SOLV>
0.596376

>  <SCORE.INTRA.SOLV.lig_0>
-32.2816

>  <SCORE.INTRA.VDW>
0.245161

>  <SCORE.INTRA.VDW.0>
-0.749945

>  <SCORE.INTRA.norm>
0.0542243

>  <SCORE.RESTR>
0

>  <SCORE.RESTR.CAVITY>
0

>  <SCORE.RESTR.norm>
0

>  <SCORE.SYSTEM>
0

>  <SCORE.SYSTEM.CONST>
0

>  <SCORE.SYSTEM.DIHEDRAL>
0

>  <SCORE.SYSTEM.SOLV>
0

>  <SCORE.SYSTEM.norm>
0

>  <SCORE.heavy>
10

>  <SCORE.norm>
-0.914548

>  <RMSD>
5.413

$$$$
ligand
 OpenBabel11021811473D
libRbt.so/2013.1/901 2013/11/27
 10  9  0  0  0  0  0  0  0  0999 V2000
   25.6187   15.7257   19.6883 N   0  0  0  0  0  0  0  0  0  0  0  0
   27.0872   15.5670   19.9098 C   0  0  2  0  0  0  0  0  0  0  0  0
   27.7318   14.7401   18.7978 C   0  0  0  0  0  0  0  0  0  0  0  0
   27.0794   13.9174   18.1575 O   0  0  0  0  0  0  0  0  0  0  0  0
   27.3705   14.9746   21.2954 C   0  0  0  0  0  0  0  0  0  0  0  0
   28.8632   14.8800   21.6099 C   0  0  0  0  0  0  0  0  0  0  0  0
   29.5344   16.2453   21.6708 C   0  0  0  0  0  0  0  0  0  0  0  0
   31.0345   16.1118   21.9140 C   0  0  0  0  0  0  0  0  0  0  0  0
   31.7530   17.4326   21.9288 N   0  0  0  0  0  0  0  0  0  0  0  0
   28.9158   14.8764   18.4758 O   0  0  0  0  0  0  0  0  0  0  0  0
  2  1  1  6  0  0  0
  2  3  1  0  0  0  0
  2  5  1  0  0  0  0
  3  4  1  0  0  0  0
  3 10  1  0  0  0  0
  5  6  1  0  0  0  0
  6  7  1  0  0  0  0
  7  8  1  0  0  0  0
  8  9  1  0  0  0  0
M  END
>  <CHROM.1>
-26.08201054,-176.08913835,63.57669871,-177.04509637,177.74161077,28.50582391
15.42667341,20.31315560,2.44279406,-0.13769829,-1.96293316

>  <Name>
ligand

>  <RI>
0

>  <Rbt.Current_Directory>
/home/itssahil/PROJECTS/Mol_Feturizer/New_Systems/rnas/3DIL

>  <Rbt.Executable>
rbdock ($Id: //depot/dev/client3/rdock/2013.1/src/exe/rbdock.cxx#4 $)

>  <Rbt.Library>
libRbt.so (2013.1, Build901 2013/11/27)

>  <Rbt.Parameter_File>
/export/apps/rDock/src/rDock_2013.1_src/data/scripts/dock_solv.prm

>  <Rbt.Receptor>
prm/blind_docking_100.prm

>  <SCORE>
-9.48866

>  <SCORE.INTER>
-8.41065

>  <SCORE.INTER.CONST>
1

>  <SCORE.INTER.POLAR>
0

>  <SCORE.INTER.ROT>
5

>  <SCORE.INTER.SOLV>
17.396

>  <SCORE.INTER.VDW>
-18.3391

>  <SCORE.INTER.norm>
-0.841065

>  <SCORE.INTRA>
-1.078

>  <SCORE.INTRA.DIHEDRAL>
-1.21405

>  <SCORE.INTRA.DIHEDRAL.0>
2.93688

>  <SCORE.INTRA.POLAR>
0

>  <SCORE.INTRA.POLAR.0>
0

>  <SCORE.INTRA.REPUL>
0

>  <SCORE.INTRA.REPUL.0>
0

>  <SCORE.INTRA.SOLV>
-1.24721

>  <SCORE.INTRA.SOLV.lig_0>
-32.2816

>  <SCORE.INTRA.VDW>
0.15263

>  <SCORE.INTRA.VDW.0>
-0.749945

>  <SCORE.INTRA.norm>
-0.1078

>  <SCORE.RESTR>
0

>  <SCORE.RESTR.CAVITY>
0

>  <SCORE.RESTR.norm>
0

>  <SCORE.SYSTEM>
0

>  <SCORE.SYSTEM.CONST>
0

>  <SCORE.SYSTEM.DIHEDRAL>
0

>  <SCORE.SYSTEM.SOLV>
0

>  <SCORE.SYSTEM.norm>
0

>  <SCORE.heavy>
10

>  <SCORE.norm>
-0.948866

>  <RMSD>
5.414

$$$$
ligand
 OpenBabel11021811473D
libRbt.so/2013.1/901 2013/11/27
 10  9  0  0  0  0  0  0  0  0999 V2000
   25.6145   15.7201   19.6895 N   0  0  0  0  0  0  0  0  0  0  0  0
   27.0838   15.5624   19.9059 C   0  0  2  0  0  0  0  0  0  0  0  0
   27.7238   14.7291   18.7960 C   0  0  0  0  0  0  0  0  0  0  0  0
   28.9217   14.8289   18.5363 O   0  0  0  0  0  0  0  0  0  0  0  0
   27.3728   14.9779   21.2937 C   0  0  0  0  0  0  0  0  0  0  0  0
   28.8669   14.8755   21.5986 C   0  0  0  0  0  0  0  0  0  0  0  0
   29.5517   16.2351   21.6249 C   0  0  0  0  0  0  0  0  0  0  0  0
   31.0488   16.0935   21.8814 C   0  0  0  0  0  0  0  0  0  0  0  0
   31.7769   17.4091   21.8866 N   0  0  0  0  0  0  0  0  0  0  0  0
   27.0824   13.9076   18.1342 O   0  0  0  0  0  0  0  0  0  0  0  0
  2  1  1  6  0  0  0
  2  3  1  0  0  0  0
  2  5  1  0  0  0  0
  3  4  1  0  0  0  0
  3 10  1  0  0  0  0
  5  6  1  0  0  0  0
  6  7  1  0  0  0  0
  7  8  1  0  0  0  0
  8  9  1  0  0  0  0
M  END
>  <CHROM.1>
156.45127513,-176.50371979,62.73128616,-177.94260134,178.73024365,28.51151938
15.41295348,20.30372152,2.45124621,-0.12578865,-1.97907656

>  <Name>
ligand

>  <RI>
0

>  <Rbt.Current_Directory>
/home/itssahil/PROJECTS/Mol_Feturizer/New_Systems/rnas/3DIL

>  <Rbt.Executable>
rbdock ($Id: //depot/dev/client3/rdock/2013.1/src/exe/rbdock.cxx#4 $)

>  <Rbt.Library>
libRbt.so (2013.1, Build901 2013/11/27)

>  <Rbt.Parameter_File>
/export/apps/rDock/src/rDock_2013.1_src/data/scripts/dock_solv.prm

>  <Rbt.Receptor>
prm/pocket_docking_8.prm

>  <SCORE>
-9.4786

>  <SCORE.INTER>
-8.37915

>  <SCORE.INTER.CONST>
1

>  <SCORE.INTER.POLAR>
0

>  <SCORE.INTER.ROT>
5

>  <SCORE.INTER.SOLV>
17.3608

>  <SCORE.INTER.VDW>
-18.3064

>  <SCORE.INTER.norm>
-0.837915

>  <SCORE.INTRA>
-1.09946

>  <SCORE.INTRA.DIHEDRAL>
-1.38577

>  <SCORE.INTRA.DIHEDRAL.0>
2.93688

>  <SCORE.INTRA.POLAR>
0

>  <SCORE.INTRA.POLAR.0>
0

>  <SCORE.INTRA.REPUL>
0

>  <SCORE.INTRA.REPUL.0>
0

>  <SCORE.INTRA.SOLV>
-1.25738

>  <SCORE.INTRA.SOLV.lig_0>
-32.2816

>  <SCORE.INTRA.VDW>
0.22212

>  <SCORE.INTRA.VDW.0>
-0.749945

>  <SCORE.INTRA.norm>
-0.109946

>  <SCORE.RESTR>
0

>  <SCORE.RESTR.CAVITY>
0

>  <SCORE.RESTR.norm>
0

>  <SCORE.SYSTEM>
0

>  <SCORE.SYSTEM.CONST>
0

>  <SCORE.SYSTEM.DIHEDRAL>
0

>  <SCORE.SYSTEM.SOLV>
0

>  <SCORE.SYSTEM.norm>
0

>  <SCORE.heavy>
10

>  <SCORE.norm>
-0.94786

>  <RMSD>
5.414

$$$$
ligand
 OpenBabel11021811473D
libRbt.so/2013.1/901 2013/11/27
 10  9  0  0  0  0  0  0  0  0999 V2000
   27.0084   15.0235   20.2679 N   0  0  0  0  0  0  0  0  0  0  0  0
   27.4907   15.8945   19.1546 C   0  0  2  0  0  0  0  0  0  0  0  0
   27.6456   15.1035   17.8560 C   0  0  0  0  0  0  0  0  0  0  0  0
   27.2321   13.9492   17.7616 O   0  0  0  0  0  0  0  0  0  0  0  0
   28.7903   16.6094   19.5429 C   0  0  0  0  0  0  0  0  0  0  0  0
   29.9053   15.6441   19.9441 C   0  0  0  0  0  0  0  0  0  0  0  0
   31.2227   16.3562   20.2195 C   0  0  0  0  0  0  0  0  0  0  0  0
   31.0916   17.3245   21.3909 C   0  0  0  0  0  0  0  0  0  0  0  0
   30.6359   16.6609   22.6610 N   0  0  0  0  0  0  0  0  0  0  0  0
   28.1623   15.5889   16.8453 O   0  0  0  0  0  0  0  0  0  0  0  0
  2  1  1  1  0  0  0
  2  3  1  0  0  0  0
  2  5  1  0  0  0  0
  3  4  1  0  0  0  0
  3 10  1  0  0  0  0
  5  6  1  0  0  0  0
  6  7  1  0  0  0  0
  7  8  1  0  0  0  0
  8  9  1  0  0  0  0
M  END
>  <CHROM.1>
9.16964014,57.05963634,175.39472487,62.28118997,57.65507252,28.91274504,15.79580796
19.52796858,2.33985385,-0.42223165,-1.66621285

>  <Name>
ligand

>  <RI>
0

>  <Rbt.Current_Directory>
/home/itssahil/PROJECTS/Mol_Feturizer/New_Systems/rnas/3DIL

>  <Rbt.Executable>
rbdock ($Id: //depot/dev/client3/rdock/2013.1/src/exe/rbdock.cxx#4 $)

>  <Rbt.Library>
libRbt.so (2013.1, Build901 2013/11/27)

>  <Rbt.Parameter_File>
/export/apps/rDock/src/rDock_2013.1_src/data/scripts/dock_solv.prm

>  <Rbt.Receptor>
prm/blind_docking_80.prm

>  <SCORE>
-6.8619

>  <SCORE.INTER>
-7.83212

>  <SCORE.INTER.CONST>
1

>  <SCORE.INTER.POLAR>
0

>  <SCORE.INTER.ROT>
5

>  <SCORE.INTER.SOLV>
14.2328

>  <SCORE.INTER.VDW>
-16.899

>  <SCORE.INTER.norm>
-0.783212

>  <SCORE.INTRA>
0.970215

>  <SCORE.INTRA.DIHEDRAL>
-1.27707

>  <SCORE.INTRA.DIHEDRAL.0>
2.93688

>  <SCORE.INTRA.POLAR>
0

>  <SCORE.INTRA.POLAR.0>
0

>  <SCORE.INTRA.REPUL>
0

>  <SCORE.INTRA.REPUL.0>
0

>  <SCORE.INTRA.SOLV>
1.03828

>  <SCORE.INTRA.SOLV.lig_0>
-32.2816

>  <SCORE.INTRA.VDW>
1.08961

>  <SCORE.INTRA.VDW.0>
-0.749945

>  <SCORE.INTRA.norm>
0.0970215

>  <SCORE.RESTR>
0

>  <SCORE.RESTR.CAVITY>
0

>  <SCORE.RESTR.norm>
0

>  <SCORE.SYSTEM>
0

>  <SCORE.SYSTEM.CONST>
0

>  <SCORE.SYSTEM.DIHEDRAL>
0

>  <SCORE.SYSTEM.SOLV>
0

>  <SCORE.SYSTEM.norm>
0

>  <SCORE.heavy>
10

>  <SCORE.norm>
-0.68619

>  <RMSD>
5.415

$$$$
ligand
 OpenBabel11021811473D
libRbt.so/2013.1/901 2013/11/27
 10  9  0  0  0  0  0  0  0  0999 V2000
   25.6279   15.1511   20.3953 N   0  0  0  0  0  0  0  0  0  0  0  0
   26.9543   15.7646   20.0873 C   0  0  2  0  0  0  0  0  0  0  0  0
   27.4546   15.3447   18.7056 C   0  0  0  0  0  0  0  0  0  0  0  0
   28.1846   16.0800   18.0432 O   0  0  0  0  0  0  0  0  0  0  0  0
   27.9753   15.4399   21.1842 C   0  0  0  0  0  0  0  0  0  0  0  0
   29.2897   16.2023   21.0204 C   0  0  0  0  0  0  0  0  0  0  0  0
   30.3241   15.8140   22.0681 C   0  0  0  0  0  0  0  0  0  0  0  0
   31.6039   16.6285   21.9076 C   0  0  0  0  0  0  0  0  0  0  0  0
   32.2827   16.4121   20.5834 N   0  0  0  0  0  0  0  0  0  0  0  0
   27.1752   14.2504   18.2070 O   0  0  0  0  0  0  0  0  0  0  0  0
  2  1  1  1  0  0  0
  2  3  1  0  0  0  0
  2  5  1  0  0  0  0
  3  4  1  0  0  0  0
  3 10  1  0  0  0  0
  5  6  1  0  0  0  0
  6  7  1  0  0  0  0
  7  8  1  0  0  0  0
  8  9  1  0  0  0  0
M  END
>  <CHROM.1>
150.74848695,-171.92466506,-176.75232543,-177.93829636,-61.77300394,28.68898593
15.69833908,20.18413882,2.65988609,-0.22165717,-1.65520239

>  <Name>
ligand

>  <RI>
0

>  <Rbt.Current_Directory>
/home/itssahil/PROJECTS/Mol_Feturizer/New_Systems/rnas/3DIL

>  <Rbt.Executable>
rbdock ($Id: //depot/dev/client3/rdock/2013.1/src/exe/rbdock.cxx#4 $)

>  <Rbt.Library>
libRbt.so (2013.1, Build901 2013/11/27)

>  <Rbt.Parameter_File>
/export/apps/rDock/src/rDock_2013.1_src/data/scripts/dock_solv.prm

>  <Rbt.Receptor>
prm/pocket_docking_7.prm

>  <SCORE>
-9.377

>  <SCORE.INTER>
-8.49515

>  <SCORE.INTER.CONST>
1

>  <SCORE.INTER.POLAR>
0

>  <SCORE.INTER.ROT>
5

>  <SCORE.INTER.SOLV>
18.0355

>  <SCORE.INTER.VDW>
-18.6086

>  <SCORE.INTER.norm>
-0.849515

>  <SCORE.INTRA>
-0.881856

>  <SCORE.INTRA.DIHEDRAL>
-1.17434

>  <SCORE.INTRA.DIHEDRAL.0>
2.93688

>  <SCORE.INTRA.POLAR>
0

>  <SCORE.INTRA.POLAR.0>
0

>  <SCORE.INTRA.REPUL>
0

>  <SCORE.INTRA.REPUL.0>
0

>  <SCORE.INTRA.SOLV>
-0.593887

>  <SCORE.INTRA.SOLV.lig_0>
-32.2816

>  <SCORE.INTRA.VDW>
0.0022583

>  <SCORE.INTRA.VDW.0>
-0.749945

>  <SCORE.INTRA.norm>
-0.0881856

>  <SCORE.RESTR>
0

>  <SCORE.RESTR.CAVITY>
0

>  <SCORE.RESTR.norm>
0

>  <SCORE.SYSTEM>
0

>  <SCORE.SYSTEM.CONST>
0

>  <SCORE.SYSTEM.DIHEDRAL>
0

>  <SCORE.SYSTEM.SOLV>
0

>  <SCORE.SYSTEM.norm>
0

>  <SCORE.heavy>
10

>  <SCORE.norm>
-0.9377

>  <RMSD>
5.417

$$$$
ligand
 OpenBabel11021811473D
libRbt.so/2013.1/901 2013/11/27
 10  9  0  0  0  0  0  0  0  0999 V2000
   27.7835   14.7527   18.2091 N   0  0  0  0  0  0  0  0  0  0  0  0
   27.9070   14.7093   19.6969 C   0  0  2  0  0  0  0  0  0  0  0  0
   26.6383   15.2242   20.3761 C   0  0  0  0  0  0  0  0  0  0  0  0
   25.7370   15.7495   19.7249 O   0  0  0  0  0  0  0  0  0  0  0  0
   29.1518   15.4724   20.1651 C   0  0  0  0  0  0  0  0  0  0  0  0
   29.4256   15.3076   21.6596 C   0  0  0  0  0  0  0  0  0  0  0  0
   30.7979   15.8297   22.0626 C   0  0  0  0  0  0  0  0  0  0  0  0
   30.8930   17.3394   21.8659 C   0  0  0  0  0  0  0  0  0  0  0  0
   32.2585   17.8922   22.1674 N   0  0  0  0  0  0  0  0  0  0  0  0
   26.4491   15.1142   21.5910 O   0  0  0  0  0  0  0  0  0  0  0  0
  2  1  1  6  0  0  0
  2  3  1  0  0  0  0
  2  5  1  0  0  0  0
  3  4  1  0  0  0  0
  3 10  1  0  0  0  0
  5  6  1  0  0  0  0
  6  7  1  0  0  0  0
  7  8  1  0  0  0  0
  8  9  1  0  0  0  0
M  END
>  <CHROM.1>
-8.33410964,-172.54318348,168.59703307,65.27640060,-176.34406027,28.66600929
15.74507344,20.76228743,-2.64407093,0.23817761,1.26459735

>  <Name>
ligand

>  <RI>
0

>  <Rbt.Current_Directory>
/home/itssahil/PROJECTS/Mol_Feturizer/New_Systems/rnas/3DIL

>  <Rbt.Executable>
rbdock ($Id: //depot/dev/client3/rdock/2013.1/src/exe/rbdock.cxx#4 $)

>  <Rbt.Library>
libRbt.so (2013.1, Build901 2013/11/27)

>  <Rbt.Parameter_File>
/export/apps/rDock/src/rDock_2013.1_src/data/scripts/dock_solv.prm

>  <Rbt.Receptor>
prm/pocket_docking_4.prm

>  <SCORE>
-9.45844

>  <SCORE.INTER>
-9.43491

>  <SCORE.INTER.CONST>
1

>  <SCORE.INTER.POLAR>
0

>  <SCORE.INTER.ROT>
5

>  <SCORE.INTER.SOLV>
13.8234

>  <SCORE.INTER.VDW>
-17.8311

>  <SCORE.INTER.norm>
-0.943491

>  <SCORE.INTRA>
-0.0235354

>  <SCORE.INTRA.DIHEDRAL>
-0.506645

>  <SCORE.INTRA.DIHEDRAL.0>
2.93688

>  <SCORE.INTRA.POLAR>
0

>  <SCORE.INTRA.POLAR.0>
0

>  <SCORE.INTRA.REPUL>
0

>  <SCORE.INTRA.REPUL.0>
0

>  <SCORE.INTRA.SOLV>
-1.24175

>  <SCORE.INTRA.SOLV.lig_0>
-32.2816

>  <SCORE.INTRA.VDW>
0.85066

>  <SCORE.INTRA.VDW.0>
-0.749945

>  <SCORE.INTRA.norm>
-0.00235354

>  <SCORE.RESTR>
0

>  <SCORE.RESTR.CAVITY>
0

>  <SCORE.RESTR.norm>
0

>  <SCORE.SYSTEM>
0

>  <SCORE.SYSTEM.CONST>
0

>  <SCORE.SYSTEM.DIHEDRAL>
0

>  <SCORE.SYSTEM.SOLV>
0

>  <SCORE.SYSTEM.norm>
0

>  <SCORE.heavy>
10

>  <SCORE.norm>
-0.945844

>  <RMSD>
5.418

$$$$
ligand
 OpenBabel11021811473D
libRbt.so/2013.1/901 2013/11/27
 10  9  0  0  0  0  0  0  0  0999 V2000
   27.1487   14.0487   18.3906 N   0  0  0  0  0  0  0  0  0  0  0  0
   27.7081   14.9411   19.4495 C   0  0  2  0  0  0  0  0  0  0  0  0
   26.7189   15.1287   20.5993 C   0  0  0  0  0  0  0  0  0  0  0  0
   27.1097   15.3039   21.7521 O   0  0  0  0  0  0  0  0  0  0  0  0
   28.1505   16.2838   18.8559 C   0  0  0  0  0  0  0  0  0  0  0  0
   28.8318   17.1927   19.8785 C   0  0  0  0  0  0  0  0  0  0  0  0
   30.1556   16.6258   20.3727 C   0  0  0  0  0  0  0  0  0  0  0  0
   30.8131   17.5611   21.3827 C   0  0  0  0  0  0  0  0  0  0  0  0
   32.1520   17.0713   21.8607 N   0  0  0  0  0  0  0  0  0  0  0  0
   25.4970   15.1399   20.4234 O   0  0  0  0  0  0  0  0  0  0  0  0
  2  1  1  6  0  0  0
  2  3  1  0  0  0  0
  2  5  1  0  0  0  0
  3  4  1  0  0  0  0
  3 10  1  0  0  0  0
  5  6  1  0  0  0  0
  6  7  1  0  0  0  0
  7  8  1  0  0  0  0
  8  9  1  0  0  0  0
M  END
>  <CHROM.1>
148.59923830,-175.47521587,65.65659399,179.57888095,-177.70231101,28.39835181
15.92851936,20.32044046,-2.80082498,0.41542794,1.39322531

>  <Name>
ligand

>  <RI>
0

>  <Rbt.Current_Directory>
/home/itssahil/PROJECTS/Mol_Feturizer/New_Systems/rnas/3DIL

>  <Rbt.Executable>
rbdock ($Id: //depot/dev/client3/rdock/2013.1/src/exe/rbdock.cxx#4 $)

>  <Rbt.Library>
libRbt.so (2013.1, Build901 2013/11/27)

>  <Rbt.Parameter_File>
/export/apps/rDock/src/rDock_2013.1_src/data/scripts/dock_solv.prm

>  <Rbt.Receptor>
prm/pocket_docking_5.prm

>  <SCORE>
-10.2845

>  <SCORE.INTER>
-9.08363

>  <SCORE.INTER.CONST>
1

>  <SCORE.INTER.POLAR>
0

>  <SCORE.INTER.ROT>
5

>  <SCORE.INTER.SOLV>
15.6569

>  <SCORE.INTER.VDW>
-18.208

>  <SCORE.INTER.norm>
-0.908363

>  <SCORE.INTRA>
-1.20085

>  <SCORE.INTRA.DIHEDRAL>
-1.25827

>  <SCORE.INTRA.DIHEDRAL.0>
2.93688

>  <SCORE.INTRA.POLAR>
0

>  <SCORE.INTRA.POLAR.0>
0

>  <SCORE.INTRA.REPUL>
0

>  <SCORE.INTRA.REPUL.0>
0

>  <SCORE.INTRA.SOLV>
-1.2713

>  <SCORE.INTRA.SOLV.lig_0>
-32.2816

>  <SCORE.INTRA.VDW>
0.0639334

>  <SCORE.INTRA.VDW.0>
-0.749945

>  <SCORE.INTRA.norm>
-0.120085

>  <SCORE.RESTR>
0

>  <SCORE.RESTR.CAVITY>
0

>  <SCORE.RESTR.norm>
0

>  <SCORE.SYSTEM>
0

>  <SCORE.SYSTEM.CONST>
0

>  <SCORE.SYSTEM.DIHEDRAL>
0

>  <SCORE.SYSTEM.SOLV>
0

>  <SCORE.SYSTEM.norm>
0

>  <SCORE.heavy>
10

>  <SCORE.norm>
-1.02845

>  <RMSD>
5.419

$$$$
ligand
 OpenBabel11021811473D
libRbt.so/2013.1/901 2013/11/27
 10  9  0  0  0  0  0  0  0  0999 V2000
   28.6731   14.6324   18.8480 N   0  0  0  0  0  0  0  0  0  0  0  0
   28.0581   14.5399   20.2059 C   0  0  2  0  0  0  0  0  0  0  0  0
   26.7787   15.3712   20.2955 C   0  0  0  0  0  0  0  0  0  0  0  0
   25.8277   15.0023   20.9823 O   0  0  0  0  0  0  0  0  0  0  0  0
   29.0675   14.9319   21.2915 C   0  0  0  0  0  0  0  0  0  0  0  0
   29.6408   16.3349   21.0945 C   0  0  0  0  0  0  0  0  0  0  0  0
   30.8377   16.6080   21.9951 C   0  0  0  0  0  0  0  0  0  0  0  0
   31.4264   17.9893   21.7260 C   0  0  0  0  0  0  0  0  0  0  0  0
   32.7179   18.2363   22.4555 N   0  0  0  0  0  0  0  0  0  0  0  0
   26.6513   16.4514   19.7116 O   0  0  0  0  0  0  0  0  0  0  0  0
  2  1  1  6  0  0  0
  2  3  1  0  0  0  0
  2  5  1  0  0  0  0
  3  4  1  0  0  0  0
  3 10  1  0  0  0  0
  5  6  1  0  0  0  0
  6  7  1  0  0  0  0
  7  8  1  0  0  0  0
  8  9  1  0  0  0  0
M  END
>  <CHROM.1>
145.43383280,57.05271927,-168.24763193,177.25271469,-172.27638863,28.92893481
16.02134378,20.85902998,-2.57854415,-0.03738217,0.59440194

>  <Name>
ligand

>  <RI>
0

>  <Rbt.Current_Directory>
/home/itssahil/PROJECTS/Mol_Feturizer/New_Systems/rnas/3DIL

>  <Rbt.Executable>
rbdock ($Id: //depot/dev/client3/rdock/2013.1/src/exe/rbdock.cxx#4 $)

>  <Rbt.Library>
libRbt.so (2013.1, Build901 2013/11/27)

>  <Rbt.Parameter_File>
/export/apps/rDock/src/rDock_2013.1_src/data/scripts/dock_solv.prm

>  <Rbt.Receptor>
prm/pocket_docking_7.prm

>  <SCORE>
-9.07345

>  <SCORE.INTER>
-8.48986

>  <SCORE.INTER.CONST>
1

>  <SCORE.INTER.POLAR>
0

>  <SCORE.INTER.ROT>
5

>  <SCORE.INTER.SOLV>
14.3391

>  <SCORE.INTER.VDW>
-17.373

>  <SCORE.INTER.norm>
-0.848986

>  <SCORE.INTRA>
-0.583583

>  <SCORE.INTRA.DIHEDRAL>
-0.62288

>  <SCORE.INTRA.DIHEDRAL.0>
2.93688

>  <SCORE.INTRA.POLAR>
0

>  <SCORE.INTRA.POLAR.0>
0

>  <SCORE.INTRA.REPUL>
0

>  <SCORE.INTRA.REPUL.0>
0

>  <SCORE.INTRA.SOLV>
-0.494196

>  <SCORE.INTRA.SOLV.lig_0>
-32.2816

>  <SCORE.INTRA.VDW>
-0.0250446

>  <SCORE.INTRA.VDW.0>
-0.749945

>  <SCORE.INTRA.norm>
-0.0583583

>  <SCORE.RESTR>
0

>  <SCORE.RESTR.CAVITY>
0

>  <SCORE.RESTR.norm>
0

>  <SCORE.SYSTEM>
0

>  <SCORE.SYSTEM.CONST>
0

>  <SCORE.SYSTEM.DIHEDRAL>
0

>  <SCORE.SYSTEM.SOLV>
0

>  <SCORE.SYSTEM.norm>
0

>  <SCORE.heavy>
10

>  <SCORE.norm>
-0.907345

>  <RMSD>
5.419

$$$$
ligand
 OpenBabel11021811473D
libRbt.so/2013.1/901 2013/11/27
 10  9  0  0  0  0  0  0  0  0999 V2000
   28.6399   14.6742   18.7996 N   0  0  0  0  0  0  0  0  0  0  0  0
   28.0459   14.5578   20.1650 C   0  0  2  0  0  0  0  0  0  0  0  0
   26.7672   15.3858   20.2883 C   0  0  0  0  0  0  0  0  0  0  0  0
   25.8271   15.0040   20.9831 O   0  0  0  0  0  0  0  0  0  0  0  0
   29.0714   14.9323   21.2415 C   0  0  0  0  0  0  0  0  0  0  0  0
   29.6394   16.3396   21.0606 C   0  0  0  0  0  0  0  0  0  0  0  0
   30.8345   16.6074   21.9651 C   0  0  0  0  0  0  0  0  0  0  0  0
   31.4286   17.9872   21.6998 C   0  0  0  0  0  0  0  0  0  0  0  0
   32.7159   18.2307   22.4376 N   0  0  0  0  0  0  0  0  0  0  0  0
   26.6300   16.4758   19.7251 O   0  0  0  0  0  0  0  0  0  0  0  0
  2  1  1  6  0  0  0
  2  3  1  0  0  0  0
  2  5  1  0  0  0  0
  3  4  1  0  0  0  0
  3 10  1  0  0  0  0
  5  6  1  0  0  0  0
  6  7  1  0  0  0  0
  7  8  1  0  0  0  0
  8  9  1  0  0  0  0
M  END
>  <CHROM.1>
145.42428833,57.10655802,-169.26191188,176.55554716,-172.49897547,28.92098240
16.03101670,20.83575280,-2.58198912,-0.02320905,0.61716388

>  <Name>
ligand

>  <RI>
0

>  <Rbt.Current_Directory>
/home/itssahil/PROJECTS/Mol_Feturizer/New_Systems/rnas/3DIL

>  <Rbt.Executable>
rbdock ($Id: //depot/dev/client3/rdock/2013.1/src/exe/rbdock.cxx#4 $)

>  <Rbt.Library>
libRbt.so (2013.1, Build901 2013/11/27)

>  <Rbt.Parameter_File>
/export/apps/rDock/src/rDock_2013.1_src/data/scripts/dock_solv.prm

>  <Rbt.Receptor>
prm/pocket_docking_5.prm

>  <SCORE>
-9.01515

>  <SCORE.INTER>
-8.38502

>  <SCORE.INTER.CONST>
1

>  <SCORE.INTER.POLAR>
0

>  <SCORE.INTER.ROT>
5

>  <SCORE.INTER.SOLV>
14.1275

>  <SCORE.INTER.VDW>
-17.2325

>  <SCORE.INTER.norm>
-0.838502

>  <SCORE.INTRA>
-0.630128

>  <SCORE.INTRA.DIHEDRAL>
-0.70893

>  <SCORE.INTRA.DIHEDRAL.0>
2.93688

>  <SCORE.INTRA.POLAR>
0

>  <SCORE.INTRA.POLAR.0>
0

>  <SCORE.INTRA.REPUL>
0

>  <SCORE.INTRA.REPUL.0>
0

>  <SCORE.INTRA.SOLV>
-0.501682

>  <SCORE.INTRA.SOLV.lig_0>
-32.2816

>  <SCORE.INTRA.VDW>
-0.0248218

>  <SCORE.INTRA.VDW.0>
-0.749945

>  <SCORE.INTRA.norm>
-0.0630128

>  <SCORE.RESTR>
0

>  <SCORE.RESTR.CAVITY>
0

>  <SCORE.RESTR.norm>
0

>  <SCORE.SYSTEM>
0

>  <SCORE.SYSTEM.CONST>
0

>  <SCORE.SYSTEM.DIHEDRAL>
0

>  <SCORE.SYSTEM.SOLV>
0

>  <SCORE.SYSTEM.norm>
0

>  <SCORE.heavy>
10

>  <SCORE.norm>
-0.901515

>  <RMSD>
5.421

$$$$
ligand
 OpenBabel11021811473D
libRbt.so/2013.1/901 2013/11/27
 10  9  0  0  0  0  0  0  0  0999 V2000
   27.1471   14.0503   18.3734 N   0  0  0  0  0  0  0  0  0  0  0  0
   27.7058   14.9406   19.4345 C   0  0  2  0  0  0  0  0  0  0  0  0
   26.7056   15.1469   20.5716 C   0  0  0  0  0  0  0  0  0  0  0  0
   27.0818   15.2535   21.7376 O   0  0  0  0  0  0  0  0  0  0  0  0
   28.1729   16.2743   18.8397 C   0  0  0  0  0  0  0  0  0  0  0  0
   28.8235   17.1932   19.8732 C   0  0  0  0  0  0  0  0  0  0  0  0
   30.1418   16.6406   20.3975 C   0  0  0  0  0  0  0  0  0  0  0  0
   30.7662   17.5831   21.4218 C   0  0  0  0  0  0  0  0  0  0  0  0
   32.1074   17.1169   21.9168 N   0  0  0  0  0  0  0  0  0  0  0  0
   25.4909   15.2418   20.3730 O   0  0  0  0  0  0  0  0  0  0  0  0
  2  1  1  6  0  0  0
  2  3  1  0  0  0  0
  2  5  1  0  0  0  0
  3  4  1  0  0  0  0
  3 10  1  0  0  0  0
  5  6  1  0  0  0  0
  6  7  1  0  0  0  0
  7  8  1  0  0  0  0
  8  9  1  0  0  0  0
M  END
>  <CHROM.1>
144.79719366,-176.87176335,66.78567578,179.79457224,-176.94812059,28.38393289
15.94331407,20.31740440,-2.78193439,0.41379722,1.38616910

>  <Name>
ligand

>  <RI>
0

>  <Rbt.Current_Directory>
/home/itssahil/PROJECTS/Mol_Feturizer/New_Systems/rnas/3DIL

>  <Rbt.Executable>
rbdock ($Id: //depot/dev/client3/rdock/2013.1/src/exe/rbdock.cxx#4 $)

>  <Rbt.Library>
libRbt.so (2013.1, Build901 2013/11/27)

>  <Rbt.Parameter_File>
/export/apps/rDock/src/rDock_2013.1_src/data/scripts/dock_solv.prm

>  <Rbt.Receptor>
prm/pocket_docking_3.prm

>  <SCORE>
-10.3945

>  <SCORE.INTER>
-9.18337

>  <SCORE.INTER.CONST>
1

>  <SCORE.INTER.POLAR>
0

>  <SCORE.INTER.ROT>
5

>  <SCORE.INTER.SOLV>
15.579

>  <SCORE.INTER.VDW>
-18.2486

>  <SCORE.INTER.norm>
-0.918337

>  <SCORE.INTRA>
-1.21112

>  <SCORE.INTRA.DIHEDRAL>
-1.22154

>  <SCORE.INTRA.DIHEDRAL.0>
2.93688

>  <SCORE.INTRA.POLAR>
0

>  <SCORE.INTRA.POLAR.0>
0

>  <SCORE.INTRA.REPUL>
0

>  <SCORE.INTRA.REPUL.0>
0

>  <SCORE.INTRA.SOLV>
-1.28818

>  <SCORE.INTRA.SOLV.lig_0>
-32.2816

>  <SCORE.INTRA.VDW>
0.0437356

>  <SCORE.INTRA.VDW.0>
-0.749945

>  <SCORE.INTRA.norm>
-0.121112

>  <SCORE.RESTR>
0

>  <SCORE.RESTR.CAVITY>
0

>  <SCORE.RESTR.norm>
0

>  <SCORE.SYSTEM>
0

>  <SCORE.SYSTEM.CONST>
0

>  <SCORE.SYSTEM.DIHEDRAL>
0

>  <SCORE.SYSTEM.SOLV>
0

>  <SCORE.SYSTEM.norm>
0

>  <SCORE.heavy>
10

>  <SCORE.norm>
-1.03945

>  <RMSD>
5.422

$$$$
ligand
 OpenBabel11021811473D
libRbt.so/2013.1/901 2013/11/27
 10  9  0  0  0  0  0  0  0  0999 V2000
   27.7656   14.4674   18.3259 N   0  0  0  0  0  0  0  0  0  0  0  0
   27.8770   14.5866   19.8105 C   0  0  2  0  0  0  0  0  0  0  0  0
   26.6134   15.1965   20.4165 C   0  0  0  0  0  0  0  0  0  0  0  0
   26.3753   15.1013   21.6193 O   0  0  0  0  0  0  0  0  0  0  0  0
   29.1327   15.3740   20.2035 C   0  0  0  0  0  0  0  0  0  0  0  0
   29.4021   15.3554   21.7077 C   0  0  0  0  0  0  0  0  0  0  0  0
   30.7747   15.9112   22.0617 C   0  0  0  0  0  0  0  0  0  0  0  0
   30.8714   17.3962   21.7265 C   0  0  0  0  0  0  0  0  0  0  0  0
   32.2284   17.9804   22.0061 N   0  0  0  0  0  0  0  0  0  0  0  0
   25.7960   15.8283   19.7407 O   0  0  0  0  0  0  0  0  0  0  0  0
  2  1  1  6  0  0  0
  2  3  1  0  0  0  0
  2  5  1  0  0  0  0
  3  4  1  0  0  0  0
  3 10  1  0  0  0  0
  5  6  1  0  0  0  0
  6  7  1  0  0  0  0
  7  8  1  0  0  0  0
  8  9  1  0  0  0  0
M  END
>  <CHROM.1>
163.21686547,-171.79746846,169.33586158,65.61755268,-177.65543562,28.64599759
15.72802625,20.77144427,-2.63660469,0.21654843,1.14707659

>  <Name>
ligand

>  <RI>
0

>  <Rbt.Current_Directory>
/home/itssahil/PROJECTS/Mol_Feturizer/New_Systems/rnas/3DIL

>  <Rbt.Executable>
rbdock ($Id: //depot/dev/client3/rdock/2013.1/src/exe/rbdock.cxx#4 $)

>  <Rbt.Library>
libRbt.so (2013.1, Build901 2013/11/27)

>  <Rbt.Parameter_File>
/export/apps/rDock/src/rDock_2013.1_src/data/scripts/dock_solv.prm

>  <Rbt.Receptor>
prm/pocket_docking_3.prm

>  <SCORE>
-9.438

>  <SCORE.INTER>
-9.20321

>  <SCORE.INTER.CONST>
1

>  <SCORE.INTER.POLAR>
0

>  <SCORE.INTER.ROT>
5

>  <SCORE.INTER.SOLV>
14.2619

>  <SCORE.INTER.VDW>
-17.8228

>  <SCORE.INTER.norm>
-0.920321

>  <SCORE.INTRA>
-0.234792

>  <SCORE.INTRA.DIHEDRAL>
-0.61377

>  <SCORE.INTRA.DIHEDRAL.0>
2.93688

>  <SCORE.INTRA.POLAR>
0

>  <SCORE.INTRA.POLAR.0>
0

>  <SCORE.INTRA.REPUL>
0

>  <SCORE.INTRA.REPUL.0>
0

>  <SCORE.INTRA.SOLV>
-1.26378

>  <SCORE.INTRA.SOLV.lig_0>
-32.2816

>  <SCORE.INTRA.VDW>
0.703982

>  <SCORE.INTRA.VDW.0>
-0.749945

>  <SCORE.INTRA.norm>
-0.0234792

>  <SCORE.RESTR>
0

>  <SCORE.RESTR.CAVITY>
0

>  <SCORE.RESTR.norm>
0

>  <SCORE.SYSTEM>
0

>  <SCORE.SYSTEM.CONST>
0

>  <SCORE.SYSTEM.DIHEDRAL>
0

>  <SCORE.SYSTEM.SOLV>
0

>  <SCORE.SYSTEM.norm>
0

>  <SCORE.heavy>
10

>  <SCORE.norm>
-0.9438

>  <RMSD>
5.424

$$$$
ligand
 OpenBabel11021811473D
libRbt.so/2013.1/901 2013/11/27
 10  9  0  0  0  0  0  0  0  0999 V2000
   27.1390   14.0588   18.3564 N   0  0  0  0  0  0  0  0  0  0  0  0
   27.7094   14.9424   19.4168 C   0  0  2  0  0  0  0  0  0  0  0  0
   26.7126   15.1614   20.5546 C   0  0  0  0  0  0  0  0  0  0  0  0
   25.5042   15.2294   20.3369 O   0  0  0  0  0  0  0  0  0  0  0  0
   28.1925   16.2701   18.8213 C   0  0  0  0  0  0  0  0  0  0  0  0
   28.8238   17.1956   19.8609 C   0  0  0  0  0  0  0  0  0  0  0  0
   30.1458   16.6598   20.3932 C   0  0  0  0  0  0  0  0  0  0  0  0
   30.7414   17.5995   21.4369 C   0  0  0  0  0  0  0  0  0  0  0  0
   32.0847   17.1505   21.9418 N   0  0  0  0  0  0  0  0  0  0  0  0
   27.0667   15.2522   21.7338 O   0  0  0  0  0  0  0  0  0  0  0  0
  2  1  1  6  0  0  0
  2  3  1  0  0  0  0
  2  5  1  0  0  0  0
  3  4  1  0  0  0  0
  3 10  1  0  0  0  0
  5  6  1  0  0  0  0
  6  7  1  0  0  0  0
  7  8  1  0  0  0  0
  8  9  1  0  0  0  0
M  END
>  <CHROM.1>
-34.55123646,-178.30958640,68.14190416,-179.45494859,-176.97829694,28.38150169
15.95069359,20.30862179,-2.77452723,0.42030664,1.38988079

>  <Name>
ligand

>  <RI>
0

>  <Rbt.Current_Directory>
/home/itssahil/PROJECTS/Mol_Feturizer/New_Systems/rnas/3DIL

>  <Rbt.Executable>
rbdock ($Id: //depot/dev/client3/rdock/2013.1/src/exe/rbdock.cxx#4 $)

>  <Rbt.Library>
libRbt.so (2013.1, Build901 2013/11/27)

>  <Rbt.Parameter_File>
/export/apps/rDock/src/rDock_2013.1_src/data/scripts/dock_solv.prm

>  <Rbt.Receptor>
prm/pocket_docking_4.prm

>  <SCORE>
-10.2798

>  <SCORE.INTER>
-9.16346

>  <SCORE.INTER.CONST>
1

>  <SCORE.INTER.POLAR>
0

>  <SCORE.INTER.ROT>
5

>  <SCORE.INTER.SOLV>
15.5373

>  <SCORE.INTER.VDW>
-18.2214

>  <SCORE.INTER.norm>
-0.916346

>  <SCORE.INTRA>
-1.11672

>  <SCORE.INTRA.DIHEDRAL>
-1.05957

>  <SCORE.INTRA.DIHEDRAL.0>
2.93688

>  <SCORE.INTRA.POLAR>
0

>  <SCORE.INTRA.POLAR.0>
0

>  <SCORE.INTRA.REPUL>
0

>  <SCORE.INTRA.REPUL.0>
0

>  <SCORE.INTRA.SOLV>
-1.28968

>  <SCORE.INTRA.SOLV.lig_0>
-32.2816

>  <SCORE.INTRA.VDW>
0.0579018

>  <SCORE.INTRA.VDW.0>
-0.749945

>  <SCORE.INTRA.norm>
-0.111672

>  <SCORE.RESTR>
0.000382967

>  <SCORE.RESTR.CAVITY>
0.000382967

>  <SCORE.RESTR.norm>
3.82967e-05

>  <SCORE.SYSTEM>
0

>  <SCORE.SYSTEM.CONST>
0

>  <SCORE.SYSTEM.DIHEDRAL>
0

>  <SCORE.SYSTEM.SOLV>
0

>  <SCORE.SYSTEM.norm>
0

>  <SCORE.heavy>
10

>  <SCORE.norm>
-1.02798

>  <RMSD>
5.425

$$$$
ligand
 OpenBabel11021811473D
libRbt.so/2013.1/901 2013/11/27
 10  9  0  0  0  0  0  0  0  0999 V2000
   28.0425   15.7902   18.6882 N   0  0  0  0  0  0  0  0  0  0  0  0
   28.0680   14.9724   19.9377 C   0  0  2  0  0  0  0  0  0  0  0  0
   26.8601   15.2729   20.8245 C   0  0  0  0  0  0  0  0  0  0  0  0
   26.9876   15.4451   22.0355 O   0  0  0  0  0  0  0  0  0  0  0  0
   29.3889   15.1665   20.6917 C   0  0  0  0  0  0  0  0  0  0  0  0
   29.6933   16.6334   20.9940 C   0  0  0  0  0  0  0  0  0  0  0  0
   31.0294   16.8186   21.7002 C   0  0  0  0  0  0  0  0  0  0  0  0
   31.3149   18.2942   21.9616 C   0  0  0  0  0  0  0  0  0  0  0  0
   32.6896   18.5430   22.5178 N   0  0  0  0  0  0  0  0  0  0  0  0
   25.7179   15.3821   20.3691 O   0  0  0  0  0  0  0  0  0  0  0  0
  2  1  1  6  0  0  0
  2  3  1  0  0  0  0
  2  5  1  0  0  0  0
  3  4  1  0  0  0  0
  3 10  1  0  0  0  0
  5  6  1  0  0  0  0
  6  7  1  0  0  0  0
  7  8  1  0  0  0  0
  8  9  1  0  0  0  0
M  END
>  <CHROM.1>
-134.68045020,54.77817526,-178.02785423,178.86278402,-173.56254713,28.94218217
16.23141584,20.98806642,-2.71848427,0.38502120,1.25433138

>  <Name>
ligand

>  <RI>
0

>  <Rbt.Current_Directory>
/home/itssahil/PROJECTS/Mol_Feturizer/New_Systems/rnas/3DIL

>  <Rbt.Executable>
rbdock ($Id: //depot/dev/client3/rdock/2013.1/src/exe/rbdock.cxx#4 $)

>  <Rbt.Library>
libRbt.so (2013.1, Build901 2013/11/27)

>  <Rbt.Parameter_File>
/export/apps/rDock/src/rDock_2013.1_src/data/scripts/dock_solv.prm

>  <Rbt.Receptor>
prm/pocket_docking_3.prm

>  <SCORE>
-8.9914

>  <SCORE.INTER>
-8.91418

>  <SCORE.INTER.CONST>
1

>  <SCORE.INTER.POLAR>
0

>  <SCORE.INTER.ROT>
5

>  <SCORE.INTER.SOLV>
13.7282

>  <SCORE.INTER.VDW>
-17.4522

>  <SCORE.INTER.norm>
-0.891418

>  <SCORE.INTRA>
-0.0772223

>  <SCORE.INTRA.DIHEDRAL>
-1.09119

>  <SCORE.INTRA.DIHEDRAL.0>
2.93688

>  <SCORE.INTRA.POLAR>
0

>  <SCORE.INTRA.POLAR.0>
0

>  <SCORE.INTRA.REPUL>
0

>  <SCORE.INTRA.REPUL.0>
0

>  <SCORE.INTRA.SOLV>
-0.519186

>  <SCORE.INTRA.SOLV.lig_0>
-32.2816

>  <SCORE.INTRA.VDW>
0.727964

>  <SCORE.INTRA.VDW.0>
-0.749945

>  <SCORE.INTRA.norm>
-0.00772223

>  <SCORE.RESTR>
0

>  <SCORE.RESTR.CAVITY>
0

>  <SCORE.RESTR.norm>
0

>  <SCORE.SYSTEM>
0

>  <SCORE.SYSTEM.CONST>
0

>  <SCORE.SYSTEM.DIHEDRAL>
0

>  <SCORE.SYSTEM.SOLV>
0

>  <SCORE.SYSTEM.norm>
0

>  <SCORE.heavy>
10

>  <SCORE.norm>
-0.89914

>  <RMSD>
5.426

$$$$
ligand
 OpenBabel11021811473D
libRbt.so/2013.1/901 2013/11/27
 10  9  0  0  0  0  0  0  0  0999 V2000
   28.0638   17.1937   19.7038 N   0  0  0  0  0  0  0  0  0  0  0  0
   28.2035   15.7420   20.0258 C   0  0  2  0  0  0  0  0  0  0  0  0
   26.9059   14.9831   19.7499 C   0  0  0  0  0  0  0  0  0  0  0  0
   26.8426   14.1331   18.8634 O   0  0  0  0  0  0  0  0  0  0  0  0
   28.6808   15.5453   21.4695 C   0  0  0  0  0  0  0  0  0  0  0  0
   29.9750   16.2976   21.7778 C   0  0  0  0  0  0  0  0  0  0  0  0
   31.1136   15.9064   20.8457 C   0  0  0  0  0  0  0  0  0  0  0  0
   32.3337   16.7962   21.0620 C   0  0  0  0  0  0  0  0  0  0  0  0
   33.4595   16.5011   20.1100 N   0  0  0  0  0  0  0  0  0  0  0  0
   25.8807   15.1660   20.4130 O   0  0  0  0  0  0  0  0  0  0  0  0
  2  1  1  1  0  0  0
  2  3  1  0  0  0  0
  2  5  1  0  0  0  0
  3  4  1  0  0  0  0
  3 10  1  0  0  0  0
  5  6  1  0  0  0  0
  6  7  1  0  0  0  0
  7  8  1  0  0  0  0
  8  9  1  0  0  0  0
M  END
>  <CHROM.1>
113.92475494,-54.85925613,-57.22670488,172.81453768,-176.70308733,29.10634433
15.80590728,20.39287747,2.87889976,-0.15170823,-2.04643121

>  <Name>
ligand

>  <RI>
0

>  <Rbt.Current_Directory>
/home/itssahil/PROJECTS/Mol_Feturizer/New_Systems/rnas/3DIL

>  <Rbt.Executable>
rbdock ($Id: //depot/dev/client3/rdock/2013.1/src/exe/rbdock.cxx#4 $)

>  <Rbt.Library>
libRbt.so (2013.1, Build901 2013/11/27)

>  <Rbt.Parameter_File>
/export/apps/rDock/src/rDock_2013.1_src/data/scripts/dock_solv.prm

>  <Rbt.Receptor>
prm/pocket_docking_7.prm

>  <SCORE>
-6.91676

>  <SCORE.INTER>
-6.99176

>  <SCORE.INTER.CONST>
1

>  <SCORE.INTER.POLAR>
0

>  <SCORE.INTER.ROT>
5

>  <SCORE.INTER.SOLV>
18.336

>  <SCORE.INTER.VDW>
-17.7065

>  <SCORE.INTER.norm>
-0.699176

>  <SCORE.INTRA>
0.0749931

>  <SCORE.INTRA.DIHEDRAL>
-1.02845

>  <SCORE.INTRA.DIHEDRAL.0>
2.93688

>  <SCORE.INTRA.POLAR>
0

>  <SCORE.INTRA.POLAR.0>
0

>  <SCORE.INTRA.REPUL>
0

>  <SCORE.INTRA.REPUL.0>
0

>  <SCORE.INTRA.SOLV>
0.274956

>  <SCORE.INTRA.SOLV.lig_0>
-32.2816

>  <SCORE.INTRA.VDW>
0.451742

>  <SCORE.INTRA.VDW.0>
-0.749945

>  <SCORE.INTRA.norm>
0.00749931

>  <SCORE.RESTR>
0

>  <SCORE.RESTR.CAVITY>
0

>  <SCORE.RESTR.norm>
0

>  <SCORE.SYSTEM>
0

>  <SCORE.SYSTEM.CONST>
0

>  <SCORE.SYSTEM.DIHEDRAL>
0

>  <SCORE.SYSTEM.SOLV>
0

>  <SCORE.SYSTEM.norm>
0

>  <SCORE.heavy>
10

>  <SCORE.norm>
-0.691676

>  <RMSD>
5.426

$$$$
ligand
 OpenBabel11021811473D
libRbt.so/2013.1/901 2013/11/27
 10  9  0  0  0  0  0  0  0  0999 V2000
   27.7297   14.6144   18.2581 N   0  0  0  0  0  0  0  0  0  0  0  0
   27.8566   14.6343   19.7461 C   0  0  2  0  0  0  0  0  0  0  0  0
   26.5977   15.1975   20.4047 C   0  0  0  0  0  0  0  0  0  0  0  0
   26.4083   15.0845   21.6146 O   0  0  0  0  0  0  0  0  0  0  0  0
   29.1140   15.3981   20.1778 C   0  0  0  0  0  0  0  0  0  0  0  0
   29.3838   15.3031   21.6792 C   0  0  0  0  0  0  0  0  0  0  0  0
   30.7562   15.8407   22.0607 C   0  0  0  0  0  0  0  0  0  0  0  0
   30.8662   17.3328   21.7629 C   0  0  0  0  0  0  0  0  0  0  0  0
   32.2287   17.8974   22.0555 N   0  0  0  0  0  0  0  0  0  0  0  0
   25.7355   15.8080   19.7661 O   0  0  0  0  0  0  0  0  0  0  0  0
  2  1  1  6  0  0  0
  2  3  1  0  0  0  0
  2  5  1  0  0  0  0
  3  4  1  0  0  0  0
  3 10  1  0  0  0  0
  5  6  1  0  0  0  0
  6  7  1  0  0  0  0
  7  8  1  0  0  0  0
  8  9  1  0  0  0  0
M  END
>  <CHROM.1>
167.24507283,-172.96030534,169.48379370,63.93461879,-176.98287729,28.63009482
15.71855342,20.76314371,-2.65139981,0.23143180,1.22234802

>  <Name>
ligand

>  <RI>
0

>  <Rbt.Current_Directory>
/home/itssahil/PROJECTS/Mol_Feturizer/New_Systems/rnas/3DIL

>  <Rbt.Executable>
rbdock ($Id: //depot/dev/client3/rdock/2013.1/src/exe/rbdock.cxx#4 $)

>  <Rbt.Library>
libRbt.so (2013.1, Build901 2013/11/27)

>  <Rbt.Parameter_File>
/export/apps/rDock/src/rDock_2013.1_src/data/scripts/dock_solv.prm

>  <Rbt.Receptor>
prm/pocket_docking_4.prm

>  <SCORE>
-9.48406

>  <SCORE.INTER>
-9.36853

>  <SCORE.INTER.CONST>
1

>  <SCORE.INTER.POLAR>
0

>  <SCORE.INTER.ROT>
5

>  <SCORE.INTER.SOLV>
13.9525

>  <SCORE.INTER.VDW>
-17.8299

>  <SCORE.INTER.norm>
-0.936853

>  <SCORE.INTRA>
-0.115532

>  <SCORE.INTRA.DIHEDRAL>
-0.73718

>  <SCORE.INTRA.DIHEDRAL.0>
2.93688

>  <SCORE.INTRA.POLAR>
0

>  <SCORE.INTRA.POLAR.0>
0

>  <SCORE.INTRA.REPUL>
0

>  <SCORE.INTRA.REPUL.0>
0

>  <SCORE.INTRA.SOLV>
-1.24894

>  <SCORE.INTRA.SOLV.lig_0>
-32.2816

>  <SCORE.INTRA.VDW>
0.87753

>  <SCORE.INTRA.VDW.0>
-0.749945

>  <SCORE.INTRA.norm>
-0.0115532

>  <SCORE.RESTR>
0

>  <SCORE.RESTR.CAVITY>
0

>  <SCORE.RESTR.norm>
0

>  <SCORE.SYSTEM>
0

>  <SCORE.SYSTEM.CONST>
0

>  <SCORE.SYSTEM.DIHEDRAL>
0

>  <SCORE.SYSTEM.SOLV>
0

>  <SCORE.SYSTEM.norm>
0

>  <SCORE.heavy>
10

>  <SCORE.norm>
-0.948406

>  <RMSD>
5.427

$$$$
ligand
 OpenBabel11021811473D
libRbt.so/2013.1/901 2013/11/27
 10  9  0  0  0  0  0  0  0  0999 V2000
   25.5883   15.1634   20.3686 N   0  0  0  0  0  0  0  0  0  0  0  0
   26.9213   15.7721   20.0799 C   0  0  2  0  0  0  0  0  0  0  0  0
   27.4219   15.3823   18.6895 C   0  0  0  0  0  0  0  0  0  0  0  0
   28.1939   16.1081   18.0652 O   0  0  0  0  0  0  0  0  0  0  0  0
   27.9358   15.4105   21.1712 C   0  0  0  0  0  0  0  0  0  0  0  0
   29.2494   16.1813   21.0436 C   0  0  0  0  0  0  0  0  0  0  0  0
   30.2838   15.7458   22.0724 C   0  0  0  0  0  0  0  0  0  0  0  0
   31.5547   16.5827   21.9648 C   0  0  0  0  0  0  0  0  0  0  0  0
   32.2240   16.4753   20.6226 N   0  0  0  0  0  0  0  0  0  0  0  0
   27.1005   14.3217   18.1457 O   0  0  0  0  0  0  0  0  0  0  0  0
  2  1  1  1  0  0  0
  2  3  1  0  0  0  0
  2  5  1  0  0  0  0
  3  4  1  0  0  0  0
  3 10  1  0  0  0  0
  5  6  1  0  0  0  0
  6  7  1  0  0  0  0
  7  8  1  0  0  0  0
  8  9  1  0  0  0  0
M  END
>  <CHROM.1>
153.04237377,-170.99458055,-176.03362590,-177.05713423,-60.42213441,28.64914990
15.70465086,20.18601481,2.65380830,-0.22759453,-1.62698262

>  <Name>
ligand

>  <RI>
0

>  <Rbt.Current_Directory>
/home/itssahil/PROJECTS/Mol_Feturizer/New_Systems/rnas/3DIL

>  <Rbt.Executable>
rbdock ($Id: //depot/dev/client3/rdock/2013.1/src/exe/rbdock.cxx#4 $)

>  <Rbt.Library>
libRbt.so (2013.1, Build901 2013/11/27)

>  <Rbt.Parameter_File>
/export/apps/rDock/src/rDock_2013.1_src/data/scripts/dock_solv.prm

>  <Rbt.Receptor>
prm/pocket_docking_6.prm

>  <SCORE>
-9.37134

>  <SCORE.INTER>
-8.5754

>  <SCORE.INTER.CONST>
1

>  <SCORE.INTER.POLAR>
0

>  <SCORE.INTER.ROT>
5

>  <SCORE.INTER.SOLV>
17.8107

>  <SCORE.INTER.VDW>
-18.5872

>  <SCORE.INTER.norm>
-0.85754

>  <SCORE.INTRA>
-0.795945

>  <SCORE.INTRA.DIHEDRAL>
-1.08692

>  <SCORE.INTRA.DIHEDRAL.0>
2.93688

>  <SCORE.INTRA.POLAR>
0

>  <SCORE.INTRA.POLAR.0>
0

>  <SCORE.INTRA.REPUL>
0

>  <SCORE.INTRA.REPUL.0>
0

>  <SCORE.INTRA.SOLV>
-0.576731

>  <SCORE.INTRA.SOLV.lig_0>
-32.2816

>  <SCORE.INTRA.VDW>
0.0358789

>  <SCORE.INTRA.VDW.0>
-0.749945

>  <SCORE.INTRA.norm>
-0.0795945

>  <SCORE.RESTR>
0

>  <SCORE.RESTR.CAVITY>
0

>  <SCORE.RESTR.norm>
0

>  <SCORE.SYSTEM>
0

>  <SCORE.SYSTEM.CONST>
0

>  <SCORE.SYSTEM.DIHEDRAL>
0

>  <SCORE.SYSTEM.SOLV>
0

>  <SCORE.SYSTEM.norm>
0

>  <SCORE.heavy>
10

>  <SCORE.norm>
-0.937134

>  <RMSD>
5.427

$$$$
ligand
 OpenBabel11021811473D
libRbt.so/2013.1/901 2013/11/27
 10  9  0  0  0  0  0  0  0  0999 V2000
   27.1686   14.0539   18.3742 N   0  0  0  0  0  0  0  0  0  0  0  0
   27.7071   14.9518   19.4393 C   0  0  2  0  0  0  0  0  0  0  0  0
   26.6872   15.1627   20.5579 C   0  0  0  0  0  0  0  0  0  0  0  0
   27.0421   15.2645   21.7309 O   0  0  0  0  0  0  0  0  0  0  0  0
   28.1814   16.2830   18.8445 C   0  0  0  0  0  0  0  0  0  0  0  0
   28.8385   17.1977   19.8777 C   0  0  0  0  0  0  0  0  0  0  0  0
   30.1553   16.6384   20.3986 C   0  0  0  0  0  0  0  0  0  0  0  0
   30.7979   17.5879   21.4050 C   0  0  0  0  0  0  0  0  0  0  0  0
   32.1165   17.0918   21.9305 N   0  0  0  0  0  0  0  0  0  0  0  0
   25.4771   15.2663   20.3367 O   0  0  0  0  0  0  0  0  0  0  0  0
  2  1  1  6  0  0  0
  2  3  1  0  0  0  0
  2  5  1  0  0  0  0
  3  4  1  0  0  0  0
  3 10  1  0  0  0  0
  5  6  1  0  0  0  0
  6  7  1  0  0  0  0
  7  8  1  0  0  0  0
  8  9  1  0  0  0  0
M  END
>  <CHROM.1>
144.09795749,-175.67785300,66.89163369,178.83256582,-178.90620039,28.38627475
15.94915548,20.31260524,-2.78095357,0.40411075,1.37836454

>  <Name>
ligand

>  <RI>
0

>  <Rbt.Current_Directory>
/home/itssahil/PROJECTS/Mol_Feturizer/New_Systems/rnas/3DIL

>  <Rbt.Executable>
rbdock ($Id: //depot/dev/client3/rdock/2013.1/src/exe/rbdock.cxx#4 $)

>  <Rbt.Library>
libRbt.so (2013.1, Build901 2013/11/27)

>  <Rbt.Parameter_File>
/export/apps/rDock/src/rDock_2013.1_src/data/scripts/dock_solv.prm

>  <Rbt.Receptor>
prm/blind_docking_100.prm

>  <SCORE>
-10.3871

>  <SCORE.INTER>
-9.16183

>  <SCORE.INTER.CONST>
1

>  <SCORE.INTER.POLAR>
0

>  <SCORE.INTER.ROT>
5

>  <SCORE.INTER.SOLV>
15.5945

>  <SCORE.INTER.VDW>
-18.2394

>  <SCORE.INTER.norm>
-0.916183

>  <SCORE.INTRA>
-1.22529

>  <SCORE.INTRA.DIHEDRAL>
-1.20799

>  <SCORE.INTRA.DIHEDRAL.0>
2.93688

>  <SCORE.INTRA.POLAR>
0

>  <SCORE.INTRA.POLAR.0>
0

>  <SCORE.INTRA.REPUL>
0

>  <SCORE.INTRA.REPUL.0>
0

>  <SCORE.INTRA.SOLV>
-1.28205

>  <SCORE.INTRA.SOLV.lig_0>
-32.2816

>  <SCORE.INTRA.VDW>
0.0197266

>  <SCORE.INTRA.VDW.0>
-0.749945

>  <SCORE.INTRA.norm>
-0.122529

>  <SCORE.RESTR>
0

>  <SCORE.RESTR.CAVITY>
0

>  <SCORE.RESTR.norm>
0

>  <SCORE.SYSTEM>
0

>  <SCORE.SYSTEM.CONST>
0

>  <SCORE.SYSTEM.DIHEDRAL>
0

>  <SCORE.SYSTEM.SOLV>
0

>  <SCORE.SYSTEM.norm>
0

>  <SCORE.heavy>
10

>  <SCORE.norm>
-1.03871

>  <RMSD>
5.430

$$$$
ligand
 OpenBabel11021811473D
libRbt.so/2013.1/901 2013/11/27
 10  9  0  0  0  0  0  0  0  0999 V2000
   28.0333   15.7490   18.6843 N   0  0  0  0  0  0  0  0  0  0  0  0
   28.0637   14.9377   19.9379 C   0  0  2  0  0  0  0  0  0  0  0  0
   26.8581   15.2413   20.8268 C   0  0  0  0  0  0  0  0  0  0  0  0
   25.7163   15.2452   20.3700 O   0  0  0  0  0  0  0  0  0  0  0  0
   29.3866   15.1374   20.6869 C   0  0  0  0  0  0  0  0  0  0  0  0
   29.6804   16.6046   20.9980 C   0  0  0  0  0  0  0  0  0  0  0  0
   31.0314   16.7989   21.6728 C   0  0  0  0  0  0  0  0  0  0  0  0
   31.3287   18.2784   21.8957 C   0  0  0  0  0  0  0  0  0  0  0  0
   32.6908   18.5282   22.4817 N   0  0  0  0  0  0  0  0  0  0  0  0
   26.9695   15.4676   22.0353 O   0  0  0  0  0  0  0  0  0  0  0  0
  2  1  1  6  0  0  0
  2  3  1  0  0  0  0
  2  5  1  0  0  0  0
  3  4  1  0  0  0  0
  3 10  1  0  0  0  0
  5  6  1  0  0  0  0
  6  7  1  0  0  0  0
  7  8  1  0  0  0  0
  8  9  1  0  0  0  0
M  END
>  <CHROM.1>
49.22087433,55.59134464,-176.82973029,176.71164624,-176.38381414,28.93863288
16.19769512,20.97504387,-2.72268110,0.39077737,1.24805669

>  <Name>
ligand

>  <RI>
0

>  <Rbt.Current_Directory>
/home/itssahil/PROJECTS/Mol_Feturizer/New_Systems/rnas/3DIL

>  <Rbt.Executable>
rbdock ($Id: //depot/dev/client3/rdock/2013.1/src/exe/rbdock.cxx#4 $)

>  <Rbt.Library>
libRbt.so (2013.1, Build901 2013/11/27)

>  <Rbt.Parameter_File>
/export/apps/rDock/src/rDock_2013.1_src/data/scripts/dock_solv.prm

>  <Rbt.Receptor>
prm/pocket_docking_8.prm

>  <SCORE>
-9.07254

>  <SCORE.INTER>
-8.83024

>  <SCORE.INTER.CONST>
1

>  <SCORE.INTER.POLAR>
0

>  <SCORE.INTER.ROT>
5

>  <SCORE.INTER.SOLV>
13.6769

>  <SCORE.INTER.VDW>
-17.3791

>  <SCORE.INTER.norm>
-0.883024

>  <SCORE.INTRA>
-0.242297

>  <SCORE.INTRA.DIHEDRAL>
-1.23733

>  <SCORE.INTRA.DIHEDRAL.0>
2.93688

>  <SCORE.INTRA.POLAR>
0

>  <SCORE.INTRA.POLAR.0>
0

>  <SCORE.INTRA.REPUL>
0

>  <SCORE.INTRA.REPUL.0>
0

>  <SCORE.INTRA.SOLV>
-0.531905

>  <SCORE.INTRA.SOLV.lig_0>
-32.2816

>  <SCORE.INTRA.VDW>
0.642323

>  <SCORE.INTRA.VDW.0>
-0.749945

>  <SCORE.INTRA.norm>
-0.0242297

>  <SCORE.RESTR>
0

>  <SCORE.RESTR.CAVITY>
0

>  <SCORE.RESTR.norm>
0

>  <SCORE.SYSTEM>
0

>  <SCORE.SYSTEM.CONST>
0

>  <SCORE.SYSTEM.DIHEDRAL>
0

>  <SCORE.SYSTEM.SOLV>
0

>  <SCORE.SYSTEM.norm>
0

>  <SCORE.heavy>
10

>  <SCORE.norm>
-0.907254

>  <RMSD>
5.430

$$$$
ligand
 OpenBabel11021811473D
libRbt.so/2013.1/901 2013/11/27
 10  9  0  0  0  0  0  0  0  0999 V2000
   26.7128   16.2126   19.6523 N   0  0  0  0  0  0  0  0  0  0  0  0
   28.0081   15.5102   19.4080 C   0  0  2  0  0  0  0  0  0  0  0  0
   27.9338   14.6210   18.1672 C   0  0  0  0  0  0  0  0  0  0  0  0
   28.9218   14.4338   17.4592 O   0  0  0  0  0  0  0  0  0  0  0  0
   28.4444   14.7204   20.6477 C   0  0  0  0  0  0  0  0  0  0  0  0
   29.1456   15.5886   21.6919 C   0  0  0  0  0  0  0  0  0  0  0  0
   30.4573   16.1698   21.1820 C   0  0  0  0  0  0  0  0  0  0  0  0
   31.0637   17.1351   22.1958 C   0  0  0  0  0  0  0  0  0  0  0  0
   32.3416   17.7692   21.7205 N   0  0  0  0  0  0  0  0  0  0  0  0
   26.8990   14.0349   17.8362 O   0  0  0  0  0  0  0  0  0  0  0  0
  2  1  1  1  0  0  0
  2  3  1  0  0  0  0
  2  5  1  0  0  0  0
  3  4  1  0  0  0  0
  3 10  1  0  0  0  0
  5  6  1  0  0  0  0
  6  7  1  0  0  0  0
  7  8  1  0  0  0  0
  8  9  1  0  0  0  0
M  END
>  <CHROM.1>
147.74458141,-81.96019232,-64.07236010,174.56548900,-178.24606571,28.98456632
15.59549116,19.96054434,2.29261055,-0.21131614,-1.98337487

>  <Name>
ligand

>  <RI>
0

>  <Rbt.Current_Directory>
/home/itssahil/PROJECTS/Mol_Feturizer/New_Systems/rnas/3DIL

>  <Rbt.Executable>
rbdock ($Id: //depot/dev/client3/rdock/2013.1/src/exe/rbdock.cxx#4 $)

>  <Rbt.Library>
libRbt.so (2013.1, Build901 2013/11/27)

>  <Rbt.Parameter_File>
/export/apps/rDock/src/rDock_2013.1_src/data/scripts/dock_solv.prm

>  <Rbt.Receptor>
prm/pocket_docking_4.prm

>  <SCORE>
-7.26291

>  <SCORE.INTER>
-7.26261

>  <SCORE.INTER.CONST>
1

>  <SCORE.INTER.POLAR>
0

>  <SCORE.INTER.ROT>
5

>  <SCORE.INTER.SOLV>
15.0474

>  <SCORE.INTER.VDW>
-16.7909

>  <SCORE.INTER.norm>
-0.726261

>  <SCORE.INTRA>
-0.000301292

>  <SCORE.INTRA.DIHEDRAL>
0.462328

>  <SCORE.INTRA.DIHEDRAL.0>
2.93688

>  <SCORE.INTRA.POLAR>
0

>  <SCORE.INTRA.POLAR.0>
0

>  <SCORE.INTRA.REPUL>
0

>  <SCORE.INTRA.REPUL.0>
0

>  <SCORE.INTRA.SOLV>
-0.474819

>  <SCORE.INTRA.SOLV.lig_0>
-32.2816

>  <SCORE.INTRA.VDW>
0.00594415

>  <SCORE.INTRA.VDW.0>
-0.749945

>  <SCORE.INTRA.norm>
-3.01292e-05

>  <SCORE.RESTR>
0

>  <SCORE.RESTR.CAVITY>
0

>  <SCORE.RESTR.norm>
0

>  <SCORE.SYSTEM>
0

>  <SCORE.SYSTEM.CONST>
0

>  <SCORE.SYSTEM.DIHEDRAL>
0

>  <SCORE.SYSTEM.SOLV>
0

>  <SCORE.SYSTEM.norm>
0

>  <SCORE.heavy>
10

>  <SCORE.norm>
-0.726291

>  <RMSD>
5.433

$$$$
ligand
 OpenBabel11021811473D
libRbt.so/2013.1/901 2013/11/27
 10  9  0  0  0  0  0  0  0  0999 V2000
   27.1448   14.0524   18.3581 N   0  0  0  0  0  0  0  0  0  0  0  0
   27.7009   14.9380   19.4244 C   0  0  2  0  0  0  0  0  0  0  0  0
   26.7011   15.1328   20.5639 C   0  0  0  0  0  0  0  0  0  0  0  0
   27.0790   15.2485   21.7284 O   0  0  0  0  0  0  0  0  0  0  0  0
   28.1619   16.2775   18.8378 C   0  0  0  0  0  0  0  0  0  0  0  0
   28.8174   17.1889   19.8748 C   0  0  0  0  0  0  0  0  0  0  0  0
   30.1563   16.6511   20.3613 C   0  0  0  0  0  0  0  0  0  0  0  0
   30.8008   17.6023   21.3647 C   0  0  0  0  0  0  0  0  0  0  0  0
   32.1625   17.1533   21.8176 N   0  0  0  0  0  0  0  0  0  0  0  0
   25.4845   15.2090   20.3686 O   0  0  0  0  0  0  0  0  0  0  0  0
  2  1  1  6  0  0  0
  2  3  1  0  0  0  0
  2  5  1  0  0  0  0
  3  4  1  0  0  0  0
  3 10  1  0  0  0  0
  5  6  1  0  0  0  0
  6  7  1  0  0  0  0
  7  8  1  0  0  0  0
  8  9  1  0  0  0  0
M  END
>  <CHROM.1>
145.62786968,-176.52426153,68.17902619,178.41843775,-176.76838771,28.39047229
15.94425818,20.29360828,-2.79503001,0.41635710,1.37903091

>  <Name>
ligand

>  <RI>
0

>  <Rbt.Current_Directory>
/home/itssahil/PROJECTS/Mol_Feturizer/New_Systems/rnas/3DIL

>  <Rbt.Executable>
rbdock ($Id: //depot/dev/client3/rdock/2013.1/src/exe/rbdock.cxx#4 $)

>  <Rbt.Library>
libRbt.so (2013.1, Build901 2013/11/27)

>  <Rbt.Parameter_File>
/export/apps/rDock/src/rDock_2013.1_src/data/scripts/dock_solv.prm

>  <Rbt.Receptor>
prm/pocket_docking_4.prm

>  <SCORE>
-10.3588

>  <SCORE.INTER>
-9.1797

>  <SCORE.INTER.CONST>
1

>  <SCORE.INTER.POLAR>
0

>  <SCORE.INTER.ROT>
5

>  <SCORE.INTER.SOLV>
15.5481

>  <SCORE.INTER.VDW>
-18.2358

>  <SCORE.INTER.norm>
-0.91797

>  <SCORE.INTRA>
-1.1791

>  <SCORE.INTRA.DIHEDRAL>
-1.11435

>  <SCORE.INTRA.DIHEDRAL.0>
2.93688

>  <SCORE.INTRA.POLAR>
0

>  <SCORE.INTRA.POLAR.0>
0

>  <SCORE.INTRA.REPUL>
0

>  <SCORE.INTRA.REPUL.0>
0

>  <SCORE.INTRA.SOLV>
-1.2934

>  <SCORE.INTRA.SOLV.lig_0>
-32.2816

>  <SCORE.INTRA.VDW>
0.0247801

>  <SCORE.INTRA.VDW.0>
-0.749945

>  <SCORE.INTRA.norm>
-0.11791

>  <SCORE.RESTR>
0

>  <SCORE.RESTR.CAVITY>
0

>  <SCORE.RESTR.norm>
0

>  <SCORE.SYSTEM>
0

>  <SCORE.SYSTEM.CONST>
0

>  <SCORE.SYSTEM.DIHEDRAL>
0

>  <SCORE.SYSTEM.SOLV>
0

>  <SCORE.SYSTEM.norm>
0

>  <SCORE.heavy>
10

>  <SCORE.norm>
-1.03588

>  <RMSD>
5.434

$$$$
ligand
 OpenBabel11021811473D
libRbt.so/2013.1/901 2013/11/27
 10  9  0  0  0  0  0  0  0  0999 V2000
   28.0029   14.9507   18.3845 N   0  0  0  0  0  0  0  0  0  0  0  0
   27.9283   14.6798   19.8513 C   0  0  2  0  0  0  0  0  0  0  0  0
   26.6109   15.1793   20.4434 C   0  0  0  0  0  0  0  0  0  0  0  0
   25.7544   15.7055   19.7349 O   0  0  0  0  0  0  0  0  0  0  0  0
   29.1399   15.2735   20.5796 C   0  0  0  0  0  0  0  0  0  0  0  0
   29.2739   16.7831   20.3822 C   0  0  0  0  0  0  0  0  0  0  0  0
   30.5119   17.3529   21.0611 C   0  0  0  0  0  0  0  0  0  0  0  0
   31.7876   16.8563   20.3880 C   0  0  0  0  0  0  0  0  0  0  0  0
   33.0407   17.3967   21.0196 N   0  0  0  0  0  0  0  0  0  0  0  0
   26.3365   15.0556   21.6407 O   0  0  0  0  0  0  0  0  0  0  0  0
  2  1  1  6  0  0  0
  2  3  1  0  0  0  0
  2  5  1  0  0  0  0
  3  4  1  0  0  0  0
  3 10  1  0  0  0  0
  5  6  1  0  0  0  0
  6  7  1  0  0  0  0
  7  8  1  0  0  0  0
  8  9  1  0  0  0  0
M  END
>  <CHROM.1>
1.29466836,58.47181111,-177.60780417,67.48345968,179.75306966,28.79846198
15.92759937,20.36040079,-2.92213779,0.29394865,1.20349057

>  <Name>
ligand

>  <RI>
0

>  <Rbt.Current_Directory>
/home/itssahil/PROJECTS/Mol_Feturizer/New_Systems/rnas/3DIL

>  <Rbt.Executable>
rbdock ($Id: //depot/dev/client3/rdock/2013.1/src/exe/rbdock.cxx#4 $)

>  <Rbt.Library>
libRbt.so (2013.1, Build901 2013/11/27)

>  <Rbt.Parameter_File>
/export/apps/rDock/src/rDock_2013.1_src/data/scripts/dock_solv.prm

>  <Rbt.Receptor>
prm/pocket_docking_6.prm

>  <SCORE>
-8.69488

>  <SCORE.INTER>
-8.68795

>  <SCORE.INTER.CONST>
1

>  <SCORE.INTER.POLAR>
0

>  <SCORE.INTER.ROT>
5

>  <SCORE.INTER.SOLV>
13.5436

>  <SCORE.INTER.VDW>
-17.2398

>  <SCORE.INTER.norm>
-0.868795

>  <SCORE.INTRA>
-0.00692782

>  <SCORE.INTRA.DIHEDRAL>
-1.15837

>  <SCORE.INTRA.DIHEDRAL.0>
2.93688

>  <SCORE.INTRA.POLAR>
0

>  <SCORE.INTRA.POLAR.0>
0

>  <SCORE.INTRA.REPUL>
0

>  <SCORE.INTRA.REPUL.0>
0

>  <SCORE.INTRA.SOLV>
-0.334229

>  <SCORE.INTRA.SOLV.lig_0>
-32.2816

>  <SCORE.INTRA.VDW>
0.73937

>  <SCORE.INTRA.VDW.0>
-0.749945

>  <SCORE.INTRA.norm>
-0.000692782

>  <SCORE.RESTR>
0

>  <SCORE.RESTR.CAVITY>
0

>  <SCORE.RESTR.norm>
0

>  <SCORE.SYSTEM>
0

>  <SCORE.SYSTEM.CONST>
0

>  <SCORE.SYSTEM.DIHEDRAL>
0

>  <SCORE.SYSTEM.SOLV>
0

>  <SCORE.SYSTEM.norm>
0

>  <SCORE.heavy>
10

>  <SCORE.norm>
-0.869488

>  <RMSD>
5.435

$$$$
ligand
 OpenBabel11021811473D
libRbt.so/2013.1/901 2013/11/27
 10  9  0  0  0  0  0  0  0  0999 V2000
   25.5953   15.1594   20.3734 N   0  0  0  0  0  0  0  0  0  0  0  0
   26.9286   15.7667   20.0833 C   0  0  2  0  0  0  0  0  0  0  0  0
   27.4254   15.3798   18.6906 C   0  0  0  0  0  0  0  0  0  0  0  0
   27.0721   14.3288   18.1589 O   0  0  0  0  0  0  0  0  0  0  0  0
   27.9450   15.4005   21.1712 C   0  0  0  0  0  0  0  0  0  0  0  0
   29.2505   16.1869   21.0570 C   0  0  0  0  0  0  0  0  0  0  0  0
   30.2975   15.7292   22.0633 C   0  0  0  0  0  0  0  0  0  0  0  0
   31.5568   16.5859   21.9770 C   0  0  0  0  0  0  0  0  0  0  0  0
   32.2443   16.4973   20.6427 N   0  0  0  0  0  0  0  0  0  0  0  0
   28.1739   16.1073   18.0313 O   0  0  0  0  0  0  0  0  0  0  0  0
  2  1  1  1  0  0  0
  2  3  1  0  0  0  0
  2  5  1  0  0  0  0
  3  4  1  0  0  0  0
  3 10  1  0  0  0  0
  5  6  1  0  0  0  0
  6  7  1  0  0  0  0
  7  8  1  0  0  0  0
  8  9  1  0  0  0  0
M  END
>  <CHROM.1>
-27.30925259,-170.00195619,-174.89646735,-176.72819199,-62.39814289,28.64994324
15.70468864,20.18817191,2.65433757,-0.23291842,-1.61696390

>  <Name>
ligand

>  <RI>
0

>  <Rbt.Current_Directory>
/home/itssahil/PROJECTS/Mol_Feturizer/New_Systems/rnas/3DIL

>  <Rbt.Executable>
rbdock ($Id: //depot/dev/client3/rdock/2013.1/src/exe/rbdock.cxx#4 $)

>  <Rbt.Library>
libRbt.so (2013.1, Build901 2013/11/27)

>  <Rbt.Parameter_File>
/export/apps/rDock/src/rDock_2013.1_src/data/scripts/dock_solv.prm

>  <Rbt.Receptor>
prm/blind_docking_100.prm

>  <SCORE>
-9.32073

>  <SCORE.INTER>
-8.60014

>  <SCORE.INTER.CONST>
1

>  <SCORE.INTER.POLAR>
0

>  <SCORE.INTER.ROT>
5

>  <SCORE.INTER.SOLV>
17.7991

>  <SCORE.INTER.VDW>
-18.5998

>  <SCORE.INTER.norm>
-0.860014

>  <SCORE.INTRA>
-0.720593

>  <SCORE.INTRA.DIHEDRAL>
-0.836969

>  <SCORE.INTRA.DIHEDRAL.0>
2.93688

>  <SCORE.INTRA.POLAR>
0

>  <SCORE.INTRA.POLAR.0>
0

>  <SCORE.INTRA.REPUL>
0

>  <SCORE.INTRA.REPUL.0>
0

>  <SCORE.INTRA.SOLV>
-0.591734

>  <SCORE.INTRA.SOLV.lig_0>
-32.2816

>  <SCORE.INTRA.VDW>
-0.00624082

>  <SCORE.INTRA.VDW.0>
-0.749945

>  <SCORE.INTRA.norm>
-0.0720593

>  <SCORE.RESTR>
0

>  <SCORE.RESTR.CAVITY>
0

>  <SCORE.RESTR.norm>
0

>  <SCORE.SYSTEM>
0

>  <SCORE.SYSTEM.CONST>
0

>  <SCORE.SYSTEM.DIHEDRAL>
0

>  <SCORE.SYSTEM.SOLV>
0

>  <SCORE.SYSTEM.norm>
0

>  <SCORE.heavy>
10

>  <SCORE.norm>
-0.932073

>  <RMSD>
5.436

$$$$
ligand
 OpenBabel11021811473D
libRbt.so/2013.1/901 2013/11/27
 10  9  0  0  0  0  0  0  0  0999 V2000
   28.0305   14.8863   18.3714 N   0  0  0  0  0  0  0  0  0  0  0  0
   27.9322   14.6493   19.8427 C   0  0  2  0  0  0  0  0  0  0  0  0
   26.6040   15.1591   20.4013 C   0  0  0  0  0  0  0  0  0  0  0  0
   26.2921   14.9663   21.5751 O   0  0  0  0  0  0  0  0  0  0  0  0
   29.1303   15.2628   20.5770 C   0  0  0  0  0  0  0  0  0  0  0  0
   29.2604   16.7689   20.3522 C   0  0  0  0  0  0  0  0  0  0  0  0
   30.4903   17.3562   21.0308 C   0  0  0  0  0  0  0  0  0  0  0  0
   31.7737   16.8525   20.3777 C   0  0  0  0  0  0  0  0  0  0  0  0
   33.0194   17.4025   21.0155 N   0  0  0  0  0  0  0  0  0  0  0  0
   25.8041   15.8035   19.7166 O   0  0  0  0  0  0  0  0  0  0  0  0
  2  1  1  6  0  0  0
  2  3  1  0  0  0  0
  2  5  1  0  0  0  0
  3  4  1  0  0  0  0
  3 10  1  0  0  0  0
  5  6  1  0  0  0  0
  6  7  1  0  0  0  0
  7  8  1  0  0  0  0
  8  9  1  0  0  0  0
M  END
>  <CHROM.1>
174.52981370,58.75156004,-177.25869053,67.51531269,-179.86519491,28.79361259
15.91569603,20.33749788,-2.91116713,0.29141974,1.17474643

>  <Name>
ligand

>  <RI>
0

>  <Rbt.Current_Directory>
/home/itssahil/PROJECTS/Mol_Feturizer/New_Systems/rnas/3DIL

>  <Rbt.Executable>
rbdock ($Id: //depot/dev/client3/rdock/2013.1/src/exe/rbdock.cxx#4 $)

>  <Rbt.Library>
libRbt.so (2013.1, Build901 2013/11/27)

>  <Rbt.Parameter_File>
/export/apps/rDock/src/rDock_2013.1_src/data/scripts/dock_solv.prm

>  <Rbt.Receptor>
prm/pocket_docking_3.prm

>  <SCORE>
-8.74558

>  <SCORE.INTER>
-8.6611

>  <SCORE.INTER.CONST>
1

>  <SCORE.INTER.POLAR>
0

>  <SCORE.INTER.ROT>
5

>  <SCORE.INTER.SOLV>
13.5857

>  <SCORE.INTER.VDW>
-17.236

>  <SCORE.INTER.norm>
-0.86611

>  <SCORE.INTRA>
-0.0844819

>  <SCORE.INTRA.DIHEDRAL>
-1.17289

>  <SCORE.INTRA.DIHEDRAL.0>
2.93688

>  <SCORE.INTRA.POLAR>
0

>  <SCORE.INTRA.POLAR.0>
0

>  <SCORE.INTRA.REPUL>
0

>  <SCORE.INTRA.REPUL.0>
0

>  <SCORE.INTRA.SOLV>
-0.33685

>  <SCORE.INTRA.SOLV.lig_0>
-32.2816

>  <SCORE.INTRA.VDW>
0.670386

>  <SCORE.INTRA.VDW.0>
-0.749945

>  <SCORE.INTRA.norm>
-0.00844819

>  <SCORE.RESTR>
0

>  <SCORE.RESTR.CAVITY>
0

>  <SCORE.RESTR.norm>
0

>  <SCORE.SYSTEM>
0

>  <SCORE.SYSTEM.CONST>
0

>  <SCORE.SYSTEM.DIHEDRAL>
0

>  <SCORE.SYSTEM.SOLV>
0

>  <SCORE.SYSTEM.norm>
0

>  <SCORE.heavy>
10

>  <SCORE.norm>
-0.874558

>  <RMSD>
5.436

$$$$
ligand
 OpenBabel11021811473D
libRbt.so/2013.1/901 2013/11/27
 10  9  0  0  0  0  0  0  0  0999 V2000
   27.1397   14.0438   18.3663 N   0  0  0  0  0  0  0  0  0  0  0  0
   27.6936   14.9361   19.4281 C   0  0  2  0  0  0  0  0  0  0  0  0
   26.6888   15.1434   20.5610 C   0  0  0  0  0  0  0  0  0  0  0  0
   27.0613   15.2659   21.7266 O   0  0  0  0  0  0  0  0  0  0  0  0
   28.1619   16.2693   18.8330 C   0  0  0  0  0  0  0  0  0  0  0  0
   28.8031   17.1925   19.8686 C   0  0  0  0  0  0  0  0  0  0  0  0
   30.1339   16.6592   20.3812 C   0  0  0  0  0  0  0  0  0  0  0  0
   30.7557   17.6129   21.3966 C   0  0  0  0  0  0  0  0  0  0  0  0
   32.1157   17.1755   21.8660 N   0  0  0  0  0  0  0  0  0  0  0  0
   25.4736   15.2236   20.3589 O   0  0  0  0  0  0  0  0  0  0  0  0
  2  1  1  6  0  0  0
  2  3  1  0  0  0  0
  2  5  1  0  0  0  0
  3  4  1  0  0  0  0
  3 10  1  0  0  0  0
  5  6  1  0  0  0  0
  6  7  1  0  0  0  0
  7  8  1  0  0  0  0
  8  9  1  0  0  0  0
M  END
>  <CHROM.1>
145.55120239,-177.08635690,68.04970422,179.17667060,-176.19860188,28.37224775
15.95134745,20.30207931,-2.78128942,0.41623111,1.36997811

>  <Name>
ligand

>  <RI>
0

>  <Rbt.Current_Directory>
/home/itssahil/PROJECTS/Mol_Feturizer/New_Systems/rnas/3DIL

>  <Rbt.Executable>
rbdock ($Id: //depot/dev/client3/rdock/2013.1/src/exe/rbdock.cxx#4 $)

>  <Rbt.Library>
libRbt.so (2013.1, Build901 2013/11/27)

>  <Rbt.Parameter_File>
/export/apps/rDock/src/rDock_2013.1_src/data/scripts/dock_solv.prm

>  <Rbt.Receptor>
prm/pocket_docking_8.prm

>  <SCORE>
-10.396

>  <SCORE.INTER>
-9.21882

>  <SCORE.INTER.CONST>
1

>  <SCORE.INTER.POLAR>
0

>  <SCORE.INTER.ROT>
5

>  <SCORE.INTER.SOLV>
15.4977

>  <SCORE.INTER.VDW>
-18.2451

>  <SCORE.INTER.norm>
-0.921882

>  <SCORE.INTRA>
-1.17722

>  <SCORE.INTRA.DIHEDRAL>
-1.12814

>  <SCORE.INTRA.DIHEDRAL.0>
2.93688

>  <SCORE.INTRA.POLAR>
0

>  <SCORE.INTRA.POLAR.0>
0

>  <SCORE.INTRA.REPUL>
0

>  <SCORE.INTRA.REPUL.0>
0

>  <SCORE.INTRA.SOLV>
-1.2959

>  <SCORE.INTRA.SOLV.lig_0>
-32.2816

>  <SCORE.INTRA.VDW>
0.0347971

>  <SCORE.INTRA.VDW.0>
-0.749945

>  <SCORE.INTRA.norm>
-0.117722

>  <SCORE.RESTR>
0

>  <SCORE.RESTR.CAVITY>
0

>  <SCORE.RESTR.norm>
0

>  <SCORE.SYSTEM>
0

>  <SCORE.SYSTEM.CONST>
0

>  <SCORE.SYSTEM.DIHEDRAL>
0

>  <SCORE.SYSTEM.SOLV>
0

>  <SCORE.SYSTEM.norm>
0

>  <SCORE.heavy>
10

>  <SCORE.norm>
-1.0396

>  <RMSD>
5.436

$$$$
ligand
 OpenBabel11021811473D
libRbt.so/2013.1/901 2013/11/27
 10  9  0  0  0  0  0  0  0  0999 V2000
   25.5777   15.1447   20.3786 N   0  0  0  0  0  0  0  0  0  0  0  0
   26.9112   15.7434   20.0719 C   0  0  2  0  0  0  0  0  0  0  0  0
   27.4138   15.3078   18.6959 C   0  0  0  0  0  0  0  0  0  0  0  0
   28.1262   16.0451   18.0166 O   0  0  0  0  0  0  0  0  0  0  0  0
   27.9241   15.4178   21.1760 C   0  0  0  0  0  0  0  0  0  0  0  0
   29.2298   16.2000   21.0373 C   0  0  0  0  0  0  0  0  0  0  0  0
   30.2752   15.7764   22.0600 C   0  0  0  0  0  0  0  0  0  0  0  0
   31.5553   16.5926   21.9103 C   0  0  0  0  0  0  0  0  0  0  0  0
   32.2300   16.3995   20.5805 N   0  0  0  0  0  0  0  0  0  0  0  0
   27.1540   14.1992   18.2189 O   0  0  0  0  0  0  0  0  0  0  0  0
  2  1  1  1  0  0  0
  2  3  1  0  0  0  0
  2  5  1  0  0  0  0
  3  4  1  0  0  0  0
  3 10  1  0  0  0  0
  5  6  1  0  0  0  0
  6  7  1  0  0  0  0
  7  8  1  0  0  0  0
  8  9  1  0  0  0  0
M  END
>  <CHROM.1>
148.89868892,-170.09838675,-174.68737270,-178.98074989,-62.71402959,28.64156600
15.67188721,20.17861191,2.65543745,-0.21921988,-1.66119815

>  <Name>
ligand

>  <RI>
0

>  <Rbt.Current_Directory>
/home/itssahil/PROJECTS/Mol_Feturizer/New_Systems/rnas/3DIL

>  <Rbt.Executable>
rbdock ($Id: //depot/dev/client3/rdock/2013.1/src/exe/rbdock.cxx#4 $)

>  <Rbt.Library>
libRbt.so (2013.1, Build901 2013/11/27)

>  <Rbt.Parameter_File>
/export/apps/rDock/src/rDock_2013.1_src/data/scripts/dock_solv.prm

>  <Rbt.Receptor>
prm/blind_docking_60.prm

>  <SCORE>
-9.39657

>  <SCORE.INTER>
-8.55229

>  <SCORE.INTER.CONST>
1

>  <SCORE.INTER.POLAR>
0

>  <SCORE.INTER.ROT>
5

>  <SCORE.INTER.SOLV>
18.064

>  <SCORE.INTER.VDW>
-18.6562

>  <SCORE.INTER.norm>
-0.855229

>  <SCORE.INTRA>
-0.844281

>  <SCORE.INTRA.DIHEDRAL>
-0.977353

>  <SCORE.INTRA.DIHEDRAL.0>
2.93688

>  <SCORE.INTRA.POLAR>
0

>  <SCORE.INTRA.POLAR.0>
0

>  <SCORE.INTRA.REPUL>
0

>  <SCORE.INTRA.REPUL.0>
0

>  <SCORE.INTRA.SOLV>
-0.600824

>  <SCORE.INTRA.SOLV.lig_0>
-32.2816

>  <SCORE.INTRA.VDW>
-0.055192

>  <SCORE.INTRA.VDW.0>
-0.749945

>  <SCORE.INTRA.norm>
-0.0844281

>  <SCORE.RESTR>
0

>  <SCORE.RESTR.CAVITY>
0

>  <SCORE.RESTR.norm>
0

>  <SCORE.SYSTEM>
0

>  <SCORE.SYSTEM.CONST>
0

>  <SCORE.SYSTEM.DIHEDRAL>
0

>  <SCORE.SYSTEM.SOLV>
0

>  <SCORE.SYSTEM.norm>
0

>  <SCORE.heavy>
10

>  <SCORE.norm>
-0.939657

>  <RMSD>
5.437

$$$$
ligand
 OpenBabel11021811473D
libRbt.so/2013.1/901 2013/11/27
 10  9  0  0  0  0  0  0  0  0999 V2000
   25.5887   15.1854   20.3199 N   0  0  0  0  0  0  0  0  0  0  0  0
   26.9342   15.7564   20.0129 C   0  0  2  0  0  0  0  0  0  0  0  0
   27.4370   15.2929   18.6460 C   0  0  0  0  0  0  0  0  0  0  0  0
   28.1383   16.0214   17.9461 O   0  0  0  0  0  0  0  0  0  0  0  0
   27.9349   15.4286   21.1274 C   0  0  0  0  0  0  0  0  0  0  0  0
   29.2719   16.1498   20.9597 C   0  0  0  0  0  0  0  0  0  0  0  0
   30.2825   15.7619   22.0305 C   0  0  0  0  0  0  0  0  0  0  0  0
   31.5656   16.5764   21.8985 C   0  0  0  0  0  0  0  0  0  0  0  0
   32.2682   16.3680   20.5856 N   0  0  0  0  0  0  0  0  0  0  0  0
   27.1884   14.1700   18.1974 O   0  0  0  0  0  0  0  0  0  0  0  0
  2  1  1  1  0  0  0
  2  3  1  0  0  0  0
  2  5  1  0  0  0  0
  3  4  1  0  0  0  0
  3 10  1  0  0  0  0
  5  6  1  0  0  0  0
  6  7  1  0  0  0  0
  7  8  1  0  0  0  0
  8  9  1  0  0  0  0
M  END
>  <CHROM.1>
147.03641630,-172.03475871,-177.01989744,-175.64857547,-61.31578678,28.66283618
15.65977297,20.13651512,2.64713497,-0.20773536,-1.67009891

>  <Name>
ligand

>  <RI>
0

>  <Rbt.Current_Directory>
/home/itssahil/PROJECTS/Mol_Feturizer/New_Systems/rnas/3DIL

>  <Rbt.Executable>
rbdock ($Id: //depot/dev/client3/rdock/2013.1/src/exe/rbdock.cxx#4 $)

>  <Rbt.Library>
libRbt.so (2013.1, Build901 2013/11/27)

>  <Rbt.Parameter_File>
/export/apps/rDock/src/rDock_2013.1_src/data/scripts/dock_solv.prm

>  <Rbt.Receptor>
prm/blind_docking_80.prm

>  <SCORE>
-9.45391

>  <SCORE.INTER>
-8.58949

>  <SCORE.INTER.CONST>
1

>  <SCORE.INTER.POLAR>
0

>  <SCORE.INTER.ROT>
5

>  <SCORE.INTER.SOLV>
18.0835

>  <SCORE.INTER.VDW>
-18.6875

>  <SCORE.INTER.norm>
-0.858949

>  <SCORE.INTRA>
-0.864425

>  <SCORE.INTRA.DIHEDRAL>
-1.13043

>  <SCORE.INTRA.DIHEDRAL.0>
2.93688

>  <SCORE.INTRA.POLAR>
0

>  <SCORE.INTRA.POLAR.0>
0

>  <SCORE.INTRA.REPUL>
0

>  <SCORE.INTRA.REPUL.0>
0

>  <SCORE.INTRA.SOLV>
-0.59994

>  <SCORE.INTRA.SOLV.lig_0>
-32.2816

>  <SCORE.INTRA.VDW>
0.000759494

>  <SCORE.INTRA.VDW.0>
-0.749945

>  <SCORE.INTRA.norm>
-0.0864425

>  <SCORE.RESTR>
0

>  <SCORE.RESTR.CAVITY>
0

>  <SCORE.RESTR.norm>
0

>  <SCORE.SYSTEM>
0

>  <SCORE.SYSTEM.CONST>
0

>  <SCORE.SYSTEM.DIHEDRAL>
0

>  <SCORE.SYSTEM.SOLV>
0

>  <SCORE.SYSTEM.norm>
0

>  <SCORE.heavy>
10

>  <SCORE.norm>
-0.945391

>  <RMSD>
5.437

$$$$
ligand
 OpenBabel11021811473D
libRbt.so/2013.1/901 2013/11/27
 10  9  0  0  0  0  0  0  0  0999 V2000
   25.6090   15.1839   20.3327 N   0  0  0  0  0  0  0  0  0  0  0  0
   26.9546   15.7507   20.0181 C   0  0  2  0  0  0  0  0  0  0  0  0
   27.4401   15.3006   18.6406 C   0  0  0  0  0  0  0  0  0  0  0  0
   28.1347   16.0349   17.9401 O   0  0  0  0  0  0  0  0  0  0  0  0
   27.9650   15.4041   21.1180 C   0  0  0  0  0  0  0  0  0  0  0  0
   29.2918   16.1471   20.9649 C   0  0  0  0  0  0  0  0  0  0  0  0
   30.3120   15.7433   22.0206 C   0  0  0  0  0  0  0  0  0  0  0  0
   31.5770   16.5895   21.9170 C   0  0  0  0  0  0  0  0  0  0  0  0
   32.2525   16.4854   20.5776 N   0  0  0  0  0  0  0  0  0  0  0  0
   27.1838   14.1829   18.1833 O   0  0  0  0  0  0  0  0  0  0  0  0
  2  1  1  1  0  0  0
  2  3  1  0  0  0  0
  2  5  1  0  0  0  0
  3  4  1  0  0  0  0
  3 10  1  0  0  0  0
  5  6  1  0  0  0  0
  6  7  1  0  0  0  0
  7  8  1  0  0  0  0
  8  9  1  0  0  0  0
M  END
>  <CHROM.1>
146.80328015,-170.55070756,-177.10587488,-174.94376571,-59.03383480,28.67353252
15.67113338,20.13519074,2.64829536,-0.22619417,-1.65044425

>  <Name>
ligand

>  <RI>
0

>  <Rbt.Current_Directory>
/home/itssahil/PROJECTS/Mol_Feturizer/New_Systems/rnas/3DIL

>  <Rbt.Executable>
rbdock ($Id: //depot/dev/client3/rdock/2013.1/src/exe/rbdock.cxx#4 $)

>  <Rbt.Library>
libRbt.so (2013.1, Build901 2013/11/27)

>  <Rbt.Parameter_File>
/export/apps/rDock/src/rDock_2013.1_src/data/scripts/dock_solv.prm

>  <Rbt.Receptor>
prm/pocket_docking_5.prm

>  <SCORE>
-9.45821

>  <SCORE.INTER>
-8.66547

>  <SCORE.INTER.CONST>
1

>  <SCORE.INTER.POLAR>
0

>  <SCORE.INTER.ROT>
5

>  <SCORE.INTER.SOLV>
17.8524

>  <SCORE.INTER.VDW>
-18.6611

>  <SCORE.INTER.norm>
-0.866547

>  <SCORE.INTRA>
-0.79274

>  <SCORE.INTRA.DIHEDRAL>
-1.01286

>  <SCORE.INTRA.DIHEDRAL.0>
2.93688

>  <SCORE.INTRA.POLAR>
0

>  <SCORE.INTRA.POLAR.0>
0

>  <SCORE.INTRA.REPUL>
0

>  <SCORE.INTRA.REPUL.0>
0

>  <SCORE.INTRA.SOLV>
-0.569138

>  <SCORE.INTRA.SOLV.lig_0>
-32.2816

>  <SCORE.INTRA.VDW>
-0.00174284

>  <SCORE.INTRA.VDW.0>
-0.749945

>  <SCORE.INTRA.norm>
-0.079274

>  <SCORE.RESTR>
0

>  <SCORE.RESTR.CAVITY>
0

>  <SCORE.RESTR.norm>
0

>  <SCORE.SYSTEM>
0

>  <SCORE.SYSTEM.CONST>
0

>  <SCORE.SYSTEM.DIHEDRAL>
0

>  <SCORE.SYSTEM.SOLV>
0

>  <SCORE.SYSTEM.norm>
0

>  <SCORE.heavy>
10

>  <SCORE.norm>
-0.945821

>  <RMSD>
5.438

$$$$
ligand
 OpenBabel11021811473D
libRbt.so/2013.1/901 2013/11/27
 10  9  0  0  0  0  0  0  0  0999 V2000
   25.5880   15.2005   20.3297 N   0  0  0  0  0  0  0  0  0  0  0  0
   26.9328   15.7712   20.0187 C   0  0  2  0  0  0  0  0  0  0  0  0
   27.4313   15.3078   18.6503 C   0  0  0  0  0  0  0  0  0  0  0  0
   28.1346   16.0344   17.9504 O   0  0  0  0  0  0  0  0  0  0  0  0
   27.9367   15.4430   21.1302 C   0  0  0  0  0  0  0  0  0  0  0  0
   29.2776   16.1544   20.9519 C   0  0  0  0  0  0  0  0  0  0  0  0
   30.2972   15.7510   22.0083 C   0  0  0  0  0  0  0  0  0  0  0  0
   31.5658   16.5913   21.8994 C   0  0  0  0  0  0  0  0  0  0  0  0
   32.2574   16.4522   20.5715 N   0  0  0  0  0  0  0  0  0  0  0  0
   27.1771   14.1867   18.2003 O   0  0  0  0  0  0  0  0  0  0  0  0
  2  1  1  1  0  0  0
  2  3  1  0  0  0  0
  2  5  1  0  0  0  0
  3  4  1  0  0  0  0
  3 10  1  0  0  0  0
  5  6  1  0  0  0  0
  6  7  1  0  0  0  0
  7  8  1  0  0  0  0
  8  9  1  0  0  0  0
M  END
>  <CHROM.1>
147.29965305,-172.53705012,-176.20881626,-173.56132124,-60.42819845,28.66159691
15.67789514,20.13521465,2.65266710,-0.21627198,-1.66151841

>  <Name>
ligand

>  <RI>
0

>  <Rbt.Current_Directory>
/home/itssahil/PROJECTS/Mol_Feturizer/New_Systems/rnas/3DIL

>  <Rbt.Executable>
rbdock ($Id: //depot/dev/client3/rdock/2013.1/src/exe/rbdock.cxx#4 $)

>  <Rbt.Library>
libRbt.so (2013.1, Build901 2013/11/27)

>  <Rbt.Parameter_File>
/export/apps/rDock/src/rDock_2013.1_src/data/scripts/dock_solv.prm

>  <Rbt.Receptor>
prm/pocket_docking_5.prm

>  <SCORE>
-9.4138

>  <SCORE.INTER>
-8.61169

>  <SCORE.INTER.CONST>
1

>  <SCORE.INTER.POLAR>
0

>  <SCORE.INTER.ROT>
5

>  <SCORE.INTER.SOLV>
17.9427

>  <SCORE.INTER.VDW>
-18.6553

>  <SCORE.INTER.norm>
-0.861169

>  <SCORE.INTRA>
-0.802117

>  <SCORE.INTRA.DIHEDRAL>
-1.04894

>  <SCORE.INTRA.DIHEDRAL.0>
2.93688

>  <SCORE.INTRA.POLAR>
0

>  <SCORE.INTRA.POLAR.0>
0

>  <SCORE.INTRA.REPUL>
0

>  <SCORE.INTRA.REPUL.0>
0

>  <SCORE.INTRA.SOLV>
-0.596377

>  <SCORE.INTRA.SOLV.lig_0>
-32.2816

>  <SCORE.INTRA.VDW>
0.0205391

>  <SCORE.INTRA.VDW.0>
-0.749945

>  <SCORE.INTRA.norm>
-0.0802117

>  <SCORE.RESTR>
0

>  <SCORE.RESTR.CAVITY>
0

>  <SCORE.RESTR.norm>
0

>  <SCORE.SYSTEM>
0

>  <SCORE.SYSTEM.CONST>
0

>  <SCORE.SYSTEM.DIHEDRAL>
0

>  <SCORE.SYSTEM.SOLV>
0

>  <SCORE.SYSTEM.norm>
0

>  <SCORE.heavy>
10

>  <SCORE.norm>
-0.94138

>  <RMSD>
5.438

$$$$
ligand
 OpenBabel11021811473D
libRbt.so/2013.1/901 2013/11/27
 10  9  0  0  0  0  0  0  0  0999 V2000
   27.1364   14.0342   18.3764 N   0  0  0  0  0  0  0  0  0  0  0  0
   27.6911   14.9367   19.4292 C   0  0  2  0  0  0  0  0  0  0  0  0
   26.6816   15.1670   20.5534 C   0  0  0  0  0  0  0  0  0  0  0  0
   25.4747   15.2200   20.3230 O   0  0  0  0  0  0  0  0  0  0  0  0
   28.1731   16.2580   18.8188 C   0  0  0  0  0  0  0  0  0  0  0  0
   28.8227   17.1869   19.8440 C   0  0  0  0  0  0  0  0  0  0  0  0
   30.1269   16.6270   20.3951 C   0  0  0  0  0  0  0  0  0  0  0  0
   30.7655   17.5926   21.3885 C   0  0  0  0  0  0  0  0  0  0  0  0
   32.0971   17.1202   21.9029 N   0  0  0  0  0  0  0  0  0  0  0  0
   27.0234   15.2826   21.7340 O   0  0  0  0  0  0  0  0  0  0  0  0
  2  1  1  6  0  0  0
  2  3  1  0  0  0  0
  2  5  1  0  0  0  0
  3  4  1  0  0  0  0
  3 10  1  0  0  0  0
  5  6  1  0  0  0  0
  6  7  1  0  0  0  0
  7  8  1  0  0  0  0
  8  9  1  0  0  0  0
M  END
>  <CHROM.1>
-34.26908842,-176.75968500,66.33330559,178.61273961,-176.71385447,28.36838089
15.94155603,20.29968662,-2.77966524,0.41003925,1.37448084

>  <Name>
ligand

>  <RI>
0

>  <Rbt.Current_Directory>
/home/itssahil/PROJECTS/Mol_Feturizer/New_Systems/rnas/3DIL

>  <Rbt.Executable>
rbdock ($Id: //depot/dev/client3/rdock/2013.1/src/exe/rbdock.cxx#4 $)

>  <Rbt.Library>
libRbt.so (2013.1, Build901 2013/11/27)

>  <Rbt.Parameter_File>
/export/apps/rDock/src/rDock_2013.1_src/data/scripts/dock_solv.prm

>  <Rbt.Receptor>
prm/pocket_docking_6.prm

>  <SCORE>
-10.2874

>  <SCORE.INTER>
-9.15066

>  <SCORE.INTER.CONST>
1

>  <SCORE.INTER.POLAR>
0

>  <SCORE.INTER.ROT>
5

>  <SCORE.INTER.SOLV>
15.5559

>  <SCORE.INTER.VDW>
-18.2191

>  <SCORE.INTER.norm>
-0.915066

>  <SCORE.INTRA>
-1.13679

>  <SCORE.INTRA.DIHEDRAL>
-1.12708

>  <SCORE.INTRA.DIHEDRAL.0>
2.93688

>  <SCORE.INTRA.POLAR>
0

>  <SCORE.INTRA.POLAR.0>
0

>  <SCORE.INTRA.REPUL>
0

>  <SCORE.INTRA.REPUL.0>
0

>  <SCORE.INTRA.SOLV>
-1.27044

>  <SCORE.INTRA.SOLV.lig_0>
-32.2816

>  <SCORE.INTRA.VDW>
0.0619737

>  <SCORE.INTRA.VDW.0>
-0.749945

>  <SCORE.INTRA.norm>
-0.113679

>  <SCORE.RESTR>
0

>  <SCORE.RESTR.CAVITY>
0

>  <SCORE.RESTR.norm>
0

>  <SCORE.SYSTEM>
0

>  <SCORE.SYSTEM.CONST>
0

>  <SCORE.SYSTEM.DIHEDRAL>
0

>  <SCORE.SYSTEM.SOLV>
0

>  <SCORE.SYSTEM.norm>
0

>  <SCORE.heavy>
10

>  <SCORE.norm>
-1.02874

>  <RMSD>
5.438

$$$$
ligand
 OpenBabel11021811473D
libRbt.so/2013.1/901 2013/11/27
 10  9  0  0  0  0  0  0  0  0999 V2000
   27.1558   14.0263   18.4133 N   0  0  0  0  0  0  0  0  0  0  0  0
   27.6891   14.9394   19.4681 C   0  0  2  0  0  0  0  0  0  0  0  0
   26.6679   15.1573   20.5841 C   0  0  0  0  0  0  0  0  0  0  0  0
   27.0234   15.2924   21.7536 O   0  0  0  0  0  0  0  0  0  0  0  0
   28.1559   16.2663   18.8581 C   0  0  0  0  0  0  0  0  0  0  0  0
   28.8105   17.1952   19.8801 C   0  0  0  0  0  0  0  0  0  0  0  0
   30.1313   16.6483   20.4040 C   0  0  0  0  0  0  0  0  0  0  0  0
   30.7583   17.5995   21.4186 C   0  0  0  0  0  0  0  0  0  0  0  0
   32.0947   17.1310   21.9240 N   0  0  0  0  0  0  0  0  0  0  0  0
   25.4556   15.2337   20.3637 O   0  0  0  0  0  0  0  0  0  0  0  0
  2  1  1  6  0  0  0
  2  3  1  0  0  0  0
  2  5  1  0  0  0  0
  3  4  1  0  0  0  0
  3 10  1  0  0  0  0
  5  6  1  0  0  0  0
  6  7  1  0  0  0  0
  7  8  1  0  0  0  0
  8  9  1  0  0  0  0
M  END
>  <CHROM.1>
145.08232513,-175.55023195,66.92403050,179.89960225,-177.59931093,28.36337216
15.94838385,20.32983867,-2.77855395,0.40732376,1.36261899

>  <Name>
ligand

>  <RI>
0

>  <Rbt.Current_Directory>
/home/itssahil/PROJECTS/Mol_Feturizer/New_Systems/rnas/3DIL

>  <Rbt.Executable>
rbdock ($Id: //depot/dev/client3/rdock/2013.1/src/exe/rbdock.cxx#4 $)

>  <Rbt.Library>
libRbt.so (2013.1, Build901 2013/11/27)

>  <Rbt.Parameter_File>
/export/apps/rDock/src/rDock_2013.1_src/data/scripts/dock_solv.prm

>  <Rbt.Receptor>
prm/pocket_docking_7.prm

>  <SCORE>
-10.3886

>  <SCORE.INTER>
-9.17366

>  <SCORE.INTER.CONST>
1

>  <SCORE.INTER.POLAR>
0

>  <SCORE.INTER.ROT>
5

>  <SCORE.INTER.SOLV>
15.5454

>  <SCORE.INTER.VDW>
-18.2309

>  <SCORE.INTER.norm>
-0.917366

>  <SCORE.INTRA>
-1.21537

>  <SCORE.INTRA.DIHEDRAL>
-1.1915

>  <SCORE.INTRA.DIHEDRAL.0>
2.93688

>  <SCORE.INTRA.POLAR>
0

>  <SCORE.INTRA.POLAR.0>
0

>  <SCORE.INTRA.REPUL>
0

>  <SCORE.INTRA.REPUL.0>
0

>  <SCORE.INTRA.SOLV>
-1.28029

>  <SCORE.INTRA.SOLV.lig_0>
-32.2816

>  <SCORE.INTRA.VDW>
0.0205258

>  <SCORE.INTRA.VDW.0>
-0.749945

>  <SCORE.INTRA.norm>
-0.121537

>  <SCORE.RESTR>
0.000393263

>  <SCORE.RESTR.CAVITY>
0.000393263

>  <SCORE.RESTR.norm>
3.93263e-05

>  <SCORE.SYSTEM>
0

>  <SCORE.SYSTEM.CONST>
0

>  <SCORE.SYSTEM.DIHEDRAL>
0

>  <SCORE.SYSTEM.SOLV>
0

>  <SCORE.SYSTEM.norm>
0

>  <SCORE.heavy>
10

>  <SCORE.norm>
-1.03886

>  <RMSD>
5.438

$$$$
ligand
 OpenBabel11021811473D
libRbt.so/2013.1/901 2013/11/27
 10  9  0  0  0  0  0  0  0  0999 V2000
   29.0049   14.6728   21.5616 N   0  0  0  0  0  0  0  0  0  0  0  0
   28.2321   15.8471   21.0572 C   0  0  2  0  0  0  0  0  0  0  0  0
   26.7990   15.4570   20.6965 C   0  0  0  0  0  0  0  0  0  0  0  0
   26.2855   15.8277   19.6423 O   0  0  0  0  0  0  0  0  0  0  0  0
   28.9537   16.5118   19.8790 C   0  0  0  0  0  0  0  0  0  0  0  0
   30.2562   17.1988   20.2880 C   0  0  0  0  0  0  0  0  0  0  0  0
   31.3642   16.2052   20.6096 C   0  0  0  0  0  0  0  0  0  0  0  0
   32.6799   16.9211   20.8989 C   0  0  0  0  0  0  0  0  0  0  0  0
   32.5804   17.9134   22.0242 N   0  0  0  0  0  0  0  0  0  0  0  0
   26.1075   14.7386   21.4243 O   0  0  0  0  0  0  0  0  0  0  0  0
  2  1  1  6  0  0  0
  2  3  1  0  0  0  0
  2  5  1  0  0  0  0
  3  4  1  0  0  0  0
  3 10  1  0  0  0  0
  5  6  1  0  0  0  0
  6  7  1  0  0  0  0
  7  8  1  0  0  0  0
  8  9  1  0  0  0  0
M  END
>  <CHROM.1>
-134.04815147,-68.35614046,72.73768704,175.20952520,57.26312317,29.18297472
16.11726562,20.80001224,-2.99834858,-0.30684227,-0.86752365

>  <Name>
ligand

>  <RI>
0

>  <Rbt.Current_Directory>
/home/itssahil/PROJECTS/Mol_Feturizer/New_Systems/rnas/3DIL

>  <Rbt.Executable>
rbdock ($Id: //depot/dev/client3/rdock/2013.1/src/exe/rbdock.cxx#4 $)

>  <Rbt.Library>
libRbt.so (2013.1, Build901 2013/11/27)

>  <Rbt.Parameter_File>
/export/apps/rDock/src/rDock_2013.1_src/data/scripts/dock_solv.prm

>  <Rbt.Receptor>
prm/pocket_docking_2.prm

>  <SCORE>
-7.45212

>  <SCORE.INTER>
-9.0748

>  <SCORE.INTER.CONST>
1

>  <SCORE.INTER.POLAR>
0

>  <SCORE.INTER.ROT>
5

>  <SCORE.INTER.SOLV>
13.5958

>  <SCORE.INTER.VDW>
-17.5151

>  <SCORE.INTER.norm>
-0.90748

>  <SCORE.INTRA>
1.6221

>  <SCORE.INTRA.DIHEDRAL>
-0.318841

>  <SCORE.INTRA.DIHEDRAL.0>
2.93688

>  <SCORE.INTRA.POLAR>
0

>  <SCORE.INTRA.POLAR.0>
0

>  <SCORE.INTRA.REPUL>
0

>  <SCORE.INTRA.REPUL.0>
0

>  <SCORE.INTRA.SOLV>
1.63022

>  <SCORE.INTRA.SOLV.lig_0>
-32.2816

>  <SCORE.INTRA.VDW>
0.966413

>  <SCORE.INTRA.VDW.0>
-0.749945

>  <SCORE.INTRA.norm>
0.16221

>  <SCORE.RESTR>
0.00057229

>  <SCORE.RESTR.CAVITY>
0.00057229

>  <SCORE.RESTR.norm>
5.7229e-05

>  <SCORE.SYSTEM>
0

>  <SCORE.SYSTEM.CONST>
0

>  <SCORE.SYSTEM.DIHEDRAL>
0

>  <SCORE.SYSTEM.SOLV>
0

>  <SCORE.SYSTEM.norm>
0

>  <SCORE.heavy>
10

>  <SCORE.norm>
-0.745212

>  <RMSD>
5.441

$$$$
ligand
 OpenBabel11021811473D
libRbt.so/2013.1/901 2013/11/27
 10  9  0  0  0  0  0  0  0  0999 V2000
   25.5984   15.2148   20.3201 N   0  0  0  0  0  0  0  0  0  0  0  0
   26.9495   15.7720   20.0123 C   0  0  2  0  0  0  0  0  0  0  0  0
   27.4445   15.3074   18.6430 C   0  0  0  0  0  0  0  0  0  0  0  0
   28.1405   16.0360   17.9378 O   0  0  0  0  0  0  0  0  0  0  0  0
   27.9487   15.4297   21.1238 C   0  0  0  0  0  0  0  0  0  0  0  0
   29.2650   16.1963   20.9995 C   0  0  0  0  0  0  0  0  0  0  0  0
   30.2713   15.8060   22.0735 C   0  0  0  0  0  0  0  0  0  0  0  0
   31.5318   16.6606   21.9847 C   0  0  0  0  0  0  0  0  0  0  0  0
   32.2987   16.4558   20.7076 N   0  0  0  0  0  0  0  0  0  0  0  0
   27.1949   14.1835   18.1974 O   0  0  0  0  0  0  0  0  0  0  0  0
  2  1  1  1  0  0  0
  2  3  1  0  0  0  0
  2  5  1  0  0  0  0
  3  4  1  0  0  0  0
  3 10  1  0  0  0  0
  5  6  1  0  0  0  0
  6  7  1  0  0  0  0
  7  8  1  0  0  0  0
  8  9  1  0  0  0  0
M  END
>  <CHROM.1>
146.24276062,-168.81343597,-177.59110306,-175.79412149,-64.43787187,28.66606889
15.69472934,20.16383626,2.62752499,-0.21734148,-1.67259788

>  <Name>
ligand

>  <RI>
0

>  <Rbt.Current_Directory>
/home/itssahil/PROJECTS/Mol_Feturizer/New_Systems/rnas/3DIL

>  <Rbt.Executable>
rbdock ($Id: //depot/dev/client3/rdock/2013.1/src/exe/rbdock.cxx#4 $)

>  <Rbt.Library>
libRbt.so (2013.1, Build901 2013/11/27)

>  <Rbt.Parameter_File>
/export/apps/rDock/src/rDock_2013.1_src/data/scripts/dock_solv.prm

>  <Rbt.Receptor>
prm/pocket_docking_5.prm

>  <SCORE>
-9.43193

>  <SCORE.INTER>
-8.59982

>  <SCORE.INTER.CONST>
1

>  <SCORE.INTER.POLAR>
0

>  <SCORE.INTER.ROT>
5

>  <SCORE.INTER.SOLV>
17.749

>  <SCORE.INTER.VDW>
-18.5829

>  <SCORE.INTER.norm>
-0.859982

>  <SCORE.INTRA>
-0.832104

>  <SCORE.INTRA.DIHEDRAL>
-0.854551

>  <SCORE.INTRA.DIHEDRAL.0>
2.93688

>  <SCORE.INTRA.POLAR>
0

>  <SCORE.INTRA.POLAR.0>
0

>  <SCORE.INTRA.REPUL>
0

>  <SCORE.INTRA.REPUL.0>
0

>  <SCORE.INTRA.SOLV>
-0.640268

>  <SCORE.INTRA.SOLV.lig_0>
-32.2816

>  <SCORE.INTRA.VDW>
-0.0846947

>  <SCORE.INTRA.VDW.0>
-0.749945

>  <SCORE.INTRA.norm>
-0.0832104

>  <SCORE.RESTR>
0

>  <SCORE.RESTR.CAVITY>
0

>  <SCORE.RESTR.norm>
0

>  <SCORE.SYSTEM>
0

>  <SCORE.SYSTEM.CONST>
0

>  <SCORE.SYSTEM.DIHEDRAL>
0

>  <SCORE.SYSTEM.SOLV>
0

>  <SCORE.SYSTEM.norm>
0

>  <SCORE.heavy>
10

>  <SCORE.norm>
-0.943193

>  <RMSD>
5.443

$$$$
ligand
 OpenBabel11021811473D
libRbt.so/2013.1/901 2013/11/27
 10  9  0  0  0  0  0  0  0  0999 V2000
   25.5966   15.1675   20.3226 N   0  0  0  0  0  0  0  0  0  0  0  0
   26.9477   15.7296   20.0242 C   0  0  2  0  0  0  0  0  0  0  0  0
   27.4435   15.2865   18.6480 C   0  0  0  0  0  0  0  0  0  0  0  0
   28.1320   16.0296   17.9507 O   0  0  0  0  0  0  0  0  0  0  0  0
   27.9464   15.3702   21.1307 C   0  0  0  0  0  0  0  0  0  0  0  0
   29.2662   16.1320   21.0136 C   0  0  0  0  0  0  0  0  0  0  0  0
   30.2533   15.7615   22.1121 C   0  0  0  0  0  0  0  0  0  0  0  0
   31.5137   16.6173   22.0323 C   0  0  0  0  0  0  0  0  0  0  0  0
   32.2721   16.4380   20.7464 N   0  0  0  0  0  0  0  0  0  0  0  0
   27.2018   14.1664   18.1887 O   0  0  0  0  0  0  0  0  0  0  0  0
  2  1  1  1  0  0  0
  2  3  1  0  0  0  0
  2  5  1  0  0  0  0
  3  4  1  0  0  0  0
  3 10  1  0  0  0  0
  5  6  1  0  0  0  0
  6  7  1  0  0  0  0
  7  8  1  0  0  0  0
  8  9  1  0  0  0  0
M  END
>  <CHROM.1>
145.74186472,-169.19700020,-179.65415147,-175.48849326,-61.90183240,28.65910713
15.65888327,20.18058739,2.62114051,-0.22415977,-1.65693174

>  <Name>
ligand

>  <RI>
0

>  <Rbt.Current_Directory>
/home/itssahil/PROJECTS/Mol_Feturizer/New_Systems/rnas/3DIL

>  <Rbt.Executable>
rbdock ($Id: //depot/dev/client3/rdock/2013.1/src/exe/rbdock.cxx#4 $)

>  <Rbt.Library>
libRbt.so (2013.1, Build901 2013/11/27)

>  <Rbt.Parameter_File>
/export/apps/rDock/src/rDock_2013.1_src/data/scripts/dock_solv.prm

>  <Rbt.Receptor>
prm/pocket_docking_5.prm

>  <SCORE>
-9.42625

>  <SCORE.INTER>
-8.58714

>  <SCORE.INTER.CONST>
1

>  <SCORE.INTER.POLAR>
0

>  <SCORE.INTER.ROT>
5

>  <SCORE.INTER.SOLV>
17.7341

>  <SCORE.INTER.VDW>
-18.5694

>  <SCORE.INTER.norm>
-0.858714

>  <SCORE.INTRA>
-0.839114

>  <SCORE.INTRA.DIHEDRAL>
-0.957997

>  <SCORE.INTRA.DIHEDRAL.0>
2.93688

>  <SCORE.INTRA.POLAR>
0

>  <SCORE.INTRA.POLAR.0>
0

>  <SCORE.INTRA.REPUL>
0

>  <SCORE.INTRA.REPUL.0>
0

>  <SCORE.INTRA.SOLV>
-0.60611

>  <SCORE.INTRA.SOLV.lig_0>
-32.2816

>  <SCORE.INTRA.VDW>
-0.0570603

>  <SCORE.INTRA.VDW.0>
-0.749945

>  <SCORE.INTRA.norm>
-0.0839114

>  <SCORE.RESTR>
0

>  <SCORE.RESTR.CAVITY>
0

>  <SCORE.RESTR.norm>
0

>  <SCORE.SYSTEM>
0

>  <SCORE.SYSTEM.CONST>
0

>  <SCORE.SYSTEM.DIHEDRAL>
0

>  <SCORE.SYSTEM.SOLV>
0

>  <SCORE.SYSTEM.norm>
0

>  <SCORE.heavy>
10

>  <SCORE.norm>
-0.942625

>  <RMSD>
5.444

$$$$
ligand
 OpenBabel11021811473D
libRbt.so/2013.1/901 2013/11/27
 10  9  0  0  0  0  0  0  0  0999 V2000
   28.0667   15.9039   18.5003 N   0  0  0  0  0  0  0  0  0  0  0  0
   28.0799   15.5642   19.9547 C   0  0  2  0  0  0  0  0  0  0  0  0
   26.6677   15.3061   20.4790 C   0  0  0  0  0  0  0  0  0  0  0  0
   26.4821   14.8219   21.5941 O   0  0  0  0  0  0  0  0  0  0  0  0
   28.7966   16.6516   20.7640 C   0  0  0  0  0  0  0  0  0  0  0  0
   30.1774   16.9969   20.2075 C   0  0  0  0  0  0  0  0  0  0  0  0
   31.1593   15.8389   20.3225 C   0  0  0  0  0  0  0  0  0  0  0  0
   32.5438   16.2382   19.8214 C   0  0  0  0  0  0  0  0  0  0  0  0
   33.1972   17.2978   20.6647 N   0  0  0  0  0  0  0  0  0  0  0  0
   25.6591   15.5926   19.8272 O   0  0  0  0  0  0  0  0  0  0  0  0
  2  1  1  6  0  0  0
  2  3  1  0  0  0  0
  2  5  1  0  0  0  0
  3  4  1  0  0  0  0
  3 10  1  0  0  0  0
  5  6  1  0  0  0  0
  6  7  1  0  0  0  0
  7  8  1  0  0  0  0
  8  9  1  0  0  0  0
M  END
>  <CHROM.1>
169.11804518,-51.34162516,-65.86541131,-177.23366964,65.45009159,29.03999553
16.01178410,20.22566426,3.09379467,0.22043023,1.73042065

>  <Name>
ligand

>  <RI>
0

>  <Rbt.Current_Directory>
/home/itssahil/PROJECTS/Mol_Feturizer/New_Systems/rnas/3DIL

>  <Rbt.Executable>
rbdock ($Id: //depot/dev/client3/rdock/2013.1/src/exe/rbdock.cxx#4 $)

>  <Rbt.Library>
libRbt.so (2013.1, Build901 2013/11/27)

>  <Rbt.Parameter_File>
/export/apps/rDock/src/rDock_2013.1_src/data/scripts/dock_solv.prm

>  <Rbt.Receptor>
prm/pocket_docking_7.prm

>  <SCORE>
-8.72248

>  <SCORE.INTER>
-9.19162

>  <SCORE.INTER.CONST>
1

>  <SCORE.INTER.POLAR>
0

>  <SCORE.INTER.ROT>
5

>  <SCORE.INTER.SOLV>
13.7829

>  <SCORE.INTER.VDW>
-17.6554

>  <SCORE.INTER.norm>
-0.919162

>  <SCORE.INTRA>
0.46914

>  <SCORE.INTRA.DIHEDRAL>
-0.903987

>  <SCORE.INTRA.DIHEDRAL.0>
2.93688

>  <SCORE.INTRA.POLAR>
0

>  <SCORE.INTRA.POLAR.0>
0

>  <SCORE.INTRA.REPUL>
0

>  <SCORE.INTRA.REPUL.0>
0

>  <SCORE.INTRA.SOLV>
1.00854

>  <SCORE.INTRA.SOLV.lig_0>
-32.2816

>  <SCORE.INTRA.VDW>
0.416864

>  <SCORE.INTRA.VDW.0>
-0.749945

>  <SCORE.INTRA.norm>
0.046914

>  <SCORE.RESTR>
0

>  <SCORE.RESTR.CAVITY>
0

>  <SCORE.RESTR.norm>
0

>  <SCORE.SYSTEM>
0

>  <SCORE.SYSTEM.CONST>
0

>  <SCORE.SYSTEM.DIHEDRAL>
0

>  <SCORE.SYSTEM.SOLV>
0

>  <SCORE.SYSTEM.norm>
0

>  <SCORE.heavy>
10

>  <SCORE.norm>
-0.872248

>  <RMSD>
5.444

$$$$
ligand
 OpenBabel11021811473D
libRbt.so/2013.1/901 2013/11/27
 10  9  0  0  0  0  0  0  0  0999 V2000
   27.6978   14.6427   18.2524 N   0  0  0  0  0  0  0  0  0  0  0  0
   27.8308   14.6459   19.7400 C   0  0  2  0  0  0  0  0  0  0  0  0
   26.5735   15.1990   20.4102 C   0  0  0  0  0  0  0  0  0  0  0  0
   25.7101   15.7833   19.7580 O   0  0  0  0  0  0  0  0  0  0  0  0
   29.0885   15.4075   20.1752 C   0  0  0  0  0  0  0  0  0  0  0  0
   29.3522   15.3144   21.6777 C   0  0  0  0  0  0  0  0  0  0  0  0
   30.7315   15.8327   22.0613 C   0  0  0  0  0  0  0  0  0  0  0  0
   30.8525   17.3295   21.7924 C   0  0  0  0  0  0  0  0  0  0  0  0
   32.2130   17.8823   22.1155 N   0  0  0  0  0  0  0  0  0  0  0  0
   26.3554   15.0636   21.6178 O   0  0  0  0  0  0  0  0  0  0  0  0
  2  1  1  6  0  0  0
  2  3  1  0  0  0  0
  2  5  1  0  0  0  0
  3  4  1  0  0  0  0
  3 10  1  0  0  0  0
  5  6  1  0  0  0  0
  6  7  1  0  0  0  0
  7  8  1  0  0  0  0
  8  9  1  0  0  0  0
M  END
>  <CHROM.1>
-12.56833077,-173.87913298,168.74470841,65.44759255,-178.21379942,28.60256731
15.71682089,20.77048408,-2.65137138,0.23673159,1.23916443

>  <Name>
ligand

>  <RI>
0

>  <Rbt.Current_Directory>
/home/itssahil/PROJECTS/Mol_Feturizer/New_Systems/rnas/3DIL

>  <Rbt.Executable>
rbdock ($Id: //depot/dev/client3/rdock/2013.1/src/exe/rbdock.cxx#4 $)

>  <Rbt.Library>
libRbt.so (2013.1, Build901 2013/11/27)

>  <Rbt.Parameter_File>
/export/apps/rDock/src/rDock_2013.1_src/data/scripts/dock_solv.prm

>  <Rbt.Receptor>
prm/pocket_docking_5.prm

>  <SCORE>
-9.50206

>  <SCORE.INTER>
-9.38044

>  <SCORE.INTER.CONST>
1

>  <SCORE.INTER.POLAR>
0

>  <SCORE.INTER.ROT>
5

>  <SCORE.INTER.SOLV>
13.996

>  <SCORE.INTER.VDW>
-17.8523

>  <SCORE.INTER.norm>
-0.938044

>  <SCORE.INTRA>
-0.121618

>  <SCORE.INTRA.DIHEDRAL>
-0.60777

>  <SCORE.INTRA.DIHEDRAL.0>
2.93688

>  <SCORE.INTRA.POLAR>
0

>  <SCORE.INTRA.POLAR.0>
0

>  <SCORE.INTRA.REPUL>
0

>  <SCORE.INTRA.REPUL.0>
0

>  <SCORE.INTRA.SOLV>
-1.25623

>  <SCORE.INTRA.SOLV.lig_0>
-32.2816

>  <SCORE.INTRA.VDW>
0.810381

>  <SCORE.INTRA.VDW.0>
-0.749945

>  <SCORE.INTRA.norm>
-0.0121618

>  <SCORE.RESTR>
0

>  <SCORE.RESTR.CAVITY>
0

>  <SCORE.RESTR.norm>
0

>  <SCORE.SYSTEM>
0

>  <SCORE.SYSTEM.CONST>
0

>  <SCORE.SYSTEM.DIHEDRAL>
0

>  <SCORE.SYSTEM.SOLV>
0

>  <SCORE.SYSTEM.norm>
0

>  <SCORE.heavy>
10

>  <SCORE.norm>
-0.950206

>  <RMSD>
5.445

$$$$
ligand
 OpenBabel11021811473D
libRbt.so/2013.1/901 2013/11/27
 10  9  0  0  0  0  0  0  0  0999 V2000
   26.1723   15.8203   19.8454 N   0  0  0  0  0  0  0  0  0  0  0  0
   27.5705   15.5557   19.3921 C   0  0  2  0  0  0  0  0  0  0  0  0
   27.6046   15.0813   17.9396 C   0  0  0  0  0  0  0  0  0  0  0  0
   28.2139   15.7135   17.0785 O   0  0  0  0  0  0  0  0  0  0  0  0
   28.2716   14.5656   20.3297 C   0  0  0  0  0  0  0  0  0  0  0  0
   28.4831   15.1239   21.7367 C   0  0  0  0  0  0  0  0  0  0  0  0
   29.4772   16.2768   21.7637 C   0  0  0  0  0  0  0  0  0  0  0  0
   30.8892   15.7950   21.4455 C   0  0  0  0  0  0  0  0  0  0  0  0
   31.9042   16.9042   21.4254 N   0  0  0  0  0  0  0  0  0  0  0  0
   27.0517   14.0405   17.5722 O   0  0  0  0  0  0  0  0  0  0  0  0
  2  1  1  1  0  0  0
  2  3  1  0  0  0  0
  2  5  1  0  0  0  0
  3  4  1  0  0  0  0
  3 10  1  0  0  0  0
  5  6  1  0  0  0  0
  6  7  1  0  0  0  0
  7  8  1  0  0  0  0
  8  9  1  0  0  0  0
M  END
>  <CHROM.1>
119.86855232,-65.70672310,-67.21984331,-68.34328935,178.53662525,28.55844764
15.47566935,19.81261436,2.34040608,-0.29815074,-1.62281262

>  <Name>
ligand

>  <RI>
0

>  <Rbt.Current_Directory>
/home/itssahil/PROJECTS/Mol_Feturizer/New_Systems/rnas/3DIL

>  <Rbt.Executable>
rbdock ($Id: //depot/dev/client3/rdock/2013.1/src/exe/rbdock.cxx#4 $)

>  <Rbt.Library>
libRbt.so (2013.1, Build901 2013/11/27)

>  <Rbt.Parameter_File>
/export/apps/rDock/src/rDock_2013.1_src/data/scripts/dock_solv.prm

>  <Rbt.Receptor>
prm/pocket_docking_6.prm

>  <SCORE>
-8.59052

>  <SCORE.INTER>
-8.76513

>  <SCORE.INTER.CONST>
1

>  <SCORE.INTER.POLAR>
0

>  <SCORE.INTER.ROT>
5

>  <SCORE.INTER.SOLV>
15.6774

>  <SCORE.INTER.VDW>
-18.0025

>  <SCORE.INTER.norm>
-0.876513

>  <SCORE.INTRA>
0.174606

>  <SCORE.INTRA.DIHEDRAL>
-0.771067

>  <SCORE.INTRA.DIHEDRAL.0>
2.93688

>  <SCORE.INTRA.POLAR>
0

>  <SCORE.INTRA.POLAR.0>
0

>  <SCORE.INTRA.REPUL>
0

>  <SCORE.INTRA.REPUL.0>
0

>  <SCORE.INTRA.SOLV>
0.00721025

>  <SCORE.INTRA.SOLV.lig_0>
-32.2816

>  <SCORE.INTRA.VDW>
0.556534

>  <SCORE.INTRA.VDW.0>
-0.749945

>  <SCORE.INTRA.norm>
0.0174606

>  <SCORE.RESTR>
0

>  <SCORE.RESTR.CAVITY>
0

>  <SCORE.RESTR.norm>
0

>  <SCORE.SYSTEM>
0

>  <SCORE.SYSTEM.CONST>
0

>  <SCORE.SYSTEM.DIHEDRAL>
0

>  <SCORE.SYSTEM.SOLV>
0

>  <SCORE.SYSTEM.norm>
0

>  <SCORE.heavy>
10

>  <SCORE.norm>
-0.859052

>  <RMSD>
5.445

$$$$
ligand
 OpenBabel11021811473D
libRbt.so/2013.1/901 2013/11/27
 10  9  0  0  0  0  0  0  0  0999 V2000
   27.1278   13.9930   18.2084 N   0  0  0  0  0  0  0  0  0  0  0  0
   27.6818   14.8649   19.2871 C   0  0  2  0  0  0  0  0  0  0  0  0
   26.6842   15.0357   20.4323 C   0  0  0  0  0  0  0  0  0  0  0  0
   27.0357   14.9162   21.6048 O   0  0  0  0  0  0  0  0  0  0  0  0
   28.1333   16.2162   18.7206 C   0  0  0  0  0  0  0  0  0  0  0  0
   28.7657   17.1239   19.7750 C   0  0  0  0  0  0  0  0  0  0  0  0
   30.0792   16.5701   20.3099 C   0  0  0  0  0  0  0  0  0  0  0  0
   30.6931   17.5088   21.3439 C   0  0  0  0  0  0  0  0  0  0  0  0
   32.0431   17.0569   21.8280 N   0  0  0  0  0  0  0  0  0  0  0  0
   25.4997   15.3243   20.2382 O   0  0  0  0  0  0  0  0  0  0  0  0
  2  1  1  6  0  0  0
  2  3  1  0  0  0  0
  2  5  1  0  0  0  0
  3  4  1  0  0  0  0
  3 10  1  0  0  0  0
  5  6  1  0  0  0  0
  6  7  1  0  0  0  0
  7  8  1  0  0  0  0
  8  9  1  0  0  0  0
M  END
>  <CHROM.1>
133.58026464,-177.47244123,65.98740674,179.17178163,-175.70283615,28.34421305
15.85928934,20.19841231,-2.78995581,0.43489218,1.43753549

>  <Name>
ligand

>  <RI>
0

>  <Rbt.Current_Directory>
/home/itssahil/PROJECTS/Mol_Feturizer/New_Systems/rnas/3DIL

>  <Rbt.Executable>
rbdock ($Id: //depot/dev/client3/rdock/2013.1/src/exe/rbdock.cxx#4 $)

>  <Rbt.Library>
libRbt.so (2013.1, Build901 2013/11/27)

>  <Rbt.Parameter_File>
/export/apps/rDock/src/rDock_2013.1_src/data/scripts/dock_solv.prm

>  <Rbt.Receptor>
prm/pocket_docking_7.prm

>  <SCORE>
-10.202

>  <SCORE.INTER>
-8.98337

>  <SCORE.INTER.CONST>
1

>  <SCORE.INTER.POLAR>
0

>  <SCORE.INTER.ROT>
5

>  <SCORE.INTER.SOLV>
15.6455

>  <SCORE.INTER.VDW>
-18.1374

>  <SCORE.INTER.norm>
-0.898337

>  <SCORE.INTRA>
-1.21865

>  <SCORE.INTRA.DIHEDRAL>
-1.21938

>  <SCORE.INTRA.DIHEDRAL.0>
2.93688

>  <SCORE.INTRA.POLAR>
0

>  <SCORE.INTRA.POLAR.0>
0

>  <SCORE.INTRA.REPUL>
0

>  <SCORE.INTRA.REPUL.0>
0

>  <SCORE.INTRA.SOLV>
-1.29295

>  <SCORE.INTRA.SOLV.lig_0>
-32.2816

>  <SCORE.INTRA.VDW>
0.0375143

>  <SCORE.INTRA.VDW.0>
-0.749945

>  <SCORE.INTRA.norm>
-0.121865

>  <SCORE.RESTR>
0

>  <SCORE.RESTR.CAVITY>
0

>  <SCORE.RESTR.norm>
0

>  <SCORE.SYSTEM>
0

>  <SCORE.SYSTEM.CONST>
0

>  <SCORE.SYSTEM.DIHEDRAL>
0

>  <SCORE.SYSTEM.SOLV>
0

>  <SCORE.SYSTEM.norm>
0

>  <SCORE.heavy>
10

>  <SCORE.norm>
-1.0202

>  <RMSD>
5.446

$$$$
ligand
 OpenBabel11021811473D
libRbt.so/2013.1/901 2013/11/27
 10  9  0  0  0  0  0  0  0  0999 V2000
   28.6282   15.4457   18.9997 N   0  0  0  0  0  0  0  0  0  0  0  0
   28.2386   15.0722   20.3923 C   0  0  2  0  0  0  0  0  0  0  0  0
   26.7446   15.2905   20.6299 C   0  0  0  0  0  0  0  0  0  0  0  0
   26.0768   15.9941   19.8740 O   0  0  0  0  0  0  0  0  0  0  0  0
   29.0931   15.8239   21.4198 C   0  0  0  0  0  0  0  0  0  0  0  0
   30.5701   15.4349   21.3662 C   0  0  0  0  0  0  0  0  0  0  0  0
   31.4510   16.3750   22.1776 C   0  0  0  0  0  0  0  0  0  0  0  0
   31.5731   17.7371   21.5015 C   0  0  0  0  0  0  0  0  0  0  0  0
   32.5467   18.6549   22.1876 N   0  0  0  0  0  0  0  0  0  0  0  0
   26.1400   14.7561   21.5642 O   0  0  0  0  0  0  0  0  0  0  0  0
  2  1  1  6  0  0  0
  2  3  1  0  0  0  0
  2  5  1  0  0  0  0
  3  4  1  0  0  0  0
  3 10  1  0  0  0  0
  5  6  1  0  0  0  0
  6  7  1  0  0  0  0
  7  8  1  0  0  0  0
  8  9  1  0  0  0  0
M  END
>  <CHROM.1>
-16.89636554,-65.22152430,168.28820072,-71.52399762,-173.99694310,29.06193784
16.05706450,21.01309666,-3.00109405,0.45355934,1.82962140

>  <Name>
ligand

>  <RI>
0

>  <Rbt.Current_Directory>
/home/itssahil/PROJECTS/Mol_Feturizer/New_Systems/rnas/3DIL

>  <Rbt.Executable>
rbdock ($Id: //depot/dev/client3/rdock/2013.1/src/exe/rbdock.cxx#4 $)

>  <Rbt.Library>
libRbt.so (2013.1, Build901 2013/11/27)

>  <Rbt.Parameter_File>
/export/apps/rDock/src/rDock_2013.1_src/data/scripts/dock_solv.prm

>  <Rbt.Receptor>
prm/pocket_docking_2.prm

>  <SCORE>
-8.43668

>  <SCORE.INTER>
-8.66452

>  <SCORE.INTER.CONST>
1

>  <SCORE.INTER.POLAR>
0

>  <SCORE.INTER.ROT>
5

>  <SCORE.INTER.SOLV>
13.0112

>  <SCORE.INTER.VDW>
-17.0468

>  <SCORE.INTER.norm>
-0.866452

>  <SCORE.INTRA>
0.22249

>  <SCORE.INTRA.DIHEDRAL>
-0.0312203

>  <SCORE.INTRA.DIHEDRAL.0>
2.93688

>  <SCORE.INTRA.POLAR>
0

>  <SCORE.INTRA.POLAR.0>
0

>  <SCORE.INTRA.REPUL>
0

>  <SCORE.INTRA.REPUL.0>
0

>  <SCORE.INTRA.SOLV>
-0.269762

>  <SCORE.INTRA.SOLV.lig_0>
-32.2816

>  <SCORE.INTRA.VDW>
0.372981

>  <SCORE.INTRA.VDW.0>
-0.749945

>  <SCORE.INTRA.norm>
0.022249

>  <SCORE.RESTR>
0.00535079

>  <SCORE.RESTR.CAVITY>
0.00535079

>  <SCORE.RESTR.norm>
0.000535079

>  <SCORE.SYSTEM>
0

>  <SCORE.SYSTEM.CONST>
0

>  <SCORE.SYSTEM.DIHEDRAL>
0

>  <SCORE.SYSTEM.SOLV>
0

>  <SCORE.SYSTEM.norm>
0

>  <SCORE.heavy>
10

>  <SCORE.norm>
-0.843668

>  <RMSD>
5.448

$$$$
ligand
 OpenBabel11021811473D
libRbt.so/2013.1/901 2013/11/27
 10  9  0  0  0  0  0  0  0  0999 V2000
   25.5675   15.1708   20.3785 N   0  0  0  0  0  0  0  0  0  0  0  0
   26.9091   15.7563   20.0818 C   0  0  2  0  0  0  0  0  0  0  0  0
   27.3974   15.3528   18.6909 C   0  0  0  0  0  0  0  0  0  0  0  0
   28.1928   16.0540   18.0681 O   0  0  0  0  0  0  0  0  0  0  0  0
   27.9222   15.3824   21.1703 C   0  0  0  0  0  0  0  0  0  0  0  0
   29.2337   16.1588   21.0567 C   0  0  0  0  0  0  0  0  0  0  0  0
   30.2643   15.7173   22.0868 C   0  0  0  0  0  0  0  0  0  0  0  0
   31.5197   16.5812   22.0160 C   0  0  0  0  0  0  0  0  0  0  0  0
   32.2737   16.4273   20.7242 N   0  0  0  0  0  0  0  0  0  0  0  0
   27.0417   14.3041   18.1451 O   0  0  0  0  0  0  0  0  0  0  0  0
  2  1  1  1  0  0  0
  2  3  1  0  0  0  0
  2  5  1  0  0  0  0
  3  4  1  0  0  0  0
  3 10  1  0  0  0  0
  5  6  1  0  0  0  0
  6  7  1  0  0  0  0
  7  8  1  0  0  0  0
  8  9  1  0  0  0  0
M  END
>  <CHROM.1>
154.05768078,-169.42075526,-176.35593497,-175.69670588,-65.54344584,28.63370095
15.68054065,20.20536751,2.64430607,-0.21929307,-1.63729407

>  <Name>
ligand

>  <RI>
0

>  <Rbt.Current_Directory>
/home/itssahil/PROJECTS/Mol_Feturizer/New_Systems/rnas/3DIL

>  <Rbt.Executable>
rbdock ($Id: //depot/dev/client3/rdock/2013.1/src/exe/rbdock.cxx#4 $)

>  <Rbt.Library>
libRbt.so (2013.1, Build901 2013/11/27)

>  <Rbt.Parameter_File>
/export/apps/rDock/src/rDock_2013.1_src/data/scripts/dock_solv.prm

>  <Rbt.Receptor>
prm/pocket_docking_4.prm

>  <SCORE>
-9.34216

>  <SCORE.INTER>
-8.57117

>  <SCORE.INTER.CONST>
1

>  <SCORE.INTER.POLAR>
0

>  <SCORE.INTER.ROT>
5

>  <SCORE.INTER.SOLV>
17.8938

>  <SCORE.INTER.VDW>
-18.612

>  <SCORE.INTER.norm>
-0.857117

>  <SCORE.INTRA>
-0.770997

>  <SCORE.INTRA.DIHEDRAL>
-0.828218

>  <SCORE.INTRA.DIHEDRAL.0>
2.93688

>  <SCORE.INTRA.POLAR>
0

>  <SCORE.INTRA.POLAR.0>
0

>  <SCORE.INTRA.REPUL>
0

>  <SCORE.INTRA.REPUL.0>
0

>  <SCORE.INTRA.SOLV>
-0.65352

>  <SCORE.INTRA.SOLV.lig_0>
-32.2816

>  <SCORE.INTRA.VDW>
-0.0301283

>  <SCORE.INTRA.VDW.0>
-0.749945

>  <SCORE.INTRA.norm>
-0.0770997

>  <SCORE.RESTR>
0

>  <SCORE.RESTR.CAVITY>
0

>  <SCORE.RESTR.norm>
0

>  <SCORE.SYSTEM>
0

>  <SCORE.SYSTEM.CONST>
0

>  <SCORE.SYSTEM.DIHEDRAL>
0

>  <SCORE.SYSTEM.SOLV>
0

>  <SCORE.SYSTEM.norm>
0

>  <SCORE.heavy>
10

>  <SCORE.norm>
-0.934216

>  <RMSD>
5.449

$$$$
ligand
 OpenBabel11021811473D
libRbt.so/2013.1/901 2013/11/27
 10  9  0  0  0  0  0  0  0  0999 V2000
   29.0968   16.3012   19.3907 N   0  0  0  0  0  0  0  0  0  0  0  0
   27.8575   15.5915   18.9533 C   0  0  2  0  0  0  0  0  0  0  0  0
   26.9371   15.2973   20.1374 C   0  0  0  0  0  0  0  0  0  0  0  0
   25.7213   15.4624   20.0540 O   0  0  0  0  0  0  0  0  0  0  0  0
   28.2030   14.3183   18.1720 C   0  0  0  0  0  0  0  0  0  0  0  0
   26.9673   13.5786   17.6602 C   0  0  0  0  0  0  0  0  0  0  0  0
   27.2895   12.1734   17.1705 C   0  0  0  0  0  0  0  0  0  0  0  0
   26.0235   11.3333   17.0343 C   0  0  0  0  0  0  0  0  0  0  0  0
   26.3012    9.8857   16.7369 N   0  0  0  0  0  0  0  0  0  0  0  0
   27.3621   14.8601   21.2109 O   0  0  0  0  0  0  0  0  0  0  0  0
  2  1  1  1  0  0  0
  2  3  1  0  0  0  0
  2  5  1  0  0  0  0
  3  4  1  0  0  0  0
  3 10  1  0  0  0  0
  5  6  1  0  0  0  0
  6  7  1  0  0  0  0
  7  8  1  0  0  0  0
  8  9  1  0  0  0  0
M  END
>  <CHROM.1>
137.53197028,-178.05782059,-166.93907501,164.24956327,-172.08040572,27.15659192
13.88375305,18.68417706,-1.33501070,-0.59337620,-2.41548478

>  <Name>
ligand

>  <RI>
0

>  <Rbt.Current_Directory>
/home/itssahil/PROJECTS/Mol_Feturizer/New_Systems/rnas/3DIL

>  <Rbt.Executable>
rbdock ($Id: //depot/dev/client3/rdock/2013.1/src/exe/rbdock.cxx#4 $)

>  <Rbt.Library>
libRbt.so (2013.1, Build901 2013/11/27)

>  <Rbt.Parameter_File>
/export/apps/rDock/src/rDock_2013.1_src/data/scripts/dock_solv.prm

>  <Rbt.Receptor>
prm/blind_docking_40.prm

>  <SCORE>
-9.31738

>  <SCORE.INTER>
-8.68424

>  <SCORE.INTER.CONST>
1

>  <SCORE.INTER.POLAR>
0

>  <SCORE.INTER.ROT>
5

>  <SCORE.INTER.SOLV>
13.3013

>  <SCORE.INTER.VDW>
-17.1566

>  <SCORE.INTER.norm>
-0.868424

>  <SCORE.INTRA>
-0.633139

>  <SCORE.INTRA.DIHEDRAL>
0.446745

>  <SCORE.INTRA.DIHEDRAL.0>
2.93688

>  <SCORE.INTRA.POLAR>
0

>  <SCORE.INTRA.POLAR.0>
0

>  <SCORE.INTRA.REPUL>
0

>  <SCORE.INTRA.REPUL.0>
0

>  <SCORE.INTRA.SOLV>
-1.50877

>  <SCORE.INTRA.SOLV.lig_0>
-32.2816

>  <SCORE.INTRA.VDW>
-0.102129

>  <SCORE.INTRA.VDW.0>
-0.749945

>  <SCORE.INTRA.norm>
-0.0633139

>  <SCORE.RESTR>
0

>  <SCORE.RESTR.CAVITY>
0

>  <SCORE.RESTR.norm>
0

>  <SCORE.SYSTEM>
0

>  <SCORE.SYSTEM.CONST>
0

>  <SCORE.SYSTEM.DIHEDRAL>
0

>  <SCORE.SYSTEM.SOLV>
0

>  <SCORE.SYSTEM.norm>
0

>  <SCORE.heavy>
10

>  <SCORE.norm>
-0.931738

>  <RMSD>
5.450

$$$$
ligand
 OpenBabel11021811473D
libRbt.so/2013.1/901 2013/11/27
 10  9  0  0  0  0  0  0  0  0999 V2000
   25.5774   15.1607   20.3100 N   0  0  0  0  0  0  0  0  0  0  0  0
   26.9195   15.7498   20.0229 C   0  0  2  0  0  0  0  0  0  0  0  0
   27.4338   15.3203   18.6493 C   0  0  0  0  0  0  0  0  0  0  0  0
   27.1032   14.2440   18.1547 O   0  0  0  0  0  0  0  0  0  0  0  0
   27.9169   15.4068   21.1358 C   0  0  0  0  0  0  0  0  0  0  0  0
   29.2349   16.1708   21.0120 C   0  0  0  0  0  0  0  0  0  0  0  0
   30.2488   15.7607   22.0712 C   0  0  0  0  0  0  0  0  0  0  0  0
   31.5038   16.6249   21.9969 C   0  0  0  0  0  0  0  0  0  0  0  0
   32.2584   16.4654   20.7061 N   0  0  0  0  0  0  0  0  0  0  0  0
   28.1743   16.0360   17.9685 O   0  0  0  0  0  0  0  0  0  0  0  0
  2  1  1  1  0  0  0
  2  3  1  0  0  0  0
  2  5  1  0  0  0  0
  3  4  1  0  0  0  0
  3 10  1  0  0  0  0
  5  6  1  0  0  0  0
  6  7  1  0  0  0  0
  7  8  1  0  0  0  0
  8  9  1  0  0  0  0
M  END
>  <CHROM.1>
-28.91784643,-170.52158617,-176.49939130,-175.02146253,-63.89271904,28.63857336
15.68335900,20.16625195,2.63238993,-0.22705584,-1.64943175

>  <Name>
ligand

>  <RI>
0

>  <Rbt.Current_Directory>
/home/itssahil/PROJECTS/Mol_Feturizer/New_Systems/rnas/3DIL

>  <Rbt.Executable>
rbdock ($Id: //depot/dev/client3/rdock/2013.1/src/exe/rbdock.cxx#4 $)

>  <Rbt.Library>
libRbt.so (2013.1, Build901 2013/11/27)

>  <Rbt.Parameter_File>
/export/apps/rDock/src/rDock_2013.1_src/data/scripts/dock_solv.prm

>  <Rbt.Receptor>
prm/pocket_docking_4.prm

>  <SCORE>
-9.27825

>  <SCORE.INTER>
-8.52797

>  <SCORE.INTER.CONST>
1

>  <SCORE.INTER.POLAR>
0

>  <SCORE.INTER.ROT>
5

>  <SCORE.INTER.SOLV>
17.7411

>  <SCORE.INTER.VDW>
-18.5324

>  <SCORE.INTER.norm>
-0.852797

>  <SCORE.INTRA>
-0.750278

>  <SCORE.INTRA.DIHEDRAL>
-0.837279

>  <SCORE.INTRA.DIHEDRAL.0>
2.93688

>  <SCORE.INTRA.POLAR>
0

>  <SCORE.INTRA.POLAR.0>
0

>  <SCORE.INTRA.REPUL>
0

>  <SCORE.INTRA.REPUL.0>
0

>  <SCORE.INTRA.SOLV>
-0.622039

>  <SCORE.INTRA.SOLV.lig_0>
-32.2816

>  <SCORE.INTRA.VDW>
-0.0206191

>  <SCORE.INTRA.VDW.0>
-0.749945

>  <SCORE.INTRA.norm>
-0.0750278

>  <SCORE.RESTR>
0

>  <SCORE.RESTR.CAVITY>
0

>  <SCORE.RESTR.norm>
0

>  <SCORE.SYSTEM>
0

>  <SCORE.SYSTEM.CONST>
0

>  <SCORE.SYSTEM.DIHEDRAL>
0

>  <SCORE.SYSTEM.SOLV>
0

>  <SCORE.SYSTEM.norm>
0

>  <SCORE.heavy>
10

>  <SCORE.norm>
-0.927825

>  <RMSD>
5.450

$$$$
ligand
 OpenBabel11021811473D
libRbt.so/2013.1/901 2013/11/27
 10  9  0  0  0  0  0  0  0  0999 V2000
   25.5777   15.1791   20.3464 N   0  0  0  0  0  0  0  0  0  0  0  0
   26.9207   15.7491   20.0272 C   0  0  2  0  0  0  0  0  0  0  0  0
   27.4078   15.2907   18.6530 C   0  0  0  0  0  0  0  0  0  0  0  0
   28.1305   16.0076   17.9629 O   0  0  0  0  0  0  0  0  0  0  0  0
   27.9329   15.4150   21.1294 C   0  0  0  0  0  0  0  0  0  0  0  0
   29.2536   16.1685   20.9750 C   0  0  0  0  0  0  0  0  0  0  0  0
   30.2809   15.7667   22.0244 C   0  0  0  0  0  0  0  0  0  0  0  0
   31.5475   16.6089   21.9068 C   0  0  0  0  0  0  0  0  0  0  0  0
   32.2334   16.4662   20.5763 N   0  0  0  0  0  0  0  0  0  0  0  0
   27.1245   14.1826   18.1883 O   0  0  0  0  0  0  0  0  0  0  0  0
  2  1  1  1  0  0  0
  2  3  1  0  0  0  0
  2  5  1  0  0  0  0
  3  4  1  0  0  0  0
  3 10  1  0  0  0  0
  5  6  1  0  0  0  0
  6  7  1  0  0  0  0
  7  8  1  0  0  0  0
  8  9  1  0  0  0  0
M  END
>  <CHROM.1>
148.88967035,-170.21283129,-176.51684984,-175.79186785,-60.67283973,28.64243882
15.67208670,20.14297394,2.64994515,-0.22353369,-1.66327283

>  <Name>
ligand

>  <RI>
0

>  <Rbt.Current_Directory>
/home/itssahil/PROJECTS/Mol_Feturizer/New_Systems/rnas/3DIL

>  <Rbt.Executable>
rbdock ($Id: //depot/dev/client3/rdock/2013.1/src/exe/rbdock.cxx#4 $)

>  <Rbt.Library>
libRbt.so (2013.1, Build901 2013/11/27)

>  <Rbt.Parameter_File>
/export/apps/rDock/src/rDock_2013.1_src/data/scripts/dock_solv.prm

>  <Rbt.Receptor>
prm/pocket_docking_7.prm

>  <SCORE>
-9.41031

>  <SCORE.INTER>
-8.59943

>  <SCORE.INTER.CONST>
1

>  <SCORE.INTER.POLAR>
0

>  <SCORE.INTER.ROT>
5

>  <SCORE.INTER.SOLV>
17.9129

>  <SCORE.INTER.VDW>
-18.6373

>  <SCORE.INTER.norm>
-0.859943

>  <SCORE.INTRA>
-0.810874

>  <SCORE.INTRA.DIHEDRAL>
-1.00895

>  <SCORE.INTRA.DIHEDRAL.0>
2.93688

>  <SCORE.INTRA.POLAR>
0

>  <SCORE.INTRA.POLAR.0>
0

>  <SCORE.INTRA.REPUL>
0

>  <SCORE.INTRA.REPUL.0>
0

>  <SCORE.INTRA.SOLV>
-0.587047

>  <SCORE.INTRA.SOLV.lig_0>
-32.2816

>  <SCORE.INTRA.VDW>
-0.012873

>  <SCORE.INTRA.VDW.0>
-0.749945

>  <SCORE.INTRA.norm>
-0.0810874

>  <SCORE.RESTR>
0

>  <SCORE.RESTR.CAVITY>
0

>  <SCORE.RESTR.norm>
0

>  <SCORE.SYSTEM>
0

>  <SCORE.SYSTEM.CONST>
0

>  <SCORE.SYSTEM.DIHEDRAL>
0

>  <SCORE.SYSTEM.SOLV>
0

>  <SCORE.SYSTEM.norm>
0

>  <SCORE.heavy>
10

>  <SCORE.norm>
-0.941031

>  <RMSD>
5.451

$$$$
ligand
 OpenBabel11021811473D
libRbt.so/2013.1/901 2013/11/27
 10  9  0  0  0  0  0  0  0  0999 V2000
   26.2103   15.8385   19.8024 N   0  0  0  0  0  0  0  0  0  0  0  0
   27.6034   15.5414   19.3536 C   0  0  2  0  0  0  0  0  0  0  0  0
   27.6279   15.0362   17.9113 C   0  0  0  0  0  0  0  0  0  0  0  0
   27.0406   14.0049   17.5889 O   0  0  0  0  0  0  0  0  0  0  0  0
   28.2891   14.5597   20.3112 C   0  0  0  0  0  0  0  0  0  0  0  0
   28.4903   15.1355   21.7126 C   0  0  0  0  0  0  0  0  0  0  0  0
   29.4900   16.2837   21.7338 C   0  0  0  0  0  0  0  0  0  0  0  0
   30.9030   15.7899   21.4391 C   0  0  0  0  0  0  0  0  0  0  0  0
   31.9272   16.8909   21.4339 N   0  0  0  0  0  0  0  0  0  0  0  0
   28.2083   15.6458   17.0083 O   0  0  0  0  0  0  0  0  0  0  0  0
  2  1  1  1  0  0  0
  2  3  1  0  0  0  0
  2  5  1  0  0  0  0
  3  4  1  0  0  0  0
  3 10  1  0  0  0  0
  5  6  1  0  0  0  0
  6  7  1  0  0  0  0
  7  8  1  0  0  0  0
  8  9  1  0  0  0  0
M  END
>  <CHROM.1>
-60.86224924,-64.74170850,-67.15642508,-68.50206774,179.37783702,28.57274772
15.46002594,19.78931344,2.33377017,-0.29274364,-1.63566494

>  <Name>
ligand

>  <RI>
0

>  <Rbt.Current_Directory>
/home/itssahil/PROJECTS/Mol_Feturizer/New_Systems/rnas/3DIL

>  <Rbt.Executable>
rbdock ($Id: //depot/dev/client3/rdock/2013.1/src/exe/rbdock.cxx#4 $)

>  <Rbt.Library>
libRbt.so (2013.1, Build901 2013/11/27)

>  <Rbt.Parameter_File>
/export/apps/rDock/src/rDock_2013.1_src/data/scripts/dock_solv.prm

>  <Rbt.Receptor>
prm/pocket_docking_7.prm

>  <SCORE>
-8.58086

>  <SCORE.INTER>
-8.78351

>  <SCORE.INTER.CONST>
1

>  <SCORE.INTER.POLAR>
0

>  <SCORE.INTER.ROT>
5

>  <SCORE.INTER.SOLV>
15.6176

>  <SCORE.INTER.VDW>
-17.9949

>  <SCORE.INTER.norm>
-0.878351

>  <SCORE.INTRA>
0.202654

>  <SCORE.INTRA.DIHEDRAL>
-0.823436

>  <SCORE.INTRA.DIHEDRAL.0>
2.93688

>  <SCORE.INTRA.POLAR>
0

>  <SCORE.INTRA.POLAR.0>
0

>  <SCORE.INTRA.REPUL>
0

>  <SCORE.INTRA.REPUL.0>
0

>  <SCORE.INTRA.SOLV>
0.0355794

>  <SCORE.INTRA.SOLV.lig_0>
-32.2816

>  <SCORE.INTRA.VDW>
0.596582

>  <SCORE.INTRA.VDW.0>
-0.749945

>  <SCORE.INTRA.norm>
0.0202654

>  <SCORE.RESTR>
0

>  <SCORE.RESTR.CAVITY>
0

>  <SCORE.RESTR.norm>
0

>  <SCORE.SYSTEM>
0

>  <SCORE.SYSTEM.CONST>
0

>  <SCORE.SYSTEM.DIHEDRAL>
0

>  <SCORE.SYSTEM.SOLV>
0

>  <SCORE.SYSTEM.norm>
0

>  <SCORE.heavy>
10

>  <SCORE.norm>
-0.858086

>  <RMSD>
5.452

$$$$
ligand
 OpenBabel11021811473D
libRbt.so/2013.1/901 2013/11/27
 10  9  0  0  0  0  0  0  0  0999 V2000
   27.6330   14.5957   18.1596 N   0  0  0  0  0  0  0  0  0  0  0  0
   27.7853   14.5773   19.6452 C   0  0  2  0  0  0  0  0  0  0  0  0
   26.5445   15.1385   20.3391 C   0  0  0  0  0  0  0  0  0  0  0  0
   26.3576   14.9687   21.5427 O   0  0  0  0  0  0  0  0  0  0  0  0
   29.0588   15.3157   20.0738 C   0  0  0  0  0  0  0  0  0  0  0  0
   29.3186   15.2335   21.5777 C   0  0  0  0  0  0  0  0  0  0  0  0
   30.6896   15.7720   21.9634 C   0  0  0  0  0  0  0  0  0  0  0  0
   30.7837   17.2733   21.7095 C   0  0  0  0  0  0  0  0  0  0  0  0
   32.1321   17.8482   22.0442 N   0  0  0  0  0  0  0  0  0  0  0  0
   25.6957   15.8030   19.7374 O   0  0  0  0  0  0  0  0  0  0  0  0
  2  1  1  6  0  0  0
  2  3  1  0  0  0  0
  2  5  1  0  0  0  0
  3  4  1  0  0  0  0
  3 10  1  0  0  0  0
  5  6  1  0  0  0  0
  6  7  1  0  0  0  0
  7  8  1  0  0  0  0
  8  9  1  0  0  0  0
M  END
>  <CHROM.1>
165.38942194,-175.56223444,170.80091062,66.40016400,-178.61577357,28.56275849
15.65998261,20.69057191,-2.64520511,0.23223519,1.22483829

>  <Name>
ligand

>  <RI>
0

>  <Rbt.Current_Directory>
/home/itssahil/PROJECTS/Mol_Feturizer/New_Systems/rnas/3DIL

>  <Rbt.Executable>
rbdock ($Id: //depot/dev/client3/rdock/2013.1/src/exe/rbdock.cxx#4 $)

>  <Rbt.Library>
libRbt.so (2013.1, Build901 2013/11/27)

>  <Rbt.Parameter_File>
/export/apps/rDock/src/rDock_2013.1_src/data/scripts/dock_solv.prm

>  <Rbt.Receptor>
prm/pocket_docking_5.prm

>  <SCORE>
-9.49571

>  <SCORE.INTER>
-9.24285

>  <SCORE.INTER.CONST>
1

>  <SCORE.INTER.POLAR>
0

>  <SCORE.INTER.ROT>
5

>  <SCORE.INTER.SOLV>
14.3361

>  <SCORE.INTER.VDW>
-17.8739

>  <SCORE.INTER.norm>
-0.924285

>  <SCORE.INTRA>
-0.252864

>  <SCORE.INTRA.DIHEDRAL>
-0.876349

>  <SCORE.INTRA.DIHEDRAL.0>
2.93688

>  <SCORE.INTRA.POLAR>
0

>  <SCORE.INTRA.POLAR.0>
0

>  <SCORE.INTRA.REPUL>
0

>  <SCORE.INTRA.REPUL.0>
0

>  <SCORE.INTRA.SOLV>
-1.27679

>  <SCORE.INTRA.SOLV.lig_0>
-32.2816

>  <SCORE.INTRA.VDW>
0.823706

>  <SCORE.INTRA.VDW.0>
-0.749945

>  <SCORE.INTRA.norm>
-0.0252864

>  <SCORE.RESTR>
0

>  <SCORE.RESTR.CAVITY>
0

>  <SCORE.RESTR.norm>
0

>  <SCORE.SYSTEM>
0

>  <SCORE.SYSTEM.CONST>
0

>  <SCORE.SYSTEM.DIHEDRAL>
0

>  <SCORE.SYSTEM.SOLV>
0

>  <SCORE.SYSTEM.norm>
0

>  <SCORE.heavy>
10

>  <SCORE.norm>
-0.949571

>  <RMSD>
5.453

$$$$
ligand
 OpenBabel11021811473D
libRbt.so/2013.1/901 2013/11/27
 10  9  0  0  0  0  0  0  0  0999 V2000
   27.6537   14.6047   18.1618 N   0  0  0  0  0  0  0  0  0  0  0  0
   27.7938   14.5801   19.6486 C   0  0  2  0  0  0  0  0  0  0  0  0
   26.5426   15.1274   20.3348 C   0  0  0  0  0  0  0  0  0  0  0  0
   26.3316   14.9231   21.5290 O   0  0  0  0  0  0  0  0  0  0  0  0
   29.0575   15.3269   20.0915 C   0  0  0  0  0  0  0  0  0  0  0  0
   29.3149   15.2247   21.5946 C   0  0  0  0  0  0  0  0  0  0  0  0
   30.6810   15.7677   21.9910 C   0  0  0  0  0  0  0  0  0  0  0  0
   30.7798   17.2651   21.7169 C   0  0  0  0  0  0  0  0  0  0  0  0
   32.1257   17.8430   22.0569 N   0  0  0  0  0  0  0  0  0  0  0  0
   25.7090   15.8143   19.7370 O   0  0  0  0  0  0  0  0  0  0  0  0
  2  1  1  6  0  0  0
  2  3  1  0  0  0  0
  2  5  1  0  0  0  0
  3  4  1  0  0  0  0
  3 10  1  0  0  0  0
  5  6  1  0  0  0  0
  6  7  1  0  0  0  0
  7  8  1  0  0  0  0
  8  9  1  0  0  0  0
M  END
>  <CHROM.1>
163.65743136,-174.85168094,170.54591271,64.56115107,-178.40979820,28.56162520
15.65479751,20.69731325,-2.64832711,0.24242587,1.24482071

>  <Name>
ligand

>  <RI>
0

>  <Rbt.Current_Directory>
/home/itssahil/PROJECTS/Mol_Feturizer/New_Systems/rnas/3DIL

>  <Rbt.Executable>
rbdock ($Id: //depot/dev/client3/rdock/2013.1/src/exe/rbdock.cxx#4 $)

>  <Rbt.Library>
libRbt.so (2013.1, Build901 2013/11/27)

>  <Rbt.Parameter_File>
/export/apps/rDock/src/rDock_2013.1_src/data/scripts/dock_solv.prm

>  <Rbt.Receptor>
prm/pocket_docking_8.prm

>  <SCORE>
-9.49394

>  <SCORE.INTER>
-9.24352

>  <SCORE.INTER.CONST>
1

>  <SCORE.INTER.POLAR>
0

>  <SCORE.INTER.ROT>
5

>  <SCORE.INTER.SOLV>
14.2963

>  <SCORE.INTER.VDW>
-17.8611

>  <SCORE.INTER.norm>
-0.924352

>  <SCORE.INTRA>
-0.250416

>  <SCORE.INTRA.DIHEDRAL>
-0.916455

>  <SCORE.INTRA.DIHEDRAL.0>
2.93688

>  <SCORE.INTRA.POLAR>
0

>  <SCORE.INTRA.POLAR.0>
0

>  <SCORE.INTRA.REPUL>
0

>  <SCORE.INTRA.REPUL.0>
0

>  <SCORE.INTRA.SOLV>
-1.26435

>  <SCORE.INTRA.SOLV.lig_0>
-32.2816

>  <SCORE.INTRA.VDW>
0.839987

>  <SCORE.INTRA.VDW.0>
-0.749945

>  <SCORE.INTRA.norm>
-0.0250416

>  <SCORE.RESTR>
0

>  <SCORE.RESTR.CAVITY>
0

>  <SCORE.RESTR.norm>
0

>  <SCORE.SYSTEM>
0

>  <SCORE.SYSTEM.CONST>
0

>  <SCORE.SYSTEM.DIHEDRAL>
0

>  <SCORE.SYSTEM.SOLV>
0

>  <SCORE.SYSTEM.norm>
0

>  <SCORE.heavy>
10

>  <SCORE.norm>
-0.949394

>  <RMSD>
5.454

$$$$
ligand
 OpenBabel11021811473D
libRbt.so/2013.1/901 2013/11/27
 10  9  0  0  0  0  0  0  0  0999 V2000
   27.9129   14.8384   18.2545 N   0  0  0  0  0  0  0  0  0  0  0  0
   28.0148   14.8418   19.7445 C   0  0  2  0  0  0  0  0  0  0  0  0
   26.6657   15.1482   20.3941 C   0  0  0  0  0  0  0  0  0  0  0  0
   26.4679   14.9209   21.5864 O   0  0  0  0  0  0  0  0  0  0  0  0
   29.1056   15.8107   20.2161 C   0  0  0  0  0  0  0  0  0  0  0  0
   29.4925   15.6066   21.6805 C   0  0  0  0  0  0  0  0  0  0  0  0
   30.3955   16.7144   22.2055 C   0  0  0  0  0  0  0  0  0  0  0  0
   31.7417   16.7147   21.4880 C   0  0  0  0  0  0  0  0  0  0  0  0
   32.6295   17.8588   21.8929 N   0  0  0  0  0  0  0  0  0  0  0  0
   25.7317   15.6567   19.7672 O   0  0  0  0  0  0  0  0  0  0  0  0
  2  1  1  6  0  0  0
  2  3  1  0  0  0  0
  2  5  1  0  0  0  0
  3  4  1  0  0  0  0
  3 10  1  0  0  0  0
  5  6  1  0  0  0  0
  6  7  1  0  0  0  0
  7  8  1  0  0  0  0
  8  9  1  0  0  0  0
M  END
>  <CHROM.1>
164.32252550,-165.75161226,-170.26654077,-64.86237172,175.39721963,28.77588172
15.81274211,20.73353699,-2.74585977,0.29567211,1.36272452

>  <Name>
ligand

>  <RI>
0

>  <Rbt.Current_Directory>
/home/itssahil/PROJECTS/Mol_Feturizer/New_Systems/rnas/3DIL

>  <Rbt.Executable>
rbdock ($Id: //depot/dev/client3/rdock/2013.1/src/exe/rbdock.cxx#4 $)

>  <Rbt.Library>
libRbt.so (2013.1, Build901 2013/11/27)

>  <Rbt.Parameter_File>
/export/apps/rDock/src/rDock_2013.1_src/data/scripts/dock_solv.prm

>  <Rbt.Receptor>
prm/pocket_docking_7.prm

>  <SCORE>
-9.32583

>  <SCORE.INTER>
-9.26903

>  <SCORE.INTER.CONST>
1

>  <SCORE.INTER.POLAR>
0

>  <SCORE.INTER.ROT>
5

>  <SCORE.INTER.SOLV>
13.496

>  <SCORE.INTER.VDW>
-17.6114

>  <SCORE.INTER.norm>
-0.926903

>  <SCORE.INTRA>
-0.0567938

>  <SCORE.INTRA.DIHEDRAL>
-0.171691

>  <SCORE.INTRA.DIHEDRAL.0>
2.93688

>  <SCORE.INTRA.POLAR>
0

>  <SCORE.INTRA.POLAR.0>
0

>  <SCORE.INTRA.REPUL>
0

>  <SCORE.INTRA.REPUL.0>
0

>  <SCORE.INTRA.SOLV>
-1.23479

>  <SCORE.INTRA.SOLV.lig_0>
-32.2816

>  <SCORE.INTRA.VDW>
0.646445

>  <SCORE.INTRA.VDW.0>
-0.749945

>  <SCORE.INTRA.norm>
-0.00567938

>  <SCORE.RESTR>
0

>  <SCORE.RESTR.CAVITY>
0

>  <SCORE.RESTR.norm>
0

>  <SCORE.SYSTEM>
0

>  <SCORE.SYSTEM.CONST>
0

>  <SCORE.SYSTEM.DIHEDRAL>
0

>  <SCORE.SYSTEM.SOLV>
0

>  <SCORE.SYSTEM.norm>
0

>  <SCORE.heavy>
10

>  <SCORE.norm>
-0.932583

>  <RMSD>
5.455

$$$$
ligand
 OpenBabel11021811473D
libRbt.so/2013.1/901 2013/11/27
 10  9  0  0  0  0  0  0  0  0999 V2000
   25.5864   15.1849   20.3282 N   0  0  0  0  0  0  0  0  0  0  0  0
   26.9352   15.7419   20.0099 C   0  0  2  0  0  0  0  0  0  0  0  0
   27.4242   15.2684   18.6415 C   0  0  0  0  0  0  0  0  0  0  0  0
   27.1161   14.1609   18.2045 O   0  0  0  0  0  0  0  0  0  0  0  0
   27.9402   15.4091   21.1189 C   0  0  0  0  0  0  0  0  0  0  0  0
   29.2690   16.1475   20.9611 C   0  0  0  0  0  0  0  0  0  0  0  0
   30.2868   15.7507   22.0217 C   0  0  0  0  0  0  0  0  0  0  0  0
   31.5573   16.5872   21.9069 C   0  0  0  0  0  0  0  0  0  0  0  0
   32.2394   16.4502   20.5739 N   0  0  0  0  0  0  0  0  0  0  0  0
   28.1205   15.9766   17.9082 O   0  0  0  0  0  0  0  0  0  0  0  0
  2  1  1  1  0  0  0
  2  3  1  0  0  0  0
  2  5  1  0  0  0  0
  3  4  1  0  0  0  0
  3 10  1  0  0  0  0
  5  6  1  0  0  0  0
  6  7  1  0  0  0  0
  7  8  1  0  0  0  0
  8  9  1  0  0  0  0
M  END
>  <CHROM.1>
-32.18711542,-170.41004069,-176.76182252,-175.29241837,-59.62690380,28.64837307
15.65614024,20.13130989,2.64619017,-0.22174527,-1.66281466

>  <Name>
ligand

>  <RI>
0

>  <Rbt.Current_Directory>
/home/itssahil/PROJECTS/Mol_Feturizer/New_Systems/rnas/3DIL

>  <Rbt.Executable>
rbdock ($Id: //depot/dev/client3/rdock/2013.1/src/exe/rbdock.cxx#4 $)

>  <Rbt.Library>
libRbt.so (2013.1, Build901 2013/11/27)

>  <Rbt.Parameter_File>
/export/apps/rDock/src/rDock_2013.1_src/data/scripts/dock_solv.prm

>  <Rbt.Receptor>
prm/pocket_docking_5.prm

>  <SCORE>
-9.36862

>  <SCORE.INTER>
-8.63485

>  <SCORE.INTER.CONST>
1

>  <SCORE.INTER.POLAR>
0

>  <SCORE.INTER.ROT>
5

>  <SCORE.INTER.SOLV>
17.9201

>  <SCORE.INTER.VDW>
-18.6633

>  <SCORE.INTER.norm>
-0.863485

>  <SCORE.INTRA>
-0.73377

>  <SCORE.INTRA.DIHEDRAL>
-0.905367

>  <SCORE.INTRA.DIHEDRAL.0>
2.93688

>  <SCORE.INTRA.POLAR>
0

>  <SCORE.INTRA.POLAR.0>
0

>  <SCORE.INTRA.REPUL>
0

>  <SCORE.INTRA.REPUL.0>
0

>  <SCORE.INTRA.SOLV>
-0.561224

>  <SCORE.INTRA.SOLV.lig_0>
-32.2816

>  <SCORE.INTRA.VDW>
-0.000474531

>  <SCORE.INTRA.VDW.0>
-0.749945

>  <SCORE.INTRA.norm>
-0.073377

>  <SCORE.RESTR>
0

>  <SCORE.RESTR.CAVITY>
0

>  <SCORE.RESTR.norm>
0

>  <SCORE.SYSTEM>
0

>  <SCORE.SYSTEM.CONST>
0

>  <SCORE.SYSTEM.DIHEDRAL>
0

>  <SCORE.SYSTEM.SOLV>
0

>  <SCORE.SYSTEM.norm>
0

>  <SCORE.heavy>
10

>  <SCORE.norm>
-0.936862

>  <RMSD>
5.456

$$$$
ligand
 OpenBabel11021811473D
libRbt.so/2013.1/901 2013/11/27
 10  9  0  0  0  0  0  0  0  0999 V2000
   25.5658   15.1671   20.3384 N   0  0  0  0  0  0  0  0  0  0  0  0
   26.9116   15.7343   20.0258 C   0  0  2  0  0  0  0  0  0  0  0  0
   27.4012   15.2811   18.6507 C   0  0  0  0  0  0  0  0  0  0  0  0
   28.1285   15.9988   17.9664 O   0  0  0  0  0  0  0  0  0  0  0  0
   27.9196   15.3916   21.1292 C   0  0  0  0  0  0  0  0  0  0  0  0
   29.2329   16.1622   20.9978 C   0  0  0  0  0  0  0  0  0  0  0  0
   30.2595   15.7483   22.0433 C   0  0  0  0  0  0  0  0  0  0  0  0
   31.5211   16.6001   21.9447 C   0  0  0  0  0  0  0  0  0  0  0  0
   32.2191   16.4752   20.6187 N   0  0  0  0  0  0  0  0  0  0  0  0
   27.1153   14.1764   18.1796 O   0  0  0  0  0  0  0  0  0  0  0  0
  2  1  1  1  0  0  0
  2  3  1  0  0  0  0
  2  5  1  0  0  0  0
  3  4  1  0  0  0  0
  3 10  1  0  0  0  0
  5  6  1  0  0  0  0
  6  7  1  0  0  0  0
  7  8  1  0  0  0  0
  8  9  1  0  0  0  0
M  END
>  <CHROM.1>
148.91697165,-169.08535485,-176.24998960,-176.15308406,-61.21539171,28.62903887
15.66225404,20.15336017,2.64205505,-0.22650722,-1.66009635

>  <Name>
ligand

>  <RI>
0

>  <Rbt.Current_Directory>
/home/itssahil/PROJECTS/Mol_Feturizer/New_Systems/rnas/3DIL

>  <Rbt.Executable>
rbdock ($Id: //depot/dev/client3/rdock/2013.1/src/exe/rbdock.cxx#4 $)

>  <Rbt.Library>
libRbt.so (2013.1, Build901 2013/11/27)

>  <Rbt.Parameter_File>
/export/apps/rDock/src/rDock_2013.1_src/data/scripts/dock_solv.prm

>  <Rbt.Receptor>
prm/pocket_docking_7.prm

>  <SCORE>
-9.40506

>  <SCORE.INTER>
-8.61037

>  <SCORE.INTER.CONST>
1

>  <SCORE.INTER.POLAR>
0

>  <SCORE.INTER.ROT>
5

>  <SCORE.INTER.SOLV>
17.8295

>  <SCORE.INTER.VDW>
-18.6167

>  <SCORE.INTER.norm>
-0.861037

>  <SCORE.INTRA>
-0.794691

>  <SCORE.INTRA.DIHEDRAL>
-0.924053

>  <SCORE.INTRA.DIHEDRAL.0>
2.93688

>  <SCORE.INTRA.POLAR>
0

>  <SCORE.INTRA.POLAR.0>
0

>  <SCORE.INTRA.REPUL>
0

>  <SCORE.INTRA.REPUL.0>
0

>  <SCORE.INTRA.SOLV>
-0.591559

>  <SCORE.INTRA.SOLV.lig_0>
-32.2816

>  <SCORE.INTRA.VDW>
-0.0368848

>  <SCORE.INTRA.VDW.0>
-0.749945

>  <SCORE.INTRA.norm>
-0.0794691

>  <SCORE.RESTR>
0

>  <SCORE.RESTR.CAVITY>
0

>  <SCORE.RESTR.norm>
0

>  <SCORE.SYSTEM>
0

>  <SCORE.SYSTEM.CONST>
0

>  <SCORE.SYSTEM.DIHEDRAL>
0

>  <SCORE.SYSTEM.SOLV>
0

>  <SCORE.SYSTEM.norm>
0

>  <SCORE.heavy>
10

>  <SCORE.norm>
-0.940506

>  <RMSD>
5.456

$$$$
ligand
 OpenBabel11021811473D
libRbt.so/2013.1/901 2013/11/27
 10  9  0  0  0  0  0  0  0  0999 V2000
   27.1680   16.6995   19.5839 N   0  0  0  0  0  0  0  0  0  0  0  0
   28.1605   15.6811   19.1274 C   0  0  2  0  0  0  0  0  0  0  0  0
   27.7401   15.0497   17.8005 C   0  0  0  0  0  0  0  0  0  0  0  0
   27.0623   14.0240   17.7711 O   0  0  0  0  0  0  0  0  0  0  0  0
   28.3959   14.6223   20.2111 C   0  0  0  0  0  0  0  0  0  0  0  0
   29.0801   15.1852   21.4565 C   0  0  0  0  0  0  0  0  0  0  0  0
   30.3936   15.8849   21.1348 C   0  0  0  0  0  0  0  0  0  0  0  0
   30.9156   16.6592   22.3411 C   0  0  0  0  0  0  0  0  0  0  0  0
   32.0930   17.5371   22.0184 N   0  0  0  0  0  0  0  0  0  0  0  0
   28.0345   15.5478   16.7100 O   0  0  0  0  0  0  0  0  0  0  0  0
  2  1  1  1  0  0  0
  2  3  1  0  0  0  0
  2  5  1  0  0  0  0
  3  4  1  0  0  0  0
  3 10  1  0  0  0  0
  5  6  1  0  0  0  0
  6  7  1  0  0  0  0
  7  8  1  0  0  0  0
  8  9  1  0  0  0  0
M  END
>  <CHROM.1>
-91.54461984,-66.56894907,-55.32225773,169.19480747,-171.12350239,28.88817306
15.67262453,19.77690733,-2.51480511,0.70741850,1.91998574

>  <Name>
ligand

>  <RI>
0

>  <Rbt.Current_Directory>
/home/itssahil/PROJECTS/Mol_Feturizer/New_Systems/rnas/3DIL

>  <Rbt.Executable>
rbdock ($Id: //depot/dev/client3/rdock/2013.1/src/exe/rbdock.cxx#4 $)

>  <Rbt.Library>
libRbt.so (2013.1, Build901 2013/11/27)

>  <Rbt.Parameter_File>
/export/apps/rDock/src/rDock_2013.1_src/data/scripts/dock_solv.prm

>  <Rbt.Receptor>
prm/blind_docking_60.prm

>  <SCORE>
-6.96326

>  <SCORE.INTER>
-7.40998

>  <SCORE.INTER.CONST>
1

>  <SCORE.INTER.POLAR>
0

>  <SCORE.INTER.ROT>
5

>  <SCORE.INTER.SOLV>
15.389

>  <SCORE.INTER.VDW>
-17.003

>  <SCORE.INTER.norm>
-0.740998

>  <SCORE.INTRA>
0.44673

>  <SCORE.INTRA.DIHEDRAL>
-0.437121

>  <SCORE.INTRA.DIHEDRAL.0>
2.93688

>  <SCORE.INTRA.POLAR>
0

>  <SCORE.INTRA.POLAR.0>
0

>  <SCORE.INTRA.REPUL>
0

>  <SCORE.INTRA.REPUL.0>
0

>  <SCORE.INTRA.SOLV>
-0.0323282

>  <SCORE.INTRA.SOLV.lig_0>
-32.2816

>  <SCORE.INTRA.VDW>
0.681454

>  <SCORE.INTRA.VDW.0>
-0.749945

>  <SCORE.INTRA.norm>
0.044673

>  <SCORE.RESTR>
0

>  <SCORE.RESTR.CAVITY>
0

>  <SCORE.RESTR.norm>
0

>  <SCORE.SYSTEM>
0

>  <SCORE.SYSTEM.CONST>
0

>  <SCORE.SYSTEM.DIHEDRAL>
0

>  <SCORE.SYSTEM.SOLV>
0

>  <SCORE.SYSTEM.norm>
0

>  <SCORE.heavy>
10

>  <SCORE.norm>
-0.696326

>  <RMSD>
5.457

$$$$
ligand
 OpenBabel11021811473D
libRbt.so/2013.1/901 2013/11/27
 10  9  0  0  0  0  0  0  0  0999 V2000
   25.5732   15.1775   20.3344 N   0  0  0  0  0  0  0  0  0  0  0  0
   26.9279   15.7246   20.0243 C   0  0  2  0  0  0  0  0  0  0  0  0
   27.4067   15.2763   18.6438 C   0  0  0  0  0  0  0  0  0  0  0  0
   28.1166   16.0026   17.9504 O   0  0  0  0  0  0  0  0  0  0  0  0
   27.9321   15.3539   21.1220 C   0  0  0  0  0  0  0  0  0  0  0  0
   29.2558   16.1078   20.9990 C   0  0  0  0  0  0  0  0  0  0  0  0
   30.2655   15.6913   22.0598 C   0  0  0  0  0  0  0  0  0  0  0  0
   31.5263   16.5470   21.9872 C   0  0  0  0  0  0  0  0  0  0  0  0
   32.2366   16.4458   20.6658 N   0  0  0  0  0  0  0  0  0  0  0  0
   27.1293   14.1676   18.1770 O   0  0  0  0  0  0  0  0  0  0  0  0
  2  1  1  1  0  0  0
  2  3  1  0  0  0  0
  2  5  1  0  0  0  0
  3  4  1  0  0  0  0
  3 10  1  0  0  0  0
  5  6  1  0  0  0  0
  6  7  1  0  0  0  0
  7  8  1  0  0  0  0
  8  9  1  0  0  0  0
M  END
>  <CHROM.1>
147.01553933,-168.81957720,-177.68456812,-174.95289487,-60.39751049,28.63835045
15.63840158,20.16005909,2.63588444,-0.22212867,-1.64730714

>  <Name>
ligand

>  <RI>
0

>  <Rbt.Current_Directory>
/home/itssahil/PROJECTS/Mol_Feturizer/New_Systems/rnas/3DIL

>  <Rbt.Executable>
rbdock ($Id: //depot/dev/client3/rdock/2013.1/src/exe/rbdock.cxx#4 $)

>  <Rbt.Library>
libRbt.so (2013.1, Build901 2013/11/27)

>  <Rbt.Parameter_File>
/export/apps/rDock/src/rDock_2013.1_src/data/scripts/dock_solv.prm

>  <Rbt.Receptor>
prm/pocket_docking_7.prm

>  <SCORE>
-9.43412

>  <SCORE.INTER>
-8.6496

>  <SCORE.INTER.CONST>
1

>  <SCORE.INTER.POLAR>
0

>  <SCORE.INTER.ROT>
5

>  <SCORE.INTER.SOLV>
17.8348

>  <SCORE.INTER.VDW>
-18.6447

>  <SCORE.INTER.norm>
-0.86496

>  <SCORE.INTRA>
-0.784515

>  <SCORE.INTRA.DIHEDRAL>
-0.898704

>  <SCORE.INTRA.DIHEDRAL.0>
2.93688

>  <SCORE.INTRA.POLAR>
0

>  <SCORE.INTRA.POLAR.0>
0

>  <SCORE.INTRA.REPUL>
0

>  <SCORE.INTRA.REPUL.0>
0

>  <SCORE.INTRA.SOLV>
-0.585805

>  <SCORE.INTRA.SOLV.lig_0>
-32.2816

>  <SCORE.INTRA.VDW>
-0.0422605

>  <SCORE.INTRA.VDW.0>
-0.749945

>  <SCORE.INTRA.norm>
-0.0784515

>  <SCORE.RESTR>
0

>  <SCORE.RESTR.CAVITY>
0

>  <SCORE.RESTR.norm>
0

>  <SCORE.SYSTEM>
0

>  <SCORE.SYSTEM.CONST>
0

>  <SCORE.SYSTEM.DIHEDRAL>
0

>  <SCORE.SYSTEM.SOLV>
0

>  <SCORE.SYSTEM.norm>
0

>  <SCORE.heavy>
10

>  <SCORE.norm>
-0.943412

>  <RMSD>
5.457

$$$$
ligand
 OpenBabel11021811473D
libRbt.so/2013.1/901 2013/11/27
 10  9  0  0  0  0  0  0  0  0999 V2000
   27.8455   14.8462   18.1948 N   0  0  0  0  0  0  0  0  0  0  0  0
   27.9776   14.8248   19.6824 C   0  0  2  0  0  0  0  0  0  0  0  0
   26.6467   15.1412   20.3640 C   0  0  0  0  0  0  0  0  0  0  0  0
   26.4750   14.9128   21.5601 O   0  0  0  0  0  0  0  0  0  0  0  0
   29.0924   15.7697   20.1463 C   0  0  0  0  0  0  0  0  0  0  0  0
   29.4591   15.5824   21.6181 C   0  0  0  0  0  0  0  0  0  0  0  0
   30.3990   16.6664   22.1279 C   0  0  0  0  0  0  0  0  0  0  0  0
   31.7340   16.6301   21.3905 C   0  0  0  0  0  0  0  0  0  0  0  0
   32.6756   17.7232   21.8141 N   0  0  0  0  0  0  0  0  0  0  0  0
   25.7027   15.6591   19.7602 O   0  0  0  0  0  0  0  0  0  0  0  0
  2  1  1  6  0  0  0
  2  3  1  0  0  0  0
  2  5  1  0  0  0  0
  3  4  1  0  0  0  0
  3 10  1  0  0  0  0
  5  6  1  0  0  0  0
  6  7  1  0  0  0  0
  7  8  1  0  0  0  0
  8  9  1  0  0  0  0
M  END
>  <CHROM.1>
165.18895317,-168.51010660,-170.73421348,-62.99221592,177.33763962,28.76116741
15.77761222,20.67721861,-2.76085364,0.28333251,1.37378647

>  <Name>
ligand

>  <RI>
0

>  <Rbt.Current_Directory>
/home/itssahil/PROJECTS/Mol_Feturizer/New_Systems/rnas/3DIL

>  <Rbt.Executable>
rbdock ($Id: //depot/dev/client3/rdock/2013.1/src/exe/rbdock.cxx#4 $)

>  <Rbt.Library>
libRbt.so (2013.1, Build901 2013/11/27)

>  <Rbt.Parameter_File>
/export/apps/rDock/src/rDock_2013.1_src/data/scripts/dock_solv.prm

>  <Rbt.Receptor>
prm/blind_docking_60.prm

>  <SCORE>
-9.40825

>  <SCORE.INTER>
-9.28062

>  <SCORE.INTER.CONST>
1

>  <SCORE.INTER.POLAR>
0

>  <SCORE.INTER.ROT>
5

>  <SCORE.INTER.SOLV>
13.8954

>  <SCORE.INTER.VDW>
-17.7522

>  <SCORE.INTER.norm>
-0.928062

>  <SCORE.INTRA>
-0.127627

>  <SCORE.INTRA.DIHEDRAL>
-0.573391

>  <SCORE.INTRA.DIHEDRAL.0>
2.93688

>  <SCORE.INTRA.POLAR>
0

>  <SCORE.INTRA.POLAR.0>
0

>  <SCORE.INTRA.REPUL>
0

>  <SCORE.INTRA.REPUL.0>
0

>  <SCORE.INTRA.SOLV>
-1.24046

>  <SCORE.INTRA.SOLV.lig_0>
-32.2816

>  <SCORE.INTRA.VDW>
0.7793

>  <SCORE.INTRA.VDW.0>
-0.749945

>  <SCORE.INTRA.norm>
-0.0127627

>  <SCORE.RESTR>
0

>  <SCORE.RESTR.CAVITY>
0

>  <SCORE.RESTR.norm>
0

>  <SCORE.SYSTEM>
0

>  <SCORE.SYSTEM.CONST>
0

>  <SCORE.SYSTEM.DIHEDRAL>
0

>  <SCORE.SYSTEM.SOLV>
0

>  <SCORE.SYSTEM.norm>
0

>  <SCORE.heavy>
10

>  <SCORE.norm>
-0.940825

>  <RMSD>
5.458

$$$$
ligand
 OpenBabel11021811473D
libRbt.so/2013.1/901 2013/11/27
 10  9  0  0  0  0  0  0  0  0999 V2000
   28.5606   16.0439   19.0884 N   0  0  0  0  0  0  0  0  0  0  0  0
   28.1735   15.2950   20.3212 C   0  0  2  0  0  0  0  0  0  0  0  0
   26.6559   15.2619   20.4992 C   0  0  0  0  0  0  0  0  0  0  0  0
   26.1447   14.7850   21.5108 O   0  0  0  0  0  0  0  0  0  0  0  0
   28.8779   15.8711   21.5553 C   0  0  0  0  0  0  0  0  0  0  0  0
   30.4017   15.8067   21.4569 C   0  0  0  0  0  0  0  0  0  0  0  0
   30.9679   16.8350   20.4873 C   0  0  0  0  0  0  0  0  0  0  0  0
   32.4928   16.7953   20.4699 C   0  0  0  0  0  0  0  0  0  0  0  0
   33.1124   17.2226   21.7716 N   0  0  0  0  0  0  0  0  0  0  0  0
   25.8826   15.7306   19.6588 O   0  0  0  0  0  0  0  0  0  0  0  0
  2  1  1  6  0  0  0
  2  3  1  0  0  0  0
  2  5  1  0  0  0  0
  3  4  1  0  0  0  0
  3 10  1  0  0  0  0
  5  6  1  0  0  0  0
  6  7  1  0  0  0  0
  7  8  1  0  0  0  0
  8  9  1  0  0  0  0
M  END
>  <CHROM.1>
-174.09590632,-60.02731328,73.78332167,176.90390884,-65.98572272,29.08158957
15.95958322,20.68447338,-3.10457274,0.28087166,1.83928861

>  <Name>
ligand

>  <RI>
0

>  <Rbt.Current_Directory>
/home/itssahil/PROJECTS/Mol_Feturizer/New_Systems/rnas/3DIL

>  <Rbt.Executable>
rbdock ($Id: //depot/dev/client3/rdock/2013.1/src/exe/rbdock.cxx#4 $)

>  <Rbt.Library>
libRbt.so (2013.1, Build901 2013/11/27)

>  <Rbt.Parameter_File>
/export/apps/rDock/src/rDock_2013.1_src/data/scripts/dock_solv.prm

>  <Rbt.Receptor>
prm/pocket_docking_4.prm

>  <SCORE>
-8.39136

>  <SCORE.INTER>
-9.69178

>  <SCORE.INTER.CONST>
1

>  <SCORE.INTER.POLAR>
0

>  <SCORE.INTER.ROT>
5

>  <SCORE.INTER.SOLV>
12.4492

>  <SCORE.INTER.VDW>
-17.5442

>  <SCORE.INTER.norm>
-0.969178

>  <SCORE.INTRA>
1.30042

>  <SCORE.INTRA.DIHEDRAL>
-0.478074

>  <SCORE.INTRA.DIHEDRAL.0>
2.93688

>  <SCORE.INTRA.POLAR>
0

>  <SCORE.INTRA.POLAR.0>
0

>  <SCORE.INTRA.REPUL>
0

>  <SCORE.INTRA.REPUL.0>
0

>  <SCORE.INTRA.SOLV>
1.75899

>  <SCORE.INTRA.SOLV.lig_0>
-32.2816

>  <SCORE.INTRA.VDW>
0.659958

>  <SCORE.INTRA.VDW.0>
-0.749945

>  <SCORE.INTRA.norm>
0.130042

>  <SCORE.RESTR>
0

>  <SCORE.RESTR.CAVITY>
0

>  <SCORE.RESTR.norm>
0

>  <SCORE.SYSTEM>
0

>  <SCORE.SYSTEM.CONST>
0

>  <SCORE.SYSTEM.DIHEDRAL>
0

>  <SCORE.SYSTEM.SOLV>
0

>  <SCORE.SYSTEM.norm>
0

>  <SCORE.heavy>
10

>  <SCORE.norm>
-0.839136

>  <RMSD>
5.458

$$$$
ligand
 OpenBabel11021811473D
libRbt.so/2013.1/901 2013/11/27
 10  9  0  0  0  0  0  0  0  0999 V2000
   27.9239   14.7967   18.2620 N   0  0  0  0  0  0  0  0  0  0  0  0
   28.0177   14.8137   19.7525 C   0  0  2  0  0  0  0  0  0  0  0  0
   26.6660   15.1301   20.3918 C   0  0  0  0  0  0  0  0  0  0  0  0
   26.4475   14.8765   21.5751 O   0  0  0  0  0  0  0  0  0  0  0  0
   29.1087   15.7838   20.2210 C   0  0  0  0  0  0  0  0  0  0  0  0
   29.4490   15.6284   21.7028 C   0  0  0  0  0  0  0  0  0  0  0  0
   30.3816   16.7221   22.2053 C   0  0  0  0  0  0  0  0  0  0  0  0
   31.7512   16.6272   21.5402 C   0  0  0  0  0  0  0  0  0  0  0  0
   32.6944   17.7181   21.9662 N   0  0  0  0  0  0  0  0  0  0  0  0
   25.7507   15.6726   19.7657 O   0  0  0  0  0  0  0  0  0  0  0  0
  2  1  1  6  0  0  0
  2  3  1  0  0  0  0
  2  5  1  0  0  0  0
  3  4  1  0  0  0  0
  3 10  1  0  0  0  0
  5  6  1  0  0  0  0
  6  7  1  0  0  0  0
  7  8  1  0  0  0  0
  8  9  1  0  0  0  0
M  END
>  <CHROM.1>
162.06431238,-167.96040211,-171.73072407,-65.65270503,177.88691577,28.77906432
15.77885221,20.74852439,-2.73718343,0.27713247,1.35040847

>  <Name>
ligand

>  <RI>
0

>  <Rbt.Current_Directory>
/home/itssahil/PROJECTS/Mol_Feturizer/New_Systems/rnas/3DIL

>  <Rbt.Executable>
rbdock ($Id: //depot/dev/client3/rdock/2013.1/src/exe/rbdock.cxx#4 $)

>  <Rbt.Library>
libRbt.so (2013.1, Build901 2013/11/27)

>  <Rbt.Parameter_File>
/export/apps/rDock/src/rDock_2013.1_src/data/scripts/dock_solv.prm

>  <Rbt.Receptor>
prm/pocket_docking_5.prm

>  <SCORE>
-9.34511

>  <SCORE.INTER>
-9.08833

>  <SCORE.INTER.CONST>
1

>  <SCORE.INTER.POLAR>
0

>  <SCORE.INTER.ROT>
5

>  <SCORE.INTER.SOLV>
13.7969

>  <SCORE.INTER.VDW>
-17.5912

>  <SCORE.INTER.norm>
-0.908833

>  <SCORE.INTRA>
-0.256777

>  <SCORE.INTRA.DIHEDRAL>
-0.517043

>  <SCORE.INTRA.DIHEDRAL.0>
2.93688

>  <SCORE.INTRA.POLAR>
0

>  <SCORE.INTRA.POLAR.0>
0

>  <SCORE.INTRA.REPUL>
0

>  <SCORE.INTRA.REPUL.0>
0

>  <SCORE.INTRA.SOLV>
-1.26034

>  <SCORE.INTRA.SOLV.lig_0>
-32.2816

>  <SCORE.INTRA.VDW>
0.631914

>  <SCORE.INTRA.VDW.0>
-0.749945

>  <SCORE.INTRA.norm>
-0.0256777

>  <SCORE.RESTR>
0

>  <SCORE.RESTR.CAVITY>
0

>  <SCORE.RESTR.norm>
0

>  <SCORE.SYSTEM>
0

>  <SCORE.SYSTEM.CONST>
0

>  <SCORE.SYSTEM.DIHEDRAL>
0

>  <SCORE.SYSTEM.SOLV>
0

>  <SCORE.SYSTEM.norm>
0

>  <SCORE.heavy>
10

>  <SCORE.norm>
-0.934511

>  <RMSD>
5.459

$$$$
ligand
 OpenBabel11021811473D
libRbt.so/2013.1/901 2013/11/27
 10  9  0  0  0  0  0  0  0  0999 V2000
   28.5338   14.5326   18.8771 N   0  0  0  0  0  0  0  0  0  0  0  0
   27.8977   14.5247   20.2284 C   0  0  2  0  0  0  0  0  0  0  0  0
   26.6446   15.3993   20.2590 C   0  0  0  0  0  0  0  0  0  0  0  0
   25.6453   15.0563   20.8884 O   0  0  0  0  0  0  0  0  0  0  0  0
   28.9043   14.9362   21.3093 C   0  0  0  0  0  0  0  0  0  0  0  0
   29.5460   16.2969   21.0400 C   0  0  0  0  0  0  0  0  0  0  0  0
   30.7209   16.5816   21.9657 C   0  0  0  0  0  0  0  0  0  0  0  0
   31.3842   17.9116   21.6217 C   0  0  0  0  0  0  0  0  0  0  0  0
   32.6539   18.1573   22.3889 N   0  0  0  0  0  0  0  0  0  0  0  0
   26.5866   16.4896   19.6830 O   0  0  0  0  0  0  0  0  0  0  0  0
  2  1  1  6  0  0  0
  2  3  1  0  0  0  0
  2  5  1  0  0  0  0
  3  4  1  0  0  0  0
  3 10  1  0  0  0  0
  5  6  1  0  0  0  0
  6  7  1  0  0  0  0
  7  8  1  0  0  0  0
  8  9  1  0  0  0  0
M  END
>  <CHROM.1>
141.30956140,55.89674622,-169.36484203,176.95068783,-172.63637299,28.81309019
16.00135688,20.82345601,-2.60170155,-0.07760917,0.52845028

>  <Name>
ligand

>  <RI>
0

>  <Rbt.Current_Directory>
/home/itssahil/PROJECTS/Mol_Feturizer/New_Systems/rnas/3DIL

>  <Rbt.Executable>
rbdock ($Id: //depot/dev/client3/rdock/2013.1/src/exe/rbdock.cxx#4 $)

>  <Rbt.Library>
libRbt.so (2013.1, Build901 2013/11/27)

>  <Rbt.Parameter_File>
/export/apps/rDock/src/rDock_2013.1_src/data/scripts/dock_solv.prm

>  <Rbt.Receptor>
prm/pocket_docking_3.prm

>  <SCORE>
-9.07929

>  <SCORE.INTER>
-8.46316

>  <SCORE.INTER.CONST>
1

>  <SCORE.INTER.POLAR>
0

>  <SCORE.INTER.ROT>
5

>  <SCORE.INTER.SOLV>
14.094

>  <SCORE.INTER.VDW>
-17.2734

>  <SCORE.INTER.norm>
-0.846316

>  <SCORE.INTRA>
-0.616132

>  <SCORE.INTRA.DIHEDRAL>
-0.695121

>  <SCORE.INTRA.DIHEDRAL.0>
2.93688

>  <SCORE.INTRA.POLAR>
0

>  <SCORE.INTRA.POLAR.0>
0

>  <SCORE.INTRA.REPUL>
0

>  <SCORE.INTRA.REPUL.0>
0

>  <SCORE.INTRA.SOLV>
-0.4898

>  <SCORE.INTRA.SOLV.lig_0>
-32.2816

>  <SCORE.INTRA.VDW>
-0.0236716

>  <SCORE.INTRA.VDW.0>
-0.749945

>  <SCORE.INTRA.norm>
-0.0616132

>  <SCORE.RESTR>
0

>  <SCORE.RESTR.CAVITY>
0

>  <SCORE.RESTR.norm>
0

>  <SCORE.SYSTEM>
0

>  <SCORE.SYSTEM.CONST>
0

>  <SCORE.SYSTEM.DIHEDRAL>
0

>  <SCORE.SYSTEM.SOLV>
0

>  <SCORE.SYSTEM.norm>
0

>  <SCORE.heavy>
10

>  <SCORE.norm>
-0.907929

>  <RMSD>
5.461

$$$$
ligand
 OpenBabel11021811473D
libRbt.so/2013.1/901 2013/11/27
 10  9  0  0  0  0  0  0  0  0999 V2000
   27.8820   14.8579   18.2131 N   0  0  0  0  0  0  0  0  0  0  0  0
   28.0000   14.8414   19.7019 C   0  0  2  0  0  0  0  0  0  0  0  0
   26.6556   15.1278   20.3701 C   0  0  0  0  0  0  0  0  0  0  0  0
   26.4676   14.8679   21.5573 O   0  0  0  0  0  0  0  0  0  0  0  0
   29.0881   15.8124   20.1753 C   0  0  0  0  0  0  0  0  0  0  0  0
   29.4695   15.6121   21.6417 C   0  0  0  0  0  0  0  0  0  0  0  0
   30.4024   16.7001   22.1559 C   0  0  0  0  0  0  0  0  0  0  0  0
   31.7487   16.6556   21.4399 C   0  0  0  0  0  0  0  0  0  0  0  0
   32.6682   17.7777   21.8352 N   0  0  0  0  0  0  0  0  0  0  0  0
   25.7159   15.6515   19.7645 O   0  0  0  0  0  0  0  0  0  0  0  0
  2  1  1  6  0  0  0
  2  3  1  0  0  0  0
  2  5  1  0  0  0  0
  3  4  1  0  0  0  0
  3 10  1  0  0  0  0
  5  6  1  0  0  0  0
  6  7  1  0  0  0  0
  7  8  1  0  0  0  0
  8  9  1  0  0  0  0
M  END
>  <CHROM.1>
163.47321025,-167.07580563,-171.94381519,-64.94306653,175.48075228,28.76994059
15.79170335,20.69651677,-2.75951537,0.29540127,1.38185353

>  <Name>
ligand

>  <RI>
0

>  <Rbt.Current_Directory>
/home/itssahil/PROJECTS/Mol_Feturizer/New_Systems/rnas/3DIL

>  <Rbt.Executable>
rbdock ($Id: //depot/dev/client3/rdock/2013.1/src/exe/rbdock.cxx#4 $)

>  <Rbt.Library>
libRbt.so (2013.1, Build901 2013/11/27)

>  <Rbt.Parameter_File>
/export/apps/rDock/src/rDock_2013.1_src/data/scripts/dock_solv.prm

>  <Rbt.Receptor>
prm/pocket_docking_5.prm

>  <SCORE>
-9.34096

>  <SCORE.INTER>
-9.17111

>  <SCORE.INTER.CONST>
1

>  <SCORE.INTER.POLAR>
0

>  <SCORE.INTER.ROT>
5

>  <SCORE.INTER.SOLV>
13.76

>  <SCORE.INTER.VDW>
-17.6341

>  <SCORE.INTER.norm>
-0.917111

>  <SCORE.INTRA>
-0.169849

>  <SCORE.INTRA.DIHEDRAL>
-0.420905

>  <SCORE.INTRA.DIHEDRAL.0>
2.93688

>  <SCORE.INTRA.POLAR>
0

>  <SCORE.INTRA.POLAR.0>
0

>  <SCORE.INTRA.REPUL>
0

>  <SCORE.INTRA.REPUL.0>
0

>  <SCORE.INTRA.SOLV>
-1.23826

>  <SCORE.INTRA.SOLV.lig_0>
-32.2816

>  <SCORE.INTRA.VDW>
0.659733

>  <SCORE.INTRA.VDW.0>
-0.749945

>  <SCORE.INTRA.norm>
-0.0169849

>  <SCORE.RESTR>
0

>  <SCORE.RESTR.CAVITY>
0

>  <SCORE.RESTR.norm>
0

>  <SCORE.SYSTEM>
0

>  <SCORE.SYSTEM.CONST>
0

>  <SCORE.SYSTEM.DIHEDRAL>
0

>  <SCORE.SYSTEM.SOLV>
0

>  <SCORE.SYSTEM.norm>
0

>  <SCORE.heavy>
10

>  <SCORE.norm>
-0.934096

>  <RMSD>
5.461

$$$$
ligand
 OpenBabel11021811473D
libRbt.so/2013.1/901 2013/11/27
 10  9  0  0  0  0  0  0  0  0999 V2000
   26.1635   15.8240   19.7649 N   0  0  0  0  0  0  0  0  0  0  0  0
   27.5650   15.5247   19.3445 C   0  0  2  0  0  0  0  0  0  0  0  0
   27.6165   15.0047   17.9083 C   0  0  0  0  0  0  0  0  0  0  0  0
   27.0344   13.9707   17.5853 O   0  0  0  0  0  0  0  0  0  0  0  0
   28.2347   14.5542   20.3246 C   0  0  0  0  0  0  0  0  0  0  0  0
   28.4123   15.1459   21.7225 C   0  0  0  0  0  0  0  0  0  0  0  0
   29.4586   16.2515   21.7597 C   0  0  0  0  0  0  0  0  0  0  0  0
   30.8497   15.7045   21.4552 C   0  0  0  0  0  0  0  0  0  0  0  0
   31.9217   16.7584   21.4874 N   0  0  0  0  0  0  0  0  0  0  0  0
   28.2148   15.6045   17.0103 O   0  0  0  0  0  0  0  0  0  0  0  0
  2  1  1  1  0  0  0
  2  3  1  0  0  0  0
  2  5  1  0  0  0  0
  3  4  1  0  0  0  0
  3 10  1  0  0  0  0
  5  6  1  0  0  0  0
  6  7  1  0  0  0  0
  7  8  1  0  0  0  0
  8  9  1  0  0  0  0
M  END
>  <CHROM.1>
-60.70215247,-64.87004713,-69.81100935,-65.72941030,-179.67961088,28.54150706
15.42148056,19.79612805,2.31962110,-0.25824987,-1.65577412

>  <Name>
ligand

>  <RI>
0

>  <Rbt.Current_Directory>
/home/itssahil/PROJECTS/Mol_Feturizer/New_Systems/rnas/3DIL

>  <Rbt.Executable>
rbdock ($Id: //depot/dev/client3/rdock/2013.1/src/exe/rbdock.cxx#4 $)

>  <Rbt.Library>
libRbt.so (2013.1, Build901 2013/11/27)

>  <Rbt.Parameter_File>
/export/apps/rDock/src/rDock_2013.1_src/data/scripts/dock_solv.prm

>  <Rbt.Receptor>
prm/pocket_docking_8.prm

>  <SCORE>
-8.52807

>  <SCORE.INTER>
-8.78849

>  <SCORE.INTER.CONST>
1

>  <SCORE.INTER.POLAR>
0

>  <SCORE.INTER.ROT>
5

>  <SCORE.INTER.SOLV>
16.0419

>  <SCORE.INTER.VDW>
-18.1396

>  <SCORE.INTER.norm>
-0.878849

>  <SCORE.INTRA>
0.26042

>  <SCORE.INTRA.DIHEDRAL>
-0.797897

>  <SCORE.INTRA.DIHEDRAL.0>
2.93688

>  <SCORE.INTRA.POLAR>
0

>  <SCORE.INTRA.POLAR.0>
0

>  <SCORE.INTRA.REPUL>
0

>  <SCORE.INTRA.REPUL.0>
0

>  <SCORE.INTRA.SOLV>
0.0134808

>  <SCORE.INTRA.SOLV.lig_0>
-32.2816

>  <SCORE.INTRA.VDW>
0.652628

>  <SCORE.INTRA.VDW.0>
-0.749945

>  <SCORE.INTRA.norm>
0.026042

>  <SCORE.RESTR>
0

>  <SCORE.RESTR.CAVITY>
0

>  <SCORE.RESTR.norm>
0

>  <SCORE.SYSTEM>
0

>  <SCORE.SYSTEM.CONST>
0

>  <SCORE.SYSTEM.DIHEDRAL>
0

>  <SCORE.SYSTEM.SOLV>
0

>  <SCORE.SYSTEM.norm>
0

>  <SCORE.heavy>
10

>  <SCORE.norm>
-0.852807

>  <RMSD>
5.462

$$$$
ligand
 OpenBabel11021811473D
libRbt.so/2013.1/901 2013/11/27
 10  9  0  0  0  0  0  0  0  0999 V2000
   28.5925   15.3170   22.2511 N   0  0  0  0  0  0  0  0  0  0  0  0
   28.1146   16.0147   21.0201 C   0  0  2  0  0  0  0  0  0  0  0  0
   26.7811   15.4438   20.5387 C   0  0  0  0  0  0  0  0  0  0  0  0
   26.3946   15.6178   19.3842 O   0  0  0  0  0  0  0  0  0  0  0  0
   29.1809   15.9735   19.9190 C   0  0  0  0  0  0  0  0  0  0  0  0
   30.4251   16.7918   20.2626 C   0  0  0  0  0  0  0  0  0  0  0  0
   31.2526   16.1576   21.3722 C   0  0  0  0  0  0  0  0  0  0  0  0
   32.4661   17.0164   21.7147 C   0  0  0  0  0  0  0  0  0  0  0  0
   33.4116   17.1949   20.5593 N   0  0  0  0  0  0  0  0  0  0  0  0
   26.0509   14.7670   21.2687 O   0  0  0  0  0  0  0  0  0  0  0  0
  2  1  1  1  0  0  0
  2  3  1  0  0  0  0
  2  5  1  0  0  0  0
  3  4  1  0  0  0  0
  3 10  1  0  0  0  0
  5  6  1  0  0  0  0
  6  7  1  0  0  0  0
  7  8  1  0  0  0  0
  8  9  1  0  0  0  0
M  END
>  <CHROM.1>
-160.63344920,-67.07773404,70.50233902,-178.54844301,-61.38985230,29.22513885
16.01447090,20.81763572,-3.13464033,-0.28208101,-1.27130625

>  <Name>
ligand

>  <RI>
0

>  <Rbt.Current_Directory>
/home/itssahil/PROJECTS/Mol_Feturizer/New_Systems/rnas/3DIL

>  <Rbt.Executable>
rbdock ($Id: //depot/dev/client3/rdock/2013.1/src/exe/rbdock.cxx#4 $)

>  <Rbt.Library>
libRbt.so (2013.1, Build901 2013/11/27)

>  <Rbt.Parameter_File>
/export/apps/rDock/src/rDock_2013.1_src/data/scripts/dock_solv.prm

>  <Rbt.Receptor>
prm/blind_docking_80.prm

>  <SCORE>
-7.25201

>  <SCORE.INTER>
-8.52926

>  <SCORE.INTER.CONST>
1

>  <SCORE.INTER.POLAR>
0

>  <SCORE.INTER.ROT>
5

>  <SCORE.INTER.SOLV>
15.3328

>  <SCORE.INTER.VDW>
-17.7304

>  <SCORE.INTER.norm>
-0.852926

>  <SCORE.INTRA>
1.27725

>  <SCORE.INTRA.DIHEDRAL>
-0.705545

>  <SCORE.INTRA.DIHEDRAL.0>
2.93688

>  <SCORE.INTRA.POLAR>
0

>  <SCORE.INTRA.POLAR.0>
0

>  <SCORE.INTRA.REPUL>
0

>  <SCORE.INTRA.REPUL.0>
0

>  <SCORE.INTRA.SOLV>
1.70593

>  <SCORE.INTRA.SOLV.lig_0>
-32.2816

>  <SCORE.INTRA.VDW>
0.777056

>  <SCORE.INTRA.VDW.0>
-0.749945

>  <SCORE.INTRA.norm>
0.127725

>  <SCORE.RESTR>
0

>  <SCORE.RESTR.CAVITY>
0

>  <SCORE.RESTR.norm>
0

>  <SCORE.SYSTEM>
0

>  <SCORE.SYSTEM.CONST>
0

>  <SCORE.SYSTEM.DIHEDRAL>
0

>  <SCORE.SYSTEM.SOLV>
0

>  <SCORE.SYSTEM.norm>
0

>  <SCORE.heavy>
10

>  <SCORE.norm>
-0.725201

>  <RMSD>
5.463

$$$$
ligand
 OpenBabel11021811473D
libRbt.so/2013.1/901 2013/11/27
 10  9  0  0  0  0  0  0  0  0999 V2000
   28.8170   16.6601   19.2132 N   0  0  0  0  0  0  0  0  0  0  0  0
   28.3908   15.3118   19.6940 C   0  0  2  0  0  0  0  0  0  0  0  0
   26.9938   14.9557   19.1864 C   0  0  0  0  0  0  0  0  0  0  0  0
   25.9877   15.4406   19.7011 O   0  0  0  0  0  0  0  0  0  0  0  0
   28.4800   15.2225   21.2221 C   0  0  0  0  0  0  0  0  0  0  0  0
   29.9158   15.2934   21.7411 C   0  0  0  0  0  0  0  0  0  0  0  0
   30.5251   16.6799   21.5844 C   0  0  0  0  0  0  0  0  0  0  0  0
   31.9889   16.6905   22.0140 C   0  0  0  0  0  0  0  0  0  0  0  0
   32.6311   18.0453   21.8990 N   0  0  0  0  0  0  0  0  0  0  0  0
   26.8128   14.1952   18.2310 O   0  0  0  0  0  0  0  0  0  0  0  0
  2  1  1  1  0  0  0
  2  3  1  0  0  0  0
  2  5  1  0  0  0  0
  3  4  1  0  0  0  0
  3 10  1  0  0  0  0
  5  6  1  0  0  0  0
  6  7  1  0  0  0  0
  7  8  1  0  0  0  0
  8  9  1  0  0  0  0
M  END
>  <CHROM.1>
-77.24214820,-66.71704424,70.63653786,-175.73981837,-179.06105503,29.01379057
15.83682319,20.43055884,-2.92765261,0.58485306,2.10506853

>  <Name>
ligand

>  <RI>
0

>  <Rbt.Current_Directory>
/home/itssahil/PROJECTS/Mol_Feturizer/New_Systems/rnas/3DIL

>  <Rbt.Executable>
rbdock ($Id: //depot/dev/client3/rdock/2013.1/src/exe/rbdock.cxx#4 $)

>  <Rbt.Library>
libRbt.so (2013.1, Build901 2013/11/27)

>  <Rbt.Parameter_File>
/export/apps/rDock/src/rDock_2013.1_src/data/scripts/dock_solv.prm

>  <Rbt.Receptor>
prm/pocket_docking_3.prm

>  <SCORE>
-8.38847

>  <SCORE.INTER>
-8.83817

>  <SCORE.INTER.CONST>
1

>  <SCORE.INTER.POLAR>
0

>  <SCORE.INTER.ROT>
5

>  <SCORE.INTER.SOLV>
12.3935

>  <SCORE.INTER.VDW>
-16.9566

>  <SCORE.INTER.norm>
-0.883817

>  <SCORE.INTRA>
0.449697

>  <SCORE.INTRA.DIHEDRAL>
-0.740092

>  <SCORE.INTRA.DIHEDRAL.0>
2.93688

>  <SCORE.INTRA.POLAR>
0

>  <SCORE.INTRA.POLAR.0>
0

>  <SCORE.INTRA.REPUL>
0

>  <SCORE.INTRA.REPUL.0>
0

>  <SCORE.INTRA.SOLV>
0.803379

>  <SCORE.INTRA.SOLV.lig_0>
-32.2816

>  <SCORE.INTRA.VDW>
0.418053

>  <SCORE.INTRA.VDW.0>
-0.749945

>  <SCORE.INTRA.norm>
0.0449697

>  <SCORE.RESTR>
0

>  <SCORE.RESTR.CAVITY>
0

>  <SCORE.RESTR.norm>
0

>  <SCORE.SYSTEM>
0

>  <SCORE.SYSTEM.CONST>
0

>  <SCORE.SYSTEM.DIHEDRAL>
0

>  <SCORE.SYSTEM.SOLV>
0

>  <SCORE.SYSTEM.norm>
0

>  <SCORE.heavy>
10

>  <SCORE.norm>
-0.838847

>  <RMSD>
5.463

$$$$
ligand
 OpenBabel11021811473D
libRbt.so/2013.1/901 2013/11/27
 10  9  0  0  0  0  0  0  0  0999 V2000
   28.7424   16.7736   19.2979 N   0  0  0  0  0  0  0  0  0  0  0  0
   28.3625   15.3979   19.7382 C   0  0  2  0  0  0  0  0  0  0  0  0
   26.9647   15.0224   19.2471 C   0  0  0  0  0  0  0  0  0  0  0  0
   26.8059   14.1828   18.3627 O   0  0  0  0  0  0  0  0  0  0  0  0
   28.4872   15.2565   21.2598 C   0  0  0  0  0  0  0  0  0  0  0  0
   29.9336   15.3244   21.7487 C   0  0  0  0  0  0  0  0  0  0  0  0
   30.5313   16.7179   21.6113 C   0  0  0  0  0  0  0  0  0  0  0  0
   32.0106   16.7226   21.9841 C   0  0  0  0  0  0  0  0  0  0  0  0
   32.6434   18.0830   21.8838 N   0  0  0  0  0  0  0  0  0  0  0  0
   25.9412   15.5180   19.7275 O   0  0  0  0  0  0  0  0  0  0  0  0
  2  1  1  1  0  0  0
  2  3  1  0  0  0  0
  2  5  1  0  0  0  0
  3  4  1  0  0  0  0
  3 10  1  0  0  0  0
  5  6  1  0  0  0  0
  6  7  1  0  0  0  0
  7  8  1  0  0  0  0
  8  9  1  0  0  0  0
M  END
>  <CHROM.1>
109.13864920,-67.67689827,69.93376337,-174.68793935,-179.15411215,29.00173235
15.88625760,20.46882788,-3.02129156,0.59260436,2.25367070

>  <Name>
ligand

>  <RI>
0

>  <Rbt.Current_Directory>
/home/itssahil/PROJECTS/Mol_Feturizer/New_Systems/rnas/3DIL

>  <Rbt.Executable>
rbdock ($Id: //depot/dev/client3/rdock/2013.1/src/exe/rbdock.cxx#4 $)

>  <Rbt.Library>
libRbt.so (2013.1, Build901 2013/11/27)

>  <Rbt.Parameter_File>
/export/apps/rDock/src/rDock_2013.1_src/data/scripts/dock_solv.prm

>  <Rbt.Receptor>
prm/blind_docking_100.prm

>  <SCORE>
-8.3648

>  <SCORE.INTER>
-8.77872

>  <SCORE.INTER.CONST>
1

>  <SCORE.INTER.POLAR>
0

>  <SCORE.INTER.ROT>
5

>  <SCORE.INTER.SOLV>
12.9234

>  <SCORE.INTER.VDW>
-17.0936

>  <SCORE.INTER.norm>
-0.877872

>  <SCORE.INTRA>
0.413917

>  <SCORE.INTRA.DIHEDRAL>
-0.623451

>  <SCORE.INTRA.DIHEDRAL.0>
2.93688

>  <SCORE.INTRA.POLAR>
0

>  <SCORE.INTRA.POLAR.0>
0

>  <SCORE.INTRA.REPUL>
0

>  <SCORE.INTRA.REPUL.0>
0

>  <SCORE.INTRA.SOLV>
0.783394

>  <SCORE.INTRA.SOLV.lig_0>
-32.2816

>  <SCORE.INTRA.VDW>
0.333946

>  <SCORE.INTRA.VDW.0>
-0.749945

>  <SCORE.INTRA.norm>
0.0413917

>  <SCORE.RESTR>
0

>  <SCORE.RESTR.CAVITY>
0

>  <SCORE.RESTR.norm>
0

>  <SCORE.SYSTEM>
0

>  <SCORE.SYSTEM.CONST>
0

>  <SCORE.SYSTEM.DIHEDRAL>
0

>  <SCORE.SYSTEM.SOLV>
0

>  <SCORE.SYSTEM.norm>
0

>  <SCORE.heavy>
10

>  <SCORE.norm>
-0.83648

>  <RMSD>
5.465

$$$$
ligand
 OpenBabel11021811473D
libRbt.so/2013.1/901 2013/11/27
 10  9  0  0  0  0  0  0  0  0999 V2000
   25.5605   15.1660   20.3378 N   0  0  0  0  0  0  0  0  0  0  0  0
   26.9113   15.7195   20.0220 C   0  0  2  0  0  0  0  0  0  0  0  0
   27.3844   15.2772   18.6376 C   0  0  0  0  0  0  0  0  0  0  0  0
   28.0992   16.0026   17.9483 O   0  0  0  0  0  0  0  0  0  0  0  0
   27.9229   15.3498   21.1132 C   0  0  0  0  0  0  0  0  0  0  0  0
   29.2421   16.1111   20.9865 C   0  0  0  0  0  0  0  0  0  0  0  0
   30.2534   15.7074   22.0507 C   0  0  0  0  0  0  0  0  0  0  0  0
   31.5160   16.5590   21.9626 C   0  0  0  0  0  0  0  0  0  0  0  0
   32.2162   16.4465   20.6366 N   0  0  0  0  0  0  0  0  0  0  0  0
   27.0974   14.1741   18.1634 O   0  0  0  0  0  0  0  0  0  0  0  0
  2  1  1  1  0  0  0
  2  3  1  0  0  0  0
  2  5  1  0  0  0  0
  3  4  1  0  0  0  0
  3 10  1  0  0  0  0
  5  6  1  0  0  0  0
  6  7  1  0  0  0  0
  7  8  1  0  0  0  0
  8  9  1  0  0  0  0
M  END
>  <CHROM.1>
147.78858329,-168.72631995,-178.35761711,-175.65943998,-59.88827106,28.62154718
15.64039819,20.14951645,2.63939294,-0.22525874,-1.64628379

>  <Name>
ligand

>  <RI>
0

>  <Rbt.Current_Directory>
/home/itssahil/PROJECTS/Mol_Feturizer/New_Systems/rnas/3DIL

>  <Rbt.Executable>
rbdock ($Id: //depot/dev/client3/rdock/2013.1/src/exe/rbdock.cxx#4 $)

>  <Rbt.Library>
libRbt.so (2013.1, Build901 2013/11/27)

>  <Rbt.Parameter_File>
/export/apps/rDock/src/rDock_2013.1_src/data/scripts/dock_solv.prm

>  <Rbt.Receptor>
prm/blind_docking_60.prm

>  <SCORE>
-9.4314

>  <SCORE.INTER>
-8.64481

>  <SCORE.INTER.CONST>
1

>  <SCORE.INTER.POLAR>
0

>  <SCORE.INTER.ROT>
5

>  <SCORE.INTER.SOLV>
17.8754

>  <SCORE.INTER.VDW>
-18.655

>  <SCORE.INTER.norm>
-0.864481

>  <SCORE.INTRA>
-0.786591

>  <SCORE.INTRA.DIHEDRAL>
-0.93083

>  <SCORE.INTRA.DIHEDRAL.0>
2.93688

>  <SCORE.INTRA.POLAR>
0

>  <SCORE.INTRA.POLAR.0>
0

>  <SCORE.INTRA.REPUL>
0

>  <SCORE.INTRA.REPUL.0>
0

>  <SCORE.INTRA.SOLV>
-0.575087

>  <SCORE.INTRA.SOLV.lig_0>
-32.2816

>  <SCORE.INTRA.VDW>
-0.0336329

>  <SCORE.INTRA.VDW.0>
-0.749945

>  <SCORE.INTRA.norm>
-0.0786591

>  <SCORE.RESTR>
0

>  <SCORE.RESTR.CAVITY>
0

>  <SCORE.RESTR.norm>
0

>  <SCORE.SYSTEM>
0

>  <SCORE.SYSTEM.CONST>
0

>  <SCORE.SYSTEM.DIHEDRAL>
0

>  <SCORE.SYSTEM.SOLV>
0

>  <SCORE.SYSTEM.norm>
0

>  <SCORE.heavy>
10

>  <SCORE.norm>
-0.94314

>  <RMSD>
5.465

$$$$
ligand
 OpenBabel11021811473D
libRbt.so/2013.1/901 2013/11/27
 10  9  0  0  0  0  0  0  0  0999 V2000
   25.5632   15.1848   20.3339 N   0  0  0  0  0  0  0  0  0  0  0  0
   26.9195   15.7262   20.0212 C   0  0  2  0  0  0  0  0  0  0  0  0
   27.4052   15.2541   18.6512 C   0  0  0  0  0  0  0  0  0  0  0  0
   28.1380   15.9585   17.9590 O   0  0  0  0  0  0  0  0  0  0  0  0
   27.9181   15.3744   21.1303 C   0  0  0  0  0  0  0  0  0  0  0  0
   29.2497   16.1113   20.9899 C   0  0  0  0  0  0  0  0  0  0  0  0
   30.2522   15.7150   22.0652 C   0  0  0  0  0  0  0  0  0  0  0  0
   31.5063   16.5808   21.9958 C   0  0  0  0  0  0  0  0  0  0  0  0
   32.2796   16.4037   20.7184 N   0  0  0  0  0  0  0  0  0  0  0  0
   27.1105   14.1466   18.1922 O   0  0  0  0  0  0  0  0  0  0  0  0
  2  1  1  1  0  0  0
  2  3  1  0  0  0  0
  2  5  1  0  0  0  0
  3  4  1  0  0  0  0
  3 10  1  0  0  0  0
  5  6  1  0  0  0  0
  6  7  1  0  0  0  0
  7  8  1  0  0  0  0
  8  9  1  0  0  0  0
M  END
>  <CHROM.1>
148.31284418,-169.61539042,-177.81756960,-173.42982625,-64.17340420,28.63571322
15.63392371,20.16958378,2.63146074,-0.21280463,-1.67040538

>  <Name>
ligand

>  <RI>
0

>  <Rbt.Current_Directory>
/home/itssahil/PROJECTS/Mol_Feturizer/New_Systems/rnas/3DIL

>  <Rbt.Executable>
rbdock ($Id: //depot/dev/client3/rdock/2013.1/src/exe/rbdock.cxx#4 $)

>  <Rbt.Library>
libRbt.so (2013.1, Build901 2013/11/27)

>  <Rbt.Parameter_File>
/export/apps/rDock/src/rDock_2013.1_src/data/scripts/dock_solv.prm

>  <Rbt.Receptor>
prm/pocket_docking_4.prm

>  <SCORE>
-9.40034

>  <SCORE.INTER>
-8.60599

>  <SCORE.INTER.CONST>
1

>  <SCORE.INTER.POLAR>
0

>  <SCORE.INTER.ROT>
5

>  <SCORE.INTER.SOLV>
17.9197

>  <SCORE.INTER.VDW>
-18.6439

>  <SCORE.INTER.norm>
-0.860599

>  <SCORE.INTRA>
-0.794346

>  <SCORE.INTRA.DIHEDRAL>
-0.826247

>  <SCORE.INTRA.DIHEDRAL.0>
2.93688

>  <SCORE.INTRA.POLAR>
0

>  <SCORE.INTRA.POLAR.0>
0

>  <SCORE.INTRA.REPUL>
0

>  <SCORE.INTRA.REPUL.0>
0

>  <SCORE.INTRA.SOLV>
-0.646651

>  <SCORE.INTRA.SOLV.lig_0>
-32.2816

>  <SCORE.INTRA.VDW>
-0.0578966

>  <SCORE.INTRA.VDW.0>
-0.749945

>  <SCORE.INTRA.norm>
-0.0794346

>  <SCORE.RESTR>
0

>  <SCORE.RESTR.CAVITY>
0

>  <SCORE.RESTR.norm>
0

>  <SCORE.SYSTEM>
0

>  <SCORE.SYSTEM.CONST>
0

>  <SCORE.SYSTEM.DIHEDRAL>
0

>  <SCORE.SYSTEM.SOLV>
0

>  <SCORE.SYSTEM.norm>
0

>  <SCORE.heavy>
10

>  <SCORE.norm>
-0.940034

>  <RMSD>
5.465

$$$$
ligand
 OpenBabel11021811473D
libRbt.so/2013.1/901 2013/11/27
 10  9  0  0  0  0  0  0  0  0999 V2000
   28.5998   16.2865   19.2091 N   0  0  0  0  0  0  0  0  0  0  0  0
   28.1875   15.3996   20.3378 C   0  0  2  0  0  0  0  0  0  0  0  0
   26.6661   15.3340   20.4673 C   0  0  0  0  0  0  0  0  0  0  0  0
   25.9333   15.8067   19.6002 O   0  0  0  0  0  0  0  0  0  0  0  0
   28.8510   15.8382   21.6487 C   0  0  0  0  0  0  0  0  0  0  0  0
   30.3776   15.8101   21.5833 C   0  0  0  0  0  0  0  0  0  0  0  0
   30.9457   16.9309   20.7235 C   0  0  0  0  0  0  0  0  0  0  0  0
   32.4696   16.9567   20.7877 C   0  0  0  0  0  0  0  0  0  0  0  0
   33.0002   17.3009   22.1519 N   0  0  0  0  0  0  0  0  0  0  0  0
   26.1081   14.7867   21.4229 O   0  0  0  0  0  0  0  0  0  0  0  0
  2  1  1  6  0  0  0
  2  3  1  0  0  0  0
  2  5  1  0  0  0  0
  3  4  1  0  0  0  0
  3 10  1  0  0  0  0
  5  6  1  0  0  0  0
  6  7  1  0  0  0  0
  7  8  1  0  0  0  0
  8  9  1  0  0  0  0
M  END
>  <CHROM.1>
10.03569473,-59.50854285,72.16704673,174.51200083,-65.53633681,29.06851890
16.03866938,20.79330822,-3.07154684,0.31015169,1.91168637

>  <Name>
ligand

>  <RI>
0

>  <Rbt.Current_Directory>
/home/itssahil/PROJECTS/Mol_Feturizer/New_Systems/rnas/3DIL

>  <Rbt.Executable>
rbdock ($Id: //depot/dev/client3/rdock/2013.1/src/exe/rbdock.cxx#4 $)

>  <Rbt.Library>
libRbt.so (2013.1, Build901 2013/11/27)

>  <Rbt.Parameter_File>
/export/apps/rDock/src/rDock_2013.1_src/data/scripts/dock_solv.prm

>  <Rbt.Receptor>
prm/pocket_docking_4.prm

>  <SCORE>
-8.25215

>  <SCORE.INTER>
-9.62524

>  <SCORE.INTER.CONST>
1

>  <SCORE.INTER.POLAR>
0

>  <SCORE.INTER.ROT>
5

>  <SCORE.INTER.SOLV>
12.8056

>  <SCORE.INTER.VDW>
-17.6187

>  <SCORE.INTER.norm>
-0.962524

>  <SCORE.INTRA>
1.37309

>  <SCORE.INTRA.DIHEDRAL>
-0.610769

>  <SCORE.INTRA.DIHEDRAL.0>
2.93688

>  <SCORE.INTRA.POLAR>
0

>  <SCORE.INTRA.POLAR.0>
0

>  <SCORE.INTRA.REPUL>
0

>  <SCORE.INTRA.REPUL.0>
0

>  <SCORE.INTRA.SOLV>
1.8116

>  <SCORE.INTRA.SOLV.lig_0>
-32.2816

>  <SCORE.INTRA.VDW>
0.772676

>  <SCORE.INTRA.VDW.0>
-0.749945

>  <SCORE.INTRA.norm>
0.137309

>  <SCORE.RESTR>
0

>  <SCORE.RESTR.CAVITY>
0

>  <SCORE.RESTR.norm>
0

>  <SCORE.SYSTEM>
0

>  <SCORE.SYSTEM.CONST>
0

>  <SCORE.SYSTEM.DIHEDRAL>
0

>  <SCORE.SYSTEM.SOLV>
0

>  <SCORE.SYSTEM.norm>
0

>  <SCORE.heavy>
10

>  <SCORE.norm>
-0.825215

>  <RMSD>
5.465

$$$$
ligand
 OpenBabel11021811473D
libRbt.so/2013.1/901 2013/11/27
 10  9  0  0  0  0  0  0  0  0999 V2000
   25.5782   15.1827   20.3225 N   0  0  0  0  0  0  0  0  0  0  0  0
   26.9281   15.7332   19.9980 C   0  0  2  0  0  0  0  0  0  0  0  0
   27.4078   15.2587   18.6266 C   0  0  0  0  0  0  0  0  0  0  0  0
   27.0935   14.1525   18.1908 O   0  0  0  0  0  0  0  0  0  0  0  0
   27.9371   15.3939   21.1015 C   0  0  0  0  0  0  0  0  0  0  0  0
   29.2586   16.1473   20.9537 C   0  0  0  0  0  0  0  0  0  0  0  0
   30.2724   15.7625   22.0226 C   0  0  0  0  0  0  0  0  0  0  0  0
   31.5462   16.5929   21.8987 C   0  0  0  0  0  0  0  0  0  0  0  0
   32.2407   16.4202   20.5763 N   0  0  0  0  0  0  0  0  0  0  0  0
   28.1022   15.9650   17.8896 O   0  0  0  0  0  0  0  0  0  0  0  0
  2  1  1  1  0  0  0
  2  3  1  0  0  0  0
  2  5  1  0  0  0  0
  3  4  1  0  0  0  0
  3 10  1  0  0  0  0
  5  6  1  0  0  0  0
  6  7  1  0  0  0  0
  7  8  1  0  0  0  0
  8  9  1  0  0  0  0
M  END
>  <CHROM.1>
-32.30249119,-169.23995940,-177.75590643,-176.50170794,-60.38385340,28.63712520
15.64925931,20.12176130,2.64284545,-0.21971611,-1.66665811

>  <Name>
ligand

>  <RI>
0

>  <Rbt.Current_Directory>
/home/itssahil/PROJECTS/Mol_Feturizer/New_Systems/rnas/3DIL

>  <Rbt.Executable>
rbdock ($Id: //depot/dev/client3/rdock/2013.1/src/exe/rbdock.cxx#4 $)

>  <Rbt.Library>
libRbt.so (2013.1, Build901 2013/11/27)

>  <Rbt.Parameter_File>
/export/apps/rDock/src/rDock_2013.1_src/data/scripts/dock_solv.prm

>  <Rbt.Receptor>
prm/pocket_docking_6.prm

>  <SCORE>
-9.35346

>  <SCORE.INTER>
-8.60284

>  <SCORE.INTER.CONST>
1

>  <SCORE.INTER.POLAR>
0

>  <SCORE.INTER.ROT>
5

>  <SCORE.INTER.SOLV>
17.9729

>  <SCORE.INTER.VDW>
-18.6595

>  <SCORE.INTER.norm>
-0.860284

>  <SCORE.INTRA>
-0.750626

>  <SCORE.INTRA.DIHEDRAL>
-0.882563

>  <SCORE.INTRA.DIHEDRAL.0>
2.93688

>  <SCORE.INTRA.POLAR>
0

>  <SCORE.INTRA.POLAR.0>
0

>  <SCORE.INTRA.REPUL>
0

>  <SCORE.INTRA.REPUL.0>
0

>  <SCORE.INTRA.SOLV>
-0.565092

>  <SCORE.INTRA.SOLV.lig_0>
-32.2816

>  <SCORE.INTRA.VDW>
-0.0267988

>  <SCORE.INTRA.VDW.0>
-0.749945

>  <SCORE.INTRA.norm>
-0.0750626

>  <SCORE.RESTR>
0

>  <SCORE.RESTR.CAVITY>
0

>  <SCORE.RESTR.norm>
0

>  <SCORE.SYSTEM>
0

>  <SCORE.SYSTEM.CONST>
0

>  <SCORE.SYSTEM.DIHEDRAL>
0

>  <SCORE.SYSTEM.SOLV>
0

>  <SCORE.SYSTEM.norm>
0

>  <SCORE.heavy>
10

>  <SCORE.norm>
-0.935346

>  <RMSD>
5.466

$$$$
ligand
 OpenBabel11021811473D
libRbt.so/2013.1/901 2013/11/27
 10  9  0  0  0  0  0  0  0  0999 V2000
   25.5621   15.1995   20.3319 N   0  0  0  0  0  0  0  0  0  0  0  0
   26.9123   15.7476   20.0046 C   0  0  2  0  0  0  0  0  0  0  0  0
   27.4028   15.2457   18.6469 C   0  0  0  0  0  0  0  0  0  0  0  0
   27.1145   14.1204   18.2431 O   0  0  0  0  0  0  0  0  0  0  0  0
   27.9149   15.4356   21.1219 C   0  0  0  0  0  0  0  0  0  0  0  0
   29.2533   16.1506   20.9392 C   0  0  0  0  0  0  0  0  0  0  0  0
   30.2605   15.7897   22.0225 C   0  0  0  0  0  0  0  0  0  0  0  0
   31.5323   16.6219   21.8923 C   0  0  0  0  0  0  0  0  0  0  0  0
   32.2374   16.4263   20.5787 N   0  0  0  0  0  0  0  0  0  0  0  0
   28.0804   15.9467   17.8897 O   0  0  0  0  0  0  0  0  0  0  0  0
  2  1  1  1  0  0  0
  2  3  1  0  0  0  0
  2  5  1  0  0  0  0
  3  4  1  0  0  0  0
  3 10  1  0  0  0  0
  5  6  1  0  0  0  0
  6  7  1  0  0  0  0
  7  8  1  0  0  0  0
  8  9  1  0  0  0  0
M  END
>  <CHROM.1>
-33.58107723,-171.34592991,-177.65703643,-174.33687182,-60.40415206,28.62792297
15.65607864,20.13114441,2.64464953,-0.21579592,-1.68364153

>  <Name>
ligand

>  <RI>
0

>  <Rbt.Current_Directory>
/home/itssahil/PROJECTS/Mol_Feturizer/New_Systems/rnas/3DIL

>  <Rbt.Executable>
rbdock ($Id: //depot/dev/client3/rdock/2013.1/src/exe/rbdock.cxx#4 $)

>  <Rbt.Library>
libRbt.so (2013.1, Build901 2013/11/27)

>  <Rbt.Parameter_File>
/export/apps/rDock/src/rDock_2013.1_src/data/scripts/dock_solv.prm

>  <Rbt.Receptor>
prm/pocket_docking_6.prm

>  <SCORE>
-9.35837

>  <SCORE.INTER>
-8.59519

>  <SCORE.INTER.CONST>
1

>  <SCORE.INTER.POLAR>
0

>  <SCORE.INTER.ROT>
5

>  <SCORE.INTER.SOLV>
17.9672

>  <SCORE.INTER.VDW>
-18.6525

>  <SCORE.INTER.norm>
-0.859519

>  <SCORE.INTRA>
-0.763174

>  <SCORE.INTRA.DIHEDRAL>
-0.948685

>  <SCORE.INTRA.DIHEDRAL.0>
2.93688

>  <SCORE.INTRA.POLAR>
0

>  <SCORE.INTRA.POLAR.0>
0

>  <SCORE.INTRA.REPUL>
0

>  <SCORE.INTRA.REPUL.0>
0

>  <SCORE.INTRA.SOLV>
-0.577863

>  <SCORE.INTRA.SOLV.lig_0>
-32.2816

>  <SCORE.INTRA.VDW>
9.95893e-05

>  <SCORE.INTRA.VDW.0>
-0.749945

>  <SCORE.INTRA.norm>
-0.0763174

>  <SCORE.RESTR>
0

>  <SCORE.RESTR.CAVITY>
0

>  <SCORE.RESTR.norm>
0

>  <SCORE.SYSTEM>
0

>  <SCORE.SYSTEM.CONST>
0

>  <SCORE.SYSTEM.DIHEDRAL>
0

>  <SCORE.SYSTEM.SOLV>
0

>  <SCORE.SYSTEM.norm>
0

>  <SCORE.heavy>
10

>  <SCORE.norm>
-0.935837

>  <RMSD>
5.467

$$$$
ligand
 OpenBabel11021811473D
libRbt.so/2013.1/901 2013/11/27
 10  9  0  0  0  0  0  0  0  0999 V2000
   28.7432   16.6583   19.3044 N   0  0  0  0  0  0  0  0  0  0  0  0
   28.3523   15.3034   19.7965 C   0  0  2  0  0  0  0  0  0  0  0  0
   26.9706   14.9013   19.2815 C   0  0  0  0  0  0  0  0  0  0  0  0
   25.9462   15.2876   19.8417 O   0  0  0  0  0  0  0  0  0  0  0  0
   28.4312   15.2330   21.3261 C   0  0  0  0  0  0  0  0  0  0  0  0
   29.8630   15.3168   21.8541 C   0  0  0  0  0  0  0  0  0  0  0  0
   30.4964   16.6796   21.6094 C   0  0  0  0  0  0  0  0  0  0  0  0
   31.9630   16.6893   22.0292 C   0  0  0  0  0  0  0  0  0  0  0  0
   32.6271   18.0242   21.8343 N   0  0  0  0  0  0  0  0  0  0  0  0
   26.8190   14.2010   18.2762 O   0  0  0  0  0  0  0  0  0  0  0  0
  2  1  1  1  0  0  0
  2  3  1  0  0  0  0
  2  5  1  0  0  0  0
  3  4  1  0  0  0  0
  3 10  1  0  0  0  0
  5  6  1  0  0  0  0
  6  7  1  0  0  0  0
  7  8  1  0  0  0  0
  8  9  1  0  0  0  0
M  END
>  <CHROM.1>
-82.42133123,-68.12439256,67.19202648,-174.71004319,-178.76965220,28.98105219
15.81569873,20.49735401,-2.88878145,0.56219324,1.99973435

>  <Name>
ligand

>  <RI>
0

>  <Rbt.Current_Directory>
/home/itssahil/PROJECTS/Mol_Feturizer/New_Systems/rnas/3DIL

>  <Rbt.Executable>
rbdock ($Id: //depot/dev/client3/rdock/2013.1/src/exe/rbdock.cxx#4 $)

>  <Rbt.Library>
libRbt.so (2013.1, Build901 2013/11/27)

>  <Rbt.Parameter_File>
/export/apps/rDock/src/rDock_2013.1_src/data/scripts/dock_solv.prm

>  <Rbt.Receptor>
prm/pocket_docking_2.prm

>  <SCORE>
-8.3024

>  <SCORE.INTER>
-8.86534

>  <SCORE.INTER.CONST>
1

>  <SCORE.INTER.POLAR>
0

>  <SCORE.INTER.ROT>
5

>  <SCORE.INTER.SOLV>
12.5679

>  <SCORE.INTER.VDW>
-17.0329

>  <SCORE.INTER.norm>
-0.886534

>  <SCORE.INTRA>
0.562939

>  <SCORE.INTRA.DIHEDRAL>
-0.868063

>  <SCORE.INTRA.DIHEDRAL.0>
2.93688

>  <SCORE.INTRA.POLAR>
0

>  <SCORE.INTRA.POLAR.0>
0

>  <SCORE.INTRA.REPUL>
0

>  <SCORE.INTRA.REPUL.0>
0

>  <SCORE.INTRA.SOLV>
0.823138

>  <SCORE.INTRA.SOLV.lig_0>
-32.2816

>  <SCORE.INTRA.VDW>
0.585401

>  <SCORE.INTRA.VDW.0>
-0.749945

>  <SCORE.INTRA.norm>
0.0562939

>  <SCORE.RESTR>
0

>  <SCORE.RESTR.CAVITY>
0

>  <SCORE.RESTR.norm>
0

>  <SCORE.SYSTEM>
0

>  <SCORE.SYSTEM.CONST>
0

>  <SCORE.SYSTEM.DIHEDRAL>
0

>  <SCORE.SYSTEM.SOLV>
0

>  <SCORE.SYSTEM.norm>
0

>  <SCORE.heavy>
10

>  <SCORE.norm>
-0.83024

>  <RMSD>
5.468

$$$$
ligand
 OpenBabel11021811473D
libRbt.so/2013.1/901 2013/11/27
 10  9  0  0  0  0  0  0  0  0999 V2000
   28.4956   14.6305   19.0082 N   0  0  0  0  0  0  0  0  0  0  0  0
   28.1137   15.3605   20.2540 C   0  0  2  0  0  0  0  0  0  0  0  0
   26.6063   15.2954   20.4975 C   0  0  0  0  0  0  0  0  0  0  0  0
   26.1511   14.8603   21.5538 O   0  0  0  0  0  0  0  0  0  0  0  0
   28.6216   16.8067   20.2181 C   0  0  0  0  0  0  0  0  0  0  0  0
   30.1446   16.9063   20.2980 C   0  0  0  0  0  0  0  0  0  0  0  0
   30.6944   16.3932   21.6219 C   0  0  0  0  0  0  0  0  0  0  0  0
   32.1921   16.6596   21.7372 C   0  0  0  0  0  0  0  0  0  0  0  0
   32.5324   18.1234   21.7850 N   0  0  0  0  0  0  0  0  0  0  0  0
   25.7857   15.6964   19.6669 O   0  0  0  0  0  0  0  0  0  0  0  0
  2  1  1  6  0  0  0
  2  3  1  0  0  0  0
  2  5  1  0  0  0  0
  3  4  1  0  0  0  0
  3 10  1  0  0  0  0
  5  6  1  0  0  0  0
  6  7  1  0  0  0  0
  7  8  1  0  0  0  0
  8  9  1  0  0  0  0
M  END
>  <CHROM.1>
124.35155167,-68.25566006,-64.34074255,-173.18283998,65.05734357,28.88950993
16.06712037,20.66793880,-2.86227141,0.31065243,1.37498679

>  <Name>
ligand

>  <RI>
0

>  <Rbt.Current_Directory>
/home/itssahil/PROJECTS/Mol_Feturizer/New_Systems/rnas/3DIL

>  <Rbt.Executable>
rbdock ($Id: //depot/dev/client3/rdock/2013.1/src/exe/rbdock.cxx#4 $)

>  <Rbt.Library>
libRbt.so (2013.1, Build901 2013/11/27)

>  <Rbt.Parameter_File>
/export/apps/rDock/src/rDock_2013.1_src/data/scripts/dock_solv.prm

>  <Rbt.Receptor>
prm/blind_docking_60.prm

>  <SCORE>
-8.77696

>  <SCORE.INTER>
-8.8825

>  <SCORE.INTER.CONST>
1

>  <SCORE.INTER.POLAR>
0

>  <SCORE.INTER.ROT>
5

>  <SCORE.INTER.SOLV>
12.3776

>  <SCORE.INTER.VDW>
-16.9809

>  <SCORE.INTER.norm>
-0.88825

>  <SCORE.INTRA>
0.105545

>  <SCORE.INTRA.DIHEDRAL>
-0.784976

>  <SCORE.INTRA.DIHEDRAL.0>
2.93688

>  <SCORE.INTRA.POLAR>
0

>  <SCORE.INTRA.POLAR.0>
0

>  <SCORE.INTRA.REPUL>
0

>  <SCORE.INTRA.REPUL.0>
0

>  <SCORE.INTRA.SOLV>
0.684511

>  <SCORE.INTRA.SOLV.lig_0>
-32.2816

>  <SCORE.INTRA.VDW>
0.155778

>  <SCORE.INTRA.VDW.0>
-0.749945

>  <SCORE.INTRA.norm>
0.0105545

>  <SCORE.RESTR>
0

>  <SCORE.RESTR.CAVITY>
0

>  <SCORE.RESTR.norm>
0

>  <SCORE.SYSTEM>
0

>  <SCORE.SYSTEM.CONST>
0

>  <SCORE.SYSTEM.DIHEDRAL>
0

>  <SCORE.SYSTEM.SOLV>
0

>  <SCORE.SYSTEM.norm>
0

>  <SCORE.heavy>
10

>  <SCORE.norm>
-0.877696

>  <RMSD>
5.469

$$$$
ligand
 OpenBabel11021811473D
libRbt.so/2013.1/901 2013/11/27
 10  9  0  0  0  0  0  0  0  0999 V2000
   28.7396   16.6491   19.3519 N   0  0  0  0  0  0  0  0  0  0  0  0
   28.3813   15.2807   19.8312 C   0  0  2  0  0  0  0  0  0  0  0  0
   26.9831   14.8759   19.3653 C   0  0  0  0  0  0  0  0  0  0  0  0
   26.8226   14.1924   18.3556 O   0  0  0  0  0  0  0  0  0  0  0  0
   28.5240   15.1798   21.3545 C   0  0  0  0  0  0  0  0  0  0  0  0
   29.9738   15.2861   21.8263 C   0  0  0  0  0  0  0  0  0  0  0  0
   30.5504   16.6816   21.6304 C   0  0  0  0  0  0  0  0  0  0  0  0
   32.0294   16.7241   22.0018 C   0  0  0  0  0  0  0  0  0  0  0  0
   32.6357   18.0936   21.8674 N   0  0  0  0  0  0  0  0  0  0  0  0
   25.9638   15.1892   19.9872 O   0  0  0  0  0  0  0  0  0  0  0  0
  2  1  1  1  0  0  0
  2  3  1  0  0  0  0
  2  5  1  0  0  0  0
  3  4  1  0  0  0  0
  3 10  1  0  0  0  0
  5  6  1  0  0  0  0
  6  7  1  0  0  0  0
  7  8  1  0  0  0  0
  8  9  1  0  0  0  0
M  END
>  <CHROM.1>
96.38928533,-67.32751240,69.16091330,-175.26670928,-178.14884446,29.01987577
15.80059088,20.54061907,-2.93546679,0.57338196,2.04884982

>  <Name>
ligand

>  <RI>
0

>  <Rbt.Current_Directory>
/home/itssahil/PROJECTS/Mol_Feturizer/New_Systems/rnas/3DIL

>  <Rbt.Executable>
rbdock ($Id: //depot/dev/client3/rdock/2013.1/src/exe/rbdock.cxx#4 $)

>  <Rbt.Library>
libRbt.so (2013.1, Build901 2013/11/27)

>  <Rbt.Parameter_File>
/export/apps/rDock/src/rDock_2013.1_src/data/scripts/dock_solv.prm

>  <Rbt.Receptor>
prm/pocket_docking_7.prm

>  <SCORE>
-8.32499

>  <SCORE.INTER>
-8.88569

>  <SCORE.INTER.CONST>
1

>  <SCORE.INTER.POLAR>
0

>  <SCORE.INTER.ROT>
5

>  <SCORE.INTER.SOLV>
12.7185

>  <SCORE.INTER.VDW>
-17.0966

>  <SCORE.INTER.norm>
-0.888569

>  <SCORE.INTRA>
0.560703

>  <SCORE.INTRA.DIHEDRAL>
-0.697769

>  <SCORE.INTRA.DIHEDRAL.0>
2.93688

>  <SCORE.INTRA.POLAR>
0

>  <SCORE.INTRA.POLAR.0>
0

>  <SCORE.INTRA.REPUL>
0

>  <SCORE.INTRA.REPUL.0>
0

>  <SCORE.INTRA.SOLV>
0.799359

>  <SCORE.INTRA.SOLV.lig_0>
-32.2816

>  <SCORE.INTRA.VDW>
0.509907

>  <SCORE.INTRA.VDW.0>
-0.749945

>  <SCORE.INTRA.norm>
0.0560703

>  <SCORE.RESTR>
0

>  <SCORE.RESTR.CAVITY>
0

>  <SCORE.RESTR.norm>
0

>  <SCORE.SYSTEM>
0

>  <SCORE.SYSTEM.CONST>
0

>  <SCORE.SYSTEM.DIHEDRAL>
0

>  <SCORE.SYSTEM.SOLV>
0

>  <SCORE.SYSTEM.norm>
0

>  <SCORE.heavy>
10

>  <SCORE.norm>
-0.832499

>  <RMSD>
5.469

$$$$
ligand
 OpenBabel11021811473D
libRbt.so/2013.1/901 2013/11/27
 10  9  0  0  0  0  0  0  0  0999 V2000
   27.8410   14.8356   18.2082 N   0  0  0  0  0  0  0  0  0  0  0  0
   27.9662   14.8274   19.6964 C   0  0  2  0  0  0  0  0  0  0  0  0
   26.6283   15.1325   20.3693 C   0  0  0  0  0  0  0  0  0  0  0  0
   26.4404   14.8741   21.5569 O   0  0  0  0  0  0  0  0  0  0  0  0
   29.0669   15.7898   20.1582 C   0  0  0  0  0  0  0  0  0  0  0  0
   29.4653   15.5837   21.6192 C   0  0  0  0  0  0  0  0  0  0  0  0
   30.4028   16.6705   22.1274 C   0  0  0  0  0  0  0  0  0  0  0  0
   31.7398   16.6324   21.3939 C   0  0  0  0  0  0  0  0  0  0  0  0
   32.6876   17.7146   21.8316 N   0  0  0  0  0  0  0  0  0  0  0  0
   25.6943   15.6703   19.7673 O   0  0  0  0  0  0  0  0  0  0  0  0
  2  1  1  6  0  0  0
  2  3  1  0  0  0  0
  2  5  1  0  0  0  0
  3  4  1  0  0  0  0
  3 10  1  0  0  0  0
  5  6  1  0  0  0  0
  6  7  1  0  0  0  0
  7  8  1  0  0  0  0
  8  9  1  0  0  0  0
M  END
>  <CHROM.1>
162.97997577,-166.38282006,-171.46069531,-64.82234924,178.26325076,28.75347276
15.77485186,20.68405322,-2.76442815,0.28493327,1.37750869

>  <Name>
ligand

>  <RI>
0

>  <Rbt.Current_Directory>
/home/itssahil/PROJECTS/Mol_Feturizer/New_Systems/rnas/3DIL

>  <Rbt.Executable>
rbdock ($Id: //depot/dev/client3/rdock/2013.1/src/exe/rbdock.cxx#4 $)

>  <Rbt.Library>
libRbt.so (2013.1, Build901 2013/11/27)

>  <Rbt.Parameter_File>
/export/apps/rDock/src/rDock_2013.1_src/data/scripts/dock_solv.prm

>  <Rbt.Receptor>
prm/pocket_docking_3.prm

>  <SCORE>
-9.43694

>  <SCORE.INTER>
-9.25835

>  <SCORE.INTER.CONST>
1

>  <SCORE.INTER.POLAR>
0

>  <SCORE.INTER.ROT>
5

>  <SCORE.INTER.SOLV>
13.9357

>  <SCORE.INTER.VDW>
-17.7508

>  <SCORE.INTER.norm>
-0.925835

>  <SCORE.INTRA>
-0.178588

>  <SCORE.INTRA.DIHEDRAL>
-0.394104

>  <SCORE.INTRA.DIHEDRAL.0>
2.93688

>  <SCORE.INTRA.POLAR>
0

>  <SCORE.INTRA.POLAR.0>
0

>  <SCORE.INTRA.REPUL>
0

>  <SCORE.INTRA.REPUL.0>
0

>  <SCORE.INTRA.SOLV>
-1.25454

>  <SCORE.INTRA.SOLV.lig_0>
-32.2816

>  <SCORE.INTRA.VDW>
0.645732

>  <SCORE.INTRA.VDW.0>
-0.749945

>  <SCORE.INTRA.norm>
-0.0178588

>  <SCORE.RESTR>
0

>  <SCORE.RESTR.CAVITY>
0

>  <SCORE.RESTR.norm>
0

>  <SCORE.SYSTEM>
0

>  <SCORE.SYSTEM.CONST>
0

>  <SCORE.SYSTEM.DIHEDRAL>
0

>  <SCORE.SYSTEM.SOLV>
0

>  <SCORE.SYSTEM.norm>
0

>  <SCORE.heavy>
10

>  <SCORE.norm>
-0.943694

>  <RMSD>
5.471

$$$$
ligand
 OpenBabel11021811473D
libRbt.so/2013.1/901 2013/11/27
 10  9  0  0  0  0  0  0  0  0999 V2000
   28.6644   15.0637   18.8927 N   0  0  0  0  0  0  0  0  0  0  0  0
   28.2283   15.1004   20.3206 C   0  0  2  0  0  0  0  0  0  0  0  0
   26.7077   15.2028   20.4358 C   0  0  0  0  0  0  0  0  0  0  0  0
   26.1183   14.8091   21.4408 O   0  0  0  0  0  0  0  0  0  0  0  0
   28.9330   16.2313   21.0791 C   0  0  0  0  0  0  0  0  0  0  0  0
   30.4514   16.0638   21.1242 C   0  0  0  0  0  0  0  0  0  0  0  0
   31.1437   17.2092   21.8502 C   0  0  0  0  0  0  0  0  0  0  0  0
   32.6596   17.0404   21.8273 C   0  0  0  0  0  0  0  0  0  0  0  0
   33.2448   17.1213   20.4445 N   0  0  0  0  0  0  0  0  0  0  0  0
   26.0108   15.7035   19.5483 O   0  0  0  0  0  0  0  0  0  0  0  0
  2  1  1  6  0  0  0
  2  3  1  0  0  0  0
  2  5  1  0  0  0  0
  3  4  1  0  0  0  0
  3 10  1  0  0  0  0
  5  6  1  0  0  0  0
  6  7  1  0  0  0  0
  7  8  1  0  0  0  0
  8  9  1  0  0  0  0
M  END
>  <CHROM.1>
155.44829684,-61.98732710,178.61115004,-177.66645722,64.88266962,29.17048717
15.95182856,20.69742015,-2.92466506,0.26376345,1.35939431

>  <Name>
ligand

>  <RI>
0

>  <Rbt.Current_Directory>
/home/itssahil/PROJECTS/Mol_Feturizer/New_Systems/rnas/3DIL

>  <Rbt.Executable>
rbdock ($Id: //depot/dev/client3/rdock/2013.1/src/exe/rbdock.cxx#4 $)

>  <Rbt.Library>
libRbt.so (2013.1, Build901 2013/11/27)

>  <Rbt.Parameter_File>
/export/apps/rDock/src/rDock_2013.1_src/data/scripts/dock_solv.prm

>  <Rbt.Receptor>
prm/pocket_docking_5.prm

>  <SCORE>
-9.6804

>  <SCORE.INTER>
-9.14864

>  <SCORE.INTER.CONST>
1

>  <SCORE.INTER.POLAR>
0

>  <SCORE.INTER.ROT>
5

>  <SCORE.INTER.SOLV>
13.0372

>  <SCORE.INTER.VDW>
-17.3782

>  <SCORE.INTER.norm>
-0.914864

>  <SCORE.INTRA>
-0.531761

>  <SCORE.INTRA.DIHEDRAL>
-1.34027

>  <SCORE.INTRA.DIHEDRAL.0>
2.93688

>  <SCORE.INTRA.POLAR>
0

>  <SCORE.INTRA.POLAR.0>
0

>  <SCORE.INTRA.REPUL>
0

>  <SCORE.INTRA.REPUL.0>
0

>  <SCORE.INTRA.SOLV>
0.276754

>  <SCORE.INTRA.SOLV.lig_0>
-32.2816

>  <SCORE.INTRA.VDW>
-5.37987e-06

>  <SCORE.INTRA.VDW.0>
-0.749945

>  <SCORE.INTRA.norm>
-0.0531761

>  <SCORE.RESTR>
0

>  <SCORE.RESTR.CAVITY>
0

>  <SCORE.RESTR.norm>
0

>  <SCORE.SYSTEM>
0

>  <SCORE.SYSTEM.CONST>
0

>  <SCORE.SYSTEM.DIHEDRAL>
0

>  <SCORE.SYSTEM.SOLV>
0

>  <SCORE.SYSTEM.norm>
0

>  <SCORE.heavy>
10

>  <SCORE.norm>
-0.96804

>  <RMSD>
5.471

$$$$
ligand
 OpenBabel11021811473D
libRbt.so/2013.1/901 2013/11/27
 10  9  0  0  0  0  0  0  0  0999 V2000
   27.8230   14.8094   18.2219 N   0  0  0  0  0  0  0  0  0  0  0  0
   27.9527   14.8081   19.7098 C   0  0  2  0  0  0  0  0  0  0  0  0
   26.6237   15.1457   20.3848 C   0  0  0  0  0  0  0  0  0  0  0  0
   25.6958   15.6426   19.7489 O   0  0  0  0  0  0  0  0  0  0  0  0
   29.0750   15.7498   20.1621 C   0  0  0  0  0  0  0  0  0  0  0  0
   29.4434   15.5747   21.6350 C   0  0  0  0  0  0  0  0  0  0  0  0
   30.3804   16.6654   22.1358 C   0  0  0  0  0  0  0  0  0  0  0  0
   31.7420   16.5788   21.4533 C   0  0  0  0  0  0  0  0  0  0  0  0
   32.6821   17.6784   21.8633 N   0  0  0  0  0  0  0  0  0  0  0  0
   26.4122   14.9138   21.5788 O   0  0  0  0  0  0  0  0  0  0  0  0
  2  1  1  6  0  0  0
  2  3  1  0  0  0  0
  2  5  1  0  0  0  0
  3  4  1  0  0  0  0
  3 10  1  0  0  0  0
  5  6  1  0  0  0  0
  6  7  1  0  0  0  0
  7  8  1  0  0  0  0
  8  9  1  0  0  0  0
M  END
>  <CHROM.1>
-15.17713185,-168.18381848,-170.13787114,-66.16597828,177.09363646,28.74309137
15.75866232,20.70018520,-2.75532893,0.27277400,1.36281140

>  <Name>
ligand

>  <RI>
0

>  <Rbt.Current_Directory>
/home/itssahil/PROJECTS/Mol_Feturizer/New_Systems/rnas/3DIL

>  <Rbt.Executable>
rbdock ($Id: //depot/dev/client3/rdock/2013.1/src/exe/rbdock.cxx#4 $)

>  <Rbt.Library>
libRbt.so (2013.1, Build901 2013/11/27)

>  <Rbt.Parameter_File>
/export/apps/rDock/src/rDock_2013.1_src/data/scripts/dock_solv.prm

>  <Rbt.Receptor>
prm/pocket_docking_3.prm

>  <SCORE>
-9.38043

>  <SCORE.INTER>
-9.24501

>  <SCORE.INTER.CONST>
1

>  <SCORE.INTER.POLAR>
0

>  <SCORE.INTER.ROT>
5

>  <SCORE.INTER.SOLV>
13.9902

>  <SCORE.INTER.VDW>
-17.7601

>  <SCORE.INTER.norm>
-0.924501

>  <SCORE.INTRA>
-0.135428

>  <SCORE.INTRA.DIHEDRAL>
-0.291644

>  <SCORE.INTRA.DIHEDRAL.0>
2.93688

>  <SCORE.INTRA.POLAR>
0

>  <SCORE.INTRA.POLAR.0>
0

>  <SCORE.INTRA.REPUL>
0

>  <SCORE.INTRA.REPUL.0>
0

>  <SCORE.INTRA.SOLV>
-1.24697

>  <SCORE.INTRA.SOLV.lig_0>
-32.2816

>  <SCORE.INTRA.VDW>
0.63388

>  <SCORE.INTRA.VDW.0>
-0.749945

>  <SCORE.INTRA.norm>
-0.0135428

>  <SCORE.RESTR>
0

>  <SCORE.RESTR.CAVITY>
0

>  <SCORE.RESTR.norm>
0

>  <SCORE.SYSTEM>
0

>  <SCORE.SYSTEM.CONST>
0

>  <SCORE.SYSTEM.DIHEDRAL>
0

>  <SCORE.SYSTEM.SOLV>
0

>  <SCORE.SYSTEM.norm>
0

>  <SCORE.heavy>
10

>  <SCORE.norm>
-0.938043

>  <RMSD>
5.474

$$$$
ligand
 OpenBabel11021811473D
libRbt.so/2013.1/901 2013/11/27
 10  9  0  0  0  0  0  0  0  0999 V2000
   27.7974   14.8277   18.2163 N   0  0  0  0  0  0  0  0  0  0  0  0
   27.9397   14.8194   19.7031 C   0  0  2  0  0  0  0  0  0  0  0  0
   26.6142   15.1445   20.3910 C   0  0  0  0  0  0  0  0  0  0  0  0
   25.6833   15.6536   19.7692 O   0  0  0  0  0  0  0  0  0  0  0  0
   29.0595   15.7662   20.1508 C   0  0  0  0  0  0  0  0  0  0  0  0
   29.4438   15.5836   21.6187 C   0  0  0  0  0  0  0  0  0  0  0  0
   30.3813   16.6752   22.1167 C   0  0  0  0  0  0  0  0  0  0  0  0
   31.7189   16.6294   21.3847 C   0  0  0  0  0  0  0  0  0  0  0  0
   32.6469   17.7466   21.7742 N   0  0  0  0  0  0  0  0  0  0  0  0
   26.4087   14.8902   21.5814 O   0  0  0  0  0  0  0  0  0  0  0  0
  2  1  1  6  0  0  0
  2  3  1  0  0  0  0
  2  5  1  0  0  0  0
  3  4  1  0  0  0  0
  3 10  1  0  0  0  0
  5  6  1  0  0  0  0
  6  7  1  0  0  0  0
  7  8  1  0  0  0  0
  8  9  1  0  0  0  0
M  END
>  <CHROM.1>
-16.07262458,-168.04527165,-170.32375871,-64.16378292,176.07344444,28.72952619
15.77525717,20.68183274,-2.77004096,0.28876863,1.37554948

>  <Name>
ligand

>  <RI>
0

>  <Rbt.Current_Directory>
/home/itssahil/PROJECTS/Mol_Feturizer/New_Systems/rnas/3DIL

>  <Rbt.Executable>
rbdock ($Id: //depot/dev/client3/rdock/2013.1/src/exe/rbdock.cxx#4 $)

>  <Rbt.Library>
libRbt.so (2013.1, Build901 2013/11/27)

>  <Rbt.Parameter_File>
/export/apps/rDock/src/rDock_2013.1_src/data/scripts/dock_solv.prm

>  <Rbt.Receptor>
prm/pocket_docking_7.prm

>  <SCORE>
-9.3888

>  <SCORE.INTER>
-9.30005

>  <SCORE.INTER.CONST>
1

>  <SCORE.INTER.POLAR>
0

>  <SCORE.INTER.ROT>
5

>  <SCORE.INTER.SOLV>
13.8594

>  <SCORE.INTER.VDW>
-17.7532

>  <SCORE.INTER.norm>
-0.930005

>  <SCORE.INTRA>
-0.0887565

>  <SCORE.INTRA.DIHEDRAL>
-0.352194

>  <SCORE.INTRA.DIHEDRAL.0>
2.93688

>  <SCORE.INTRA.POLAR>
0

>  <SCORE.INTRA.POLAR.0>
0

>  <SCORE.INTRA.REPUL>
0

>  <SCORE.INTRA.REPUL.0>
0

>  <SCORE.INTRA.SOLV>
-1.22794

>  <SCORE.INTRA.SOLV.lig_0>
-32.2816

>  <SCORE.INTRA.VDW>
0.701309

>  <SCORE.INTRA.VDW.0>
-0.749945

>  <SCORE.INTRA.norm>
-0.00887565

>  <SCORE.RESTR>
0

>  <SCORE.RESTR.CAVITY>
0

>  <SCORE.RESTR.norm>
0

>  <SCORE.SYSTEM>
0

>  <SCORE.SYSTEM.CONST>
0

>  <SCORE.SYSTEM.DIHEDRAL>
0

>  <SCORE.SYSTEM.SOLV>
0

>  <SCORE.SYSTEM.norm>
0

>  <SCORE.heavy>
10

>  <SCORE.norm>
-0.93888

>  <RMSD>
5.474

$$$$
ligand
 OpenBabel11021811473D
libRbt.so/2013.1/901 2013/11/27
 10  9  0  0  0  0  0  0  0  0999 V2000
   26.9810   14.4779   18.3452 N   0  0  0  0  0  0  0  0  0  0  0  0
   27.6516   14.8191   19.6353 C   0  0  2  0  0  0  0  0  0  0  0  0
   26.6301   15.1407   20.7257 C   0  0  0  0  0  0  0  0  0  0  0  0
   25.4231   15.1264   20.4903 O   0  0  0  0  0  0  0  0  0  0  0  0
   28.6570   15.9608   19.4441 C   0  0  0  0  0  0  0  0  0  0  0  0
   29.4978   16.2305   20.6916 C   0  0  0  0  0  0  0  0  0  0  0  0
   30.4514   17.4035   20.5103 C   0  0  0  0  0  0  0  0  0  0  0  0
   31.2092   17.7025   21.8001 C   0  0  0  0  0  0  0  0  0  0  0  0
   32.1278   16.5887   22.2203 N   0  0  0  0  0  0  0  0  0  0  0  0
   26.9628   15.4002   21.8859 O   0  0  0  0  0  0  0  0  0  0  0  0
  2  1  1  6  0  0  0
  2  3  1  0  0  0  0
  2  5  1  0  0  0  0
  3  4  1  0  0  0  0
  3 10  1  0  0  0  0
  5  6  1  0  0  0  0
  6  7  1  0  0  0  0
  7  8  1  0  0  0  0
  8  9  1  0  0  0  0
M  END
>  <CHROM.1>
-1.33018458,-172.71635626,-177.58984038,176.32869228,64.86820122,28.52679477
15.88599446,20.59667859,-2.77492594,0.35381519,1.35573200

>  <Name>
ligand

>  <RI>
0

>  <Rbt.Current_Directory>
/home/itssahil/PROJECTS/Mol_Feturizer/New_Systems/rnas/3DIL

>  <Rbt.Executable>
rbdock ($Id: //depot/dev/client3/rdock/2013.1/src/exe/rbdock.cxx#4 $)

>  <Rbt.Library>
libRbt.so (2013.1, Build901 2013/11/27)

>  <Rbt.Parameter_File>
/export/apps/rDock/src/rDock_2013.1_src/data/scripts/dock_solv.prm

>  <Rbt.Receptor>
prm/pocket_docking_8.prm

>  <SCORE>
-8.22532

>  <SCORE.INTER>
-7.75806

>  <SCORE.INTER.CONST>
1

>  <SCORE.INTER.POLAR>
0

>  <SCORE.INTER.ROT>
5

>  <SCORE.INTER.SOLV>
16.8817

>  <SCORE.INTER.VDW>
-17.7326

>  <SCORE.INTER.norm>
-0.775806

>  <SCORE.INTRA>
-0.46726

>  <SCORE.INTRA.DIHEDRAL>
-1.06076

>  <SCORE.INTRA.DIHEDRAL.0>
2.93688

>  <SCORE.INTRA.POLAR>
0

>  <SCORE.INTRA.POLAR.0>
0

>  <SCORE.INTRA.REPUL>
0

>  <SCORE.INTRA.REPUL.0>
0

>  <SCORE.INTRA.SOLV>
-0.628746

>  <SCORE.INTRA.SOLV.lig_0>
-32.2816

>  <SCORE.INTRA.VDW>
0.377495

>  <SCORE.INTRA.VDW.0>
-0.749945

>  <SCORE.INTRA.norm>
-0.046726

>  <SCORE.RESTR>
0

>  <SCORE.RESTR.CAVITY>
0

>  <SCORE.RESTR.norm>
0

>  <SCORE.SYSTEM>
0

>  <SCORE.SYSTEM.CONST>
0

>  <SCORE.SYSTEM.DIHEDRAL>
0

>  <SCORE.SYSTEM.SOLV>
0

>  <SCORE.SYSTEM.norm>
0

>  <SCORE.heavy>
10

>  <SCORE.norm>
-0.822532

>  <RMSD>
5.474

$$$$
ligand
 OpenBabel11021811473D
libRbt.so/2013.1/901 2013/11/27
 10  9  0  0  0  0  0  0  0  0999 V2000
   28.4864   15.7265   19.2533 N   0  0  0  0  0  0  0  0  0  0  0  0
   27.8660   15.0689   20.4422 C   0  0  2  0  0  0  0  0  0  0  0  0
   26.3443   15.2107   20.4260 C   0  0  0  0  0  0  0  0  0  0  0  0
   25.7717   15.8151   19.5209 O   0  0  0  0  0  0  0  0  0  0  0  0
   28.4729   15.6063   21.7436 C   0  0  0  0  0  0  0  0  0  0  0  0
   29.8847   15.0823   22.0045 C   0  0  0  0  0  0  0  0  0  0  0  0
   30.9332   15.7781   21.1472 C   0  0  0  0  0  0  0  0  0  0  0  0
   31.2391   17.1757   21.6764 C   0  0  0  0  0  0  0  0  0  0  0  0
   32.4123   17.8244   20.9954 N   0  0  0  0  0  0  0  0  0  0  0  0
   25.6255   14.7088   21.2951 O   0  0  0  0  0  0  0  0  0  0  0  0
  2  1  1  6  0  0  0
  2  3  1  0  0  0  0
  2  5  1  0  0  0  0
  3  4  1  0  0  0  0
  3 10  1  0  0  0  0
  5  6  1  0  0  0  0
  6  7  1  0  0  0  0
  7  8  1  0  0  0  0
  8  9  1  0  0  0  0
M  END
>  <CHROM.1>
-0.60447455,-74.06376295,76.75885581,76.00875445,171.25812277,28.65878633
15.79799137,20.84726058,3.13773359,0.34461382,2.09499470

>  <Name>
ligand

>  <RI>
0

>  <Rbt.Current_Directory>
/home/itssahil/PROJECTS/Mol_Feturizer/New_Systems/rnas/3DIL

>  <Rbt.Executable>
rbdock ($Id: //depot/dev/client3/rdock/2013.1/src/exe/rbdock.cxx#4 $)

>  <Rbt.Library>
libRbt.so (2013.1, Build901 2013/11/27)

>  <Rbt.Parameter_File>
/export/apps/rDock/src/rDock_2013.1_src/data/scripts/dock_solv.prm

>  <Rbt.Receptor>
prm/pocket_docking_8.prm

>  <SCORE>
-7.39002

>  <SCORE.INTER>
-9.17212

>  <SCORE.INTER.CONST>
1

>  <SCORE.INTER.POLAR>
0

>  <SCORE.INTER.ROT>
5

>  <SCORE.INTER.SOLV>
11.7131

>  <SCORE.INTER.VDW>
-16.9524

>  <SCORE.INTER.norm>
-0.917212

>  <SCORE.INTRA>
1.78211

>  <SCORE.INTRA.DIHEDRAL>
1.75468

>  <SCORE.INTRA.DIHEDRAL.0>
2.93688

>  <SCORE.INTRA.POLAR>
0

>  <SCORE.INTRA.POLAR.0>
0

>  <SCORE.INTRA.REPUL>
0

>  <SCORE.INTRA.REPUL.0>
0

>  <SCORE.INTRA.SOLV>
0.94576

>  <SCORE.INTRA.SOLV.lig_0>
-32.2816

>  <SCORE.INTRA.VDW>
0.431884

>  <SCORE.INTRA.VDW.0>
-0.749945

>  <SCORE.INTRA.norm>
0.178211

>  <SCORE.RESTR>
0

>  <SCORE.RESTR.CAVITY>
0

>  <SCORE.RESTR.norm>
0

>  <SCORE.SYSTEM>
0

>  <SCORE.SYSTEM.CONST>
0

>  <SCORE.SYSTEM.DIHEDRAL>
0

>  <SCORE.SYSTEM.SOLV>
0

>  <SCORE.SYSTEM.norm>
0

>  <SCORE.heavy>
10

>  <SCORE.norm>
-0.739002

>  <RMSD>
5.476

$$$$
ligand
 OpenBabel11021811473D
libRbt.so/2013.1/901 2013/11/27
 10  9  0  0  0  0  0  0  0  0999 V2000
   28.5222   17.0923   19.4675 N   0  0  0  0  0  0  0  0  0  0  0  0
   28.3516   15.6281   19.7076 C   0  0  2  0  0  0  0  0  0  0  0  0
   26.9843   15.1410   19.2290 C   0  0  0  0  0  0  0  0  0  0  0  0
   25.9460   15.5648   19.7337 O   0  0  0  0  0  0  0  0  0  0  0  0
   28.5934   15.2837   21.1820 C   0  0  0  0  0  0  0  0  0  0  0  0
   30.0675   15.3594   21.5785 C   0  0  0  0  0  0  0  0  0  0  0  0
   30.6038   16.7843   21.5622 C   0  0  0  0  0  0  0  0  0  0  0  0
   32.0885   16.8186   21.9109 C   0  0  0  0  0  0  0  0  0  0  0  0
   32.6565   18.2103   21.9512 N   0  0  0  0  0  0  0  0  0  0  0  0
   26.8584   14.3297   18.3070 O   0  0  0  0  0  0  0  0  0  0  0  0
  2  1  1  1  0  0  0
  2  3  1  0  0  0  0
  2  5  1  0  0  0  0
  3  4  1  0  0  0  0
  3 10  1  0  0  0  0
  5  6  1  0  0  0  0
  6  7  1  0  0  0  0
  7  8  1  0  0  0  0
  8  9  1  0  0  0  0
M  END
>  <CHROM.1>
-62.85114393,-72.66614645,68.28905779,-177.86195382,-178.16524396,29.02713676
16.00612022,20.44558314,3.05121368,0.58972205,2.63529813

>  <Name>
ligand

>  <RI>
0

>  <Rbt.Current_Directory>
/home/itssahil/PROJECTS/Mol_Feturizer/New_Systems/rnas/3DIL

>  <Rbt.Executable>
rbdock ($Id: //depot/dev/client3/rdock/2013.1/src/exe/rbdock.cxx#4 $)

>  <Rbt.Library>
libRbt.so (2013.1, Build901 2013/11/27)

>  <Rbt.Parameter_File>
/export/apps/rDock/src/rDock_2013.1_src/data/scripts/dock_solv.prm

>  <Rbt.Receptor>
prm/blind_docking_100.prm

>  <SCORE>
-8.23376

>  <SCORE.INTER>
-8.55482

>  <SCORE.INTER.CONST>
1

>  <SCORE.INTER.POLAR>
0

>  <SCORE.INTER.ROT>
5

>  <SCORE.INTER.SOLV>
14.2826

>  <SCORE.INTER.VDW>
-17.3974

>  <SCORE.INTER.norm>
-0.855482

>  <SCORE.INTRA>
0.321053

>  <SCORE.INTRA.DIHEDRAL>
-0.487958

>  <SCORE.INTRA.DIHEDRAL.0>
2.93688

>  <SCORE.INTRA.POLAR>
0

>  <SCORE.INTRA.POLAR.0>
0

>  <SCORE.INTRA.REPUL>
0

>  <SCORE.INTRA.REPUL.0>
0

>  <SCORE.INTRA.SOLV>
0.658688

>  <SCORE.INTRA.SOLV.lig_0>
-32.2816

>  <SCORE.INTRA.VDW>
0.235688

>  <SCORE.INTRA.VDW.0>
-0.749945

>  <SCORE.INTRA.norm>
0.0321053

>  <SCORE.RESTR>
0

>  <SCORE.RESTR.CAVITY>
0

>  <SCORE.RESTR.norm>
0

>  <SCORE.SYSTEM>
0

>  <SCORE.SYSTEM.CONST>
0

>  <SCORE.SYSTEM.DIHEDRAL>
0

>  <SCORE.SYSTEM.SOLV>
0

>  <SCORE.SYSTEM.norm>
0

>  <SCORE.heavy>
10

>  <SCORE.norm>
-0.823376

>  <RMSD>
5.477

$$$$
ligand
 OpenBabel11021811473D
libRbt.so/2013.1/901 2013/11/27
 10  9  0  0  0  0  0  0  0  0999 V2000
   28.6508   15.1007   18.9666 N   0  0  0  0  0  0  0  0  0  0  0  0
   28.1789   15.0856   20.3835 C   0  0  2  0  0  0  0  0  0  0  0  0
   26.6579   15.2108   20.4651 C   0  0  0  0  0  0  0  0  0  0  0  0
   26.0381   14.8028   21.4458 O   0  0  0  0  0  0  0  0  0  0  0  0
   28.8833   16.1708   21.2064 C   0  0  0  0  0  0  0  0  0  0  0  0
   30.4058   16.0378   21.1901 C   0  0  0  0  0  0  0  0  0  0  0  0
   31.0973   17.1528   21.9627 C   0  0  0  0  0  0  0  0  0  0  0  0
   32.6150   17.0275   21.8717 C   0  0  0  0  0  0  0  0  0  0  0  0
   33.1415   17.1974   20.4735 N   0  0  0  0  0  0  0  0  0  0  0  0
   25.9909   15.7447   19.5740 O   0  0  0  0  0  0  0  0  0  0  0  0
  2  1  1  6  0  0  0
  2  3  1  0  0  0  0
  2  5  1  0  0  0  0
  3  4  1  0  0  0  0
  3 10  1  0  0  0  0
  5  6  1  0  0  0  0
  6  7  1  0  0  0  0
  7  8  1  0  0  0  0
  8  9  1  0  0  0  0
M  END
>  <CHROM.1>
156.45831946,-57.40832993,177.64909006,-177.33002216,64.22130383,29.12024535
15.95083764,20.75417224,-2.93150386,0.27130598,1.39783359

>  <Name>
ligand

>  <RI>
0

>  <Rbt.Current_Directory>
/home/itssahil/PROJECTS/Mol_Feturizer/New_Systems/rnas/3DIL

>  <Rbt.Executable>
rbdock ($Id: //depot/dev/client3/rdock/2013.1/src/exe/rbdock.cxx#4 $)

>  <Rbt.Library>
libRbt.so (2013.1, Build901 2013/11/27)

>  <Rbt.Parameter_File>
/export/apps/rDock/src/rDock_2013.1_src/data/scripts/dock_solv.prm

>  <Rbt.Receptor>
prm/pocket_docking_4.prm

>  <SCORE>
-9.57435

>  <SCORE.INTER>
-9.1432

>  <SCORE.INTER.CONST>
1

>  <SCORE.INTER.POLAR>
0

>  <SCORE.INTER.ROT>
5

>  <SCORE.INTER.SOLV>
12.7894

>  <SCORE.INTER.VDW>
-17.2919

>  <SCORE.INTER.norm>
-0.91432

>  <SCORE.INTRA>
-0.431144

>  <SCORE.INTRA.DIHEDRAL>
-1.34013

>  <SCORE.INTRA.DIHEDRAL.0>
2.93688

>  <SCORE.INTRA.POLAR>
0

>  <SCORE.INTRA.POLAR.0>
0

>  <SCORE.INTRA.REPUL>
0

>  <SCORE.INTRA.REPUL.0>
0

>  <SCORE.INTRA.SOLV>
0.352307

>  <SCORE.INTRA.SOLV.lig_0>
-32.2816

>  <SCORE.INTRA.VDW>
0.062769

>  <SCORE.INTRA.VDW.0>
-0.749945

>  <SCORE.INTRA.norm>
-0.0431144

>  <SCORE.RESTR>
0

>  <SCORE.RESTR.CAVITY>
0

>  <SCORE.RESTR.norm>
0

>  <SCORE.SYSTEM>
0

>  <SCORE.SYSTEM.CONST>
0

>  <SCORE.SYSTEM.DIHEDRAL>
0

>  <SCORE.SYSTEM.SOLV>
0

>  <SCORE.SYSTEM.norm>
0

>  <SCORE.heavy>
10

>  <SCORE.norm>
-0.957435

>  <RMSD>
5.478

$$$$
ligand
 OpenBabel11021811473D
libRbt.so/2013.1/901 2013/11/27
 10  9  0  0  0  0  0  0  0  0999 V2000
   28.6284   15.1151   18.9602 N   0  0  0  0  0  0  0  0  0  0  0  0
   28.1451   15.0646   20.3725 C   0  0  2  0  0  0  0  0  0  0  0  0
   26.6255   15.2101   20.4465 C   0  0  0  0  0  0  0  0  0  0  0  0
   25.9900   15.7194   19.5250 O   0  0  0  0  0  0  0  0  0  0  0  0
   28.8590   16.1138   21.2329 C   0  0  0  0  0  0  0  0  0  0  0  0
   30.3790   15.9548   21.2288 C   0  0  0  0  0  0  0  0  0  0  0  0
   31.0830   17.0544   22.0122 C   0  0  0  0  0  0  0  0  0  0  0  0
   32.5973   16.9618   21.8530 C   0  0  0  0  0  0  0  0  0  0  0  0
   33.0574   17.1518   20.4342 N   0  0  0  0  0  0  0  0  0  0  0  0
   25.9698   14.8043   21.4105 O   0  0  0  0  0  0  0  0  0  0  0  0
  2  1  1  6  0  0  0
  2  3  1  0  0  0  0
  2  5  1  0  0  0  0
  3  4  1  0  0  0  0
  3 10  1  0  0  0  0
  5  6  1  0  0  0  0
  6  7  1  0  0  0  0
  7  8  1  0  0  0  0
  8  9  1  0  0  0  0
M  END
>  <CHROM.1>
-21.11613236,-57.65730106,176.29324196,-173.32933859,62.51896003,29.08768790
15.91284181,20.74702763,-2.93628233,0.26791111,1.42899490

>  <Name>
ligand

>  <RI>
0

>  <Rbt.Current_Directory>
/home/itssahil/PROJECTS/Mol_Feturizer/New_Systems/rnas/3DIL

>  <Rbt.Executable>
rbdock ($Id: //depot/dev/client3/rdock/2013.1/src/exe/rbdock.cxx#4 $)

>  <Rbt.Library>
libRbt.so (2013.1, Build901 2013/11/27)

>  <Rbt.Parameter_File>
/export/apps/rDock/src/rDock_2013.1_src/data/scripts/dock_solv.prm

>  <Rbt.Receptor>
prm/pocket_docking_6.prm

>  <SCORE>
-9.53963

>  <SCORE.INTER>
-9.2946

>  <SCORE.INTER.CONST>
1

>  <SCORE.INTER.POLAR>
0

>  <SCORE.INTER.ROT>
5

>  <SCORE.INTER.SOLV>
12.7338

>  <SCORE.INTER.VDW>
-17.3743

>  <SCORE.INTER.norm>
-0.92946

>  <SCORE.INTRA>
-0.245031

>  <SCORE.INTRA.DIHEDRAL>
-1.09546

>  <SCORE.INTRA.DIHEDRAL.0>
2.93688

>  <SCORE.INTRA.POLAR>
0

>  <SCORE.INTRA.POLAR.0>
0

>  <SCORE.INTRA.REPUL>
0

>  <SCORE.INTRA.REPUL.0>
0

>  <SCORE.INTRA.SOLV>
0.416469

>  <SCORE.INTRA.SOLV.lig_0>
-32.2816

>  <SCORE.INTRA.VDW>
0.0944674

>  <SCORE.INTRA.VDW.0>
-0.749945

>  <SCORE.INTRA.norm>
-0.0245031

>  <SCORE.RESTR>
0

>  <SCORE.RESTR.CAVITY>
0

>  <SCORE.RESTR.norm>
0

>  <SCORE.SYSTEM>
0

>  <SCORE.SYSTEM.CONST>
0

>  <SCORE.SYSTEM.DIHEDRAL>
0

>  <SCORE.SYSTEM.SOLV>
0

>  <SCORE.SYSTEM.norm>
0

>  <SCORE.heavy>
10

>  <SCORE.norm>
-0.953963

>  <RMSD>
5.478

$$$$
ligand
 OpenBabel11021811473D
libRbt.so/2013.1/901 2013/11/27
 10  9  0  0  0  0  0  0  0  0999 V2000
   27.8451   14.8253   18.1906 N   0  0  0  0  0  0  0  0  0  0  0  0
   27.9577   14.8184   19.6799 C   0  0  2  0  0  0  0  0  0  0  0  0
   26.6141   15.1238   20.3413 C   0  0  0  0  0  0  0  0  0  0  0  0
   26.3964   14.8137   21.5112 O   0  0  0  0  0  0  0  0  0  0  0  0
   29.0544   15.7812   20.1501 C   0  0  0  0  0  0  0  0  0  0  0  0
   29.4276   15.5885   21.6196 C   0  0  0  0  0  0  0  0  0  0  0  0
   30.3808   16.6627   22.1254 C   0  0  0  0  0  0  0  0  0  0  0  0
   31.7400   16.5606   21.4403 C   0  0  0  0  0  0  0  0  0  0  0  0
   32.6962   17.6446   21.8547 N   0  0  0  0  0  0  0  0  0  0  0  0
   25.7054   15.7125   19.7483 O   0  0  0  0  0  0  0  0  0  0  0  0
  2  1  1  6  0  0  0
  2  3  1  0  0  0  0
  2  5  1  0  0  0  0
  3  4  1  0  0  0  0
  3 10  1  0  0  0  0
  5  6  1  0  0  0  0
  6  7  1  0  0  0  0
  7  8  1  0  0  0  0
  8  9  1  0  0  0  0
M  END
>  <CHROM.1>
159.79320202,-167.12922803,-172.49766849,-66.43905494,177.05776002,28.74185112
15.75496379,20.67699428,-2.75943072,0.27637841,1.38019312

>  <Name>
ligand

>  <RI>
0

>  <Rbt.Current_Directory>
/home/itssahil/PROJECTS/Mol_Feturizer/New_Systems/rnas/3DIL

>  <Rbt.Executable>
rbdock ($Id: //depot/dev/client3/rdock/2013.1/src/exe/rbdock.cxx#4 $)

>  <Rbt.Library>
libRbt.so (2013.1, Build901 2013/11/27)

>  <Rbt.Parameter_File>
/export/apps/rDock/src/rDock_2013.1_src/data/scripts/dock_solv.prm

>  <Rbt.Receptor>
prm/pocket_docking_3.prm

>  <SCORE>
-9.43117

>  <SCORE.INTER>
-9.14037

>  <SCORE.INTER.CONST>
1

>  <SCORE.INTER.POLAR>
0

>  <SCORE.INTER.ROT>
5

>  <SCORE.INTER.SOLV>
14.0778

>  <SCORE.INTER.VDW>
-17.7195

>  <SCORE.INTER.norm>
-0.914037

>  <SCORE.INTRA>
-0.290801

>  <SCORE.INTRA.DIHEDRAL>
-0.440128

>  <SCORE.INTRA.DIHEDRAL.0>
2.93688

>  <SCORE.INTRA.POLAR>
0

>  <SCORE.INTRA.POLAR.0>
0

>  <SCORE.INTRA.REPUL>
0

>  <SCORE.INTRA.REPUL.0>
0

>  <SCORE.INTRA.SOLV>
-1.25943

>  <SCORE.INTRA.SOLV.lig_0>
-32.2816

>  <SCORE.INTRA.VDW>
0.558977

>  <SCORE.INTRA.VDW.0>
-0.749945

>  <SCORE.INTRA.norm>
-0.0290801

>  <SCORE.RESTR>
0

>  <SCORE.RESTR.CAVITY>
0

>  <SCORE.RESTR.norm>
0

>  <SCORE.SYSTEM>
0

>  <SCORE.SYSTEM.CONST>
0

>  <SCORE.SYSTEM.DIHEDRAL>
0

>  <SCORE.SYSTEM.SOLV>
0

>  <SCORE.SYSTEM.norm>
0

>  <SCORE.heavy>
10

>  <SCORE.norm>
-0.943117

>  <RMSD>
5.479

$$$$
ligand
 OpenBabel11021811473D
libRbt.so/2013.1/901 2013/11/27
 10  9  0  0  0  0  0  0  0  0999 V2000
   28.8081   14.4390   21.9490 N   0  0  0  0  0  0  0  0  0  0  0  0
   28.4690   15.6130   21.0903 C   0  0  2  0  0  0  0  0  0  0  0  0
   27.0052   15.5780   20.6522 C   0  0  0  0  0  0  0  0  0  0  0  0
   26.1749   14.9063   21.2621 O   0  0  0  0  0  0  0  0  0  0  0  0
   29.4191   15.7059   19.8905 C   0  0  0  0  0  0  0  0  0  0  0  0
   30.8876   15.8154   20.2994 C   0  0  0  0  0  0  0  0  0  0  0  0
   31.1848   17.0939   21.0711 C   0  0  0  0  0  0  0  0  0  0  0  0
   32.6519   17.1604   21.4837 C   0  0  0  0  0  0  0  0  0  0  0  0
   32.9890   18.3903   22.2804 N   0  0  0  0  0  0  0  0  0  0  0  0
   26.5872   16.2348   19.6941 O   0  0  0  0  0  0  0  0  0  0  0  0
  2  1  1  6  0  0  0
  2  3  1  0  0  0  0
  2  5  1  0  0  0  0
  3  4  1  0  0  0  0
  3 10  1  0  0  0  0
  5  6  1  0  0  0  0
  6  7  1  0  0  0  0
  7  8  1  0  0  0  0
  8  9  1  0  0  0  0
M  END
>  <CHROM.1>
19.92928821,-58.06011794,-63.87734077,179.05076857,-178.53438238,29.37359278
16.08978055,20.95688581,-3.00432810,-0.36733166,-0.80255902

>  <Name>
ligand

>  <RI>
0

>  <Rbt.Current_Directory>
/home/itssahil/PROJECTS/Mol_Feturizer/New_Systems/rnas/3DIL

>  <Rbt.Executable>
rbdock ($Id: //depot/dev/client3/rdock/2013.1/src/exe/rbdock.cxx#4 $)

>  <Rbt.Library>
libRbt.so (2013.1, Build901 2013/11/27)

>  <Rbt.Parameter_File>
/export/apps/rDock/src/rDock_2013.1_src/data/scripts/dock_solv.prm

>  <Rbt.Receptor>
prm/blind_docking_60.prm

>  <SCORE>
-7.53178

>  <SCORE.INTER>
-7.40298

>  <SCORE.INTER.CONST>
1

>  <SCORE.INTER.POLAR>
0

>  <SCORE.INTER.ROT>
5

>  <SCORE.INTER.SOLV>
16.959

>  <SCORE.INTER.VDW>
-17.5216

>  <SCORE.INTER.norm>
-0.740298

>  <SCORE.INTRA>
-0.128806

>  <SCORE.INTRA.DIHEDRAL>
-1.38769

>  <SCORE.INTRA.DIHEDRAL.0>
2.93688

>  <SCORE.INTRA.POLAR>
0

>  <SCORE.INTRA.POLAR.0>
0

>  <SCORE.INTRA.REPUL>
0

>  <SCORE.INTRA.REPUL.0>
0

>  <SCORE.INTRA.SOLV>
0.00992643

>  <SCORE.INTRA.SOLV.lig_0>
-32.2816

>  <SCORE.INTRA.VDW>
0.560075

>  <SCORE.INTRA.VDW.0>
-0.749945

>  <SCORE.INTRA.norm>
-0.0128806

>  <SCORE.RESTR>
0

>  <SCORE.RESTR.CAVITY>
0

>  <SCORE.RESTR.norm>
0

>  <SCORE.SYSTEM>
0

>  <SCORE.SYSTEM.CONST>
0

>  <SCORE.SYSTEM.DIHEDRAL>
0

>  <SCORE.SYSTEM.SOLV>
0

>  <SCORE.SYSTEM.norm>
0

>  <SCORE.heavy>
10

>  <SCORE.norm>
-0.753178

>  <RMSD>
5.480

$$$$
ligand
 OpenBabel11021811473D
libRbt.so/2013.1/901 2013/11/27
 10  9  0  0  0  0  0  0  0  0999 V2000
   27.8593   15.1381   18.3189 N   0  0  0  0  0  0  0  0  0  0  0  0
   27.7904   14.7240   19.7522 C   0  0  2  0  0  0  0  0  0  0  0  0
   26.4781   15.1683   20.3976 C   0  0  0  0  0  0  0  0  0  0  0  0
   25.5915   15.7018   19.7330 O   0  0  0  0  0  0  0  0  0  0  0  0
   29.0083   15.2377   20.5292 C   0  0  0  0  0  0  0  0  0  0  0  0
   29.1457   16.7592   20.4851 C   0  0  0  0  0  0  0  0  0  0  0  0
   30.4209   17.2497   21.1572 C   0  0  0  0  0  0  0  0  0  0  0  0
   31.6581   16.8042   20.3838 C   0  0  0  0  0  0  0  0  0  0  0  0
   32.9406   17.3423   20.9553 N   0  0  0  0  0  0  0  0  0  0  0  0
   26.2386   14.9908   21.5955 O   0  0  0  0  0  0  0  0  0  0  0  0
  2  1  1  6  0  0  0
  2  3  1  0  0  0  0
  2  5  1  0  0  0  0
  3  4  1  0  0  0  0
  3 10  1  0  0  0  0
  5  6  1  0  0  0  0
  6  7  1  0  0  0  0
  7  8  1  0  0  0  0
  8  9  1  0  0  0  0
M  END
>  <CHROM.1>
5.21725408,58.67625706,-175.08689838,66.62735931,176.08811768,28.67294979
15.91479301,20.34349245,-2.94621012,0.29620099,1.29116913

>  <Name>
ligand

>  <RI>
0

>  <Rbt.Current_Directory>
/home/itssahil/PROJECTS/Mol_Feturizer/New_Systems/rnas/3DIL

>  <Rbt.Executable>
rbdock ($Id: //depot/dev/client3/rdock/2013.1/src/exe/rbdock.cxx#4 $)

>  <Rbt.Library>
libRbt.so (2013.1, Build901 2013/11/27)

>  <Rbt.Parameter_File>
/export/apps/rDock/src/rDock_2013.1_src/data/scripts/dock_solv.prm

>  <Rbt.Receptor>
prm/pocket_docking_4.prm

>  <SCORE>
-8.5112

>  <SCORE.INTER>
-8.6195

>  <SCORE.INTER.CONST>
1

>  <SCORE.INTER.POLAR>
0

>  <SCORE.INTER.ROT>
5

>  <SCORE.INTER.SOLV>
13.77

>  <SCORE.INTER.VDW>
-17.2697

>  <SCORE.INTER.norm>
-0.86195

>  <SCORE.INTRA>
0.108301

>  <SCORE.INTRA.DIHEDRAL>
-1.08758

>  <SCORE.INTRA.DIHEDRAL.0>
2.93688

>  <SCORE.INTRA.POLAR>
0

>  <SCORE.INTRA.POLAR.0>
0

>  <SCORE.INTRA.REPUL>
0

>  <SCORE.INTRA.REPUL.0>
0

>  <SCORE.INTRA.SOLV>
-0.297916

>  <SCORE.INTRA.SOLV.lig_0>
-32.2816

>  <SCORE.INTRA.VDW>
0.801048

>  <SCORE.INTRA.VDW.0>
-0.749945

>  <SCORE.INTRA.norm>
0.0108301

>  <SCORE.RESTR>
0

>  <SCORE.RESTR.CAVITY>
0

>  <SCORE.RESTR.norm>
0

>  <SCORE.SYSTEM>
0

>  <SCORE.SYSTEM.CONST>
0

>  <SCORE.SYSTEM.DIHEDRAL>
0

>  <SCORE.SYSTEM.SOLV>
0

>  <SCORE.SYSTEM.norm>
0

>  <SCORE.heavy>
10

>  <SCORE.norm>
-0.85112

>  <RMSD>
5.480

$$$$
ligand
 OpenBabel11021811473D
libRbt.so/2013.1/901 2013/11/27
 10  9  0  0  0  0  0  0  0  0999 V2000
   27.8721   14.8967   18.3435 N   0  0  0  0  0  0  0  0  0  0  0  0
   27.7964   14.6446   19.8136 C   0  0  2  0  0  0  0  0  0  0  0  0
   26.4807   15.1565   20.3992 C   0  0  0  0  0  0  0  0  0  0  0  0
   26.1957   14.9703   21.5809 O   0  0  0  0  0  0  0  0  0  0  0  0
   29.0101   15.2429   20.5346 C   0  0  0  0  0  0  0  0  0  0  0  0
   29.1684   16.7435   20.2915 C   0  0  0  0  0  0  0  0  0  0  0  0
   30.4026   17.3181   20.9733 C   0  0  0  0  0  0  0  0  0  0  0  0
   31.6823   16.7627   20.3560 C   0  0  0  0  0  0  0  0  0  0  0  0
   32.9321   17.3238   20.9758 N   0  0  0  0  0  0  0  0  0  0  0  0
   25.6646   15.7960   19.7291 O   0  0  0  0  0  0  0  0  0  0  0  0
  2  1  1  6  0  0  0
  2  3  1  0  0  0  0
  2  5  1  0  0  0  0
  3  4  1  0  0  0  0
  3 10  1  0  0  0  0
  5  6  1  0  0  0  0
  6  7  1  0  0  0  0
  7  8  1  0  0  0  0
  8  9  1  0  0  0  0
M  END
>  <CHROM.1>
175.62926182,57.12528944,-178.06176678,66.40443020,178.72993987,28.68061243
15.89065170,20.31190782,-2.92834186,0.28533016,1.19824059

>  <Name>
ligand

>  <RI>
0

>  <Rbt.Current_Directory>
/home/itssahil/PROJECTS/Mol_Feturizer/New_Systems/rnas/3DIL

>  <Rbt.Executable>
rbdock ($Id: //depot/dev/client3/rdock/2013.1/src/exe/rbdock.cxx#4 $)

>  <Rbt.Library>
libRbt.so (2013.1, Build901 2013/11/27)

>  <Rbt.Parameter_File>
/export/apps/rDock/src/rDock_2013.1_src/data/scripts/dock_solv.prm

>  <Rbt.Receptor>
prm/pocket_docking_8.prm

>  <SCORE>
-8.70372

>  <SCORE.INTER>
-8.65563

>  <SCORE.INTER.CONST>
1

>  <SCORE.INTER.POLAR>
0

>  <SCORE.INTER.ROT>
5

>  <SCORE.INTER.SOLV>
13.6888

>  <SCORE.INTER.VDW>
-17.2667

>  <SCORE.INTER.norm>
-0.865563

>  <SCORE.INTRA>
-0.0480894

>  <SCORE.INTRA.DIHEDRAL>
-1.21285

>  <SCORE.INTRA.DIHEDRAL.0>
2.93688

>  <SCORE.INTRA.POLAR>
0

>  <SCORE.INTRA.POLAR.0>
0

>  <SCORE.INTRA.REPUL>
0

>  <SCORE.INTRA.REPUL.0>
0

>  <SCORE.INTRA.SOLV>
-0.331981

>  <SCORE.INTRA.SOLV.lig_0>
-32.2816

>  <SCORE.INTRA.VDW>
0.724327

>  <SCORE.INTRA.VDW.0>
-0.749945

>  <SCORE.INTRA.norm>
-0.00480894

>  <SCORE.RESTR>
0

>  <SCORE.RESTR.CAVITY>
0

>  <SCORE.RESTR.norm>
0

>  <SCORE.SYSTEM>
0

>  <SCORE.SYSTEM.CONST>
0

>  <SCORE.SYSTEM.DIHEDRAL>
0

>  <SCORE.SYSTEM.SOLV>
0

>  <SCORE.SYSTEM.norm>
0

>  <SCORE.heavy>
10

>  <SCORE.norm>
-0.870372

>  <RMSD>
5.480

$$$$
ligand
 OpenBabel11021811473D
libRbt.so/2013.1/901 2013/11/27
 10  9  0  0  0  0  0  0  0  0999 V2000
   28.6200   15.0935   18.9602 N   0  0  0  0  0  0  0  0  0  0  0  0
   28.1355   15.0229   20.3712 C   0  0  2  0  0  0  0  0  0  0  0  0
   26.6167   15.1754   20.4466 C   0  0  0  0  0  0  0  0  0  0  0  0
   25.9853   14.7756   21.4232 O   0  0  0  0  0  0  0  0  0  0  0  0
   28.8544   16.0545   21.2487 C   0  0  0  0  0  0  0  0  0  0  0  0
   30.3741   15.8924   21.2367 C   0  0  0  0  0  0  0  0  0  0  0  0
   31.0832   16.9797   22.0324 C   0  0  0  0  0  0  0  0  0  0  0  0
   32.5963   16.8915   21.8594 C   0  0  0  0  0  0  0  0  0  0  0  0
   33.0500   17.1714   20.4534 N   0  0  0  0  0  0  0  0  0  0  0  0
   25.9634   15.7242   19.5543 O   0  0  0  0  0  0  0  0  0  0  0  0
  2  1  1  6  0  0  0
  2  3  1  0  0  0  0
  2  5  1  0  0  0  0
  3  4  1  0  0  0  0
  3 10  1  0  0  0  0
  5  6  1  0  0  0  0
  6  7  1  0  0  0  0
  7  8  1  0  0  0  0
  8  9  1  0  0  0  0
M  END
>  <CHROM.1>
158.92678296,-57.32971679,176.00257382,-172.97744707,65.31986577,29.08220187
15.87662511,20.75858879,-2.94290128,0.26938493,1.45358530

>  <Name>
ligand

>  <RI>
0

>  <Rbt.Current_Directory>
/home/itssahil/PROJECTS/Mol_Feturizer/New_Systems/rnas/3DIL

>  <Rbt.Executable>
rbdock ($Id: //depot/dev/client3/rdock/2013.1/src/exe/rbdock.cxx#4 $)

>  <Rbt.Library>
libRbt.so (2013.1, Build901 2013/11/27)

>  <Rbt.Parameter_File>
/export/apps/rDock/src/rDock_2013.1_src/data/scripts/dock_solv.prm

>  <Rbt.Receptor>
prm/blind_docking_60.prm

>  <SCORE>
-9.64974

>  <SCORE.INTER>
-9.36248

>  <SCORE.INTER.CONST>
1

>  <SCORE.INTER.POLAR>
0

>  <SCORE.INTER.ROT>
5

>  <SCORE.INTER.SOLV>
12.8052

>  <SCORE.INTER.VDW>
-17.4434

>  <SCORE.INTER.norm>
-0.936248

>  <SCORE.INTRA>
-0.287256

>  <SCORE.INTRA.DIHEDRAL>
-1.07891

>  <SCORE.INTRA.DIHEDRAL.0>
2.93688

>  <SCORE.INTRA.POLAR>
0

>  <SCORE.INTRA.POLAR.0>
0

>  <SCORE.INTRA.REPUL>
0

>  <SCORE.INTRA.REPUL.0>
0

>  <SCORE.INTRA.SOLV>
0.373827

>  <SCORE.INTRA.SOLV.lig_0>
-32.2816

>  <SCORE.INTRA.VDW>
0.0652867

>  <SCORE.INTRA.VDW.0>
-0.749945

>  <SCORE.INTRA.norm>
-0.0287256

>  <SCORE.RESTR>
0

>  <SCORE.RESTR.CAVITY>
0

>  <SCORE.RESTR.norm>
0

>  <SCORE.SYSTEM>
0

>  <SCORE.SYSTEM.CONST>
0

>  <SCORE.SYSTEM.DIHEDRAL>
0

>  <SCORE.SYSTEM.SOLV>
0

>  <SCORE.SYSTEM.norm>
0

>  <SCORE.heavy>
10

>  <SCORE.norm>
-0.964974

>  <RMSD>
5.483

$$$$
ligand
 OpenBabel11021811473D
libRbt.so/2013.1/901 2013/11/27
 10  9  0  0  0  0  0  0  0  0999 V2000
   28.6524   15.0419   18.9617 N   0  0  0  0  0  0  0  0  0  0  0  0
   28.1784   15.0577   20.3780 C   0  0  2  0  0  0  0  0  0  0  0  0
   26.6568   15.1797   20.4545 C   0  0  0  0  0  0  0  0  0  0  0  0
   26.0094   15.6537   19.5226 O   0  0  0  0  0  0  0  0  0  0  0  0
   28.8780   16.1638   21.1767 C   0  0  0  0  0  0  0  0  0  0  0  0
   30.3990   16.0150   21.1957 C   0  0  0  0  0  0  0  0  0  0  0  0
   31.0870   17.1489   21.9436 C   0  0  0  0  0  0  0  0  0  0  0  0
   32.6049   17.0133   21.8752 C   0  0  0  0  0  0  0  0  0  0  0  0
   33.1486   17.1305   20.4781 N   0  0  0  0  0  0  0  0  0  0  0  0
   26.0117   14.7886   21.4317 O   0  0  0  0  0  0  0  0  0  0  0  0
  2  1  1  6  0  0  0
  2  3  1  0  0  0  0
  2  5  1  0  0  0  0
  3  4  1  0  0  0  0
  3 10  1  0  0  0  0
  5  6  1  0  0  0  0
  6  7  1  0  0  0  0
  7  8  1  0  0  0  0
  8  9  1  0  0  0  0
M  END
>  <CHROM.1>
-22.64308416,-58.89051880,177.68351694,-176.73467410,63.85092481,29.11681925
15.91645368,20.74136927,-2.92050201,0.26785960,1.37269650

>  <Name>
ligand

>  <RI>
0

>  <Rbt.Current_Directory>
/home/itssahil/PROJECTS/Mol_Feturizer/New_Systems/rnas/3DIL

>  <Rbt.Executable>
rbdock ($Id: //depot/dev/client3/rdock/2013.1/src/exe/rbdock.cxx#4 $)

>  <Rbt.Library>
libRbt.so (2013.1, Build901 2013/11/27)

>  <Rbt.Parameter_File>
/export/apps/rDock/src/rDock_2013.1_src/data/scripts/dock_solv.prm

>  <Rbt.Receptor>
prm/pocket_docking_3.prm

>  <SCORE>
-9.51912

>  <SCORE.INTER>
-9.13231

>  <SCORE.INTER.CONST>
1

>  <SCORE.INTER.POLAR>
0

>  <SCORE.INTER.ROT>
5

>  <SCORE.INTER.SOLV>
12.8697

>  <SCORE.INTER.VDW>
-17.3114

>  <SCORE.INTER.norm>
-0.913231

>  <SCORE.INTRA>
-0.386814

>  <SCORE.INTRA.DIHEDRAL>
-1.25095

>  <SCORE.INTRA.DIHEDRAL.0>
2.93688

>  <SCORE.INTRA.POLAR>
0

>  <SCORE.INTRA.POLAR.0>
0

>  <SCORE.INTRA.REPUL>
0

>  <SCORE.INTRA.REPUL.0>
0

>  <SCORE.INTRA.SOLV>
0.354055

>  <SCORE.INTRA.SOLV.lig_0>
-32.2816

>  <SCORE.INTRA.VDW>
0.0616355

>  <SCORE.INTRA.VDW.0>
-0.749945

>  <SCORE.INTRA.norm>
-0.0386814

>  <SCORE.RESTR>
0

>  <SCORE.RESTR.CAVITY>
0

>  <SCORE.RESTR.norm>
0

>  <SCORE.SYSTEM>
0

>  <SCORE.SYSTEM.CONST>
0

>  <SCORE.SYSTEM.DIHEDRAL>
0

>  <SCORE.SYSTEM.SOLV>
0

>  <SCORE.SYSTEM.norm>
0

>  <SCORE.heavy>
10

>  <SCORE.norm>
-0.951912

>  <RMSD>
5.483

$$$$
ligand
 OpenBabel11021811473D
libRbt.so/2013.1/901 2013/11/27
 10  9  0  0  0  0  0  0  0  0999 V2000
   28.6029   15.0654   18.9672 N   0  0  0  0  0  0  0  0  0  0  0  0
   28.1240   15.0206   20.3812 C   0  0  2  0  0  0  0  0  0  0  0  0
   26.6062   15.1820   20.4603 C   0  0  0  0  0  0  0  0  0  0  0  0
   25.9748   14.7846   21.4380 O   0  0  0  0  0  0  0  0  0  0  0  0
   28.8516   16.0629   21.2385 C   0  0  0  0  0  0  0  0  0  0  0  0
   30.3720   15.9122   21.1983 C   0  0  0  0  0  0  0  0  0  0  0  0
   31.0856   16.9714   22.0273 C   0  0  0  0  0  0  0  0  0  0  0  0
   32.5975   16.8913   21.8408 C   0  0  0  0  0  0  0  0  0  0  0  0
   33.0358   17.1563   20.4271 N   0  0  0  0  0  0  0  0  0  0  0  0
   25.9541   15.7357   19.5703 O   0  0  0  0  0  0  0  0  0  0  0  0
  2  1  1  6  0  0  0
  2  3  1  0  0  0  0
  2  5  1  0  0  0  0
  3  4  1  0  0  0  0
  3 10  1  0  0  0  0
  5  6  1  0  0  0  0
  6  7  1  0  0  0  0
  7  8  1  0  0  0  0
  8  9  1  0  0  0  0
M  END
>  <CHROM.1>
157.89892040,-56.05805469,178.69402292,-173.58544174,62.52089680,29.07477233
15.87696672,20.75506809,-2.94567840,0.26606590,1.44223666

>  <Name>
ligand

>  <RI>
0

>  <Rbt.Current_Directory>
/home/itssahil/PROJECTS/Mol_Feturizer/New_Systems/rnas/3DIL

>  <Rbt.Executable>
rbdock ($Id: //depot/dev/client3/rdock/2013.1/src/exe/rbdock.cxx#4 $)

>  <Rbt.Library>
libRbt.so (2013.1, Build901 2013/11/27)

>  <Rbt.Parameter_File>
/export/apps/rDock/src/rDock_2013.1_src/data/scripts/dock_solv.prm

>  <Rbt.Receptor>
prm/pocket_docking_6.prm

>  <SCORE>
-9.65162

>  <SCORE.INTER>
-9.34639

>  <SCORE.INTER.CONST>
1

>  <SCORE.INTER.POLAR>
0

>  <SCORE.INTER.ROT>
5

>  <SCORE.INTER.SOLV>
12.8236

>  <SCORE.INTER.VDW>
-17.4388

>  <SCORE.INTER.norm>
-0.934639

>  <SCORE.INTRA>
-0.305224

>  <SCORE.INTRA.DIHEDRAL>
-1.22559

>  <SCORE.INTRA.DIHEDRAL.0>
2.93688

>  <SCORE.INTRA.POLAR>
0

>  <SCORE.INTRA.POLAR.0>
0

>  <SCORE.INTRA.REPUL>
0

>  <SCORE.INTRA.REPUL.0>
0

>  <SCORE.INTRA.SOLV>
0.410832

>  <SCORE.INTRA.SOLV.lig_0>
-32.2816

>  <SCORE.INTRA.VDW>
0.102156

>  <SCORE.INTRA.VDW.0>
-0.749945

>  <SCORE.INTRA.norm>
-0.0305224

>  <SCORE.RESTR>
0

>  <SCORE.RESTR.CAVITY>
0

>  <SCORE.RESTR.norm>
0

>  <SCORE.SYSTEM>
0

>  <SCORE.SYSTEM.CONST>
0

>  <SCORE.SYSTEM.DIHEDRAL>
0

>  <SCORE.SYSTEM.SOLV>
0

>  <SCORE.SYSTEM.norm>
0

>  <SCORE.heavy>
10

>  <SCORE.norm>
-0.965162

>  <RMSD>
5.483

$$$$
ligand
 OpenBabel11021811473D
libRbt.so/2013.1/901 2013/11/27
 10  9  0  0  0  0  0  0  0  0999 V2000
   28.5770   15.2188   18.9557 N   0  0  0  0  0  0  0  0  0  0  0  0
   28.1208   15.1028   20.3731 C   0  0  2  0  0  0  0  0  0  0  0  0
   26.6025   15.2391   20.4823 C   0  0  0  0  0  0  0  0  0  0  0  0
   25.9464   15.7741   19.5902 O   0  0  0  0  0  0  0  0  0  0  0  0
   28.8479   16.1148   21.2664 C   0  0  0  0  0  0  0  0  0  0  0  0
   30.3678   15.9591   21.2298 C   0  0  0  0  0  0  0  0  0  0  0  0
   31.0832   17.0190   22.0563 C   0  0  0  0  0  0  0  0  0  0  0  0
   32.5964   16.9182   21.8914 C   0  0  0  0  0  0  0  0  0  0  0  0
   33.0569   17.1590   20.4804 N   0  0  0  0  0  0  0  0  0  0  0  0
   25.9681   14.8005   21.4463 O   0  0  0  0  0  0  0  0  0  0  0  0
  2  1  1  6  0  0  0
  2  3  1  0  0  0  0
  2  5  1  0  0  0  0
  3  4  1  0  0  0  0
  3 10  1  0  0  0  0
  5  6  1  0  0  0  0
  6  7  1  0  0  0  0
  7  8  1  0  0  0  0
  8  9  1  0  0  0  0
M  END
>  <CHROM.1>
-20.31227649,-57.83558508,176.68359049,-174.54300909,62.42697332,29.07091107
15.92827581,20.77734848,-2.94861565,0.26643917,1.47190634

>  <Name>
ligand

>  <RI>
0

>  <Rbt.Current_Directory>
/home/itssahil/PROJECTS/Mol_Feturizer/New_Systems/rnas/3DIL

>  <Rbt.Executable>
rbdock ($Id: //depot/dev/client3/rdock/2013.1/src/exe/rbdock.cxx#4 $)

>  <Rbt.Library>
libRbt.so (2013.1, Build901 2013/11/27)

>  <Rbt.Parameter_File>
/export/apps/rDock/src/rDock_2013.1_src/data/scripts/dock_solv.prm

>  <Rbt.Receptor>
prm/pocket_docking_6.prm

>  <SCORE>
-9.56885

>  <SCORE.INTER>
-9.28349

>  <SCORE.INTER.CONST>
1

>  <SCORE.INTER.POLAR>
0

>  <SCORE.INTER.ROT>
5

>  <SCORE.INTER.SOLV>
12.4946

>  <SCORE.INTER.VDW>
-17.2872

>  <SCORE.INTER.norm>
-0.928349

>  <SCORE.INTRA>
-0.28536

>  <SCORE.INTRA.DIHEDRAL>
-1.17295

>  <SCORE.INTRA.DIHEDRAL.0>
2.93688

>  <SCORE.INTRA.POLAR>
0

>  <SCORE.INTRA.POLAR.0>
0

>  <SCORE.INTRA.REPUL>
0

>  <SCORE.INTRA.REPUL.0>
0

>  <SCORE.INTRA.SOLV>
0.406121

>  <SCORE.INTRA.SOLV.lig_0>
-32.2816

>  <SCORE.INTRA.VDW>
0.0980545

>  <SCORE.INTRA.VDW.0>
-0.749945

>  <SCORE.INTRA.norm>
-0.028536

>  <SCORE.RESTR>
0

>  <SCORE.RESTR.CAVITY>
0

>  <SCORE.RESTR.norm>
0

>  <SCORE.SYSTEM>
0

>  <SCORE.SYSTEM.CONST>
0

>  <SCORE.SYSTEM.DIHEDRAL>
0

>  <SCORE.SYSTEM.SOLV>
0

>  <SCORE.SYSTEM.norm>
0

>  <SCORE.heavy>
10

>  <SCORE.norm>
-0.956885

>  <RMSD>
5.484

$$$$
ligand
 OpenBabel11021811473D
libRbt.so/2013.1/901 2013/11/27
 10  9  0  0  0  0  0  0  0  0999 V2000
   28.8728   14.3105   21.9073 N   0  0  0  0  0  0  0  0  0  0  0  0
   28.5154   15.5576   21.1674 C   0  0  2  0  0  0  0  0  0  0  0  0
   27.0526   15.5425   20.7247 C   0  0  0  0  0  0  0  0  0  0  0  0
   26.2251   14.8287   21.2888 O   0  0  0  0  0  0  0  0  0  0  0  0
   29.4646   15.7832   19.9846 C   0  0  0  0  0  0  0  0  0  0  0  0
   30.9291   15.8936   20.4076 C   0  0  0  0  0  0  0  0  0  0  0  0
   31.2016   17.1326   21.2495 C   0  0  0  0  0  0  0  0  0  0  0  0
   32.6816   17.2454   21.6016 C   0  0  0  0  0  0  0  0  0  0  0  0
   33.0045   18.4612   22.4254 N   0  0  0  0  0  0  0  0  0  0  0  0
   26.6326   16.2567   19.8096 O   0  0  0  0  0  0  0  0  0  0  0  0
  2  1  1  6  0  0  0
  2  3  1  0  0  0  0
  2  5  1  0  0  0  0
  3  4  1  0  0  0  0
  3 10  1  0  0  0  0
  5  6  1  0  0  0  0
  6  7  1  0  0  0  0
  7  8  1  0  0  0  0
  8  9  1  0  0  0  0
M  END
>  <CHROM.1>
22.00625888,-58.80734597,-66.01404843,-177.45411383,179.55334484,29.41396370
16.09736691,21.04609413,-2.92885964,-0.35958621,-0.61305518

>  <Name>
ligand

>  <RI>
0

>  <Rbt.Current_Directory>
/home/itssahil/PROJECTS/Mol_Feturizer/New_Systems/rnas/3DIL

>  <Rbt.Executable>
rbdock ($Id: //depot/dev/client3/rdock/2013.1/src/exe/rbdock.cxx#4 $)

>  <Rbt.Library>
libRbt.so (2013.1, Build901 2013/11/27)

>  <Rbt.Parameter_File>
/export/apps/rDock/src/rDock_2013.1_src/data/scripts/dock_solv.prm

>  <Rbt.Receptor>
prm/pocket_docking_7.prm

>  <SCORE>
-7.49486

>  <SCORE.INTER>
-7.36239

>  <SCORE.INTER.CONST>
1

>  <SCORE.INTER.POLAR>
0

>  <SCORE.INTER.ROT>
5

>  <SCORE.INTER.SOLV>
17.4855

>  <SCORE.INTER.VDW>
-17.6701

>  <SCORE.INTER.norm>
-0.736239

>  <SCORE.INTRA>
-0.132472

>  <SCORE.INTRA.DIHEDRAL>
-1.29459

>  <SCORE.INTRA.DIHEDRAL.0>
2.93688

>  <SCORE.INTRA.POLAR>
0

>  <SCORE.INTRA.POLAR.0>
0

>  <SCORE.INTRA.REPUL>
0

>  <SCORE.INTRA.REPUL.0>
0

>  <SCORE.INTRA.SOLV>
-0.0340921

>  <SCORE.INTRA.SOLV.lig_0>
-32.2816

>  <SCORE.INTRA.VDW>
0.531867

>  <SCORE.INTRA.VDW.0>
-0.749945

>  <SCORE.INTRA.norm>
-0.0132472

>  <SCORE.RESTR>
0

>  <SCORE.RESTR.CAVITY>
0

>  <SCORE.RESTR.norm>
0

>  <SCORE.SYSTEM>
0

>  <SCORE.SYSTEM.CONST>
0

>  <SCORE.SYSTEM.DIHEDRAL>
0

>  <SCORE.SYSTEM.SOLV>
0

>  <SCORE.SYSTEM.norm>
0

>  <SCORE.heavy>
10

>  <SCORE.norm>
-0.749486

>  <RMSD>
5.485

$$$$
ligand
 OpenBabel11021811473D
libRbt.so/2013.1/901 2013/11/27
 10  9  0  0  0  0  0  0  0  0999 V2000
   28.6934   15.1455   21.9450 N   0  0  0  0  0  0  0  0  0  0  0  0
   28.0100   15.9803   20.9122 C   0  0  2  0  0  0  0  0  0  0  0  0
   26.6791   15.3608   20.4870 C   0  0  0  0  0  0  0  0  0  0  0  0
   25.9363   14.8249   21.3076 O   0  0  0  0  0  0  0  0  0  0  0  0
   28.9310   16.2278   19.7116 C   0  0  0  0  0  0  0  0  0  0  0  0
   30.2061   16.9837   20.0836 C   0  0  0  0  0  0  0  0  0  0  0  0
   31.2413   16.0888   20.7513 C   0  0  0  0  0  0  0  0  0  0  0  0
   32.4825   16.8823   21.1477 C   0  0  0  0  0  0  0  0  0  0  0  0
   32.2077   17.9334   22.1872 N   0  0  0  0  0  0  0  0  0  0  0  0
   26.2797   15.3923   19.3193 O   0  0  0  0  0  0  0  0  0  0  0  0
  2  1  1  1  0  0  0
  2  3  1  0  0  0  0
  2  5  1  0  0  0  0
  3  4  1  0  0  0  0
  3 10  1  0  0  0  0
  5  6  1  0  0  0  0
  6  7  1  0  0  0  0
  7  8  1  0  0  0  0
  8  9  1  0  0  0  0
M  END
>  <CHROM.1>
39.29892235,-61.30752805,77.81145645,-178.26142705,64.08139263,29.02525677
16.06566976,20.77502696,3.07451771,-0.35976885,-1.33997175

>  <Name>
ligand

>  <RI>
0

>  <Rbt.Current_Directory>
/home/itssahil/PROJECTS/Mol_Feturizer/New_Systems/rnas/3DIL

>  <Rbt.Executable>
rbdock ($Id: //depot/dev/client3/rdock/2013.1/src/exe/rbdock.cxx#4 $)

>  <Rbt.Library>
libRbt.so (2013.1, Build901 2013/11/27)

>  <Rbt.Parameter_File>
/export/apps/rDock/src/rDock_2013.1_src/data/scripts/dock_solv.prm

>  <Rbt.Receptor>
prm/pocket_docking_2.prm

>  <SCORE>
-7.3102

>  <SCORE.INTER>
-8.79916

>  <SCORE.INTER.CONST>
1

>  <SCORE.INTER.POLAR>
0

>  <SCORE.INTER.ROT>
5

>  <SCORE.INTER.SOLV>
13.2776

>  <SCORE.INTER.VDW>
-17.2253

>  <SCORE.INTER.norm>
-0.879916

>  <SCORE.INTRA>
1.48896

>  <SCORE.INTRA.DIHEDRAL>
-0.155519

>  <SCORE.INTRA.DIHEDRAL.0>
2.93688

>  <SCORE.INTRA.POLAR>
0

>  <SCORE.INTRA.POLAR.0>
0

>  <SCORE.INTRA.REPUL>
0

>  <SCORE.INTRA.REPUL.0>
0

>  <SCORE.INTRA.SOLV>
1.6981

>  <SCORE.INTRA.SOLV.lig_0>
-32.2816

>  <SCORE.INTRA.VDW>
0.717664

>  <SCORE.INTRA.VDW.0>
-0.749945

>  <SCORE.INTRA.norm>
0.148896

>  <SCORE.RESTR>
0

>  <SCORE.RESTR.CAVITY>
0

>  <SCORE.RESTR.norm>
0

>  <SCORE.SYSTEM>
0

>  <SCORE.SYSTEM.CONST>
0

>  <SCORE.SYSTEM.DIHEDRAL>
0

>  <SCORE.SYSTEM.SOLV>
0

>  <SCORE.SYSTEM.norm>
0

>  <SCORE.heavy>
10

>  <SCORE.norm>
-0.73102

>  <RMSD>
5.486

$$$$
ligand
 OpenBabel11021811473D
libRbt.so/2013.1/901 2013/11/27
 10  9  0  0  0  0  0  0  0  0999 V2000
   28.5498   14.9257   18.9516 N   0  0  0  0  0  0  0  0  0  0  0  0
   28.0773   14.8721   20.3674 C   0  0  2  0  0  0  0  0  0  0  0  0
   26.5983   15.2420   20.4751 C   0  0  0  0  0  0  0  0  0  0  0  0
   26.0617   15.9668   19.6389 O   0  0  0  0  0  0  0  0  0  0  0  0
   28.9504   15.7527   21.2692 C   0  0  0  0  0  0  0  0  0  0  0  0
   30.4142   15.3140   21.2949 C   0  0  0  0  0  0  0  0  0  0  0  0
   31.2951   16.2666   22.0916 C   0  0  0  0  0  0  0  0  0  0  0  0
   31.4871   17.5876   21.3533 C   0  0  0  0  0  0  0  0  0  0  0  0
   32.4123   18.5358   22.0647 N   0  0  0  0  0  0  0  0  0  0  0  0
   25.8753   14.8145   21.3798 O   0  0  0  0  0  0  0  0  0  0  0  0
  2  1  1  6  0  0  0
  2  3  1  0  0  0  0
  2  5  1  0  0  0  0
  3  4  1  0  0  0  0
  3 10  1  0  0  0  0
  5  6  1  0  0  0  0
  6  7  1  0  0  0  0
  7  8  1  0  0  0  0
  8  9  1  0  0  0  0
M  END
>  <CHROM.1>
-26.09194055,-61.06568511,174.84488959,-71.40463758,-176.83993735,28.92805181
15.92988322,20.88778676,-2.68719941,0.13703356,0.86691631

>  <Name>
ligand

>  <RI>
0

>  <Rbt.Current_Directory>
/home/itssahil/PROJECTS/Mol_Feturizer/New_Systems/rnas/3DIL

>  <Rbt.Executable>
rbdock ($Id: //depot/dev/client3/rdock/2013.1/src/exe/rbdock.cxx#4 $)

>  <Rbt.Library>
libRbt.so (2013.1, Build901 2013/11/27)

>  <Rbt.Parameter_File>
/export/apps/rDock/src/rDock_2013.1_src/data/scripts/dock_solv.prm

>  <Rbt.Receptor>
prm/pocket_docking_8.prm

>  <SCORE>
-9.37862

>  <SCORE.INTER>
-9.24109

>  <SCORE.INTER.CONST>
1

>  <SCORE.INTER.POLAR>
0

>  <SCORE.INTER.ROT>
5

>  <SCORE.INTER.SOLV>
13.4977

>  <SCORE.INTER.VDW>
-17.5933

>  <SCORE.INTER.norm>
-0.924109

>  <SCORE.INTRA>
-0.137526

>  <SCORE.INTRA.DIHEDRAL>
-0.689

>  <SCORE.INTRA.DIHEDRAL.0>
2.93688

>  <SCORE.INTRA.POLAR>
0

>  <SCORE.INTRA.POLAR.0>
0

>  <SCORE.INTRA.REPUL>
0

>  <SCORE.INTRA.REPUL.0>
0

>  <SCORE.INTRA.SOLV>
-0.350565

>  <SCORE.INTRA.SOLV.lig_0>
-32.2816

>  <SCORE.INTRA.VDW>
0.382257

>  <SCORE.INTRA.VDW.0>
-0.749945

>  <SCORE.INTRA.norm>
-0.0137526

>  <SCORE.RESTR>
0

>  <SCORE.RESTR.CAVITY>
0

>  <SCORE.RESTR.norm>
0

>  <SCORE.SYSTEM>
0

>  <SCORE.SYSTEM.CONST>
0

>  <SCORE.SYSTEM.DIHEDRAL>
0

>  <SCORE.SYSTEM.SOLV>
0

>  <SCORE.SYSTEM.norm>
0

>  <SCORE.heavy>
10

>  <SCORE.norm>
-0.937862

>  <RMSD>
5.486

$$$$
ligand
 OpenBabel11021811473D
libRbt.so/2013.1/901 2013/11/27
 10  9  0  0  0  0  0  0  0  0999 V2000
   28.8467   14.4881   21.9270 N   0  0  0  0  0  0  0  0  0  0  0  0
   28.4024   15.6314   21.0749 C   0  0  2  0  0  0  0  0  0  0  0  0
   26.9323   15.4935   20.6805 C   0  0  0  0  0  0  0  0  0  0  0  0
   26.5089   15.9694   19.6285 O   0  0  0  0  0  0  0  0  0  0  0  0
   29.3082   15.7831   19.8471 C   0  0  0  0  0  0  0  0  0  0  0  0
   30.7899   15.8857   20.2078 C   0  0  0  0  0  0  0  0  0  0  0  0
   31.0909   17.0784   21.1050 C   0  0  0  0  0  0  0  0  0  0  0  0
   32.5627   17.1101   21.5047 C   0  0  0  0  0  0  0  0  0  0  0  0
   32.9020   18.2461   22.4296 N   0  0  0  0  0  0  0  0  0  0  0  0
   26.1166   14.8826   21.3773 O   0  0  0  0  0  0  0  0  0  0  0  0
  2  1  1  6  0  0  0
  2  3  1  0  0  0  0
  2  5  1  0  0  0  0
  3  4  1  0  0  0  0
  3 10  1  0  0  0  0
  5  6  1  0  0  0  0
  6  7  1  0  0  0  0
  7  8  1  0  0  0  0
  8  9  1  0  0  0  0
M  END
>  <CHROM.1>
-151.16764045,-53.55197536,-59.84127023,177.04743441,-178.09515487,29.30204393
16.05021044,20.96817858,3.12034221,-0.39598837,-1.19574498

>  <Name>
ligand

>  <RI>
0

>  <Rbt.Current_Directory>
/home/itssahil/PROJECTS/Mol_Feturizer/New_Systems/rnas/3DIL

>  <Rbt.Executable>
rbdock ($Id: //depot/dev/client3/rdock/2013.1/src/exe/rbdock.cxx#4 $)

>  <Rbt.Library>
libRbt.so (2013.1, Build901 2013/11/27)

>  <Rbt.Parameter_File>
/export/apps/rDock/src/rDock_2013.1_src/data/scripts/dock_solv.prm

>  <Rbt.Receptor>
prm/pocket_docking_2.prm

>  <SCORE>
-7.1922

>  <SCORE.INTER>
-7.60791

>  <SCORE.INTER.CONST>
1

>  <SCORE.INTER.POLAR>
0

>  <SCORE.INTER.ROT>
5

>  <SCORE.INTER.SOLV>
16.5444

>  <SCORE.INTER.VDW>
-17.5201

>  <SCORE.INTER.norm>
-0.760791

>  <SCORE.INTRA>
0.415712

>  <SCORE.INTRA.DIHEDRAL>
-1.17692

>  <SCORE.INTRA.DIHEDRAL.0>
2.93688

>  <SCORE.INTRA.POLAR>
0

>  <SCORE.INTRA.POLAR.0>
0

>  <SCORE.INTRA.REPUL>
0

>  <SCORE.INTRA.REPUL.0>
0

>  <SCORE.INTRA.SOLV>
0.24122

>  <SCORE.INTRA.SOLV.lig_0>
-32.2816

>  <SCORE.INTRA.VDW>
0.883563

>  <SCORE.INTRA.VDW.0>
-0.749945

>  <SCORE.INTRA.norm>
0.0415712

>  <SCORE.RESTR>
0

>  <SCORE.RESTR.CAVITY>
0

>  <SCORE.RESTR.norm>
0

>  <SCORE.SYSTEM>
0

>  <SCORE.SYSTEM.CONST>
0

>  <SCORE.SYSTEM.DIHEDRAL>
0

>  <SCORE.SYSTEM.SOLV>
0

>  <SCORE.SYSTEM.norm>
0

>  <SCORE.heavy>
10

>  <SCORE.norm>
-0.71922

>  <RMSD>
5.487

$$$$
ligand
 OpenBabel11021811473D
libRbt.so/2013.1/901 2013/11/27
 10  9  0  0  0  0  0  0  0  0999 V2000
   28.5458   15.2258   18.8820 N   0  0  0  0  0  0  0  0  0  0  0  0
   28.1595   15.1850   20.3242 C   0  0  2  0  0  0  0  0  0  0  0  0
   26.6426   15.2584   20.4965 C   0  0  0  0  0  0  0  0  0  0  0  0
   25.9306   15.7849   19.6431 O   0  0  0  0  0  0  0  0  0  0  0  0
   28.8750   16.2876   21.1136 C   0  0  0  0  0  0  0  0  0  0  0  0
   30.3951   16.1289   21.1161 C   0  0  0  0  0  0  0  0  0  0  0  0
   31.0974   17.2479   21.8730 C   0  0  0  0  0  0  0  0  0  0  0  0
   32.6130   17.0813   21.8221 C   0  0  0  0  0  0  0  0  0  0  0  0
   33.1763   17.1978   20.4328 N   0  0  0  0  0  0  0  0  0  0  0  0
   26.0655   14.7752   21.4750 O   0  0  0  0  0  0  0  0  0  0  0  0
  2  1  1  6  0  0  0
  2  3  1  0  0  0  0
  2  5  1  0  0  0  0
  3  4  1  0  0  0  0
  3 10  1  0  0  0  0
  5  6  1  0  0  0  0
  6  7  1  0  0  0  0
  7  8  1  0  0  0  0
  8  9  1  0  0  0  0
M  END
>  <CHROM.1>
-25.37973142,-62.87381650,178.55667372,-178.36882303,64.25724415,29.10435234
16.01339113,20.71966204,-2.94910810,0.27750224,1.41591480

>  <Name>
ligand

>  <RI>
0

>  <Rbt.Current_Directory>
/home/itssahil/PROJECTS/Mol_Feturizer/New_Systems/rnas/3DIL

>  <Rbt.Executable>
rbdock ($Id: //depot/dev/client3/rdock/2013.1/src/exe/rbdock.cxx#4 $)

>  <Rbt.Library>
libRbt.so (2013.1, Build901 2013/11/27)

>  <Rbt.Parameter_File>
/export/apps/rDock/src/rDock_2013.1_src/data/scripts/dock_solv.prm

>  <Rbt.Receptor>
prm/pocket_docking_5.prm

>  <SCORE>
-9.54966

>  <SCORE.INTER>
-9.07035

>  <SCORE.INTER.CONST>
1

>  <SCORE.INTER.POLAR>
0

>  <SCORE.INTER.ROT>
5

>  <SCORE.INTER.SOLV>
12.7153

>  <SCORE.INTER.VDW>
-17.2187

>  <SCORE.INTER.norm>
-0.907035

>  <SCORE.INTRA>
-0.479309

>  <SCORE.INTRA.DIHEDRAL>
-1.24688

>  <SCORE.INTRA.DIHEDRAL.0>
2.93688

>  <SCORE.INTRA.POLAR>
0

>  <SCORE.INTRA.POLAR.0>
0

>  <SCORE.INTRA.REPUL>
0

>  <SCORE.INTRA.REPUL.0>
0

>  <SCORE.INTRA.SOLV>
0.282168

>  <SCORE.INTRA.SOLV.lig_0>
-32.2816

>  <SCORE.INTRA.VDW>
0.00304591

>  <SCORE.INTRA.VDW.0>
-0.749945

>  <SCORE.INTRA.norm>
-0.0479309

>  <SCORE.RESTR>
0

>  <SCORE.RESTR.CAVITY>
0

>  <SCORE.RESTR.norm>
0

>  <SCORE.SYSTEM>
0

>  <SCORE.SYSTEM.CONST>
0

>  <SCORE.SYSTEM.DIHEDRAL>
0

>  <SCORE.SYSTEM.SOLV>
0

>  <SCORE.SYSTEM.norm>
0

>  <SCORE.heavy>
10

>  <SCORE.norm>
-0.954966

>  <RMSD>
5.489

$$$$
ligand
 OpenBabel11021811473D
libRbt.so/2013.1/901 2013/11/27
 10  9  0  0  0  0  0  0  0  0999 V2000
   28.5656   15.1870   18.9613 N   0  0  0  0  0  0  0  0  0  0  0  0
   28.1096   15.0724   20.3789 C   0  0  2  0  0  0  0  0  0  0  0  0
   26.5902   15.1976   20.4868 C   0  0  0  0  0  0  0  0  0  0  0  0
   25.9851   14.7690   21.4679 O   0  0  0  0  0  0  0  0  0  0  0  0
   28.8285   16.0931   21.2690 C   0  0  0  0  0  0  0  0  0  0  0  0
   30.3495   15.9470   21.2359 C   0  0  0  0  0  0  0  0  0  0  0  0
   31.0581   17.0406   22.0235 C   0  0  0  0  0  0  0  0  0  0  0  0
   32.5726   16.9326   21.8766 C   0  0  0  0  0  0  0  0  0  0  0  0
   33.0499   17.1608   20.4690 N   0  0  0  0  0  0  0  0  0  0  0  0
   25.9103   15.7516   19.6180 O   0  0  0  0  0  0  0  0  0  0  0  0
  2  1  1  6  0  0  0
  2  3  1  0  0  0  0
  2  5  1  0  0  0  0
  3  4  1  0  0  0  0
  3 10  1  0  0  0  0
  5  6  1  0  0  0  0
  6  7  1  0  0  0  0
  7  8  1  0  0  0  0
  8  9  1  0  0  0  0
M  END
>  <CHROM.1>
159.32417960,-57.95150197,174.90735001,-175.36360653,64.40870282,29.05624613
15.91304871,20.77942131,-2.95119327,0.27182078,1.46348724

>  <Name>
ligand

>  <RI>
0

>  <Rbt.Current_Directory>
/home/itssahil/PROJECTS/Mol_Feturizer/New_Systems/rnas/3DIL

>  <Rbt.Executable>
rbdock ($Id: //depot/dev/client3/rdock/2013.1/src/exe/rbdock.cxx#4 $)

>  <Rbt.Library>
libRbt.so (2013.1, Build901 2013/11/27)

>  <Rbt.Parameter_File>
/export/apps/rDock/src/rDock_2013.1_src/data/scripts/dock_solv.prm

>  <Rbt.Receptor>
prm/pocket_docking_6.prm

>  <SCORE>
-9.6329

>  <SCORE.INTER>
-9.28807

>  <SCORE.INTER.CONST>
1

>  <SCORE.INTER.POLAR>
0

>  <SCORE.INTER.ROT>
5

>  <SCORE.INTER.SOLV>
12.5698

>  <SCORE.INTER.VDW>
-17.3153

>  <SCORE.INTER.norm>
-0.928807

>  <SCORE.INTRA>
-0.344829

>  <SCORE.INTRA.DIHEDRAL>
-1.19514

>  <SCORE.INTRA.DIHEDRAL.0>
2.93688

>  <SCORE.INTRA.POLAR>
0

>  <SCORE.INTRA.POLAR.0>
0

>  <SCORE.INTRA.REPUL>
0

>  <SCORE.INTRA.REPUL.0>
0

>  <SCORE.INTRA.SOLV>
0.370155

>  <SCORE.INTRA.SOLV.lig_0>
-32.2816

>  <SCORE.INTRA.VDW>
0.0676642

>  <SCORE.INTRA.VDW.0>
-0.749945

>  <SCORE.INTRA.norm>
-0.0344829

>  <SCORE.RESTR>
0

>  <SCORE.RESTR.CAVITY>
0

>  <SCORE.RESTR.norm>
0

>  <SCORE.SYSTEM>
0

>  <SCORE.SYSTEM.CONST>
0

>  <SCORE.SYSTEM.DIHEDRAL>
0

>  <SCORE.SYSTEM.SOLV>
0

>  <SCORE.SYSTEM.norm>
0

>  <SCORE.heavy>
10

>  <SCORE.norm>
-0.96329

>  <RMSD>
5.491

$$$$
ligand
 OpenBabel11021811473D
libRbt.so/2013.1/901 2013/11/27
 10  9  0  0  0  0  0  0  0  0999 V2000
   28.1090   14.6275   18.4924 N   0  0  0  0  0  0  0  0  0  0  0  0
   28.1117   14.8898   19.9627 C   0  0  2  0  0  0  0  0  0  0  0  0
   26.7106   15.2296   20.4702 C   0  0  0  0  0  0  0  0  0  0  0  0
   25.8687   15.7294   19.7260 O   0  0  0  0  0  0  0  0  0  0  0  0
   29.1264   15.9818   20.3218 C   0  0  0  0  0  0  0  0  0  0  0  0
   30.5718   15.5651   20.0517 C   0  0  0  0  0  0  0  0  0  0  0  0
   31.5652   16.6815   20.3434 C   0  0  0  0  0  0  0  0  0  0  0  0
   31.6698   16.9489   21.8416 C   0  0  0  0  0  0  0  0  0  0  0  0
   32.6126   18.0705   22.1797 N   0  0  0  0  0  0  0  0  0  0  0  0
   26.3539   14.9968   21.6289 O   0  0  0  0  0  0  0  0  0  0  0  0
  2  1  1  6  0  0  0
  2  3  1  0  0  0  0
  2  5  1  0  0  0  0
  3  4  1  0  0  0  0
  3 10  1  0  0  0  0
  5  6  1  0  0  0  0
  6  7  1  0  0  0  0
  7  8  1  0  0  0  0
  8  9  1  0  0  0  0
M  END
>  <CHROM.1>
-26.42531017,-65.29357867,177.02858765,69.96344346,-178.44256196,29.02742778
15.87391981,20.51109746,-2.78303559,0.23459076,1.12377939

>  <Name>
ligand

>  <RI>
0

>  <Rbt.Current_Directory>
/home/itssahil/PROJECTS/Mol_Feturizer/New_Systems/rnas/3DIL

>  <Rbt.Executable>
rbdock ($Id: //depot/dev/client3/rdock/2013.1/src/exe/rbdock.cxx#4 $)

>  <Rbt.Library>
libRbt.so (2013.1, Build901 2013/11/27)

>  <Rbt.Parameter_File>
/export/apps/rDock/src/rDock_2013.1_src/data/scripts/dock_solv.prm

>  <Rbt.Receptor>
prm/pocket_docking_7.prm

>  <SCORE>
-8.81829

>  <SCORE.INTER>
-8.62183

>  <SCORE.INTER.CONST>
1

>  <SCORE.INTER.POLAR>
0

>  <SCORE.INTER.ROT>
5

>  <SCORE.INTER.SOLV>
13.3978

>  <SCORE.INTER.VDW>
-17.1472

>  <SCORE.INTER.norm>
-0.862183

>  <SCORE.INTRA>
-0.19646

>  <SCORE.INTRA.DIHEDRAL>
-0.798686

>  <SCORE.INTRA.DIHEDRAL.0>
2.93688

>  <SCORE.INTRA.POLAR>
0

>  <SCORE.INTRA.POLAR.0>
0

>  <SCORE.INTRA.REPUL>
0

>  <SCORE.INTRA.REPUL.0>
0

>  <SCORE.INTRA.SOLV>
-0.432134

>  <SCORE.INTRA.SOLV.lig_0>
-32.2816

>  <SCORE.INTRA.VDW>
0.41895

>  <SCORE.INTRA.VDW.0>
-0.749945

>  <SCORE.INTRA.norm>
-0.019646

>  <SCORE.RESTR>
0

>  <SCORE.RESTR.CAVITY>
0

>  <SCORE.RESTR.norm>
0

>  <SCORE.SYSTEM>
0

>  <SCORE.SYSTEM.CONST>
0

>  <SCORE.SYSTEM.DIHEDRAL>
0

>  <SCORE.SYSTEM.SOLV>
0

>  <SCORE.SYSTEM.norm>
0

>  <SCORE.heavy>
10

>  <SCORE.norm>
-0.881829

>  <RMSD>
5.491

$$$$
ligand
 OpenBabel11021811473D
libRbt.so/2013.1/901 2013/11/27
 10  9  0  0  0  0  0  0  0  0999 V2000
   28.5366   14.9159   18.9554 N   0  0  0  0  0  0  0  0  0  0  0  0
   28.0766   14.8654   20.3754 C   0  0  2  0  0  0  0  0  0  0  0  0
   26.5959   15.2250   20.4940 C   0  0  0  0  0  0  0  0  0  0  0  0
   26.0406   15.9205   19.6453 O   0  0  0  0  0  0  0  0  0  0  0  0
   28.9508   15.7564   21.2657 C   0  0  0  0  0  0  0  0  0  0  0  0
   30.4153   15.3200   21.2918 C   0  0  0  0  0  0  0  0  0  0  0  0
   31.2874   16.2525   22.1215 C   0  0  0  0  0  0  0  0  0  0  0  0
   31.4454   17.6093   21.4423 C   0  0  0  0  0  0  0  0  0  0  0  0
   32.4021   18.5228   22.1574 N   0  0  0  0  0  0  0  0  0  0  0  0
   25.8900   14.8173   21.4212 O   0  0  0  0  0  0  0  0  0  0  0  0
  2  1  1  6  0  0  0
  2  3  1  0  0  0  0
  2  5  1  0  0  0  0
  3  4  1  0  0  0  0
  3 10  1  0  0  0  0
  5  6  1  0  0  0  0
  6  7  1  0  0  0  0
  7  8  1  0  0  0  0
  8  9  1  0  0  0  0
M  END
>  <CHROM.1>
-24.65911483,-61.63678238,177.08182738,-69.55993641,-174.60825522,28.91994844
15.92231462,20.91628052,-2.68200334,0.14971031,0.90258369

>  <Name>
ligand

>  <RI>
0

>  <Rbt.Current_Directory>
/home/itssahil/PROJECTS/Mol_Feturizer/New_Systems/rnas/3DIL

>  <Rbt.Executable>
rbdock ($Id: //depot/dev/client3/rdock/2013.1/src/exe/rbdock.cxx#4 $)

>  <Rbt.Library>
libRbt.so (2013.1, Build901 2013/11/27)

>  <Rbt.Parameter_File>
/export/apps/rDock/src/rDock_2013.1_src/data/scripts/dock_solv.prm

>  <Rbt.Receptor>
prm/pocket_docking_8.prm

>  <SCORE>
-9.41795

>  <SCORE.INTER>
-9.24174

>  <SCORE.INTER.CONST>
1

>  <SCORE.INTER.POLAR>
0

>  <SCORE.INTER.ROT>
5

>  <SCORE.INTER.SOLV>
13.6159

>  <SCORE.INTER.VDW>
-17.6331

>  <SCORE.INTER.norm>
-0.924174

>  <SCORE.INTRA>
-0.176209

>  <SCORE.INTRA.DIHEDRAL>
-0.839946

>  <SCORE.INTRA.DIHEDRAL.0>
2.93688

>  <SCORE.INTRA.POLAR>
0

>  <SCORE.INTRA.POLAR.0>
0

>  <SCORE.INTRA.REPUL>
0

>  <SCORE.INTRA.REPUL.0>
0

>  <SCORE.INTRA.SOLV>
-0.400438

>  <SCORE.INTRA.SOLV.lig_0>
-32.2816

>  <SCORE.INTRA.VDW>
0.443983

>  <SCORE.INTRA.VDW.0>
-0.749945

>  <SCORE.INTRA.norm>
-0.0176209

>  <SCORE.RESTR>
0

>  <SCORE.RESTR.CAVITY>
0

>  <SCORE.RESTR.norm>
0

>  <SCORE.SYSTEM>
0

>  <SCORE.SYSTEM.CONST>
0

>  <SCORE.SYSTEM.DIHEDRAL>
0

>  <SCORE.SYSTEM.SOLV>
0

>  <SCORE.SYSTEM.norm>
0

>  <SCORE.heavy>
10

>  <SCORE.norm>
-0.941795

>  <RMSD>
5.491

$$$$
ligand
 OpenBabel11021811473D
libRbt.so/2013.1/901 2013/11/27
 10  9  0  0  0  0  0  0  0  0999 V2000
   28.4498   15.1817   18.7935 N   0  0  0  0  0  0  0  0  0  0  0  0
   28.0921   15.1408   20.2430 C   0  0  2  0  0  0  0  0  0  0  0  0
   26.5808   15.2426   20.4465 C   0  0  0  0  0  0  0  0  0  0  0  0
   26.0458   14.8083   21.4652 O   0  0  0  0  0  0  0  0  0  0  0  0
   28.8448   16.2252   21.0231 C   0  0  0  0  0  0  0  0  0  0  0  0
   30.3624   16.0518   20.9723 C   0  0  0  0  0  0  0  0  0  0  0  0
   31.1006   17.1470   21.7300 C   0  0  0  0  0  0  0  0  0  0  0  0
   32.6119   16.9704   21.6207 C   0  0  0  0  0  0  0  0  0  0  0  0
   33.1273   17.1257   20.2167 N   0  0  0  0  0  0  0  0  0  0  0  0
   25.8385   15.7825   19.6210 O   0  0  0  0  0  0  0  0  0  0  0  0
  2  1  1  6  0  0  0
  2  3  1  0  0  0  0
  2  5  1  0  0  0  0
  3  4  1  0  0  0  0
  3 10  1  0  0  0  0
  5  6  1  0  0  0  0
  6  7  1  0  0  0  0
  7  8  1  0  0  0  0
  8  9  1  0  0  0  0
M  END
>  <CHROM.1>
156.20166635,-61.81528188,179.02205364,-178.11432656,64.65211800,29.05978781
15.96500537,20.61657849,-2.97908405,0.26642289,1.42723644

>  <Name>
ligand

>  <RI>
0

>  <Rbt.Current_Directory>
/home/itssahil/PROJECTS/Mol_Feturizer/New_Systems/rnas/3DIL

>  <Rbt.Executable>
rbdock ($Id: //depot/dev/client3/rdock/2013.1/src/exe/rbdock.cxx#4 $)

>  <Rbt.Library>
libRbt.so (2013.1, Build901 2013/11/27)

>  <Rbt.Parameter_File>
/export/apps/rDock/src/rDock_2013.1_src/data/scripts/dock_solv.prm

>  <Rbt.Receptor>
prm/blind_docking_100.prm

>  <SCORE>
-9.56674

>  <SCORE.INTER>
-9.03192

>  <SCORE.INTER.CONST>
1

>  <SCORE.INTER.POLAR>
0

>  <SCORE.INTER.ROT>
5

>  <SCORE.INTER.SOLV>
13.1474

>  <SCORE.INTER.VDW>
-17.3371

>  <SCORE.INTER.norm>
-0.903192

>  <SCORE.INTRA>
-0.534816

>  <SCORE.INTRA.DIHEDRAL>
-1.36298

>  <SCORE.INTRA.DIHEDRAL.0>
2.93688

>  <SCORE.INTRA.POLAR>
0

>  <SCORE.INTRA.POLAR.0>
0

>  <SCORE.INTRA.REPUL>
0

>  <SCORE.INTRA.REPUL.0>
0

>  <SCORE.INTRA.SOLV>
0.278022

>  <SCORE.INTRA.SOLV.lig_0>
-32.2816

>  <SCORE.INTRA.VDW>
0.00766472

>  <SCORE.INTRA.VDW.0>
-0.749945

>  <SCORE.INTRA.norm>
-0.0534816

>  <SCORE.RESTR>
0

>  <SCORE.RESTR.CAVITY>
0

>  <SCORE.RESTR.norm>
0

>  <SCORE.SYSTEM>
0

>  <SCORE.SYSTEM.CONST>
0

>  <SCORE.SYSTEM.DIHEDRAL>
0

>  <SCORE.SYSTEM.SOLV>
0

>  <SCORE.SYSTEM.norm>
0

>  <SCORE.heavy>
10

>  <SCORE.norm>
-0.956674

>  <RMSD>
5.498

$$$$
ligand
 OpenBabel11021811473D
libRbt.so/2013.1/901 2013/11/27
 10  9  0  0  0  0  0  0  0  0999 V2000
   28.7691   16.2641   19.5674 N   0  0  0  0  0  0  0  0  0  0  0  0
   28.1990   15.2836   20.5391 C   0  0  2  0  0  0  0  0  0  0  0  0
   26.6749   15.2241   20.4405 C   0  0  0  0  0  0  0  0  0  0  0  0
   26.0884   15.5975   19.4261 O   0  0  0  0  0  0  0  0  0  0  0  0
   28.6643   15.5943   21.9666 C   0  0  0  0  0  0  0  0  0  0  0  0
   30.1851   15.5722   22.1165 C   0  0  0  0  0  0  0  0  0  0  0  0
   30.8414   16.8439   21.5964 C   0  0  0  0  0  0  0  0  0  0  0  0
   32.3582   16.7827   21.7468 C   0  0  0  0  0  0  0  0  0  0  0  0
   33.0412   18.0774   21.4030 N   0  0  0  0  0  0  0  0  0  0  0  0
   25.9715   14.7791   21.3522 O   0  0  0  0  0  0  0  0  0  0  0  0
  2  1  1  6  0  0  0
  2  3  1  0  0  0  0
  2  5  1  0  0  0  0
  3  4  1  0  0  0  0
  3 10  1  0  0  0  0
  5  6  1  0  0  0  0
  6  7  1  0  0  0  0
  7  8  1  0  0  0  0
  8  9  1  0  0  0  0
M  END
>  <CHROM.1>
21.40638372,-58.77523254,78.63652957,-179.38186060,-173.03161605,29.03418144
15.99505563,21.00969739,-3.10063065,0.38359501,2.01903228

>  <Name>
ligand

>  <RI>
0

>  <Rbt.Current_Directory>
/home/itssahil/PROJECTS/Mol_Feturizer/New_Systems/rnas/3DIL

>  <Rbt.Executable>
rbdock ($Id: //depot/dev/client3/rdock/2013.1/src/exe/rbdock.cxx#4 $)

>  <Rbt.Library>
libRbt.so (2013.1, Build901 2013/11/27)

>  <Rbt.Parameter_File>
/export/apps/rDock/src/rDock_2013.1_src/data/scripts/dock_solv.prm

>  <Rbt.Receptor>
prm/pocket_docking_2.prm

>  <SCORE>
-8.79184

>  <SCORE.INTER>
-9.80445

>  <SCORE.INTER.CONST>
1

>  <SCORE.INTER.POLAR>
0

>  <SCORE.INTER.ROT>
5

>  <SCORE.INTER.SOLV>
12.2975

>  <SCORE.INTER.VDW>
-17.5688

>  <SCORE.INTER.norm>
-0.980445

>  <SCORE.INTRA>
1.0126

>  <SCORE.INTRA.DIHEDRAL>
0.0562704

>  <SCORE.INTRA.DIHEDRAL.0>
2.93688

>  <SCORE.INTRA.POLAR>
0

>  <SCORE.INTRA.POLAR.0>
0

>  <SCORE.INTRA.REPUL>
0

>  <SCORE.INTRA.REPUL.0>
0

>  <SCORE.INTRA.SOLV>
0.849664

>  <SCORE.INTRA.SOLV.lig_0>
-32.2816

>  <SCORE.INTRA.VDW>
0.559636

>  <SCORE.INTRA.VDW.0>
-0.749945

>  <SCORE.INTRA.norm>
0.10126

>  <SCORE.RESTR>
0

>  <SCORE.RESTR.CAVITY>
0

>  <SCORE.RESTR.norm>
0

>  <SCORE.SYSTEM>
0

>  <SCORE.SYSTEM.CONST>
0

>  <SCORE.SYSTEM.DIHEDRAL>
0

>  <SCORE.SYSTEM.SOLV>
0

>  <SCORE.SYSTEM.norm>
0

>  <SCORE.heavy>
10

>  <SCORE.norm>
-0.879184

>  <RMSD>
5.499

$$$$
ligand
 OpenBabel11021811473D
libRbt.so/2013.1/901 2013/11/27
 10  9  0  0  0  0  0  0  0  0999 V2000
   26.2696   15.1264   19.9620 N   0  0  0  0  0  0  0  0  0  0  0  0
   27.5205   15.5304   19.2528 C   0  0  2  0  0  0  0  0  0  0  0  0
   27.5612   14.9684   17.8321 C   0  0  0  0  0  0  0  0  0  0  0  0
   28.1480   15.5633   16.9297 O   0  0  0  0  0  0  0  0  0  0  0  0
   28.7609   15.1274   20.0590 C   0  0  0  0  0  0  0  0  0  0  0  0
   28.8179   15.7879   21.4361 C   0  0  0  0  0  0  0  0  0  0  0  0
   30.1062   15.4702   22.1828 C   0  0  0  0  0  0  0  0  0  0  0  0
   31.3118   16.1059   21.4975 C   0  0  0  0  0  0  0  0  0  0  0  0
   31.2822   17.6091   21.5192 N   0  0  0  0  0  0  0  0  0  0  0  0
   27.0367   13.8916   17.5330 O   0  0  0  0  0  0  0  0  0  0  0  0
  2  1  1  1  0  0  0
  2  3  1  0  0  0  0
  2  5  1  0  0  0  0
  3  4  1  0  0  0  0
  3 10  1  0  0  0  0
  5  6  1  0  0  0  0
  6  7  1  0  0  0  0
  7  8  1  0  0  0  0
  8  9  1  0  0  0  0
M  END
>  <CHROM.1>
150.01447423,-60.84242168,-175.39190508,67.19875990,65.09727532,28.67532190
15.50348755,19.78023633,2.34989011,-0.43791707,-1.57259782

>  <Name>
ligand

>  <RI>
0

>  <Rbt.Current_Directory>
/home/itssahil/PROJECTS/Mol_Feturizer/New_Systems/rnas/3DIL

>  <Rbt.Executable>
rbdock ($Id: //depot/dev/client3/rdock/2013.1/src/exe/rbdock.cxx#4 $)

>  <Rbt.Library>
libRbt.so (2013.1, Build901 2013/11/27)

>  <Rbt.Parameter_File>
/export/apps/rDock/src/rDock_2013.1_src/data/scripts/dock_solv.prm

>  <Rbt.Receptor>
prm/pocket_docking_5.prm

>  <SCORE>
-8.37448

>  <SCORE.INTER>
-8.74982

>  <SCORE.INTER.CONST>
1

>  <SCORE.INTER.POLAR>
0

>  <SCORE.INTER.ROT>
5

>  <SCORE.INTER.SOLV>
15.2949

>  <SCORE.INTER.VDW>
-17.8648

>  <SCORE.INTER.norm>
-0.874982

>  <SCORE.INTRA>
0.375343

>  <SCORE.INTRA.DIHEDRAL>
-1.07615

>  <SCORE.INTRA.DIHEDRAL.0>
2.93688

>  <SCORE.INTRA.POLAR>
0

>  <SCORE.INTRA.POLAR.0>
0

>  <SCORE.INTRA.REPUL>
0

>  <SCORE.INTRA.REPUL.0>
0

>  <SCORE.INTRA.SOLV>
0.758767

>  <SCORE.INTRA.SOLV.lig_0>
-32.2816

>  <SCORE.INTRA.VDW>
0.534035

>  <SCORE.INTRA.VDW.0>
-0.749945

>  <SCORE.INTRA.norm>
0.0375343

>  <SCORE.RESTR>
0

>  <SCORE.RESTR.CAVITY>
0

>  <SCORE.RESTR.norm>
0

>  <SCORE.SYSTEM>
0

>  <SCORE.SYSTEM.CONST>
0

>  <SCORE.SYSTEM.DIHEDRAL>
0

>  <SCORE.SYSTEM.SOLV>
0

>  <SCORE.SYSTEM.norm>
0

>  <SCORE.heavy>
10

>  <SCORE.norm>
-0.837448

>  <RMSD>
5.504

$$$$
ligand
 OpenBabel11021811473D
libRbt.so/2013.1/901 2013/11/27
 10  9  0  0  0  0  0  0  0  0999 V2000
   25.6010   15.3574   20.2572 N   0  0  0  0  0  0  0  0  0  0  0  0
   27.0392   15.5989   19.9347 C   0  0  2  0  0  0  0  0  0  0  0  0
   27.3987   15.0551   18.5524 C   0  0  0  0  0  0  0  0  0  0  0  0
   28.0841   15.7108   17.7697 O   0  0  0  0  0  0  0  0  0  0  0  0
   27.9489   15.0227   21.0262 C   0  0  0  0  0  0  0  0  0  0  0  0
   29.4290   15.3193   20.7872 C   0  0  0  0  0  0  0  0  0  0  0  0
   29.7345   16.8109   20.7977 C   0  0  0  0  0  0  0  0  0  0  0  0
   31.2082   17.0739   20.5042 C   0  0  0  0  0  0  0  0  0  0  0  0
   32.1328   16.4787   21.5297 N   0  0  0  0  0  0  0  0  0  0  0  0
   27.0452   13.9353   18.1714 O   0  0  0  0  0  0  0  0  0  0  0  0
  2  1  1  1  0  0  0
  2  3  1  0  0  0  0
  2  5  1  0  0  0  0
  3  4  1  0  0  0  0
  3 10  1  0  0  0  0
  5  6  1  0  0  0  0
  6  7  1  0  0  0  0
  7  8  1  0  0  0  0
  8  9  1  0  0  0  0
M  END
>  <CHROM.1>
135.85054164,-176.44177761,62.41029738,-177.84766543,-61.99519341,28.56167278
15.62206246,19.89762741,2.67253760,-0.30079261,-1.72652926

>  <Name>
ligand

>  <RI>
0

>  <Rbt.Current_Directory>
/home/itssahil/PROJECTS/Mol_Feturizer/New_Systems/rnas/3DIL

>  <Rbt.Executable>
rbdock ($Id: //depot/dev/client3/rdock/2013.1/src/exe/rbdock.cxx#4 $)

>  <Rbt.Library>
libRbt.so (2013.1, Build901 2013/11/27)

>  <Rbt.Parameter_File>
/export/apps/rDock/src/rDock_2013.1_src/data/scripts/dock_solv.prm

>  <Rbt.Receptor>
prm/pocket_docking_8.prm

>  <SCORE>
-8.46199

>  <SCORE.INTER>
-7.77036

>  <SCORE.INTER.CONST>
1

>  <SCORE.INTER.POLAR>
0

>  <SCORE.INTER.ROT>
5

>  <SCORE.INTER.SOLV>
17.6619

>  <SCORE.INTER.VDW>
-18.0009

>  <SCORE.INTER.norm>
-0.777036

>  <SCORE.INTRA>
-0.691631

>  <SCORE.INTRA.DIHEDRAL>
-1.36501

>  <SCORE.INTRA.DIHEDRAL.0>
2.93688

>  <SCORE.INTRA.POLAR>
0

>  <SCORE.INTRA.POLAR.0>
0

>  <SCORE.INTRA.REPUL>
0

>  <SCORE.INTRA.REPUL.0>
0

>  <SCORE.INTRA.SOLV>
-0.362419

>  <SCORE.INTRA.SOLV.lig_0>
-32.2816

>  <SCORE.INTRA.VDW>
0.172082

>  <SCORE.INTRA.VDW.0>
-0.749945

>  <SCORE.INTRA.norm>
-0.0691631

>  <SCORE.RESTR>
0

>  <SCORE.RESTR.CAVITY>
0

>  <SCORE.RESTR.norm>
0

>  <SCORE.SYSTEM>
0

>  <SCORE.SYSTEM.CONST>
0

>  <SCORE.SYSTEM.DIHEDRAL>
0

>  <SCORE.SYSTEM.SOLV>
0

>  <SCORE.SYSTEM.norm>
0

>  <SCORE.heavy>
10

>  <SCORE.norm>
-0.846199

>  <RMSD>
5.504

$$$$
ligand
 OpenBabel11021811473D
libRbt.so/2013.1/901 2013/11/27
 10  9  0  0  0  0  0  0  0  0999 V2000
   28.0885   14.6376   18.5160 N   0  0  0  0  0  0  0  0  0  0  0  0
   28.0689   14.8818   19.9893 C   0  0  2  0  0  0  0  0  0  0  0  0
   26.6602   15.2151   20.4797 C   0  0  0  0  0  0  0  0  0  0  0  0
   25.8235   15.7061   19.7238 O   0  0  0  0  0  0  0  0  0  0  0  0
   29.0777   15.9693   20.3772 C   0  0  0  0  0  0  0  0  0  0  0  0
   30.5239   15.5751   20.0793 C   0  0  0  0  0  0  0  0  0  0  0  0
   31.5086   16.6964   20.3818 C   0  0  0  0  0  0  0  0  0  0  0  0
   31.6087   16.9523   21.8823 C   0  0  0  0  0  0  0  0  0  0  0  0
   32.5562   18.0661   22.2323 N   0  0  0  0  0  0  0  0  0  0  0  0
   26.2921   14.9853   21.6354 O   0  0  0  0  0  0  0  0  0  0  0  0
  2  1  1  6  0  0  0
  2  3  1  0  0  0  0
  2  5  1  0  0  0  0
  3  4  1  0  0  0  0
  3 10  1  0  0  0  0
  5  6  1  0  0  0  0
  6  7  1  0  0  0  0
  7  8  1  0  0  0  0
  8  9  1  0  0  0  0
M  END
>  <CHROM.1>
-25.36332502,-63.31498037,176.19457284,68.79972118,-179.19168268,28.97813280
15.87013239,20.53851977,-2.77814692,0.23679759,1.12888331

>  <Name>
ligand

>  <RI>
0

>  <Rbt.Current_Directory>
/home/itssahil/PROJECTS/Mol_Feturizer/New_Systems/rnas/3DIL

>  <Rbt.Executable>
rbdock ($Id: //depot/dev/client3/rdock/2013.1/src/exe/rbdock.cxx#4 $)

>  <Rbt.Library>
libRbt.so (2013.1, Build901 2013/11/27)

>  <Rbt.Parameter_File>
/export/apps/rDock/src/rDock_2013.1_src/data/scripts/dock_solv.prm

>  <Rbt.Receptor>
prm/pocket_docking_6.prm

>  <SCORE>
-8.80196

>  <SCORE.INTER>
-8.61217

>  <SCORE.INTER.CONST>
1

>  <SCORE.INTER.POLAR>
0

>  <SCORE.INTER.ROT>
5

>  <SCORE.INTER.SOLV>
13.351

>  <SCORE.INTER.VDW>
-17.1251

>  <SCORE.INTER.norm>
-0.861217

>  <SCORE.INTRA>
-0.189797

>  <SCORE.INTRA.DIHEDRAL>
-0.941204

>  <SCORE.INTRA.DIHEDRAL.0>
2.93688

>  <SCORE.INTRA.POLAR>
0

>  <SCORE.INTRA.POLAR.0>
0

>  <SCORE.INTRA.REPUL>
0

>  <SCORE.INTRA.REPUL.0>
0

>  <SCORE.INTRA.SOLV>
-0.398388

>  <SCORE.INTRA.SOLV.lig_0>
-32.2816

>  <SCORE.INTRA.VDW>
0.479999

>  <SCORE.INTRA.VDW.0>
-0.749945

>  <SCORE.INTRA.norm>
-0.0189797

>  <SCORE.RESTR>
0

>  <SCORE.RESTR.CAVITY>
0

>  <SCORE.RESTR.norm>
0

>  <SCORE.SYSTEM>
0

>  <SCORE.SYSTEM.CONST>
0

>  <SCORE.SYSTEM.DIHEDRAL>
0

>  <SCORE.SYSTEM.SOLV>
0

>  <SCORE.SYSTEM.norm>
0

>  <SCORE.heavy>
10

>  <SCORE.norm>
-0.880196

>  <RMSD>
5.505

$$$$
ligand
 OpenBabel11021811473D
libRbt.so/2013.1/901 2013/11/27
 10  9  0  0  0  0  0  0  0  0999 V2000
   28.0599   14.6997   18.4655 N   0  0  0  0  0  0  0  0  0  0  0  0
   28.0541   14.9004   19.9455 C   0  0  2  0  0  0  0  0  0  0  0  0
   26.6499   15.2171   20.4590 C   0  0  0  0  0  0  0  0  0  0  0  0
   26.3404   15.0119   21.6314 O   0  0  0  0  0  0  0  0  0  0  0  0
   29.0654   15.9774   20.3556 C   0  0  0  0  0  0  0  0  0  0  0  0
   30.5128   15.5744   20.0754 C   0  0  0  0  0  0  0  0  0  0  0  0
   31.4997   16.6925   20.3820 C   0  0  0  0  0  0  0  0  0  0  0  0
   31.6067   16.9370   21.8840 C   0  0  0  0  0  0  0  0  0  0  0  0
   32.5498   18.0535   22.2377 N   0  0  0  0  0  0  0  0  0  0  0  0
   25.7794   15.7124   19.7372 O   0  0  0  0  0  0  0  0  0  0  0  0
  2  1  1  6  0  0  0
  2  3  1  0  0  0  0
  2  5  1  0  0  0  0
  3  4  1  0  0  0  0
  3 10  1  0  0  0  0
  5  6  1  0  0  0  0
  6  7  1  0  0  0  0
  7  8  1  0  0  0  0
  8  9  1  0  0  0  0
M  END
>  <CHROM.1>
157.20176364,-65.25688822,175.41104617,69.97991728,-178.80862070,28.96950708
15.87950017,20.52697417,-2.77918751,0.23508325,1.14504205

>  <Name>
ligand

>  <RI>
0

>  <Rbt.Current_Directory>
/home/itssahil/PROJECTS/Mol_Feturizer/New_Systems/rnas/3DIL

>  <Rbt.Executable>
rbdock ($Id: //depot/dev/client3/rdock/2013.1/src/exe/rbdock.cxx#4 $)

>  <Rbt.Library>
libRbt.so (2013.1, Build901 2013/11/27)

>  <Rbt.Parameter_File>
/export/apps/rDock/src/rDock_2013.1_src/data/scripts/dock_solv.prm

>  <Rbt.Receptor>
prm/pocket_docking_8.prm

>  <SCORE>
-8.90132

>  <SCORE.INTER>
-8.68

>  <SCORE.INTER.CONST>
1

>  <SCORE.INTER.POLAR>
0

>  <SCORE.INTER.ROT>
5

>  <SCORE.INTER.SOLV>
13.2701

>  <SCORE.INTER.VDW>
-17.1434

>  <SCORE.INTER.norm>
-0.868

>  <SCORE.INTRA>
-0.221312

>  <SCORE.INTRA.DIHEDRAL>
-0.857774

>  <SCORE.INTRA.DIHEDRAL.0>
2.93688

>  <SCORE.INTRA.POLAR>
0

>  <SCORE.INTRA.POLAR.0>
0

>  <SCORE.INTRA.REPUL>
0

>  <SCORE.INTRA.REPUL.0>
0

>  <SCORE.INTRA.SOLV>
-0.436

>  <SCORE.INTRA.SOLV.lig_0>
-32.2816

>  <SCORE.INTRA.VDW>
0.425575

>  <SCORE.INTRA.VDW.0>
-0.749945

>  <SCORE.INTRA.norm>
-0.0221312

>  <SCORE.RESTR>
0

>  <SCORE.RESTR.CAVITY>
0

>  <SCORE.RESTR.norm>
0

>  <SCORE.SYSTEM>
0

>  <SCORE.SYSTEM.CONST>
0

>  <SCORE.SYSTEM.DIHEDRAL>
0

>  <SCORE.SYSTEM.SOLV>
0

>  <SCORE.SYSTEM.norm>
0

>  <SCORE.heavy>
10

>  <SCORE.norm>
-0.890132

>  <RMSD>
5.505

$$$$
ligand
 OpenBabel11021811473D
libRbt.so/2013.1/901 2013/11/27
 10  9  0  0  0  0  0  0  0  0999 V2000
   28.7436   16.2285   19.4982 N   0  0  0  0  0  0  0  0  0  0  0  0
   28.1893   15.2775   20.5077 C   0  0  2  0  0  0  0  0  0  0  0  0
   26.6648   15.2051   20.4262 C   0  0  0  0  0  0  0  0  0  0  0  0
   25.9982   14.7672   21.3623 O   0  0  0  0  0  0  0  0  0  0  0  0
   28.6663   15.6388   21.9194 C   0  0  0  0  0  0  0  0  0  0  0  0
   30.1866   15.5881   22.0667 C   0  0  0  0  0  0  0  0  0  0  0  0
   30.8671   16.8395   21.5290 C   0  0  0  0  0  0  0  0  0  0  0  0
   32.3768   16.7799   21.7398 C   0  0  0  0  0  0  0  0  0  0  0  0
   33.0821   18.0465   21.3403 N   0  0  0  0  0  0  0  0  0  0  0  0
   26.0370   15.6025   19.4403 O   0  0  0  0  0  0  0  0  0  0  0  0
  2  1  1  6  0  0  0
  2  3  1  0  0  0  0
  2  5  1  0  0  0  0
  3  4  1  0  0  0  0
  3 10  1  0  0  0  0
  5  6  1  0  0  0  0
  6  7  1  0  0  0  0
  7  8  1  0  0  0  0
  8  9  1  0  0  0  0
M  END
>  <CHROM.1>
-161.06248295,-60.59922717,80.38518355,177.81403912,-174.72036121,29.03589707
15.99077821,20.97823161,-3.10091362,0.37748481,2.00757062

>  <Name>
ligand

>  <RI>
0

>  <Rbt.Current_Directory>
/home/itssahil/PROJECTS/Mol_Feturizer/New_Systems/rnas/3DIL

>  <Rbt.Executable>
rbdock ($Id: //depot/dev/client3/rdock/2013.1/src/exe/rbdock.cxx#4 $)

>  <Rbt.Library>
libRbt.so (2013.1, Build901 2013/11/27)

>  <Rbt.Parameter_File>
/export/apps/rDock/src/rDock_2013.1_src/data/scripts/dock_solv.prm

>  <Rbt.Receptor>
prm/pocket_docking_2.prm

>  <SCORE>
-8.73884

>  <SCORE.INTER>
-9.77749

>  <SCORE.INTER.CONST>
1

>  <SCORE.INTER.POLAR>
0

>  <SCORE.INTER.ROT>
5

>  <SCORE.INTER.SOLV>
12.3189

>  <SCORE.INTER.VDW>
-17.558

>  <SCORE.INTER.norm>
-0.977749

>  <SCORE.INTRA>
1.03865

>  <SCORE.INTRA.DIHEDRAL>
0.326406

>  <SCORE.INTRA.DIHEDRAL.0>
2.93688

>  <SCORE.INTRA.POLAR>
0

>  <SCORE.INTRA.POLAR.0>
0

>  <SCORE.INTRA.REPUL>
0

>  <SCORE.INTRA.REPUL.0>
0

>  <SCORE.INTRA.SOLV>
0.749207

>  <SCORE.INTRA.SOLV.lig_0>
-32.2816

>  <SCORE.INTRA.VDW>
0.500839

>  <SCORE.INTRA.VDW.0>
-0.749945

>  <SCORE.INTRA.norm>
0.103865

>  <SCORE.RESTR>
0

>  <SCORE.RESTR.CAVITY>
0

>  <SCORE.RESTR.norm>
0

>  <SCORE.SYSTEM>
0

>  <SCORE.SYSTEM.CONST>
0

>  <SCORE.SYSTEM.DIHEDRAL>
0

>  <SCORE.SYSTEM.SOLV>
0

>  <SCORE.SYSTEM.norm>
0

>  <SCORE.heavy>
10

>  <SCORE.norm>
-0.873884

>  <RMSD>
5.506

$$$$
ligand
 OpenBabel11021811473D
libRbt.so/2013.1/901 2013/11/27
 10  9  0  0  0  0  0  0  0  0999 V2000
   27.0056   14.7054   20.1428 N   0  0  0  0  0  0  0  0  0  0  0  0
   27.3655   15.7004   19.0886 C   0  0  2  0  0  0  0  0  0  0  0  0
   28.0182   15.0234   17.8837 C   0  0  0  0  0  0  0  0  0  0  0  0
   28.2741   13.8206   17.8917 O   0  0  0  0  0  0  0  0  0  0  0  0
   28.2510   16.8116   19.6647 C   0  0  0  0  0  0  0  0  0  0  0  0
   29.5419   16.2826   20.2890 C   0  0  0  0  0  0  0  0  0  0  0  0
   30.3959   17.3903   20.8904 C   0  0  0  0  0  0  0  0  0  0  0  0
   31.6591   16.8255   21.5327 C   0  0  0  0  0  0  0  0  0  0  0  0
   32.5672   17.8869   22.0893 N   0  0  0  0  0  0  0  0  0  0  0  0
   28.2912   15.6387   16.8489 O   0  0  0  0  0  0  0  0  0  0  0  0
  2  1  1  1  0  0  0
  2  3  1  0  0  0  0
  2  5  1  0  0  0  0
  3  4  1  0  0  0  0
  3 10  1  0  0  0  0
  5  6  1  0  0  0  0
  6  7  1  0  0  0  0
  7  8  1  0  0  0  0
  8  9  1  0  0  0  0
M  END
>  <CHROM.1>
-4.88457474,58.08705076,-178.48075411,178.68083838,177.48624634,29.14153264
15.98897600,19.59737293,2.37010225,-0.37777350,-1.82990560

>  <Name>
ligand

>  <RI>
0

>  <Rbt.Current_Directory>
/home/itssahil/PROJECTS/Mol_Feturizer/New_Systems/rnas/3DIL

>  <Rbt.Executable>
rbdock ($Id: //depot/dev/client3/rdock/2013.1/src/exe/rbdock.cxx#4 $)

>  <Rbt.Library>
libRbt.so (2013.1, Build901 2013/11/27)

>  <Rbt.Parameter_File>
/export/apps/rDock/src/rDock_2013.1_src/data/scripts/dock_solv.prm

>  <Rbt.Receptor>
prm/blind_docking_80.prm

>  <SCORE>
-8.97474

>  <SCORE.INTER>
-8.13337

>  <SCORE.INTER.CONST>
1

>  <SCORE.INTER.POLAR>
0

>  <SCORE.INTER.ROT>
5

>  <SCORE.INTER.SOLV>
14.334

>  <SCORE.INTER.VDW>
-17.1336

>  <SCORE.INTER.norm>
-0.813337

>  <SCORE.INTRA>
-0.841362

>  <SCORE.INTRA.DIHEDRAL>
-1.35028

>  <SCORE.INTRA.DIHEDRAL.0>
2.93688

>  <SCORE.INTRA.POLAR>
0

>  <SCORE.INTRA.POLAR.0>
0

>  <SCORE.INTRA.REPUL>
0

>  <SCORE.INTRA.REPUL.0>
0

>  <SCORE.INTRA.SOLV>
-0.550031

>  <SCORE.INTRA.SOLV.lig_0>
-32.2816

>  <SCORE.INTRA.VDW>
0.108793

>  <SCORE.INTRA.VDW.0>
-0.749945

>  <SCORE.INTRA.norm>
-0.0841362

>  <SCORE.RESTR>
0

>  <SCORE.RESTR.CAVITY>
0

>  <SCORE.RESTR.norm>
0

>  <SCORE.SYSTEM>
0

>  <SCORE.SYSTEM.CONST>
0

>  <SCORE.SYSTEM.DIHEDRAL>
0

>  <SCORE.SYSTEM.SOLV>
0

>  <SCORE.SYSTEM.norm>
0

>  <SCORE.heavy>
10

>  <SCORE.norm>
-0.897474

>  <RMSD>
5.507

$$$$
ligand
 OpenBabel11021811473D
libRbt.so/2013.1/901 2013/11/27
 10  9  0  0  0  0  0  0  0  0999 V2000
   28.0429   14.6125   18.4850 N   0  0  0  0  0  0  0  0  0  0  0  0
   28.0314   14.8710   19.9559 C   0  0  2  0  0  0  0  0  0  0  0  0
   26.6263   15.2142   20.4499 C   0  0  0  0  0  0  0  0  0  0  0  0
   26.2962   15.0132   21.6174 O   0  0  0  0  0  0  0  0  0  0  0  0
   29.0459   15.9587   20.3283 C   0  0  0  0  0  0  0  0  0  0  0  0
   30.4910   15.5480   20.0471 C   0  0  0  0  0  0  0  0  0  0  0  0
   31.4843   16.6599   20.3556 C   0  0  0  0  0  0  0  0  0  0  0  0
   31.5952   16.8988   21.8582 C   0  0  0  0  0  0  0  0  0  0  0  0
   32.5458   18.0082   22.2140 N   0  0  0  0  0  0  0  0  0  0  0  0
   25.7760   15.7274   19.7167 O   0  0  0  0  0  0  0  0  0  0  0  0
  2  1  1  6  0  0  0
  2  3  1  0  0  0  0
  2  5  1  0  0  0  0
  3  4  1  0  0  0  0
  3 10  1  0  0  0  0
  5  6  1  0  0  0  0
  6  7  1  0  0  0  0
  7  8  1  0  0  0  0
  8  9  1  0  0  0  0
M  END
>  <CHROM.1>
154.65136967,-64.20172626,177.16517265,70.10593834,-178.86511641,28.95113107
15.85372169,20.51209749,-2.78040191,0.22535985,1.12646850

>  <Name>
ligand

>  <RI>
0

>  <Rbt.Current_Directory>
/home/itssahil/PROJECTS/Mol_Feturizer/New_Systems/rnas/3DIL

>  <Rbt.Executable>
rbdock ($Id: //depot/dev/client3/rdock/2013.1/src/exe/rbdock.cxx#4 $)

>  <Rbt.Library>
libRbt.so (2013.1, Build901 2013/11/27)

>  <Rbt.Parameter_File>
/export/apps/rDock/src/rDock_2013.1_src/data/scripts/dock_solv.prm

>  <Rbt.Receptor>
prm/pocket_docking_4.prm

>  <SCORE>
-8.90278

>  <SCORE.INTER>
-8.63172

>  <SCORE.INTER.CONST>
1

>  <SCORE.INTER.POLAR>
0

>  <SCORE.INTER.ROT>
5

>  <SCORE.INTER.SOLV>
13.3682

>  <SCORE.INTER.VDW>
-17.1439

>  <SCORE.INTER.norm>
-0.863172

>  <SCORE.INTRA>
-0.271061

>  <SCORE.INTRA.DIHEDRAL>
-0.945378

>  <SCORE.INTRA.DIHEDRAL.0>
2.93688

>  <SCORE.INTRA.POLAR>
0

>  <SCORE.INTRA.POLAR.0>
0

>  <SCORE.INTRA.REPUL>
0

>  <SCORE.INTRA.REPUL.0>
0

>  <SCORE.INTRA.SOLV>
-0.433696

>  <SCORE.INTRA.SOLV.lig_0>
-32.2816

>  <SCORE.INTRA.VDW>
0.418476

>  <SCORE.INTRA.VDW.0>
-0.749945

>  <SCORE.INTRA.norm>
-0.0271061

>  <SCORE.RESTR>
0

>  <SCORE.RESTR.CAVITY>
0

>  <SCORE.RESTR.norm>
0

>  <SCORE.SYSTEM>
0

>  <SCORE.SYSTEM.CONST>
0

>  <SCORE.SYSTEM.DIHEDRAL>
0

>  <SCORE.SYSTEM.SOLV>
0

>  <SCORE.SYSTEM.norm>
0

>  <SCORE.heavy>
10

>  <SCORE.norm>
-0.890278

>  <RMSD>
5.512

$$$$
ligand
 OpenBabel11021811473D
libRbt.so/2013.1/901 2013/11/27
 10  9  0  0  0  0  0  0  0  0999 V2000
   28.0980   16.7132   18.9907 N   0  0  0  0  0  0  0  0  0  0  0  0
   28.0721   15.6747   20.0639 C   0  0  2  0  0  0  0  0  0  0  0  0
   26.6397   15.3298   20.4704 C   0  0  0  0  0  0  0  0  0  0  0  0
   26.4009   14.7540   21.5304 O   0  0  0  0  0  0  0  0  0  0  0  0
   28.9150   16.1112   21.2680 C   0  0  0  0  0  0  0  0  0  0  0  0
   30.3038   16.6127   20.8737 C   0  0  0  0  0  0  0  0  0  0  0  0
   31.1408   17.0206   22.0784 C   0  0  0  0  0  0  0  0  0  0  0  0
   32.4023   17.7624   21.6477 C   0  0  0  0  0  0  0  0  0  0  0  0
   33.2798   16.9573   20.7296 N   0  0  0  0  0  0  0  0  0  0  0  0
   25.6654   15.6329   19.7755 O   0  0  0  0  0  0  0  0  0  0  0  0
  2  1  1  6  0  0  0
  2  3  1  0  0  0  0
  2  5  1  0  0  0  0
  3  4  1  0  0  0  0
  3 10  1  0  0  0  0
  5  6  1  0  0  0  0
  6  7  1  0  0  0  0
  7  8  1  0  0  0  0
  8  9  1  0  0  0  0
M  END
>  <CHROM.1>
-162.42225199,-48.61773680,-179.00111966,-168.98265609,-58.44931697,29.04812054
16.24438474,20.74930396,-3.07667650,0.33133032,1.87603315

>  <Name>
ligand

>  <RI>
0

>  <Rbt.Current_Directory>
/home/itssahil/PROJECTS/Mol_Feturizer/New_Systems/rnas/3DIL

>  <Rbt.Executable>
rbdock ($Id: //depot/dev/client3/rdock/2013.1/src/exe/rbdock.cxx#4 $)

>  <Rbt.Library>
libRbt.so (2013.1, Build901 2013/11/27)

>  <Rbt.Parameter_File>
/export/apps/rDock/src/rDock_2013.1_src/data/scripts/dock_solv.prm

>  <Rbt.Receptor>
prm/pocket_docking_5.prm

>  <SCORE>
-7.97957

>  <SCORE.INTER>
-8.62843

>  <SCORE.INTER.CONST>
1

>  <SCORE.INTER.POLAR>
0

>  <SCORE.INTER.ROT>
5

>  <SCORE.INTER.SOLV>
14.9639

>  <SCORE.INTER.VDW>
-17.6736

>  <SCORE.INTER.norm>
-0.862843

>  <SCORE.INTRA>
0.648857

>  <SCORE.INTRA.DIHEDRAL>
-0.409723

>  <SCORE.INTRA.DIHEDRAL.0>
2.93688

>  <SCORE.INTRA.POLAR>
0

>  <SCORE.INTRA.POLAR.0>
0

>  <SCORE.INTRA.REPUL>
0

>  <SCORE.INTRA.REPUL.0>
0

>  <SCORE.INTRA.SOLV>
0.472661

>  <SCORE.INTRA.SOLV.lig_0>
-32.2816

>  <SCORE.INTRA.VDW>
0.617388

>  <SCORE.INTRA.VDW.0>
-0.749945

>  <SCORE.INTRA.norm>
0.0648857

>  <SCORE.RESTR>
0

>  <SCORE.RESTR.CAVITY>
0

>  <SCORE.RESTR.norm>
0

>  <SCORE.SYSTEM>
0

>  <SCORE.SYSTEM.CONST>
0

>  <SCORE.SYSTEM.DIHEDRAL>
0

>  <SCORE.SYSTEM.SOLV>
0

>  <SCORE.SYSTEM.norm>
0

>  <SCORE.heavy>
10

>  <SCORE.norm>
-0.797957

>  <RMSD>
5.513

$$$$
ligand
 OpenBabel11021811473D
libRbt.so/2013.1/901 2013/11/27
 10  9  0  0  0  0  0  0  0  0999 V2000
   28.0251   14.6348   18.4836 N   0  0  0  0  0  0  0  0  0  0  0  0
   28.0259   14.8657   19.9592 C   0  0  2  0  0  0  0  0  0  0  0  0
   26.6239   15.1933   20.4721 C   0  0  0  0  0  0  0  0  0  0  0  0
   26.3109   14.9859   21.6432 O   0  0  0  0  0  0  0  0  0  0  0  0
   29.0391   15.9507   20.3426 C   0  0  0  0  0  0  0  0  0  0  0  0
   30.4850   15.5428   20.0618 C   0  0  0  0  0  0  0  0  0  0  0  0
   31.4750   16.6608   20.3589 C   0  0  0  0  0  0  0  0  0  0  0  0
   31.5839   16.9167   21.8588 C   0  0  0  0  0  0  0  0  0  0  0  0
   32.5395   18.0252   22.2038 N   0  0  0  0  0  0  0  0  0  0  0  0
   25.7592   15.6999   19.7514 O   0  0  0  0  0  0  0  0  0  0  0  0
  2  1  1  6  0  0  0
  2  3  1  0  0  0  0
  2  5  1  0  0  0  0
  3  4  1  0  0  0  0
  3 10  1  0  0  0  0
  5  6  1  0  0  0  0
  6  7  1  0  0  0  0
  7  8  1  0  0  0  0
  8  9  1  0  0  0  0
M  END
>  <CHROM.1>
155.64465508,-65.13764128,176.17623128,69.86628149,-179.32971804,28.94448496
15.84968246,20.52326854,-2.78365710,0.23447654,1.13420831

>  <Name>
ligand

>  <RI>
0

>  <Rbt.Current_Directory>
/home/itssahil/PROJECTS/Mol_Feturizer/New_Systems/rnas/3DIL

>  <Rbt.Executable>
rbdock ($Id: //depot/dev/client3/rdock/2013.1/src/exe/rbdock.cxx#4 $)

>  <Rbt.Library>
libRbt.so (2013.1, Build901 2013/11/27)

>  <Rbt.Parameter_File>
/export/apps/rDock/src/rDock_2013.1_src/data/scripts/dock_solv.prm

>  <Rbt.Receptor>
prm/pocket_docking_3.prm

>  <SCORE>
-8.93075

>  <SCORE.INTER>
-8.68079

>  <SCORE.INTER.CONST>
1

>  <SCORE.INTER.POLAR>
0

>  <SCORE.INTER.ROT>
5

>  <SCORE.INTER.SOLV>
13.3534

>  <SCORE.INTER.VDW>
-17.1717

>  <SCORE.INTER.norm>
-0.868079

>  <SCORE.INTRA>
-0.249951

>  <SCORE.INTRA.DIHEDRAL>
-0.903483

>  <SCORE.INTRA.DIHEDRAL.0>
2.93688

>  <SCORE.INTRA.POLAR>
0

>  <SCORE.INTRA.POLAR.0>
0

>  <SCORE.INTRA.REPUL>
0

>  <SCORE.INTRA.REPUL.0>
0

>  <SCORE.INTRA.SOLV>
-0.441649

>  <SCORE.INTRA.SOLV.lig_0>
-32.2816

>  <SCORE.INTRA.VDW>
0.422615

>  <SCORE.INTRA.VDW.0>
-0.749945

>  <SCORE.INTRA.norm>
-0.0249951

>  <SCORE.RESTR>
0

>  <SCORE.RESTR.CAVITY>
0

>  <SCORE.RESTR.norm>
0

>  <SCORE.SYSTEM>
0

>  <SCORE.SYSTEM.CONST>
0

>  <SCORE.SYSTEM.DIHEDRAL>
0

>  <SCORE.SYSTEM.SOLV>
0

>  <SCORE.SYSTEM.norm>
0

>  <SCORE.heavy>
10

>  <SCORE.norm>
-0.893075

>  <RMSD>
5.515

$$$$
ligand
 OpenBabel11021811473D
libRbt.so/2013.1/901 2013/11/27
 10  9  0  0  0  0  0  0  0  0999 V2000
   25.5234   15.2553   20.3015 N   0  0  0  0  0  0  0  0  0  0  0  0
   26.8945   15.7775   20.0221 C   0  0  2  0  0  0  0  0  0  0  0  0
   27.4096   15.2927   18.6673 C   0  0  0  0  0  0  0  0  0  0  0  0
   28.1407   15.9991   17.9752 O   0  0  0  0  0  0  0  0  0  0  0  0
   27.8590   15.4179   21.1584 C   0  0  0  0  0  0  0  0  0  0  0  0
   29.2283   16.0806   21.0109 C   0  0  0  0  0  0  0  0  0  0  0  0
   30.2015   15.6589   22.1033 C   0  0  0  0  0  0  0  0  0  0  0  0
   31.5557   16.3389   21.9278 C   0  0  0  0  0  0  0  0  0  0  0  0
   31.4949   17.8327   22.0892 N   0  0  0  0  0  0  0  0  0  0  0  0
   27.1414   14.1731   18.2215 O   0  0  0  0  0  0  0  0  0  0  0  0
  2  1  1  1  0  0  0
  2  3  1  0  0  0  0
  2  5  1  0  0  0  0
  3  4  1  0  0  0  0
  3 10  1  0  0  0  0
  5  6  1  0  0  0  0
  6  7  1  0  0  0  0
  7  8  1  0  0  0  0
  8  9  1  0  0  0  0
M  END
>  <CHROM.1>
146.34081741,-172.57400125,-176.95654514,-179.92013380,64.66925192,28.54764634
15.77002038,20.31093302,2.52222455,-0.31074489,-1.66364267

>  <Name>
ligand

>  <RI>
0

>  <Rbt.Current_Directory>
/home/itssahil/PROJECTS/Mol_Feturizer/New_Systems/rnas/3DIL

>  <Rbt.Executable>
rbdock ($Id: //depot/dev/client3/rdock/2013.1/src/exe/rbdock.cxx#4 $)

>  <Rbt.Library>
libRbt.so (2013.1, Build901 2013/11/27)

>  <Rbt.Parameter_File>
/export/apps/rDock/src/rDock_2013.1_src/data/scripts/dock_solv.prm

>  <Rbt.Receptor>
prm/pocket_docking_8.prm

>  <SCORE>
-9.38701

>  <SCORE.INTER>
-8.44815

>  <SCORE.INTER.CONST>
1

>  <SCORE.INTER.POLAR>
0

>  <SCORE.INTER.ROT>
5

>  <SCORE.INTER.SOLV>
17.9394

>  <SCORE.INTER.VDW>
-18.5452

>  <SCORE.INTER.norm>
-0.844815

>  <SCORE.INTRA>
-0.93886

>  <SCORE.INTRA.DIHEDRAL>
-1.16247

>  <SCORE.INTRA.DIHEDRAL.0>
2.93688

>  <SCORE.INTRA.POLAR>
0

>  <SCORE.INTRA.POLAR.0>
0

>  <SCORE.INTRA.REPUL>
0

>  <SCORE.INTRA.REPUL.0>
0

>  <SCORE.INTRA.SOLV>
-0.627292

>  <SCORE.INTRA.SOLV.lig_0>
-32.2816

>  <SCORE.INTRA.VDW>
-0.043981

>  <SCORE.INTRA.VDW.0>
-0.749945

>  <SCORE.INTRA.norm>
-0.093886

>  <SCORE.RESTR>
0

>  <SCORE.RESTR.CAVITY>
0

>  <SCORE.RESTR.norm>
0

>  <SCORE.SYSTEM>
0

>  <SCORE.SYSTEM.CONST>
0

>  <SCORE.SYSTEM.DIHEDRAL>
0

>  <SCORE.SYSTEM.SOLV>
0

>  <SCORE.SYSTEM.norm>
0

>  <SCORE.heavy>
10

>  <SCORE.norm>
-0.938701

>  <RMSD>
5.516

$$$$
ligand
 OpenBabel11021811473D
libRbt.so/2013.1/901 2013/11/27
 10  9  0  0  0  0  0  0  0  0999 V2000
   25.5537   15.1999   20.3066 N   0  0  0  0  0  0  0  0  0  0  0  0
   26.9080   15.7617   20.0221 C   0  0  2  0  0  0  0  0  0  0  0  0
   27.4291   15.2971   18.6625 C   0  0  0  0  0  0  0  0  0  0  0  0
   27.1312   14.1927   18.2110 O   0  0  0  0  0  0  0  0  0  0  0  0
   27.8884   15.4247   21.1517 C   0  0  0  0  0  0  0  0  0  0  0  0
   29.2428   16.1146   20.9917 C   0  0  0  0  0  0  0  0  0  0  0  0
   30.2446   15.6874   22.0558 C   0  0  0  0  0  0  0  0  0  0  0  0
   31.5903   16.3774   21.8547 C   0  0  0  0  0  0  0  0  0  0  0  0
   31.5294   17.8663   22.0554 N   0  0  0  0  0  0  0  0  0  0  0  0
   28.1424   16.0100   17.9505 O   0  0  0  0  0  0  0  0  0  0  0  0
  2  1  1  1  0  0  0
  2  3  1  0  0  0  0
  2  5  1  0  0  0  0
  3  4  1  0  0  0  0
  3 10  1  0  0  0  0
  5  6  1  0  0  0  0
  6  7  1  0  0  0  0
  7  8  1  0  0  0  0
  8  9  1  0  0  0  0
M  END
>  <CHROM.1>
-32.02771015,-173.18944453,-175.42638187,179.13313030,65.61336729,28.56810325
15.78094352,20.28909645,2.53698471,-0.32827605,-1.65044261

>  <Name>
ligand

>  <RI>
0

>  <Rbt.Current_Directory>
/home/itssahil/PROJECTS/Mol_Feturizer/New_Systems/rnas/3DIL

>  <Rbt.Executable>
rbdock ($Id: //depot/dev/client3/rdock/2013.1/src/exe/rbdock.cxx#4 $)

>  <Rbt.Library>
libRbt.so (2013.1, Build901 2013/11/27)

>  <Rbt.Parameter_File>
/export/apps/rDock/src/rDock_2013.1_src/data/scripts/dock_solv.prm

>  <Rbt.Receptor>
prm/blind_docking_60.prm

>  <SCORE>
-9.26967

>  <SCORE.INTER>
-8.42515

>  <SCORE.INTER.CONST>
1

>  <SCORE.INTER.POLAR>
0

>  <SCORE.INTER.ROT>
5

>  <SCORE.INTER.SOLV>
17.9021

>  <SCORE.INTER.VDW>
-18.5175

>  <SCORE.INTER.norm>
-0.842515

>  <SCORE.INTRA>
-0.844515

>  <SCORE.INTRA.DIHEDRAL>
-1.00108

>  <SCORE.INTRA.DIHEDRAL.0>
2.93688

>  <SCORE.INTRA.POLAR>
0

>  <SCORE.INTRA.POLAR.0>
0

>  <SCORE.INTRA.REPUL>
0

>  <SCORE.INTRA.REPUL.0>
0

>  <SCORE.INTRA.SOLV>
-0.631402

>  <SCORE.INTRA.SOLV.lig_0>
-32.2816

>  <SCORE.INTRA.VDW>
-0.0282734

>  <SCORE.INTRA.VDW.0>
-0.749945

>  <SCORE.INTRA.norm>
-0.0844515

>  <SCORE.RESTR>
0

>  <SCORE.RESTR.CAVITY>
0

>  <SCORE.RESTR.norm>
0

>  <SCORE.SYSTEM>
0

>  <SCORE.SYSTEM.CONST>
0

>  <SCORE.SYSTEM.DIHEDRAL>
0

>  <SCORE.SYSTEM.SOLV>
0

>  <SCORE.SYSTEM.norm>
0

>  <SCORE.heavy>
10

>  <SCORE.norm>
-0.926967

>  <RMSD>
5.517

$$$$
ligand
 OpenBabel11021811473D
libRbt.so/2013.1/901 2013/11/27
 10  9  0  0  0  0  0  0  0  0999 V2000
   28.0733   16.7235   18.9884 N   0  0  0  0  0  0  0  0  0  0  0  0
   28.0439   15.6757   20.0523 C   0  0  2  0  0  0  0  0  0  0  0  0
   26.6114   15.3514   20.4749 C   0  0  0  0  0  0  0  0  0  0  0  0
   25.6554   15.6464   19.7598 O   0  0  0  0  0  0  0  0  0  0  0  0
   28.9101   16.0865   21.2489 C   0  0  0  0  0  0  0  0  0  0  0  0
   30.3010   16.5707   20.8404 C   0  0  0  0  0  0  0  0  0  0  0  0
   31.1556   16.9671   22.0365 C   0  0  0  0  0  0  0  0  0  0  0  0
   32.3962   17.7380   21.5963 C   0  0  0  0  0  0  0  0  0  0  0  0
   33.2733   16.9621   20.6530 N   0  0  0  0  0  0  0  0  0  0  0  0
   26.3514   14.7617   21.5278 O   0  0  0  0  0  0  0  0  0  0  0  0
  2  1  1  6  0  0  0
  2  3  1  0  0  0  0
  2  5  1  0  0  0  0
  3  4  1  0  0  0  0
  3 10  1  0  0  0  0
  5  6  1  0  0  0  0
  6  7  1  0  0  0  0
  7  8  1  0  0  0  0
  8  9  1  0  0  0  0
M  END
>  <CHROM.1>
18.60999556,-48.49755149,-179.61270138,-166.90345831,-58.91584718,29.03338370
16.23584798,20.72423901,-3.08686146,0.32311523,1.88467102

>  <Name>
ligand

>  <RI>
0

>  <Rbt.Current_Directory>
/home/itssahil/PROJECTS/Mol_Feturizer/New_Systems/rnas/3DIL

>  <Rbt.Executable>
rbdock ($Id: //depot/dev/client3/rdock/2013.1/src/exe/rbdock.cxx#4 $)

>  <Rbt.Library>
libRbt.so (2013.1, Build901 2013/11/27)

>  <Rbt.Parameter_File>
/export/apps/rDock/src/rDock_2013.1_src/data/scripts/dock_solv.prm

>  <Rbt.Receptor>
prm/blind_docking_60.prm

>  <SCORE>
-8.03074

>  <SCORE.INTER>
-8.68602

>  <SCORE.INTER.CONST>
1

>  <SCORE.INTER.POLAR>
0

>  <SCORE.INTER.ROT>
5

>  <SCORE.INTER.SOLV>
15.0326

>  <SCORE.INTER.VDW>
-17.7349

>  <SCORE.INTER.norm>
-0.868602

>  <SCORE.INTRA>
0.655275

>  <SCORE.INTRA.DIHEDRAL>
-0.294328

>  <SCORE.INTRA.DIHEDRAL.0>
2.93688

>  <SCORE.INTRA.POLAR>
0

>  <SCORE.INTRA.POLAR.0>
0

>  <SCORE.INTRA.REPUL>
0

>  <SCORE.INTRA.REPUL.0>
0

>  <SCORE.INTRA.SOLV>
0.466209

>  <SCORE.INTRA.SOLV.lig_0>
-32.2816

>  <SCORE.INTRA.VDW>
0.569334

>  <SCORE.INTRA.VDW.0>
-0.749945

>  <SCORE.INTRA.norm>
0.0655275

>  <SCORE.RESTR>
0

>  <SCORE.RESTR.CAVITY>
0

>  <SCORE.RESTR.norm>
0

>  <SCORE.SYSTEM>
0

>  <SCORE.SYSTEM.CONST>
0

>  <SCORE.SYSTEM.DIHEDRAL>
0

>  <SCORE.SYSTEM.SOLV>
0

>  <SCORE.SYSTEM.norm>
0

>  <SCORE.heavy>
10

>  <SCORE.norm>
-0.803074

>  <RMSD>
5.518

$$$$
ligand
 OpenBabel11021811473D
libRbt.so/2013.1/901 2013/11/27
 10  9  0  0  0  0  0  0  0  0999 V2000
   28.8582   14.2087   21.3097 N   0  0  0  0  0  0  0  0  0  0  0  0
   28.1669   15.5237   21.4632 C   0  0  2  0  0  0  0  0  0  0  0  0
   26.8406   15.5475   20.7040 C   0  0  0  0  0  0  0  0  0  0  0  0
   26.7112   16.2017   19.6708 O   0  0  0  0  0  0  0  0  0  0  0  0
   29.0846   16.6769   21.0400 C   0  0  0  0  0  0  0  0  0  0  0  0
   30.4451   16.6427   21.7354 C   0  0  0  0  0  0  0  0  0  0  0  0
   31.2007   17.9581   21.6045 C   0  0  0  0  0  0  0  0  0  0  0  0
   32.6749   17.7844   21.9561 C   0  0  0  0  0  0  0  0  0  0  0  0
   33.4497   17.0321   20.9098 N   0  0  0  0  0  0  0  0  0  0  0  0
   25.8575   14.8982   21.0727 O   0  0  0  0  0  0  0  0  0  0  0  0
  2  1  1  6  0  0  0
  2  3  1  0  0  0  0
  2  5  1  0  0  0  0
  3  4  1  0  0  0  0
  3 10  1  0  0  0  0
  5  6  1  0  0  0  0
  6  7  1  0  0  0  0
  7  8  1  0  0  0  0
  8  9  1  0  0  0  0
M  END
>  <CHROM.1>
-107.70672472,-52.44510208,-164.86364520,-164.32553138,72.38405558,29.28713892
16.24323796,21.12902740,-2.84357937,-0.23165334,-0.28006093

>  <Name>
ligand

>  <RI>
0

>  <Rbt.Current_Directory>
/home/itssahil/PROJECTS/Mol_Feturizer/New_Systems/rnas/3DIL

>  <Rbt.Executable>
rbdock ($Id: //depot/dev/client3/rdock/2013.1/src/exe/rbdock.cxx#4 $)

>  <Rbt.Library>
libRbt.so (2013.1, Build901 2013/11/27)

>  <Rbt.Parameter_File>
/export/apps/rDock/src/rDock_2013.1_src/data/scripts/dock_solv.prm

>  <Rbt.Receptor>
prm/blind_docking_60.prm

>  <SCORE>
-6.30568

>  <SCORE.INTER>
-7.70156

>  <SCORE.INTER.CONST>
1

>  <SCORE.INTER.POLAR>
0

>  <SCORE.INTER.ROT>
5

>  <SCORE.INTER.SOLV>
17.223

>  <SCORE.INTER.VDW>
-17.8087

>  <SCORE.INTER.norm>
-0.770156

>  <SCORE.INTRA>
1.39588

>  <SCORE.INTRA.DIHEDRAL>
1.19302

>  <SCORE.INTRA.DIHEDRAL.0>
2.93688

>  <SCORE.INTRA.POLAR>
0

>  <SCORE.INTRA.POLAR.0>
0

>  <SCORE.INTRA.REPUL>
0

>  <SCORE.INTRA.REPUL.0>
0

>  <SCORE.INTRA.SOLV>
0.318087

>  <SCORE.INTRA.SOLV.lig_0>
-32.2816

>  <SCORE.INTRA.VDW>
0.640321

>  <SCORE.INTRA.VDW.0>
-0.749945

>  <SCORE.INTRA.norm>
0.139588

>  <SCORE.RESTR>
0

>  <SCORE.RESTR.CAVITY>
0

>  <SCORE.RESTR.norm>
0

>  <SCORE.SYSTEM>
0

>  <SCORE.SYSTEM.CONST>
0

>  <SCORE.SYSTEM.DIHEDRAL>
0

>  <SCORE.SYSTEM.SOLV>
0

>  <SCORE.SYSTEM.norm>
0

>  <SCORE.heavy>
10

>  <SCORE.norm>
-0.630568

>  <RMSD>
5.519

$$$$
ligand
 OpenBabel11021811473D
libRbt.so/2013.1/901 2013/11/27
 10  9  0  0  0  0  0  0  0  0999 V2000
   27.0088   14.7394   20.1382 N   0  0  0  0  0  0  0  0  0  0  0  0
   27.3625   15.7234   19.0718 C   0  0  2  0  0  0  0  0  0  0  0  0
   27.9870   15.0314   17.8607 C   0  0  0  0  0  0  0  0  0  0  0  0
   28.2193   15.6511   16.8241 O   0  0  0  0  0  0  0  0  0  0  0  0
   28.2702   16.8279   19.6259 C   0  0  0  0  0  0  0  0  0  0  0  0
   29.5747   16.2897   20.2127 C   0  0  0  0  0  0  0  0  0  0  0  0
   30.4307   17.3847   20.8343 C   0  0  0  0  0  0  0  0  0  0  0  0
   31.7531   16.8252   21.3495 C   0  0  0  0  0  0  0  0  0  0  0  0
   32.6355   17.8694   21.9756 N   0  0  0  0  0  0  0  0  0  0  0  0
   28.3085   13.8396   17.8746 O   0  0  0  0  0  0  0  0  0  0  0  0
  2  1  1  1  0  0  0
  2  3  1  0  0  0  0
  2  5  1  0  0  0  0
  3  4  1  0  0  0  0
  3 10  1  0  0  0  0
  5  6  1  0  0  0  0
  6  7  1  0  0  0  0
  7  8  1  0  0  0  0
  8  9  1  0  0  0  0
M  END
>  <CHROM.1>
172.41782876,58.96719169,-176.57716554,-177.26068453,-179.92510427,29.15941835
15.99872206,19.54217208,2.38442467,-0.34495147,-1.85689490

>  <Name>
ligand

>  <RI>
0

>  <Rbt.Current_Directory>
/home/itssahil/PROJECTS/Mol_Feturizer/New_Systems/rnas/3DIL

>  <Rbt.Executable>
rbdock ($Id: //depot/dev/client3/rdock/2013.1/src/exe/rbdock.cxx#4 $)

>  <Rbt.Library>
libRbt.so (2013.1, Build901 2013/11/27)

>  <Rbt.Parameter_File>
/export/apps/rDock/src/rDock_2013.1_src/data/scripts/dock_solv.prm

>  <Rbt.Receptor>
prm/blind_docking_80.prm

>  <SCORE>
-8.98121

>  <SCORE.INTER>
-8.10656

>  <SCORE.INTER.CONST>
1

>  <SCORE.INTER.POLAR>
0

>  <SCORE.INTER.ROT>
5

>  <SCORE.INTER.SOLV>
14.2517

>  <SCORE.INTER.VDW>
-17.0883

>  <SCORE.INTER.norm>
-0.810656

>  <SCORE.INTRA>
-0.874652

>  <SCORE.INTRA.DIHEDRAL>
-1.36577

>  <SCORE.INTRA.DIHEDRAL.0>
2.93688

>  <SCORE.INTRA.POLAR>
0

>  <SCORE.INTRA.POLAR.0>
0

>  <SCORE.INTRA.REPUL>
0

>  <SCORE.INTRA.REPUL.0>
0

>  <SCORE.INTRA.SOLV>
-0.560825

>  <SCORE.INTRA.SOLV.lig_0>
-32.2816

>  <SCORE.INTRA.VDW>
0.0886442

>  <SCORE.INTRA.VDW.0>
-0.749945

>  <SCORE.INTRA.norm>
-0.0874652

>  <SCORE.RESTR>
0

>  <SCORE.RESTR.CAVITY>
0

>  <SCORE.RESTR.norm>
0

>  <SCORE.SYSTEM>
0

>  <SCORE.SYSTEM.CONST>
0

>  <SCORE.SYSTEM.DIHEDRAL>
0

>  <SCORE.SYSTEM.SOLV>
0

>  <SCORE.SYSTEM.norm>
0

>  <SCORE.heavy>
10

>  <SCORE.norm>
-0.898121

>  <RMSD>
5.519

$$$$
ligand
 OpenBabel11021811473D
libRbt.so/2013.1/901 2013/11/27
 10  9  0  0  0  0  0  0  0  0999 V2000
   25.5189   15.2588   20.2864 N   0  0  0  0  0  0  0  0  0  0  0  0
   26.8926   15.7745   20.0076 C   0  0  2  0  0  0  0  0  0  0  0  0
   27.4202   15.2579   18.6694 C   0  0  0  0  0  0  0  0  0  0  0  0
   27.1917   14.1084   18.2970 O   0  0  0  0  0  0  0  0  0  0  0  0
   27.8464   15.4420   21.1610 C   0  0  0  0  0  0  0  0  0  0  0  0
   29.2332   16.0599   20.9854 C   0  0  0  0  0  0  0  0  0  0  0  0
   30.1841   15.6907   22.1158 C   0  0  0  0  0  0  0  0  0  0  0  0
   31.5612   16.3113   21.9027 C   0  0  0  0  0  0  0  0  0  0  0  0
   31.5533   17.8131   21.9783 N   0  0  0  0  0  0  0  0  0  0  0  0
   28.0694   15.9693   17.8971 O   0  0  0  0  0  0  0  0  0  0  0  0
  2  1  1  1  0  0  0
  2  3  1  0  0  0  0
  2  5  1  0  0  0  0
  3  4  1  0  0  0  0
  3 10  1  0  0  0  0
  5  6  1  0  0  0  0
  6  7  1  0  0  0  0
  7  8  1  0  0  0  0
  8  9  1  0  0  0  0
M  END
>  <CHROM.1>
-38.32219832,-174.65553434,-178.35267000,179.43172051,65.83258270,28.54939996
15.75522342,20.29343757,2.53199315,-0.31168818,-1.66255507

>  <Name>
ligand

>  <RI>
0

>  <Rbt.Current_Directory>
/home/itssahil/PROJECTS/Mol_Feturizer/New_Systems/rnas/3DIL

>  <Rbt.Executable>
rbdock ($Id: //depot/dev/client3/rdock/2013.1/src/exe/rbdock.cxx#4 $)

>  <Rbt.Library>
libRbt.so (2013.1, Build901 2013/11/27)

>  <Rbt.Parameter_File>
/export/apps/rDock/src/rDock_2013.1_src/data/scripts/dock_solv.prm

>  <Rbt.Receptor>
prm/pocket_docking_5.prm

>  <SCORE>
-9.32315

>  <SCORE.INTER>
-8.38443

>  <SCORE.INTER.CONST>
1

>  <SCORE.INTER.POLAR>
0

>  <SCORE.INTER.ROT>
5

>  <SCORE.INTER.SOLV>
17.7891

>  <SCORE.INTER.VDW>
-18.4527

>  <SCORE.INTER.norm>
-0.838443

>  <SCORE.INTRA>
-0.938715

>  <SCORE.INTRA.DIHEDRAL>
-1.1412

>  <SCORE.INTRA.DIHEDRAL.0>
2.93688

>  <SCORE.INTRA.POLAR>
0

>  <SCORE.INTRA.POLAR.0>
0

>  <SCORE.INTRA.REPUL>
0

>  <SCORE.INTRA.REPUL.0>
0

>  <SCORE.INTRA.SOLV>
-0.636931

>  <SCORE.INTRA.SOLV.lig_0>
-32.2816

>  <SCORE.INTRA.VDW>
-0.0496484

>  <SCORE.INTRA.VDW.0>
-0.749945

>  <SCORE.INTRA.norm>
-0.0938715

>  <SCORE.RESTR>
0

>  <SCORE.RESTR.CAVITY>
0

>  <SCORE.RESTR.norm>
0

>  <SCORE.SYSTEM>
0

>  <SCORE.SYSTEM.CONST>
0

>  <SCORE.SYSTEM.DIHEDRAL>
0

>  <SCORE.SYSTEM.SOLV>
0

>  <SCORE.SYSTEM.norm>
0

>  <SCORE.heavy>
10

>  <SCORE.norm>
-0.932315

>  <RMSD>
5.520

$$$$
ligand
 OpenBabel11021811473D
libRbt.so/2013.1/901 2013/11/27
 10  9  0  0  0  0  0  0  0  0999 V2000
   26.6819   15.7896   20.2381 N   0  0  0  0  0  0  0  0  0  0  0  0
   27.9059   15.7602   19.3828 C   0  0  2  0  0  0  0  0  0  0  0  0
   27.6209   15.1192   18.0249 C   0  0  0  0  0  0  0  0  0  0  0  0
   28.1298   15.5587   16.9952 O   0  0  0  0  0  0  0  0  0  0  0  0
   29.0635   15.0640   20.1081 C   0  0  0  0  0  0  0  0  0  0  0  0
   29.6660   15.9154   21.2251 C   0  0  0  0  0  0  0  0  0  0  0  0
   30.2859   17.2056   20.7059 C   0  0  0  0  0  0  0  0  0  0  0  0
   31.0628   17.9249   21.8041 C   0  0  0  0  0  0  0  0  0  0  0  0
   32.2964   17.1842   22.2407 N   0  0  0  0  0  0  0  0  0  0  0  0
   26.8973   14.1266   17.9025 O   0  0  0  0  0  0  0  0  0  0  0  0
  2  1  1  1  0  0  0
  2  3  1  0  0  0  0
  2  5  1  0  0  0  0
  3  4  1  0  0  0  0
  3 10  1  0  0  0  0
  5  6  1  0  0  0  0
  6  7  1  0  0  0  0
  7  8  1  0  0  0  0
  8  9  1  0  0  0  0
M  END
>  <CHROM.1>
141.42673675,-73.39551973,-62.83061376,-171.23018575,67.70691797,28.94709237
15.94685264,19.82456645,2.38805411,-0.41066150,-1.72561565

>  <Name>
ligand

>  <RI>
0

>  <Rbt.Current_Directory>
/home/itssahil/PROJECTS/Mol_Feturizer/New_Systems/rnas/3DIL

>  <Rbt.Executable>
rbdock ($Id: //depot/dev/client3/rdock/2013.1/src/exe/rbdock.cxx#4 $)

>  <Rbt.Library>
libRbt.so (2013.1, Build901 2013/11/27)

>  <Rbt.Parameter_File>
/export/apps/rDock/src/rDock_2013.1_src/data/scripts/dock_solv.prm

>  <Rbt.Receptor>
prm/blind_docking_100.prm

>  <SCORE>
-6.93903

>  <SCORE.INTER>
-7.24617

>  <SCORE.INTER.CONST>
1

>  <SCORE.INTER.POLAR>
0

>  <SCORE.INTER.ROT>
5

>  <SCORE.INTER.SOLV>
15.2088

>  <SCORE.INTER.VDW>
-16.8337

>  <SCORE.INTER.norm>
-0.724617

>  <SCORE.INTRA>
0.307132

>  <SCORE.INTRA.DIHEDRAL>
-0.19544

>  <SCORE.INTRA.DIHEDRAL.0>
2.93688

>  <SCORE.INTRA.POLAR>
0

>  <SCORE.INTRA.POLAR.0>
0

>  <SCORE.INTRA.REPUL>
0

>  <SCORE.INTRA.REPUL.0>
0

>  <SCORE.INTRA.SOLV>
0.584202

>  <SCORE.INTRA.SOLV.lig_0>
-32.2816

>  <SCORE.INTRA.VDW>
0.112751

>  <SCORE.INTRA.VDW.0>
-0.749945

>  <SCORE.INTRA.norm>
0.0307132

>  <SCORE.RESTR>
0

>  <SCORE.RESTR.CAVITY>
0

>  <SCORE.RESTR.norm>
0

>  <SCORE.SYSTEM>
0

>  <SCORE.SYSTEM.CONST>
0

>  <SCORE.SYSTEM.DIHEDRAL>
0

>  <SCORE.SYSTEM.SOLV>
0

>  <SCORE.SYSTEM.norm>
0

>  <SCORE.heavy>
10

>  <SCORE.norm>
-0.693903

>  <RMSD>
5.521

$$$$
ligand
 OpenBabel11021811473D
libRbt.so/2013.1/901 2013/11/27
 10  9  0  0  0  0  0  0  0  0999 V2000
   25.5445   15.2318   20.3251 N   0  0  0  0  0  0  0  0  0  0  0  0
   26.9043   15.7723   20.0260 C   0  0  2  0  0  0  0  0  0  0  0  0
   27.4046   15.2971   18.6622 C   0  0  0  0  0  0  0  0  0  0  0  0
   28.1170   16.0139   17.9614 O   0  0  0  0  0  0  0  0  0  0  0  0
   27.8907   15.4226   21.1465 C   0  0  0  0  0  0  0  0  0  0  0  0
   29.2506   16.0993   20.9768 C   0  0  0  0  0  0  0  0  0  0  0  0
   30.2474   15.6833   22.0500 C   0  0  0  0  0  0  0  0  0  0  0  0
   31.5862   16.3901   21.8625 C   0  0  0  0  0  0  0  0  0  0  0  0
   31.5095   17.8752   22.0851 N   0  0  0  0  0  0  0  0  0  0  0  0
   27.1428   14.1757   18.2173 O   0  0  0  0  0  0  0  0  0  0  0  0
  2  1  1  1  0  0  0
  2  3  1  0  0  0  0
  2  5  1  0  0  0  0
  3  4  1  0  0  0  0
  3 10  1  0  0  0  0
  5  6  1  0  0  0  0
  6  7  1  0  0  0  0
  7  8  1  0  0  0  0
  8  9  1  0  0  0  0
M  END
>  <CHROM.1>
146.42003465,-172.78191900,-176.72367795,-179.23836032,66.51331581,28.56208326
15.78360927,20.29437670,2.53164043,-0.32016975,-1.66262230

>  <Name>
ligand

>  <RI>
0

>  <Rbt.Current_Directory>
/home/itssahil/PROJECTS/Mol_Feturizer/New_Systems/rnas/3DIL

>  <Rbt.Executable>
rbdock ($Id: //depot/dev/client3/rdock/2013.1/src/exe/rbdock.cxx#4 $)

>  <Rbt.Library>
libRbt.so (2013.1, Build901 2013/11/27)

>  <Rbt.Parameter_File>
/export/apps/rDock/src/rDock_2013.1_src/data/scripts/dock_solv.prm

>  <Rbt.Receptor>
prm/pocket_docking_4.prm

>  <SCORE>
-9.36162

>  <SCORE.INTER>
-8.43785

>  <SCORE.INTER.CONST>
1

>  <SCORE.INTER.POLAR>
0

>  <SCORE.INTER.ROT>
5

>  <SCORE.INTER.SOLV>
17.9814

>  <SCORE.INTER.VDW>
-18.5524

>  <SCORE.INTER.norm>
-0.843785

>  <SCORE.INTRA>
-0.923773

>  <SCORE.INTRA.DIHEDRAL>
-1.08833

>  <SCORE.INTRA.DIHEDRAL.0>
2.93688

>  <SCORE.INTRA.POLAR>
0

>  <SCORE.INTRA.POLAR.0>
0

>  <SCORE.INTRA.REPUL>
0

>  <SCORE.INTRA.REPUL.0>
0

>  <SCORE.INTRA.SOLV>
-0.650242

>  <SCORE.INTRA.SOLV.lig_0>
-32.2816

>  <SCORE.INTRA.VDW>
-0.0544895

>  <SCORE.INTRA.VDW.0>
-0.749945

>  <SCORE.INTRA.norm>
-0.0923773

>  <SCORE.RESTR>
0

>  <SCORE.RESTR.CAVITY>
0

>  <SCORE.RESTR.norm>
0

>  <SCORE.SYSTEM>
0

>  <SCORE.SYSTEM.CONST>
0

>  <SCORE.SYSTEM.DIHEDRAL>
0

>  <SCORE.SYSTEM.SOLV>
0

>  <SCORE.SYSTEM.norm>
0

>  <SCORE.heavy>
10

>  <SCORE.norm>
-0.936162

>  <RMSD>
5.521

$$$$
ligand
 OpenBabel11021811473D
libRbt.so/2013.1/901 2013/11/27
 10  9  0  0  0  0  0  0  0  0999 V2000
   28.4220   15.0969   18.8396 N   0  0  0  0  0  0  0  0  0  0  0  0
   28.0096   14.9176   20.2638 C   0  0  2  0  0  0  0  0  0  0  0  0
   26.5241   15.2218   20.4558 C   0  0  0  0  0  0  0  0  0  0  0  0
   25.8937   15.8657   19.6189 O   0  0  0  0  0  0  0  0  0  0  0  0
   28.8872   15.7594   21.1976 C   0  0  0  0  0  0  0  0  0  0  0  0
   30.3314   15.2640   21.2664 C   0  0  0  0  0  0  0  0  0  0  0  0
   31.2163   16.1616   22.1207 C   0  0  0  0  0  0  0  0  0  0  0  0
   31.5204   17.4755   21.4078 C   0  0  0  0  0  0  0  0  0  0  0  0
   32.4915   18.3458   22.1565 N   0  0  0  0  0  0  0  0  0  0  0  0
   25.8889   14.8179   21.4342 O   0  0  0  0  0  0  0  0  0  0  0  0
  2  1  1  6  0  0  0
  2  3  1  0  0  0  0
  2  5  1  0  0  0  0
  3  4  1  0  0  0  0
  3 10  1  0  0  0  0
  5  6  1  0  0  0  0
  6  7  1  0  0  0  0
  7  8  1  0  0  0  0
  8  9  1  0  0  0  0
M  END
>  <CHROM.1>
-17.91909094,-68.27117831,176.08904314,-73.10211345,-174.82025516,28.87414288
15.89352162,20.87683911,-2.81080240,0.32243556,1.39947443

>  <Name>
ligand

>  <RI>
0

>  <Rbt.Current_Directory>
/home/itssahil/PROJECTS/Mol_Feturizer/New_Systems/rnas/3DIL

>  <Rbt.Executable>
rbdock ($Id: //depot/dev/client3/rdock/2013.1/src/exe/rbdock.cxx#4 $)

>  <Rbt.Library>
libRbt.so (2013.1, Build901 2013/11/27)

>  <Rbt.Parameter_File>
/export/apps/rDock/src/rDock_2013.1_src/data/scripts/dock_solv.prm

>  <Rbt.Receptor>
prm/pocket_docking_4.prm

>  <SCORE>
-9.48944

>  <SCORE.INTER>
-9.43308

>  <SCORE.INTER.CONST>
1

>  <SCORE.INTER.POLAR>
0

>  <SCORE.INTER.ROT>
5

>  <SCORE.INTER.SOLV>
12.8817

>  <SCORE.INTER.VDW>
-17.516

>  <SCORE.INTER.norm>
-0.943308

>  <SCORE.INTRA>
-0.0563602

>  <SCORE.INTRA.DIHEDRAL>
-0.240394

>  <SCORE.INTRA.DIHEDRAL.0>
2.93688

>  <SCORE.INTRA.POLAR>
0

>  <SCORE.INTRA.POLAR.0>
0

>  <SCORE.INTRA.REPUL>
0

>  <SCORE.INTRA.REPUL.0>
0

>  <SCORE.INTRA.SOLV>
-0.499489

>  <SCORE.INTRA.SOLV.lig_0>
-32.2816

>  <SCORE.INTRA.VDW>
0.313581

>  <SCORE.INTRA.VDW.0>
-0.749945

>  <SCORE.INTRA.norm>
-0.00563602

>  <SCORE.RESTR>
0

>  <SCORE.RESTR.CAVITY>
0

>  <SCORE.RESTR.norm>
0

>  <SCORE.SYSTEM>
0

>  <SCORE.SYSTEM.CONST>
0

>  <SCORE.SYSTEM.DIHEDRAL>
0

>  <SCORE.SYSTEM.SOLV>
0

>  <SCORE.SYSTEM.norm>
0

>  <SCORE.heavy>
10

>  <SCORE.norm>
-0.948944

>  <RMSD>
5.522

$$$$
ligand
 OpenBabel11021811473D
libRbt.so/2013.1/901 2013/11/27
 10  9  0  0  0  0  0  0  0  0999 V2000
   28.3375   15.4924   18.7991 N   0  0  0  0  0  0  0  0  0  0  0  0
   27.9966   15.1768   20.2186 C   0  0  2  0  0  0  0  0  0  0  0  0
   26.4860   15.2071   20.4484 C   0  0  0  0  0  0  0  0  0  0  0  0
   25.9907   14.7574   21.4803 O   0  0  0  0  0  0  0  0  0  0  0  0
   28.7366   16.1140   21.1803 C   0  0  0  0  0  0  0  0  0  0  0  0
   30.2568   15.9909   21.0818 C   0  0  0  0  0  0  0  0  0  0  0  0
   30.9820   16.9768   21.9875 C   0  0  0  0  0  0  0  0  0  0  0  0
   32.4947   16.8647   21.8251 C   0  0  0  0  0  0  0  0  0  0  0  0
   32.9639   17.1507   20.4255 N   0  0  0  0  0  0  0  0  0  0  0  0
   25.7040   15.7022   19.6314 O   0  0  0  0  0  0  0  0  0  0  0  0
  2  1  1  6  0  0  0
  2  3  1  0  0  0  0
  2  5  1  0  0  0  0
  3  4  1  0  0  0  0
  3 10  1  0  0  0  0
  5  6  1  0  0  0  0
  6  7  1  0  0  0  0
  7  8  1  0  0  0  0
  8  9  1  0  0  0  0
M  END
>  <CHROM.1>
167.52202359,-61.48989318,176.99388842,-177.80131351,60.29880157,28.94937314
15.93924295,20.71106114,-2.97899791,0.27698647,1.56128097

>  <Name>
ligand

>  <RI>
0

>  <Rbt.Current_Directory>
/home/itssahil/PROJECTS/Mol_Feturizer/New_Systems/rnas/3DIL

>  <Rbt.Executable>
rbdock ($Id: //depot/dev/client3/rdock/2013.1/src/exe/rbdock.cxx#4 $)

>  <Rbt.Library>
libRbt.so (2013.1, Build901 2013/11/27)

>  <Rbt.Parameter_File>
/export/apps/rDock/src/rDock_2013.1_src/data/scripts/dock_solv.prm

>  <Rbt.Receptor>
prm/pocket_docking_8.prm

>  <SCORE>
-9.5998

>  <SCORE.INTER>
-9.2042

>  <SCORE.INTER.CONST>
1

>  <SCORE.INTER.POLAR>
0

>  <SCORE.INTER.ROT>
5

>  <SCORE.INTER.SOLV>
12.5403

>  <SCORE.INTER.VDW>
-17.2496

>  <SCORE.INTER.norm>
-0.92042

>  <SCORE.INTRA>
-0.395603

>  <SCORE.INTRA.DIHEDRAL>
-1.3936

>  <SCORE.INTRA.DIHEDRAL.0>
2.93688

>  <SCORE.INTRA.POLAR>
0

>  <SCORE.INTRA.POLAR.0>
0

>  <SCORE.INTRA.REPUL>
0

>  <SCORE.INTRA.REPUL.0>
0

>  <SCORE.INTRA.SOLV>
0.359907

>  <SCORE.INTRA.SOLV.lig_0>
-32.2816

>  <SCORE.INTRA.VDW>
0.121244

>  <SCORE.INTRA.VDW.0>
-0.749945

>  <SCORE.INTRA.norm>
-0.0395603

>  <SCORE.RESTR>
0

>  <SCORE.RESTR.CAVITY>
0

>  <SCORE.RESTR.norm>
0

>  <SCORE.SYSTEM>
0

>  <SCORE.SYSTEM.CONST>
0

>  <SCORE.SYSTEM.DIHEDRAL>
0

>  <SCORE.SYSTEM.SOLV>
0

>  <SCORE.SYSTEM.norm>
0

>  <SCORE.heavy>
10

>  <SCORE.norm>
-0.95998

>  <RMSD>
5.523

$$$$
ligand
 OpenBabel11021811473D
libRbt.so/2013.1/901 2013/11/27
 10  9  0  0  0  0  0  0  0  0999 V2000
   28.2283   16.2000   18.7934 N   0  0  0  0  0  0  0  0  0  0  0  0
   28.0581   15.5117   20.1079 C   0  0  2  0  0  0  0  0  0  0  0  0
   26.5811   15.2952   20.4358 C   0  0  0  0  0  0  0  0  0  0  0  0
   26.2357   14.7447   21.4799 O   0  0  0  0  0  0  0  0  0  0  0  0
   28.7817   16.2756   21.2232 C   0  0  0  0  0  0  0  0  0  0  0  0
   30.2214   16.6383   20.8608 C   0  0  0  0  0  0  0  0  0  0  0  0
   30.9487   17.3450   21.9965 C   0  0  0  0  0  0  0  0  0  0  0  0
   32.2899   17.9025   21.5299 C   0  0  0  0  0  0  0  0  0  0  0  0
   33.1825   16.8617   20.9125 N   0  0  0  0  0  0  0  0  0  0  0  0
   25.6760   15.6816   19.6904 O   0  0  0  0  0  0  0  0  0  0  0  0
  2  1  1  6  0  0  0
  2  3  1  0  0  0  0
  2  5  1  0  0  0  0
  3  4  1  0  0  0  0
  3 10  1  0  0  0  0
  5  6  1  0  0  0  0
  6  7  1  0  0  0  0
  7  8  1  0  0  0  0
  8  9  1  0  0  0  0
M  END
>  <CHROM.1>
-179.86330611,-48.95863085,-177.61302802,-170.31917186,-55.39620362,28.97590541
16.23550057,20.70804790,-2.99708122,0.33754995,1.65022725

>  <Name>
ligand

>  <RI>
0

>  <Rbt.Current_Directory>
/home/itssahil/PROJECTS/Mol_Feturizer/New_Systems/rnas/3DIL

>  <Rbt.Executable>
rbdock ($Id: //depot/dev/client3/rdock/2013.1/src/exe/rbdock.cxx#4 $)

>  <Rbt.Library>
libRbt.so (2013.1, Build901 2013/11/27)

>  <Rbt.Parameter_File>
/export/apps/rDock/src/rDock_2013.1_src/data/scripts/dock_solv.prm

>  <Rbt.Receptor>
prm/pocket_docking_3.prm

>  <SCORE>
-7.8287

>  <SCORE.INTER>
-8.30516

>  <SCORE.INTER.CONST>
1

>  <SCORE.INTER.POLAR>
0

>  <SCORE.INTER.ROT>
5

>  <SCORE.INTER.SOLV>
13.4195

>  <SCORE.INTER.VDW>
-16.9433

>  <SCORE.INTER.norm>
-0.830516

>  <SCORE.INTRA>
0.476464

>  <SCORE.INTRA.DIHEDRAL>
-0.501872

>  <SCORE.INTRA.DIHEDRAL.0>
2.93688

>  <SCORE.INTRA.POLAR>
0

>  <SCORE.INTRA.POLAR.0>
0

>  <SCORE.INTRA.REPUL>
0

>  <SCORE.INTRA.REPUL.0>
0

>  <SCORE.INTRA.SOLV>
0.510397

>  <SCORE.INTRA.SOLV.lig_0>
-32.2816

>  <SCORE.INTRA.VDW>
0.472201

>  <SCORE.INTRA.VDW.0>
-0.749945

>  <SCORE.INTRA.norm>
0.0476464

>  <SCORE.RESTR>
0

>  <SCORE.RESTR.CAVITY>
0

>  <SCORE.RESTR.norm>
0

>  <SCORE.SYSTEM>
0

>  <SCORE.SYSTEM.CONST>
0

>  <SCORE.SYSTEM.DIHEDRAL>
0

>  <SCORE.SYSTEM.SOLV>
0

>  <SCORE.SYSTEM.norm>
0

>  <SCORE.heavy>
10

>  <SCORE.norm>
-0.78287

>  <RMSD>
5.524

$$$$
ligand
 OpenBabel11021811473D
libRbt.so/2013.1/901 2013/11/27
 10  9  0  0  0  0  0  0  0  0999 V2000
   25.5429   15.1955   20.3247 N   0  0  0  0  0  0  0  0  0  0  0  0
   26.8964   15.7525   20.0269 C   0  0  2  0  0  0  0  0  0  0  0  0
   27.4019   15.2871   18.6617 C   0  0  0  0  0  0  0  0  0  0  0  0
   28.1210   16.0069   17.9710 O   0  0  0  0  0  0  0  0  0  0  0  0
   27.8870   15.4107   21.1463 C   0  0  0  0  0  0  0  0  0  0  0  0
   29.2399   16.1013   20.9770 C   0  0  0  0  0  0  0  0  0  0  0  0
   30.2375   15.7028   22.0560 C   0  0  0  0  0  0  0  0  0  0  0  0
   31.5851   16.3844   21.8397 C   0  0  0  0  0  0  0  0  0  0  0  0
   31.5376   17.8726   22.0493 N   0  0  0  0  0  0  0  0  0  0  0  0
   27.1377   14.1708   18.2056 O   0  0  0  0  0  0  0  0  0  0  0  0
  2  1  1  1  0  0  0
  2  3  1  0  0  0  0
  2  5  1  0  0  0  0
  3  4  1  0  0  0  0
  3 10  1  0  0  0  0
  5  6  1  0  0  0  0
  6  7  1  0  0  0  0
  7  8  1  0  0  0  0
  8  9  1  0  0  0  0
M  END
>  <CHROM.1>
147.42877317,-172.89233717,-177.22501105,178.71346043,67.81247663,28.56110869
15.77612349,20.28892982,2.53919365,-0.32806626,-1.65650983

>  <Name>
ligand

>  <RI>
0

>  <Rbt.Current_Directory>
/home/itssahil/PROJECTS/Mol_Feturizer/New_Systems/rnas/3DIL

>  <Rbt.Executable>
rbdock ($Id: //depot/dev/client3/rdock/2013.1/src/exe/rbdock.cxx#4 $)

>  <Rbt.Library>
libRbt.so (2013.1, Build901 2013/11/27)

>  <Rbt.Parameter_File>
/export/apps/rDock/src/rDock_2013.1_src/data/scripts/dock_solv.prm

>  <Rbt.Receptor>
prm/pocket_docking_6.prm

>  <SCORE>
-9.36836

>  <SCORE.INTER>
-8.45712

>  <SCORE.INTER.CONST>
1

>  <SCORE.INTER.POLAR>
0

>  <SCORE.INTER.ROT>
5

>  <SCORE.INTER.SOLV>
17.9535

>  <SCORE.INTER.VDW>
-18.5559

>  <SCORE.INTER.norm>
-0.845712

>  <SCORE.INTRA>
-0.911241

>  <SCORE.INTRA.DIHEDRAL>
-1.03425

>  <SCORE.INTRA.DIHEDRAL.0>
2.93688

>  <SCORE.INTRA.POLAR>
0

>  <SCORE.INTRA.POLAR.0>
0

>  <SCORE.INTRA.REPUL>
0

>  <SCORE.INTRA.REPUL.0>
0

>  <SCORE.INTRA.SOLV>
-0.679429

>  <SCORE.INTRA.SOLV.lig_0>
-32.2816

>  <SCORE.INTRA.VDW>
-0.054402

>  <SCORE.INTRA.VDW.0>
-0.749945

>  <SCORE.INTRA.norm>
-0.0911241

>  <SCORE.RESTR>
0

>  <SCORE.RESTR.CAVITY>
0

>  <SCORE.RESTR.norm>
0

>  <SCORE.SYSTEM>
0

>  <SCORE.SYSTEM.CONST>
0

>  <SCORE.SYSTEM.DIHEDRAL>
0

>  <SCORE.SYSTEM.SOLV>
0

>  <SCORE.SYSTEM.norm>
0

>  <SCORE.heavy>
10

>  <SCORE.norm>
-0.936836

>  <RMSD>
5.524

$$$$
ligand
 OpenBabel11021811473D
libRbt.so/2013.1/901 2013/11/27
 10  9  0  0  0  0  0  0  0  0999 V2000
   26.5436   16.2358   19.6774 N   0  0  0  0  0  0  0  0  0  0  0  0
   27.8386   15.6660   19.1989 C   0  0  2  0  0  0  0  0  0  0  0  0
   27.7016   15.0723   17.7973 C   0  0  0  0  0  0  0  0  0  0  0  0
   27.0292   14.0621   17.5976 O   0  0  0  0  0  0  0  0  0  0  0  0
   28.3882   14.6416   20.1987 C   0  0  0  0  0  0  0  0  0  0  0  0
   29.0489   15.2899   21.4148 C   0  0  0  0  0  0  0  0  0  0  0  0
   30.3098   16.0622   21.0516 C   0  0  0  0  0  0  0  0  0  0  0  0
   30.8981   16.7627   22.2723 C   0  0  0  0  0  0  0  0  0  0  0  0
   32.1092   17.5947   21.9526 N   0  0  0  0  0  0  0  0  0  0  0  0
   28.2306   15.5873   16.8078 O   0  0  0  0  0  0  0  0  0  0  0  0
  2  1  1  1  0  0  0
  2  3  1  0  0  0  0
  2  5  1  0  0  0  0
  3  4  1  0  0  0  0
  3 10  1  0  0  0  0
  5  6  1  0  0  0  0
  6  7  1  0  0  0  0
  7  8  1  0  0  0  0
  8  9  1  0  0  0  0
M  END
>  <CHROM.1>
-68.12340091,-77.83370678,-65.90581258,176.69865668,-177.20735185,28.79939967
15.68186584,19.75693157,2.35257743,-0.44604448,-1.58202451

>  <Name>
ligand

>  <RI>
0

>  <Rbt.Current_Directory>
/home/itssahil/PROJECTS/Mol_Feturizer/New_Systems/rnas/3DIL

>  <Rbt.Executable>
rbdock ($Id: //depot/dev/client3/rdock/2013.1/src/exe/rbdock.cxx#4 $)

>  <Rbt.Library>
libRbt.so (2013.1, Build901 2013/11/27)

>  <Rbt.Parameter_File>
/export/apps/rDock/src/rDock_2013.1_src/data/scripts/dock_solv.prm

>  <Rbt.Receptor>
prm/blind_docking_100.prm

>  <SCORE>
-8.1215

>  <SCORE.INTER>
-7.98955

>  <SCORE.INTER.CONST>
1

>  <SCORE.INTER.POLAR>
0

>  <SCORE.INTER.ROT>
5

>  <SCORE.INTER.SOLV>
15.4782

>  <SCORE.INTER.VDW>
-17.4191

>  <SCORE.INTER.norm>
-0.798955

>  <SCORE.INTRA>
-0.13195

>  <SCORE.INTRA.DIHEDRAL>
-0.0339449

>  <SCORE.INTRA.DIHEDRAL.0>
2.93688

>  <SCORE.INTRA.POLAR>
0

>  <SCORE.INTRA.POLAR.0>
0

>  <SCORE.INTRA.REPUL>
0

>  <SCORE.INTRA.REPUL.0>
0

>  <SCORE.INTRA.SOLV>
-0.419129

>  <SCORE.INTRA.SOLV.lig_0>
-32.2816

>  <SCORE.INTRA.VDW>
0.0945872

>  <SCORE.INTRA.VDW.0>
-0.749945

>  <SCORE.INTRA.norm>
-0.013195

>  <SCORE.RESTR>
0

>  <SCORE.RESTR.CAVITY>
0

>  <SCORE.RESTR.norm>
0

>  <SCORE.SYSTEM>
0

>  <SCORE.SYSTEM.CONST>
0

>  <SCORE.SYSTEM.DIHEDRAL>
0

>  <SCORE.SYSTEM.SOLV>
0

>  <SCORE.SYSTEM.norm>
0

>  <SCORE.heavy>
10

>  <SCORE.norm>
-0.81215

>  <RMSD>
5.525

$$$$
ligand
 OpenBabel11021811473D
libRbt.so/2013.1/901 2013/11/27
 10  9  0  0  0  0  0  0  0  0999 V2000
   27.1060   14.8954   20.3565 N   0  0  0  0  0  0  0  0  0  0  0  0
   27.5530   15.8291   19.2799 C   0  0  2  0  0  0  0  0  0  0  0  0
   27.6996   15.1061   17.9413 C   0  0  0  0  0  0  0  0  0  0  0  0
   28.2213   15.6583   16.9743 O   0  0  0  0  0  0  0  0  0  0  0  0
   28.8460   16.5485   19.6816 C   0  0  0  0  0  0  0  0  0  0  0  0
   29.9930   15.5865   19.9895 C   0  0  0  0  0  0  0  0  0  0  0  0
   31.2869   16.3119   20.3328 C   0  0  0  0  0  0  0  0  0  0  0  0
   31.1594   17.0742   21.6480 C   0  0  0  0  0  0  0  0  0  0  0  0
   32.3824   17.8806   21.9873 N   0  0  0  0  0  0  0  0  0  0  0  0
   27.3304   13.9395   17.7775 O   0  0  0  0  0  0  0  0  0  0  0  0
  2  1  1  1  0  0  0
  2  3  1  0  0  0  0
  2  5  1  0  0  0  0
  3  4  1  0  0  0  0
  3 10  1  0  0  0  0
  5  6  1  0  0  0  0
  6  7  1  0  0  0  0
  7  8  1  0  0  0  0
  8  9  1  0  0  0  0
M  END
>  <CHROM.1>
-170.48547727,58.18710347,177.69550283,66.59508572,-176.26877024,29.15128403
15.86404633,19.56023656,2.47060434,-0.43948400,-1.68069200

>  <Name>
ligand

>  <RI>
0

>  <Rbt.Current_Directory>
/home/itssahil/PROJECTS/Mol_Feturizer/New_Systems/rnas/3DIL

>  <Rbt.Executable>
rbdock ($Id: //depot/dev/client3/rdock/2013.1/src/exe/rbdock.cxx#4 $)

>  <Rbt.Library>
libRbt.so (2013.1, Build901 2013/11/27)

>  <Rbt.Parameter_File>
/export/apps/rDock/src/rDock_2013.1_src/data/scripts/dock_solv.prm

>  <Rbt.Receptor>
prm/blind_docking_60.prm

>  <SCORE>
-8.48473

>  <SCORE.INTER>
-8.62131

>  <SCORE.INTER.CONST>
1

>  <SCORE.INTER.POLAR>
0

>  <SCORE.INTER.ROT>
5

>  <SCORE.INTER.SOLV>
13.5484

>  <SCORE.INTER.VDW>
-17.197

>  <SCORE.INTER.norm>
-0.862131

>  <SCORE.INTRA>
0.136577

>  <SCORE.INTRA.DIHEDRAL>
-1.13323

>  <SCORE.INTRA.DIHEDRAL.0>
2.93688

>  <SCORE.INTRA.POLAR>
0

>  <SCORE.INTRA.POLAR.0>
0

>  <SCORE.INTRA.REPUL>
0

>  <SCORE.INTRA.REPUL.0>
0

>  <SCORE.INTRA.SOLV>
-0.340011

>  <SCORE.INTRA.SOLV.lig_0>
-32.2816

>  <SCORE.INTRA.VDW>
0.873197

>  <SCORE.INTRA.VDW.0>
-0.749945

>  <SCORE.INTRA.norm>
0.0136577

>  <SCORE.RESTR>
0

>  <SCORE.RESTR.CAVITY>
0

>  <SCORE.RESTR.norm>
0

>  <SCORE.SYSTEM>
0

>  <SCORE.SYSTEM.CONST>
0

>  <SCORE.SYSTEM.DIHEDRAL>
0

>  <SCORE.SYSTEM.SOLV>
0

>  <SCORE.SYSTEM.norm>
0

>  <SCORE.heavy>
10

>  <SCORE.norm>
-0.848473

>  <RMSD>
5.525

$$$$
ligand
 OpenBabel11021811473D
libRbt.so/2013.1/901 2013/11/27
 10  9  0  0  0  0  0  0  0  0999 V2000
   25.5152   15.2269   20.2888 N   0  0  0  0  0  0  0  0  0  0  0  0
   26.8795   15.7714   20.0186 C   0  0  2  0  0  0  0  0  0  0  0  0
   27.4093   15.2993   18.6650 C   0  0  0  0  0  0  0  0  0  0  0  0
   27.1252   14.1870   18.2239 O   0  0  0  0  0  0  0  0  0  0  0  0
   27.8434   15.4229   21.1589 C   0  0  0  0  0  0  0  0  0  0  0  0
   29.2132   16.0831   21.0050 C   0  0  0  0  0  0  0  0  0  0  0  0
   30.1759   15.6966   22.1194 C   0  0  0  0  0  0  0  0  0  0  0  0
   31.5331   16.3676   21.9330 C   0  0  0  0  0  0  0  0  0  0  0  0
   31.4871   17.8597   22.1133 N   0  0  0  0  0  0  0  0  0  0  0  0
   28.1163   16.0131   17.9476 O   0  0  0  0  0  0  0  0  0  0  0  0
  2  1  1  1  0  0  0
  2  3  1  0  0  0  0
  2  5  1  0  0  0  0
  3  4  1  0  0  0  0
  3 10  1  0  0  0  0
  5  6  1  0  0  0  0
  6  7  1  0  0  0  0
  7  8  1  0  0  0  0
  8  9  1  0  0  0  0
M  END
>  <CHROM.1>
-33.58275535,-173.83018712,-178.24023839,179.78911135,67.62585127,28.53221129
15.78039163,20.31024894,2.52215814,-0.32507187,-1.65145635

>  <Name>
ligand

>  <RI>
0

>  <Rbt.Current_Directory>
/home/itssahil/PROJECTS/Mol_Feturizer/New_Systems/rnas/3DIL

>  <Rbt.Executable>
rbdock ($Id: //depot/dev/client3/rdock/2013.1/src/exe/rbdock.cxx#4 $)

>  <Rbt.Library>
libRbt.so (2013.1, Build901 2013/11/27)

>  <Rbt.Parameter_File>
/export/apps/rDock/src/rDock_2013.1_src/data/scripts/dock_solv.prm

>  <Rbt.Receptor>
prm/pocket_docking_7.prm

>  <SCORE>
-9.30822

>  <SCORE.INTER>
-8.43566

>  <SCORE.INTER.CONST>
1

>  <SCORE.INTER.POLAR>
0

>  <SCORE.INTER.ROT>
5

>  <SCORE.INTER.SOLV>
18.0638

>  <SCORE.INTER.VDW>
-18.5784

>  <SCORE.INTER.norm>
-0.843566

>  <SCORE.INTRA>
-0.872552

>  <SCORE.INTRA.DIHEDRAL>
-1.01129

>  <SCORE.INTRA.DIHEDRAL.0>
2.93688

>  <SCORE.INTRA.POLAR>
0

>  <SCORE.INTRA.POLAR.0>
0

>  <SCORE.INTRA.REPUL>
0

>  <SCORE.INTRA.REPUL.0>
0

>  <SCORE.INTRA.SOLV>
-0.658268

>  <SCORE.INTRA.SOLV.lig_0>
-32.2816

>  <SCORE.INTRA.VDW>
-0.0377724

>  <SCORE.INTRA.VDW.0>
-0.749945

>  <SCORE.INTRA.norm>
-0.0872552

>  <SCORE.RESTR>
0

>  <SCORE.RESTR.CAVITY>
0

>  <SCORE.RESTR.norm>
0

>  <SCORE.SYSTEM>
0

>  <SCORE.SYSTEM.CONST>
0

>  <SCORE.SYSTEM.DIHEDRAL>
0

>  <SCORE.SYSTEM.SOLV>
0

>  <SCORE.SYSTEM.norm>
0

>  <SCORE.heavy>
10

>  <SCORE.norm>
-0.930822

>  <RMSD>
5.525

$$$$
ligand
 OpenBabel11021811473D
libRbt.so/2013.1/901 2013/11/27
 10  9  0  0  0  0  0  0  0  0999 V2000
   25.5348   15.2131   20.3341 N   0  0  0  0  0  0  0  0  0  0  0  0
   26.8944   15.7539   20.0347 C   0  0  2  0  0  0  0  0  0  0  0  0
   27.4053   15.2584   18.6822 C   0  0  0  0  0  0  0  0  0  0  0  0
   28.0784   15.9840   17.9523 O   0  0  0  0  0  0  0  0  0  0  0  0
   27.8749   15.4266   21.1671 C   0  0  0  0  0  0  0  0  0  0  0  0
   29.2324   16.1078   20.9964 C   0  0  0  0  0  0  0  0  0  0  0  0
   30.2268   15.7066   22.0773 C   0  0  0  0  0  0  0  0  0  0  0  0
   31.5698   16.4017   21.8764 C   0  0  0  0  0  0  0  0  0  0  0  0
   31.5098   17.8864   22.1066 N   0  0  0  0  0  0  0  0  0  0  0  0
   27.1919   14.1124   18.2757 O   0  0  0  0  0  0  0  0  0  0  0  0
  2  1  1  1  0  0  0
  2  3  1  0  0  0  0
  2  5  1  0  0  0  0
  3  4  1  0  0  0  0
  3 10  1  0  0  0  0
  5  6  1  0  0  0  0
  6  7  1  0  0  0  0
  7  8  1  0  0  0  0
  8  9  1  0  0  0  0
M  END
>  <CHROM.1>
143.71267728,-172.67486528,-176.35126404,179.91437801,68.05747740,28.55443369
15.77202068,20.31358968,2.52578891,-0.32064884,-1.67851959

>  <Name>
ligand

>  <RI>
0

>  <Rbt.Current_Directory>
/home/itssahil/PROJECTS/Mol_Feturizer/New_Systems/rnas/3DIL

>  <Rbt.Executable>
rbdock ($Id: //depot/dev/client3/rdock/2013.1/src/exe/rbdock.cxx#4 $)

>  <Rbt.Library>
libRbt.so (2013.1, Build901 2013/11/27)

>  <Rbt.Parameter_File>
/export/apps/rDock/src/rDock_2013.1_src/data/scripts/dock_solv.prm

>  <Rbt.Receptor>
prm/pocket_docking_7.prm

>  <SCORE>
-9.38915

>  <SCORE.INTER>
-8.45458

>  <SCORE.INTER.CONST>
1

>  <SCORE.INTER.POLAR>
0

>  <SCORE.INTER.ROT>
5

>  <SCORE.INTER.SOLV>
18.0686

>  <SCORE.INTER.VDW>
-18.5926

>  <SCORE.INTER.norm>
-0.845458

>  <SCORE.INTRA>
-0.934562

>  <SCORE.INTRA.DIHEDRAL>
-0.988625

>  <SCORE.INTRA.DIHEDRAL.0>
2.93688

>  <SCORE.INTRA.POLAR>
0

>  <SCORE.INTRA.POLAR.0>
0

>  <SCORE.INTRA.REPUL>
0

>  <SCORE.INTRA.REPUL.0>
0

>  <SCORE.INTRA.SOLV>
-0.678488

>  <SCORE.INTRA.SOLV.lig_0>
-32.2816

>  <SCORE.INTRA.VDW>
-0.101006

>  <SCORE.INTRA.VDW.0>
-0.749945

>  <SCORE.INTRA.norm>
-0.0934562

>  <SCORE.RESTR>
0

>  <SCORE.RESTR.CAVITY>
0

>  <SCORE.RESTR.norm>
0

>  <SCORE.SYSTEM>
0

>  <SCORE.SYSTEM.CONST>
0

>  <SCORE.SYSTEM.DIHEDRAL>
0

>  <SCORE.SYSTEM.SOLV>
0

>  <SCORE.SYSTEM.norm>
0

>  <SCORE.heavy>
10

>  <SCORE.norm>
-0.938915

>  <RMSD>
5.525

$$$$
ligand
 OpenBabel11021811473D
libRbt.so/2013.1/901 2013/11/27
 10  9  0  0  0  0  0  0  0  0999 V2000
   25.5464   15.2222   20.3167 N   0  0  0  0  0  0  0  0  0  0  0  0
   26.9067   15.7608   20.0165 C   0  0  2  0  0  0  0  0  0  0  0  0
   27.4215   15.2537   18.6697 C   0  0  0  0  0  0  0  0  0  0  0  0
   27.1875   14.1075   18.2904 O   0  0  0  0  0  0  0  0  0  0  0  0
   27.8841   15.4435   21.1544 C   0  0  0  0  0  0  0  0  0  0  0  0
   29.2598   16.0783   20.9536 C   0  0  0  0  0  0  0  0  0  0  0  0
   30.2459   15.6925   22.0478 C   0  0  0  0  0  0  0  0  0  0  0  0
   31.5893   16.3875   21.8493 C   0  0  0  0  0  0  0  0  0  0  0  0
   31.5272   17.8733   22.0720 N   0  0  0  0  0  0  0  0  0  0  0  0
   28.0654   15.9698   17.8973 O   0  0  0  0  0  0  0  0  0  0  0  0
  2  1  1  1  0  0  0
  2  3  1  0  0  0  0
  2  5  1  0  0  0  0
  3  4  1  0  0  0  0
  3 10  1  0  0  0  0
  5  6  1  0  0  0  0
  6  7  1  0  0  0  0
  7  8  1  0  0  0  0
  8  9  1  0  0  0  0
M  END
>  <CHROM.1>
-37.11559159,-174.95940727,-176.73914657,-177.65206624,68.55452299,28.56533459
15.76561225,20.28997165,2.52991256,-0.31797309,-1.67529145

>  <Name>
ligand

>  <RI>
0

>  <Rbt.Current_Directory>
/home/itssahil/PROJECTS/Mol_Feturizer/New_Systems/rnas/3DIL

>  <Rbt.Executable>
rbdock ($Id: //depot/dev/client3/rdock/2013.1/src/exe/rbdock.cxx#4 $)

>  <Rbt.Library>
libRbt.so (2013.1, Build901 2013/11/27)

>  <Rbt.Parameter_File>
/export/apps/rDock/src/rDock_2013.1_src/data/scripts/dock_solv.prm

>  <Rbt.Receptor>
prm/blind_docking_60.prm

>  <SCORE>
-9.31519

>  <SCORE.INTER>
-8.44857

>  <SCORE.INTER.CONST>
1

>  <SCORE.INTER.POLAR>
0

>  <SCORE.INTER.ROT>
5

>  <SCORE.INTER.SOLV>
17.9449

>  <SCORE.INTER.VDW>
-18.5473

>  <SCORE.INTER.norm>
-0.844857

>  <SCORE.INTRA>
-0.86662

>  <SCORE.INTRA.DIHEDRAL>
-0.951756

>  <SCORE.INTRA.DIHEDRAL.0>
2.93688

>  <SCORE.INTRA.POLAR>
0

>  <SCORE.INTRA.POLAR.0>
0

>  <SCORE.INTRA.REPUL>
0

>  <SCORE.INTRA.REPUL.0>
0

>  <SCORE.INTRA.SOLV>
-0.659914

>  <SCORE.INTRA.SOLV.lig_0>
-32.2816

>  <SCORE.INTRA.VDW>
-0.0607848

>  <SCORE.INTRA.VDW.0>
-0.749945

>  <SCORE.INTRA.norm>
-0.086662

>  <SCORE.RESTR>
0

>  <SCORE.RESTR.CAVITY>
0

>  <SCORE.RESTR.norm>
0

>  <SCORE.SYSTEM>
0

>  <SCORE.SYSTEM.CONST>
0

>  <SCORE.SYSTEM.DIHEDRAL>
0

>  <SCORE.SYSTEM.SOLV>
0

>  <SCORE.SYSTEM.norm>
0

>  <SCORE.heavy>
10

>  <SCORE.norm>
-0.931519

>  <RMSD>
5.526

$$$$
ligand
 OpenBabel11021811473D
libRbt.so/2013.1/901 2013/11/27
 10  9  0  0  0  0  0  0  0  0999 V2000
   27.0041   14.7010   20.1258 N   0  0  0  0  0  0  0  0  0  0  0  0
   27.3258   15.7154   19.0779 C   0  0  2  0  0  0  0  0  0  0  0  0
   27.9484   15.0630   17.8440 C   0  0  0  0  0  0  0  0  0  0  0  0
   28.1989   15.7205   16.8353 O   0  0  0  0  0  0  0  0  0  0  0  0
   28.2191   16.8245   19.6460 C   0  0  0  0  0  0  0  0  0  0  0  0
   29.5471   16.3003   20.1915 C   0  0  0  0  0  0  0  0  0  0  0  0
   30.3780   17.3915   20.8527 C   0  0  0  0  0  0  0  0  0  0  0  0
   31.7238   16.8500   21.3247 C   0  0  0  0  0  0  0  0  0  0  0  0
   32.5836   17.8917   21.9855 N   0  0  0  0  0  0  0  0  0  0  0  0
   28.2502   13.8664   17.8115 O   0  0  0  0  0  0  0  0  0  0  0  0
  2  1  1  1  0  0  0
  2  3  1  0  0  0  0
  2  5  1  0  0  0  0
  3  4  1  0  0  0  0
  3 10  1  0  0  0  0
  5  6  1  0  0  0  0
  6  7  1  0  0  0  0
  7  8  1  0  0  0  0
  8  9  1  0  0  0  0
M  END
>  <CHROM.1>
174.97292381,59.57646585,-175.43019987,-177.22642577,179.97366853,29.12223163
16.01381630,19.53442851,2.39123412,-0.37050426,-1.82922132

>  <Name>
ligand

>  <RI>
0

>  <Rbt.Current_Directory>
/home/itssahil/PROJECTS/Mol_Feturizer/New_Systems/rnas/3DIL

>  <Rbt.Executable>
rbdock ($Id: //depot/dev/client3/rdock/2013.1/src/exe/rbdock.cxx#4 $)

>  <Rbt.Library>
libRbt.so (2013.1, Build901 2013/11/27)

>  <Rbt.Parameter_File>
/export/apps/rDock/src/rDock_2013.1_src/data/scripts/dock_solv.prm

>  <Rbt.Receptor>
prm/pocket_docking_4.prm

>  <SCORE>
-8.96484

>  <SCORE.INTER>
-8.13239

>  <SCORE.INTER.CONST>
1

>  <SCORE.INTER.POLAR>
0

>  <SCORE.INTER.ROT>
5

>  <SCORE.INTER.SOLV>
14.2455

>  <SCORE.INTER.VDW>
-17.1034

>  <SCORE.INTER.norm>
-0.813239

>  <SCORE.INTRA>
-0.83245

>  <SCORE.INTRA.DIHEDRAL>
-1.32512

>  <SCORE.INTRA.DIHEDRAL.0>
2.93688

>  <SCORE.INTRA.POLAR>
0

>  <SCORE.INTRA.POLAR.0>
0

>  <SCORE.INTRA.REPUL>
0

>  <SCORE.INTRA.REPUL.0>
0

>  <SCORE.INTRA.SOLV>
-0.561834

>  <SCORE.INTRA.SOLV.lig_0>
-32.2816

>  <SCORE.INTRA.VDW>
0.111025

>  <SCORE.INTRA.VDW.0>
-0.749945

>  <SCORE.INTRA.norm>
-0.083245

>  <SCORE.RESTR>
0

>  <SCORE.RESTR.CAVITY>
0

>  <SCORE.RESTR.norm>
0

>  <SCORE.SYSTEM>
0

>  <SCORE.SYSTEM.CONST>
0

>  <SCORE.SYSTEM.DIHEDRAL>
0

>  <SCORE.SYSTEM.SOLV>
0

>  <SCORE.SYSTEM.norm>
0

>  <SCORE.heavy>
10

>  <SCORE.norm>
-0.896484

>  <RMSD>
5.527

$$$$
ligand
 OpenBabel11021811473D
libRbt.so/2013.1/901 2013/11/27
 10  9  0  0  0  0  0  0  0  0999 V2000
   25.5490   15.2007   20.3157 N   0  0  0  0  0  0  0  0  0  0  0  0
   26.9084   15.7422   20.0167 C   0  0  2  0  0  0  0  0  0  0  0  0
   27.4185   15.2496   18.6628 C   0  0  0  0  0  0  0  0  0  0  0  0
   27.1817   14.1080   18.2712 O   0  0  0  0  0  0  0  0  0  0  0  0
   27.8897   15.4125   21.1477 C   0  0  0  0  0  0  0  0  0  0  0  0
   29.2499   16.0872   20.9731 C   0  0  0  0  0  0  0  0  0  0  0  0
   30.2371   15.7020   22.0664 C   0  0  0  0  0  0  0  0  0  0  0  0
   31.5946   16.3602   21.8404 C   0  0  0  0  0  0  0  0  0  0  0  0
   31.5633   17.8549   22.0015 N   0  0  0  0  0  0  0  0  0  0  0  0
   28.0610   15.9734   17.8964 O   0  0  0  0  0  0  0  0  0  0  0  0
  2  1  1  1  0  0  0
  2  3  1  0  0  0  0
  2  5  1  0  0  0  0
  3  4  1  0  0  0  0
  3 10  1  0  0  0  0
  5  6  1  0  0  0  0
  6  7  1  0  0  0  0
  7  8  1  0  0  0  0
  8  9  1  0  0  0  0
M  END
>  <CHROM.1>
-37.04009509,-173.02462189,-177.33546815,178.37157744,67.29834656,28.56714497
15.75610740,20.28228722,2.54030322,-0.32831475,-1.65657381

>  <Name>
ligand

>  <RI>
0

>  <Rbt.Current_Directory>
/home/itssahil/PROJECTS/Mol_Feturizer/New_Systems/rnas/3DIL

>  <Rbt.Executable>
rbdock ($Id: //depot/dev/client3/rdock/2013.1/src/exe/rbdock.cxx#4 $)

>  <Rbt.Library>
libRbt.so (2013.1, Build901 2013/11/27)

>  <Rbt.Parameter_File>
/export/apps/rDock/src/rDock_2013.1_src/data/scripts/dock_solv.prm

>  <Rbt.Receptor>
prm/pocket_docking_5.prm

>  <SCORE>
-9.29209

>  <SCORE.INTER>
-8.39309

>  <SCORE.INTER.CONST>
1

>  <SCORE.INTER.POLAR>
0

>  <SCORE.INTER.ROT>
5

>  <SCORE.INTER.SOLV>
17.8754

>  <SCORE.INTER.VDW>
-18.4872

>  <SCORE.INTER.norm>
-0.839309

>  <SCORE.INTRA>
-0.898997

>  <SCORE.INTRA.DIHEDRAL>
-0.966033

>  <SCORE.INTRA.DIHEDRAL.0>
2.93688

>  <SCORE.INTRA.POLAR>
0

>  <SCORE.INTRA.POLAR.0>
0

>  <SCORE.INTRA.REPUL>
0

>  <SCORE.INTRA.REPUL.0>
0

>  <SCORE.INTRA.SOLV>
-0.661575

>  <SCORE.INTRA.SOLV.lig_0>
-32.2816

>  <SCORE.INTRA.VDW>
-0.085193

>  <SCORE.INTRA.VDW.0>
-0.749945

>  <SCORE.INTRA.norm>
-0.0898997

>  <SCORE.RESTR>
0

>  <SCORE.RESTR.CAVITY>
0

>  <SCORE.RESTR.norm>
0

>  <SCORE.SYSTEM>
0

>  <SCORE.SYSTEM.CONST>
0

>  <SCORE.SYSTEM.DIHEDRAL>
0

>  <SCORE.SYSTEM.SOLV>
0

>  <SCORE.SYSTEM.norm>
0

>  <SCORE.heavy>
10

>  <SCORE.norm>
-0.929209

>  <RMSD>
5.527

$$$$
ligand
 OpenBabel11021811473D
libRbt.so/2013.1/901 2013/11/27
 10  9  0  0  0  0  0  0  0  0999 V2000
   28.4236   15.1481   18.8493 N   0  0  0  0  0  0  0  0  0  0  0  0
   27.9951   14.9153   20.2610 C   0  0  2  0  0  0  0  0  0  0  0  0
   26.5091   15.2190   20.4490 C   0  0  0  0  0  0  0  0  0  0  0  0
   25.8848   15.8775   19.6190 O   0  0  0  0  0  0  0  0  0  0  0  0
   28.8665   15.7155   21.2362 C   0  0  0  0  0  0  0  0  0  0  0  0
   30.3229   15.2523   21.2530 C   0  0  0  0  0  0  0  0  0  0  0  0
   31.2059   16.1345   22.1249 C   0  0  0  0  0  0  0  0  0  0  0  0
   31.5020   17.4656   21.4410 C   0  0  0  0  0  0  0  0  0  0  0  0
   32.5179   18.2966   22.1748 N   0  0  0  0  0  0  0  0  0  0  0  0
   25.8673   14.8005   21.4170 O   0  0  0  0  0  0  0  0  0  0  0  0
  2  1  1  6  0  0  0
  2  3  1  0  0  0  0
  2  5  1  0  0  0  0
  3  4  1  0  0  0  0
  3 10  1  0  0  0  0
  5  6  1  0  0  0  0
  6  7  1  0  0  0  0
  7  8  1  0  0  0  0
  8  9  1  0  0  0  0
M  END
>  <CHROM.1>
-16.56486891,-65.61888723,174.65280986,-74.99696082,-172.22357312,28.86510155
15.88344911,20.88307801,-2.83279048,0.33796970,1.47119553

>  <Name>
ligand

>  <RI>
0

>  <Rbt.Current_Directory>
/home/itssahil/PROJECTS/Mol_Feturizer/New_Systems/rnas/3DIL

>  <Rbt.Executable>
rbdock ($Id: //depot/dev/client3/rdock/2013.1/src/exe/rbdock.cxx#4 $)

>  <Rbt.Library>
libRbt.so (2013.1, Build901 2013/11/27)

>  <Rbt.Parameter_File>
/export/apps/rDock/src/rDock_2013.1_src/data/scripts/dock_solv.prm

>  <Rbt.Receptor>
prm/pocket_docking_3.prm

>  <SCORE>
-9.4662

>  <SCORE.INTER>
-9.52691

>  <SCORE.INTER.CONST>
1

>  <SCORE.INTER.POLAR>
0

>  <SCORE.INTER.ROT>
5

>  <SCORE.INTER.SOLV>
12.7877

>  <SCORE.INTER.VDW>
-17.5472

>  <SCORE.INTER.norm>
-0.952691

>  <SCORE.INTRA>
0.0607115

>  <SCORE.INTRA.DIHEDRAL>
-0.00654146

>  <SCORE.INTRA.DIHEDRAL.0>
2.93688

>  <SCORE.INTRA.POLAR>
0

>  <SCORE.INTRA.POLAR.0>
0

>  <SCORE.INTRA.REPUL>
0

>  <SCORE.INTRA.REPUL.0>
0

>  <SCORE.INTRA.SOLV>
-0.455299

>  <SCORE.INTRA.SOLV.lig_0>
-32.2816

>  <SCORE.INTRA.VDW>
0.291632

>  <SCORE.INTRA.VDW.0>
-0.749945

>  <SCORE.INTRA.norm>
0.00607115

>  <SCORE.RESTR>
0

>  <SCORE.RESTR.CAVITY>
0

>  <SCORE.RESTR.norm>
0

>  <SCORE.SYSTEM>
0

>  <SCORE.SYSTEM.CONST>
0

>  <SCORE.SYSTEM.DIHEDRAL>
0

>  <SCORE.SYSTEM.SOLV>
0

>  <SCORE.SYSTEM.norm>
0

>  <SCORE.heavy>
10

>  <SCORE.norm>
-0.94662

>  <RMSD>
5.528

$$$$
ligand
 OpenBabel11021811473D
libRbt.so/2013.1/901 2013/11/27
 10  9  0  0  0  0  0  0  0  0999 V2000
   28.5141   14.6133   21.4505 N   0  0  0  0  0  0  0  0  0  0  0  0
   27.8332   15.7655   20.7876 C   0  0  2  0  0  0  0  0  0  0  0  0
   26.6136   15.3068   19.9888 C   0  0  0  0  0  0  0  0  0  0  0  0
   26.7180   14.9546   18.8152 O   0  0  0  0  0  0  0  0  0  0  0  0
   28.8177   16.5560   19.9177 C   0  0  0  0  0  0  0  0  0  0  0  0
   29.9647   17.1684   20.7208 C   0  0  0  0  0  0  0  0  0  0  0  0
   30.9443   16.1205   21.2314 C   0  0  0  0  0  0  0  0  0  0  0  0
   32.1119   16.7697   21.9678 C   0  0  0  0  0  0  0  0  0  0  0  0
   32.9583   17.6437   21.0842 N   0  0  0  0  0  0  0  0  0  0  0  0
   25.4851   15.2434   20.4854 O   0  0  0  0  0  0  0  0  0  0  0  0
  2  1  1  6  0  0  0
  2  3  1  0  0  0  0
  2  5  1  0  0  0  0
  3  4  1  0  0  0  0
  3 10  1  0  0  0  0
  5  6  1  0  0  0  0
  6  7  1  0  0  0  0
  7  8  1  0  0  0  0
  8  9  1  0  0  0  0
M  END
>  <CHROM.1>
-88.24672399,-61.86091383,70.65479741,177.15937602,-63.84975022,28.95701683
16.00045313,20.62531033,3.11930883,-0.39453122,-0.99295196

>  <Name>
ligand

>  <RI>
0

>  <Rbt.Current_Directory>
/home/itssahil/PROJECTS/Mol_Feturizer/New_Systems/rnas/3DIL

>  <Rbt.Executable>
rbdock ($Id: //depot/dev/client3/rdock/2013.1/src/exe/rbdock.cxx#4 $)

>  <Rbt.Library>
libRbt.so (2013.1, Build901 2013/11/27)

>  <Rbt.Parameter_File>
/export/apps/rDock/src/rDock_2013.1_src/data/scripts/dock_solv.prm

>  <Rbt.Receptor>
prm/pocket_docking_4.prm

>  <SCORE>
-7.47129

>  <SCORE.INTER>
-8.71069

>  <SCORE.INTER.CONST>
1

>  <SCORE.INTER.POLAR>
0

>  <SCORE.INTER.ROT>
5

>  <SCORE.INTER.SOLV>
14.5099

>  <SCORE.INTER.VDW>
-17.5771

>  <SCORE.INTER.norm>
-0.871069

>  <SCORE.INTRA>
1.23941

>  <SCORE.INTRA.DIHEDRAL>
-0.910594

>  <SCORE.INTRA.DIHEDRAL.0>
2.93688

>  <SCORE.INTRA.POLAR>
0

>  <SCORE.INTRA.POLAR.0>
0

>  <SCORE.INTRA.REPUL>
0

>  <SCORE.INTRA.REPUL.0>
0

>  <SCORE.INTRA.SOLV>
1.78592

>  <SCORE.INTRA.SOLV.lig_0>
-32.2816

>  <SCORE.INTRA.VDW>
0.801744

>  <SCORE.INTRA.VDW.0>
-0.749945

>  <SCORE.INTRA.norm>
0.123941

>  <SCORE.RESTR>
0

>  <SCORE.RESTR.CAVITY>
0

>  <SCORE.RESTR.norm>
0

>  <SCORE.SYSTEM>
0

>  <SCORE.SYSTEM.CONST>
0

>  <SCORE.SYSTEM.DIHEDRAL>
0

>  <SCORE.SYSTEM.SOLV>
0

>  <SCORE.SYSTEM.norm>
0

>  <SCORE.heavy>
10

>  <SCORE.norm>
-0.747129

>  <RMSD>
5.528

$$$$
ligand
 OpenBabel11021811473D
libRbt.so/2013.1/901 2013/11/27
 10  9  0  0  0  0  0  0  0  0999 V2000
   27.1143   14.9152   20.3014 N   0  0  0  0  0  0  0  0  0  0  0  0
   27.5668   15.8414   19.2207 C   0  0  2  0  0  0  0  0  0  0  0  0
   27.7242   15.1084   17.8888 C   0  0  0  0  0  0  0  0  0  0  0  0
   28.1760   15.6799   16.8981 O   0  0  0  0  0  0  0  0  0  0  0  0
   28.8554   16.5668   19.6257 C   0  0  0  0  0  0  0  0  0  0  0  0
   29.9915   15.6094   19.9844 C   0  0  0  0  0  0  0  0  0  0  0  0
   31.2777   16.3394   20.3460 C   0  0  0  0  0  0  0  0  0  0  0  0
   31.1295   17.0995   21.6603 C   0  0  0  0  0  0  0  0  0  0  0  0
   32.3520   17.8946   22.0270 N   0  0  0  0  0  0  0  0  0  0  0  0
   27.4342   13.9160   17.7535 O   0  0  0  0  0  0  0  0  0  0  0  0
  2  1  1  1  0  0  0
  2  3  1  0  0  0  0
  2  5  1  0  0  0  0
  3  4  1  0  0  0  0
  3 10  1  0  0  0  0
  5  6  1  0  0  0  0
  6  7  1  0  0  0  0
  7  8  1  0  0  0  0
  8  9  1  0  0  0  0
M  END
>  <CHROM.1>
-175.00154823,56.67984373,178.33675707,68.13937086,-177.09554743,29.15599188
15.87784280,19.53389919,2.45584214,-0.45073871,-1.67243315

>  <Name>
ligand

>  <RI>
0

>  <Rbt.Current_Directory>
/home/itssahil/PROJECTS/Mol_Feturizer/New_Systems/rnas/3DIL

>  <Rbt.Executable>
rbdock ($Id: //depot/dev/client3/rdock/2013.1/src/exe/rbdock.cxx#4 $)

>  <Rbt.Library>
libRbt.so (2013.1, Build901 2013/11/27)

>  <Rbt.Parameter_File>
/export/apps/rDock/src/rDock_2013.1_src/data/scripts/dock_solv.prm

>  <Rbt.Receptor>
prm/pocket_docking_6.prm

>  <SCORE>
-8.46819

>  <SCORE.INTER>
-8.54765

>  <SCORE.INTER.CONST>
1

>  <SCORE.INTER.POLAR>
0

>  <SCORE.INTER.ROT>
5

>  <SCORE.INTER.SOLV>
13.3447

>  <SCORE.INTER.VDW>
-17.08

>  <SCORE.INTER.norm>
-0.854765

>  <SCORE.INTRA>
0.0794591

>  <SCORE.INTRA.DIHEDRAL>
-1.04978

>  <SCORE.INTRA.DIHEDRAL.0>
2.93688

>  <SCORE.INTRA.POLAR>
0

>  <SCORE.INTRA.POLAR.0>
0

>  <SCORE.INTRA.REPUL>
0

>  <SCORE.INTRA.REPUL.0>
0

>  <SCORE.INTRA.SOLV>
-0.332662

>  <SCORE.INTRA.SOLV.lig_0>
-32.2816

>  <SCORE.INTRA.VDW>
0.770681

>  <SCORE.INTRA.VDW.0>
-0.749945

>  <SCORE.INTRA.norm>
0.00794591

>  <SCORE.RESTR>
0

>  <SCORE.RESTR.CAVITY>
0

>  <SCORE.RESTR.norm>
0

>  <SCORE.SYSTEM>
0

>  <SCORE.SYSTEM.CONST>
0

>  <SCORE.SYSTEM.DIHEDRAL>
0

>  <SCORE.SYSTEM.SOLV>
0

>  <SCORE.SYSTEM.norm>
0

>  <SCORE.heavy>
10

>  <SCORE.norm>
-0.846819

>  <RMSD>
5.528

$$$$
ligand
 OpenBabel11021811473D
libRbt.so/2013.1/901 2013/11/27
 10  9  0  0  0  0  0  0  0  0999 V2000
   25.5362   15.2315   20.3081 N   0  0  0  0  0  0  0  0  0  0  0  0
   26.9026   15.7525   20.0048 C   0  0  2  0  0  0  0  0  0  0  0  0
   27.4109   15.2326   18.6604 C   0  0  0  0  0  0  0  0  0  0  0  0
   28.0761   15.9475   17.9127 O   0  0  0  0  0  0  0  0  0  0  0  0
   27.8767   15.4294   21.1439 C   0  0  0  0  0  0  0  0  0  0  0  0
   29.2391   16.1005   20.9723 C   0  0  0  0  0  0  0  0  0  0  0  0
   30.2328   15.6876   22.0495 C   0  0  0  0  0  0  0  0  0  0  0  0
   31.5848   16.3627   21.8403 C   0  0  0  0  0  0  0  0  0  0  0  0
   31.5498   17.8470   22.0779 N   0  0  0  0  0  0  0  0  0  0  0  0
   27.2034   14.0772   18.2785 O   0  0  0  0  0  0  0  0  0  0  0  0
  2  1  1  1  0  0  0
  2  3  1  0  0  0  0
  2  5  1  0  0  0  0
  3  4  1  0  0  0  0
  3 10  1  0  0  0  0
  5  6  1  0  0  0  0
  6  7  1  0  0  0  0
  7  8  1  0  0  0  0
  8  9  1  0  0  0  0
M  END
>  <CHROM.1>
142.53445680,-172.26815202,-175.53652663,179.38247814,68.52433046,28.56375390
15.75325686,20.28832492,2.52410661,-0.30601773,-1.69323293

>  <Name>
ligand

>  <RI>
0

>  <Rbt.Current_Directory>
/home/itssahil/PROJECTS/Mol_Feturizer/New_Systems/rnas/3DIL

>  <Rbt.Executable>
rbdock ($Id: //depot/dev/client3/rdock/2013.1/src/exe/rbdock.cxx#4 $)

>  <Rbt.Library>
libRbt.so (2013.1, Build901 2013/11/27)

>  <Rbt.Parameter_File>
/export/apps/rDock/src/rDock_2013.1_src/data/scripts/dock_solv.prm

>  <Rbt.Receptor>
prm/pocket_docking_7.prm

>  <SCORE>
-9.3885

>  <SCORE.INTER>
-8.47347

>  <SCORE.INTER.CONST>
1

>  <SCORE.INTER.POLAR>
0

>  <SCORE.INTER.ROT>
5

>  <SCORE.INTER.SOLV>
17.876

>  <SCORE.INTER.VDW>
-18.541

>  <SCORE.INTER.norm>
-0.847347

>  <SCORE.INTRA>
-0.915029

>  <SCORE.INTRA.DIHEDRAL>
-0.907158

>  <SCORE.INTRA.DIHEDRAL.0>
2.93688

>  <SCORE.INTRA.POLAR>
0

>  <SCORE.INTRA.POLAR.0>
0

>  <SCORE.INTRA.REPUL>
0

>  <SCORE.INTRA.REPUL.0>
0

>  <SCORE.INTRA.SOLV>
-0.688314

>  <SCORE.INTRA.SOLV.lig_0>
-32.2816

>  <SCORE.INTRA.VDW>
-0.117293

>  <SCORE.INTRA.VDW.0>
-0.749945

>  <SCORE.INTRA.norm>
-0.0915029

>  <SCORE.RESTR>
0

>  <SCORE.RESTR.CAVITY>
0

>  <SCORE.RESTR.norm>
0

>  <SCORE.SYSTEM>
0

>  <SCORE.SYSTEM.CONST>
0

>  <SCORE.SYSTEM.DIHEDRAL>
0

>  <SCORE.SYSTEM.SOLV>
0

>  <SCORE.SYSTEM.norm>
0

>  <SCORE.heavy>
10

>  <SCORE.norm>
-0.93885

>  <RMSD>
5.528

$$$$
ligand
 OpenBabel11021811473D
libRbt.so/2013.1/901 2013/11/27
 10  9  0  0  0  0  0  0  0  0999 V2000
   26.5688   16.2224   19.7207 N   0  0  0  0  0  0  0  0  0  0  0  0
   27.8633   15.6731   19.2177 C   0  0  2  0  0  0  0  0  0  0  0  0
   27.7050   15.0604   17.8265 C   0  0  0  0  0  0  0  0  0  0  0  0
   27.0481   14.0351   17.6543 O   0  0  0  0  0  0  0  0  0  0  0  0
   28.4572   14.6716   20.2154 C   0  0  0  0  0  0  0  0  0  0  0  0
   29.1428   15.3474   21.4024 C   0  0  0  0  0  0  0  0  0  0  0  0
   30.3690   16.1497   20.9889 C   0  0  0  0  0  0  0  0  0  0  0  0
   31.0359   16.7995   22.1973 C   0  0  0  0  0  0  0  0  0  0  0  0
   32.2204   17.6517   21.8342 N   0  0  0  0  0  0  0  0  0  0  0  0
   28.2003   15.5739   16.8190 O   0  0  0  0  0  0  0  0  0  0  0  0
  2  1  1  1  0  0  0
  2  3  1  0  0  0  0
  2  5  1  0  0  0  0
  3  4  1  0  0  0  0
  3 10  1  0  0  0  0
  5  6  1  0  0  0  0
  6  7  1  0  0  0  0
  7  8  1  0  0  0  0
  8  9  1  0  0  0  0
M  END
>  <CHROM.1>
-68.08773852,-78.28011358,-65.06185039,-179.47732158,-177.58458149,28.84999093
15.70230461,19.74812644,2.38110549,-0.44538837,-1.58782101

>  <Name>
ligand

>  <RI>
0

>  <Rbt.Current_Directory>
/home/itssahil/PROJECTS/Mol_Feturizer/New_Systems/rnas/3DIL

>  <Rbt.Executable>
rbdock ($Id: //depot/dev/client3/rdock/2013.1/src/exe/rbdock.cxx#4 $)

>  <Rbt.Library>
libRbt.so (2013.1, Build901 2013/11/27)

>  <Rbt.Parameter_File>
/export/apps/rDock/src/rDock_2013.1_src/data/scripts/dock_solv.prm

>  <Rbt.Receptor>
prm/pocket_docking_4.prm

>  <SCORE>
-8.10716

>  <SCORE.INTER>
-7.97456

>  <SCORE.INTER.CONST>
1

>  <SCORE.INTER.POLAR>
0

>  <SCORE.INTER.ROT>
5

>  <SCORE.INTER.SOLV>
15.3249

>  <SCORE.INTER.VDW>
-17.358

>  <SCORE.INTER.norm>
-0.797456

>  <SCORE.INTRA>
-0.132603

>  <SCORE.INTRA.DIHEDRAL>
-0.0689808

>  <SCORE.INTRA.DIHEDRAL.0>
2.93688

>  <SCORE.INTRA.POLAR>
0

>  <SCORE.INTRA.POLAR.0>
0

>  <SCORE.INTRA.REPUL>
0

>  <SCORE.INTRA.REPUL.0>
0

>  <SCORE.INTRA.SOLV>
-0.41931

>  <SCORE.INTRA.SOLV.lig_0>
-32.2816

>  <SCORE.INTRA.VDW>
0.111542

>  <SCORE.INTRA.VDW.0>
-0.749945

>  <SCORE.INTRA.norm>
-0.0132603

>  <SCORE.RESTR>
0

>  <SCORE.RESTR.CAVITY>
0

>  <SCORE.RESTR.norm>
0

>  <SCORE.SYSTEM>
0

>  <SCORE.SYSTEM.CONST>
0

>  <SCORE.SYSTEM.DIHEDRAL>
0

>  <SCORE.SYSTEM.SOLV>
0

>  <SCORE.SYSTEM.norm>
0

>  <SCORE.heavy>
10

>  <SCORE.norm>
-0.810716

>  <RMSD>
5.530

$$$$
ligand
 OpenBabel11021811473D
libRbt.so/2013.1/901 2013/11/27
 10  9  0  0  0  0  0  0  0  0999 V2000
   25.5324   15.2480   20.2963 N   0  0  0  0  0  0  0  0  0  0  0  0
   26.9020   15.7588   19.9901 C   0  0  2  0  0  0  0  0  0  0  0  0
   27.3990   15.2443   18.6394 C   0  0  0  0  0  0  0  0  0  0  0  0
   28.0654   15.9592   17.8929 O   0  0  0  0  0  0  0  0  0  0  0  0
   27.8786   15.4185   21.1220 C   0  0  0  0  0  0  0  0  0  0  0  0
   29.2411   16.0910   20.9569 C   0  0  0  0  0  0  0  0  0  0  0  0
   30.2234   15.6959   22.0510 C   0  0  0  0  0  0  0  0  0  0  0  0
   31.5817   16.3566   21.8373 C   0  0  0  0  0  0  0  0  0  0  0  0
   31.5478   17.8505   22.0051 N   0  0  0  0  0  0  0  0  0  0  0  0
   27.1807   14.0931   18.2509 O   0  0  0  0  0  0  0  0  0  0  0  0
  2  1  1  1  0  0  0
  2  3  1  0  0  0  0
  2  5  1  0  0  0  0
  3  4  1  0  0  0  0
  3 10  1  0  0  0  0
  5  6  1  0  0  0  0
  6  7  1  0  0  0  0
  7  8  1  0  0  0  0
  8  9  1  0  0  0  0
M  END
>  <CHROM.1>
142.43044325,-171.61932800,-177.35859090,178.59259156,66.99725888,28.55749577
15.75816322,20.26757047,2.53008276,-0.31237653,-1.67834429

>  <Name>
ligand

>  <RI>
0

>  <Rbt.Current_Directory>
/home/itssahil/PROJECTS/Mol_Feturizer/New_Systems/rnas/3DIL

>  <Rbt.Executable>
rbdock ($Id: //depot/dev/client3/rdock/2013.1/src/exe/rbdock.cxx#4 $)

>  <Rbt.Library>
libRbt.so (2013.1, Build901 2013/11/27)

>  <Rbt.Parameter_File>
/export/apps/rDock/src/rDock_2013.1_src/data/scripts/dock_solv.prm

>  <Rbt.Receptor>
prm/pocket_docking_7.prm

>  <SCORE>
-9.38455

>  <SCORE.INTER>
-8.43263

>  <SCORE.INTER.CONST>
1

>  <SCORE.INTER.POLAR>
0

>  <SCORE.INTER.ROT>
5

>  <SCORE.INTER.SOLV>
17.8657

>  <SCORE.INTER.VDW>
-18.5103

>  <SCORE.INTER.norm>
-0.843263

>  <SCORE.INTRA>
-0.951921

>  <SCORE.INTRA.DIHEDRAL>
-1.00298

>  <SCORE.INTRA.DIHEDRAL.0>
2.93688

>  <SCORE.INTRA.POLAR>
0

>  <SCORE.INTRA.POLAR.0>
0

>  <SCORE.INTRA.REPUL>
0

>  <SCORE.INTRA.REPUL.0>
0

>  <SCORE.INTRA.SOLV>
-0.669593

>  <SCORE.INTRA.SOLV.lig_0>
-32.2816

>  <SCORE.INTRA.VDW>
-0.115637

>  <SCORE.INTRA.VDW.0>
-0.749945

>  <SCORE.INTRA.norm>
-0.0951921

>  <SCORE.RESTR>
0

>  <SCORE.RESTR.CAVITY>
0

>  <SCORE.RESTR.norm>
0

>  <SCORE.SYSTEM>
0

>  <SCORE.SYSTEM.CONST>
0

>  <SCORE.SYSTEM.DIHEDRAL>
0

>  <SCORE.SYSTEM.SOLV>
0

>  <SCORE.SYSTEM.norm>
0

>  <SCORE.heavy>
10

>  <SCORE.norm>
-0.938455

>  <RMSD>
5.531

$$$$
ligand
 OpenBabel11021811473D
libRbt.so/2013.1/901 2013/11/27
 10  9  0  0  0  0  0  0  0  0999 V2000
   25.5740   15.2389   20.3301 N   0  0  0  0  0  0  0  0  0  0  0  0
   26.9334   15.7616   19.9994 C   0  0  2  0  0  0  0  0  0  0  0  0
   27.4126   15.2475   18.6422 C   0  0  0  0  0  0  0  0  0  0  0  0
   27.1114   14.1230   18.2459 O   0  0  0  0  0  0  0  0  0  0  0  0
   27.9320   15.4341   21.1159 C   0  0  0  0  0  0  0  0  0  0  0  0
   29.2876   16.1127   20.9217 C   0  0  0  0  0  0  0  0  0  0  0  0
   30.3228   15.6498   21.9379 C   0  0  0  0  0  0  0  0  0  0  0  0
   31.6650   16.3383   21.7103 C   0  0  0  0  0  0  0  0  0  0  0  0
   31.6391   17.8080   22.0266 N   0  0  0  0  0  0  0  0  0  0  0  0
   28.0934   15.9378   17.8779 O   0  0  0  0  0  0  0  0  0  0  0  0
  2  1  1  1  0  0  0
  2  3  1  0  0  0  0
  2  5  1  0  0  0  0
  3  4  1  0  0  0  0
  3 10  1  0  0  0  0
  5  6  1  0  0  0  0
  6  7  1  0  0  0  0
  7  8  1  0  0  0  0
  8  9  1  0  0  0  0
M  END
>  <CHROM.1>
-34.12495672,-171.94207123,-173.01530369,179.60824128,68.71492094,28.59812109
15.75183092,20.24390862,2.54707584,-0.29894043,-1.68522624

>  <Name>
ligand

>  <RI>
0

>  <Rbt.Current_Directory>
/home/itssahil/PROJECTS/Mol_Feturizer/New_Systems/rnas/3DIL

>  <Rbt.Executable>
rbdock ($Id: //depot/dev/client3/rdock/2013.1/src/exe/rbdock.cxx#4 $)

>  <Rbt.Library>
libRbt.so (2013.1, Build901 2013/11/27)

>  <Rbt.Parameter_File>
/export/apps/rDock/src/rDock_2013.1_src/data/scripts/dock_solv.prm

>  <Rbt.Receptor>
prm/pocket_docking_4.prm

>  <SCORE>
-9.26504

>  <SCORE.INTER>
-8.49452

>  <SCORE.INTER.CONST>
1

>  <SCORE.INTER.POLAR>
0

>  <SCORE.INTER.ROT>
5

>  <SCORE.INTER.SOLV>
17.5776

>  <SCORE.INTER.VDW>
-18.4556

>  <SCORE.INTER.norm>
-0.849452

>  <SCORE.INTRA>
-0.770515

>  <SCORE.INTRA.DIHEDRAL>
-0.657544

>  <SCORE.INTRA.DIHEDRAL.0>
2.93688

>  <SCORE.INTRA.POLAR>
0

>  <SCORE.INTRA.POLAR.0>
0

>  <SCORE.INTRA.REPUL>
0

>  <SCORE.INTRA.REPUL.0>
0

>  <SCORE.INTRA.SOLV>
-0.673335

>  <SCORE.INTRA.SOLV.lig_0>
-32.2816

>  <SCORE.INTRA.VDW>
-0.105075

>  <SCORE.INTRA.VDW.0>
-0.749945

>  <SCORE.INTRA.norm>
-0.0770515

>  <SCORE.RESTR>
0

>  <SCORE.RESTR.CAVITY>
0

>  <SCORE.RESTR.norm>
0

>  <SCORE.SYSTEM>
0

>  <SCORE.SYSTEM.CONST>
0

>  <SCORE.SYSTEM.DIHEDRAL>
0

>  <SCORE.SYSTEM.SOLV>
0

>  <SCORE.SYSTEM.norm>
0

>  <SCORE.heavy>
10

>  <SCORE.norm>
-0.926504

>  <RMSD>
5.536

$$$$
ligand
 OpenBabel11021811473D
libRbt.so/2013.1/901 2013/11/27
 10  9  0  0  0  0  0  0  0  0999 V2000
   28.5293   14.6957   19.0437 N   0  0  0  0  0  0  0  0  0  0  0  0
   27.9682   14.7929   20.4244 C   0  0  2  0  0  0  0  0  0  0  0  0
   26.4956   15.2012   20.3995 C   0  0  0  0  0  0  0  0  0  0  0  0
   25.7021   14.7702   21.2343 O   0  0  0  0  0  0  0  0  0  0  0  0
   28.8062   15.7412   21.2901 C   0  0  0  0  0  0  0  0  0  0  0  0
   30.2315   15.2387   21.5176 C   0  0  0  0  0  0  0  0  0  0  0  0
   31.0921   16.2448   22.2695 C   0  0  0  0  0  0  0  0  0  0  0  0
   31.5545   17.3707   21.3499 C   0  0  0  0  0  0  0  0  0  0  0  0
   32.5844   18.2667   21.9806 N   0  0  0  0  0  0  0  0  0  0  0  0
   26.0445   15.9937   19.5673 O   0  0  0  0  0  0  0  0  0  0  0  0
  2  1  1  6  0  0  0
  2  3  1  0  0  0  0
  2  5  1  0  0  0  0
  3  4  1  0  0  0  0
  3 10  1  0  0  0  0
  5  6  1  0  0  0  0
  6  7  1  0  0  0  0
  7  8  1  0  0  0  0
  8  9  1  0  0  0  0
M  END
>  <CHROM.1>
145.73605179,-64.26488940,174.76953058,-77.37565204,-170.64351641,28.85674272
15.83524045,20.90433138,-2.79899096,0.30716081,1.34559254

>  <Name>
ligand

>  <RI>
0

>  <Rbt.Current_Directory>
/home/itssahil/PROJECTS/Mol_Feturizer/New_Systems/rnas/3DIL

>  <Rbt.Executable>
rbdock ($Id: //depot/dev/client3/rdock/2013.1/src/exe/rbdock.cxx#4 $)

>  <Rbt.Library>
libRbt.so (2013.1, Build901 2013/11/27)

>  <Rbt.Parameter_File>
/export/apps/rDock/src/rDock_2013.1_src/data/scripts/dock_solv.prm

>  <Rbt.Receptor>
prm/pocket_docking_4.prm

>  <SCORE>
-9.42433

>  <SCORE.INTER>
-9.45572

>  <SCORE.INTER.CONST>
1

>  <SCORE.INTER.POLAR>
0

>  <SCORE.INTER.ROT>
5

>  <SCORE.INTER.SOLV>
13.4079

>  <SCORE.INTER.VDW>
-17.7065

>  <SCORE.INTER.norm>
-0.945572

>  <SCORE.INTRA>
0.0313935

>  <SCORE.INTRA.DIHEDRAL>
0.221692

>  <SCORE.INTRA.DIHEDRAL.0>
2.93688

>  <SCORE.INTRA.POLAR>
0

>  <SCORE.INTRA.POLAR.0>
0

>  <SCORE.INTRA.REPUL>
0

>  <SCORE.INTRA.REPUL.0>
0

>  <SCORE.INTRA.SOLV>
-0.48253

>  <SCORE.INTRA.SOLV.lig_0>
-32.2816

>  <SCORE.INTRA.VDW>
0.161813

>  <SCORE.INTRA.VDW.0>
-0.749945

>  <SCORE.INTRA.norm>
0.00313935

>  <SCORE.RESTR>
0

>  <SCORE.RESTR.CAVITY>
0

>  <SCORE.RESTR.norm>
0

>  <SCORE.SYSTEM>
0

>  <SCORE.SYSTEM.CONST>
0

>  <SCORE.SYSTEM.DIHEDRAL>
0

>  <SCORE.SYSTEM.SOLV>
0

>  <SCORE.SYSTEM.norm>
0

>  <SCORE.heavy>
10

>  <SCORE.norm>
-0.942433

>  <RMSD>
5.537

$$$$
ligand
 OpenBabel11021811473D
libRbt.so/2013.1/901 2013/11/27
 10  9  0  0  0  0  0  0  0  0999 V2000
   26.9918   14.8149   20.1951 N   0  0  0  0  0  0  0  0  0  0  0  0
   27.3464   15.7776   19.1097 C   0  0  2  0  0  0  0  0  0  0  0  0
   27.9291   15.0567   17.8946 C   0  0  0  0  0  0  0  0  0  0  0  0
   28.0426   13.8323   17.8758 O   0  0  0  0  0  0  0  0  0  0  0  0
   28.2912   16.8666   19.6315 C   0  0  0  0  0  0  0  0  0  0  0  0
   29.5402   16.2998   20.3059 C   0  0  0  0  0  0  0  0  0  0  0  0
   30.4567   17.3889   20.8464 C   0  0  0  0  0  0  0  0  0  0  0  0
   31.7021   16.7906   21.4931 C   0  0  0  0  0  0  0  0  0  0  0  0
   32.6514   17.8286   22.0246 N   0  0  0  0  0  0  0  0  0  0  0  0
   28.2840   15.6593   16.8772 O   0  0  0  0  0  0  0  0  0  0  0  0
  2  1  1  1  0  0  0
  2  3  1  0  0  0  0
  2  5  1  0  0  0  0
  3  4  1  0  0  0  0
  3 10  1  0  0  0  0
  5  6  1  0  0  0  0
  6  7  1  0  0  0  0
  7  8  1  0  0  0  0
  8  9  1  0  0  0  0
M  END
>  <CHROM.1>
1.04399445,54.04312675,-178.77699887,-179.12866558,179.10658270,29.12626013
16.01123453,19.59050298,2.40107037,-0.37502692,-1.80786801

>  <Name>
ligand

>  <RI>
0

>  <Rbt.Current_Directory>
/home/itssahil/PROJECTS/Mol_Feturizer/New_Systems/rnas/3DIL

>  <Rbt.Executable>
rbdock ($Id: //depot/dev/client3/rdock/2013.1/src/exe/rbdock.cxx#4 $)

>  <Rbt.Library>
libRbt.so (2013.1, Build901 2013/11/27)

>  <Rbt.Parameter_File>
/export/apps/rDock/src/rDock_2013.1_src/data/scripts/dock_solv.prm

>  <Rbt.Receptor>
prm/pocket_docking_8.prm

>  <SCORE>
-8.90749

>  <SCORE.INTER>
-8.21267

>  <SCORE.INTER.CONST>
1

>  <SCORE.INTER.POLAR>
0

>  <SCORE.INTER.ROT>
5

>  <SCORE.INTER.SOLV>
14.3292

>  <SCORE.INTER.VDW>
-17.1848

>  <SCORE.INTER.norm>
-0.821267

>  <SCORE.INTRA>
-0.694824

>  <SCORE.INTRA.DIHEDRAL>
-1.26158

>  <SCORE.INTRA.DIHEDRAL.0>
2.93688

>  <SCORE.INTRA.POLAR>
0

>  <SCORE.INTRA.POLAR.0>
0

>  <SCORE.INTRA.REPUL>
0

>  <SCORE.INTRA.REPUL.0>
0

>  <SCORE.INTRA.SOLV>
-0.501314

>  <SCORE.INTRA.SOLV.lig_0>
-32.2816

>  <SCORE.INTRA.VDW>
0.186623

>  <SCORE.INTRA.VDW.0>
-0.749945

>  <SCORE.INTRA.norm>
-0.0694824

>  <SCORE.RESTR>
0

>  <SCORE.RESTR.CAVITY>
0

>  <SCORE.RESTR.norm>
0

>  <SCORE.SYSTEM>
0

>  <SCORE.SYSTEM.CONST>
0

>  <SCORE.SYSTEM.DIHEDRAL>
0

>  <SCORE.SYSTEM.SOLV>
0

>  <SCORE.SYSTEM.norm>
0

>  <SCORE.heavy>
10

>  <SCORE.norm>
-0.890749

>  <RMSD>
5.538

$$$$
ligand
 OpenBabel11021811473D
libRbt.so/2013.1/901 2013/11/27
 10  9  0  0  0  0  0  0  0  0999 V2000
   26.6146   16.2565   19.7115 N   0  0  0  0  0  0  0  0  0  0  0  0
   27.9069   15.7653   19.1464 C   0  0  2  0  0  0  0  0  0  0  0  0
   27.7098   15.1447   17.7637 C   0  0  0  0  0  0  0  0  0  0  0  0
   28.2156   15.6490   16.7625 O   0  0  0  0  0  0  0  0  0  0  0  0
   28.5924   14.7927   20.1133 C   0  0  0  0  0  0  0  0  0  0  0  0
   29.2328   15.4940   21.3108 C   0  0  0  0  0  0  0  0  0  0  0  0
   30.4128   16.3696   20.9118 C   0  0  0  0  0  0  0  0  0  0  0  0
   31.1009   16.9600   22.1386 C   0  0  0  0  0  0  0  0  0  0  0  0
   32.2902   17.8147   21.7979 N   0  0  0  0  0  0  0  0  0  0  0  0
   27.0644   14.1064   17.5922 O   0  0  0  0  0  0  0  0  0  0  0  0
  2  1  1  1  0  0  0
  2  3  1  0  0  0  0
  2  5  1  0  0  0  0
  3  4  1  0  0  0  0
  3 10  1  0  0  0  0
  5  6  1  0  0  0  0
  6  7  1  0  0  0  0
  7  8  1  0  0  0  0
  8  9  1  0  0  0  0
M  END
>  <CHROM.1>
115.30302355,-74.89755670,-66.92847687,-175.18964850,178.97219391,28.90265702
15.81853049,19.68549414,2.38242511,-0.44665368,-1.60752386

>  <Name>
ligand

>  <RI>
0

>  <Rbt.Current_Directory>
/home/itssahil/PROJECTS/Mol_Feturizer/New_Systems/rnas/3DIL

>  <Rbt.Executable>
rbdock ($Id: //depot/dev/client3/rdock/2013.1/src/exe/rbdock.cxx#4 $)

>  <Rbt.Library>
libRbt.so (2013.1, Build901 2013/11/27)

>  <Rbt.Parameter_File>
/export/apps/rDock/src/rDock_2013.1_src/data/scripts/dock_solv.prm

>  <Rbt.Receptor>
prm/blind_docking_60.prm

>  <SCORE>
-8.20724

>  <SCORE.INTER>
-7.94046

>  <SCORE.INTER.CONST>
1

>  <SCORE.INTER.POLAR>
0

>  <SCORE.INTER.ROT>
5

>  <SCORE.INTER.SOLV>
15.2874

>  <SCORE.INTER.VDW>
-17.3228

>  <SCORE.INTER.norm>
-0.794046

>  <SCORE.INTRA>
-0.26678

>  <SCORE.INTRA.DIHEDRAL>
-0.248665

>  <SCORE.INTRA.DIHEDRAL.0>
2.93688

>  <SCORE.INTRA.POLAR>
0

>  <SCORE.INTRA.POLAR.0>
0

>  <SCORE.INTRA.REPUL>
0

>  <SCORE.INTRA.REPUL.0>
0

>  <SCORE.INTRA.SOLV>
-0.390585

>  <SCORE.INTRA.SOLV.lig_0>
-32.2816

>  <SCORE.INTRA.VDW>
0.0528452

>  <SCORE.INTRA.VDW.0>
-0.749945

>  <SCORE.INTRA.norm>
-0.026678

>  <SCORE.RESTR>
0

>  <SCORE.RESTR.CAVITY>
0

>  <SCORE.RESTR.norm>
0

>  <SCORE.SYSTEM>
0

>  <SCORE.SYSTEM.CONST>
0

>  <SCORE.SYSTEM.DIHEDRAL>
0

>  <SCORE.SYSTEM.SOLV>
0

>  <SCORE.SYSTEM.norm>
0

>  <SCORE.heavy>
10

>  <SCORE.norm>
-0.820724

>  <RMSD>
5.540

$$$$
ligand
 OpenBabel11021811473D
libRbt.so/2013.1/901 2013/11/27
 10  9  0  0  0  0  0  0  0  0999 V2000
   25.5410   15.1991   20.3208 N   0  0  0  0  0  0  0  0  0  0  0  0
   26.8987   15.7396   20.0124 C   0  0  2  0  0  0  0  0  0  0  0  0
   27.3939   15.2563   18.6496 C   0  0  0  0  0  0  0  0  0  0  0  0
   27.0975   14.1411   18.2244 O   0  0  0  0  0  0  0  0  0  0  0  0
   27.8904   15.3985   21.1309 C   0  0  0  0  0  0  0  0  0  0  0  0
   29.2414   16.0930   20.9626 C   0  0  0  0  0  0  0  0  0  0  0  0
   30.2502   15.6717   22.0224 C   0  0  0  0  0  0  0  0  0  0  0  0
   31.5852   16.3835   21.8267 C   0  0  0  0  0  0  0  0  0  0  0  0
   31.5100   17.8645   22.0756 N   0  0  0  0  0  0  0  0  0  0  0  0
   28.0835   15.9636   17.9092 O   0  0  0  0  0  0  0  0  0  0  0  0
  2  1  1  1  0  0  0
  2  3  1  0  0  0  0
  2  5  1  0  0  0  0
  3  4  1  0  0  0  0
  3 10  1  0  0  0  0
  5  6  1  0  0  0  0
  6  7  1  0  0  0  0
  7  8  1  0  0  0  0
  8  9  1  0  0  0  0
M  END
>  <CHROM.1>
-33.58192842,-171.89251146,-175.94907465,-179.93557994,67.12538540,28.55066983
15.75836605,20.27632764,2.53393507,-0.32478372,-1.66333522

>  <Name>
ligand

>  <RI>
0

>  <Rbt.Current_Directory>
/home/itssahil/PROJECTS/Mol_Feturizer/New_Systems/rnas/3DIL

>  <Rbt.Executable>
rbdock ($Id: //depot/dev/client3/rdock/2013.1/src/exe/rbdock.cxx#4 $)

>  <Rbt.Library>
libRbt.so (2013.1, Build901 2013/11/27)

>  <Rbt.Parameter_File>
/export/apps/rDock/src/rDock_2013.1_src/data/scripts/dock_solv.prm

>  <Rbt.Receptor>
prm/pocket_docking_8.prm

>  <SCORE>
-9.30235

>  <SCORE.INTER>
-8.46722

>  <SCORE.INTER.CONST>
1

>  <SCORE.INTER.POLAR>
0

>  <SCORE.INTER.ROT>
5

>  <SCORE.INTER.SOLV>
17.9708

>  <SCORE.INTER.VDW>
-18.5684

>  <SCORE.INTER.norm>
-0.846722

>  <SCORE.INTRA>
-0.835134

>  <SCORE.INTRA.DIHEDRAL>
-0.881107

>  <SCORE.INTRA.DIHEDRAL.0>
2.93688

>  <SCORE.INTRA.POLAR>
0

>  <SCORE.INTRA.POLAR.0>
0

>  <SCORE.INTRA.REPUL>
0

>  <SCORE.INTRA.REPUL.0>
0

>  <SCORE.INTRA.SOLV>
-0.647633

>  <SCORE.INTRA.SOLV.lig_0>
-32.2816

>  <SCORE.INTRA.VDW>
-0.0707634

>  <SCORE.INTRA.VDW.0>
-0.749945

>  <SCORE.INTRA.norm>
-0.0835134

>  <SCORE.RESTR>
0

>  <SCORE.RESTR.CAVITY>
0

>  <SCORE.RESTR.norm>
0

>  <SCORE.SYSTEM>
0

>  <SCORE.SYSTEM.CONST>
0

>  <SCORE.SYSTEM.DIHEDRAL>
0

>  <SCORE.SYSTEM.SOLV>
0

>  <SCORE.SYSTEM.norm>
0

>  <SCORE.heavy>
10

>  <SCORE.norm>
-0.930235

>  <RMSD>
5.540

$$$$
ligand
 OpenBabel11021811473D
libRbt.so/2013.1/901 2013/11/27
 10  9  0  0  0  0  0  0  0  0999 V2000
   27.0831   14.2807   18.0873 N   0  0  0  0  0  0  0  0  0  0  0  0
   27.5996   14.7066   19.4223 C   0  0  2  0  0  0  0  0  0  0  0  0
   26.4585   15.0882   20.3649 C   0  0  0  0  0  0  0  0  0  0  0  0
   26.5592   14.9328   21.5806 O   0  0  0  0  0  0  0  0  0  0  0  0
   28.6203   15.8415   19.2774 C   0  0  0  0  0  0  0  0  0  0  0  0
   29.3266   16.1799   20.5898 C   0  0  0  0  0  0  0  0  0  0  0  0
   30.3018   17.3403   20.4455 C   0  0  0  0  0  0  0  0  0  0  0  0
   31.0587   17.5894   21.7463 C   0  0  0  0  0  0  0  0  0  0  0  0
   31.9691   16.4557   22.1295 N   0  0  0  0  0  0  0  0  0  0  0  0
   25.4059   15.5887   19.9581 O   0  0  0  0  0  0  0  0  0  0  0  0
  2  1  1  6  0  0  0
  2  3  1  0  0  0  0
  2  5  1  0  0  0  0
  3  4  1  0  0  0  0
  3 10  1  0  0  0  0
  5  6  1  0  0  0  0
  6  7  1  0  0  0  0
  7  8  1  0  0  0  0
  8  9  1  0  0  0  0
M  END
>  <CHROM.1>
149.61411013,-171.81450216,-177.97555976,-176.08797421,65.62674517,28.40357641
15.80340342,20.37830812,-2.71741713,0.31146834,1.30845231

>  <Name>
ligand

>  <RI>
0

>  <Rbt.Current_Directory>
/home/itssahil/PROJECTS/Mol_Feturizer/New_Systems/rnas/3DIL

>  <Rbt.Executable>
rbdock ($Id: //depot/dev/client3/rdock/2013.1/src/exe/rbdock.cxx#4 $)

>  <Rbt.Library>
libRbt.so (2013.1, Build901 2013/11/27)

>  <Rbt.Parameter_File>
/export/apps/rDock/src/rDock_2013.1_src/data/scripts/dock_solv.prm

>  <Rbt.Receptor>
prm/pocket_docking_6.prm

>  <SCORE>
-8.47063

>  <SCORE.INTER>
-7.61592

>  <SCORE.INTER.CONST>
1

>  <SCORE.INTER.POLAR>
0

>  <SCORE.INTER.ROT>
5

>  <SCORE.INTER.SOLV>
16.9388

>  <SCORE.INTER.VDW>
-17.6569

>  <SCORE.INTER.norm>
-0.761592

>  <SCORE.INTRA>
-0.854708

>  <SCORE.INTRA.DIHEDRAL>
-1.04129

>  <SCORE.INTRA.DIHEDRAL.0>
2.93688

>  <SCORE.INTRA.POLAR>
0

>  <SCORE.INTRA.POLAR.0>
0

>  <SCORE.INTRA.REPUL>
0

>  <SCORE.INTRA.REPUL.0>
0

>  <SCORE.INTRA.SOLV>
-0.616948

>  <SCORE.INTRA.SOLV.lig_0>
-32.2816

>  <SCORE.INTRA.VDW>
-0.0255914

>  <SCORE.INTRA.VDW.0>
-0.749945

>  <SCORE.INTRA.norm>
-0.0854708

>  <SCORE.RESTR>
0

>  <SCORE.RESTR.CAVITY>
0

>  <SCORE.RESTR.norm>
0

>  <SCORE.SYSTEM>
0

>  <SCORE.SYSTEM.CONST>
0

>  <SCORE.SYSTEM.DIHEDRAL>
0

>  <SCORE.SYSTEM.SOLV>
0

>  <SCORE.SYSTEM.norm>
0

>  <SCORE.heavy>
10

>  <SCORE.norm>
-0.847063

>  <RMSD>
5.541

$$$$
ligand
 OpenBabel11021811473D
libRbt.so/2013.1/901 2013/11/27
 10  9  0  0  0  0  0  0  0  0999 V2000
   28.5726   16.4111   19.5581 N   0  0  0  0  0  0  0  0  0  0  0  0
   28.0679   15.3192   20.4434 C   0  0  2  0  0  0  0  0  0  0  0  0
   26.5406   15.2642   20.4441 C   0  0  0  0  0  0  0  0  0  0  0  0
   25.9240   14.7311   21.3650 O   0  0  0  0  0  0  0  0  0  0  0  0
   28.6320   15.4603   21.8621 C   0  0  0  0  0  0  0  0  0  0  0  0
   30.1597   15.4394   21.9015 C   0  0  0  0  0  0  0  0  0  0  0  0
   30.7709   16.7919   21.5617 C   0  0  0  0  0  0  0  0  0  0  0  0
   32.2906   16.7581   21.6903 C   0  0  0  0  0  0  0  0  0  0  0  0
   32.9343   18.0996   21.4738 N   0  0  0  0  0  0  0  0  0  0  0  0
   25.8616   15.7692   19.5452 O   0  0  0  0  0  0  0  0  0  0  0  0
  2  1  1  6  0  0  0
  2  3  1  0  0  0  0
  2  5  1  0  0  0  0
  3  4  1  0  0  0  0
  3 10  1  0  0  0  0
  5  6  1  0  0  0  0
  6  7  1  0  0  0  0
  7  8  1  0  0  0  0
  8  9  1  0  0  0  0
M  END
>  <CHROM.1>
-158.52290224,-58.31630032,81.43506682,176.64770133,-175.32028667,28.93001200
15.99843180,20.98145339,3.12708843,0.36835057,2.17352477

>  <Name>
ligand

>  <RI>
0

>  <Rbt.Current_Directory>
/home/itssahil/PROJECTS/Mol_Feturizer/New_Systems/rnas/3DIL

>  <Rbt.Executable>
rbdock ($Id: //depot/dev/client3/rdock/2013.1/src/exe/rbdock.cxx#4 $)

>  <Rbt.Library>
libRbt.so (2013.1, Build901 2013/11/27)

>  <Rbt.Parameter_File>
/export/apps/rDock/src/rDock_2013.1_src/data/scripts/dock_solv.prm

>  <Rbt.Receptor>
prm/pocket_docking_5.prm

>  <SCORE>
-8.98672

>  <SCORE.INTER>
-10.169

>  <SCORE.INTER.CONST>
1

>  <SCORE.INTER.POLAR>
0

>  <SCORE.INTER.ROT>
5

>  <SCORE.INTER.SOLV>
13.0033

>  <SCORE.INTER.VDW>
-18.0471

>  <SCORE.INTER.norm>
-1.0169

>  <SCORE.INTRA>
1.18224

>  <SCORE.INTRA.DIHEDRAL>
0.488858

>  <SCORE.INTRA.DIHEDRAL.0>
2.93688

>  <SCORE.INTRA.POLAR>
0

>  <SCORE.INTRA.POLAR.0>
0

>  <SCORE.INTRA.REPUL>
0

>  <SCORE.INTRA.REPUL.0>
0

>  <SCORE.INTRA.SOLV>
0.769509

>  <SCORE.INTRA.SOLV.lig_0>
-32.2816

>  <SCORE.INTRA.VDW>
0.553053

>  <SCORE.INTRA.VDW.0>
-0.749945

>  <SCORE.INTRA.norm>
0.118224

>  <SCORE.RESTR>
0

>  <SCORE.RESTR.CAVITY>
0

>  <SCORE.RESTR.norm>
0

>  <SCORE.SYSTEM>
0

>  <SCORE.SYSTEM.CONST>
0

>  <SCORE.SYSTEM.DIHEDRAL>
0

>  <SCORE.SYSTEM.SOLV>
0

>  <SCORE.SYSTEM.norm>
0

>  <SCORE.heavy>
10

>  <SCORE.norm>
-0.898672

>  <RMSD>
5.542

$$$$
ligand
 OpenBabel11021811473D
libRbt.so/2013.1/901 2013/11/27
 10  9  0  0  0  0  0  0  0  0999 V2000
   25.5314   15.2141   20.3310 N   0  0  0  0  0  0  0  0  0  0  0  0
   26.8984   15.7328   20.0258 C   0  0  2  0  0  0  0  0  0  0  0  0
   27.3880   15.2439   18.6630 C   0  0  0  0  0  0  0  0  0  0  0  0
   27.0994   14.1225   18.2487 O   0  0  0  0  0  0  0  0  0  0  0  0
   27.8824   15.3736   21.1454 C   0  0  0  0  0  0  0  0  0  0  0  0
   29.2358   16.0678   20.9956 C   0  0  0  0  0  0  0  0  0  0  0  0
   30.2166   15.6773   22.0928 C   0  0  0  0  0  0  0  0  0  0  0  0
   31.5753   16.3369   21.8781 C   0  0  0  0  0  0  0  0  0  0  0  0
   31.5441   17.8300   22.0528 N   0  0  0  0  0  0  0  0  0  0  0  0
   28.0650   15.9522   17.9120 O   0  0  0  0  0  0  0  0  0  0  0  0
  2  1  1  1  0  0  0
  2  3  1  0  0  0  0
  2  5  1  0  0  0  0
  3  4  1  0  0  0  0
  3 10  1  0  0  0  0
  5  6  1  0  0  0  0
  6  7  1  0  0  0  0
  7  8  1  0  0  0  0
  8  9  1  0  0  0  0
M  END
>  <CHROM.1>
-35.26740193,-170.76395315,-178.56598660,177.40095827,67.57151094,28.54500866
15.74228435,20.29733720,2.53460345,-0.32506107,-1.65307050

>  <Name>
ligand

>  <RI>
0

>  <Rbt.Current_Directory>
/home/itssahil/PROJECTS/Mol_Feturizer/New_Systems/rnas/3DIL

>  <Rbt.Executable>
rbdock ($Id: //depot/dev/client3/rdock/2013.1/src/exe/rbdock.cxx#4 $)

>  <Rbt.Library>
libRbt.so (2013.1, Build901 2013/11/27)

>  <Rbt.Parameter_File>
/export/apps/rDock/src/rDock_2013.1_src/data/scripts/dock_solv.prm

>  <Rbt.Receptor>
prm/pocket_docking_6.prm

>  <SCORE>
-9.29105

>  <SCORE.INTER>
-8.45134

>  <SCORE.INTER.CONST>
1

>  <SCORE.INTER.POLAR>
0

>  <SCORE.INTER.ROT>
5

>  <SCORE.INTER.SOLV>
17.9012

>  <SCORE.INTER.VDW>
-18.5346

>  <SCORE.INTER.norm>
-0.845134

>  <SCORE.INTRA>
-0.83971

>  <SCORE.INTRA.DIHEDRAL>
-0.818083

>  <SCORE.INTRA.DIHEDRAL.0>
2.93688

>  <SCORE.INTRA.POLAR>
0

>  <SCORE.INTRA.POLAR.0>
0

>  <SCORE.INTRA.REPUL>
0

>  <SCORE.INTRA.REPUL.0>
0

>  <SCORE.INTRA.SOLV>
-0.667148

>  <SCORE.INTRA.SOLV.lig_0>
-32.2816

>  <SCORE.INTRA.VDW>
-0.0970939

>  <SCORE.INTRA.VDW.0>
-0.749945

>  <SCORE.INTRA.norm>
-0.083971

>  <SCORE.RESTR>
0

>  <SCORE.RESTR.CAVITY>
0

>  <SCORE.RESTR.norm>
0

>  <SCORE.SYSTEM>
0

>  <SCORE.SYSTEM.CONST>
0

>  <SCORE.SYSTEM.DIHEDRAL>
0

>  <SCORE.SYSTEM.SOLV>
0

>  <SCORE.SYSTEM.norm>
0

>  <SCORE.heavy>
10

>  <SCORE.norm>
-0.929105

>  <RMSD>
5.542

$$$$
ligand
 OpenBabel11021811473D
libRbt.so/2013.1/901 2013/11/27
 10  9  0  0  0  0  0  0  0  0999 V2000
   26.6161   16.2575   19.6848 N   0  0  0  0  0  0  0  0  0  0  0  0
   27.9065   15.7438   19.1355 C   0  0  2  0  0  0  0  0  0  0  0  0
   27.7159   15.1284   17.7496 C   0  0  0  0  0  0  0  0  0  0  0  0
   27.0570   14.1016   17.5951 O   0  0  0  0  0  0  0  0  0  0  0  0
   28.5620   14.7579   20.1097 C   0  0  0  0  0  0  0  0  0  0  0  0
   29.1987   15.4461   21.3167 C   0  0  0  0  0  0  0  0  0  0  0  0
   30.3815   16.3239   20.9312 C   0  0  0  0  0  0  0  0  0  0  0  0
   31.0853   16.8748   22.1675 C   0  0  0  0  0  0  0  0  0  0  0  0
   32.2551   17.7605   21.8390 N   0  0  0  0  0  0  0  0  0  0  0  0
   28.1857   15.6411   16.7296 O   0  0  0  0  0  0  0  0  0  0  0  0
  2  1  1  1  0  0  0
  2  3  1  0  0  0  0
  2  5  1  0  0  0  0
  3  4  1  0  0  0  0
  3 10  1  0  0  0  0
  5  6  1  0  0  0  0
  6  7  1  0  0  0  0
  7  8  1  0  0  0  0
  8  9  1  0  0  0  0
M  END
>  <CHROM.1>
-66.50538278,-74.85610318,-65.76261706,-173.87925620,-179.44976583,28.88451468
15.78722172,19.68635984,2.37952869,-0.45460503,-1.58624754

>  <Name>
ligand

>  <RI>
0

>  <Rbt.Current_Directory>
/home/itssahil/PROJECTS/Mol_Feturizer/New_Systems/rnas/3DIL

>  <Rbt.Executable>
rbdock ($Id: //depot/dev/client3/rdock/2013.1/src/exe/rbdock.cxx#4 $)

>  <Rbt.Library>
libRbt.so (2013.1, Build901 2013/11/27)

>  <Rbt.Parameter_File>
/export/apps/rDock/src/rDock_2013.1_src/data/scripts/dock_solv.prm

>  <Rbt.Receptor>
prm/pocket_docking_7.prm

>  <SCORE>
-8.17196

>  <SCORE.INTER>
-7.94577

>  <SCORE.INTER.CONST>
1

>  <SCORE.INTER.POLAR>
0

>  <SCORE.INTER.ROT>
5

>  <SCORE.INTER.SOLV>
15.2462

>  <SCORE.INTER.VDW>
-17.3126

>  <SCORE.INTER.norm>
-0.794577

>  <SCORE.INTRA>
-0.226192

>  <SCORE.INTRA.DIHEDRAL>
-0.297165

>  <SCORE.INTRA.DIHEDRAL.0>
2.93688

>  <SCORE.INTRA.POLAR>
0

>  <SCORE.INTRA.POLAR.0>
0

>  <SCORE.INTRA.REPUL>
0

>  <SCORE.INTRA.REPUL.0>
0

>  <SCORE.INTRA.SOLV>
-0.362453

>  <SCORE.INTRA.SOLV.lig_0>
-32.2816

>  <SCORE.INTRA.VDW>
0.103617

>  <SCORE.INTRA.VDW.0>
-0.749945

>  <SCORE.INTRA.norm>
-0.0226192

>  <SCORE.RESTR>
0

>  <SCORE.RESTR.CAVITY>
0

>  <SCORE.RESTR.norm>
0

>  <SCORE.SYSTEM>
0

>  <SCORE.SYSTEM.CONST>
0

>  <SCORE.SYSTEM.DIHEDRAL>
0

>  <SCORE.SYSTEM.SOLV>
0

>  <SCORE.SYSTEM.norm>
0

>  <SCORE.heavy>
10

>  <SCORE.norm>
-0.817196

>  <RMSD>
5.542

$$$$
ligand
 OpenBabel11021811473D
libRbt.so/2013.1/901 2013/11/27
 10  9  0  0  0  0  0  0  0  0999 V2000
   25.9407   15.0060   20.3996 N   0  0  0  0  0  0  0  0  0  0  0  0
   26.8986   15.7764   19.5514 C   0  0  2  0  0  0  0  0  0  0  0  0
   27.3222   14.9744   18.3212 C   0  0  0  0  0  0  0  0  0  0  0  0
   26.9631   13.8083   18.1679 O   0  0  0  0  0  0  0  0  0  0  0  0
   28.1082   16.2377   20.3730 C   0  0  0  0  0  0  0  0  0  0  0  0
   28.8800   15.0779   21.0014 C   0  0  0  0  0  0  0  0  0  0  0  0
   30.1914   15.5240   21.6335 C   0  0  0  0  0  0  0  0  0  0  0  0
   31.1703   16.0255   20.5764 C   0  0  0  0  0  0  0  0  0  0  0  0
   32.4575   16.5419   21.1573 N   0  0  0  0  0  0  0  0  0  0  0  0
   28.0135   15.4615   17.4218 O   0  0  0  0  0  0  0  0  0  0  0  0
  2  1  1  1  0  0  0
  2  3  1  0  0  0  0
  2  5  1  0  0  0  0
  3  4  1  0  0  0  0
  3 10  1  0  0  0  0
  5  6  1  0  0  0  0
  6  7  1  0  0  0  0
  7  8  1  0  0  0  0
  8  9  1  0  0  0  0
M  END
>  <CHROM.1>
-5.20386764,59.19985442,171.24174116,-66.10277932,177.14939243,28.59375586
15.42496856,19.82653359,2.62513278,-0.20562084,-1.70254909

>  <Name>
ligand

>  <RI>
0

>  <Rbt.Current_Directory>
/home/itssahil/PROJECTS/Mol_Feturizer/New_Systems/rnas/3DIL

>  <Rbt.Executable>
rbdock ($Id: //depot/dev/client3/rdock/2013.1/src/exe/rbdock.cxx#4 $)

>  <Rbt.Library>
libRbt.so (2013.1, Build901 2013/11/27)

>  <Rbt.Parameter_File>
/export/apps/rDock/src/rDock_2013.1_src/data/scripts/dock_solv.prm

>  <Rbt.Receptor>
prm/pocket_docking_5.prm

>  <SCORE>
-8.8639

>  <SCORE.INTER>
-8.88442

>  <SCORE.INTER.CONST>
1

>  <SCORE.INTER.POLAR>
0

>  <SCORE.INTER.ROT>
5

>  <SCORE.INTER.SOLV>
17.4275

>  <SCORE.INTER.VDW>
-18.6655

>  <SCORE.INTER.norm>
-0.888442

>  <SCORE.INTRA>
0.0205202

>  <SCORE.INTRA.DIHEDRAL>
-0.903059

>  <SCORE.INTRA.DIHEDRAL.0>
2.93688

>  <SCORE.INTRA.POLAR>
0

>  <SCORE.INTRA.POLAR.0>
0

>  <SCORE.INTRA.REPUL>
0

>  <SCORE.INTRA.REPUL.0>
0

>  <SCORE.INTRA.SOLV>
-0.370592

>  <SCORE.INTRA.SOLV.lig_0>
-32.2816

>  <SCORE.INTRA.VDW>
0.657345

>  <SCORE.INTRA.VDW.0>
-0.749945

>  <SCORE.INTRA.norm>
0.00205202

>  <SCORE.RESTR>
0

>  <SCORE.RESTR.CAVITY>
0

>  <SCORE.RESTR.norm>
0

>  <SCORE.SYSTEM>
0

>  <SCORE.SYSTEM.CONST>
0

>  <SCORE.SYSTEM.DIHEDRAL>
0

>  <SCORE.SYSTEM.SOLV>
0

>  <SCORE.SYSTEM.norm>
0

>  <SCORE.heavy>
10

>  <SCORE.norm>
-0.88639

>  <RMSD>
5.543

$$$$
ligand
 OpenBabel11021811473D
libRbt.so/2013.1/901 2013/11/27
 10  9  0  0  0  0  0  0  0  0999 V2000
   27.1441   14.4696   18.3801 N   0  0  0  0  0  0  0  0  0  0  0  0
   27.7776   14.7274   19.7078 C   0  0  2  0  0  0  0  0  0  0  0  0
   26.7330   15.0961   20.7608 C   0  0  0  0  0  0  0  0  0  0  0  0
   27.0612   15.3633   21.9155 O   0  0  0  0  0  0  0  0  0  0  0  0
   28.8713   15.7959   19.5940 C   0  0  0  0  0  0  0  0  0  0  0  0
   29.7807   15.8519   20.8211 C   0  0  0  0  0  0  0  0  0  0  0  0
   30.8369   16.9435   20.7155 C   0  0  0  0  0  0  0  0  0  0  0  0
   31.7718   16.9245   21.9208 C   0  0  0  0  0  0  0  0  0  0  0  0
   32.7806   18.0395   21.9068 N   0  0  0  0  0  0  0  0  0  0  0  0
   25.5288   15.1683   20.4988 O   0  0  0  0  0  0  0  0  0  0  0  0
  2  1  1  6  0  0  0
  2  3  1  0  0  0  0
  2  5  1  0  0  0  0
  3  4  1  0  0  0  0
  3 10  1  0  0  0  0
  5  6  1  0  0  0  0
  6  7  1  0  0  0  0
  7  8  1  0  0  0  0
  8  9  1  0  0  0  0
M  END
>  <CHROM.1>
-178.98122859,-165.63767965,-178.29376815,-177.01202663,-176.36374209,28.79488654
15.84040182,20.64315913,-2.77920562,0.33064011,1.26265195

>  <Name>
ligand

>  <RI>
0

>  <Rbt.Current_Directory>
/home/itssahil/PROJECTS/Mol_Feturizer/New_Systems/rnas/3DIL

>  <Rbt.Executable>
rbdock ($Id: //depot/dev/client3/rdock/2013.1/src/exe/rbdock.cxx#4 $)

>  <Rbt.Library>
libRbt.so (2013.1, Build901 2013/11/27)

>  <Rbt.Parameter_File>
/export/apps/rDock/src/rDock_2013.1_src/data/scripts/dock_solv.prm

>  <Rbt.Receptor>
prm/pocket_docking_6.prm

>  <SCORE>
-9.37311

>  <SCORE.INTER>
-8.53243

>  <SCORE.INTER.CONST>
1

>  <SCORE.INTER.POLAR>
0

>  <SCORE.INTER.ROT>
5

>  <SCORE.INTER.SOLV>
15.515

>  <SCORE.INTER.VDW>
-17.7933

>  <SCORE.INTER.norm>
-0.853243

>  <SCORE.INTRA>
-0.840681

>  <SCORE.INTRA.DIHEDRAL>
-0.586901

>  <SCORE.INTRA.DIHEDRAL.0>
2.93688

>  <SCORE.INTRA.POLAR>
0

>  <SCORE.INTRA.POLAR.0>
0

>  <SCORE.INTRA.REPUL>
0

>  <SCORE.INTRA.REPUL.0>
0

>  <SCORE.INTRA.SOLV>
-1.48136

>  <SCORE.INTRA.SOLV.lig_0>
-32.2816

>  <SCORE.INTRA.VDW>
0.193452

>  <SCORE.INTRA.VDW.0>
-0.749945

>  <SCORE.INTRA.norm>
-0.0840681

>  <SCORE.RESTR>
0

>  <SCORE.RESTR.CAVITY>
0

>  <SCORE.RESTR.norm>
0

>  <SCORE.SYSTEM>
0

>  <SCORE.SYSTEM.CONST>
0

>  <SCORE.SYSTEM.DIHEDRAL>
0

>  <SCORE.SYSTEM.SOLV>
0

>  <SCORE.SYSTEM.norm>
0

>  <SCORE.heavy>
10

>  <SCORE.norm>
-0.937311

>  <RMSD>
5.544

$$$$
ligand
 OpenBabel11021811473D
libRbt.so/2013.1/901 2013/11/27
 10  9  0  0  0  0  0  0  0  0999 V2000
   28.5494   16.4243   19.5714 N   0  0  0  0  0  0  0  0  0  0  0  0
   28.0359   15.3322   20.4513 C   0  0  2  0  0  0  0  0  0  0  0  0
   26.5080   15.2963   20.4600 C   0  0  0  0  0  0  0  0  0  0  0  0
   25.8549   15.8041   19.5500 O   0  0  0  0  0  0  0  0  0  0  0  0
   28.6094   15.4558   21.8679 C   0  0  0  0  0  0  0  0  0  0  0  0
   30.1372   15.4293   21.8974 C   0  0  0  0  0  0  0  0  0  0  0  0
   30.7511   16.7775   21.5455 C   0  0  0  0  0  0  0  0  0  0  0  0
   32.2711   16.7406   21.6704 C   0  0  0  0  0  0  0  0  0  0  0  0
   32.9173   18.0801   21.4484 N   0  0  0  0  0  0  0  0  0  0  0  0
   25.8660   14.7396   21.3556 O   0  0  0  0  0  0  0  0  0  0  0  0
  2  1  1  6  0  0  0
  2  3  1  0  0  0  0
  2  5  1  0  0  0  0
  3  4  1  0  0  0  0
  3 10  1  0  0  0  0
  5  6  1  0  0  0  0
  6  7  1  0  0  0  0
  7  8  1  0  0  0  0
  8  9  1  0  0  0  0
M  END
>  <CHROM.1>
21.12925913,-57.74729309,80.45492829,176.38958357,-175.04263177,28.90454796
16.00203388,20.97836863,3.12350303,0.36030857,2.18163509

>  <Name>
ligand

>  <RI>
0

>  <Rbt.Current_Directory>
/home/itssahil/PROJECTS/Mol_Feturizer/New_Systems/rnas/3DIL

>  <Rbt.Executable>
rbdock ($Id: //depot/dev/client3/rdock/2013.1/src/exe/rbdock.cxx#4 $)

>  <Rbt.Library>
libRbt.so (2013.1, Build901 2013/11/27)

>  <Rbt.Parameter_File>
/export/apps/rDock/src/rDock_2013.1_src/data/scripts/dock_solv.prm

>  <Rbt.Receptor>
prm/pocket_docking_5.prm

>  <SCORE>
-9.03773

>  <SCORE.INTER>
-10.1057

>  <SCORE.INTER.CONST>
1

>  <SCORE.INTER.POLAR>
0

>  <SCORE.INTER.ROT>
5

>  <SCORE.INTER.SOLV>
13.0753

>  <SCORE.INTER.VDW>
-18.0289

>  <SCORE.INTER.norm>
-1.01057

>  <SCORE.INTRA>
1.06801

>  <SCORE.INTRA.DIHEDRAL>
0.280637

>  <SCORE.INTRA.DIHEDRAL.0>
2.93688

>  <SCORE.INTRA.POLAR>
0

>  <SCORE.INTRA.POLAR.0>
0

>  <SCORE.INTRA.REPUL>
0

>  <SCORE.INTRA.REPUL.0>
0

>  <SCORE.INTRA.SOLV>
0.802016

>  <SCORE.INTRA.SOLV.lig_0>
-32.2816

>  <SCORE.INTRA.VDW>
0.526685

>  <SCORE.INTRA.VDW.0>
-0.749945

>  <SCORE.INTRA.norm>
0.106801

>  <SCORE.RESTR>
0

>  <SCORE.RESTR.CAVITY>
0

>  <SCORE.RESTR.norm>
0

>  <SCORE.SYSTEM>
0

>  <SCORE.SYSTEM.CONST>
0

>  <SCORE.SYSTEM.DIHEDRAL>
0

>  <SCORE.SYSTEM.SOLV>
0

>  <SCORE.SYSTEM.norm>
0

>  <SCORE.heavy>
10

>  <SCORE.norm>
-0.903773

>  <RMSD>
5.546

$$$$
ligand
 OpenBabel11021811473D
libRbt.so/2013.1/901 2013/11/27
 10  9  0  0  0  0  0  0  0  0999 V2000
   27.0936   14.7074   18.2756 N   0  0  0  0  0  0  0  0  0  0  0  0
   27.7763   14.8292   19.5984 C   0  0  2  0  0  0  0  0  0  0  0  0
   26.7664   15.0067   20.7318 C   0  0  0  0  0  0  0  0  0  0  0  0
   27.1338   15.1016   21.9016 O   0  0  0  0  0  0  0  0  0  0  0  0
   28.8116   15.9600   19.5777 C   0  0  0  0  0  0  0  0  0  0  0  0
   29.7681   15.9150   20.7689 C   0  0  0  0  0  0  0  0  0  0  0  0
   30.7883   17.0449   20.7411 C   0  0  0  0  0  0  0  0  0  0  0  0
   31.7748   16.9255   21.8986 C   0  0  0  0  0  0  0  0  0  0  0  0
   32.7626   18.0577   21.9554 N   0  0  0  0  0  0  0  0  0  0  0  0
   25.5518   15.0889   20.5267 O   0  0  0  0  0  0  0  0  0  0  0  0
  2  1  1  6  0  0  0
  2  3  1  0  0  0  0
  2  5  1  0  0  0  0
  3  4  1  0  0  0  0
  3 10  1  0  0  0  0
  5  6  1  0  0  0  0
  6  7  1  0  0  0  0
  7  8  1  0  0  0  0
  8  9  1  0  0  0  0
M  END
>  <CHROM.1>
178.72692862,-166.03851484,-179.78400310,-176.80052711,-177.13286093,28.78994674
15.86168154,20.62016872,-2.82265140,0.38724280,1.41234202

>  <Name>
ligand

>  <RI>
0

>  <Rbt.Current_Directory>
/home/itssahil/PROJECTS/Mol_Feturizer/New_Systems/rnas/3DIL

>  <Rbt.Executable>
rbdock ($Id: //depot/dev/client3/rdock/2013.1/src/exe/rbdock.cxx#4 $)

>  <Rbt.Library>
libRbt.so (2013.1, Build901 2013/11/27)

>  <Rbt.Parameter_File>
/export/apps/rDock/src/rDock_2013.1_src/data/scripts/dock_solv.prm

>  <Rbt.Receptor>
prm/pocket_docking_2.prm

>  <SCORE>
-9.18822

>  <SCORE.INTER>
-8.28389

>  <SCORE.INTER.CONST>
1

>  <SCORE.INTER.POLAR>
0

>  <SCORE.INTER.ROT>
5

>  <SCORE.INTER.SOLV>
15.6648

>  <SCORE.INTER.VDW>
-17.6775

>  <SCORE.INTER.norm>
-0.828389

>  <SCORE.INTRA>
-0.904327

>  <SCORE.INTRA.DIHEDRAL>
-0.658756

>  <SCORE.INTRA.DIHEDRAL.0>
2.93688

>  <SCORE.INTRA.POLAR>
0

>  <SCORE.INTRA.POLAR.0>
0

>  <SCORE.INTRA.REPUL>
0

>  <SCORE.INTRA.REPUL.0>
0

>  <SCORE.INTRA.SOLV>
-1.48257

>  <SCORE.INTRA.SOLV.lig_0>
-32.2816

>  <SCORE.INTRA.VDW>
0.166337

>  <SCORE.INTRA.VDW.0>
-0.749945

>  <SCORE.INTRA.norm>
-0.0904327

>  <SCORE.RESTR>
0

>  <SCORE.RESTR.CAVITY>
0

>  <SCORE.RESTR.norm>
0

>  <SCORE.SYSTEM>
0

>  <SCORE.SYSTEM.CONST>
0

>  <SCORE.SYSTEM.DIHEDRAL>
0

>  <SCORE.SYSTEM.SOLV>
0

>  <SCORE.SYSTEM.norm>
0

>  <SCORE.heavy>
10

>  <SCORE.norm>
-0.918822

>  <RMSD>
5.547

$$$$
ligand
 OpenBabel11021811473D
libRbt.so/2013.1/901 2013/11/27
 10  9  0  0  0  0  0  0  0  0999 V2000
   25.5036   15.2509   20.2885 N   0  0  0  0  0  0  0  0  0  0  0  0
   26.8793   15.7548   19.9980 C   0  0  2  0  0  0  0  0  0  0  0  0
   27.3855   15.2454   18.6489 C   0  0  0  0  0  0  0  0  0  0  0  0
   27.0962   14.1204   18.2449 O   0  0  0  0  0  0  0  0  0  0  0  0
   27.8432   15.4014   21.1368 C   0  0  0  0  0  0  0  0  0  0  0  0
   29.2020   16.0880   21.0030 C   0  0  0  0  0  0  0  0  0  0  0  0
   30.1829   15.6566   22.0847 C   0  0  0  0  0  0  0  0  0  0  0  0
   31.5263   16.3613   21.9236 C   0  0  0  0  0  0  0  0  0  0  0  0
   31.4538   17.8417   22.1773 N   0  0  0  0  0  0  0  0  0  0  0  0
   28.0775   15.9399   17.8987 O   0  0  0  0  0  0  0  0  0  0  0  0
  2  1  1  1  0  0  0
  2  3  1  0  0  0  0
  2  5  1  0  0  0  0
  3  4  1  0  0  0  0
  3 10  1  0  0  0  0
  5  6  1  0  0  0  0
  6  7  1  0  0  0  0
  7  8  1  0  0  0  0
  8  9  1  0  0  0  0
M  END
>  <CHROM.1>
-35.41211541,-170.48362824,-176.05546765,-179.90033618,67.14126660,28.51690007
15.75276119,20.30337192,2.50648612,-0.30759590,-1.68257220

>  <Name>
ligand

>  <RI>
0

>  <Rbt.Current_Directory>
/home/itssahil/PROJECTS/Mol_Feturizer/New_Systems/rnas/3DIL

>  <Rbt.Executable>
rbdock ($Id: //depot/dev/client3/rdock/2013.1/src/exe/rbdock.cxx#4 $)

>  <Rbt.Library>
libRbt.so (2013.1, Build901 2013/11/27)

>  <Rbt.Parameter_File>
/export/apps/rDock/src/rDock_2013.1_src/data/scripts/dock_solv.prm

>  <Rbt.Receptor>
prm/pocket_docking_4.prm

>  <SCORE>
-9.2997

>  <SCORE.INTER>
-8.47772

>  <SCORE.INTER.CONST>
1

>  <SCORE.INTER.POLAR>
0

>  <SCORE.INTER.ROT>
5

>  <SCORE.INTER.SOLV>
18.0979

>  <SCORE.INTER.VDW>
-18.6178

>  <SCORE.INTER.norm>
-0.847772

>  <SCORE.INTRA>
-0.821976

>  <SCORE.INTRA.DIHEDRAL>
-0.794151

>  <SCORE.INTRA.DIHEDRAL.0>
2.93688

>  <SCORE.INTRA.POLAR>
0

>  <SCORE.INTRA.POLAR.0>
0

>  <SCORE.INTRA.REPUL>
0

>  <SCORE.INTRA.REPUL.0>
0

>  <SCORE.INTRA.SOLV>
-0.646761

>  <SCORE.INTRA.SOLV.lig_0>
-32.2816

>  <SCORE.INTRA.VDW>
-0.10152

>  <SCORE.INTRA.VDW.0>
-0.749945

>  <SCORE.INTRA.norm>
-0.0821976

>  <SCORE.RESTR>
0

>  <SCORE.RESTR.CAVITY>
0

>  <SCORE.RESTR.norm>
0

>  <SCORE.SYSTEM>
0

>  <SCORE.SYSTEM.CONST>
0

>  <SCORE.SYSTEM.DIHEDRAL>
0

>  <SCORE.SYSTEM.SOLV>
0

>  <SCORE.SYSTEM.norm>
0

>  <SCORE.heavy>
10

>  <SCORE.norm>
-0.92997

>  <RMSD>
5.547

$$$$
ligand
 OpenBabel11021811473D
libRbt.so/2013.1/901 2013/11/27
 10  9  0  0  0  0  0  0  0  0999 V2000
   26.9261   14.9278   20.2841 N   0  0  0  0  0  0  0  0  0  0  0  0
   27.4264   15.8351   19.2084 C   0  0  2  0  0  0  0  0  0  0  0  0
   27.6433   15.0785   17.8982 C   0  0  0  0  0  0  0  0  0  0  0  0
   28.1999   15.6124   16.9404 O   0  0  0  0  0  0  0  0  0  0  0  0
   28.6957   16.5685   19.6577 C   0  0  0  0  0  0  0  0  0  0  0  0
   29.8387   15.6189   20.0150 C   0  0  0  0  0  0  0  0  0  0  0  0
   31.1180   16.3579   20.3831 C   0  0  0  0  0  0  0  0  0  0  0  0
   30.9563   17.1205   21.6944 C   0  0  0  0  0  0  0  0  0  0  0  0
   32.1982   17.8609   22.1072 N   0  0  0  0  0  0  0  0  0  0  0  0
   27.2985   13.9023   17.7505 O   0  0  0  0  0  0  0  0  0  0  0  0
  2  1  1  1  0  0  0
  2  3  1  0  0  0  0
  2  5  1  0  0  0  0
  3  4  1  0  0  0  0
  3 10  1  0  0  0  0
  5  6  1  0  0  0  0
  6  7  1  0  0  0  0
  7  8  1  0  0  0  0
  8  9  1  0  0  0  0
M  END
>  <CHROM.1>
-171.30889186,59.65167106,176.72791363,67.64854579,179.60361244,29.02540011
15.86847042,19.55756580,2.42337535,-0.41970846,-1.72808282

>  <Name>
ligand

>  <RI>
0

>  <Rbt.Current_Directory>
/home/itssahil/PROJECTS/Mol_Feturizer/New_Systems/rnas/3DIL

>  <Rbt.Executable>
rbdock ($Id: //depot/dev/client3/rdock/2013.1/src/exe/rbdock.cxx#4 $)

>  <Rbt.Library>
libRbt.so (2013.1, Build901 2013/11/27)

>  <Rbt.Parameter_File>
/export/apps/rDock/src/rDock_2013.1_src/data/scripts/dock_solv.prm

>  <Rbt.Receptor>
prm/pocket_docking_5.prm

>  <SCORE>
-8.59732

>  <SCORE.INTER>
-8.66799

>  <SCORE.INTER.CONST>
1

>  <SCORE.INTER.POLAR>
0

>  <SCORE.INTER.ROT>
5

>  <SCORE.INTER.SOLV>
13.865

>  <SCORE.INTER.VDW>
-17.3337

>  <SCORE.INTER.norm>
-0.866799

>  <SCORE.INTRA>
0.0706639

>  <SCORE.INTRA.DIHEDRAL>
-1.11921

>  <SCORE.INTRA.DIHEDRAL.0>
2.93688

>  <SCORE.INTRA.POLAR>
0

>  <SCORE.INTRA.POLAR.0>
0

>  <SCORE.INTRA.REPUL>
0

>  <SCORE.INTRA.REPUL.0>
0

>  <SCORE.INTRA.SOLV>
-0.39527

>  <SCORE.INTRA.SOLV.lig_0>
-32.2816

>  <SCORE.INTRA.VDW>
0.827906

>  <SCORE.INTRA.VDW.0>
-0.749945

>  <SCORE.INTRA.norm>
0.00706639

>  <SCORE.RESTR>
0

>  <SCORE.RESTR.CAVITY>
0

>  <SCORE.RESTR.norm>
0

>  <SCORE.SYSTEM>
0

>  <SCORE.SYSTEM.CONST>
0

>  <SCORE.SYSTEM.DIHEDRAL>
0

>  <SCORE.SYSTEM.SOLV>
0

>  <SCORE.SYSTEM.norm>
0

>  <SCORE.heavy>
10

>  <SCORE.norm>
-0.859732

>  <RMSD>
5.547

$$$$
ligand
 OpenBabel11021811473D
libRbt.so/2013.1/901 2013/11/27
 10  9  0  0  0  0  0  0  0  0999 V2000
   27.0762   14.5774   18.3627 N   0  0  0  0  0  0  0  0  0  0  0  0
   27.7421   14.7856   19.6832 C   0  0  2  0  0  0  0  0  0  0  0  0
   26.7252   15.1267   20.7720 C   0  0  0  0  0  0  0  0  0  0  0  0
   25.5190   15.1426   20.5328 O   0  0  0  0  0  0  0  0  0  0  0  0
   28.8420   15.8488   19.5798 C   0  0  0  0  0  0  0  0  0  0  0  0
   29.7670   15.8707   20.7962 C   0  0  0  0  0  0  0  0  0  0  0  0
   30.8287   16.9580   20.7026 C   0  0  0  0  0  0  0  0  0  0  0  0
   31.7657   16.9187   21.9058 C   0  0  0  0  0  0  0  0  0  0  0  0
   32.7755   18.0329   21.9080 N   0  0  0  0  0  0  0  0  0  0  0  0
   27.0604   15.3729   21.9343 O   0  0  0  0  0  0  0  0  0  0  0  0
  2  1  1  6  0  0  0
  2  3  1  0  0  0  0
  2  5  1  0  0  0  0
  3  4  1  0  0  0  0
  3 10  1  0  0  0  0
  5  6  1  0  0  0  0
  6  7  1  0  0  0  0
  7  8  1  0  0  0  0
  8  9  1  0  0  0  0
M  END
>  <CHROM.1>
3.38551357,-166.50284988,-178.23626877,-177.87738368,-176.05293324,28.77680714
15.86462027,20.63954904,-2.79650963,0.33917295,1.30275068

>  <Name>
ligand

>  <RI>
0

>  <Rbt.Current_Directory>
/home/itssahil/PROJECTS/Mol_Feturizer/New_Systems/rnas/3DIL

>  <Rbt.Executable>
rbdock ($Id: //depot/dev/client3/rdock/2013.1/src/exe/rbdock.cxx#4 $)

>  <Rbt.Library>
libRbt.so (2013.1, Build901 2013/11/27)

>  <Rbt.Parameter_File>
/export/apps/rDock/src/rDock_2013.1_src/data/scripts/dock_solv.prm

>  <Rbt.Receptor>
prm/blind_docking_60.prm

>  <SCORE>
-9.36973

>  <SCORE.INTER>
-8.48807

>  <SCORE.INTER.CONST>
1

>  <SCORE.INTER.POLAR>
0

>  <SCORE.INTER.ROT>
5

>  <SCORE.INTER.SOLV>
15.5138

>  <SCORE.INTER.VDW>
-17.7633

>  <SCORE.INTER.norm>
-0.848807

>  <SCORE.INTRA>
-0.881662

>  <SCORE.INTRA.DIHEDRAL>
-0.684693

>  <SCORE.INTRA.DIHEDRAL.0>
2.93688

>  <SCORE.INTRA.POLAR>
0

>  <SCORE.INTRA.POLAR.0>
0

>  <SCORE.INTRA.REPUL>
0

>  <SCORE.INTRA.REPUL.0>
0

>  <SCORE.INTRA.SOLV>
-1.4758

>  <SCORE.INTRA.SOLV.lig_0>
-32.2816

>  <SCORE.INTRA.VDW>
0.198582

>  <SCORE.INTRA.VDW.0>
-0.749945

>  <SCORE.INTRA.norm>
-0.0881662

>  <SCORE.RESTR>
0

>  <SCORE.RESTR.CAVITY>
0

>  <SCORE.RESTR.norm>
0

>  <SCORE.SYSTEM>
0

>  <SCORE.SYSTEM.CONST>
0

>  <SCORE.SYSTEM.DIHEDRAL>
0

>  <SCORE.SYSTEM.SOLV>
0

>  <SCORE.SYSTEM.norm>
0

>  <SCORE.heavy>
10

>  <SCORE.norm>
-0.936973

>  <RMSD>
5.548

$$$$
ligand
 OpenBabel11021811473D
libRbt.so/2013.1/901 2013/11/27
 10  9  0  0  0  0  0  0  0  0999 V2000
   27.1611   14.4687   18.3397 N   0  0  0  0  0  0  0  0  0  0  0  0
   27.7740   14.7376   19.6749 C   0  0  2  0  0  0  0  0  0  0  0  0
   26.7130   15.1125   20.7091 C   0  0  0  0  0  0  0  0  0  0  0  0
   27.0205   15.3628   21.8733 O   0  0  0  0  0  0  0  0  0  0  0  0
   28.8677   15.8070   19.5695 C   0  0  0  0  0  0  0  0  0  0  0  0
   29.7096   15.9265   20.8394 C   0  0  0  0  0  0  0  0  0  0  0  0
   30.8055   16.9763   20.7165 C   0  0  0  0  0  0  0  0  0  0  0  0
   31.6739   17.0162   21.9701 C   0  0  0  0  0  0  0  0  0  0  0  0
   32.7435   18.0718   21.9175 N   0  0  0  0  0  0  0  0  0  0  0  0
   25.5160   15.2068   20.4222 O   0  0  0  0  0  0  0  0  0  0  0  0
  2  1  1  6  0  0  0
  2  3  1  0  0  0  0
  2  5  1  0  0  0  0
  3  4  1  0  0  0  0
  3 10  1  0  0  0  0
  5  6  1  0  0  0  0
  6  7  1  0  0  0  0
  7  8  1  0  0  0  0
  8  9  1  0  0  0  0
M  END
>  <CHROM.1>
179.54130046,-168.79272636,179.13640688,-176.87445401,-177.99805762,28.76451006
15.87107032,20.62369233,-2.76080160,0.33326370,1.25500986

>  <Name>
ligand

>  <RI>
0

>  <Rbt.Current_Directory>
/home/itssahil/PROJECTS/Mol_Feturizer/New_Systems/rnas/3DIL

>  <Rbt.Executable>
rbdock ($Id: //depot/dev/client3/rdock/2013.1/src/exe/rbdock.cxx#4 $)

>  <Rbt.Library>
libRbt.so (2013.1, Build901 2013/11/27)

>  <Rbt.Parameter_File>
/export/apps/rDock/src/rDock_2013.1_src/data/scripts/dock_solv.prm

>  <Rbt.Receptor>
prm/pocket_docking_8.prm

>  <SCORE>
-9.33269

>  <SCORE.INTER>
-8.40374

>  <SCORE.INTER.CONST>
1

>  <SCORE.INTER.POLAR>
0

>  <SCORE.INTER.ROT>
5

>  <SCORE.INTER.SOLV>
15.422

>  <SCORE.INTER.VDW>
-17.6765

>  <SCORE.INTER.norm>
-0.840374

>  <SCORE.INTRA>
-0.928952

>  <SCORE.INTRA.DIHEDRAL>
-0.919442

>  <SCORE.INTRA.DIHEDRAL.0>
2.93688

>  <SCORE.INTRA.POLAR>
0

>  <SCORE.INTRA.POLAR.0>
0

>  <SCORE.INTRA.REPUL>
0

>  <SCORE.INTRA.REPUL.0>
0

>  <SCORE.INTRA.SOLV>
-1.48736

>  <SCORE.INTRA.SOLV.lig_0>
-32.2816

>  <SCORE.INTRA.VDW>
0.274447

>  <SCORE.INTRA.VDW.0>
-0.749945

>  <SCORE.INTRA.norm>
-0.0928952

>  <SCORE.RESTR>
0

>  <SCORE.RESTR.CAVITY>
0

>  <SCORE.RESTR.norm>
0

>  <SCORE.SYSTEM>
0

>  <SCORE.SYSTEM.CONST>
0

>  <SCORE.SYSTEM.DIHEDRAL>
0

>  <SCORE.SYSTEM.SOLV>
0

>  <SCORE.SYSTEM.norm>
0

>  <SCORE.heavy>
10

>  <SCORE.norm>
-0.933269

>  <RMSD>
5.548

$$$$
ligand
 OpenBabel11021811473D
libRbt.so/2013.1/901 2013/11/27
 10  9  0  0  0  0  0  0  0  0999 V2000
   28.5669   16.3768   19.5870 N   0  0  0  0  0  0  0  0  0  0  0  0
   28.0437   15.3015   20.4818 C   0  0  2  0  0  0  0  0  0  0  0  0
   26.5166   15.2463   20.4518 C   0  0  0  0  0  0  0  0  0  0  0  0
   25.8822   15.7070   19.5043 O   0  0  0  0  0  0  0  0  0  0  0  0
   28.5782   15.4692   21.9090 C   0  0  0  0  0  0  0  0  0  0  0  0
   30.1046   15.4415   21.9815 C   0  0  0  0  0  0  0  0  0  0  0  0
   30.7318   16.7715   21.5863 C   0  0  0  0  0  0  0  0  0  0  0  0
   32.2474   16.7387   21.7572 C   0  0  0  0  0  0  0  0  0  0  0  0
   32.9071   18.0556   21.4547 N   0  0  0  0  0  0  0  0  0  0  0  0
   25.8574   14.7196   21.3530 O   0  0  0  0  0  0  0  0  0  0  0  0
  2  1  1  6  0  0  0
  2  3  1  0  0  0  0
  2  5  1  0  0  0  0
  3  4  1  0  0  0  0
  3 10  1  0  0  0  0
  5  6  1  0  0  0  0
  6  7  1  0  0  0  0
  7  8  1  0  0  0  0
  8  9  1  0  0  0  0
M  END
>  <CHROM.1>
22.04630376,-58.62718868,79.69853495,176.26422263,-176.69687364,28.89824756
15.97630019,21.00232631,-3.13953395,0.37256722,2.13737411

>  <Name>
ligand

>  <RI>
0

>  <Rbt.Current_Directory>
/home/itssahil/PROJECTS/Mol_Feturizer/New_Systems/rnas/3DIL

>  <Rbt.Executable>
rbdock ($Id: //depot/dev/client3/rdock/2013.1/src/exe/rbdock.cxx#4 $)

>  <Rbt.Library>
libRbt.so (2013.1, Build901 2013/11/27)

>  <Rbt.Parameter_File>
/export/apps/rDock/src/rDock_2013.1_src/data/scripts/dock_solv.prm

>  <Rbt.Receptor>
prm/blind_docking_80.prm

>  <SCORE>
-9.06485

>  <SCORE.INTER>
-10.0601

>  <SCORE.INTER.CONST>
1

>  <SCORE.INTER.POLAR>
0

>  <SCORE.INTER.ROT>
5

>  <SCORE.INTER.SOLV>
12.8869

>  <SCORE.INTER.VDW>
-17.9357

>  <SCORE.INTER.norm>
-1.00601

>  <SCORE.INTRA>
0.995243

>  <SCORE.INTRA.DIHEDRAL>
0.116272

>  <SCORE.INTRA.DIHEDRAL.0>
2.93688

>  <SCORE.INTRA.POLAR>
0

>  <SCORE.INTRA.POLAR.0>
0

>  <SCORE.INTRA.REPUL>
0

>  <SCORE.INTRA.REPUL.0>
0

>  <SCORE.INTRA.SOLV>
0.796063

>  <SCORE.INTRA.SOLV.lig_0>
-32.2816

>  <SCORE.INTRA.VDW>
0.539075

>  <SCORE.INTRA.VDW.0>
-0.749945

>  <SCORE.INTRA.norm>
0.0995243

>  <SCORE.RESTR>
0

>  <SCORE.RESTR.CAVITY>
0

>  <SCORE.RESTR.norm>
0

>  <SCORE.SYSTEM>
0

>  <SCORE.SYSTEM.CONST>
0

>  <SCORE.SYSTEM.DIHEDRAL>
0

>  <SCORE.SYSTEM.SOLV>
0

>  <SCORE.SYSTEM.norm>
0

>  <SCORE.heavy>
10

>  <SCORE.norm>
-0.906485

>  <RMSD>
5.549

$$$$
ligand
 OpenBabel11021811473D
libRbt.so/2013.1/901 2013/11/27
 10  9  0  0  0  0  0  0  0  0999 V2000
   27.1072   14.5661   18.3305 N   0  0  0  0  0  0  0  0  0  0  0  0
   27.7757   14.7419   19.6544 C   0  0  2  0  0  0  0  0  0  0  0  0
   26.7545   14.9777   20.7668 C   0  0  0  0  0  0  0  0  0  0  0  0
   27.1090   15.1173   21.9361 O   0  0  0  0  0  0  0  0  0  0  0  0
   28.8204   15.8627   19.5953 C   0  0  0  0  0  0  0  0  0  0  0  0
   29.7805   15.8467   20.7843 C   0  0  0  0  0  0  0  0  0  0  0  0
   30.8107   16.9658   20.7176 C   0  0  0  0  0  0  0  0  0  0  0  0
   31.7784   16.8952   21.8948 C   0  0  0  0  0  0  0  0  0  0  0  0
   32.7813   18.0156   21.9064 N   0  0  0  0  0  0  0  0  0  0  0  0
   25.5435   15.0648   20.5433 O   0  0  0  0  0  0  0  0  0  0  0  0
  2  1  1  6  0  0  0
  2  3  1  0  0  0  0
  2  5  1  0  0  0  0
  3  4  1  0  0  0  0
  3 10  1  0  0  0  0
  5  6  1  0  0  0  0
  6  7  1  0  0  0  0
  7  8  1  0  0  0  0
  8  9  1  0  0  0  0
M  END
>  <CHROM.1>
178.45347795,-164.88454317,-179.83210093,-178.25224364,-177.55025721,28.79301431
15.80467109,20.63525902,-2.81662673,0.37434225,1.36536554

>  <Name>
ligand

>  <RI>
0

>  <Rbt.Current_Directory>
/home/itssahil/PROJECTS/Mol_Feturizer/New_Systems/rnas/3DIL

>  <Rbt.Executable>
rbdock ($Id: //depot/dev/client3/rdock/2013.1/src/exe/rbdock.cxx#4 $)

>  <Rbt.Library>
libRbt.so (2013.1, Build901 2013/11/27)

>  <Rbt.Parameter_File>
/export/apps/rDock/src/rDock_2013.1_src/data/scripts/dock_solv.prm

>  <Rbt.Receptor>
prm/pocket_docking_2.prm

>  <SCORE>
-9.21796

>  <SCORE.INTER>
-8.31609

>  <SCORE.INTER.CONST>
1

>  <SCORE.INTER.POLAR>
0

>  <SCORE.INTER.ROT>
5

>  <SCORE.INTER.SOLV>
15.6343

>  <SCORE.INTER.VDW>
-17.6888

>  <SCORE.INTER.norm>
-0.831609

>  <SCORE.INTRA>
-0.901868

>  <SCORE.INTRA.DIHEDRAL>
-0.580357

>  <SCORE.INTRA.DIHEDRAL.0>
2.93688

>  <SCORE.INTRA.POLAR>
0

>  <SCORE.INTRA.POLAR.0>
0

>  <SCORE.INTRA.REPUL>
0

>  <SCORE.INTRA.REPUL.0>
0

>  <SCORE.INTRA.SOLV>
-1.48062

>  <SCORE.INTRA.SOLV.lig_0>
-32.2816

>  <SCORE.INTRA.VDW>
0.128618

>  <SCORE.INTRA.VDW.0>
-0.749945

>  <SCORE.INTRA.norm>
-0.0901868

>  <SCORE.RESTR>
0

>  <SCORE.RESTR.CAVITY>
0

>  <SCORE.RESTR.norm>
0

>  <SCORE.SYSTEM>
0

>  <SCORE.SYSTEM.CONST>
0

>  <SCORE.SYSTEM.DIHEDRAL>
0

>  <SCORE.SYSTEM.SOLV>
0

>  <SCORE.SYSTEM.norm>
0

>  <SCORE.heavy>
10

>  <SCORE.norm>
-0.921796

>  <RMSD>
5.552

$$$$
ligand
 OpenBabel11021811473D
libRbt.so/2013.1/901 2013/11/27
 10  9  0  0  0  0  0  0  0  0999 V2000
   26.1852   15.0692   19.9844 N   0  0  0  0  0  0  0  0  0  0  0  0
   27.4311   15.4806   19.2709 C   0  0  2  0  0  0  0  0  0  0  0  0
   27.4719   14.9160   17.8512 C   0  0  0  0  0  0  0  0  0  0  0  0
   28.0243   15.5286   16.9390 O   0  0  0  0  0  0  0  0  0  0  0  0
   28.6767   15.0883   20.0743 C   0  0  0  0  0  0  0  0  0  0  0  0
   28.7739   15.8134   21.4162 C   0  0  0  0  0  0  0  0  0  0  0  0
   30.0450   15.4637   22.1778 C   0  0  0  0  0  0  0  0  0  0  0  0
   31.2762   16.0514   21.4951 C   0  0  0  0  0  0  0  0  0  0  0  0
   31.3166   17.5540   21.5359 N   0  0  0  0  0  0  0  0  0  0  0  0
   26.9820   13.8203   17.5624 O   0  0  0  0  0  0  0  0  0  0  0  0
  2  1  1  1  0  0  0
  2  3  1  0  0  0  0
  2  5  1  0  0  0  0
  3  4  1  0  0  0  0
  3 10  1  0  0  0  0
  5  6  1  0  0  0  0
  6  7  1  0  0  0  0
  7  8  1  0  0  0  0
  8  9  1  0  0  0  0
M  END
>  <CHROM.1>
148.25913432,-64.14770268,-177.44085096,69.80277443,66.90089116,28.61193136
15.46384619,19.79061834,2.36121839,-0.42907004,-1.58043567

>  <Name>
ligand

>  <RI>
0

>  <Rbt.Current_Directory>
/home/itssahil/PROJECTS/Mol_Feturizer/New_Systems/rnas/3DIL

>  <Rbt.Executable>
rbdock ($Id: //depot/dev/client3/rdock/2013.1/src/exe/rbdock.cxx#4 $)

>  <Rbt.Library>
libRbt.so (2013.1, Build901 2013/11/27)

>  <Rbt.Parameter_File>
/export/apps/rDock/src/rDock_2013.1_src/data/scripts/dock_solv.prm

>  <Rbt.Receptor>
prm/pocket_docking_7.prm

>  <SCORE>
-8.43773

>  <SCORE.INTER>
-8.76038

>  <SCORE.INTER.CONST>
1

>  <SCORE.INTER.POLAR>
0

>  <SCORE.INTER.ROT>
5

>  <SCORE.INTER.SOLV>
15.4307

>  <SCORE.INTER.VDW>
-17.9172

>  <SCORE.INTER.norm>
-0.876038

>  <SCORE.INTRA>
0.322649

>  <SCORE.INTRA.DIHEDRAL>
-0.804258

>  <SCORE.INTRA.DIHEDRAL.0>
2.93688

>  <SCORE.INTRA.POLAR>
0

>  <SCORE.INTRA.POLAR.0>
0

>  <SCORE.INTRA.REPUL>
0

>  <SCORE.INTRA.REPUL.0>
0

>  <SCORE.INTRA.SOLV>
0.651488

>  <SCORE.INTRA.SOLV.lig_0>
-32.2816

>  <SCORE.INTRA.VDW>
0.399034

>  <SCORE.INTRA.VDW.0>
-0.749945

>  <SCORE.INTRA.norm>
0.0322649

>  <SCORE.RESTR>
0

>  <SCORE.RESTR.CAVITY>
0

>  <SCORE.RESTR.norm>
0

>  <SCORE.SYSTEM>
0

>  <SCORE.SYSTEM.CONST>
0

>  <SCORE.SYSTEM.DIHEDRAL>
0

>  <SCORE.SYSTEM.SOLV>
0

>  <SCORE.SYSTEM.norm>
0

>  <SCORE.heavy>
10

>  <SCORE.norm>
-0.843773

>  <RMSD>
5.552

$$$$
ligand
 OpenBabel11021811473D
libRbt.so/2013.1/901 2013/11/27
 10  9  0  0  0  0  0  0  0  0999 V2000
   27.1316   14.4775   18.3220 N   0  0  0  0  0  0  0  0  0  0  0  0
   27.7477   14.7382   19.6574 C   0  0  2  0  0  0  0  0  0  0  0  0
   26.6924   15.1341   20.6896 C   0  0  0  0  0  0  0  0  0  0  0  0
   27.0004   15.3627   21.8581 O   0  0  0  0  0  0  0  0  0  0  0  0
   28.8604   15.7876   19.5511 C   0  0  0  0  0  0  0  0  0  0  0  0
   29.7266   15.8681   20.8077 C   0  0  0  0  0  0  0  0  0  0  0  0
   30.8257   16.9155   20.6929 C   0  0  0  0  0  0  0  0  0  0  0  0
   31.7077   16.9279   21.9375 C   0  0  0  0  0  0  0  0  0  0  0  0
   32.7308   18.0298   21.9287 N   0  0  0  0  0  0  0  0  0  0  0  0
   25.5005   15.2675   20.3971 O   0  0  0  0  0  0  0  0  0  0  0  0
  2  1  1  6  0  0  0
  2  3  1  0  0  0  0
  2  5  1  0  0  0  0
  3  4  1  0  0  0  0
  3 10  1  0  0  0  0
  5  6  1  0  0  0  0
  6  7  1  0  0  0  0
  7  8  1  0  0  0  0
  8  9  1  0  0  0  0
M  END
>  <CHROM.1>
178.49567127,-167.23432745,-179.85134535,-177.53793459,-174.71102854,28.75844228
15.85398090,20.60465662,-2.76306414,0.31567987,1.25204466

>  <Name>
ligand

>  <RI>
0

>  <Rbt.Current_Directory>
/home/itssahil/PROJECTS/Mol_Feturizer/New_Systems/rnas/3DIL

>  <Rbt.Executable>
rbdock ($Id: //depot/dev/client3/rdock/2013.1/src/exe/rbdock.cxx#4 $)

>  <Rbt.Library>
libRbt.so (2013.1, Build901 2013/11/27)

>  <Rbt.Parameter_File>
/export/apps/rDock/src/rDock_2013.1_src/data/scripts/dock_solv.prm

>  <Rbt.Receptor>
prm/pocket_docking_8.prm

>  <SCORE>
-9.3323

>  <SCORE.INTER>
-8.43115

>  <SCORE.INTER.CONST>
1

>  <SCORE.INTER.POLAR>
0

>  <SCORE.INTER.ROT>
5

>  <SCORE.INTER.SOLV>
15.4427

>  <SCORE.INTER.VDW>
-17.7017

>  <SCORE.INTER.norm>
-0.843115

>  <SCORE.INTRA>
-0.901155

>  <SCORE.INTRA.DIHEDRAL>
-0.716401

>  <SCORE.INTRA.DIHEDRAL.0>
2.93688

>  <SCORE.INTRA.POLAR>
0

>  <SCORE.INTRA.POLAR.0>
0

>  <SCORE.INTRA.REPUL>
0

>  <SCORE.INTRA.REPUL.0>
0

>  <SCORE.INTRA.SOLV>
-1.48344

>  <SCORE.INTRA.SOLV.lig_0>
-32.2816

>  <SCORE.INTRA.VDW>
0.198764

>  <SCORE.INTRA.VDW.0>
-0.749945

>  <SCORE.INTRA.norm>
-0.0901155

>  <SCORE.RESTR>
0

>  <SCORE.RESTR.CAVITY>
0

>  <SCORE.RESTR.norm>
0

>  <SCORE.SYSTEM>
0

>  <SCORE.SYSTEM.CONST>
0

>  <SCORE.SYSTEM.DIHEDRAL>
0

>  <SCORE.SYSTEM.SOLV>
0

>  <SCORE.SYSTEM.norm>
0

>  <SCORE.heavy>
10

>  <SCORE.norm>
-0.93323

>  <RMSD>
5.552

$$$$
ligand
 OpenBabel11021811473D
libRbt.so/2013.1/901 2013/11/27
 10  9  0  0  0  0  0  0  0  0999 V2000
   27.1069   14.5710   18.3543 N   0  0  0  0  0  0  0  0  0  0  0  0
   27.7438   14.7995   19.6858 C   0  0  2  0  0  0  0  0  0  0  0  0
   26.7001   15.1261   20.7535 C   0  0  0  0  0  0  0  0  0  0  0  0
   27.0312   15.3708   21.9123 O   0  0  0  0  0  0  0  0  0  0  0  0
   28.8241   15.8839   19.5967 C   0  0  0  0  0  0  0  0  0  0  0  0
   29.7459   15.9092   20.8155 C   0  0  0  0  0  0  0  0  0  0  0  0
   30.8018   17.0025   20.7260 C   0  0  0  0  0  0  0  0  0  0  0  0
   31.7591   16.9429   21.9123 C   0  0  0  0  0  0  0  0  0  0  0  0
   32.7633   18.0620   21.9211 N   0  0  0  0  0  0  0  0  0  0  0  0
   25.4933   15.1853   20.5003 O   0  0  0  0  0  0  0  0  0  0  0  0
  2  1  1  6  0  0  0
  2  3  1  0  0  0  0
  2  5  1  0  0  0  0
  3  4  1  0  0  0  0
  3 10  1  0  0  0  0
  5  6  1  0  0  0  0
  6  7  1  0  0  0  0
  7  8  1  0  0  0  0
  8  9  1  0  0  0  0
M  END
>  <CHROM.1>
-178.65946672,-165.16068505,-179.16536107,-176.33206905,-175.96553012,28.76324959
15.88681672,20.63908143,-2.78965182,0.33810562,1.29495773

>  <Name>
ligand

>  <RI>
0

>  <Rbt.Current_Directory>
/home/itssahil/PROJECTS/Mol_Feturizer/New_Systems/rnas/3DIL

>  <Rbt.Executable>
rbdock ($Id: //depot/dev/client3/rdock/2013.1/src/exe/rbdock.cxx#4 $)

>  <Rbt.Library>
libRbt.so (2013.1, Build901 2013/11/27)

>  <Rbt.Parameter_File>
/export/apps/rDock/src/rDock_2013.1_src/data/scripts/dock_solv.prm

>  <Rbt.Receptor>
prm/pocket_docking_3.prm

>  <SCORE>
-9.33416

>  <SCORE.INTER>
-8.52186

>  <SCORE.INTER.CONST>
1

>  <SCORE.INTER.POLAR>
0

>  <SCORE.INTER.ROT>
5

>  <SCORE.INTER.SOLV>
15.4121

>  <SCORE.INTER.VDW>
-17.752

>  <SCORE.INTER.norm>
-0.852186

>  <SCORE.INTRA>
-0.812291

>  <SCORE.INTRA.DIHEDRAL>
-0.516094

>  <SCORE.INTRA.DIHEDRAL.0>
2.93688

>  <SCORE.INTRA.POLAR>
0

>  <SCORE.INTRA.POLAR.0>
0

>  <SCORE.INTRA.REPUL>
0

>  <SCORE.INTRA.REPUL.0>
0

>  <SCORE.INTRA.SOLV>
-1.48021

>  <SCORE.INTRA.SOLV.lig_0>
-32.2816

>  <SCORE.INTRA.VDW>
0.18586

>  <SCORE.INTRA.VDW.0>
-0.749945

>  <SCORE.INTRA.norm>
-0.0812291

>  <SCORE.RESTR>
0

>  <SCORE.RESTR.CAVITY>
0

>  <SCORE.RESTR.norm>
0

>  <SCORE.SYSTEM>
0

>  <SCORE.SYSTEM.CONST>
0

>  <SCORE.SYSTEM.DIHEDRAL>
0

>  <SCORE.SYSTEM.SOLV>
0

>  <SCORE.SYSTEM.norm>
0

>  <SCORE.heavy>
10

>  <SCORE.norm>
-0.933416

>  <RMSD>
5.555

$$$$
ligand
 OpenBabel11021811473D
libRbt.so/2013.1/901 2013/11/27
 10  9  0  0  0  0  0  0  0  0999 V2000
   27.0762   14.6343   18.2804 N   0  0  0  0  0  0  0  0  0  0  0  0
   27.7205   14.8253   19.6142 C   0  0  2  0  0  0  0  0  0  0  0  0
   26.6873   15.1642   20.6882 C   0  0  0  0  0  0  0  0  0  0  0  0
   25.4885   15.2250   20.4205 O   0  0  0  0  0  0  0  0  0  0  0  0
   28.8298   15.8812   19.5397 C   0  0  0  0  0  0  0  0  0  0  0  0
   29.7114   15.9094   20.7878 C   0  0  0  0  0  0  0  0  0  0  0  0
   30.7968   16.9745   20.7117 C   0  0  0  0  0  0  0  0  0  0  0  0
   31.6949   16.9354   21.9442 C   0  0  0  0  0  0  0  0  0  0  0  0
   32.7546   18.0022   21.9402 N   0  0  0  0  0  0  0  0  0  0  0  0
   27.0004   15.3637   21.8656 O   0  0  0  0  0  0  0  0  0  0  0  0
  2  1  1  6  0  0  0
  2  3  1  0  0  0  0
  2  5  1  0  0  0  0
  3  4  1  0  0  0  0
  3 10  1  0  0  0  0
  5  6  1  0  0  0  0
  6  7  1  0  0  0  0
  7  8  1  0  0  0  0
  8  9  1  0  0  0  0
M  END
>  <CHROM.1>
1.49551873,-167.99115717,-179.18040785,-177.52777247,-177.93246056,28.74232314
15.89270354,20.60047955,-2.78225811,0.33021892,1.31302885

>  <Name>
ligand

>  <RI>
0

>  <Rbt.Current_Directory>
/home/itssahil/PROJECTS/Mol_Feturizer/New_Systems/rnas/3DIL

>  <Rbt.Executable>
rbdock ($Id: //depot/dev/client3/rdock/2013.1/src/exe/rbdock.cxx#4 $)

>  <Rbt.Library>
libRbt.so (2013.1, Build901 2013/11/27)

>  <Rbt.Parameter_File>
/export/apps/rDock/src/rDock_2013.1_src/data/scripts/dock_solv.prm

>  <Rbt.Receptor>
prm/blind_docking_100.prm

>  <SCORE>
-9.37718

>  <SCORE.INTER>
-8.42347

>  <SCORE.INTER.CONST>
1

>  <SCORE.INTER.POLAR>
0

>  <SCORE.INTER.ROT>
5

>  <SCORE.INTER.SOLV>
15.5164

>  <SCORE.INTER.VDW>
-17.7211

>  <SCORE.INTER.norm>
-0.842347

>  <SCORE.INTRA>
-0.953716

>  <SCORE.INTRA.DIHEDRAL>
-0.86111

>  <SCORE.INTRA.DIHEDRAL.0>
2.93688

>  <SCORE.INTRA.POLAR>
0

>  <SCORE.INTRA.POLAR.0>
0

>  <SCORE.INTRA.REPUL>
0

>  <SCORE.INTRA.REPUL.0>
0

>  <SCORE.INTRA.SOLV>
-1.47861

>  <SCORE.INTRA.SOLV.lig_0>
-32.2816

>  <SCORE.INTRA.VDW>
0.216144

>  <SCORE.INTRA.VDW.0>
-0.749945

>  <SCORE.INTRA.norm>
-0.0953716

>  <SCORE.RESTR>
0

>  <SCORE.RESTR.CAVITY>
0

>  <SCORE.RESTR.norm>
0

>  <SCORE.SYSTEM>
0

>  <SCORE.SYSTEM.CONST>
0

>  <SCORE.SYSTEM.DIHEDRAL>
0

>  <SCORE.SYSTEM.SOLV>
0

>  <SCORE.SYSTEM.norm>
0

>  <SCORE.heavy>
10

>  <SCORE.norm>
-0.937718

>  <RMSD>
5.557

$$$$
ligand
 OpenBabel11021811473D
libRbt.so/2013.1/901 2013/11/27
 10  9  0  0  0  0  0  0  0  0999 V2000
   27.0085   14.6952   20.2898 N   0  0  0  0  0  0  0  0  0  0  0  0
   27.2842   15.6954   19.2155 C   0  0  2  0  0  0  0  0  0  0  0  0
   27.8350   15.0241   17.9578 C   0  0  0  0  0  0  0  0  0  0  0  0
   27.8904   13.7992   17.8633 O   0  0  0  0  0  0  0  0  0  0  0  0
   28.2165   16.8014   19.7238 C   0  0  0  0  0  0  0  0  0  0  0  0
   29.5295   16.2616   20.2899 C   0  0  0  0  0  0  0  0  0  0  0  0
   30.4078   17.3590   20.8751 C   0  0  0  0  0  0  0  0  0  0  0  0
   31.7180   16.7899   21.4104 C   0  0  0  0  0  0  0  0  0  0  0  0
   32.6300   17.8388   21.9842 N   0  0  0  0  0  0  0  0  0  0  0  0
   28.2203   15.6708   16.9793 O   0  0  0  0  0  0  0  0  0  0  0  0
  2  1  1  1  0  0  0
  2  3  1  0  0  0  0
  2  5  1  0  0  0  0
  3  4  1  0  0  0  0
  3 10  1  0  0  0  0
  5  6  1  0  0  0  0
  6  7  1  0  0  0  0
  7  8  1  0  0  0  0
  8  9  1  0  0  0  0
M  END
>  <CHROM.1>
6.67094769,55.77756736,-176.21590860,-179.09550386,179.25652242,29.07579606
15.97424110,19.62340462,2.43832308,-0.41458203,-1.77253850

>  <Name>
ligand

>  <RI>
0

>  <Rbt.Current_Directory>
/home/itssahil/PROJECTS/Mol_Feturizer/New_Systems/rnas/3DIL

>  <Rbt.Executable>
rbdock ($Id: //depot/dev/client3/rdock/2013.1/src/exe/rbdock.cxx#4 $)

>  <Rbt.Library>
libRbt.so (2013.1, Build901 2013/11/27)

>  <Rbt.Parameter_File>
/export/apps/rDock/src/rDock_2013.1_src/data/scripts/dock_solv.prm

>  <Rbt.Receptor>
prm/blind_docking_60.prm

>  <SCORE>
-8.91595

>  <SCORE.INTER>
-8.23541

>  <SCORE.INTER.CONST>
1

>  <SCORE.INTER.POLAR>
0

>  <SCORE.INTER.ROT>
5

>  <SCORE.INTER.SOLV>
14.5813

>  <SCORE.INTER.VDW>
-17.284

>  <SCORE.INTER.norm>
-0.823541

>  <SCORE.INTRA>
-0.680541

>  <SCORE.INTRA.DIHEDRAL>
-1.29714

>  <SCORE.INTRA.DIHEDRAL.0>
2.93688

>  <SCORE.INTRA.POLAR>
0

>  <SCORE.INTRA.POLAR.0>
0

>  <SCORE.INTRA.REPUL>
0

>  <SCORE.INTRA.REPUL.0>
0

>  <SCORE.INTRA.SOLV>
-0.511052

>  <SCORE.INTRA.SOLV.lig_0>
-32.2816

>  <SCORE.INTRA.VDW>
0.223557

>  <SCORE.INTRA.VDW.0>
-0.749945

>  <SCORE.INTRA.norm>
-0.0680541

>  <SCORE.RESTR>
0

>  <SCORE.RESTR.CAVITY>
0

>  <SCORE.RESTR.norm>
0

>  <SCORE.SYSTEM>
0

>  <SCORE.SYSTEM.CONST>
0

>  <SCORE.SYSTEM.DIHEDRAL>
0

>  <SCORE.SYSTEM.SOLV>
0

>  <SCORE.SYSTEM.norm>
0

>  <SCORE.heavy>
10

>  <SCORE.norm>
-0.891595

>  <RMSD>
5.557

$$$$
ligand
 OpenBabel11021811473D
libRbt.so/2013.1/901 2013/11/27
 10  9  0  0  0  0  0  0  0  0999 V2000
   27.0406   14.7084   18.2932 N   0  0  0  0  0  0  0  0  0  0  0  0
   27.7345   14.8284   19.6103 C   0  0  2  0  0  0  0  0  0  0  0  0
   26.7357   15.0317   20.7492 C   0  0  0  0  0  0  0  0  0  0  0  0
   25.5255   15.0705   20.5342 O   0  0  0  0  0  0  0  0  0  0  0  0
   28.7889   15.9409   19.5739 C   0  0  0  0  0  0  0  0  0  0  0  0
   29.7090   15.9310   20.7942 C   0  0  0  0  0  0  0  0  0  0  0  0
   30.7687   17.0228   20.7350 C   0  0  0  0  0  0  0  0  0  0  0  0
   31.7412   16.9111   21.9050 C   0  0  0  0  0  0  0  0  0  0  0  0
   32.7642   18.0128   21.9334 N   0  0  0  0  0  0  0  0  0  0  0  0
   27.0904   15.1384   21.9269 O   0  0  0  0  0  0  0  0  0  0  0  0
  2  1  1  6  0  0  0
  2  3  1  0  0  0  0
  2  5  1  0  0  0  0
  3  4  1  0  0  0  0
  3 10  1  0  0  0  0
  5  6  1  0  0  0  0
  6  7  1  0  0  0  0
  7  8  1  0  0  0  0
  8  9  1  0  0  0  0
M  END
>  <CHROM.1>
0.53852973,-168.91744136,178.90396590,-175.15804169,-176.88254389,28.75704873
15.85753087,20.62820670,-2.82662929,0.38148697,1.41165350

>  <Name>
ligand

>  <RI>
0

>  <Rbt.Current_Directory>
/home/itssahil/PROJECTS/Mol_Feturizer/New_Systems/rnas/3DIL

>  <Rbt.Executable>
rbdock ($Id: //depot/dev/client3/rdock/2013.1/src/exe/rbdock.cxx#4 $)

>  <Rbt.Library>
libRbt.so (2013.1, Build901 2013/11/27)

>  <Rbt.Parameter_File>
/export/apps/rDock/src/rDock_2013.1_src/data/scripts/dock_solv.prm

>  <Rbt.Receptor>
prm/pocket_docking_2.prm

>  <SCORE>
-9.33014

>  <SCORE.INTER>
-8.40278

>  <SCORE.INTER.CONST>
1

>  <SCORE.INTER.POLAR>
0

>  <SCORE.INTER.ROT>
5

>  <SCORE.INTER.SOLV>
15.7653

>  <SCORE.INTER.VDW>
-17.7903

>  <SCORE.INTER.norm>
-0.840278

>  <SCORE.INTRA>
-0.927358

>  <SCORE.INTRA.DIHEDRAL>
-0.840738

>  <SCORE.INTRA.DIHEDRAL.0>
2.93688

>  <SCORE.INTRA.POLAR>
0

>  <SCORE.INTRA.POLAR.0>
0

>  <SCORE.INTRA.REPUL>
0

>  <SCORE.INTRA.REPUL.0>
0

>  <SCORE.INTRA.SOLV>
-1.47946

>  <SCORE.INTRA.SOLV.lig_0>
-32.2816

>  <SCORE.INTRA.VDW>
0.232743

>  <SCORE.INTRA.VDW.0>
-0.749945

>  <SCORE.INTRA.norm>
-0.0927358

>  <SCORE.RESTR>
0

>  <SCORE.RESTR.CAVITY>
0

>  <SCORE.RESTR.norm>
0

>  <SCORE.SYSTEM>
0

>  <SCORE.SYSTEM.CONST>
0

>  <SCORE.SYSTEM.DIHEDRAL>
0

>  <SCORE.SYSTEM.SOLV>
0

>  <SCORE.SYSTEM.norm>
0

>  <SCORE.heavy>
10

>  <SCORE.norm>
-0.933014

>  <RMSD>
5.557

$$$$
ligand
 OpenBabel11021811473D
libRbt.so/2013.1/901 2013/11/27
 10  9  0  0  0  0  0  0  0  0999 V2000
   25.9267   15.0033   20.4389 N   0  0  0  0  0  0  0  0  0  0  0  0
   26.8703   15.7625   19.5649 C   0  0  2  0  0  0  0  0  0  0  0  0
   27.2742   14.9442   18.3388 C   0  0  0  0  0  0  0  0  0  0  0  0
   27.9549   15.4376   17.4413 O   0  0  0  0  0  0  0  0  0  0  0  0
   28.0928   16.2352   20.3604 C   0  0  0  0  0  0  0  0  0  0  0  0
   28.8665   15.0853   21.0046 C   0  0  0  0  0  0  0  0  0  0  0  0
   30.1709   15.5443   21.6418 C   0  0  0  0  0  0  0  0  0  0  0  0
   31.1659   16.0131   20.5847 C   0  0  0  0  0  0  0  0  0  0  0  0
   32.4353   16.5679   21.1694 N   0  0  0  0  0  0  0  0  0  0  0  0
   26.9629   13.7570   18.2059 O   0  0  0  0  0  0  0  0  0  0  0  0
  2  1  1  1  0  0  0
  2  3  1  0  0  0  0
  2  5  1  0  0  0  0
  3  4  1  0  0  0  0
  3 10  1  0  0  0  0
  5  6  1  0  0  0  0
  6  7  1  0  0  0  0
  7  8  1  0  0  0  0
  8  9  1  0  0  0  0
M  END
>  <CHROM.1>
173.73183850,58.56116584,172.75389164,-67.34699615,175.93310229,28.57145053
15.41621381,19.84161686,2.62519980,-0.20673979,-1.71518345

>  <Name>
ligand

>  <RI>
0

>  <Rbt.Current_Directory>
/home/itssahil/PROJECTS/Mol_Feturizer/New_Systems/rnas/3DIL

>  <Rbt.Executable>
rbdock ($Id: //depot/dev/client3/rdock/2013.1/src/exe/rbdock.cxx#4 $)

>  <Rbt.Library>
libRbt.so (2013.1, Build901 2013/11/27)

>  <Rbt.Parameter_File>
/export/apps/rDock/src/rDock_2013.1_src/data/scripts/dock_solv.prm

>  <Rbt.Receptor>
prm/pocket_docking_4.prm

>  <SCORE>
-8.92191

>  <SCORE.INTER>
-8.88041

>  <SCORE.INTER.CONST>
1

>  <SCORE.INTER.POLAR>
0

>  <SCORE.INTER.ROT>
5

>  <SCORE.INTER.SOLV>
17.4457

>  <SCORE.INTER.VDW>
-18.6689

>  <SCORE.INTER.norm>
-0.888041

>  <SCORE.INTRA>
-0.0414945

>  <SCORE.INTRA.DIHEDRAL>
-0.934337

>  <SCORE.INTRA.DIHEDRAL.0>
2.93688

>  <SCORE.INTRA.POLAR>
0

>  <SCORE.INTRA.POLAR.0>
0

>  <SCORE.INTRA.REPUL>
0

>  <SCORE.INTRA.REPUL.0>
0

>  <SCORE.INTRA.SOLV>
-0.365656

>  <SCORE.INTRA.SOLV.lig_0>
-32.2816

>  <SCORE.INTRA.VDW>
0.608502

>  <SCORE.INTRA.VDW.0>
-0.749945

>  <SCORE.INTRA.norm>
-0.00414945

>  <SCORE.RESTR>
0

>  <SCORE.RESTR.CAVITY>
0

>  <SCORE.RESTR.norm>
0

>  <SCORE.SYSTEM>
0

>  <SCORE.SYSTEM.CONST>
0

>  <SCORE.SYSTEM.DIHEDRAL>
0

>  <SCORE.SYSTEM.SOLV>
0

>  <SCORE.SYSTEM.norm>
0

>  <SCORE.heavy>
10

>  <SCORE.norm>
-0.892191

>  <RMSD>
5.559

$$$$
ligand
 OpenBabel11021811473D
libRbt.so/2013.1/901 2013/11/27
 10  9  0  0  0  0  0  0  0  0999 V2000
   28.6564   14.8580   19.0214 N   0  0  0  0  0  0  0  0  0  0  0  0
   28.1436   15.1819   20.3862 C   0  0  2  0  0  0  0  0  0  0  0  0
   26.6156   15.1904   20.4192 C   0  0  0  0  0  0  0  0  0  0  0  0
   25.9982   14.7548   21.3895 O   0  0  0  0  0  0  0  0  0  0  0  0
   28.7302   16.5054   20.8913 C   0  0  0  0  0  0  0  0  0  0  0  0
   30.2549   16.4818   20.9932 C   0  0  0  0  0  0  0  0  0  0  0  0
   30.8276   17.8047   21.4833 C   0  0  0  0  0  0  0  0  0  0  0  0
   32.3527   17.7908   21.4518 C   0  0  0  0  0  0  0  0  0  0  0  0
   32.9569   16.8009   22.4090 N   0  0  0  0  0  0  0  0  0  0  0  0
   25.9381   15.6536   19.4970 O   0  0  0  0  0  0  0  0  0  0  0  0
  2  1  1  6  0  0  0
  2  3  1  0  0  0  0
  2  5  1  0  0  0  0
  3  4  1  0  0  0  0
  3 10  1  0  0  0  0
  5  6  1  0  0  0  0
  6  7  1  0  0  0  0
  7  8  1  0  0  0  0
  8  9  1  0  0  0  0
M  END
>  <CHROM.1>
142.00507707,-60.43701147,179.47126561,-174.79019224,-65.26493882,29.00203473
16.09679808,20.79266363,-2.79485271,0.28024164,1.26388252

>  <Name>
ligand

>  <RI>
0

>  <Rbt.Current_Directory>
/home/itssahil/PROJECTS/Mol_Feturizer/New_Systems/rnas/3DIL

>  <Rbt.Executable>
rbdock ($Id: //depot/dev/client3/rdock/2013.1/src/exe/rbdock.cxx#4 $)

>  <Rbt.Library>
libRbt.so (2013.1, Build901 2013/11/27)

>  <Rbt.Parameter_File>
/export/apps/rDock/src/rDock_2013.1_src/data/scripts/dock_solv.prm

>  <Rbt.Receptor>
prm/pocket_docking_4.prm

>  <SCORE>
-7.72756

>  <SCORE.INTER>
-7.19398

>  <SCORE.INTER.CONST>
1

>  <SCORE.INTER.POLAR>
0

>  <SCORE.INTER.ROT>
5

>  <SCORE.INTER.SOLV>
15.2872

>  <SCORE.INTER.VDW>
-16.8251

>  <SCORE.INTER.norm>
-0.719398

>  <SCORE.INTRA>
-0.533582

>  <SCORE.INTRA.DIHEDRAL>
-1.25537

>  <SCORE.INTRA.DIHEDRAL.0>
2.93688

>  <SCORE.INTRA.POLAR>
0

>  <SCORE.INTRA.POLAR.0>
0

>  <SCORE.INTRA.REPUL>
0

>  <SCORE.INTRA.REPUL.0>
0

>  <SCORE.INTRA.SOLV>
0.242696

>  <SCORE.INTRA.SOLV.lig_0>
-32.2816

>  <SCORE.INTRA.VDW>
-0.0272466

>  <SCORE.INTRA.VDW.0>
-0.749945

>  <SCORE.INTRA.norm>
-0.0533582

>  <SCORE.RESTR>
0

>  <SCORE.RESTR.CAVITY>
0

>  <SCORE.RESTR.norm>
0

>  <SCORE.SYSTEM>
0

>  <SCORE.SYSTEM.CONST>
0

>  <SCORE.SYSTEM.DIHEDRAL>
0

>  <SCORE.SYSTEM.SOLV>
0

>  <SCORE.SYSTEM.norm>
0

>  <SCORE.heavy>
10

>  <SCORE.norm>
-0.772756

>  <RMSD>
5.563

$$$$
ligand
 OpenBabel11021811473D
libRbt.so/2013.1/901 2013/11/27
 10  9  0  0  0  0  0  0  0  0999 V2000
   25.7974   15.3198   20.2757 N   0  0  0  0  0  0  0  0  0  0  0  0
   27.1176   15.6451   19.6578 C   0  0  2  0  0  0  0  0  0  0  0  0
   27.3030   14.9189   18.3258 C   0  0  0  0  0  0  0  0  0  0  0  0
   27.8969   15.4504   17.3892 O   0  0  0  0  0  0  0  0  0  0  0  0
   28.2649   15.3490   20.6309 C   0  0  0  0  0  0  0  0  0  0  0  0
   29.6345   15.7361   20.0739 C   0  0  0  0  0  0  0  0  0  0  0  0
   30.7770   15.3101   20.9858 C   0  0  0  0  0  0  0  0  0  0  0  0
   30.8417   16.1848   22.2339 C   0  0  0  0  0  0  0  0  0  0  0  0
   31.2408   17.6050   21.9431 N   0  0  0  0  0  0  0  0  0  0  0  0
   26.8942   13.7692   18.1385 O   0  0  0  0  0  0  0  0  0  0  0  0
  2  1  1  1  0  0  0
  2  3  1  0  0  0  0
  2  5  1  0  0  0  0
  3  4  1  0  0  0  0
  3 10  1  0  0  0  0
  5  6  1  0  0  0  0
  6  7  1  0  0  0  0
  7  8  1  0  0  0  0
  8  9  1  0  0  0  0
M  END
>  <CHROM.1>
144.34902048,-176.89716527,-174.18964295,-72.87959120,-67.81301895,28.57238771
15.51077237,19.92919519,2.41638794,-0.17177896,-1.86985130

>  <Name>
ligand

>  <RI>
0

>  <Rbt.Current_Directory>
/home/itssahil/PROJECTS/Mol_Feturizer/New_Systems/rnas/3DIL

>  <Rbt.Executable>
rbdock ($Id: //depot/dev/client3/rdock/2013.1/src/exe/rbdock.cxx#4 $)

>  <Rbt.Library>
libRbt.so (2013.1, Build901 2013/11/27)

>  <Rbt.Parameter_File>
/export/apps/rDock/src/rDock_2013.1_src/data/scripts/dock_solv.prm

>  <Rbt.Receptor>
prm/pocket_docking_4.prm

>  <SCORE>
-7.86415

>  <SCORE.INTER>
-7.94946

>  <SCORE.INTER.CONST>
1

>  <SCORE.INTER.POLAR>
0

>  <SCORE.INTER.ROT>
5

>  <SCORE.INTER.SOLV>
16.8772

>  <SCORE.INTER.VDW>
-17.8587

>  <SCORE.INTER.norm>
-0.794946

>  <SCORE.INTRA>
0.0853122

>  <SCORE.INTRA.DIHEDRAL>
-0.409996

>  <SCORE.INTRA.DIHEDRAL.0>
2.93688

>  <SCORE.INTRA.POLAR>
0

>  <SCORE.INTRA.POLAR.0>
0

>  <SCORE.INTRA.REPUL>
0

>  <SCORE.INTRA.REPUL.0>
0

>  <SCORE.INTRA.SOLV>
-0.255218

>  <SCORE.INTRA.SOLV.lig_0>
-32.2816

>  <SCORE.INTRA.VDW>
0.417919

>  <SCORE.INTRA.VDW.0>
-0.749945

>  <SCORE.INTRA.norm>
0.00853122

>  <SCORE.RESTR>
0

>  <SCORE.RESTR.CAVITY>
0

>  <SCORE.RESTR.norm>
0

>  <SCORE.SYSTEM>
0

>  <SCORE.SYSTEM.CONST>
0

>  <SCORE.SYSTEM.DIHEDRAL>
0

>  <SCORE.SYSTEM.SOLV>
0

>  <SCORE.SYSTEM.norm>
0

>  <SCORE.heavy>
10

>  <SCORE.norm>
-0.786415

>  <RMSD>
5.564

$$$$
ligand
 OpenBabel11021811473D
libRbt.so/2013.1/901 2013/11/27
 10  9  0  0  0  0  0  0  0  0999 V2000
   27.0841   14.5378   18.3210 N   0  0  0  0  0  0  0  0  0  0  0  0
   27.7077   14.7839   19.6556 C   0  0  2  0  0  0  0  0  0  0  0  0
   26.6590   15.1737   20.6968 C   0  0  0  0  0  0  0  0  0  0  0  0
   25.4647   15.2248   20.4080 O   0  0  0  0  0  0  0  0  0  0  0  0
   28.8235   15.8306   19.5534 C   0  0  0  0  0  0  0  0  0  0  0  0
   29.6840   15.9102   20.8140 C   0  0  0  0  0  0  0  0  0  0  0  0
   30.7729   16.9695   20.7113 C   0  0  0  0  0  0  0  0  0  0  0  0
   31.6472   16.9844   21.9614 C   0  0  0  0  0  0  0  0  0  0  0  0
   32.6895   18.0680   21.9434 N   0  0  0  0  0  0  0  0  0  0  0  0
   26.9545   15.4263   21.8685 O   0  0  0  0  0  0  0  0  0  0  0  0
  2  1  1  6  0  0  0
  2  3  1  0  0  0  0
  2  5  1  0  0  0  0
  3  4  1  0  0  0  0
  3 10  1  0  0  0  0
  5  6  1  0  0  0  0
  6  7  1  0  0  0  0
  7  8  1  0  0  0  0
  8  9  1  0  0  0  0
M  END
>  <CHROM.1>
1.68642900,-168.05047772,-178.98140388,-177.71849910,-176.66447009,28.71469362
15.89314551,20.61391514,-2.76253308,0.32305290,1.26126636

>  <Name>
ligand

>  <RI>
0

>  <Rbt.Current_Directory>
/home/itssahil/PROJECTS/Mol_Feturizer/New_Systems/rnas/3DIL

>  <Rbt.Executable>
rbdock ($Id: //depot/dev/client3/rdock/2013.1/src/exe/rbdock.cxx#4 $)

>  <Rbt.Library>
libRbt.so (2013.1, Build901 2013/11/27)

>  <Rbt.Parameter_File>
/export/apps/rDock/src/rDock_2013.1_src/data/scripts/dock_solv.prm

>  <Rbt.Receptor>
prm/pocket_docking_7.prm

>  <SCORE>
-9.33249

>  <SCORE.INTER>
-8.3927

>  <SCORE.INTER.CONST>
1

>  <SCORE.INTER.POLAR>
0

>  <SCORE.INTER.ROT>
5

>  <SCORE.INTER.SOLV>
15.4181

>  <SCORE.INTER.VDW>
-17.6678

>  <SCORE.INTER.norm>
-0.83927

>  <SCORE.INTRA>
-0.939788

>  <SCORE.INTRA.DIHEDRAL>
-0.843202

>  <SCORE.INTRA.DIHEDRAL.0>
2.93688

>  <SCORE.INTRA.POLAR>
0

>  <SCORE.INTRA.POLAR.0>
0

>  <SCORE.INTRA.REPUL>
0

>  <SCORE.INTRA.REPUL.0>
0

>  <SCORE.INTRA.SOLV>
-1.4783

>  <SCORE.INTRA.SOLV.lig_0>
-32.2816

>  <SCORE.INTRA.VDW>
0.220965

>  <SCORE.INTRA.VDW.0>
-0.749945

>  <SCORE.INTRA.norm>
-0.0939788

>  <SCORE.RESTR>
0

>  <SCORE.RESTR.CAVITY>
0

>  <SCORE.RESTR.norm>
0

>  <SCORE.SYSTEM>
0

>  <SCORE.SYSTEM.CONST>
0

>  <SCORE.SYSTEM.DIHEDRAL>
0

>  <SCORE.SYSTEM.SOLV>
0

>  <SCORE.SYSTEM.norm>
0

>  <SCORE.heavy>
10

>  <SCORE.norm>
-0.933249

>  <RMSD>
5.565

$$$$
ligand
 OpenBabel11021811473D
libRbt.so/2013.1/901 2013/11/27
 10  9  0  0  0  0  0  0  0  0999 V2000
   28.1198   16.7510   19.0448 N   0  0  0  0  0  0  0  0  0  0  0  0
   27.9820   15.6498   20.0443 C   0  0  2  0  0  0  0  0  0  0  0  0
   26.5151   15.3835   20.3805 C   0  0  0  0  0  0  0  0  0  0  0  0
   25.6135   15.7553   19.6313 O   0  0  0  0  0  0  0  0  0  0  0  0
   28.8085   15.9455   21.3015 C   0  0  0  0  0  0  0  0  0  0  0  0
   30.2786   16.2304   20.9957 C   0  0  0  0  0  0  0  0  0  0  0  0
   31.1171   16.3878   22.2568 C   0  0  0  0  0  0  0  0  0  0  0  0
   32.5337   16.8452   21.9234 C   0  0  0  0  0  0  0  0  0  0  0  0
   32.5919   18.2446   21.3762 N   0  0  0  0  0  0  0  0  0  0  0  0
   26.1716   14.7671   21.3935 O   0  0  0  0  0  0  0  0  0  0  0  0
  2  1  1  6  0  0  0
  2  3  1  0  0  0  0
  2  5  1  0  0  0  0
  3  4  1  0  0  0  0
  3 10  1  0  0  0  0
  5  6  1  0  0  0  0
  6  7  1  0  0  0  0
  7  8  1  0  0  0  0
  8  9  1  0  0  0  0
M  END
>  <CHROM.1>
19.54428540,-54.50604248,-174.38921282,-172.74861870,67.60148887,28.92885472
16.18501815,20.83809875,-3.08911389,0.37313986,2.13305583

>  <Name>
ligand

>  <RI>
0

>  <Rbt.Current_Directory>
/home/itssahil/PROJECTS/Mol_Feturizer/New_Systems/rnas/3DIL

>  <Rbt.Executable>
rbdock ($Id: //depot/dev/client3/rdock/2013.1/src/exe/rbdock.cxx#4 $)

>  <Rbt.Library>
libRbt.so (2013.1, Build901 2013/11/27)

>  <Rbt.Parameter_File>
/export/apps/rDock/src/rDock_2013.1_src/data/scripts/dock_solv.prm

>  <Rbt.Receptor>
prm/pocket_docking_5.prm

>  <SCORE>
-8.03998

>  <SCORE.INTER>
-8.2239

>  <SCORE.INTER.CONST>
1

>  <SCORE.INTER.POLAR>
0

>  <SCORE.INTER.ROT>
5

>  <SCORE.INTER.SOLV>
15.0845

>  <SCORE.INTER.VDW>
-17.4441

>  <SCORE.INTER.norm>
-0.82239

>  <SCORE.INTRA>
0.18392

>  <SCORE.INTRA.DIHEDRAL>
-0.802194

>  <SCORE.INTRA.DIHEDRAL.0>
2.93688

>  <SCORE.INTRA.POLAR>
0

>  <SCORE.INTRA.POLAR.0>
0

>  <SCORE.INTRA.REPUL>
0

>  <SCORE.INTRA.REPUL.0>
0

>  <SCORE.INTRA.SOLV>
0.343049

>  <SCORE.INTRA.SOLV.lig_0>
-32.2816

>  <SCORE.INTRA.VDW>
0.413492

>  <SCORE.INTRA.VDW.0>
-0.749945

>  <SCORE.INTRA.norm>
0.018392

>  <SCORE.RESTR>
0

>  <SCORE.RESTR.CAVITY>
0

>  <SCORE.RESTR.norm>
0

>  <SCORE.SYSTEM>
0

>  <SCORE.SYSTEM.CONST>
0

>  <SCORE.SYSTEM.DIHEDRAL>
0

>  <SCORE.SYSTEM.SOLV>
0

>  <SCORE.SYSTEM.norm>
0

>  <SCORE.heavy>
10

>  <SCORE.norm>
-0.803998

>  <RMSD>
5.566

$$$$
ligand
 OpenBabel11021811473D
libRbt.so/2013.1/901 2013/11/27
 10  9  0  0  0  0  0  0  0  0999 V2000
   27.0337   14.6360   18.3096 N   0  0  0  0  0  0  0  0  0  0  0  0
   27.6874   14.8252   19.6391 C   0  0  2  0  0  0  0  0  0  0  0  0
   26.6608   15.1545   20.7224 C   0  0  0  0  0  0  0  0  0  0  0  0
   25.4570   15.1767   20.4719 O   0  0  0  0  0  0  0  0  0  0  0  0
   28.7906   15.8870   19.5601 C   0  0  0  0  0  0  0  0  0  0  0  0
   29.6732   15.9242   20.8073 C   0  0  0  0  0  0  0  0  0  0  0  0
   30.7805   16.9645   20.7079 C   0  0  0  0  0  0  0  0  0  0  0  0
   31.6792   16.9327   21.9402 C   0  0  0  0  0  0  0  0  0  0  0  0
   32.7176   18.0202   21.9455 N   0  0  0  0  0  0  0  0  0  0  0  0
   26.9854   15.3844   21.8911 O   0  0  0  0  0  0  0  0  0  0  0  0
  2  1  1  6  0  0  0
  2  3  1  0  0  0  0
  2  5  1  0  0  0  0
  3  4  1  0  0  0  0
  3 10  1  0  0  0  0
  5  6  1  0  0  0  0
  6  7  1  0  0  0  0
  7  8  1  0  0  0  0
  8  9  1  0  0  0  0
M  END
>  <CHROM.1>
3.37371862,-168.55715245,178.96261681,-177.46043084,-175.04810623,28.71298007
15.89148812,20.62101231,-2.78823361,0.33540319,1.31548928

>  <Name>
ligand

>  <RI>
0

>  <Rbt.Current_Directory>
/home/itssahil/PROJECTS/Mol_Feturizer/New_Systems/rnas/3DIL

>  <Rbt.Executable>
rbdock ($Id: //depot/dev/client3/rdock/2013.1/src/exe/rbdock.cxx#4 $)

>  <Rbt.Library>
libRbt.so (2013.1, Build901 2013/11/27)

>  <Rbt.Parameter_File>
/export/apps/rDock/src/rDock_2013.1_src/data/scripts/dock_solv.prm

>  <Rbt.Receptor>
prm/pocket_docking_7.prm

>  <SCORE>
-9.33272

>  <SCORE.INTER>
-8.44556

>  <SCORE.INTER.CONST>
1

>  <SCORE.INTER.POLAR>
0

>  <SCORE.INTER.ROT>
5

>  <SCORE.INTER.SOLV>
15.5437

>  <SCORE.INTER.VDW>
-17.7449

>  <SCORE.INTER.norm>
-0.844556

>  <SCORE.INTRA>
-0.887161

>  <SCORE.INTRA.DIHEDRAL>
-0.83515

>  <SCORE.INTRA.DIHEDRAL.0>
2.93688

>  <SCORE.INTRA.POLAR>
0

>  <SCORE.INTRA.POLAR.0>
0

>  <SCORE.INTRA.REPUL>
0

>  <SCORE.INTRA.REPUL.0>
0

>  <SCORE.INTRA.SOLV>
-1.47849

>  <SCORE.INTRA.SOLV.lig_0>
-32.2816

>  <SCORE.INTRA.VDW>
0.269657

>  <SCORE.INTRA.VDW.0>
-0.749945

>  <SCORE.INTRA.norm>
-0.0887161

>  <SCORE.RESTR>
0

>  <SCORE.RESTR.CAVITY>
0

>  <SCORE.RESTR.norm>
0

>  <SCORE.SYSTEM>
0

>  <SCORE.SYSTEM.CONST>
0

>  <SCORE.SYSTEM.DIHEDRAL>
0

>  <SCORE.SYSTEM.SOLV>
0

>  <SCORE.SYSTEM.norm>
0

>  <SCORE.heavy>
10

>  <SCORE.norm>
-0.933272

>  <RMSD>
5.567

$$$$
ligand
 OpenBabel11021811473D
libRbt.so/2013.1/901 2013/11/27
 10  9  0  0  0  0  0  0  0  0999 V2000
   26.5142   14.7187   20.1295 N   0  0  0  0  0  0  0  0  0  0  0  0
   27.5428   15.4700   19.3496 C   0  0  2  0  0  0  0  0  0  0  0  0
   27.6019   14.9906   17.8996 C   0  0  0  0  0  0  0  0  0  0  0  0
   28.1945   15.6394   17.0392 O   0  0  0  0  0  0  0  0  0  0  0  0
   28.9137   15.3884   20.0314 C   0  0  0  0  0  0  0  0  0  0  0  0
   28.8877   15.8670   21.4826 C   0  0  0  0  0  0  0  0  0  0  0  0
   30.2828   16.0044   22.0769 C   0  0  0  0  0  0  0  0  0  0  0  0
   31.0417   17.1643   21.4399 C   0  0  0  0  0  0  0  0  0  0  0  0
   32.4228   17.3510   22.0044 N   0  0  0  0  0  0  0  0  0  0  0  0
   27.0872   13.9298   17.5337 O   0  0  0  0  0  0  0  0  0  0  0  0
  2  1  1  1  0  0  0
  2  3  1  0  0  0  0
  2  5  1  0  0  0  0
  3  4  1  0  0  0  0
  3 10  1  0  0  0  0
  5  6  1  0  0  0  0
  6  7  1  0  0  0  0
  7  8  1  0  0  0  0
  8  9  1  0  0  0  0
M  END
>  <CHROM.1>
166.22004440,-55.32587316,-170.37361088,69.22884830,179.38646438,28.84212924
15.63876526,19.85780178,2.41702220,-0.48156327,-1.58704509

>  <Name>
ligand

>  <RI>
0

>  <Rbt.Current_Directory>
/home/itssahil/PROJECTS/Mol_Feturizer/New_Systems/rnas/3DIL

>  <Rbt.Executable>
rbdock ($Id: //depot/dev/client3/rdock/2013.1/src/exe/rbdock.cxx#4 $)

>  <Rbt.Library>
libRbt.so (2013.1, Build901 2013/11/27)

>  <Rbt.Parameter_File>
/export/apps/rDock/src/rDock_2013.1_src/data/scripts/dock_solv.prm

>  <Rbt.Receptor>
prm/pocket_docking_6.prm

>  <SCORE>
-8.39383

>  <SCORE.INTER>
-8.47724

>  <SCORE.INTER.CONST>
1

>  <SCORE.INTER.POLAR>
0

>  <SCORE.INTER.ROT>
5

>  <SCORE.INTER.SOLV>
15.6576

>  <SCORE.INTER.VDW>
-17.804

>  <SCORE.INTER.norm>
-0.847724

>  <SCORE.INTRA>
0.0834118

>  <SCORE.INTRA.DIHEDRAL>
-0.660182

>  <SCORE.INTRA.DIHEDRAL.0>
2.93688

>  <SCORE.INTRA.POLAR>
0

>  <SCORE.INTRA.POLAR.0>
0

>  <SCORE.INTRA.REPUL>
0

>  <SCORE.INTRA.REPUL.0>
0

>  <SCORE.INTRA.SOLV>
-0.366181

>  <SCORE.INTRA.SOLV.lig_0>
-32.2816

>  <SCORE.INTRA.VDW>
0.596593

>  <SCORE.INTRA.VDW.0>
-0.749945

>  <SCORE.INTRA.norm>
0.00834118

>  <SCORE.RESTR>
0

>  <SCORE.RESTR.CAVITY>
0

>  <SCORE.RESTR.norm>
0

>  <SCORE.SYSTEM>
0

>  <SCORE.SYSTEM.CONST>
0

>  <SCORE.SYSTEM.DIHEDRAL>
0

>  <SCORE.SYSTEM.SOLV>
0

>  <SCORE.SYSTEM.norm>
0

>  <SCORE.heavy>
10

>  <SCORE.norm>
-0.839383

>  <RMSD>
5.568

$$$$
ligand
 OpenBabel11021811473D
libRbt.so/2013.1/901 2013/11/27
 10  9  0  0  0  0  0  0  0  0999 V2000
   26.5347   14.7352   20.1658 N   0  0  0  0  0  0  0  0  0  0  0  0
   27.5497   15.4955   19.3769 C   0  0  2  0  0  0  0  0  0  0  0  0
   27.6019   15.0152   17.9269 C   0  0  0  0  0  0  0  0  0  0  0  0
   27.0307   13.9834   17.5781 O   0  0  0  0  0  0  0  0  0  0  0  0
   28.9268   15.4279   20.0477 C   0  0  0  0  0  0  0  0  0  0  0  0
   28.9093   15.9145   21.4964 C   0  0  0  0  0  0  0  0  0  0  0  0
   30.3064   16.0282   22.0908 C   0  0  0  0  0  0  0  0  0  0  0  0
   31.0812   17.1817   21.4611 C   0  0  0  0  0  0  0  0  0  0  0  0
   32.4447   17.3793   22.0635 N   0  0  0  0  0  0  0  0  0  0  0  0
   28.1895   15.6461   17.0434 O   0  0  0  0  0  0  0  0  0  0  0  0
  2  1  1  1  0  0  0
  2  3  1  0  0  0  0
  2  5  1  0  0  0  0
  3  4  1  0  0  0  0
  3 10  1  0  0  0  0
  5  6  1  0  0  0  0
  6  7  1  0  0  0  0
  7  8  1  0  0  0  0
  8  9  1  0  0  0  0
M  END
>  <CHROM.1>
-11.49965754,-55.61988146,-171.97235602,69.97616051,177.12530377,28.84972718
15.66720359,19.88409271,2.42277117,-0.48048881,-1.58176684

>  <Name>
ligand

>  <RI>
0

>  <Rbt.Current_Directory>
/home/itssahil/PROJECTS/Mol_Feturizer/New_Systems/rnas/3DIL

>  <Rbt.Executable>
rbdock ($Id: //depot/dev/client3/rdock/2013.1/src/exe/rbdock.cxx#4 $)

>  <Rbt.Library>
libRbt.so (2013.1, Build901 2013/11/27)

>  <Rbt.Parameter_File>
/export/apps/rDock/src/rDock_2013.1_src/data/scripts/dock_solv.prm

>  <Rbt.Receptor>
prm/pocket_docking_7.prm

>  <SCORE>
-8.3494

>  <SCORE.INTER>
-8.45899

>  <SCORE.INTER.CONST>
1

>  <SCORE.INTER.POLAR>
0

>  <SCORE.INTER.ROT>
5

>  <SCORE.INTER.SOLV>
15.6945

>  <SCORE.INTER.VDW>
-17.8041

>  <SCORE.INTER.norm>
-0.845899

>  <SCORE.INTRA>
0.10959

>  <SCORE.INTRA.DIHEDRAL>
-0.623337

>  <SCORE.INTRA.DIHEDRAL.0>
2.93688

>  <SCORE.INTRA.POLAR>
0

>  <SCORE.INTRA.POLAR.0>
0

>  <SCORE.INTRA.REPUL>
0

>  <SCORE.INTRA.REPUL.0>
0

>  <SCORE.INTRA.SOLV>
-0.371602

>  <SCORE.INTRA.SOLV.lig_0>
-32.2816

>  <SCORE.INTRA.VDW>
0.60706

>  <SCORE.INTRA.VDW.0>
-0.749945

>  <SCORE.INTRA.norm>
0.010959

>  <SCORE.RESTR>
0

>  <SCORE.RESTR.CAVITY>
0

>  <SCORE.RESTR.norm>
0

>  <SCORE.SYSTEM>
0

>  <SCORE.SYSTEM.CONST>
0

>  <SCORE.SYSTEM.DIHEDRAL>
0

>  <SCORE.SYSTEM.SOLV>
0

>  <SCORE.SYSTEM.norm>
0

>  <SCORE.heavy>
10

>  <SCORE.norm>
-0.83494

>  <RMSD>
5.569

$$$$
ligand
 OpenBabel11021811473D
libRbt.so/2013.1/901 2013/11/27
 10  9  0  0  0  0  0  0  0  0999 V2000
   26.4908   14.7155   20.1355 N   0  0  0  0  0  0  0  0  0  0  0  0
   27.5282   15.4583   19.3591 C   0  0  2  0  0  0  0  0  0  0  0  0
   27.5951   14.9717   17.9118 C   0  0  0  0  0  0  0  0  0  0  0  0
   27.0509   13.9240   17.5676 O   0  0  0  0  0  0  0  0  0  0  0  0
   28.8940   15.3738   20.0507 C   0  0  0  0  0  0  0  0  0  0  0  0
   28.8683   15.8939   21.4876 C   0  0  0  0  0  0  0  0  0  0  0  0
   30.2618   16.0169   22.0887 C   0  0  0  0  0  0  0  0  0  0  0  0
   31.0419   17.1580   21.4433 C   0  0  0  0  0  0  0  0  0  0  0  0
   32.4143   17.3441   22.0288 N   0  0  0  0  0  0  0  0  0  0  0  0
   28.1682   15.6126   17.0260 O   0  0  0  0  0  0  0  0  0  0  0  0
  2  1  1  1  0  0  0
  2  3  1  0  0  0  0
  2  5  1  0  0  0  0
  3  4  1  0  0  0  0
  3 10  1  0  0  0  0
  5  6  1  0  0  0  0
  6  7  1  0  0  0  0
  7  8  1  0  0  0  0
  8  9  1  0  0  0  0
M  END
>  <CHROM.1>
-13.88767922,-56.84625375,-170.73529980,70.30089249,178.48437103,28.82399017
15.63319473,19.86899897,2.41585893,-0.47773745,-1.59332101

>  <Name>
ligand

>  <RI>
0

>  <Rbt.Current_Directory>
/home/itssahil/PROJECTS/Mol_Feturizer/New_Systems/rnas/3DIL

>  <Rbt.Executable>
rbdock ($Id: //depot/dev/client3/rdock/2013.1/src/exe/rbdock.cxx#4 $)

>  <Rbt.Library>
libRbt.so (2013.1, Build901 2013/11/27)

>  <Rbt.Parameter_File>
/export/apps/rDock/src/rDock_2013.1_src/data/scripts/dock_solv.prm

>  <Rbt.Receptor>
prm/pocket_docking_5.prm

>  <SCORE>
-8.42295

>  <SCORE.INTER>
-8.49489

>  <SCORE.INTER.CONST>
1

>  <SCORE.INTER.POLAR>
0

>  <SCORE.INTER.ROT>
5

>  <SCORE.INTER.SOLV>
15.7579

>  <SCORE.INTER.VDW>
-17.8492

>  <SCORE.INTER.norm>
-0.849489

>  <SCORE.INTRA>
0.0719442

>  <SCORE.INTRA.DIHEDRAL>
-0.561085

>  <SCORE.INTRA.DIHEDRAL.0>
2.93688

>  <SCORE.INTRA.POLAR>
0

>  <SCORE.INTRA.POLAR.0>
0

>  <SCORE.INTRA.REPUL>
0

>  <SCORE.INTRA.REPUL.0>
0

>  <SCORE.INTRA.SOLV>
-0.386647

>  <SCORE.INTRA.SOLV.lig_0>
-32.2816

>  <SCORE.INTRA.VDW>
0.54581

>  <SCORE.INTRA.VDW.0>
-0.749945

>  <SCORE.INTRA.norm>
0.00719442

>  <SCORE.RESTR>
0

>  <SCORE.RESTR.CAVITY>
0

>  <SCORE.RESTR.norm>
0

>  <SCORE.SYSTEM>
0

>  <SCORE.SYSTEM.CONST>
0

>  <SCORE.SYSTEM.DIHEDRAL>
0

>  <SCORE.SYSTEM.SOLV>
0

>  <SCORE.SYSTEM.norm>
0

>  <SCORE.heavy>
10

>  <SCORE.norm>
-0.842295

>  <RMSD>
5.578

$$$$
ligand
 OpenBabel11021811473D
libRbt.so/2013.1/901 2013/11/27
 10  9  0  0  0  0  0  0  0  0999 V2000
   26.4849   14.7385   20.1270 N   0  0  0  0  0  0  0  0  0  0  0  0
   27.5344   15.4652   19.3516 C   0  0  2  0  0  0  0  0  0  0  0  0
   27.6002   14.9723   17.9064 C   0  0  0  0  0  0  0  0  0  0  0  0
   27.0592   13.9210   17.5680 O   0  0  0  0  0  0  0  0  0  0  0  0
   28.8966   15.3660   20.0483 C   0  0  0  0  0  0  0  0  0  0  0  0
   28.8731   15.8945   21.4822 C   0  0  0  0  0  0  0  0  0  0  0  0
   30.2669   16.0118   22.0838 C   0  0  0  0  0  0  0  0  0  0  0  0
   31.0526   17.1483   21.4372 C   0  0  0  0  0  0  0  0  0  0  0  0
   32.4236   17.3323   22.0268 N   0  0  0  0  0  0  0  0  0  0  0  0
   28.1692   15.6112   17.0164 O   0  0  0  0  0  0  0  0  0  0  0  0
  2  1  1  1  0  0  0
  2  3  1  0  0  0  0
  2  5  1  0  0  0  0
  3  4  1  0  0  0  0
  3 10  1  0  0  0  0
  5  6  1  0  0  0  0
  6  7  1  0  0  0  0
  7  8  1  0  0  0  0
  8  9  1  0  0  0  0
M  END
>  <CHROM.1>
-14.87926800,-56.95741197,-170.30676281,70.56547062,178.25946447,28.82868098
15.63231129,19.86390289,2.41390109,-0.47205749,-1.59669176

>  <Name>
ligand

>  <RI>
0

>  <Rbt.Current_Directory>
/home/itssahil/PROJECTS/Mol_Feturizer/New_Systems/rnas/3DIL

>  <Rbt.Executable>
rbdock ($Id: //depot/dev/client3/rdock/2013.1/src/exe/rbdock.cxx#4 $)

>  <Rbt.Library>
libRbt.so (2013.1, Build901 2013/11/27)

>  <Rbt.Parameter_File>
/export/apps/rDock/src/rDock_2013.1_src/data/scripts/dock_solv.prm

>  <Rbt.Receptor>
prm/pocket_docking_6.prm

>  <SCORE>
-8.42272

>  <SCORE.INTER>
-8.50429

>  <SCORE.INTER.CONST>
1

>  <SCORE.INTER.POLAR>
0

>  <SCORE.INTER.ROT>
5

>  <SCORE.INTER.SOLV>
15.7714

>  <SCORE.INTER.VDW>
-17.86

>  <SCORE.INTER.norm>
-0.850429

>  <SCORE.INTRA>
0.0815718

>  <SCORE.INTRA.DIHEDRAL>
-0.504138

>  <SCORE.INTRA.DIHEDRAL.0>
2.93688

>  <SCORE.INTRA.POLAR>
0

>  <SCORE.INTRA.POLAR.0>
0

>  <SCORE.INTRA.REPUL>
0

>  <SCORE.INTRA.REPUL.0>
0

>  <SCORE.INTRA.SOLV>
-0.392285

>  <SCORE.INTRA.SOLV.lig_0>
-32.2816

>  <SCORE.INTRA.VDW>
0.529783

>  <SCORE.INTRA.VDW.0>
-0.749945

>  <SCORE.INTRA.norm>
0.00815718

>  <SCORE.RESTR>
0

>  <SCORE.RESTR.CAVITY>
0

>  <SCORE.RESTR.norm>
0

>  <SCORE.SYSTEM>
0

>  <SCORE.SYSTEM.CONST>
0

>  <SCORE.SYSTEM.DIHEDRAL>
0

>  <SCORE.SYSTEM.SOLV>
0

>  <SCORE.SYSTEM.norm>
0

>  <SCORE.heavy>
10

>  <SCORE.norm>
-0.842272

>  <RMSD>
5.578

$$$$
ligand
 OpenBabel11021811473D
libRbt.so/2013.1/901 2013/11/27
 10  9  0  0  0  0  0  0  0  0999 V2000
   28.6764   14.3345   21.8944 N   0  0  0  0  0  0  0  0  0  0  0  0
   28.2226   15.6622   21.3824 C   0  0  2  0  0  0  0  0  0  0  0  0
   26.8676   15.5558   20.6834 C   0  0  0  0  0  0  0  0  0  0  0  0
   25.9776   14.8332   21.1286 O   0  0  0  0  0  0  0  0  0  0  0  0
   29.2844   16.2891   20.4711 C   0  0  0  0  0  0  0  0  0  0  0  0
   30.6272   16.4930   21.1721 C   0  0  0  0  0  0  0  0  0  0  0  0
   31.7075   17.0012   20.2272 C   0  0  0  0  0  0  0  0  0  0  0  0
   33.0317   17.1980   20.9587 C   0  0  0  0  0  0  0  0  0  0  0  0
   32.9419   18.1794   22.0944 N   0  0  0  0  0  0  0  0  0  0  0  0
   26.5967   16.2024   19.6673 O   0  0  0  0  0  0  0  0  0  0  0  0
  2  1  1  6  0  0  0
  2  3  1  0  0  0  0
  2  5  1  0  0  0  0
  3  4  1  0  0  0  0
  3 10  1  0  0  0  0
  5  6  1  0  0  0  0
  6  7  1  0  0  0  0
  7  8  1  0  0  0  0
  8  9  1  0  0  0  0
M  END
>  <CHROM.1>
39.53394093,-58.85389899,174.96269910,179.81101472,-59.42291005,29.35056272
16.16900189,20.95284891,-2.96711566,-0.31514273,-0.83048095

>  <Name>
ligand

>  <RI>
0

>  <Rbt.Current_Directory>
/home/itssahil/PROJECTS/Mol_Feturizer/New_Systems/rnas/3DIL

>  <Rbt.Executable>
rbdock ($Id: //depot/dev/client3/rdock/2013.1/src/exe/rbdock.cxx#4 $)

>  <Rbt.Library>
libRbt.so (2013.1, Build901 2013/11/27)

>  <Rbt.Parameter_File>
/export/apps/rDock/src/rDock_2013.1_src/data/scripts/dock_solv.prm

>  <Rbt.Receptor>
prm/pocket_docking_6.prm

>  <SCORE>
-7.6706

>  <SCORE.INTER>
-7.79704

>  <SCORE.INTER.CONST>
1

>  <SCORE.INTER.POLAR>
0

>  <SCORE.INTER.ROT>
5

>  <SCORE.INTER.SOLV>
17.0155

>  <SCORE.INTER.VDW>
-17.8032

>  <SCORE.INTER.norm>
-0.779704

>  <SCORE.INTRA>
0.126433

>  <SCORE.INTRA.DIHEDRAL>
-1.36793

>  <SCORE.INTRA.DIHEDRAL.0>
2.93688

>  <SCORE.INTRA.POLAR>
0

>  <SCORE.INTRA.POLAR.0>
0

>  <SCORE.INTRA.REPUL>
0

>  <SCORE.INTRA.REPUL.0>
0

>  <SCORE.INTRA.SOLV>
0.400308

>  <SCORE.INTRA.SOLV.lig_0>
-32.2816

>  <SCORE.INTRA.VDW>
0.610243

>  <SCORE.INTRA.VDW.0>
-0.749945

>  <SCORE.INTRA.norm>
0.0126433

>  <SCORE.RESTR>
0

>  <SCORE.RESTR.CAVITY>
0

>  <SCORE.RESTR.norm>
0

>  <SCORE.SYSTEM>
0

>  <SCORE.SYSTEM.CONST>
0

>  <SCORE.SYSTEM.DIHEDRAL>
0

>  <SCORE.SYSTEM.SOLV>
0

>  <SCORE.SYSTEM.norm>
0

>  <SCORE.heavy>
10

>  <SCORE.norm>
-0.76706

>  <RMSD>
5.581

$$$$
ligand
 OpenBabel11021811473D
libRbt.so/2013.1/901 2013/11/27
 10  9  0  0  0  0  0  0  0  0999 V2000
   27.0284   14.7046   20.2894 N   0  0  0  0  0  0  0  0  0  0  0  0
   27.2629   15.6958   19.1971 C   0  0  2  0  0  0  0  0  0  0  0  0
   27.7733   15.0149   17.9276 C   0  0  0  0  0  0  0  0  0  0  0  0
   27.7318   13.7923   17.8013 O   0  0  0  0  0  0  0  0  0  0  0  0
   28.2072   16.8103   19.6631 C   0  0  0  0  0  0  0  0  0  0  0  0
   29.5144   16.2782   20.2497 C   0  0  0  0  0  0  0  0  0  0  0  0
   30.3834   17.3827   20.8354 C   0  0  0  0  0  0  0  0  0  0  0  0
   31.6877   16.8209   21.3927 C   0  0  0  0  0  0  0  0  0  0  0  0
   32.5773   17.8728   21.9951 N   0  0  0  0  0  0  0  0  0  0  0  0
   28.2207   15.6535   16.9704 O   0  0  0  0  0  0  0  0  0  0  0  0
  2  1  1  1  0  0  0
  2  3  1  0  0  0  0
  2  5  1  0  0  0  0
  3  4  1  0  0  0  0
  3 10  1  0  0  0  0
  5  6  1  0  0  0  0
  6  7  1  0  0  0  0
  7  8  1  0  0  0  0
  8  9  1  0  0  0  0
M  END
>  <CHROM.1>
12.50781375,53.07030762,-174.26640217,-179.14937304,-179.47628860,29.03953828
15.98303040,19.59641061,2.44761132,-0.44310859,-1.74569857

>  <Name>
ligand

>  <RI>
0

>  <Rbt.Current_Directory>
/home/itssahil/PROJECTS/Mol_Feturizer/New_Systems/rnas/3DIL

>  <Rbt.Executable>
rbdock ($Id: //depot/dev/client3/rdock/2013.1/src/exe/rbdock.cxx#4 $)

>  <Rbt.Library>
libRbt.so (2013.1, Build901 2013/11/27)

>  <Rbt.Parameter_File>
/export/apps/rDock/src/rDock_2013.1_src/data/scripts/dock_solv.prm

>  <Rbt.Receptor>
prm/pocket_docking_7.prm

>  <SCORE>
-8.95958

>  <SCORE.INTER>
-8.45896

>  <SCORE.INTER.CONST>
1

>  <SCORE.INTER.POLAR>
0

>  <SCORE.INTER.ROT>
5

>  <SCORE.INTER.SOLV>
14.3749

>  <SCORE.INTER.VDW>
-17.3643

>  <SCORE.INTER.norm>
-0.845896

>  <SCORE.INTRA>
-0.500614

>  <SCORE.INTRA.DIHEDRAL>
-1.11344

>  <SCORE.INTRA.DIHEDRAL.0>
2.93688

>  <SCORE.INTRA.POLAR>
0

>  <SCORE.INTRA.POLAR.0>
0

>  <SCORE.INTRA.REPUL>
0

>  <SCORE.INTRA.REPUL.0>
0

>  <SCORE.INTRA.SOLV>
-0.469124

>  <SCORE.INTRA.SOLV.lig_0>
-32.2816

>  <SCORE.INTRA.VDW>
0.290666

>  <SCORE.INTRA.VDW.0>
-0.749945

>  <SCORE.INTRA.norm>
-0.0500614

>  <SCORE.RESTR>
0

>  <SCORE.RESTR.CAVITY>
0

>  <SCORE.RESTR.norm>
0

>  <SCORE.SYSTEM>
0

>  <SCORE.SYSTEM.CONST>
0

>  <SCORE.SYSTEM.DIHEDRAL>
0

>  <SCORE.SYSTEM.SOLV>
0

>  <SCORE.SYSTEM.norm>
0

>  <SCORE.heavy>
10

>  <SCORE.norm>
-0.895958

>  <RMSD>
5.586

$$$$
ligand
 OpenBabel11021811473D
libRbt.so/2013.1/901 2013/11/27
 10  9  0  0  0  0  0  0  0  0999 V2000
   28.5791   14.3574   21.9103 N   0  0  0  0  0  0  0  0  0  0  0  0
   28.1761   15.6646   21.3108 C   0  0  2  0  0  0  0  0  0  0  0  0
   26.8268   15.5592   20.6008 C   0  0  0  0  0  0  0  0  0  0  0  0
   26.5981   16.1937   19.5725 O   0  0  0  0  0  0  0  0  0  0  0  0
   29.2691   16.1986   20.3773 C   0  0  0  0  0  0  0  0  0  0  0  0
   30.6107   16.3973   21.0819 C   0  0  0  0  0  0  0  0  0  0  0  0
   31.6945   16.9052   20.1408 C   0  0  0  0  0  0  0  0  0  0  0  0
   33.0036   17.1457   20.8863 C   0  0  0  0  0  0  0  0  0  0  0  0
   32.8936   18.1992   21.9536 N   0  0  0  0  0  0  0  0  0  0  0  0
   25.9239   14.8210   21.0058 O   0  0  0  0  0  0  0  0  0  0  0  0
  2  1  1  6  0  0  0
  2  3  1  0  0  0  0
  2  5  1  0  0  0  0
  3  4  1  0  0  0  0
  3 10  1  0  0  0  0
  5  6  1  0  0  0  0
  6  7  1  0  0  0  0
  7  8  1  0  0  0  0
  8  9  1  0  0  0  0
M  END
>  <CHROM.1>
-144.51712164,-58.65776621,179.02792862,177.72379709,-62.18958801,29.31515758
16.13813969,20.86809152,-2.97609208,-0.31332640,-0.85750791

>  <Name>
ligand

>  <RI>
0

>  <Rbt.Current_Directory>
/home/itssahil/PROJECTS/Mol_Feturizer/New_Systems/rnas/3DIL

>  <Rbt.Executable>
rbdock ($Id: //depot/dev/client3/rdock/2013.1/src/exe/rbdock.cxx#4 $)

>  <Rbt.Library>
libRbt.so (2013.1, Build901 2013/11/27)

>  <Rbt.Parameter_File>
/export/apps/rDock/src/rDock_2013.1_src/data/scripts/dock_solv.prm

>  <Rbt.Receptor>
prm/pocket_docking_6.prm

>  <SCORE>
-7.50327

>  <SCORE.INTER>
-7.66887

>  <SCORE.INTER.CONST>
1

>  <SCORE.INTER.POLAR>
0

>  <SCORE.INTER.ROT>
5

>  <SCORE.INTER.SOLV>
17.0014

>  <SCORE.INTER.VDW>
-17.7131

>  <SCORE.INTER.norm>
-0.766887

>  <SCORE.INTRA>
0.165601

>  <SCORE.INTRA.DIHEDRAL>
-1.32714

>  <SCORE.INTRA.DIHEDRAL.0>
2.93688

>  <SCORE.INTRA.POLAR>
0

>  <SCORE.INTRA.POLAR.0>
0

>  <SCORE.INTRA.REPUL>
0

>  <SCORE.INTRA.REPUL.0>
0

>  <SCORE.INTRA.SOLV>
0.358462

>  <SCORE.INTRA.SOLV.lig_0>
-32.2816

>  <SCORE.INTRA.VDW>
0.649939

>  <SCORE.INTRA.VDW.0>
-0.749945

>  <SCORE.INTRA.norm>
0.0165601

>  <SCORE.RESTR>
0

>  <SCORE.RESTR.CAVITY>
0

>  <SCORE.RESTR.norm>
0

>  <SCORE.SYSTEM>
0

>  <SCORE.SYSTEM.CONST>
0

>  <SCORE.SYSTEM.DIHEDRAL>
0

>  <SCORE.SYSTEM.SOLV>
0

>  <SCORE.SYSTEM.norm>
0

>  <SCORE.heavy>
10

>  <SCORE.norm>
-0.750327

>  <RMSD>
5.588

$$$$
ligand
 OpenBabel11021811473D
libRbt.so/2013.1/901 2013/11/27
 10  9  0  0  0  0  0  0  0  0999 V2000
   28.6147   14.3184   21.8932 N   0  0  0  0  0  0  0  0  0  0  0  0
   28.1789   15.6366   21.3426 C   0  0  2  0  0  0  0  0  0  0  0  0
   26.8262   15.5266   20.6397 C   0  0  0  0  0  0  0  0  0  0  0  0
   25.9210   14.8377   21.1071 O   0  0  0  0  0  0  0  0  0  0  0  0
   29.2523   16.2261   20.4201 C   0  0  0  0  0  0  0  0  0  0  0  0
   30.5896   16.4476   21.1261 C   0  0  0  0  0  0  0  0  0  0  0  0
   31.6757   16.9378   20.1784 C   0  0  0  0  0  0  0  0  0  0  0  0
   32.9940   17.1539   20.9151 C   0  0  0  0  0  0  0  0  0  0  0  0
   32.8971   18.1706   22.0187 N   0  0  0  0  0  0  0  0  0  0  0  0
   26.5726   16.1374   19.5973 O   0  0  0  0  0  0  0  0  0  0  0  0
  2  1  1  6  0  0  0
  2  3  1  0  0  0  0
  2  5  1  0  0  0  0
  3  4  1  0  0  0  0
  3 10  1  0  0  0  0
  5  6  1  0  0  0  0
  6  7  1  0  0  0  0
  7  8  1  0  0  0  0
  8  9  1  0  0  0  0
M  END
>  <CHROM.1>
40.29857090,-59.46310915,175.85385881,179.77014006,-60.05835089,29.30945021
16.13334984,20.90861078,-2.97534231,-0.31682585,-0.86192111

>  <Name>
ligand

>  <RI>
0

>  <Rbt.Current_Directory>
/home/itssahil/PROJECTS/Mol_Feturizer/New_Systems/rnas/3DIL

>  <Rbt.Executable>
rbdock ($Id: //depot/dev/client3/rdock/2013.1/src/exe/rbdock.cxx#4 $)

>  <Rbt.Library>
libRbt.so (2013.1, Build901 2013/11/27)

>  <Rbt.Parameter_File>
/export/apps/rDock/src/rDock_2013.1_src/data/scripts/dock_solv.prm

>  <Rbt.Receptor>
prm/pocket_docking_8.prm

>  <SCORE>
-7.7716

>  <SCORE.INTER>
-7.86047

>  <SCORE.INTER.CONST>
1

>  <SCORE.INTER.POLAR>
0

>  <SCORE.INTER.ROT>
5

>  <SCORE.INTER.SOLV>
17.0382

>  <SCORE.INTER.VDW>
-17.853

>  <SCORE.INTER.norm>
-0.786047

>  <SCORE.INTRA>
0.088874

>  <SCORE.INTRA.DIHEDRAL>
-1.40475

>  <SCORE.INTRA.DIHEDRAL.0>
2.93688

>  <SCORE.INTRA.POLAR>
0

>  <SCORE.INTRA.POLAR.0>
0

>  <SCORE.INTRA.REPUL>
0

>  <SCORE.INTRA.REPUL.0>
0

>  <SCORE.INTRA.SOLV>
0.378603

>  <SCORE.INTRA.SOLV.lig_0>
-32.2816

>  <SCORE.INTRA.VDW>
0.601948

>  <SCORE.INTRA.VDW.0>
-0.749945

>  <SCORE.INTRA.norm>
0.0088874

>  <SCORE.RESTR>
0

>  <SCORE.RESTR.CAVITY>
0

>  <SCORE.RESTR.norm>
0

>  <SCORE.SYSTEM>
0

>  <SCORE.SYSTEM.CONST>
0

>  <SCORE.SYSTEM.DIHEDRAL>
0

>  <SCORE.SYSTEM.SOLV>
0

>  <SCORE.SYSTEM.norm>
0

>  <SCORE.heavy>
10

>  <SCORE.norm>
-0.77716

>  <RMSD>
5.589

$$$$
ligand
 OpenBabel11021811473D
libRbt.so/2013.1/901 2013/11/27
 10  9  0  0  0  0  0  0  0  0999 V2000
   28.3199   16.7777   18.7438 N   0  0  0  0  0  0  0  0  0  0  0  0
   28.5037   15.7932   19.8518 C   0  0  2  0  0  0  0  0  0  0  0  0
   27.1811   15.1266   20.2293 C   0  0  0  0  0  0  0  0  0  0  0  0
   26.6426   15.3505   21.3120 O   0  0  0  0  0  0  0  0  0  0  0  0
   29.1742   16.4518   21.0632 C   0  0  0  0  0  0  0  0  0  0  0  0
   30.5811   16.9659   20.7601 C   0  0  0  0  0  0  0  0  0  0  0  0
   31.2233   17.6502   21.9591 C   0  0  0  0  0  0  0  0  0  0  0  0
   32.6478   18.0949   21.6425 C   0  0  0  0  0  0  0  0  0  0  0  0
   33.3360   18.7539   22.8057 N   0  0  0  0  0  0  0  0  0  0  0  0
   26.5851   14.3628   19.4642 O   0  0  0  0  0  0  0  0  0  0  0  0
  2  1  1  6  0  0  0
  2  3  1  0  0  0  0
  2  5  1  0  0  0  0
  3  4  1  0  0  0  0
  3 10  1  0  0  0  0
  5  6  1  0  0  0  0
  6  7  1  0  0  0  0
  7  8  1  0  0  0  0
  8  9  1  0  0  0  0
M  END
>  <CHROM.1>
-111.40894748,-62.66425288,178.49403868,177.43691834,-178.88659922,29.37916830
16.51091324,20.78667412,-2.85293490,0.53119222,1.64592440

>  <Name>
ligand

>  <RI>
0

>  <Rbt.Current_Directory>
/home/itssahil/PROJECTS/Mol_Feturizer/New_Systems/rnas/3DIL

>  <Rbt.Executable>
rbdock ($Id: //depot/dev/client3/rdock/2013.1/src/exe/rbdock.cxx#4 $)

>  <Rbt.Library>
libRbt.so (2013.1, Build901 2013/11/27)

>  <Rbt.Parameter_File>
/export/apps/rDock/src/rDock_2013.1_src/data/scripts/dock_solv.prm

>  <Rbt.Receptor>
prm/pocket_docking_6.prm

>  <SCORE>
-6.79873

>  <SCORE.INTER>
-6.33948

>  <SCORE.INTER.CONST>
1

>  <SCORE.INTER.POLAR>
0

>  <SCORE.INTER.ROT>
5

>  <SCORE.INTER.SOLV>
15.7543

>  <SCORE.INTER.VDW>
-16.4111

>  <SCORE.INTER.norm>
-0.633948

>  <SCORE.INTRA>
-0.459252

>  <SCORE.INTRA.DIHEDRAL>
-1.37166

>  <SCORE.INTRA.DIHEDRAL.0>
2.93688

>  <SCORE.INTRA.POLAR>
0

>  <SCORE.INTRA.POLAR.0>
0

>  <SCORE.INTRA.REPUL>
0

>  <SCORE.INTRA.REPUL.0>
0

>  <SCORE.INTRA.SOLV>
-0.625829

>  <SCORE.INTRA.SOLV.lig_0>
-32.2816

>  <SCORE.INTRA.VDW>
0.539495

>  <SCORE.INTRA.VDW.0>
-0.749945

>  <SCORE.INTRA.norm>
-0.0459252

>  <SCORE.RESTR>
0

>  <SCORE.RESTR.CAVITY>
0

>  <SCORE.RESTR.norm>
0

>  <SCORE.SYSTEM>
0

>  <SCORE.SYSTEM.CONST>
0

>  <SCORE.SYSTEM.DIHEDRAL>
0

>  <SCORE.SYSTEM.SOLV>
0

>  <SCORE.SYSTEM.norm>
0

>  <SCORE.heavy>
10

>  <SCORE.norm>
-0.679873

>  <RMSD>
5.590

$$$$
ligand
 OpenBabel11021811473D
libRbt.so/2013.1/901 2013/11/27
 10  9  0  0  0  0  0  0  0  0999 V2000
   27.2588   15.4017   20.2626 N   0  0  0  0  0  0  0  0  0  0  0  0
   28.1855   15.7947   19.1593 C   0  0  2  0  0  0  0  0  0  0  0  0
   27.7575   15.1800   17.8271 C   0  0  0  0  0  0  0  0  0  0  0  0
   28.1326   15.6567   16.7573 O   0  0  0  0  0  0  0  0  0  0  0  0
   29.6352   15.4387   19.5096 C   0  0  0  0  0  0  0  0  0  0  0  0
   30.2128   16.3148   20.6208 C   0  0  0  0  0  0  0  0  0  0  0  0
   31.6893   16.0407   20.8721 C   0  0  0  0  0  0  0  0  0  0  0  0
   32.2044   16.8437   22.0625 C   0  0  0  0  0  0  0  0  0  0  0  0
   32.2235   18.3266   21.8142 N   0  0  0  0  0  0  0  0  0  0  0  0
   27.0460   14.1732   17.7632 O   0  0  0  0  0  0  0  0  0  0  0  0
  2  1  1  1  0  0  0
  2  3  1  0  0  0  0
  2  5  1  0  0  0  0
  3  4  1  0  0  0  0
  3 10  1  0  0  0  0
  5  6  1  0  0  0  0
  6  7  1  0  0  0  0
  7  8  1  0  0  0  0
  8  9  1  0  0  0  0
M  END
>  <CHROM.1>
159.27014274,-70.22350730,-174.70188650,-175.17531999,-66.97765730,29.41576106
15.90018130,19.62711627,2.47910368,-0.44051255,-1.59255908

>  <Name>
ligand

>  <RI>
0

>  <Rbt.Current_Directory>
/home/itssahil/PROJECTS/Mol_Feturizer/New_Systems/rnas/3DIL

>  <Rbt.Executable>
rbdock ($Id: //depot/dev/client3/rdock/2013.1/src/exe/rbdock.cxx#4 $)

>  <Rbt.Library>
libRbt.so (2013.1, Build901 2013/11/27)

>  <Rbt.Parameter_File>
/export/apps/rDock/src/rDock_2013.1_src/data/scripts/dock_solv.prm

>  <Rbt.Receptor>
prm/blind_docking_100.prm

>  <SCORE>
-7.19766

>  <SCORE.INTER>
-6.84251

>  <SCORE.INTER.CONST>
1

>  <SCORE.INTER.POLAR>
0

>  <SCORE.INTER.ROT>
5

>  <SCORE.INTER.SOLV>
13.3786

>  <SCORE.INTER.VDW>
-15.9545

>  <SCORE.INTER.norm>
-0.684251

>  <SCORE.INTRA>
-0.355156

>  <SCORE.INTRA.DIHEDRAL>
-0.65666

>  <SCORE.INTRA.DIHEDRAL.0>
2.93688

>  <SCORE.INTRA.POLAR>
0

>  <SCORE.INTRA.POLAR.0>
0

>  <SCORE.INTRA.REPUL>
0

>  <SCORE.INTRA.REPUL.0>
0

>  <SCORE.INTRA.SOLV>
0.0689717

>  <SCORE.INTRA.SOLV.lig_0>
-32.2816

>  <SCORE.INTRA.VDW>
-0.0613117

>  <SCORE.INTRA.VDW.0>
-0.749945

>  <SCORE.INTRA.norm>
-0.0355156

>  <SCORE.RESTR>
0

>  <SCORE.RESTR.CAVITY>
0

>  <SCORE.RESTR.norm>
0

>  <SCORE.SYSTEM>
0

>  <SCORE.SYSTEM.CONST>
0

>  <SCORE.SYSTEM.DIHEDRAL>
0

>  <SCORE.SYSTEM.SOLV>
0

>  <SCORE.SYSTEM.norm>
0

>  <SCORE.heavy>
10

>  <SCORE.norm>
-0.719766

>  <RMSD>
5.593

$$$$
ligand
 OpenBabel11021811473D
libRbt.so/2013.1/901 2013/11/27
 10  9  0  0  0  0  0  0  0  0999 V2000
   28.6097   14.3719   21.9774 N   0  0  0  0  0  0  0  0  0  0  0  0
   28.1714   15.6604   21.3624 C   0  0  2  0  0  0  0  0  0  0  0  0
   26.8281   15.5085   20.6494 C   0  0  0  0  0  0  0  0  0  0  0  0
   25.9263   14.8251   21.1312 O   0  0  0  0  0  0  0  0  0  0  0  0
   29.2518   16.2155   20.4266 C   0  0  0  0  0  0  0  0  0  0  0  0
   30.5880   16.4494   21.1306 C   0  0  0  0  0  0  0  0  0  0  0  0
   31.6711   16.9393   20.1792 C   0  0  0  0  0  0  0  0  0  0  0  0
   32.9913   17.1572   20.9118 C   0  0  0  0  0  0  0  0  0  0  0  0
   32.9027   18.1923   21.9989 N   0  0  0  0  0  0  0  0  0  0  0  0
   26.5786   16.0788   19.5833 O   0  0  0  0  0  0  0  0  0  0  0  0
  2  1  1  6  0  0  0
  2  3  1  0  0  0  0
  2  5  1  0  0  0  0
  3  4  1  0  0  0  0
  3 10  1  0  0  0  0
  5  6  1  0  0  0  0
  6  7  1  0  0  0  0
  7  8  1  0  0  0  0
  8  9  1  0  0  0  0
M  END
>  <CHROM.1>
39.64281952,-58.17781168,177.35091829,-179.77343042,-61.04839779,29.30934006
16.13300493,20.91965200,-2.98642590,-0.32557495,-0.91345985

>  <Name>
ligand

>  <RI>
0

>  <Rbt.Current_Directory>
/home/itssahil/PROJECTS/Mol_Feturizer/New_Systems/rnas/3DIL

>  <Rbt.Executable>
rbdock ($Id: //depot/dev/client3/rdock/2013.1/src/exe/rbdock.cxx#4 $)

>  <Rbt.Library>
libRbt.so (2013.1, Build901 2013/11/27)

>  <Rbt.Parameter_File>
/export/apps/rDock/src/rDock_2013.1_src/data/scripts/dock_solv.prm

>  <Rbt.Receptor>
prm/pocket_docking_2.prm

>  <SCORE>
-7.72975

>  <SCORE.INTER>
-7.80107

>  <SCORE.INTER.CONST>
1

>  <SCORE.INTER.POLAR>
0

>  <SCORE.INTER.ROT>
5

>  <SCORE.INTER.SOLV>
17.0954

>  <SCORE.INTER.VDW>
-17.8325

>  <SCORE.INTER.norm>
-0.780107

>  <SCORE.INTRA>
0.0713248

>  <SCORE.INTRA.DIHEDRAL>
-1.43499

>  <SCORE.INTRA.DIHEDRAL.0>
2.93688

>  <SCORE.INTRA.POLAR>
0

>  <SCORE.INTRA.POLAR.0>
0

>  <SCORE.INTRA.REPUL>
0

>  <SCORE.INTRA.REPUL.0>
0

>  <SCORE.INTRA.SOLV>
0.371273

>  <SCORE.INTRA.SOLV.lig_0>
-32.2816

>  <SCORE.INTRA.VDW>
0.603185

>  <SCORE.INTRA.VDW.0>
-0.749945

>  <SCORE.INTRA.norm>
0.00713248

>  <SCORE.RESTR>
0

>  <SCORE.RESTR.CAVITY>
0

>  <SCORE.RESTR.norm>
0

>  <SCORE.SYSTEM>
0

>  <SCORE.SYSTEM.CONST>
0

>  <SCORE.SYSTEM.DIHEDRAL>
0

>  <SCORE.SYSTEM.SOLV>
0

>  <SCORE.SYSTEM.norm>
0

>  <SCORE.heavy>
10

>  <SCORE.norm>
-0.772975

>  <RMSD>
5.593

$$$$
ligand
 OpenBabel11021811473D
libRbt.so/2013.1/901 2013/11/27
 10  9  0  0  0  0  0  0  0  0999 V2000
   28.7938   16.4081   19.1784 N   0  0  0  0  0  0  0  0  0  0  0  0
   27.6295   15.5382   18.8345 C   0  0  2  0  0  0  0  0  0  0  0  0
   26.8191   15.1752   20.0784 C   0  0  0  0  0  0  0  0  0  0  0  0
   27.3491   14.6327   21.0465 O   0  0  0  0  0  0  0  0  0  0  0  0
   28.0860   14.2902   18.0696 C   0  0  0  0  0  0  0  0  0  0  0  0
   26.9217   13.4142   17.6081 C   0  0  0  0  0  0  0  0  0  0  0  0
   27.3780   12.0449   17.1233 C   0  0  0  0  0  0  0  0  0  0  0  0
   26.2121   11.0626   17.0689 C   0  0  0  0  0  0  0  0  0  0  0  0
   26.6362    9.6557   16.7500 N   0  0  0  0  0  0  0  0  0  0  0  0
   25.6155   15.4303   20.1796 O   0  0  0  0  0  0  0  0  0  0  0  0
  2  1  1  1  0  0  0
  2  3  1  0  0  0  0
  2  5  1  0  0  0  0
  3  4  1  0  0  0  0
  3 10  1  0  0  0  0
  5  6  1  0  0  0  0
  6  7  1  0  0  0  0
  7  8  1  0  0  0  0
  8  9  1  0  0  0  0
M  END
>  <CHROM.1>
-55.74883912,-175.97954402,-167.57867777,162.98518771,-173.31507728,27.12661288
13.76802264,18.62743007,-1.41782951,-0.71215141,-2.48284634

>  <Name>
ligand

>  <RI>
0

>  <Rbt.Current_Directory>
/home/itssahil/PROJECTS/Mol_Feturizer/New_Systems/rnas/3DIL

>  <Rbt.Executable>
rbdock ($Id: //depot/dev/client3/rdock/2013.1/src/exe/rbdock.cxx#4 $)

>  <Rbt.Library>
libRbt.so (2013.1, Build901 2013/11/27)

>  <Rbt.Parameter_File>
/export/apps/rDock/src/rDock_2013.1_src/data/scripts/dock_solv.prm

>  <Rbt.Receptor>
prm/pocket_docking_8.prm

>  <SCORE>
-9.4303

>  <SCORE.INTER>
-8.85516

>  <SCORE.INTER.CONST>
1

>  <SCORE.INTER.POLAR>
0

>  <SCORE.INTER.ROT>
5

>  <SCORE.INTER.SOLV>
14.3018

>  <SCORE.INTER.VDW>
-17.604

>  <SCORE.INTER.norm>
-0.885516

>  <SCORE.INTRA>
-0.575138

>  <SCORE.INTRA.DIHEDRAL>
0.561763

>  <SCORE.INTRA.DIHEDRAL.0>
2.93688

>  <SCORE.INTRA.POLAR>
0

>  <SCORE.INTRA.POLAR.0>
0

>  <SCORE.INTRA.REPUL>
0

>  <SCORE.INTRA.REPUL.0>
0

>  <SCORE.INTRA.SOLV>
-1.49994

>  <SCORE.INTRA.SOLV.lig_0>
-32.2816

>  <SCORE.INTRA.VDW>
-0.106048

>  <SCORE.INTRA.VDW.0>
-0.749945

>  <SCORE.INTRA.norm>
-0.0575138

>  <SCORE.RESTR>
0

>  <SCORE.RESTR.CAVITY>
0

>  <SCORE.RESTR.norm>
0

>  <SCORE.SYSTEM>
0

>  <SCORE.SYSTEM.CONST>
0

>  <SCORE.SYSTEM.DIHEDRAL>
0

>  <SCORE.SYSTEM.SOLV>
0

>  <SCORE.SYSTEM.norm>
0

>  <SCORE.heavy>
10

>  <SCORE.norm>
-0.94303

>  <RMSD>
5.593

$$$$
ligand
 OpenBabel11021811473D
libRbt.so/2013.1/901 2013/11/27
 10  9  0  0  0  0  0  0  0  0999 V2000
   27.1497   14.4023   18.0689 N   0  0  0  0  0  0  0  0  0  0  0  0
   27.6860   14.6901   19.4328 C   0  0  2  0  0  0  0  0  0  0  0  0
   26.5742   15.1216   20.3886 C   0  0  0  0  0  0  0  0  0  0  0  0
   26.7289   15.0718   21.6076 O   0  0  0  0  0  0  0  0  0  0  0  0
   28.8147   15.7260   19.3694 C   0  0  0  0  0  0  0  0  0  0  0  0
   29.5508   15.8883   20.6990 C   0  0  0  0  0  0  0  0  0  0  0  0
   30.6636   16.9250   20.6272 C   0  0  0  0  0  0  0  0  0  0  0  0
   31.4409   16.9912   21.9382 C   0  0  0  0  0  0  0  0  0  0  0  0
   32.5659   17.9885   21.9112 N   0  0  0  0  0  0  0  0  0  0  0  0
   25.4922   15.5601   19.9873 O   0  0  0  0  0  0  0  0  0  0  0  0
  2  1  1  6  0  0  0
  2  3  1  0  0  0  0
  2  5  1  0  0  0  0
  3  4  1  0  0  0  0
  3 10  1  0  0  0  0
  5  6  1  0  0  0  0
  6  7  1  0  0  0  0
  7  8  1  0  0  0  0
  8  9  1  0  0  0  0
M  END
>  <CHROM.1>
161.10261501,-170.60305533,-179.65627415,-175.96517961,179.16630603,28.63178815
15.84024929,20.42127124,-2.71166826,0.30546562,1.24364782

>  <Name>
ligand

>  <RI>
0

>  <Rbt.Current_Directory>
/home/itssahil/PROJECTS/Mol_Feturizer/New_Systems/rnas/3DIL

>  <Rbt.Executable>
rbdock ($Id: //depot/dev/client3/rdock/2013.1/src/exe/rbdock.cxx#4 $)

>  <Rbt.Library>
libRbt.so (2013.1, Build901 2013/11/27)

>  <Rbt.Parameter_File>
/export/apps/rDock/src/rDock_2013.1_src/data/scripts/dock_solv.prm

>  <Rbt.Receptor>
prm/pocket_docking_6.prm

>  <SCORE>
-9.43529

>  <SCORE.INTER>
-8.14202

>  <SCORE.INTER.CONST>
1

>  <SCORE.INTER.POLAR>
0

>  <SCORE.INTER.ROT>
5

>  <SCORE.INTER.SOLV>
15.5228

>  <SCORE.INTER.VDW>
-17.5356

>  <SCORE.INTER.norm>
-0.814202

>  <SCORE.INTRA>
-1.29376

>  <SCORE.INTRA.DIHEDRAL>
-1.08548

>  <SCORE.INTRA.DIHEDRAL.0>
2.93688

>  <SCORE.INTRA.POLAR>
0

>  <SCORE.INTRA.POLAR.0>
0

>  <SCORE.INTRA.REPUL>
0

>  <SCORE.INTRA.REPUL.0>
0

>  <SCORE.INTRA.SOLV>
-1.49522

>  <SCORE.INTRA.SOLV.lig_0>
-32.2816

>  <SCORE.INTRA.VDW>
-0.00340694

>  <SCORE.INTRA.VDW.0>
-0.749945

>  <SCORE.INTRA.norm>
-0.129376

>  <SCORE.RESTR>
0.000496082

>  <SCORE.RESTR.CAVITY>
0.000496082

>  <SCORE.RESTR.norm>
4.96082e-05

>  <SCORE.SYSTEM>
0

>  <SCORE.SYSTEM.CONST>
0

>  <SCORE.SYSTEM.DIHEDRAL>
0

>  <SCORE.SYSTEM.SOLV>
0

>  <SCORE.SYSTEM.norm>
0

>  <SCORE.heavy>
10

>  <SCORE.norm>
-0.943529

>  <RMSD>
5.594

$$$$
ligand
 OpenBabel11021811473D
libRbt.so/2013.1/901 2013/11/27
 10  9  0  0  0  0  0  0  0  0999 V2000
   27.2662   15.1541   20.2624 N   0  0  0  0  0  0  0  0  0  0  0  0
   28.1500   15.6713   19.1752 C   0  0  2  0  0  0  0  0  0  0  0  0
   27.7371   15.1180   17.8116 C   0  0  0  0  0  0  0  0  0  0  0  0
   28.1000   15.6602   16.7691 O   0  0  0  0  0  0  0  0  0  0  0  0
   29.6237   15.3812   19.4835 C   0  0  0  0  0  0  0  0  0  0  0  0
   30.1634   16.2091   20.6493 C   0  0  0  0  0  0  0  0  0  0  0  0
   31.6654   16.0437   20.8365 C   0  0  0  0  0  0  0  0  0  0  0  0
   32.1632   16.8455   22.0350 C   0  0  0  0  0  0  0  0  0  0  0  0
   31.9833   18.3294   21.8722 N   0  0  0  0  0  0  0  0  0  0  0  0
   27.0511   14.0984   17.6933 O   0  0  0  0  0  0  0  0  0  0  0  0
  2  1  1  1  0  0  0
  2  3  1  0  0  0  0
  2  5  1  0  0  0  0
  3  4  1  0  0  0  0
  3 10  1  0  0  0  0
  5  6  1  0  0  0  0
  6  7  1  0  0  0  0
  7  8  1  0  0  0  0
  8  9  1  0  0  0  0
M  END
>  <CHROM.1>
161.50757251,-69.72578470,-172.86416635,-178.10015697,-63.58377719,29.37201025
15.83542482,19.62037589,2.49436945,-0.49797881,-1.53913694

>  <Name>
ligand

>  <RI>
0

>  <Rbt.Current_Directory>
/home/itssahil/PROJECTS/Mol_Feturizer/New_Systems/rnas/3DIL

>  <Rbt.Executable>
rbdock ($Id: //depot/dev/client3/rdock/2013.1/src/exe/rbdock.cxx#4 $)

>  <Rbt.Library>
libRbt.so (2013.1, Build901 2013/11/27)

>  <Rbt.Parameter_File>
/export/apps/rDock/src/rDock_2013.1_src/data/scripts/dock_solv.prm

>  <Rbt.Receptor>
prm/pocket_docking_7.prm

>  <SCORE>
-7.19705

>  <SCORE.INTER>
-6.83781

>  <SCORE.INTER.CONST>
1

>  <SCORE.INTER.POLAR>
0

>  <SCORE.INTER.ROT>
5

>  <SCORE.INTER.SOLV>
13.6148

>  <SCORE.INTER.VDW>
-16.0301

>  <SCORE.INTER.norm>
-0.683781

>  <SCORE.INTRA>
-0.359241

>  <SCORE.INTRA.DIHEDRAL>
-0.81375

>  <SCORE.INTRA.DIHEDRAL.0>
2.93688

>  <SCORE.INTRA.POLAR>
0

>  <SCORE.INTRA.POLAR.0>
0

>  <SCORE.INTRA.REPUL>
0

>  <SCORE.INTRA.REPUL.0>
0

>  <SCORE.INTRA.SOLV>
0.131846

>  <SCORE.INTRA.SOLV.lig_0>
-32.2816

>  <SCORE.INTRA.VDW>
-0.0182892

>  <SCORE.INTRA.VDW.0>
-0.749945

>  <SCORE.INTRA.norm>
-0.0359241

>  <SCORE.RESTR>
0

>  <SCORE.RESTR.CAVITY>
0

>  <SCORE.RESTR.norm>
0

>  <SCORE.SYSTEM>
0

>  <SCORE.SYSTEM.CONST>
0

>  <SCORE.SYSTEM.DIHEDRAL>
0

>  <SCORE.SYSTEM.SOLV>
0

>  <SCORE.SYSTEM.norm>
0

>  <SCORE.heavy>
10

>  <SCORE.norm>
-0.719705

>  <RMSD>
5.596

$$$$
ligand
 OpenBabel11021811473D
libRbt.so/2013.1/901 2013/11/27
 10  9  0  0  0  0  0  0  0  0999 V2000
   27.1358   14.4045   18.0622 N   0  0  0  0  0  0  0  0  0  0  0  0
   27.6758   14.6887   19.4254 C   0  0  2  0  0  0  0  0  0  0  0  0
   26.5699   15.1382   20.3797 C   0  0  0  0  0  0  0  0  0  0  0  0
   25.5034   15.5787   19.9544 O   0  0  0  0  0  0  0  0  0  0  0  0
   28.8188   15.7085   19.3595 C   0  0  0  0  0  0  0  0  0  0  0  0
   29.5386   15.8851   20.6961 C   0  0  0  0  0  0  0  0  0  0  0  0
   30.6644   16.9075   20.6220 C   0  0  0  0  0  0  0  0  0  0  0  0
   31.4142   16.9989   21.9474 C   0  0  0  0  0  0  0  0  0  0  0  0
   32.5408   17.9945   21.9243 N   0  0  0  0  0  0  0  0  0  0  0  0
   26.6831   15.0565   21.6063 O   0  0  0  0  0  0  0  0  0  0  0  0
  2  1  1  6  0  0  0
  2  3  1  0  0  0  0
  2  5  1  0  0  0  0
  3  4  1  0  0  0  0
  3 10  1  0  0  0  0
  5  6  1  0  0  0  0
  6  7  1  0  0  0  0
  7  8  1  0  0  0  0
  8  9  1  0  0  0  0
M  END
>  <CHROM.1>
-19.94547318,-171.77127291,-179.55931600,-176.62388233,179.83070091,28.61931276
15.83967884,20.41574201,-2.70802138,0.30460887,1.24353025

>  <Name>
ligand

>  <RI>
0

>  <Rbt.Current_Directory>
/home/itssahil/PROJECTS/Mol_Feturizer/New_Systems/rnas/3DIL

>  <Rbt.Executable>
rbdock ($Id: //depot/dev/client3/rdock/2013.1/src/exe/rbdock.cxx#4 $)

>  <Rbt.Library>
libRbt.so (2013.1, Build901 2013/11/27)

>  <Rbt.Parameter_File>
/export/apps/rDock/src/rDock_2013.1_src/data/scripts/dock_solv.prm

>  <Rbt.Receptor>
prm/pocket_docking_4.prm

>  <SCORE>
-9.37052

>  <SCORE.INTER>
-8.0816

>  <SCORE.INTER.CONST>
1

>  <SCORE.INTER.POLAR>
0

>  <SCORE.INTER.ROT>
5

>  <SCORE.INTER.SOLV>
15.5771

>  <SCORE.INTER.VDW>
-17.5134

>  <SCORE.INTER.norm>
-0.80816

>  <SCORE.INTRA>
-1.29082

>  <SCORE.INTRA.DIHEDRAL>
-1.08707

>  <SCORE.INTRA.DIHEDRAL.0>
2.93688

>  <SCORE.INTRA.POLAR>
0

>  <SCORE.INTRA.POLAR.0>
0

>  <SCORE.INTRA.REPUL>
0

>  <SCORE.INTRA.REPUL.0>
0

>  <SCORE.INTRA.SOLV>
-1.48506

>  <SCORE.INTRA.SOLV.lig_0>
-32.2816

>  <SCORE.INTRA.VDW>
-0.004756

>  <SCORE.INTRA.VDW.0>
-0.749945

>  <SCORE.INTRA.norm>
-0.129082

>  <SCORE.RESTR>
0.00190514

>  <SCORE.RESTR.CAVITY>
0.00190514

>  <SCORE.RESTR.norm>
0.000190514

>  <SCORE.SYSTEM>
0

>  <SCORE.SYSTEM.CONST>
0

>  <SCORE.SYSTEM.DIHEDRAL>
0

>  <SCORE.SYSTEM.SOLV>
0

>  <SCORE.SYSTEM.norm>
0

>  <SCORE.heavy>
10

>  <SCORE.norm>
-0.937052

>  <RMSD>
5.599

$$$$
ligand
 OpenBabel11021811473D
libRbt.so/2013.1/901 2013/11/27
 10  9  0  0  0  0  0  0  0  0999 V2000
   26.9608   14.6540   20.2860 N   0  0  0  0  0  0  0  0  0  0  0  0
   27.2075   15.6306   19.1832 C   0  0  2  0  0  0  0  0  0  0  0  0
   27.7273   14.9323   17.9270 C   0  0  0  0  0  0  0  0  0  0  0  0
   27.7060   13.7068   17.8260 O   0  0  0  0  0  0  0  0  0  0  0  0
   28.1506   16.7486   19.6433 C   0  0  0  0  0  0  0  0  0  0  0  0
   29.4385   16.2207   20.2745 C   0  0  0  0  0  0  0  0  0  0  0  0
   30.3269   17.3363   20.8078 C   0  0  0  0  0  0  0  0  0  0  0  0
   31.5784   16.7734   21.4743 C   0  0  0  0  0  0  0  0  0  0  0  0
   32.4919   17.8379   22.0159 N   0  0  0  0  0  0  0  0  0  0  0  0
   28.1626   15.5584   16.9562 O   0  0  0  0  0  0  0  0  0  0  0  0
  2  1  1  1  0  0  0
  2  3  1  0  0  0  0
  2  5  1  0  0  0  0
  3  4  1  0  0  0  0
  3 10  1  0  0  0  0
  5  6  1  0  0  0  0
  6  7  1  0  0  0  0
  7  8  1  0  0  0  0
  8  9  1  0  0  0  0
M  END
>  <CHROM.1>
11.18144590,51.87913256,-176.33693751,177.98521568,179.87264974,28.97619283
15.91987633,19.60383885,2.43993360,-0.45324670,-1.74460031

>  <Name>
ligand

>  <RI>
0

>  <Rbt.Current_Directory>
/home/itssahil/PROJECTS/Mol_Feturizer/New_Systems/rnas/3DIL

>  <Rbt.Executable>
rbdock ($Id: //depot/dev/client3/rdock/2013.1/src/exe/rbdock.cxx#4 $)

>  <Rbt.Library>
libRbt.so (2013.1, Build901 2013/11/27)

>  <Rbt.Parameter_File>
/export/apps/rDock/src/rDock_2013.1_src/data/scripts/dock_solv.prm

>  <Rbt.Receptor>
prm/pocket_docking_4.prm

>  <SCORE>
-8.95216

>  <SCORE.INTER>
-8.45448

>  <SCORE.INTER.CONST>
1

>  <SCORE.INTER.POLAR>
0

>  <SCORE.INTER.ROT>
5

>  <SCORE.INTER.SOLV>
14.569

>  <SCORE.INTER.VDW>
-17.426

>  <SCORE.INTER.norm>
-0.845448

>  <SCORE.INTRA>
-0.49768

>  <SCORE.INTRA.DIHEDRAL>
-1.10658

>  <SCORE.INTRA.DIHEDRAL.0>
2.93688

>  <SCORE.INTRA.POLAR>
0

>  <SCORE.INTRA.POLAR.0>
0

>  <SCORE.INTRA.REPUL>
0

>  <SCORE.INTRA.REPUL.0>
0

>  <SCORE.INTRA.SOLV>
-0.465279

>  <SCORE.INTRA.SOLV.lig_0>
-32.2816

>  <SCORE.INTRA.VDW>
0.288251

>  <SCORE.INTRA.VDW.0>
-0.749945

>  <SCORE.INTRA.norm>
-0.049768

>  <SCORE.RESTR>
0

>  <SCORE.RESTR.CAVITY>
0

>  <SCORE.RESTR.norm>
0

>  <SCORE.SYSTEM>
0

>  <SCORE.SYSTEM.CONST>
0

>  <SCORE.SYSTEM.DIHEDRAL>
0

>  <SCORE.SYSTEM.SOLV>
0

>  <SCORE.SYSTEM.norm>
0

>  <SCORE.heavy>
10

>  <SCORE.norm>
-0.895216

>  <RMSD>
5.605

$$$$
ligand
 OpenBabel11021811473D
libRbt.so/2013.1/901 2013/11/27
 10  9  0  0  0  0  0  0  0  0999 V2000
   26.9322   14.6390   20.2368 N   0  0  0  0  0  0  0  0  0  0  0  0
   27.1909   15.6313   19.1509 C   0  0  2  0  0  0  0  0  0  0  0  0
   27.7319   14.9520   17.8932 C   0  0  0  0  0  0  0  0  0  0  0  0
   27.6977   13.7293   17.7664 O   0  0  0  0  0  0  0  0  0  0  0  0
   28.1226   16.7467   19.6397 C   0  0  0  0  0  0  0  0  0  0  0  0
   29.4693   16.2236   20.1382 C   0  0  0  0  0  0  0  0  0  0  0  0
   30.3284   17.3185   20.7557 C   0  0  0  0  0  0  0  0  0  0  0  0
   31.6618   16.7627   21.2457 C   0  0  0  0  0  0  0  0  0  0  0  0
   32.5431   17.8048   21.8768 N   0  0  0  0  0  0  0  0  0  0  0  0
   28.1982   15.5920   16.9461 O   0  0  0  0  0  0  0  0  0  0  0  0
  2  1  1  1  0  0  0
  2  3  1  0  0  0  0
  2  5  1  0  0  0  0
  3  4  1  0  0  0  0
  3 10  1  0  0  0  0
  5  6  1  0  0  0  0
  6  7  1  0  0  0  0
  7  8  1  0  0  0  0
  8  9  1  0  0  0  0
M  END
>  <CHROM.1>
12.35400943,58.35376150,-173.96864809,179.84542382,-179.45915115,28.98910180
15.92046685,19.52960878,2.44759004,-0.41409287,-1.78767058

>  <Name>
ligand

>  <RI>
0

>  <Rbt.Current_Directory>
/home/itssahil/PROJECTS/Mol_Feturizer/New_Systems/rnas/3DIL

>  <Rbt.Executable>
rbdock ($Id: //depot/dev/client3/rdock/2013.1/src/exe/rbdock.cxx#4 $)

>  <Rbt.Library>
libRbt.so (2013.1, Build901 2013/11/27)

>  <Rbt.Parameter_File>
/export/apps/rDock/src/rDock_2013.1_src/data/scripts/dock_solv.prm

>  <Rbt.Receptor>
prm/pocket_docking_5.prm

>  <SCORE>
-9.07073

>  <SCORE.INTER>
-8.42829

>  <SCORE.INTER.CONST>
1

>  <SCORE.INTER.POLAR>
0

>  <SCORE.INTER.ROT>
5

>  <SCORE.INTER.SOLV>
14.6116

>  <SCORE.INTER.VDW>
-17.4227

>  <SCORE.INTER.norm>
-0.842829

>  <SCORE.INTRA>
-0.642448

>  <SCORE.INTRA.DIHEDRAL>
-1.29003

>  <SCORE.INTRA.DIHEDRAL.0>
2.93688

>  <SCORE.INTRA.POLAR>
0

>  <SCORE.INTRA.POLAR.0>
0

>  <SCORE.INTRA.REPUL>
0

>  <SCORE.INTRA.REPUL.0>
0

>  <SCORE.INTRA.SOLV>
-0.532622

>  <SCORE.INTRA.SOLV.lig_0>
-32.2816

>  <SCORE.INTRA.VDW>
0.26888

>  <SCORE.INTRA.VDW.0>
-0.749945

>  <SCORE.INTRA.norm>
-0.0642448

>  <SCORE.RESTR>
0

>  <SCORE.RESTR.CAVITY>
0

>  <SCORE.RESTR.norm>
0

>  <SCORE.SYSTEM>
0

>  <SCORE.SYSTEM.CONST>
0

>  <SCORE.SYSTEM.DIHEDRAL>
0

>  <SCORE.SYSTEM.SOLV>
0

>  <SCORE.SYSTEM.norm>
0

>  <SCORE.heavy>
10

>  <SCORE.norm>
-0.907073

>  <RMSD>
5.610

$$$$
ligand
 OpenBabel11021811473D
libRbt.so/2013.1/901 2013/11/27
 10  9  0  0  0  0  0  0  0  0999 V2000
   27.1614   14.3702   18.0617 N   0  0  0  0  0  0  0  0  0  0  0  0
   27.6749   14.6869   19.4279 C   0  0  2  0  0  0  0  0  0  0  0  0
   26.5461   15.1300   20.3581 C   0  0  0  0  0  0  0  0  0  0  0  0
   25.5114   15.6230   19.9123 O   0  0  0  0  0  0  0  0  0  0  0  0
   28.7987   15.7279   19.3623 C   0  0  0  0  0  0  0  0  0  0  0  0
   29.5011   15.9330   20.7041 C   0  0  0  0  0  0  0  0  0  0  0  0
   30.6506   16.9275   20.6151 C   0  0  0  0  0  0  0  0  0  0  0  0
   31.4080   17.0144   21.9364 C   0  0  0  0  0  0  0  0  0  0  0  0
   32.5653   17.9735   21.8950 N   0  0  0  0  0  0  0  0  0  0  0  0
   26.6076   14.9912   21.5833 O   0  0  0  0  0  0  0  0  0  0  0  0
  2  1  1  6  0  0  0
  2  3  1  0  0  0  0
  2  5  1  0  0  0  0
  3  4  1  0  0  0  0
  3 10  1  0  0  0  0
  5  6  1  0  0  0  0
  6  7  1  0  0  0  0
  7  8  1  0  0  0  0
  8  9  1  0  0  0  0
M  END
>  <CHROM.1>
-24.69814319,-171.36390418,177.73155601,-174.86192455,179.32315262,28.60682566
15.84116443,20.40309506,-2.71204807,0.30742414,1.24494187

>  <Name>
ligand

>  <RI>
0

>  <Rbt.Current_Directory>
/home/itssahil/PROJECTS/Mol_Feturizer/New_Systems/rnas/3DIL

>  <Rbt.Executable>
rbdock ($Id: //depot/dev/client3/rdock/2013.1/src/exe/rbdock.cxx#4 $)

>  <Rbt.Library>
libRbt.so (2013.1, Build901 2013/11/27)

>  <Rbt.Parameter_File>
/export/apps/rDock/src/rDock_2013.1_src/data/scripts/dock_solv.prm

>  <Rbt.Receptor>
prm/pocket_docking_3.prm

>  <SCORE>
-9.38043

>  <SCORE.INTER>
-8.10858

>  <SCORE.INTER.CONST>
1

>  <SCORE.INTER.POLAR>
0

>  <SCORE.INTER.ROT>
5

>  <SCORE.INTER.SOLV>
15.4861

>  <SCORE.INTER.VDW>
-17.5011

>  <SCORE.INTER.norm>
-0.810858

>  <SCORE.INTRA>
-1.27185

>  <SCORE.INTRA.DIHEDRAL>
-0.972758

>  <SCORE.INTRA.DIHEDRAL.0>
2.93688

>  <SCORE.INTRA.POLAR>
0

>  <SCORE.INTRA.POLAR.0>
0

>  <SCORE.INTRA.REPUL>
0

>  <SCORE.INTRA.REPUL.0>
0

>  <SCORE.INTRA.SOLV>
-1.48585

>  <SCORE.INTRA.SOLV.lig_0>
-32.2816

>  <SCORE.INTRA.VDW>
-0.042551

>  <SCORE.INTRA.VDW.0>
-0.749945

>  <SCORE.INTRA.norm>
-0.127185

>  <SCORE.RESTR>
0

>  <SCORE.RESTR.CAVITY>
0

>  <SCORE.RESTR.norm>
0

>  <SCORE.SYSTEM>
0

>  <SCORE.SYSTEM.CONST>
0

>  <SCORE.SYSTEM.DIHEDRAL>
0

>  <SCORE.SYSTEM.SOLV>
0

>  <SCORE.SYSTEM.norm>
0

>  <SCORE.heavy>
10

>  <SCORE.norm>
-0.938043

>  <RMSD>
5.612

$$$$
ligand
 OpenBabel11021811473D
libRbt.so/2013.1/901 2013/11/27
 10  9  0  0  0  0  0  0  0  0999 V2000
   28.5424   14.9474   21.8218 N   0  0  0  0  0  0  0  0  0  0  0  0
   27.7717   15.7796   20.8501 C   0  0  2  0  0  0  0  0  0  0  0  0
   26.6382   14.9800   20.2085 C   0  0  0  0  0  0  0  0  0  0  0  0
   25.4967   15.0168   20.6646 O   0  0  0  0  0  0  0  0  0  0  0  0
   28.7017   16.3927   19.7965 C   0  0  0  0  0  0  0  0  0  0  0  0
   29.6601   17.4312   20.3786 C   0  0  0  0  0  0  0  0  0  0  0  0
   30.8022   16.7974   21.1611 C   0  0  0  0  0  0  0  0  0  0  0  0
   31.7555   17.8585   21.7019 C   0  0  0  0  0  0  0  0  0  0  0  0
   32.9710   17.2785   22.3708 N   0  0  0  0  0  0  0  0  0  0  0  0
   26.8069   14.2894   19.1992 O   0  0  0  0  0  0  0  0  0  0  0  0
  2  1  1  1  0  0  0
  2  3  1  0  0  0  0
  2  5  1  0  0  0  0
  3  4  1  0  0  0  0
  3 10  1  0  0  0  0
  5  6  1  0  0  0  0
  6  7  1  0  0  0  0
  7  8  1  0  0  0  0
  8  9  1  0  0  0  0
M  END
>  <CHROM.1>
94.75451010,-67.28633677,75.40779362,178.75821818,-174.52542762,28.87755455
16.05513262,20.79867051,3.13047962,-0.50416921,-1.03738541

>  <Name>
ligand

>  <RI>
0

>  <Rbt.Current_Directory>
/home/itssahil/PROJECTS/Mol_Feturizer/New_Systems/rnas/3DIL

>  <Rbt.Executable>
rbdock ($Id: //depot/dev/client3/rdock/2013.1/src/exe/rbdock.cxx#4 $)

>  <Rbt.Library>
libRbt.so (2013.1, Build901 2013/11/27)

>  <Rbt.Parameter_File>
/export/apps/rDock/src/rDock_2013.1_src/data/scripts/dock_solv.prm

>  <Rbt.Receptor>
prm/pocket_docking_6.prm

>  <SCORE>
-7.14371

>  <SCORE.INTER>
-7.73842

>  <SCORE.INTER.CONST>
1

>  <SCORE.INTER.POLAR>
0

>  <SCORE.INTER.ROT>
5

>  <SCORE.INTER.SOLV>
16.4938

>  <SCORE.INTER.VDW>
-17.5902

>  <SCORE.INTER.norm>
-0.773842

>  <SCORE.INTRA>
0.594711

>  <SCORE.INTRA.DIHEDRAL>
-0.0889381

>  <SCORE.INTRA.DIHEDRAL.0>
2.93688

>  <SCORE.INTRA.POLAR>
0

>  <SCORE.INTRA.POLAR.0>
0

>  <SCORE.INTRA.REPUL>
0

>  <SCORE.INTRA.REPUL.0>
0

>  <SCORE.INTRA.SOLV>
0.656277

>  <SCORE.INTRA.SOLV.lig_0>
-32.2816

>  <SCORE.INTRA.VDW>
0.311041

>  <SCORE.INTRA.VDW.0>
-0.749945

>  <SCORE.INTRA.norm>
0.0594711

>  <SCORE.RESTR>
0

>  <SCORE.RESTR.CAVITY>
0

>  <SCORE.RESTR.norm>
0

>  <SCORE.SYSTEM>
0

>  <SCORE.SYSTEM.CONST>
0

>  <SCORE.SYSTEM.DIHEDRAL>
0

>  <SCORE.SYSTEM.SOLV>
0

>  <SCORE.SYSTEM.norm>
0

>  <SCORE.heavy>
10

>  <SCORE.norm>
-0.714371

>  <RMSD>
5.613

$$$$
ligand
 OpenBabel11021811473D
libRbt.so/2013.1/901 2013/11/27
 10  9  0  0  0  0  0  0  0  0999 V2000
   28.8158   16.3777   19.1339 N   0  0  0  0  0  0  0  0  0  0  0  0
   27.6446   15.5157   18.7934 C   0  0  2  0  0  0  0  0  0  0  0  0
   26.8200   15.1808   20.0359 C   0  0  0  0  0  0  0  0  0  0  0  0
   25.6205   15.4462   20.0933 O   0  0  0  0  0  0  0  0  0  0  0  0
   28.0933   14.2511   18.0515 C   0  0  0  0  0  0  0  0  0  0  0  0
   26.9235   13.3756   17.6034 C   0  0  0  0  0  0  0  0  0  0  0  0
   27.3737   12.0061   17.1133 C   0  0  0  0  0  0  0  0  0  0  0  0
   26.2032   11.0297   17.0538 C   0  0  0  0  0  0  0  0  0  0  0  0
   26.6220    9.6198   16.7408 N   0  0  0  0  0  0  0  0  0  0  0  0
   27.3066   14.6113   21.0171 O   0  0  0  0  0  0  0  0  0  0  0  0
  2  1  1  1  0  0  0
  2  3  1  0  0  0  0
  2  5  1  0  0  0  0
  3  4  1  0  0  0  0
  3 10  1  0  0  0  0
  5  6  1  0  0  0  0
  6  7  1  0  0  0  0
  7  8  1  0  0  0  0
  8  9  1  0  0  0  0
M  END
>  <CHROM.1>
123.61356577,-176.43882164,-168.90403834,163.77846506,-172.83137424,27.12421288
13.74436355,18.59681813,-1.41722211,-0.69912534,-2.49295357

>  <Name>
ligand

>  <RI>
0

>  <Rbt.Current_Directory>
/home/itssahil/PROJECTS/Mol_Feturizer/New_Systems/rnas/3DIL

>  <Rbt.Executable>
rbdock ($Id: //depot/dev/client3/rdock/2013.1/src/exe/rbdock.cxx#4 $)

>  <Rbt.Library>
libRbt.so (2013.1, Build901 2013/11/27)

>  <Rbt.Parameter_File>
/export/apps/rDock/src/rDock_2013.1_src/data/scripts/dock_solv.prm

>  <Rbt.Receptor>
prm/blind_docking_40.prm

>  <SCORE>
-9.47464

>  <SCORE.INTER>
-8.78088

>  <SCORE.INTER.CONST>
1

>  <SCORE.INTER.POLAR>
0

>  <SCORE.INTER.ROT>
5

>  <SCORE.INTER.SOLV>
14.2215

>  <SCORE.INTER.VDW>
-17.5278

>  <SCORE.INTER.norm>
-0.878088

>  <SCORE.INTRA>
-0.693751

>  <SCORE.INTRA.DIHEDRAL>
0.340579

>  <SCORE.INTRA.DIHEDRAL.0>
2.93688

>  <SCORE.INTRA.POLAR>
0

>  <SCORE.INTRA.POLAR.0>
0

>  <SCORE.INTRA.REPUL>
0

>  <SCORE.INTRA.REPUL.0>
0

>  <SCORE.INTRA.SOLV>
-1.51623

>  <SCORE.INTRA.SOLV.lig_0>
-32.2816

>  <SCORE.INTRA.VDW>
-0.105928

>  <SCORE.INTRA.VDW.0>
-0.749945

>  <SCORE.INTRA.norm>
-0.0693751

>  <SCORE.RESTR>
0

>  <SCORE.RESTR.CAVITY>
0

>  <SCORE.RESTR.norm>
0

>  <SCORE.SYSTEM>
0

>  <SCORE.SYSTEM.CONST>
0

>  <SCORE.SYSTEM.DIHEDRAL>
0

>  <SCORE.SYSTEM.SOLV>
0

>  <SCORE.SYSTEM.norm>
0

>  <SCORE.heavy>
10

>  <SCORE.norm>
-0.947464

>  <RMSD>
5.616

$$$$
ligand
 OpenBabel11021811473D
libRbt.so/2013.1/901 2013/11/27
 10  9  0  0  0  0  0  0  0  0999 V2000
   27.9371   15.4585   21.9703 N   0  0  0  0  0  0  0  0  0  0  0  0
   27.9647   15.9900   20.5748 C   0  0  2  0  0  0  0  0  0  0  0  0
   26.8809   15.3447   19.7118 C   0  0  0  0  0  0  0  0  0  0  0  0
   27.1606   14.4875   18.8755 O   0  0  0  0  0  0  0  0  0  0  0  0
   29.3573   15.8265   19.9544 C   0  0  0  0  0  0  0  0  0  0  0  0
   30.4328   16.6326   20.6818 C   0  0  0  0  0  0  0  0  0  0  0  0
   31.8353   16.3252   20.1750 C   0  0  0  0  0  0  0  0  0  0  0  0
   32.8704   17.2326   20.8325 C   0  0  0  0  0  0  0  0  0  0  0  0
   32.9095   17.1004   22.3299 N   0  0  0  0  0  0  0  0  0  0  0  0
   25.6857   15.6302   19.8305 O   0  0  0  0  0  0  0  0  0  0  0  0
  2  1  1  1  0  0  0
  2  3  1  0  0  0  0
  2  5  1  0  0  0  0
  3  4  1  0  0  0  0
  3 10  1  0  0  0  0
  5  6  1  0  0  0  0
  6  7  1  0  0  0  0
  7  8  1  0  0  0  0
  8  9  1  0  0  0  0
M  END
>  <CHROM.1>
-104.76732909,-63.53227848,172.55888214,174.96761799,59.69505420,29.26675631
15.98583595,20.47186383,2.84651033,-0.21711872,-1.81991942

>  <Name>
ligand

>  <RI>
0

>  <Rbt.Current_Directory>
/home/itssahil/PROJECTS/Mol_Feturizer/New_Systems/rnas/3DIL

>  <Rbt.Executable>
rbdock ($Id: //depot/dev/client3/rdock/2013.1/src/exe/rbdock.cxx#4 $)

>  <Rbt.Library>
libRbt.so (2013.1, Build901 2013/11/27)

>  <Rbt.Parameter_File>
/export/apps/rDock/src/rDock_2013.1_src/data/scripts/dock_solv.prm

>  <Rbt.Receptor>
prm/pocket_docking_3.prm

>  <SCORE>
-7.06886

>  <SCORE.INTER>
-7.26005

>  <SCORE.INTER.CONST>
1

>  <SCORE.INTER.POLAR>
0

>  <SCORE.INTER.ROT>
5

>  <SCORE.INTER.SOLV>
16.8929

>  <SCORE.INTER.VDW>
-17.4043

>  <SCORE.INTER.norm>
-0.726005

>  <SCORE.INTRA>
0.191188

>  <SCORE.INTRA.DIHEDRAL>
-1.07104

>  <SCORE.INTRA.DIHEDRAL.0>
2.93688

>  <SCORE.INTRA.POLAR>
0

>  <SCORE.INTRA.POLAR.0>
0

>  <SCORE.INTRA.REPUL>
0

>  <SCORE.INTRA.REPUL.0>
0

>  <SCORE.INTRA.SOLV>
0.318734

>  <SCORE.INTRA.SOLV.lig_0>
-32.2816

>  <SCORE.INTRA.VDW>
0.56734

>  <SCORE.INTRA.VDW.0>
-0.749945

>  <SCORE.INTRA.norm>
0.0191188

>  <SCORE.RESTR>
0

>  <SCORE.RESTR.CAVITY>
0

>  <SCORE.RESTR.norm>
0

>  <SCORE.SYSTEM>
0

>  <SCORE.SYSTEM.CONST>
0

>  <SCORE.SYSTEM.DIHEDRAL>
0

>  <SCORE.SYSTEM.SOLV>
0

>  <SCORE.SYSTEM.norm>
0

>  <SCORE.heavy>
10

>  <SCORE.norm>
-0.706886

>  <RMSD>
5.617

$$$$
ligand
 OpenBabel11021811473D
libRbt.so/2013.1/901 2013/11/27
 10  9  0  0  0  0  0  0  0  0999 V2000
   25.7991   15.1761   20.3248 N   0  0  0  0  0  0  0  0  0  0  0  0
   27.0603   15.7920   19.8140 C   0  0  2  0  0  0  0  0  0  0  0  0
   27.5031   15.1465   18.5013 C   0  0  0  0  0  0  0  0  0  0  0  0
   28.1455   15.7806   17.6661 O   0  0  0  0  0  0  0  0  0  0  0  0
   28.1652   15.7366   20.8756 C   0  0  0  0  0  0  0  0  0  0  0  0
   29.4200   16.5100   20.4715 C   0  0  0  0  0  0  0  0  0  0  0  0
   30.5042   16.4622   21.5394 C   0  0  0  0  0  0  0  0  0  0  0  0
   31.7609   17.1965   21.0825 C   0  0  0  0  0  0  0  0  0  0  0  0
   32.8357   17.2433   22.1331 N   0  0  0  0  0  0  0  0  0  0  0  0
   27.2632   13.9658   18.2326 O   0  0  0  0  0  0  0  0  0  0  0  0
  2  1  1  1  0  0  0
  2  3  1  0  0  0  0
  2  5  1  0  0  0  0
  3  4  1  0  0  0  0
  3 10  1  0  0  0  0
  5  6  1  0  0  0  0
  6  7  1  0  0  0  0
  7  8  1  0  0  0  0
  8  9  1  0  0  0  0
M  END
>  <CHROM.1>
151.06437596,-172.67598801,179.31998450,177.77922845,176.81696786,28.84560533
15.88368940,20.02875451,2.58504644,-0.28152661,-1.79554311

>  <Name>
ligand

>  <RI>
0

>  <Rbt.Current_Directory>
/home/itssahil/PROJECTS/Mol_Feturizer/New_Systems/rnas/3DIL

>  <Rbt.Executable>
rbdock ($Id: //depot/dev/client3/rdock/2013.1/src/exe/rbdock.cxx#4 $)

>  <Rbt.Library>
libRbt.so (2013.1, Build901 2013/11/27)

>  <Rbt.Parameter_File>
/export/apps/rDock/src/rDock_2013.1_src/data/scripts/dock_solv.prm

>  <Rbt.Receptor>
prm/pocket_docking_6.prm

>  <SCORE>
-8.69014

>  <SCORE.INTER>
-7.25303

>  <SCORE.INTER.CONST>
1

>  <SCORE.INTER.POLAR>
0

>  <SCORE.INTER.ROT>
5

>  <SCORE.INTER.SOLV>
18.7836

>  <SCORE.INTER.VDW>
-18.0299

>  <SCORE.INTER.norm>
-0.725303

>  <SCORE.INTRA>
-1.43711

>  <SCORE.INTRA.DIHEDRAL>
-1.23001

>  <SCORE.INTRA.DIHEDRAL.0>
2.93688

>  <SCORE.INTRA.POLAR>
0

>  <SCORE.INTRA.POLAR.0>
0

>  <SCORE.INTRA.REPUL>
0

>  <SCORE.INTRA.REPUL.0>
0

>  <SCORE.INTRA.SOLV>
-1.50166

>  <SCORE.INTRA.SOLV.lig_0>
-32.2816

>  <SCORE.INTRA.VDW>
-0.0712795

>  <SCORE.INTRA.VDW.0>
-0.749945

>  <SCORE.INTRA.norm>
-0.143711

>  <SCORE.RESTR>
0

>  <SCORE.RESTR.CAVITY>
0

>  <SCORE.RESTR.norm>
0

>  <SCORE.SYSTEM>
0

>  <SCORE.SYSTEM.CONST>
0

>  <SCORE.SYSTEM.DIHEDRAL>
0

>  <SCORE.SYSTEM.SOLV>
0

>  <SCORE.SYSTEM.norm>
0

>  <SCORE.heavy>
10

>  <SCORE.norm>
-0.869014

>  <RMSD>
5.618

$$$$
ligand
 OpenBabel11021811473D
libRbt.so/2013.1/901 2013/11/27
 10  9  0  0  0  0  0  0  0  0999 V2000
   25.7640   15.2016   20.2990 N   0  0  0  0  0  0  0  0  0  0  0  0
   27.0260   15.8245   19.7990 C   0  0  2  0  0  0  0  0  0  0  0  0
   27.4888   15.1753   18.4951 C   0  0  0  0  0  0  0  0  0  0  0  0
   28.1660   15.7989   17.6797 O   0  0  0  0  0  0  0  0  0  0  0  0
   28.1193   15.7836   20.8733 C   0  0  0  0  0  0  0  0  0  0  0  0
   29.3933   16.5177   20.4562 C   0  0  0  0  0  0  0  0  0  0  0  0
   30.4637   16.4900   21.5387 C   0  0  0  0  0  0  0  0  0  0  0  0
   31.7394   17.1830   21.0703 C   0  0  0  0  0  0  0  0  0  0  0  0
   32.7983   17.2594   22.1352 N   0  0  0  0  0  0  0  0  0  0  0  0
   27.2306   14.0011   18.2145 O   0  0  0  0  0  0  0  0  0  0  0  0
  2  1  1  1  0  0  0
  2  3  1  0  0  0  0
  2  5  1  0  0  0  0
  3  4  1  0  0  0  0
  3 10  1  0  0  0  0
  5  6  1  0  0  0  0
  6  7  1  0  0  0  0
  7  8  1  0  0  0  0
  8  9  1  0  0  0  0
M  END
>  <CHROM.1>
153.02379066,-174.95920317,179.08008237,177.77666631,176.34498132,28.81928939
15.90620434,20.02095530,2.58276680,-0.27343721,-1.80390564

>  <Name>
ligand

>  <RI>
0

>  <Rbt.Current_Directory>
/home/itssahil/PROJECTS/Mol_Feturizer/New_Systems/rnas/3DIL

>  <Rbt.Executable>
rbdock ($Id: //depot/dev/client3/rdock/2013.1/src/exe/rbdock.cxx#4 $)

>  <Rbt.Library>
libRbt.so (2013.1, Build901 2013/11/27)

>  <Rbt.Parameter_File>
/export/apps/rDock/src/rDock_2013.1_src/data/scripts/dock_solv.prm

>  <Rbt.Receptor>
prm/pocket_docking_8.prm

>  <SCORE>
-8.72651

>  <SCORE.INTER>
-7.29374

>  <SCORE.INTER.CONST>
1

>  <SCORE.INTER.POLAR>
0

>  <SCORE.INTER.ROT>
5

>  <SCORE.INTER.SOLV>
18.7223

>  <SCORE.INTER.VDW>
-18.0366

>  <SCORE.INTER.norm>
-0.729374

>  <SCORE.INTRA>
-1.43276

>  <SCORE.INTRA.DIHEDRAL>
-1.31999

>  <SCORE.INTRA.DIHEDRAL.0>
2.93688

>  <SCORE.INTRA.POLAR>
0

>  <SCORE.INTRA.POLAR.0>
0

>  <SCORE.INTRA.REPUL>
0

>  <SCORE.INTRA.REPUL.0>
0

>  <SCORE.INTRA.SOLV>
-1.50243

>  <SCORE.INTRA.SOLV.lig_0>
-32.2816

>  <SCORE.INTRA.VDW>
-0.0215502

>  <SCORE.INTRA.VDW.0>
-0.749945

>  <SCORE.INTRA.norm>
-0.143276

>  <SCORE.RESTR>
0

>  <SCORE.RESTR.CAVITY>
0

>  <SCORE.RESTR.norm>
0

>  <SCORE.SYSTEM>
0

>  <SCORE.SYSTEM.CONST>
0

>  <SCORE.SYSTEM.DIHEDRAL>
0

>  <SCORE.SYSTEM.SOLV>
0

>  <SCORE.SYSTEM.norm>
0

>  <SCORE.heavy>
10

>  <SCORE.norm>
-0.872651

>  <RMSD>
5.618

$$$$
ligand
 OpenBabel11021811473D
libRbt.so/2013.1/901 2013/11/27
 10  9  0  0  0  0  0  0  0  0999 V2000
   25.7604   15.2082   20.3111 N   0  0  0  0  0  0  0  0  0  0  0  0
   27.0165   15.8431   19.8114 C   0  0  2  0  0  0  0  0  0  0  0  0
   27.4725   15.2147   18.4950 C   0  0  0  0  0  0  0  0  0  0  0  0
   28.1440   15.8518   17.6853 O   0  0  0  0  0  0  0  0  0  0  0  0
   28.1175   15.7910   20.8773 C   0  0  0  0  0  0  0  0  0  0  0  0
   29.3737   16.5632   20.4758 C   0  0  0  0  0  0  0  0  0  0  0  0
   30.4646   16.4948   21.5357 C   0  0  0  0  0  0  0  0  0  0  0  0
   31.7153   17.2454   21.0890 C   0  0  0  0  0  0  0  0  0  0  0  0
   32.8069   17.2478   22.1231 N   0  0  0  0  0  0  0  0  0  0  0  0
   27.2144   14.0445   18.1981 O   0  0  0  0  0  0  0  0  0  0  0  0
  2  1  1  1  0  0  0
  2  3  1  0  0  0  0
  2  5  1  0  0  0  0
  3  4  1  0  0  0  0
  3 10  1  0  0  0  0
  5  6  1  0  0  0  0
  6  7  1  0  0  0  0
  7  8  1  0  0  0  0
  8  9  1  0  0  0  0
M  END
>  <CHROM.1>
153.17790089,-173.62235017,-179.50563448,178.57650148,178.00081432,28.80875464
15.93362614,20.02477056,2.58767820,-0.27985409,-1.78835521

>  <Name>
ligand

>  <RI>
0

>  <Rbt.Current_Directory>
/home/itssahil/PROJECTS/Mol_Feturizer/New_Systems/rnas/3DIL

>  <Rbt.Executable>
rbdock ($Id: //depot/dev/client3/rdock/2013.1/src/exe/rbdock.cxx#4 $)

>  <Rbt.Library>
libRbt.so (2013.1, Build901 2013/11/27)

>  <Rbt.Parameter_File>
/export/apps/rDock/src/rDock_2013.1_src/data/scripts/dock_solv.prm

>  <Rbt.Receptor>
prm/pocket_docking_6.prm

>  <SCORE>
-8.67555

>  <SCORE.INTER>
-7.2169

>  <SCORE.INTER.CONST>
1

>  <SCORE.INTER.POLAR>
0

>  <SCORE.INTER.ROT>
5

>  <SCORE.INTER.SOLV>
18.7821

>  <SCORE.INTER.VDW>
-18.0053

>  <SCORE.INTER.norm>
-0.72169

>  <SCORE.INTRA>
-1.45865

>  <SCORE.INTRA.DIHEDRAL>
-1.31386

>  <SCORE.INTRA.DIHEDRAL.0>
2.93688

>  <SCORE.INTRA.POLAR>
0

>  <SCORE.INTRA.POLAR.0>
0

>  <SCORE.INTRA.REPUL>
0

>  <SCORE.INTRA.REPUL.0>
0

>  <SCORE.INTRA.SOLV>
-1.50189

>  <SCORE.INTRA.SOLV.lig_0>
-32.2816

>  <SCORE.INTRA.VDW>
-0.0507784

>  <SCORE.INTRA.VDW.0>
-0.749945

>  <SCORE.INTRA.norm>
-0.145865

>  <SCORE.RESTR>
0

>  <SCORE.RESTR.CAVITY>
0

>  <SCORE.RESTR.norm>
0

>  <SCORE.SYSTEM>
0

>  <SCORE.SYSTEM.CONST>
0

>  <SCORE.SYSTEM.DIHEDRAL>
0

>  <SCORE.SYSTEM.SOLV>
0

>  <SCORE.SYSTEM.norm>
0

>  <SCORE.heavy>
10

>  <SCORE.norm>
-0.867555

>  <RMSD>
5.620

$$$$
ligand
 OpenBabel11021811473D
libRbt.so/2013.1/901 2013/11/27
 10  9  0  0  0  0  0  0  0  0999 V2000
   26.9358   14.6406   20.2605 N   0  0  0  0  0  0  0  0  0  0  0  0
   27.1755   15.6289   19.1667 C   0  0  2  0  0  0  0  0  0  0  0  0
   27.7136   14.9476   17.9089 C   0  0  0  0  0  0  0  0  0  0  0  0
   27.6860   13.7241   17.7873 O   0  0  0  0  0  0  0  0  0  0  0  0
   28.0992   16.7569   19.6413 C   0  0  0  0  0  0  0  0  0  0  0  0
   29.4603   16.2522   20.1194 C   0  0  0  0  0  0  0  0  0  0  0  0
   30.3216   17.3627   20.7052 C   0  0  0  0  0  0  0  0  0  0  0  0
   31.7089   16.8472   21.0754 C   0  0  0  0  0  0  0  0  0  0  0  0
   32.5698   17.8856   21.7400 N   0  0  0  0  0  0  0  0  0  0  0  0
   28.1709   15.5864   16.9566 O   0  0  0  0  0  0  0  0  0  0  0  0
  2  1  1  1  0  0  0
  2  3  1  0  0  0  0
  2  5  1  0  0  0  0
  3  4  1  0  0  0  0
  3 10  1  0  0  0  0
  5  6  1  0  0  0  0
  6  7  1  0  0  0  0
  7  8  1  0  0  0  0
  8  9  1  0  0  0  0
M  END
>  <CHROM.1>
12.66500914,58.91884167,-174.80452975,-175.73334676,-176.31616390,28.98549532
15.94346585,19.50106387,2.46442351,-0.41386455,-1.81343071

>  <Name>
ligand

>  <RI>
0

>  <Rbt.Current_Directory>
/home/itssahil/PROJECTS/Mol_Feturizer/New_Systems/rnas/3DIL

>  <Rbt.Executable>
rbdock ($Id: //depot/dev/client3/rdock/2013.1/src/exe/rbdock.cxx#4 $)

>  <Rbt.Library>
libRbt.so (2013.1, Build901 2013/11/27)

>  <Rbt.Parameter_File>
/export/apps/rDock/src/rDock_2013.1_src/data/scripts/dock_solv.prm

>  <Rbt.Receptor>
prm/pocket_docking_7.prm

>  <SCORE>
-9.00198

>  <SCORE.INTER>
-8.39632

>  <SCORE.INTER.CONST>
1

>  <SCORE.INTER.POLAR>
0

>  <SCORE.INTER.ROT>
5

>  <SCORE.INTER.SOLV>
14.6611

>  <SCORE.INTER.VDW>
-17.4179

>  <SCORE.INTER.norm>
-0.839632

>  <SCORE.INTRA>
-0.605656

>  <SCORE.INTRA.DIHEDRAL>
-1.21096

>  <SCORE.INTRA.DIHEDRAL.0>
2.93688

>  <SCORE.INTRA.POLAR>
0

>  <SCORE.INTRA.POLAR.0>
0

>  <SCORE.INTRA.REPUL>
0

>  <SCORE.INTRA.REPUL.0>
0

>  <SCORE.INTRA.SOLV>
-0.543763

>  <SCORE.INTRA.SOLV.lig_0>
-32.2816

>  <SCORE.INTRA.VDW>
0.271707

>  <SCORE.INTRA.VDW.0>
-0.749945

>  <SCORE.INTRA.norm>
-0.0605656

>  <SCORE.RESTR>
0

>  <SCORE.RESTR.CAVITY>
0

>  <SCORE.RESTR.norm>
0

>  <SCORE.SYSTEM>
0

>  <SCORE.SYSTEM.CONST>
0

>  <SCORE.SYSTEM.DIHEDRAL>
0

>  <SCORE.SYSTEM.SOLV>
0

>  <SCORE.SYSTEM.norm>
0

>  <SCORE.heavy>
10

>  <SCORE.norm>
-0.900198

>  <RMSD>
5.622

$$$$
ligand
 OpenBabel11021811473D
libRbt.so/2013.1/901 2013/11/27
 10  9  0  0  0  0  0  0  0  0999 V2000
   25.7822   15.2067   20.3048 N   0  0  0  0  0  0  0  0  0  0  0  0
   27.0487   15.8137   19.7968 C   0  0  2  0  0  0  0  0  0  0  0  0
   27.4996   15.1528   18.4945 C   0  0  0  0  0  0  0  0  0  0  0  0
   27.2303   13.9777   18.2515 O   0  0  0  0  0  0  0  0  0  0  0  0
   28.1456   15.7672   20.8671 C   0  0  0  0  0  0  0  0  0  0  0  0
   29.4086   16.5255   20.4603 C   0  0  0  0  0  0  0  0  0  0  0  0
   30.4850   16.4861   21.5364 C   0  0  0  0  0  0  0  0  0  0  0  0
   31.7468   17.2125   21.0810 C   0  0  0  0  0  0  0  0  0  0  0  0
   32.8240   17.2448   22.1296 N   0  0  0  0  0  0  0  0  0  0  0  0
   28.1241   15.7669   17.6246 O   0  0  0  0  0  0  0  0  0  0  0  0
  2  1  1  1  0  0  0
  2  3  1  0  0  0  0
  2  5  1  0  0  0  0
  3  4  1  0  0  0  0
  3 10  1  0  0  0  0
  5  6  1  0  0  0  0
  6  7  1  0  0  0  0
  7  8  1  0  0  0  0
  8  9  1  0  0  0  0
M  END
>  <CHROM.1>
-29.31114479,-173.03737576,179.34784767,178.15555741,177.91735930,28.82885577
15.89777865,20.01928208,2.58223718,-0.27776073,-1.79988763

>  <Name>
ligand

>  <RI>
0

>  <Rbt.Current_Directory>
/home/itssahil/PROJECTS/Mol_Feturizer/New_Systems/rnas/3DIL

>  <Rbt.Executable>
rbdock ($Id: //depot/dev/client3/rdock/2013.1/src/exe/rbdock.cxx#4 $)

>  <Rbt.Library>
libRbt.so (2013.1, Build901 2013/11/27)

>  <Rbt.Parameter_File>
/export/apps/rDock/src/rDock_2013.1_src/data/scripts/dock_solv.prm

>  <Rbt.Receptor>
prm/blind_docking_100.prm

>  <SCORE>
-8.73426

>  <SCORE.INTER>
-7.33749

>  <SCORE.INTER.CONST>
1

>  <SCORE.INTER.POLAR>
0

>  <SCORE.INTER.ROT>
5

>  <SCORE.INTER.SOLV>
18.7538

>  <SCORE.INTER.VDW>
-18.0763

>  <SCORE.INTER.norm>
-0.733749

>  <SCORE.INTRA>
-1.39677

>  <SCORE.INTRA.DIHEDRAL>
-1.16887

>  <SCORE.INTRA.DIHEDRAL.0>
2.93688

>  <SCORE.INTRA.POLAR>
0

>  <SCORE.INTRA.POLAR.0>
0

>  <SCORE.INTRA.REPUL>
0

>  <SCORE.INTRA.REPUL.0>
0

>  <SCORE.INTRA.SOLV>
-1.48894

>  <SCORE.INTRA.SOLV.lig_0>
-32.2816

>  <SCORE.INTRA.VDW>
-0.0678642

>  <SCORE.INTRA.VDW.0>
-0.749945

>  <SCORE.INTRA.norm>
-0.139677

>  <SCORE.RESTR>
0

>  <SCORE.RESTR.CAVITY>
0

>  <SCORE.RESTR.norm>
0

>  <SCORE.SYSTEM>
0

>  <SCORE.SYSTEM.CONST>
0

>  <SCORE.SYSTEM.DIHEDRAL>
0

>  <SCORE.SYSTEM.SOLV>
0

>  <SCORE.SYSTEM.norm>
0

>  <SCORE.heavy>
10

>  <SCORE.norm>
-0.873426

>  <RMSD>
5.625

$$$$
ligand
 OpenBabel11021811473D
libRbt.so/2013.1/901 2013/11/27
 10  9  0  0  0  0  0  0  0  0999 V2000
   27.9746   15.6199   22.0116 N   0  0  0  0  0  0  0  0  0  0  0  0
   27.9512   15.9885   20.5644 C   0  0  2  0  0  0  0  0  0  0  0  0
   26.8278   15.2642   19.8234 C   0  0  0  0  0  0  0  0  0  0  0  0
   25.7442   15.0502   20.3642 O   0  0  0  0  0  0  0  0  0  0  0  0
   29.3163   15.7361   19.9135 C   0  0  0  0  0  0  0  0  0  0  0  0
   30.4329   16.5850   20.5205 C   0  0  0  0  0  0  0  0  0  0  0  0
   31.8139   16.1665   20.0349 C   0  0  0  0  0  0  0  0  0  0  0  0
   32.8936   17.1012   20.5713 C   0  0  0  0  0  0  0  0  0  0  0  0
   32.9455   17.1475   22.0734 N   0  0  0  0  0  0  0  0  0  0  0  0
   26.9441   14.8885   18.6532 O   0  0  0  0  0  0  0  0  0  0  0  0
  2  1  1  1  0  0  0
  2  3  1  0  0  0  0
  2  5  1  0  0  0  0
  3  4  1  0  0  0  0
  3 10  1  0  0  0  0
  5  6  1  0  0  0  0
  6  7  1  0  0  0  0
  7  8  1  0  0  0  0
  8  9  1  0  0  0  0
M  END
>  <CHROM.1>
36.16561622,-62.40050081,170.46208639,175.49567152,59.22383857,29.24649215
15.93671780,20.43437720,2.91985168,-0.24850556,-1.76284859

>  <Name>
ligand

>  <RI>
0

>  <Rbt.Current_Directory>
/home/itssahil/PROJECTS/Mol_Feturizer/New_Systems/rnas/3DIL

>  <Rbt.Executable>
rbdock ($Id: //depot/dev/client3/rdock/2013.1/src/exe/rbdock.cxx#4 $)

>  <Rbt.Library>
libRbt.so (2013.1, Build901 2013/11/27)

>  <Rbt.Parameter_File>
/export/apps/rDock/src/rDock_2013.1_src/data/scripts/dock_solv.prm

>  <Rbt.Receptor>
prm/pocket_docking_2.prm

>  <SCORE>
-7.41257

>  <SCORE.INTER>
-7.64558

>  <SCORE.INTER.CONST>
1

>  <SCORE.INTER.POLAR>
0

>  <SCORE.INTER.ROT>
5

>  <SCORE.INTER.SOLV>
16.5478

>  <SCORE.INTER.VDW>
-17.5463

>  <SCORE.INTER.norm>
-0.764558

>  <SCORE.INTRA>
0.233015

>  <SCORE.INTRA.DIHEDRAL>
-0.991603

>  <SCORE.INTRA.DIHEDRAL.0>
2.93688

>  <SCORE.INTRA.POLAR>
0

>  <SCORE.INTRA.POLAR.0>
0

>  <SCORE.INTRA.REPUL>
0

>  <SCORE.INTRA.REPUL.0>
0

>  <SCORE.INTRA.SOLV>
0.365141

>  <SCORE.INTRA.SOLV.lig_0>
-32.2816

>  <SCORE.INTRA.VDW>
0.546246

>  <SCORE.INTRA.VDW.0>
-0.749945

>  <SCORE.INTRA.norm>
0.0233015

>  <SCORE.RESTR>
0

>  <SCORE.RESTR.CAVITY>
0

>  <SCORE.RESTR.norm>
0

>  <SCORE.SYSTEM>
0

>  <SCORE.SYSTEM.CONST>
0

>  <SCORE.SYSTEM.DIHEDRAL>
0

>  <SCORE.SYSTEM.SOLV>
0

>  <SCORE.SYSTEM.norm>
0

>  <SCORE.heavy>
10

>  <SCORE.norm>
-0.741257

>  <RMSD>
5.626

$$$$
ligand
 OpenBabel11021811473D
libRbt.so/2013.1/901 2013/11/27
 10  9  0  0  0  0  0  0  0  0999 V2000
   25.7651   15.2068   20.3129 N   0  0  0  0  0  0  0  0  0  0  0  0
   27.0275   15.8224   19.8051 C   0  0  2  0  0  0  0  0  0  0  0  0
   27.4839   15.1636   18.5037 C   0  0  0  0  0  0  0  0  0  0  0  0
   27.2080   13.9915   18.2537 O   0  0  0  0  0  0  0  0  0  0  0  0
   28.1241   15.7845   20.8761 C   0  0  0  0  0  0  0  0  0  0  0  0
   29.3966   16.5178   20.4534 C   0  0  0  0  0  0  0  0  0  0  0  0
   30.4728   16.4873   21.5299 C   0  0  0  0  0  0  0  0  0  0  0  0
   31.7460   17.1818   21.0567 C   0  0  0  0  0  0  0  0  0  0  0  0
   32.8165   17.2411   22.1110 N   0  0  0  0  0  0  0  0  0  0  0  0
   28.1198   15.7768   17.6413 O   0  0  0  0  0  0  0  0  0  0  0  0
  2  1  1  1  0  0  0
  2  3  1  0  0  0  0
  2  5  1  0  0  0  0
  3  4  1  0  0  0  0
  3 10  1  0  0  0  0
  5  6  1  0  0  0  0
  6  7  1  0  0  0  0
  7  8  1  0  0  0  0
  8  9  1  0  0  0  0
M  END
>  <CHROM.1>
-28.34468452,-174.66492806,179.36228365,177.87741163,177.01899865,28.81547855
15.89983466,20.01908068,2.58837427,-0.27448571,-1.80010709

>  <Name>
ligand

>  <RI>
0

>  <Rbt.Current_Directory>
/home/itssahil/PROJECTS/Mol_Feturizer/New_Systems/rnas/3DIL

>  <Rbt.Executable>
rbdock ($Id: //depot/dev/client3/rdock/2013.1/src/exe/rbdock.cxx#4 $)

>  <Rbt.Library>
libRbt.so (2013.1, Build901 2013/11/27)

>  <Rbt.Parameter_File>
/export/apps/rDock/src/rDock_2013.1_src/data/scripts/dock_solv.prm

>  <Rbt.Receptor>
prm/pocket_docking_5.prm

>  <SCORE>
-8.74257

>  <SCORE.INTER>
-7.3599

>  <SCORE.INTER.CONST>
1

>  <SCORE.INTER.POLAR>
0

>  <SCORE.INTER.ROT>
5

>  <SCORE.INTER.SOLV>
18.7498

>  <SCORE.INTER.VDW>
-18.0899

>  <SCORE.INTER.norm>
-0.73599

>  <SCORE.INTRA>
-1.38268

>  <SCORE.INTRA.DIHEDRAL>
-1.22082

>  <SCORE.INTRA.DIHEDRAL.0>
2.93688

>  <SCORE.INTRA.POLAR>
0

>  <SCORE.INTRA.POLAR.0>
0

>  <SCORE.INTRA.REPUL>
0

>  <SCORE.INTRA.REPUL.0>
0

>  <SCORE.INTRA.SOLV>
-1.4897

>  <SCORE.INTRA.SOLV.lig_0>
-32.2816

>  <SCORE.INTRA.VDW>
-0.0274175

>  <SCORE.INTRA.VDW.0>
-0.749945

>  <SCORE.INTRA.norm>
-0.138268

>  <SCORE.RESTR>
0

>  <SCORE.RESTR.CAVITY>
0

>  <SCORE.RESTR.norm>
0

>  <SCORE.SYSTEM>
0

>  <SCORE.SYSTEM.CONST>
0

>  <SCORE.SYSTEM.DIHEDRAL>
0

>  <SCORE.SYSTEM.SOLV>
0

>  <SCORE.SYSTEM.norm>
0

>  <SCORE.heavy>
10

>  <SCORE.norm>
-0.874257

>  <RMSD>
5.626

$$$$
ligand
 OpenBabel11021811473D
libRbt.so/2013.1/901 2013/11/27
 10  9  0  0  0  0  0  0  0  0999 V2000
   25.7621   15.1792   20.3094 N   0  0  0  0  0  0  0  0  0  0  0  0
   27.0172   15.8103   19.8024 C   0  0  2  0  0  0  0  0  0  0  0  0
   27.4695   15.1731   18.4889 C   0  0  0  0  0  0  0  0  0  0  0  0
   28.1398   15.8045   17.6737 O   0  0  0  0  0  0  0  0  0  0  0  0
   28.1208   15.7645   20.8658 C   0  0  0  0  0  0  0  0  0  0  0  0
   29.3881   16.5068   20.4428 C   0  0  0  0  0  0  0  0  0  0  0  0
   30.4620   16.4899   21.5220 C   0  0  0  0  0  0  0  0  0  0  0  0
   31.7197   17.2191   21.0596 C   0  0  0  0  0  0  0  0  0  0  0  0
   32.7876   17.2883   22.1160 N   0  0  0  0  0  0  0  0  0  0  0  0
   27.2096   14.0014   18.1999 O   0  0  0  0  0  0  0  0  0  0  0  0
  2  1  1  1  0  0  0
  2  3  1  0  0  0  0
  2  5  1  0  0  0  0
  3  4  1  0  0  0  0
  3 10  1  0  0  0  0
  5  6  1  0  0  0  0
  6  7  1  0  0  0  0
  7  8  1  0  0  0  0
  8  9  1  0  0  0  0
M  END
>  <CHROM.1>
153.21382281,-174.92675088,178.31453127,179.08959362,177.20633098,28.80772290
15.90662538,20.01273359,2.58683852,-0.28550307,-1.79402596

>  <Name>
ligand

>  <RI>
0

>  <Rbt.Current_Directory>
/home/itssahil/PROJECTS/Mol_Feturizer/New_Systems/rnas/3DIL

>  <Rbt.Executable>
rbdock ($Id: //depot/dev/client3/rdock/2013.1/src/exe/rbdock.cxx#4 $)

>  <Rbt.Library>
libRbt.so (2013.1, Build901 2013/11/27)

>  <Rbt.Parameter_File>
/export/apps/rDock/src/rDock_2013.1_src/data/scripts/dock_solv.prm

>  <Rbt.Receptor>
prm/blind_docking_100.prm

>  <SCORE>
-8.66145

>  <SCORE.INTER>
-7.21663

>  <SCORE.INTER.CONST>
1

>  <SCORE.INTER.POLAR>
0

>  <SCORE.INTER.ROT>
5

>  <SCORE.INTER.SOLV>
18.6608

>  <SCORE.INTER.VDW>
-17.9647

>  <SCORE.INTER.norm>
-0.721663

>  <SCORE.INTRA>
-1.44483

>  <SCORE.INTRA.DIHEDRAL>
-1.34853

>  <SCORE.INTRA.DIHEDRAL.0>
2.93688

>  <SCORE.INTRA.POLAR>
0

>  <SCORE.INTRA.POLAR.0>
0

>  <SCORE.INTRA.REPUL>
0

>  <SCORE.INTRA.REPUL.0>
0

>  <SCORE.INTRA.SOLV>
-1.50268

>  <SCORE.INTRA.SOLV.lig_0>
-32.2816

>  <SCORE.INTRA.VDW>
-0.0192226

>  <SCORE.INTRA.VDW.0>
-0.749945

>  <SCORE.INTRA.norm>
-0.144483

>  <SCORE.RESTR>
0

>  <SCORE.RESTR.CAVITY>
0

>  <SCORE.RESTR.norm>
0

>  <SCORE.SYSTEM>
0

>  <SCORE.SYSTEM.CONST>
0

>  <SCORE.SYSTEM.DIHEDRAL>
0

>  <SCORE.SYSTEM.SOLV>
0

>  <SCORE.SYSTEM.norm>
0

>  <SCORE.heavy>
10

>  <SCORE.norm>
-0.866145

>  <RMSD>
5.627

$$$$
ligand
 OpenBabel11021811473D
libRbt.so/2013.1/901 2013/11/27
 10  9  0  0  0  0  0  0  0  0999 V2000
   27.1186   14.4044   17.9778 N   0  0  0  0  0  0  0  0  0  0  0  0
   27.6389   14.6840   19.3496 C   0  0  2  0  0  0  0  0  0  0  0  0
   26.5128   15.0892   20.3002 C   0  0  0  0  0  0  0  0  0  0  0  0
   25.4904   15.6291   19.8811 O   0  0  0  0  0  0  0  0  0  0  0  0
   28.7535   15.7360   19.3081 C   0  0  0  0  0  0  0  0  0  0  0  0
   29.4459   15.9252   20.6575 C   0  0  0  0  0  0  0  0  0  0  0  0
   30.5664   16.9543   20.5992 C   0  0  0  0  0  0  0  0  0  0  0  0
   31.3280   17.0155   21.9197 C   0  0  0  0  0  0  0  0  0  0  0  0
   32.4606   18.0045   21.9061 N   0  0  0  0  0  0  0  0  0  0  0  0
   26.5640   14.8721   21.5144 O   0  0  0  0  0  0  0  0  0  0  0  0
  2  1  1  6  0  0  0
  2  3  1  0  0  0  0
  2  5  1  0  0  0  0
  3  4  1  0  0  0  0
  3 10  1  0  0  0  0
  5  6  1  0  0  0  0
  6  7  1  0  0  0  0
  7  8  1  0  0  0  0
  8  9  1  0  0  0  0
M  END
>  <CHROM.1>
-27.25488764,-172.44174162,179.01701626,-174.17933047,179.12425698,28.55240560
15.83387803,20.35911803,-2.70693374,0.32710118,1.27209188

>  <Name>
ligand

>  <RI>
0

>  <Rbt.Current_Directory>
/home/itssahil/PROJECTS/Mol_Feturizer/New_Systems/rnas/3DIL

>  <Rbt.Executable>
rbdock ($Id: //depot/dev/client3/rdock/2013.1/src/exe/rbdock.cxx#4 $)

>  <Rbt.Library>
libRbt.so (2013.1, Build901 2013/11/27)

>  <Rbt.Parameter_File>
/export/apps/rDock/src/rDock_2013.1_src/data/scripts/dock_solv.prm

>  <Rbt.Receptor>
prm/pocket_docking_4.prm

>  <SCORE>
-9.48167

>  <SCORE.INTER>
-8.1821

>  <SCORE.INTER.CONST>
1

>  <SCORE.INTER.POLAR>
0

>  <SCORE.INTER.ROT>
5

>  <SCORE.INTER.SOLV>
15.7416

>  <SCORE.INTER.VDW>
-17.6353

>  <SCORE.INTER.norm>
-0.81821

>  <SCORE.INTRA>
-1.29957

>  <SCORE.INTRA.DIHEDRAL>
-1.0215

>  <SCORE.INTRA.DIHEDRAL.0>
2.93688

>  <SCORE.INTRA.POLAR>
0

>  <SCORE.INTRA.POLAR.0>
0

>  <SCORE.INTRA.REPUL>
0

>  <SCORE.INTRA.REPUL.0>
0

>  <SCORE.INTRA.SOLV>
-1.48785

>  <SCORE.INTRA.SOLV.lig_0>
-32.2816

>  <SCORE.INTRA.VDW>
-0.0449011

>  <SCORE.INTRA.VDW.0>
-0.749945

>  <SCORE.INTRA.norm>
-0.129957

>  <SCORE.RESTR>
0

>  <SCORE.RESTR.CAVITY>
0

>  <SCORE.RESTR.norm>
0

>  <SCORE.SYSTEM>
0

>  <SCORE.SYSTEM.CONST>
0

>  <SCORE.SYSTEM.DIHEDRAL>
0

>  <SCORE.SYSTEM.SOLV>
0

>  <SCORE.SYSTEM.norm>
0

>  <SCORE.heavy>
10

>  <SCORE.norm>
-0.948167

>  <RMSD>
5.628

$$$$
ligand
 OpenBabel11021811473D
libRbt.so/2013.1/901 2013/11/27
 10  9  0  0  0  0  0  0  0  0999 V2000
   27.9079   15.5957   22.0594 N   0  0  0  0  0  0  0  0  0  0  0  0
   27.9152   16.0037   20.6227 C   0  0  2  0  0  0  0  0  0  0  0  0
   26.7848   15.3286   19.8466 C   0  0  0  0  0  0  0  0  0  0  0  0
   26.9693   14.8791   18.7169 O   0  0  0  0  0  0  0  0  0  0  0  0
   29.2828   15.7339   19.9842 C   0  0  0  0  0  0  0  0  0  0  0  0
   30.4031   16.5745   20.5961 C   0  0  0  0  0  0  0  0  0  0  0  0
   31.7795   16.1760   20.0812 C   0  0  0  0  0  0  0  0  0  0  0  0
   32.8656   17.0814   20.6537 C   0  0  0  0  0  0  0  0  0  0  0  0
   32.9197   17.0660   22.1564 N   0  0  0  0  0  0  0  0  0  0  0  0
   25.6548   15.1807   20.3214 O   0  0  0  0  0  0  0  0  0  0  0  0
  2  1  1  1  0  0  0
  2  3  1  0  0  0  0
  2  5  1  0  0  0  0
  3  4  1  0  0  0  0
  3 10  1  0  0  0  0
  5  6  1  0  0  0  0
  6  7  1  0  0  0  0
  7  8  1  0  0  0  0
  8  9  1  0  0  0  0
M  END
>  <CHROM.1>
-138.41092382,-64.47322444,172.75885097,176.97295299,58.68252646,29.21055959
15.94452865,20.48441737,2.91498057,-0.23137318,-1.76395010

>  <Name>
ligand

>  <RI>
0

>  <Rbt.Current_Directory>
/home/itssahil/PROJECTS/Mol_Feturizer/New_Systems/rnas/3DIL

>  <Rbt.Executable>
rbdock ($Id: //depot/dev/client3/rdock/2013.1/src/exe/rbdock.cxx#4 $)

>  <Rbt.Library>
libRbt.so (2013.1, Build901 2013/11/27)

>  <Rbt.Parameter_File>
/export/apps/rDock/src/rDock_2013.1_src/data/scripts/dock_solv.prm

>  <Rbt.Receptor>
prm/pocket_docking_6.prm

>  <SCORE>
-7.34354

>  <SCORE.INTER>
-7.67685

>  <SCORE.INTER.CONST>
1

>  <SCORE.INTER.POLAR>
0

>  <SCORE.INTER.ROT>
5

>  <SCORE.INTER.SOLV>
16.975

>  <SCORE.INTER.VDW>
-17.7096

>  <SCORE.INTER.norm>
-0.767685

>  <SCORE.INTRA>
0.333311

>  <SCORE.INTRA.DIHEDRAL>
-1.02977

>  <SCORE.INTRA.DIHEDRAL.0>
2.93688

>  <SCORE.INTRA.POLAR>
0

>  <SCORE.INTRA.POLAR.0>
0

>  <SCORE.INTRA.REPUL>
0

>  <SCORE.INTRA.REPUL.0>
0

>  <SCORE.INTRA.SOLV>
0.338005

>  <SCORE.INTRA.SOLV.lig_0>
-32.2816

>  <SCORE.INTRA.VDW>
0.679194

>  <SCORE.INTRA.VDW.0>
-0.749945

>  <SCORE.INTRA.norm>
0.0333311

>  <SCORE.RESTR>
0

>  <SCORE.RESTR.CAVITY>
0

>  <SCORE.RESTR.norm>
0

>  <SCORE.SYSTEM>
0

>  <SCORE.SYSTEM.CONST>
0

>  <SCORE.SYSTEM.DIHEDRAL>
0

>  <SCORE.SYSTEM.SOLV>
0

>  <SCORE.SYSTEM.norm>
0

>  <SCORE.heavy>
10

>  <SCORE.norm>
-0.734354

>  <RMSD>
5.628

$$$$
ligand
 OpenBabel11021811473D
libRbt.so/2013.1/901 2013/11/27
 10  9  0  0  0  0  0  0  0  0999 V2000
   25.7631   15.2024   20.3132 N   0  0  0  0  0  0  0  0  0  0  0  0
   27.0202   15.8276   19.8037 C   0  0  2  0  0  0  0  0  0  0  0  0
   27.4689   15.1858   18.4912 C   0  0  0  0  0  0  0  0  0  0  0  0
   27.1381   14.0380   18.1990 O   0  0  0  0  0  0  0  0  0  0  0  0
   28.1246   15.7799   20.8662 C   0  0  0  0  0  0  0  0  0  0  0  0
   29.3914   16.5231   20.4437 C   0  0  0  0  0  0  0  0  0  0  0  0
   30.4743   16.4855   21.5134 C   0  0  0  0  0  0  0  0  0  0  0  0
   31.7426   17.1880   21.0389 C   0  0  0  0  0  0  0  0  0  0  0  0
   32.8180   17.2437   22.0885 N   0  0  0  0  0  0  0  0  0  0  0  0
   28.1533   15.7909   17.6609 O   0  0  0  0  0  0  0  0  0  0  0  0
  2  1  1  1  0  0  0
  2  3  1  0  0  0  0
  2  5  1  0  0  0  0
  3  4  1  0  0  0  0
  3 10  1  0  0  0  0
  5  6  1  0  0  0  0
  6  7  1  0  0  0  0
  7  8  1  0  0  0  0
  8  9  1  0  0  0  0
M  END
>  <CHROM.1>
-24.67399594,-174.60243919,179.22386898,177.76255287,176.85996330,28.80870819
15.90939969,20.00635393,2.59419624,-0.27799615,-1.79057413

>  <Name>
ligand

>  <RI>
0

>  <Rbt.Current_Directory>
/home/itssahil/PROJECTS/Mol_Feturizer/New_Systems/rnas/3DIL

>  <Rbt.Executable>
rbdock ($Id: //depot/dev/client3/rdock/2013.1/src/exe/rbdock.cxx#4 $)

>  <Rbt.Library>
libRbt.so (2013.1, Build901 2013/11/27)

>  <Rbt.Parameter_File>
/export/apps/rDock/src/rDock_2013.1_src/data/scripts/dock_solv.prm

>  <Rbt.Receptor>
prm/pocket_docking_5.prm

>  <SCORE>
-8.66846

>  <SCORE.INTER>
-7.30544

>  <SCORE.INTER.CONST>
1

>  <SCORE.INTER.POLAR>
0

>  <SCORE.INTER.ROT>
5

>  <SCORE.INTER.SOLV>
18.7178

>  <SCORE.INTER.VDW>
-18.0429

>  <SCORE.INTER.norm>
-0.730544

>  <SCORE.INTRA>
-1.36302

>  <SCORE.INTRA.DIHEDRAL>
-1.21285

>  <SCORE.INTRA.DIHEDRAL.0>
2.93688

>  <SCORE.INTRA.POLAR>
0

>  <SCORE.INTRA.POLAR.0>
0

>  <SCORE.INTRA.REPUL>
0

>  <SCORE.INTRA.REPUL.0>
0

>  <SCORE.INTRA.SOLV>
-1.48838

>  <SCORE.INTRA.SOLV.lig_0>
-32.2816

>  <SCORE.INTRA.VDW>
-0.0124065

>  <SCORE.INTRA.VDW.0>
-0.749945

>  <SCORE.INTRA.norm>
-0.136302

>  <SCORE.RESTR>
0

>  <SCORE.RESTR.CAVITY>
0

>  <SCORE.RESTR.norm>
0

>  <SCORE.SYSTEM>
0

>  <SCORE.SYSTEM.CONST>
0

>  <SCORE.SYSTEM.DIHEDRAL>
0

>  <SCORE.SYSTEM.SOLV>
0

>  <SCORE.SYSTEM.norm>
0

>  <SCORE.heavy>
10

>  <SCORE.norm>
-0.866846

>  <RMSD>
5.629

$$$$
ligand
 OpenBabel11021811473D
libRbt.so/2013.1/901 2013/11/27
 10  9  0  0  0  0  0  0  0  0999 V2000
   27.0762   14.4748   17.9750 N   0  0  0  0  0  0  0  0  0  0  0  0
   27.6134   14.7228   19.3464 C   0  0  2  0  0  0  0  0  0  0  0  0
   26.4960   15.0804   20.3258 C   0  0  0  0  0  0  0  0  0  0  0  0
   26.6276   14.8976   21.5348 O   0  0  0  0  0  0  0  0  0  0  0  0
   28.7096   15.7945   19.3191 C   0  0  0  0  0  0  0  0  0  0  0  0
   29.4535   15.9210   20.6481 C   0  0  0  0  0  0  0  0  0  0  0  0
   30.5669   16.9583   20.5973 C   0  0  0  0  0  0  0  0  0  0  0  0
   31.3278   17.0155   21.9183 C   0  0  0  0  0  0  0  0  0  0  0  0
   32.4394   18.0282   21.9192 N   0  0  0  0  0  0  0  0  0  0  0  0
   25.4327   15.5879   19.9572 O   0  0  0  0  0  0  0  0  0  0  0  0
  2  1  1  6  0  0  0
  2  3  1  0  0  0  0
  2  5  1  0  0  0  0
  3  4  1  0  0  0  0
  3 10  1  0  0  0  0
  5  6  1  0  0  0  0
  6  7  1  0  0  0  0
  7  8  1  0  0  0  0
  8  9  1  0  0  0  0
M  END
>  <CHROM.1>
155.98123023,-170.39379618,178.28542923,-177.49009694,-179.94548075,28.53939491
15.85005588,20.37280038,-2.71805733,0.33559366,1.29533813

>  <Name>
ligand

>  <RI>
0

>  <Rbt.Current_Directory>
/home/itssahil/PROJECTS/Mol_Feturizer/New_Systems/rnas/3DIL

>  <Rbt.Executable>
rbdock ($Id: //depot/dev/client3/rdock/2013.1/src/exe/rbdock.cxx#4 $)

>  <Rbt.Library>
libRbt.so (2013.1, Build901 2013/11/27)

>  <Rbt.Parameter_File>
/export/apps/rDock/src/rDock_2013.1_src/data/scripts/dock_solv.prm

>  <Rbt.Receptor>
prm/pocket_docking_3.prm

>  <SCORE>
-9.51232

>  <SCORE.INTER>
-8.15963

>  <SCORE.INTER.CONST>
1

>  <SCORE.INTER.POLAR>
0

>  <SCORE.INTER.ROT>
5

>  <SCORE.INTER.SOLV>
15.8581

>  <SCORE.INTER.VDW>
-17.6591

>  <SCORE.INTER.norm>
-0.815963

>  <SCORE.INTRA>
-1.3527

>  <SCORE.INTRA.DIHEDRAL>
-1.10856

>  <SCORE.INTRA.DIHEDRAL.0>
2.93688

>  <SCORE.INTRA.POLAR>
0

>  <SCORE.INTRA.POLAR.0>
0

>  <SCORE.INTRA.REPUL>
0

>  <SCORE.INTRA.REPUL.0>
0

>  <SCORE.INTRA.SOLV>
-1.49727

>  <SCORE.INTRA.SOLV.lig_0>
-32.2816

>  <SCORE.INTRA.VDW>
-0.0497799

>  <SCORE.INTRA.VDW.0>
-0.749945

>  <SCORE.INTRA.norm>
-0.13527

>  <SCORE.RESTR>
0

>  <SCORE.RESTR.CAVITY>
0

>  <SCORE.RESTR.norm>
0

>  <SCORE.SYSTEM>
0

>  <SCORE.SYSTEM.CONST>
0

>  <SCORE.SYSTEM.DIHEDRAL>
0

>  <SCORE.SYSTEM.SOLV>
0

>  <SCORE.SYSTEM.norm>
0

>  <SCORE.heavy>
10

>  <SCORE.norm>
-0.951232

>  <RMSD>
5.630

$$$$
ligand
 OpenBabel11021811473D
libRbt.so/2013.1/901 2013/11/27
 10  9  0  0  0  0  0  0  0  0999 V2000
   25.7536   15.2118   20.3052 N   0  0  0  0  0  0  0  0  0  0  0  0
   27.0151   15.8284   19.7961 C   0  0  2  0  0  0  0  0  0  0  0  0
   27.4561   15.1882   18.4803 C   0  0  0  0  0  0  0  0  0  0  0  0
   28.1361   15.8111   17.6667 O   0  0  0  0  0  0  0  0  0  0  0  0
   28.1207   15.7670   20.8566 C   0  0  0  0  0  0  0  0  0  0  0  0
   29.3849   16.5206   20.4447 C   0  0  0  0  0  0  0  0  0  0  0  0
   30.4624   16.4845   21.5199 C   0  0  0  0  0  0  0  0  0  0  0  0
   31.7312   17.1911   21.0530 C   0  0  0  0  0  0  0  0  0  0  0  0
   32.8069   17.2339   22.1027 N   0  0  0  0  0  0  0  0  0  0  0  0
   27.1770   14.0217   18.1877 O   0  0  0  0  0  0  0  0  0  0  0  0
  2  1  1  1  0  0  0
  2  3  1  0  0  0  0
  2  5  1  0  0  0  0
  3  4  1  0  0  0  0
  3 10  1  0  0  0  0
  5  6  1  0  0  0  0
  6  7  1  0  0  0  0
  7  8  1  0  0  0  0
  8  9  1  0  0  0  0
M  END
>  <CHROM.1>
153.48096356,-173.65759539,178.47427165,177.45330549,177.54711914,28.80421764
15.90875867,20.00589950,2.58947425,-0.27509235,-1.79303985

>  <Name>
ligand

>  <RI>
0

>  <Rbt.Current_Directory>
/home/itssahil/PROJECTS/Mol_Feturizer/New_Systems/rnas/3DIL

>  <Rbt.Executable>
rbdock ($Id: //depot/dev/client3/rdock/2013.1/src/exe/rbdock.cxx#4 $)

>  <Rbt.Library>
libRbt.so (2013.1, Build901 2013/11/27)

>  <Rbt.Parameter_File>
/export/apps/rDock/src/rDock_2013.1_src/data/scripts/dock_solv.prm

>  <Rbt.Receptor>
prm/pocket_docking_7.prm

>  <SCORE>
-8.71938

>  <SCORE.INTER>
-7.28305

>  <SCORE.INTER.CONST>
1

>  <SCORE.INTER.POLAR>
0

>  <SCORE.INTER.ROT>
5

>  <SCORE.INTER.SOLV>
18.7554

>  <SCORE.INTER.VDW>
-18.0405

>  <SCORE.INTER.norm>
-0.728305

>  <SCORE.INTRA>
-1.43634

>  <SCORE.INTRA.DIHEDRAL>
-1.2804

>  <SCORE.INTRA.DIHEDRAL.0>
2.93688

>  <SCORE.INTRA.POLAR>
0

>  <SCORE.INTRA.POLAR.0>
0

>  <SCORE.INTRA.REPUL>
0

>  <SCORE.INTRA.REPUL.0>
0

>  <SCORE.INTRA.SOLV>
-1.50164

>  <SCORE.INTRA.SOLV.lig_0>
-32.2816

>  <SCORE.INTRA.VDW>
-0.045319

>  <SCORE.INTRA.VDW.0>
-0.749945

>  <SCORE.INTRA.norm>
-0.143634

>  <SCORE.RESTR>
0

>  <SCORE.RESTR.CAVITY>
0

>  <SCORE.RESTR.norm>
0

>  <SCORE.SYSTEM>
0

>  <SCORE.SYSTEM.CONST>
0

>  <SCORE.SYSTEM.DIHEDRAL>
0

>  <SCORE.SYSTEM.SOLV>
0

>  <SCORE.SYSTEM.norm>
0

>  <SCORE.heavy>
10

>  <SCORE.norm>
-0.871938

>  <RMSD>
5.630

$$$$
ligand
 OpenBabel11021811473D
libRbt.so/2013.1/901 2013/11/27
 10  9  0  0  0  0  0  0  0  0999 V2000
   27.0933   14.4507   17.9908 N   0  0  0  0  0  0  0  0  0  0  0  0
   27.6149   14.7220   19.3637 C   0  0  2  0  0  0  0  0  0  0  0  0
   26.4876   15.1059   20.3218 C   0  0  0  0  0  0  0  0  0  0  0  0
   26.6103   14.9639   21.5372 O   0  0  0  0  0  0  0  0  0  0  0  0
   28.7183   15.7860   19.3294 C   0  0  0  0  0  0  0  0  0  0  0  0
   29.4596   15.9198   20.6592 C   0  0  0  0  0  0  0  0  0  0  0  0
   30.5638   16.9670   20.6091 C   0  0  0  0  0  0  0  0  0  0  0  0
   31.3541   16.9978   21.9136 C   0  0  0  0  0  0  0  0  0  0  0  0
   32.4947   17.9774   21.8933 N   0  0  0  0  0  0  0  0  0  0  0  0
   25.4248   15.5952   19.9280 O   0  0  0  0  0  0  0  0  0  0  0  0
  2  1  1  6  0  0  0
  2  3  1  0  0  0  0
  2  5  1  0  0  0  0
  3  4  1  0  0  0  0
  3 10  1  0  0  0  0
  5  6  1  0  0  0  0
  6  7  1  0  0  0  0
  7  8  1  0  0  0  0
  8  9  1  0  0  0  0
M  END
>  <CHROM.1>
157.04257741,-169.57274488,179.31778201,-175.50466395,177.57881965,28.54690820
15.85122233,20.37284179,-2.71763622,0.31985259,1.27878850

>  <Name>
ligand

>  <RI>
0

>  <Rbt.Current_Directory>
/home/itssahil/PROJECTS/Mol_Feturizer/New_Systems/rnas/3DIL

>  <Rbt.Executable>
rbdock ($Id: //depot/dev/client3/rdock/2013.1/src/exe/rbdock.cxx#4 $)

>  <Rbt.Library>
libRbt.so (2013.1, Build901 2013/11/27)

>  <Rbt.Parameter_File>
/export/apps/rDock/src/rDock_2013.1_src/data/scripts/dock_solv.prm

>  <Rbt.Receptor>
prm/pocket_docking_5.prm

>  <SCORE>
-9.44416

>  <SCORE.INTER>
-8.15227

>  <SCORE.INTER.CONST>
1

>  <SCORE.INTER.POLAR>
0

>  <SCORE.INTER.ROT>
5

>  <SCORE.INTER.SOLV>
15.7292

>  <SCORE.INTER.VDW>
-17.6113

>  <SCORE.INTER.norm>
-0.815227

>  <SCORE.INTRA>
-1.29189

>  <SCORE.INTRA.DIHEDRAL>
-0.977926

>  <SCORE.INTRA.DIHEDRAL.0>
2.93688

>  <SCORE.INTRA.POLAR>
0

>  <SCORE.INTRA.POLAR.0>
0

>  <SCORE.INTRA.REPUL>
0

>  <SCORE.INTRA.REPUL.0>
0

>  <SCORE.INTRA.SOLV>
-1.4953

>  <SCORE.INTRA.SOLV.lig_0>
-32.2816

>  <SCORE.INTRA.VDW>
-0.0552752

>  <SCORE.INTRA.VDW.0>
-0.749945

>  <SCORE.INTRA.norm>
-0.129189

>  <SCORE.RESTR>
0

>  <SCORE.RESTR.CAVITY>
0

>  <SCORE.RESTR.norm>
0

>  <SCORE.SYSTEM>
0

>  <SCORE.SYSTEM.CONST>
0

>  <SCORE.SYSTEM.DIHEDRAL>
0

>  <SCORE.SYSTEM.SOLV>
0

>  <SCORE.SYSTEM.norm>
0

>  <SCORE.heavy>
10

>  <SCORE.norm>
-0.944416

>  <RMSD>
5.631

$$$$
ligand
 OpenBabel11021811473D
libRbt.so/2013.1/901 2013/11/27
 10  9  0  0  0  0  0  0  0  0999 V2000
   27.0964   14.4639   17.9737 N   0  0  0  0  0  0  0  0  0  0  0  0
   27.6188   14.7227   19.3488 C   0  0  2  0  0  0  0  0  0  0  0  0
   26.4903   15.0831   20.3145 C   0  0  0  0  0  0  0  0  0  0  0  0
   26.6027   14.8904   21.5239 O   0  0  0  0  0  0  0  0  0  0  0  0
   28.7117   15.7979   19.3254 C   0  0  0  0  0  0  0  0  0  0  0  0
   29.4395   15.9379   20.6620 C   0  0  0  0  0  0  0  0  0  0  0  0
   30.5605   16.9670   20.6111 C   0  0  0  0  0  0  0  0  0  0  0  0
   31.3211   17.0196   21.9324 C   0  0  0  0  0  0  0  0  0  0  0  0
   32.4603   18.0010   21.9226 N   0  0  0  0  0  0  0  0  0  0  0  0
   25.4370   15.6025   19.9342 O   0  0  0  0  0  0  0  0  0  0  0  0
  2  1  1  6  0  0  0
  2  3  1  0  0  0  0
  2  5  1  0  0  0  0
  3  4  1  0  0  0  0
  3 10  1  0  0  0  0
  5  6  1  0  0  0  0
  6  7  1  0  0  0  0
  7  8  1  0  0  0  0
  8  9  1  0  0  0  0
M  END
>  <CHROM.1>
154.89693051,-170.52541550,177.61976791,-176.46071916,178.70837005,28.53866820
15.85064385,20.37319635,-2.71565909,0.33237362,1.29320422

>  <Name>
ligand

>  <RI>
0

>  <Rbt.Current_Directory>
/home/itssahil/PROJECTS/Mol_Feturizer/New_Systems/rnas/3DIL

>  <Rbt.Executable>
rbdock ($Id: //depot/dev/client3/rdock/2013.1/src/exe/rbdock.cxx#4 $)

>  <Rbt.Library>
libRbt.so (2013.1, Build901 2013/11/27)

>  <Rbt.Parameter_File>
/export/apps/rDock/src/rDock_2013.1_src/data/scripts/dock_solv.prm

>  <Rbt.Receptor>
prm/pocket_docking_3.prm

>  <SCORE>
-9.53047

>  <SCORE.INTER>
-8.18606

>  <SCORE.INTER.CONST>
1

>  <SCORE.INTER.POLAR>
0

>  <SCORE.INTER.ROT>
5

>  <SCORE.INTER.SOLV>
15.7841

>  <SCORE.INTER.VDW>
-17.6521

>  <SCORE.INTER.norm>
-0.818606

>  <SCORE.INTRA>
-1.34441

>  <SCORE.INTRA.DIHEDRAL>
-1.07468

>  <SCORE.INTRA.DIHEDRAL.0>
2.93688

>  <SCORE.INTRA.POLAR>
0

>  <SCORE.INTRA.POLAR.0>
0

>  <SCORE.INTRA.REPUL>
0

>  <SCORE.INTRA.REPUL.0>
0

>  <SCORE.INTRA.SOLV>
-1.49784

>  <SCORE.INTRA.SOLV.lig_0>
-32.2816

>  <SCORE.INTRA.VDW>
-0.0581524

>  <SCORE.INTRA.VDW.0>
-0.749945

>  <SCORE.INTRA.norm>
-0.134441

>  <SCORE.RESTR>
0

>  <SCORE.RESTR.CAVITY>
0

>  <SCORE.RESTR.norm>
0

>  <SCORE.SYSTEM>
0

>  <SCORE.SYSTEM.CONST>
0

>  <SCORE.SYSTEM.DIHEDRAL>
0

>  <SCORE.SYSTEM.SOLV>
0

>  <SCORE.SYSTEM.norm>
0

>  <SCORE.heavy>
10

>  <SCORE.norm>
-0.953047

>  <RMSD>
5.632

$$$$
ligand
 OpenBabel11021811473D
libRbt.so/2013.1/901 2013/11/27
 10  9  0  0  0  0  0  0  0  0999 V2000
   27.0856   14.4202   18.0030 N   0  0  0  0  0  0  0  0  0  0  0  0
   27.6074   14.7027   19.3736 C   0  0  2  0  0  0  0  0  0  0  0  0
   26.4812   15.1009   20.3271 C   0  0  0  0  0  0  0  0  0  0  0  0
   26.5953   14.9532   21.5426 O   0  0  0  0  0  0  0  0  0  0  0  0
   28.7157   15.7613   19.3297 C   0  0  0  0  0  0  0  0  0  0  0  0
   29.4382   15.9245   20.6666 C   0  0  0  0  0  0  0  0  0  0  0  0
   30.5621   16.9496   20.6012 C   0  0  0  0  0  0  0  0  0  0  0  0
   31.3170   17.0252   21.9247 C   0  0  0  0  0  0  0  0  0  0  0  0
   32.4405   18.0245   21.9106 N   0  0  0  0  0  0  0  0  0  0  0  0
   25.4282   15.6079   19.9294 O   0  0  0  0  0  0  0  0  0  0  0  0
  2  1  1  6  0  0  0
  2  3  1  0  0  0  0
  2  5  1  0  0  0  0
  3  4  1  0  0  0  0
  3 10  1  0  0  0  0
  5  6  1  0  0  0  0
  6  7  1  0  0  0  0
  7  8  1  0  0  0  0
  8  9  1  0  0  0  0
M  END
>  <CHROM.1>
156.02800720,-170.71439839,178.38400325,-176.47905379,179.93065392,28.53199417
15.84987671,20.37898727,-2.70857151,0.32135741,1.26371980

>  <Name>
ligand

>  <RI>
0

>  <Rbt.Current_Directory>
/home/itssahil/PROJECTS/Mol_Feturizer/New_Systems/rnas/3DIL

>  <Rbt.Executable>
rbdock ($Id: //depot/dev/client3/rdock/2013.1/src/exe/rbdock.cxx#4 $)

>  <Rbt.Library>
libRbt.so (2013.1, Build901 2013/11/27)

>  <Rbt.Parameter_File>
/export/apps/rDock/src/rDock_2013.1_src/data/scripts/dock_solv.prm

>  <Rbt.Receptor>
prm/pocket_docking_6.prm

>  <SCORE>
-9.51025

>  <SCORE.INTER>
-8.16513

>  <SCORE.INTER.CONST>
1

>  <SCORE.INTER.POLAR>
0

>  <SCORE.INTER.ROT>
5

>  <SCORE.INTER.SOLV>
15.7801

>  <SCORE.INTER.VDW>
-17.6368

>  <SCORE.INTER.norm>
-0.816513

>  <SCORE.INTRA>
-1.34512

>  <SCORE.INTRA.DIHEDRAL>
-1.10663

>  <SCORE.INTRA.DIHEDRAL.0>
2.93688

>  <SCORE.INTRA.POLAR>
0

>  <SCORE.INTRA.POLAR.0>
0

>  <SCORE.INTRA.REPUL>
0

>  <SCORE.INTRA.REPUL.0>
0

>  <SCORE.INTRA.SOLV>
-1.49766

>  <SCORE.INTRA.SOLV.lig_0>
-32.2816

>  <SCORE.INTRA.VDW>
-0.0429709

>  <SCORE.INTRA.VDW.0>
-0.749945

>  <SCORE.INTRA.norm>
-0.134512

>  <SCORE.RESTR>
0

>  <SCORE.RESTR.CAVITY>
0

>  <SCORE.RESTR.norm>
0

>  <SCORE.SYSTEM>
0

>  <SCORE.SYSTEM.CONST>
0

>  <SCORE.SYSTEM.DIHEDRAL>
0

>  <SCORE.SYSTEM.SOLV>
0

>  <SCORE.SYSTEM.norm>
0

>  <SCORE.heavy>
10

>  <SCORE.norm>
-0.951025

>  <RMSD>
5.632

$$$$
ligand
 OpenBabel11021811473D
libRbt.so/2013.1/901 2013/11/27
 10  9  0  0  0  0  0  0  0  0999 V2000
   27.0812   14.4326   17.9960 N   0  0  0  0  0  0  0  0  0  0  0  0
   27.6122   14.7041   19.3653 C   0  0  2  0  0  0  0  0  0  0  0  0
   26.4942   15.1072   20.3262 C   0  0  0  0  0  0  0  0  0  0  0  0
   25.4513   15.6111   19.9127 O   0  0  0  0  0  0  0  0  0  0  0  0
   28.7291   15.7536   19.3208 C   0  0  0  0  0  0  0  0  0  0  0  0
   29.4427   15.9227   20.6617 C   0  0  0  0  0  0  0  0  0  0  0  0
   30.5601   16.9552   20.6021 C   0  0  0  0  0  0  0  0  0  0  0  0
   31.3133   17.0295   21.9265 C   0  0  0  0  0  0  0  0  0  0  0  0
   32.4413   18.0238   21.9126 N   0  0  0  0  0  0  0  0  0  0  0  0
   26.5730   14.9238   21.5445 O   0  0  0  0  0  0  0  0  0  0  0  0
  2  1  1  6  0  0  0
  2  3  1  0  0  0  0
  2  5  1  0  0  0  0
  3  4  1  0  0  0  0
  3 10  1  0  0  0  0
  5  6  1  0  0  0  0
  6  7  1  0  0  0  0
  7  8  1  0  0  0  0
  8  9  1  0  0  0  0
M  END
>  <CHROM.1>
-24.80987620,-171.76939406,179.33795954,-176.05449465,179.20941711,28.53448423
15.84878295,20.37486143,-2.71026700,0.32641292,1.27329348

>  <Name>
ligand

>  <RI>
0

>  <Rbt.Current_Directory>
/home/itssahil/PROJECTS/Mol_Feturizer/New_Systems/rnas/3DIL

>  <Rbt.Executable>
rbdock ($Id: //depot/dev/client3/rdock/2013.1/src/exe/rbdock.cxx#4 $)

>  <Rbt.Library>
libRbt.so (2013.1, Build901 2013/11/27)

>  <Rbt.Parameter_File>
/export/apps/rDock/src/rDock_2013.1_src/data/scripts/dock_solv.prm

>  <Rbt.Receptor>
prm/blind_docking_80.prm

>  <SCORE>
-9.45496

>  <SCORE.INTER>
-8.14422

>  <SCORE.INTER.CONST>
1

>  <SCORE.INTER.POLAR>
0

>  <SCORE.INTER.ROT>
5

>  <SCORE.INTER.SOLV>
15.8076

>  <SCORE.INTER.VDW>
-17.632

>  <SCORE.INTER.norm>
-0.814422

>  <SCORE.INTRA>
-1.31075

>  <SCORE.INTRA.DIHEDRAL>
-1.06196

>  <SCORE.INTRA.DIHEDRAL.0>
2.93688

>  <SCORE.INTRA.POLAR>
0

>  <SCORE.INTRA.POLAR.0>
0

>  <SCORE.INTRA.REPUL>
0

>  <SCORE.INTRA.REPUL.0>
0

>  <SCORE.INTRA.SOLV>
-1.48635

>  <SCORE.INTRA.SOLV.lig_0>
-32.2816

>  <SCORE.INTRA.VDW>
-0.0365916

>  <SCORE.INTRA.VDW.0>
-0.749945

>  <SCORE.INTRA.norm>
-0.131075

>  <SCORE.RESTR>
0

>  <SCORE.RESTR.CAVITY>
0

>  <SCORE.RESTR.norm>
0

>  <SCORE.SYSTEM>
0

>  <SCORE.SYSTEM.CONST>
0

>  <SCORE.SYSTEM.DIHEDRAL>
0

>  <SCORE.SYSTEM.SOLV>
0

>  <SCORE.SYSTEM.norm>
0

>  <SCORE.heavy>
10

>  <SCORE.norm>
-0.945496

>  <RMSD>
5.633

$$$$
ligand
 OpenBabel11021811473D
libRbt.so/2013.1/901 2013/11/27
 10  9  0  0  0  0  0  0  0  0999 V2000
   27.0751   14.4797   17.9750 N   0  0  0  0  0  0  0  0  0  0  0  0
   27.6153   14.7235   19.3459 C   0  0  2  0  0  0  0  0  0  0  0  0
   26.5011   15.0873   20.3268 C   0  0  0  0  0  0  0  0  0  0  0  0
   25.4447   15.5799   19.9346 O   0  0  0  0  0  0  0  0  0  0  0  0
   28.7180   15.7884   19.3182 C   0  0  0  0  0  0  0  0  0  0  0  0
   29.4536   15.9205   20.6513 C   0  0  0  0  0  0  0  0  0  0  0  0
   30.5851   16.9377   20.5953 C   0  0  0  0  0  0  0  0  0  0  0  0
   31.3225   17.0161   21.9284 C   0  0  0  0  0  0  0  0  0  0  0  0
   32.4555   18.0047   21.9225 N   0  0  0  0  0  0  0  0  0  0  0  0
   26.5969   14.8817   21.5403 O   0  0  0  0  0  0  0  0  0  0  0  0
  2  1  1  6  0  0  0
  2  3  1  0  0  0  0
  2  5  1  0  0  0  0
  3  4  1  0  0  0  0
  3 10  1  0  0  0  0
  5  6  1  0  0  0  0
  6  7  1  0  0  0  0
  7  8  1  0  0  0  0
  8  9  1  0  0  0  0
M  END
>  <CHROM.1>
-24.35158256,-171.03954497,177.53714320,-178.39899838,179.75047216,28.54148727
15.84352412,20.37224661,-2.72089311,0.33609901,1.30283036

>  <Name>
ligand

>  <RI>
0

>  <Rbt.Current_Directory>
/home/itssahil/PROJECTS/Mol_Feturizer/New_Systems/rnas/3DIL

>  <Rbt.Executable>
rbdock ($Id: //depot/dev/client3/rdock/2013.1/src/exe/rbdock.cxx#4 $)

>  <Rbt.Library>
libRbt.so (2013.1, Build901 2013/11/27)

>  <Rbt.Parameter_File>
/export/apps/rDock/src/rDock_2013.1_src/data/scripts/dock_solv.prm

>  <Rbt.Receptor>
prm/pocket_docking_8.prm

>  <SCORE>
-9.45606

>  <SCORE.INTER>
-8.14361

>  <SCORE.INTER.CONST>
1

>  <SCORE.INTER.POLAR>
0

>  <SCORE.INTER.ROT>
5

>  <SCORE.INTER.SOLV>
15.8444

>  <SCORE.INTER.VDW>
-17.6439

>  <SCORE.INTER.norm>
-0.814361

>  <SCORE.INTRA>
-1.31245

>  <SCORE.INTRA.DIHEDRAL>
-1.04895

>  <SCORE.INTRA.DIHEDRAL.0>
2.93688

>  <SCORE.INTRA.POLAR>
0

>  <SCORE.INTRA.POLAR.0>
0

>  <SCORE.INTRA.REPUL>
0

>  <SCORE.INTRA.REPUL.0>
0

>  <SCORE.INTRA.SOLV>
-1.48539

>  <SCORE.INTRA.SOLV.lig_0>
-32.2816

>  <SCORE.INTRA.VDW>
-0.0452747

>  <SCORE.INTRA.VDW.0>
-0.749945

>  <SCORE.INTRA.norm>
-0.131245

>  <SCORE.RESTR>
0

>  <SCORE.RESTR.CAVITY>
0

>  <SCORE.RESTR.norm>
0

>  <SCORE.SYSTEM>
0

>  <SCORE.SYSTEM.CONST>
0

>  <SCORE.SYSTEM.DIHEDRAL>
0

>  <SCORE.SYSTEM.SOLV>
0

>  <SCORE.SYSTEM.norm>
0

>  <SCORE.heavy>
10

>  <SCORE.norm>
-0.945606

>  <RMSD>
5.633

$$$$
ligand
 OpenBabel11021811473D
libRbt.so/2013.1/901 2013/11/27
 10  9  0  0  0  0  0  0  0  0999 V2000
   25.7275   15.2359   20.2879 N   0  0  0  0  0  0  0  0  0  0  0  0
   27.0015   15.8370   19.7915 C   0  0  2  0  0  0  0  0  0  0  0  0
   27.4574   15.1790   18.4896 C   0  0  0  0  0  0  0  0  0  0  0  0
   27.1536   14.0173   18.2241 O   0  0  0  0  0  0  0  0  0  0  0  0
   28.0904   15.7787   20.8694 C   0  0  0  0  0  0  0  0  0  0  0  0
   29.3685   16.5135   20.4666 C   0  0  0  0  0  0  0  0  0  0  0  0
   30.4361   16.4648   21.5511 C   0  0  0  0  0  0  0  0  0  0  0  0
   31.7125   17.1683   21.1003 C   0  0  0  0  0  0  0  0  0  0  0  0
   32.7725   17.2144   22.1657 N   0  0  0  0  0  0  0  0  0  0  0  0
   28.1209   15.7832   17.6418 O   0  0  0  0  0  0  0  0  0  0  0  0
  2  1  1  1  0  0  0
  2  3  1  0  0  0  0
  2  5  1  0  0  0  0
  3  4  1  0  0  0  0
  3 10  1  0  0  0  0
  5  6  1  0  0  0  0
  6  7  1  0  0  0  0
  7  8  1  0  0  0  0
  8  9  1  0  0  0  0
M  END
>  <CHROM.1>
-27.44861041,-173.86718173,179.25034513,178.19425986,176.80255295,28.78360118
15.90180521,20.02337328,2.57939370,-0.26645560,-1.79788798

>  <Name>
ligand

>  <RI>
0

>  <Rbt.Current_Directory>
/home/itssahil/PROJECTS/Mol_Feturizer/New_Systems/rnas/3DIL

>  <Rbt.Executable>
rbdock ($Id: //depot/dev/client3/rdock/2013.1/src/exe/rbdock.cxx#4 $)

>  <Rbt.Library>
libRbt.so (2013.1, Build901 2013/11/27)

>  <Rbt.Parameter_File>
/export/apps/rDock/src/rDock_2013.1_src/data/scripts/dock_solv.prm

>  <Rbt.Receptor>
prm/pocket_docking_4.prm

>  <SCORE>
-8.70109

>  <SCORE.INTER>
-7.32712

>  <SCORE.INTER.CONST>
1

>  <SCORE.INTER.POLAR>
0

>  <SCORE.INTER.ROT>
5

>  <SCORE.INTER.SOLV>
18.8612

>  <SCORE.INTER.VDW>
-18.1052

>  <SCORE.INTER.norm>
-0.732712

>  <SCORE.INTRA>
-1.37397

>  <SCORE.INTRA.DIHEDRAL>
-1.18678

>  <SCORE.INTRA.DIHEDRAL.0>
2.93688

>  <SCORE.INTRA.POLAR>
0

>  <SCORE.INTRA.POLAR.0>
0

>  <SCORE.INTRA.REPUL>
0

>  <SCORE.INTRA.REPUL.0>
0

>  <SCORE.INTRA.SOLV>
-1.48866

>  <SCORE.INTRA.SOLV.lig_0>
-32.2816

>  <SCORE.INTRA.VDW>
-0.0362521

>  <SCORE.INTRA.VDW.0>
-0.749945

>  <SCORE.INTRA.norm>
-0.137397

>  <SCORE.RESTR>
0

>  <SCORE.RESTR.CAVITY>
0

>  <SCORE.RESTR.norm>
0

>  <SCORE.SYSTEM>
0

>  <SCORE.SYSTEM.CONST>
0

>  <SCORE.SYSTEM.DIHEDRAL>
0

>  <SCORE.SYSTEM.SOLV>
0

>  <SCORE.SYSTEM.norm>
0

>  <SCORE.heavy>
10

>  <SCORE.norm>
-0.870109

>  <RMSD>
5.634

$$$$
ligand
 OpenBabel11021811473D
libRbt.so/2013.1/901 2013/11/27
 10  9  0  0  0  0  0  0  0  0999 V2000
   27.8835   15.3717   21.9738 N   0  0  0  0  0  0  0  0  0  0  0  0
   27.8787   15.9975   20.6177 C   0  0  2  0  0  0  0  0  0  0  0  0
   26.7993   15.3851   19.7257 C   0  0  0  0  0  0  0  0  0  0  0  0
   27.0954   14.6904   18.7551 O   0  0  0  0  0  0  0  0  0  0  0  0
   29.2662   15.9122   19.9709 C   0  0  0  0  0  0  0  0  0  0  0  0
   30.3317   16.6936   20.7390 C   0  0  0  0  0  0  0  0  0  0  0  0
   31.7224   16.5253   20.1425 C   0  0  0  0  0  0  0  0  0  0  0  0
   32.7450   17.3872   20.8762 C   0  0  0  0  0  0  0  0  0  0  0  0
   32.8433   17.0718   22.3432 N   0  0  0  0  0  0  0  0  0  0  0  0
   25.5946   15.5346   19.9501 O   0  0  0  0  0  0  0  0  0  0  0  0
  2  1  1  1  0  0  0
  2  3  1  0  0  0  0
  2  5  1  0  0  0  0
  3  4  1  0  0  0  0
  3 10  1  0  0  0  0
  5  6  1  0  0  0  0
  6  7  1  0  0  0  0
  7  8  1  0  0  0  0
  8  9  1  0  0  0  0
M  END
>  <CHROM.1>
-111.39880247,-63.50965093,176.10295572,176.34260545,58.94891317,29.17949782
16.04051532,20.48703845,2.87002814,-0.25877188,-1.71378685

>  <Name>
ligand

>  <RI>
0

>  <Rbt.Current_Directory>
/home/itssahil/PROJECTS/Mol_Feturizer/New_Systems/rnas/3DIL

>  <Rbt.Executable>
rbdock ($Id: //depot/dev/client3/rdock/2013.1/src/exe/rbdock.cxx#4 $)

>  <Rbt.Library>
libRbt.so (2013.1, Build901 2013/11/27)

>  <Rbt.Parameter_File>
/export/apps/rDock/src/rDock_2013.1_src/data/scripts/dock_solv.prm

>  <Rbt.Receptor>
prm/pocket_docking_6.prm

>  <SCORE>
-7.13096

>  <SCORE.INTER>
-7.30936

>  <SCORE.INTER.CONST>
1

>  <SCORE.INTER.POLAR>
0

>  <SCORE.INTER.ROT>
5

>  <SCORE.INTER.SOLV>
16.8507

>  <SCORE.INTER.VDW>
-17.4231

>  <SCORE.INTER.norm>
-0.730936

>  <SCORE.INTRA>
0.1784

>  <SCORE.INTRA.DIHEDRAL>
-1.26736

>  <SCORE.INTRA.DIHEDRAL.0>
2.93688

>  <SCORE.INTRA.POLAR>
0

>  <SCORE.INTRA.POLAR.0>
0

>  <SCORE.INTRA.REPUL>
0

>  <SCORE.INTRA.REPUL.0>
0

>  <SCORE.INTRA.SOLV>
0.315842

>  <SCORE.INTRA.SOLV.lig_0>
-32.2816

>  <SCORE.INTRA.VDW>
0.654157

>  <SCORE.INTRA.VDW.0>
-0.749945

>  <SCORE.INTRA.norm>
0.01784

>  <SCORE.RESTR>
0

>  <SCORE.RESTR.CAVITY>
0

>  <SCORE.RESTR.norm>
0

>  <SCORE.SYSTEM>
0

>  <SCORE.SYSTEM.CONST>
0

>  <SCORE.SYSTEM.DIHEDRAL>
0

>  <SCORE.SYSTEM.SOLV>
0

>  <SCORE.SYSTEM.norm>
0

>  <SCORE.heavy>
10

>  <SCORE.norm>
-0.713096

>  <RMSD>
5.634

$$$$
ligand
 OpenBabel11021811473D
libRbt.so/2013.1/901 2013/11/27
 10  9  0  0  0  0  0  0  0  0999 V2000
   25.7247   15.2248   20.2780 N   0  0  0  0  0  0  0  0  0  0  0  0
   26.9987   15.8270   19.7831 C   0  0  2  0  0  0  0  0  0  0  0  0
   27.4565   15.1695   18.4815 C   0  0  0  0  0  0  0  0  0  0  0  0
   27.1636   14.0039   18.2208 O   0  0  0  0  0  0  0  0  0  0  0  0
   28.0866   15.7692   20.8621 C   0  0  0  0  0  0  0  0  0  0  0  0
   29.3655   16.5030   20.4597 C   0  0  0  0  0  0  0  0  0  0  0  0
   30.4333   16.4519   21.5439 C   0  0  0  0  0  0  0  0  0  0  0  0
   31.7085   17.1590   21.0955 C   0  0  0  0  0  0  0  0  0  0  0  0
   32.7784   17.1792   22.1518 N   0  0  0  0  0  0  0  0  0  0  0  0
   28.1106   15.7778   17.6294 O   0  0  0  0  0  0  0  0  0  0  0  0
  2  1  1  1  0  0  0
  2  3  1  0  0  0  0
  2  5  1  0  0  0  0
  3  4  1  0  0  0  0
  3 10  1  0  0  0  0
  5  6  1  0  0  0  0
  6  7  1  0  0  0  0
  7  8  1  0  0  0  0
  8  9  1  0  0  0  0
M  END
>  <CHROM.1>
-28.08693562,-173.96770140,179.39474889,178.41488647,177.92800637,28.78214550
15.88914157,20.01515286,2.58010031,-0.26466184,-1.79689002

>  <Name>
ligand

>  <RI>
0

>  <Rbt.Current_Directory>
/home/itssahil/PROJECTS/Mol_Feturizer/New_Systems/rnas/3DIL

>  <Rbt.Executable>
rbdock ($Id: //depot/dev/client3/rdock/2013.1/src/exe/rbdock.cxx#4 $)

>  <Rbt.Library>
libRbt.so (2013.1, Build901 2013/11/27)

>  <Rbt.Parameter_File>
/export/apps/rDock/src/rDock_2013.1_src/data/scripts/dock_solv.prm

>  <Rbt.Receptor>
prm/blind_docking_100.prm

>  <SCORE>
-8.70926

>  <SCORE.INTER>
-7.31612

>  <SCORE.INTER.CONST>
1

>  <SCORE.INTER.POLAR>
0

>  <SCORE.INTER.ROT>
5

>  <SCORE.INTER.SOLV>
18.9023

>  <SCORE.INTER.VDW>
-18.1115

>  <SCORE.INTER.norm>
-0.731612

>  <SCORE.INTRA>
-1.39314

>  <SCORE.INTRA.DIHEDRAL>
-1.21753

>  <SCORE.INTRA.DIHEDRAL.0>
2.93688

>  <SCORE.INTRA.POLAR>
0

>  <SCORE.INTRA.POLAR.0>
0

>  <SCORE.INTRA.REPUL>
0

>  <SCORE.INTRA.REPUL.0>
0

>  <SCORE.INTRA.SOLV>
-1.48935

>  <SCORE.INTRA.SOLV.lig_0>
-32.2816

>  <SCORE.INTRA.VDW>
-0.0397023

>  <SCORE.INTRA.VDW.0>
-0.749945

>  <SCORE.INTRA.norm>
-0.139314

>  <SCORE.RESTR>
0

>  <SCORE.RESTR.CAVITY>
0

>  <SCORE.RESTR.norm>
0

>  <SCORE.SYSTEM>
0

>  <SCORE.SYSTEM.CONST>
0

>  <SCORE.SYSTEM.DIHEDRAL>
0

>  <SCORE.SYSTEM.SOLV>
0

>  <SCORE.SYSTEM.norm>
0

>  <SCORE.heavy>
10

>  <SCORE.norm>
-0.870926

>  <RMSD>
5.635

$$$$
ligand
 OpenBabel11021811473D
libRbt.so/2013.1/901 2013/11/27
 10  9  0  0  0  0  0  0  0  0999 V2000
   25.7508   15.2298   20.3011 N   0  0  0  0  0  0  0  0  0  0  0  0
   27.0300   15.8089   19.7922 C   0  0  2  0  0  0  0  0  0  0  0  0
   27.4426   15.1690   18.4670 C   0  0  0  0  0  0  0  0  0  0  0  0
   28.1191   15.7863   17.6463 O   0  0  0  0  0  0  0  0  0  0  0  0
   28.1382   15.6982   20.8460 C   0  0  0  0  0  0  0  0  0  0  0  0
   29.4147   16.4394   20.4496 C   0  0  0  0  0  0  0  0  0  0  0  0
   30.5038   16.3334   21.5083 C   0  0  0  0  0  0  0  0  0  0  0  0
   31.7347   17.1446   21.1161 C   0  0  0  0  0  0  0  0  0  0  0  0
   32.8255   17.1053   22.1504 N   0  0  0  0  0  0  0  0  0  0  0  0
   27.1430   14.0079   18.1733 O   0  0  0  0  0  0  0  0  0  0  0  0
  2  1  1  1  0  0  0
  2  3  1  0  0  0  0
  2  5  1  0  0  0  0
  3  4  1  0  0  0  0
  3 10  1  0  0  0  0
  5  6  1  0  0  0  0
  6  7  1  0  0  0  0
  7  8  1  0  0  0  0
  8  9  1  0  0  0  0
M  END
>  <CHROM.1>
152.14986875,-172.37518769,179.49008410,-176.94727282,178.28817574,28.80937820
15.85544415,20.00934642,2.58797777,-0.26287783,-1.77665551

>  <Name>
ligand

>  <RI>
0

>  <Rbt.Current_Directory>
/home/itssahil/PROJECTS/Mol_Feturizer/New_Systems/rnas/3DIL

>  <Rbt.Executable>
rbdock ($Id: //depot/dev/client3/rdock/2013.1/src/exe/rbdock.cxx#4 $)

>  <Rbt.Library>
libRbt.so (2013.1, Build901 2013/11/27)

>  <Rbt.Parameter_File>
/export/apps/rDock/src/rDock_2013.1_src/data/scripts/dock_solv.prm

>  <Rbt.Receptor>
prm/pocket_docking_4.prm

>  <SCORE>
-8.6441

>  <SCORE.INTER>
-7.23255

>  <SCORE.INTER.CONST>
1

>  <SCORE.INTER.POLAR>
0

>  <SCORE.INTER.ROT>
5

>  <SCORE.INTER.SOLV>
19.0849

>  <SCORE.INTER.VDW>
-18.1167

>  <SCORE.INTER.norm>
-0.723255

>  <SCORE.INTRA>
-1.41156

>  <SCORE.INTRA.DIHEDRAL>
-1.22308

>  <SCORE.INTRA.DIHEDRAL.0>
2.93688

>  <SCORE.INTRA.POLAR>
0

>  <SCORE.INTRA.POLAR.0>
0

>  <SCORE.INTRA.REPUL>
0

>  <SCORE.INTRA.REPUL.0>
0

>  <SCORE.INTRA.SOLV>
-1.50127

>  <SCORE.INTRA.SOLV.lig_0>
-32.2816

>  <SCORE.INTRA.VDW>
-0.0493828

>  <SCORE.INTRA.VDW.0>
-0.749945

>  <SCORE.INTRA.norm>
-0.141156

>  <SCORE.RESTR>
0

>  <SCORE.RESTR.CAVITY>
0

>  <SCORE.RESTR.norm>
0

>  <SCORE.SYSTEM>
0

>  <SCORE.SYSTEM.CONST>
0

>  <SCORE.SYSTEM.DIHEDRAL>
0

>  <SCORE.SYSTEM.SOLV>
0

>  <SCORE.SYSTEM.norm>
0

>  <SCORE.heavy>
10

>  <SCORE.norm>
-0.86441

>  <RMSD>
5.636

$$$$
ligand
 OpenBabel11021811473D
libRbt.so/2013.1/901 2013/11/27
 10  9  0  0  0  0  0  0  0  0999 V2000
   27.0805   14.4864   17.9783 N   0  0  0  0  0  0  0  0  0  0  0  0
   27.6169   14.7319   19.3504 C   0  0  2  0  0  0  0  0  0  0  0  0
   26.4978   15.0786   20.3318 C   0  0  0  0  0  0  0  0  0  0  0  0
   25.4401   15.5702   19.9421 O   0  0  0  0  0  0  0  0  0  0  0  0
   28.7066   15.8103   19.3271 C   0  0  0  0  0  0  0  0  0  0  0  0
   29.4495   15.9366   20.6567 C   0  0  0  0  0  0  0  0  0  0  0  0
   30.5524   16.9854   20.6117 C   0  0  0  0  0  0  0  0  0  0  0  0
   31.3307   17.0236   21.9232 C   0  0  0  0  0  0  0  0  0  0  0  0
   32.4810   17.9917   21.9024 N   0  0  0  0  0  0  0  0  0  0  0  0
   26.5910   14.8597   21.5432 O   0  0  0  0  0  0  0  0  0  0  0  0
  2  1  1  6  0  0  0
  2  3  1  0  0  0  0
  2  5  1  0  0  0  0
  3  4  1  0  0  0  0
  3 10  1  0  0  0  0
  5  6  1  0  0  0  0
  6  7  1  0  0  0  0
  7  8  1  0  0  0  0
  8  9  1  0  0  0  0
M  END
>  <CHROM.1>
-24.96790825,-170.44921335,178.54720792,-176.37369676,176.82005803,28.53925989
15.84860011,20.37512053,-2.72793800,0.34306276,1.31417579

>  <Name>
ligand

>  <RI>
0

>  <Rbt.Current_Directory>
/home/itssahil/PROJECTS/Mol_Feturizer/New_Systems/rnas/3DIL

>  <Rbt.Executable>
rbdock ($Id: //depot/dev/client3/rdock/2013.1/src/exe/rbdock.cxx#4 $)

>  <Rbt.Library>
libRbt.so (2013.1, Build901 2013/11/27)

>  <Rbt.Parameter_File>
/export/apps/rDock/src/rDock_2013.1_src/data/scripts/dock_solv.prm

>  <Rbt.Receptor>
prm/pocket_docking_5.prm

>  <SCORE>
-9.44784

>  <SCORE.INTER>
-8.1717

>  <SCORE.INTER.CONST>
1

>  <SCORE.INTER.POLAR>
0

>  <SCORE.INTER.ROT>
5

>  <SCORE.INTER.SOLV>
15.817

>  <SCORE.INTER.VDW>
-17.6535

>  <SCORE.INTER.norm>
-0.81717

>  <SCORE.INTRA>
-1.27614

>  <SCORE.INTRA.DIHEDRAL>
-0.942891

>  <SCORE.INTRA.DIHEDRAL.0>
2.93688

>  <SCORE.INTRA.POLAR>
0

>  <SCORE.INTRA.POLAR.0>
0

>  <SCORE.INTRA.REPUL>
0

>  <SCORE.INTRA.REPUL.0>
0

>  <SCORE.INTRA.SOLV>
-1.4842

>  <SCORE.INTRA.SOLV.lig_0>
-32.2816

>  <SCORE.INTRA.VDW>
-0.0625959

>  <SCORE.INTRA.VDW.0>
-0.749945

>  <SCORE.INTRA.norm>
-0.127614

>  <SCORE.RESTR>
0

>  <SCORE.RESTR.CAVITY>
0

>  <SCORE.RESTR.norm>
0

>  <SCORE.SYSTEM>
0

>  <SCORE.SYSTEM.CONST>
0

>  <SCORE.SYSTEM.DIHEDRAL>
0

>  <SCORE.SYSTEM.SOLV>
0

>  <SCORE.SYSTEM.norm>
0

>  <SCORE.heavy>
10

>  <SCORE.norm>
-0.944784

>  <RMSD>
5.636

$$$$
ligand
 OpenBabel11021811473D
libRbt.so/2013.1/901 2013/11/27
 10  9  0  0  0  0  0  0  0  0999 V2000
   27.0760   14.3950   18.0126 N   0  0  0  0  0  0  0  0  0  0  0  0
   27.6031   14.6866   19.3793 C   0  0  2  0  0  0  0  0  0  0  0  0
   26.4834   15.1113   20.3289 C   0  0  0  0  0  0  0  0  0  0  0  0
   25.4469   15.6182   19.9032 O   0  0  0  0  0  0  0  0  0  0  0  0
   28.7255   15.7296   19.3217 C   0  0  0  0  0  0  0  0  0  0  0  0
   29.4302   15.9222   20.6641 C   0  0  0  0  0  0  0  0  0  0  0  0
   30.5654   16.9341   20.5874 C   0  0  0  0  0  0  0  0  0  0  0  0
   31.3054   17.0344   21.9177 C   0  0  0  0  0  0  0  0  0  0  0  0
   32.4462   18.0135   21.8896 N   0  0  0  0  0  0  0  0  0  0  0  0
   26.5542   14.9431   21.5498 O   0  0  0  0  0  0  0  0  0  0  0  0
  2  1  1  6  0  0  0
  2  3  1  0  0  0  0
  2  5  1  0  0  0  0
  3  4  1  0  0  0  0
  3 10  1  0  0  0  0
  5  6  1  0  0  0  0
  6  7  1  0  0  0  0
  7  8  1  0  0  0  0
  8  9  1  0  0  0  0
M  END
>  <CHROM.1>
-25.09969310,-172.04437119,178.56000448,-176.24939767,179.46159275,28.52821292
15.84169523,20.37326734,-2.70899567,0.31970167,1.25723031

>  <Name>
ligand

>  <RI>
0

>  <Rbt.Current_Directory>
/home/itssahil/PROJECTS/Mol_Feturizer/New_Systems/rnas/3DIL

>  <Rbt.Executable>
rbdock ($Id: //depot/dev/client3/rdock/2013.1/src/exe/rbdock.cxx#4 $)

>  <Rbt.Library>
libRbt.so (2013.1, Build901 2013/11/27)

>  <Rbt.Parameter_File>
/export/apps/rDock/src/rDock_2013.1_src/data/scripts/dock_solv.prm

>  <Rbt.Receptor>
prm/pocket_docking_7.prm

>  <SCORE>
-9.44554

>  <SCORE.INTER>
-8.12938

>  <SCORE.INTER.CONST>
1

>  <SCORE.INTER.POLAR>
0

>  <SCORE.INTER.ROT>
5

>  <SCORE.INTER.SOLV>
15.7842

>  <SCORE.INTER.VDW>
-17.6143

>  <SCORE.INTER.norm>
-0.812938

>  <SCORE.INTRA>
-1.31616

>  <SCORE.INTRA.DIHEDRAL>
-1.07887

>  <SCORE.INTRA.DIHEDRAL.0>
2.93688

>  <SCORE.INTRA.POLAR>
0

>  <SCORE.INTRA.POLAR.0>
0

>  <SCORE.INTRA.REPUL>
0

>  <SCORE.INTRA.REPUL.0>
0

>  <SCORE.INTRA.SOLV>
-1.48676

>  <SCORE.INTRA.SOLV.lig_0>
-32.2816

>  <SCORE.INTRA.VDW>
-0.0333416

>  <SCORE.INTRA.VDW.0>
-0.749945

>  <SCORE.INTRA.norm>
-0.131616

>  <SCORE.RESTR>
0

>  <SCORE.RESTR.CAVITY>
0

>  <SCORE.RESTR.norm>
0

>  <SCORE.SYSTEM>
0

>  <SCORE.SYSTEM.CONST>
0

>  <SCORE.SYSTEM.DIHEDRAL>
0

>  <SCORE.SYSTEM.SOLV>
0

>  <SCORE.SYSTEM.norm>
0

>  <SCORE.heavy>
10

>  <SCORE.norm>
-0.944554

>  <RMSD>
5.636

$$$$
ligand
 OpenBabel11021811473D
libRbt.so/2013.1/901 2013/11/27
 10  9  0  0  0  0  0  0  0  0999 V2000
   27.9214   15.6038   22.0638 N   0  0  0  0  0  0  0  0  0  0  0  0
   27.8800   16.0242   20.6312 C   0  0  2  0  0  0  0  0  0  0  0  0
   26.7415   15.3336   19.8810 C   0  0  0  0  0  0  0  0  0  0  0  0
   26.8560   15.0252   18.6960 O   0  0  0  0  0  0  0  0  0  0  0  0
   29.2341   15.7871   19.9521 C   0  0  0  0  0  0  0  0  0  0  0  0
   30.3661   16.6011   20.5781 C   0  0  0  0  0  0  0  0  0  0  0  0
   31.7349   16.2069   20.0403 C   0  0  0  0  0  0  0  0  0  0  0  0
   32.8293   17.1075   20.6047 C   0  0  0  0  0  0  0  0  0  0  0  0
   32.8983   17.0873   22.1066 N   0  0  0  0  0  0  0  0  0  0  0  0
   25.6771   15.0324   20.4291 O   0  0  0  0  0  0  0  0  0  0  0  0
  2  1  1  1  0  0  0
  2  3  1  0  0  0  0
  2  5  1  0  0  0  0
  3  4  1  0  0  0  0
  3 10  1  0  0  0  0
  5  6  1  0  0  0  0
  6  7  1  0  0  0  0
  7  8  1  0  0  0  0
  8  9  1  0  0  0  0
M  END
>  <CHROM.1>
-146.23712969,-62.07427206,171.40300436,175.67876869,58.26548659,29.17598710
15.96311277,20.47953206,2.93899515,-0.25040157,-1.71149965

>  <Name>
ligand

>  <RI>
0

>  <Rbt.Current_Directory>
/home/itssahil/PROJECTS/Mol_Feturizer/New_Systems/rnas/3DIL

>  <Rbt.Executable>
rbdock ($Id: //depot/dev/client3/rdock/2013.1/src/exe/rbdock.cxx#4 $)

>  <Rbt.Library>
libRbt.so (2013.1, Build901 2013/11/27)

>  <Rbt.Parameter_File>
/export/apps/rDock/src/rDock_2013.1_src/data/scripts/dock_solv.prm

>  <Rbt.Receptor>
prm/pocket_docking_2.prm

>  <SCORE>
-7.32911

>  <SCORE.INTER>
-7.67439

>  <SCORE.INTER.CONST>
1

>  <SCORE.INTER.POLAR>
0

>  <SCORE.INTER.ROT>
5

>  <SCORE.INTER.SOLV>
16.7963

>  <SCORE.INTER.VDW>
-17.6484

>  <SCORE.INTER.norm>
-0.767439

>  <SCORE.INTRA>
0.345277

>  <SCORE.INTRA.DIHEDRAL>
-0.957955

>  <SCORE.INTRA.DIHEDRAL.0>
2.93688

>  <SCORE.INTRA.POLAR>
0

>  <SCORE.INTRA.POLAR.0>
0

>  <SCORE.INTRA.REPUL>
0

>  <SCORE.INTRA.REPUL.0>
0

>  <SCORE.INTRA.SOLV>
0.380401

>  <SCORE.INTRA.SOLV.lig_0>
-32.2816

>  <SCORE.INTRA.VDW>
0.634054

>  <SCORE.INTRA.VDW.0>
-0.749945

>  <SCORE.INTRA.norm>
0.0345277

>  <SCORE.RESTR>
0

>  <SCORE.RESTR.CAVITY>
0

>  <SCORE.RESTR.norm>
0

>  <SCORE.SYSTEM>
0

>  <SCORE.SYSTEM.CONST>
0

>  <SCORE.SYSTEM.DIHEDRAL>
0

>  <SCORE.SYSTEM.SOLV>
0

>  <SCORE.SYSTEM.norm>
0

>  <SCORE.heavy>
10

>  <SCORE.norm>
-0.732911

>  <RMSD>
5.637

$$$$
ligand
 OpenBabel11021811473D
libRbt.so/2013.1/901 2013/11/27
 10  9  0  0  0  0  0  0  0  0999 V2000
   25.7408   15.2665   20.2647 N   0  0  0  0  0  0  0  0  0  0  0  0
   27.0178   15.8506   19.7559 C   0  0  2  0  0  0  0  0  0  0  0  0
   27.4658   15.1690   18.4634 C   0  0  0  0  0  0  0  0  0  0  0  0
   27.1688   13.9995   18.2254 O   0  0  0  0  0  0  0  0  0  0  0  0
   28.1090   15.8012   20.8320 C   0  0  0  0  0  0  0  0  0  0  0  0
   29.3889   16.5264   20.4175 C   0  0  0  0  0  0  0  0  0  0  0  0
   30.4522   16.5025   21.5070 C   0  0  0  0  0  0  0  0  0  0  0  0
   31.7365   17.1798   21.0390 C   0  0  0  0  0  0  0  0  0  0  0  0
   32.8028   17.2259   22.0981 N   0  0  0  0  0  0  0  0  0  0  0  0
   28.1156   15.7605   17.5963 O   0  0  0  0  0  0  0  0  0  0  0  0
  2  1  1  1  0  0  0
  2  3  1  0  0  0  0
  2  5  1  0  0  0  0
  3  4  1  0  0  0  0
  3 10  1  0  0  0  0
  5  6  1  0  0  0  0
  6  7  1  0  0  0  0
  7  8  1  0  0  0  0
  8  9  1  0  0  0  0
M  END
>  <CHROM.1>
-28.47745521,-173.57865754,178.50325566,177.48026112,177.93767924,28.79910007
15.91020251,19.98474699,2.58165660,-0.26158258,-1.81255642

>  <Name>
ligand

>  <RI>
0

>  <Rbt.Current_Directory>
/home/itssahil/PROJECTS/Mol_Feturizer/New_Systems/rnas/3DIL

>  <Rbt.Executable>
rbdock ($Id: //depot/dev/client3/rdock/2013.1/src/exe/rbdock.cxx#4 $)

>  <Rbt.Library>
libRbt.so (2013.1, Build901 2013/11/27)

>  <Rbt.Parameter_File>
/export/apps/rDock/src/rDock_2013.1_src/data/scripts/dock_solv.prm

>  <Rbt.Receptor>
prm/pocket_docking_8.prm

>  <SCORE>
-8.70047

>  <SCORE.INTER>
-7.31767

>  <SCORE.INTER.CONST>
1

>  <SCORE.INTER.POLAR>
0

>  <SCORE.INTER.ROT>
5

>  <SCORE.INTER.SOLV>
18.7086

>  <SCORE.INTER.VDW>
-18.048

>  <SCORE.INTER.norm>
-0.731767

>  <SCORE.INTRA>
-1.38279

>  <SCORE.INTRA.DIHEDRAL>
-1.17591

>  <SCORE.INTRA.DIHEDRAL.0>
2.93688

>  <SCORE.INTRA.POLAR>
0

>  <SCORE.INTRA.POLAR.0>
0

>  <SCORE.INTRA.REPUL>
0

>  <SCORE.INTRA.REPUL.0>
0

>  <SCORE.INTRA.SOLV>
-1.48915

>  <SCORE.INTRA.SOLV.lig_0>
-32.2816

>  <SCORE.INTRA.VDW>
-0.0502679

>  <SCORE.INTRA.VDW.0>
-0.749945

>  <SCORE.INTRA.norm>
-0.138279

>  <SCORE.RESTR>
0

>  <SCORE.RESTR.CAVITY>
0

>  <SCORE.RESTR.norm>
0

>  <SCORE.SYSTEM>
0

>  <SCORE.SYSTEM.CONST>
0

>  <SCORE.SYSTEM.DIHEDRAL>
0

>  <SCORE.SYSTEM.SOLV>
0

>  <SCORE.SYSTEM.norm>
0

>  <SCORE.heavy>
10

>  <SCORE.norm>
-0.870047

>  <RMSD>
5.637

$$$$
ligand
 OpenBabel11021811473D
libRbt.so/2013.1/901 2013/11/27
 10  9  0  0  0  0  0  0  0  0999 V2000
   25.7442   15.2317   20.3100 N   0  0  0  0  0  0  0  0  0  0  0  0
   27.0081   15.8372   19.7935 C   0  0  2  0  0  0  0  0  0  0  0  0
   27.4518   15.1728   18.4906 C   0  0  0  0  0  0  0  0  0  0  0  0
   27.1366   14.0133   18.2288 O   0  0  0  0  0  0  0  0  0  0  0  0
   28.1107   15.7931   20.8581 C   0  0  0  0  0  0  0  0  0  0  0  0
   29.3782   16.5350   20.4352 C   0  0  0  0  0  0  0  0  0  0  0  0
   30.4603   16.4987   21.5057 C   0  0  0  0  0  0  0  0  0  0  0  0
   31.7111   17.2443   21.0508 C   0  0  0  0  0  0  0  0  0  0  0  0
   32.7939   17.2779   22.0935 N   0  0  0  0  0  0  0  0  0  0  0  0
   28.1164   15.7697   17.6385 O   0  0  0  0  0  0  0  0  0  0  0  0
  2  1  1  1  0  0  0
  2  3  1  0  0  0  0
  2  5  1  0  0  0  0
  3  4  1  0  0  0  0
  3 10  1  0  0  0  0
  5  6  1  0  0  0  0
  6  7  1  0  0  0  0
  7  8  1  0  0  0  0
  8  9  1  0  0  0  0
M  END
>  <CHROM.1>
-26.44266511,-173.76920653,179.33969021,179.85944705,178.00841283,28.79030109
15.91967413,20.00513647,2.58833894,-0.27833179,-1.80257559

>  <Name>
ligand

>  <RI>
0

>  <Rbt.Current_Directory>
/home/itssahil/PROJECTS/Mol_Feturizer/New_Systems/rnas/3DIL

>  <Rbt.Executable>
rbdock ($Id: //depot/dev/client3/rdock/2013.1/src/exe/rbdock.cxx#4 $)

>  <Rbt.Library>
libRbt.so (2013.1, Build901 2013/11/27)

>  <Rbt.Parameter_File>
/export/apps/rDock/src/rDock_2013.1_src/data/scripts/dock_solv.prm

>  <Rbt.Receptor>
prm/pocket_docking_4.prm

>  <SCORE>
-8.68689

>  <SCORE.INTER>
-7.30336

>  <SCORE.INTER.CONST>
1

>  <SCORE.INTER.POLAR>
0

>  <SCORE.INTER.ROT>
5

>  <SCORE.INTER.SOLV>
18.6567

>  <SCORE.INTER.VDW>
-18.0211

>  <SCORE.INTER.norm>
-0.730336

>  <SCORE.INTRA>
-1.38353

>  <SCORE.INTRA.DIHEDRAL>
-1.22026

>  <SCORE.INTRA.DIHEDRAL.0>
2.93688

>  <SCORE.INTRA.POLAR>
0

>  <SCORE.INTRA.POLAR.0>
0

>  <SCORE.INTRA.REPUL>
0

>  <SCORE.INTRA.REPUL.0>
0

>  <SCORE.INTRA.SOLV>
-1.48864

>  <SCORE.INTRA.SOLV.lig_0>
-32.2816

>  <SCORE.INTRA.VDW>
-0.0290803

>  <SCORE.INTRA.VDW.0>
-0.749945

>  <SCORE.INTRA.norm>
-0.138353

>  <SCORE.RESTR>
0

>  <SCORE.RESTR.CAVITY>
0

>  <SCORE.RESTR.norm>
0

>  <SCORE.SYSTEM>
0

>  <SCORE.SYSTEM.CONST>
0

>  <SCORE.SYSTEM.DIHEDRAL>
0

>  <SCORE.SYSTEM.SOLV>
0

>  <SCORE.SYSTEM.norm>
0

>  <SCORE.heavy>
10

>  <SCORE.norm>
-0.868689

>  <RMSD>
5.639

$$$$
ligand
 OpenBabel11021811473D
libRbt.so/2013.1/901 2013/11/27
 10  9  0  0  0  0  0  0  0  0999 V2000
   27.0745   14.4785   17.9824 N   0  0  0  0  0  0  0  0  0  0  0  0
   27.6054   14.7324   19.3551 C   0  0  2  0  0  0  0  0  0  0  0  0
   26.4837   15.0963   20.3274 C   0  0  0  0  0  0  0  0  0  0  0  0
   25.4409   15.6132   19.9303 O   0  0  0  0  0  0  0  0  0  0  0  0
   28.7032   15.8025   19.3279 C   0  0  0  0  0  0  0  0  0  0  0  0
   29.4447   15.9304   20.6581 C   0  0  0  0  0  0  0  0  0  0  0  0
   30.5445   16.9826   20.6144 C   0  0  0  0  0  0  0  0  0  0  0  0
   31.3213   17.0230   21.9266 C   0  0  0  0  0  0  0  0  0  0  0  0
   32.4050   18.0653   21.9427 N   0  0  0  0  0  0  0  0  0  0  0  0
   26.5595   14.8670   21.5381 O   0  0  0  0  0  0  0  0  0  0  0  0
  2  1  1  6  0  0  0
  2  3  1  0  0  0  0
  2  5  1  0  0  0  0
  3  4  1  0  0  0  0
  3 10  1  0  0  0  0
  5  6  1  0  0  0  0
  6  7  1  0  0  0  0
  7  8  1  0  0  0  0
  8  9  1  0  0  0  0
M  END
>  <CHROM.1>
-26.22949734,-170.15304703,179.24172184,-176.40312379,-178.96943439,28.52284566
15.86062807,20.37851484,-2.71638777,0.34000773,1.29790055

>  <Name>
ligand

>  <RI>
0

>  <Rbt.Current_Directory>
/home/itssahil/PROJECTS/Mol_Feturizer/New_Systems/rnas/3DIL

>  <Rbt.Executable>
rbdock ($Id: //depot/dev/client3/rdock/2013.1/src/exe/rbdock.cxx#4 $)

>  <Rbt.Library>
libRbt.so (2013.1, Build901 2013/11/27)

>  <Rbt.Parameter_File>
/export/apps/rDock/src/rDock_2013.1_src/data/scripts/dock_solv.prm

>  <Rbt.Receptor>
prm/pocket_docking_7.prm

>  <SCORE>
-9.48051

>  <SCORE.INTER>
-8.17798

>  <SCORE.INTER.CONST>
1

>  <SCORE.INTER.POLAR>
0

>  <SCORE.INTER.ROT>
5

>  <SCORE.INTER.SOLV>
15.8931

>  <SCORE.INTER.VDW>
-17.683

>  <SCORE.INTER.norm>
-0.817798

>  <SCORE.INTRA>
-1.30254

>  <SCORE.INTRA.DIHEDRAL>
-0.962797

>  <SCORE.INTRA.DIHEDRAL.0>
2.93688

>  <SCORE.INTRA.POLAR>
0

>  <SCORE.INTRA.POLAR.0>
0

>  <SCORE.INTRA.REPUL>
0

>  <SCORE.INTRA.REPUL.0>
0

>  <SCORE.INTRA.SOLV>
-1.4848

>  <SCORE.INTRA.SOLV.lig_0>
-32.2816

>  <SCORE.INTRA.VDW>
-0.0787363

>  <SCORE.INTRA.VDW.0>
-0.749945

>  <SCORE.INTRA.norm>
-0.130254

>  <SCORE.RESTR>
0

>  <SCORE.RESTR.CAVITY>
0

>  <SCORE.RESTR.norm>
0

>  <SCORE.SYSTEM>
0

>  <SCORE.SYSTEM.CONST>
0

>  <SCORE.SYSTEM.DIHEDRAL>
0

>  <SCORE.SYSTEM.SOLV>
0

>  <SCORE.SYSTEM.norm>
0

>  <SCORE.heavy>
10

>  <SCORE.norm>
-0.948051

>  <RMSD>
5.639

$$$$
ligand
 OpenBabel11021811473D
libRbt.so/2013.1/901 2013/11/27
 10  9  0  0  0  0  0  0  0  0999 V2000
   28.1537   14.6563   21.7339 N   0  0  0  0  0  0  0  0  0  0  0  0
   27.9237   15.7166   20.7076 C   0  0  2  0  0  0  0  0  0  0  0  0
   26.7852   15.3376   19.7610 C   0  0  0  0  0  0  0  0  0  0  0  0
   25.6094   15.4936   20.0861 O   0  0  0  0  0  0  0  0  0  0  0  0
   29.2164   16.0295   19.9448 C   0  0  0  0  0  0  0  0  0  0  0  0
   30.3714   16.4240   20.8648 C   0  0  0  0  0  0  0  0  0  0  0  0
   31.6476   16.7398   20.0968 C   0  0  0  0  0  0  0  0  0  0  0  0
   32.8028   17.0399   21.0468 C   0  0  0  0  0  0  0  0  0  0  0  0
   32.5386   18.2124   21.9503 N   0  0  0  0  0  0  0  0  0  0  0  0
   26.9896   14.8878   18.6296 O   0  0  0  0  0  0  0  0  0  0  0  0
  2  1  1  1  0  0  0
  2  3  1  0  0  0  0
  2  5  1  0  0  0  0
  3  4  1  0  0  0  0
  3 10  1  0  0  0  0
  5  6  1  0  0  0  0
  6  7  1  0  0  0  0
  7  8  1  0  0  0  0
  8  9  1  0  0  0  0
M  END
>  <CHROM.1>
80.42135993,-55.58570166,-179.68478763,-176.26928763,-59.78231380,29.16600962
16.04215496,20.45904156,2.90675656,-0.35097364,-1.61918602

>  <Name>
ligand

>  <RI>
0

>  <Rbt.Current_Directory>
/home/itssahil/PROJECTS/Mol_Feturizer/New_Systems/rnas/3DIL

>  <Rbt.Executable>
rbdock ($Id: //depot/dev/client3/rdock/2013.1/src/exe/rbdock.cxx#4 $)

>  <Rbt.Library>
libRbt.so (2013.1, Build901 2013/11/27)

>  <Rbt.Parameter_File>
/export/apps/rDock/src/rDock_2013.1_src/data/scripts/dock_solv.prm

>  <Rbt.Receptor>
prm/blind_docking_100.prm

>  <SCORE>
-7.64391

>  <SCORE.INTER>
-7.72837

>  <SCORE.INTER.CONST>
1

>  <SCORE.INTER.POLAR>
0

>  <SCORE.INTER.ROT>
5

>  <SCORE.INTER.SOLV>
15.3678

>  <SCORE.INTER.VDW>
-17.2082

>  <SCORE.INTER.norm>
-0.772837

>  <SCORE.INTRA>
0.0844636

>  <SCORE.INTRA.DIHEDRAL>
-1.25789

>  <SCORE.INTRA.DIHEDRAL.0>
2.93688

>  <SCORE.INTRA.POLAR>
0

>  <SCORE.INTRA.POLAR.0>
0

>  <SCORE.INTRA.REPUL>
0

>  <SCORE.INTRA.REPUL.0>
0

>  <SCORE.INTRA.SOLV>
0.37041

>  <SCORE.INTRA.SOLV.lig_0>
-32.2816

>  <SCORE.INTRA.VDW>
0.528204

>  <SCORE.INTRA.VDW.0>
-0.749945

>  <SCORE.INTRA.norm>
0.00844636

>  <SCORE.RESTR>
0

>  <SCORE.RESTR.CAVITY>
0

>  <SCORE.RESTR.norm>
0

>  <SCORE.SYSTEM>
0

>  <SCORE.SYSTEM.CONST>
0

>  <SCORE.SYSTEM.DIHEDRAL>
0

>  <SCORE.SYSTEM.SOLV>
0

>  <SCORE.SYSTEM.norm>
0

>  <SCORE.heavy>
10

>  <SCORE.norm>
-0.764391

>  <RMSD>
5.640

$$$$
ligand
 OpenBabel11021811473D
libRbt.so/2013.1/901 2013/11/27
 10  9  0  0  0  0  0  0  0  0999 V2000
   27.0775   14.4802   17.9842 N   0  0  0  0  0  0  0  0  0  0  0  0
   27.6069   14.7369   19.3570 C   0  0  2  0  0  0  0  0  0  0  0  0
   26.4836   15.0983   20.3283 C   0  0  0  0  0  0  0  0  0  0  0  0
   25.4309   15.5918   19.9276 O   0  0  0  0  0  0  0  0  0  0  0  0
   28.7015   15.8102   19.3295 C   0  0  0  0  0  0  0  0  0  0  0  0
   29.4451   15.9382   20.6586 C   0  0  0  0  0  0  0  0  0  0  0  0
   30.5754   16.9566   20.5993 C   0  0  0  0  0  0  0  0  0  0  0  0
   31.3297   17.0209   21.9237 C   0  0  0  0  0  0  0  0  0  0  0  0
   32.4837   17.9846   21.9031 N   0  0  0  0  0  0  0  0  0  0  0  0
   26.5682   14.8898   21.5422 O   0  0  0  0  0  0  0  0  0  0  0  0
  2  1  1  6  0  0  0
  2  3  1  0  0  0  0
  2  5  1  0  0  0  0
  3  4  1  0  0  0  0
  3 10  1  0  0  0  0
  5  6  1  0  0  0  0
  6  7  1  0  0  0  0
  7  8  1  0  0  0  0
  8  9  1  0  0  0  0
M  END
>  <CHROM.1>
-25.03843178,-169.95830548,177.10677994,-177.82602766,178.29120752,28.53471379
15.85228909,20.37360528,-2.72651015,0.33388535,1.30443127

>  <Name>
ligand

>  <RI>
0

>  <Rbt.Current_Directory>
/home/itssahil/PROJECTS/Mol_Feturizer/New_Systems/rnas/3DIL

>  <Rbt.Executable>
rbdock ($Id: //depot/dev/client3/rdock/2013.1/src/exe/rbdock.cxx#4 $)

>  <Rbt.Library>
libRbt.so (2013.1, Build901 2013/11/27)

>  <Rbt.Parameter_File>
/export/apps/rDock/src/rDock_2013.1_src/data/scripts/dock_solv.prm

>  <Rbt.Receptor>
prm/pocket_docking_5.prm

>  <SCORE>
-9.46838

>  <SCORE.INTER>
-8.18343

>  <SCORE.INTER.CONST>
1

>  <SCORE.INTER.POLAR>
0

>  <SCORE.INTER.ROT>
5

>  <SCORE.INTER.SOLV>
15.7984

>  <SCORE.INTER.VDW>
-17.6551

>  <SCORE.INTER.norm>
-0.818343

>  <SCORE.INTRA>
-1.28495

>  <SCORE.INTRA.DIHEDRAL>
-0.943789

>  <SCORE.INTRA.DIHEDRAL.0>
2.93688

>  <SCORE.INTRA.POLAR>
0

>  <SCORE.INTRA.POLAR.0>
0

>  <SCORE.INTRA.REPUL>
0

>  <SCORE.INTRA.REPUL.0>
0

>  <SCORE.INTRA.SOLV>
-1.48403

>  <SCORE.INTRA.SOLV.lig_0>
-32.2816

>  <SCORE.INTRA.VDW>
-0.0710359

>  <SCORE.INTRA.VDW.0>
-0.749945

>  <SCORE.INTRA.norm>
-0.128495

>  <SCORE.RESTR>
0

>  <SCORE.RESTR.CAVITY>
0

>  <SCORE.RESTR.norm>
0

>  <SCORE.SYSTEM>
0

>  <SCORE.SYSTEM.CONST>
0

>  <SCORE.SYSTEM.DIHEDRAL>
0

>  <SCORE.SYSTEM.SOLV>
0

>  <SCORE.SYSTEM.norm>
0

>  <SCORE.heavy>
10

>  <SCORE.norm>
-0.946838

>  <RMSD>
5.640

$$$$
ligand
 OpenBabel11021811473D
libRbt.so/2013.1/901 2013/11/27
 10  9  0  0  0  0  0  0  0  0999 V2000
   26.1874   14.9524   20.6677 N   0  0  0  0  0  0  0  0  0  0  0  0
   27.1508   15.7166   19.8200 C   0  0  2  0  0  0  0  0  0  0  0  0
   27.3622   15.0375   18.4672 C   0  0  0  0  0  0  0  0  0  0  0  0
   26.9417   13.9018   18.2533 O   0  0  0  0  0  0  0  0  0  0  0  0
   28.4762   15.9351   20.5594 C   0  0  0  0  0  0  0  0  0  0  0  0
   29.4328   16.8605   19.8082 C   0  0  0  0  0  0  0  0  0  0  0  0
   30.8313   16.8674   20.4102 C   0  0  0  0  0  0  0  0  0  0  0  0
   30.8662   17.6580   21.7143 C   0  0  0  0  0  0  0  0  0  0  0  0
   32.2543   17.8320   22.2656 N   0  0  0  0  0  0  0  0  0  0  0  0
   27.9341   15.5999   17.5287 O   0  0  0  0  0  0  0  0  0  0  0  0
  2  1  1  1  0  0  0
  2  3  1  0  0  0  0
  2  5  1  0  0  0  0
  3  4  1  0  0  0  0
  3 10  1  0  0  0  0
  5  6  1  0  0  0  0
  6  7  1  0  0  0  0
  7  8  1  0  0  0  0
  8  9  1  0  0  0  0
M  END
>  <CHROM.1>
-10.95844726,-172.77747211,-169.32122860,-74.47254238,-173.23350764,28.73817857
16.01663580,19.91358190,2.54406179,-0.46170532,-1.75736260

>  <Name>
ligand

>  <RI>
0

>  <Rbt.Current_Directory>
/home/itssahil/PROJECTS/Mol_Feturizer/New_Systems/rnas/3DIL

>  <Rbt.Executable>
rbdock ($Id: //depot/dev/client3/rdock/2013.1/src/exe/rbdock.cxx#4 $)

>  <Rbt.Library>
libRbt.so (2013.1, Build901 2013/11/27)

>  <Rbt.Parameter_File>
/export/apps/rDock/src/rDock_2013.1_src/data/scripts/dock_solv.prm

>  <Rbt.Receptor>
prm/pocket_docking_6.prm

>  <SCORE>
-7.29943

>  <SCORE.INTER>
-7.304

>  <SCORE.INTER.CONST>
1

>  <SCORE.INTER.POLAR>
0

>  <SCORE.INTER.ROT>
5

>  <SCORE.INTER.SOLV>
17.0526

>  <SCORE.INTER.VDW>
-17.4869

>  <SCORE.INTER.norm>
-0.7304

>  <SCORE.INTRA>
0.00457053

>  <SCORE.INTRA.DIHEDRAL>
0.265787

>  <SCORE.INTRA.DIHEDRAL.0>
2.93688

>  <SCORE.INTRA.POLAR>
0

>  <SCORE.INTRA.POLAR.0>
0

>  <SCORE.INTRA.REPUL>
0

>  <SCORE.INTRA.REPUL.0>
0

>  <SCORE.INTRA.SOLV>
-1.3552

>  <SCORE.INTRA.SOLV.lig_0>
-32.2816

>  <SCORE.INTRA.VDW>
0.549276

>  <SCORE.INTRA.VDW.0>
-0.749945

>  <SCORE.INTRA.norm>
0.000457053

>  <SCORE.RESTR>
0

>  <SCORE.RESTR.CAVITY>
0

>  <SCORE.RESTR.norm>
0

>  <SCORE.SYSTEM>
0

>  <SCORE.SYSTEM.CONST>
0

>  <SCORE.SYSTEM.DIHEDRAL>
0

>  <SCORE.SYSTEM.SOLV>
0

>  <SCORE.SYSTEM.norm>
0

>  <SCORE.heavy>
10

>  <SCORE.norm>
-0.729943

>  <RMSD>
5.640

$$$$
ligand
 OpenBabel11021811473D
libRbt.so/2013.1/901 2013/11/27
 10  9  0  0  0  0  0  0  0  0999 V2000
   28.6356   15.4401   18.9395 N   0  0  0  0  0  0  0  0  0  0  0  0
   28.2085   15.1620   20.3434 C   0  0  2  0  0  0  0  0  0  0  0  0
   26.6861   15.1843   20.4769 C   0  0  0  0  0  0  0  0  0  0  0  0
   25.9730   15.5805   19.5566 O   0  0  0  0  0  0  0  0  0  0  0  0
   28.8789   16.1336   21.3219 C   0  0  0  0  0  0  0  0  0  0  0  0
   30.4051   16.0894   21.2550 C   0  0  0  0  0  0  0  0  0  0  0  0
   31.0572   17.2062   22.0586 C   0  0  0  0  0  0  0  0  0  0  0  0
   32.5725   17.1998   21.8826 C   0  0  0  0  0  0  0  0  0  0  0  0
   33.2516   18.3663   22.5452 N   0  0  0  0  0  0  0  0  0  0  0  0
   26.1067   14.7856   21.4915 O   0  0  0  0  0  0  0  0  0  0  0  0
  2  1  1  6  0  0  0
  2  3  1  0  0  0  0
  2  5  1  0  0  0  0
  3  4  1  0  0  0  0
  3 10  1  0  0  0  0
  5  6  1  0  0  0  0
  6  7  1  0  0  0  0
  7  8  1  0  0  0  0
  8  9  1  0  0  0  0
M  END
>  <CHROM.1>
-9.70046924,-57.61120202,170.73696525,-175.54478324,174.24413679,29.13180612
16.10860769,20.98612439,-2.79537047,0.34100382,1.40947292

>  <Name>
ligand

>  <RI>
0

>  <Rbt.Current_Directory>
/home/itssahil/PROJECTS/Mol_Feturizer/New_Systems/rnas/3DIL

>  <Rbt.Executable>
rbdock ($Id: //depot/dev/client3/rdock/2013.1/src/exe/rbdock.cxx#4 $)

>  <Rbt.Library>
libRbt.so (2013.1, Build901 2013/11/27)

>  <Rbt.Parameter_File>
/export/apps/rDock/src/rDock_2013.1_src/data/scripts/dock_solv.prm

>  <Rbt.Receptor>
prm/pocket_docking_2.prm

>  <SCORE>
-9.09976

>  <SCORE.INTER>
-8.5204

>  <SCORE.INTER.CONST>
1

>  <SCORE.INTER.POLAR>
0

>  <SCORE.INTER.ROT>
5

>  <SCORE.INTER.SOLV>
12.984

>  <SCORE.INTER.VDW>
-16.9416

>  <SCORE.INTER.norm>
-0.85204

>  <SCORE.INTRA>
-0.579353

>  <SCORE.INTRA.DIHEDRAL>
-0.820941

>  <SCORE.INTRA.DIHEDRAL.0>
2.93688

>  <SCORE.INTRA.POLAR>
0

>  <SCORE.INTRA.POLAR.0>
0

>  <SCORE.INTRA.REPUL>
0

>  <SCORE.INTRA.REPUL.0>
0

>  <SCORE.INTRA.SOLV>
-0.492565

>  <SCORE.INTRA.SOLV.lig_0>
-32.2816

>  <SCORE.INTRA.VDW>
0.0774001

>  <SCORE.INTRA.VDW.0>
-0.749945

>  <SCORE.INTRA.norm>
-0.0579353

>  <SCORE.RESTR>
0

>  <SCORE.RESTR.CAVITY>
0

>  <SCORE.RESTR.norm>
0

>  <SCORE.SYSTEM>
0

>  <SCORE.SYSTEM.CONST>
0

>  <SCORE.SYSTEM.DIHEDRAL>
0

>  <SCORE.SYSTEM.SOLV>
0

>  <SCORE.SYSTEM.norm>
0

>  <SCORE.heavy>
10

>  <SCORE.norm>
-0.909976

>  <RMSD>
5.647

$$$$
ligand
 OpenBabel11021811473D
libRbt.so/2013.1/901 2013/11/27
 10  9  0  0  0  0  0  0  0  0999 V2000
   28.6242   15.4418   18.9431 N   0  0  0  0  0  0  0  0  0  0  0  0
   28.2031   15.1643   20.3489 C   0  0  2  0  0  0  0  0  0  0  0  0
   26.6811   15.1816   20.4878 C   0  0  0  0  0  0  0  0  0  0  0  0
   25.9632   15.5713   19.5686 O   0  0  0  0  0  0  0  0  0  0  0  0
   28.8737   16.1396   21.3236 C   0  0  0  0  0  0  0  0  0  0  0  0
   30.3996   16.1087   21.2430 C   0  0  0  0  0  0  0  0  0  0  0  0
   31.0497   17.2174   22.0594 C   0  0  0  0  0  0  0  0  0  0  0  0
   32.5650   17.2160   21.8830 C   0  0  0  0  0  0  0  0  0  0  0  0
   33.2394   18.3906   22.5361 N   0  0  0  0  0  0  0  0  0  0  0  0
   26.1069   14.7851   21.5062 O   0  0  0  0  0  0  0  0  0  0  0  0
  2  1  1  6  0  0  0
  2  3  1  0  0  0  0
  2  5  1  0  0  0  0
  3  4  1  0  0  0  0
  3 10  1  0  0  0  0
  5  6  1  0  0  0  0
  6  7  1  0  0  0  0
  7  8  1  0  0  0  0
  8  9  1  0  0  0  0
M  END
>  <CHROM.1>
-9.54233591,-57.13735941,171.55889318,-176.19394173,173.10904410,29.12490181
16.11528154,20.98912465,-2.79655633,0.34426459,1.40752995

>  <Name>
ligand

>  <RI>
0

>  <Rbt.Current_Directory>
/home/itssahil/PROJECTS/Mol_Feturizer/New_Systems/rnas/3DIL

>  <Rbt.Executable>
rbdock ($Id: //depot/dev/client3/rdock/2013.1/src/exe/rbdock.cxx#4 $)

>  <Rbt.Library>
libRbt.so (2013.1, Build901 2013/11/27)

>  <Rbt.Parameter_File>
/export/apps/rDock/src/rDock_2013.1_src/data/scripts/dock_solv.prm

>  <Rbt.Receptor>
prm/pocket_docking_2.prm

>  <SCORE>
-9.09202

>  <SCORE.INTER>
-8.51135

>  <SCORE.INTER.CONST>
1

>  <SCORE.INTER.POLAR>
0

>  <SCORE.INTER.ROT>
5

>  <SCORE.INTER.SOLV>
12.9622

>  <SCORE.INTER.VDW>
-16.9283

>  <SCORE.INTER.norm>
-0.851135

>  <SCORE.INTRA>
-0.580668

>  <SCORE.INTRA.DIHEDRAL>
-0.840552

>  <SCORE.INTRA.DIHEDRAL.0>
2.93688

>  <SCORE.INTRA.POLAR>
0

>  <SCORE.INTRA.POLAR.0>
0

>  <SCORE.INTRA.REPUL>
0

>  <SCORE.INTRA.REPUL.0>
0

>  <SCORE.INTRA.SOLV>
-0.490831

>  <SCORE.INTRA.SOLV.lig_0>
-32.2816

>  <SCORE.INTRA.VDW>
0.0850238

>  <SCORE.INTRA.VDW.0>
-0.749945

>  <SCORE.INTRA.norm>
-0.0580668

>  <SCORE.RESTR>
0

>  <SCORE.RESTR.CAVITY>
0

>  <SCORE.RESTR.norm>
0

>  <SCORE.SYSTEM>
0

>  <SCORE.SYSTEM.CONST>
0

>  <SCORE.SYSTEM.DIHEDRAL>
0

>  <SCORE.SYSTEM.SOLV>
0

>  <SCORE.SYSTEM.norm>
0

>  <SCORE.heavy>
10

>  <SCORE.norm>
-0.909202

>  <RMSD>
5.649

$$$$
ligand
 OpenBabel11021811473D
libRbt.so/2013.1/901 2013/11/27
 10  9  0  0  0  0  0  0  0  0999 V2000
   26.1236   14.9752   20.6627 N   0  0  0  0  0  0  0  0  0  0  0  0
   27.0945   15.7102   19.7980 C   0  0  2  0  0  0  0  0  0  0  0  0
   27.3065   14.9932   18.4650 C   0  0  0  0  0  0  0  0  0  0  0  0
   27.8754   15.5495   17.5273 O   0  0  0  0  0  0  0  0  0  0  0  0
   28.4186   15.9409   20.5359 C   0  0  0  0  0  0  0  0  0  0  0  0
   29.3749   16.8572   19.7732 C   0  0  0  0  0  0  0  0  0  0  0  0
   30.7747   16.8681   20.3719 C   0  0  0  0  0  0  0  0  0  0  0  0
   30.8115   17.6630   21.6735 C   0  0  0  0  0  0  0  0  0  0  0  0
   32.1990   17.8279   22.2290 N   0  0  0  0  0  0  0  0  0  0  0  0
   26.9454   13.8276   18.2779 O   0  0  0  0  0  0  0  0  0  0  0  0
  2  1  1  1  0  0  0
  2  3  1  0  0  0  0
  2  5  1  0  0  0  0
  3  4  1  0  0  0  0
  3 10  1  0  0  0  0
  5  6  1  0  0  0  0
  6  7  1  0  0  0  0
  7  8  1  0  0  0  0
  8  9  1  0  0  0  0
M  END
>  <CHROM.1>
166.90761935,-171.88928203,-168.98163022,-74.03180589,-173.86964422,28.68763134
16.00081531,19.89619809,2.53750706,-0.45516503,-1.78408376

>  <Name>
ligand

>  <RI>
0

>  <Rbt.Current_Directory>
/home/itssahil/PROJECTS/Mol_Feturizer/New_Systems/rnas/3DIL

>  <Rbt.Executable>
rbdock ($Id: //depot/dev/client3/rdock/2013.1/src/exe/rbdock.cxx#4 $)

>  <Rbt.Library>
libRbt.so (2013.1, Build901 2013/11/27)

>  <Rbt.Parameter_File>
/export/apps/rDock/src/rDock_2013.1_src/data/scripts/dock_solv.prm

>  <Rbt.Receptor>
prm/pocket_docking_7.prm

>  <SCORE>
-7.38711

>  <SCORE.INTER>
-7.33785

>  <SCORE.INTER.CONST>
1

>  <SCORE.INTER.POLAR>
0

>  <SCORE.INTER.ROT>
5

>  <SCORE.INTER.SOLV>
17.099

>  <SCORE.INTER.VDW>
-17.5249

>  <SCORE.INTER.norm>
-0.733785

>  <SCORE.INTRA>
-0.0492601

>  <SCORE.INTRA.DIHEDRAL>
0.196222

>  <SCORE.INTRA.DIHEDRAL.0>
2.93688

>  <SCORE.INTRA.POLAR>
0

>  <SCORE.INTRA.POLAR.0>
0

>  <SCORE.INTRA.REPUL>
0

>  <SCORE.INTRA.REPUL.0>
0

>  <SCORE.INTRA.SOLV>
-1.35988

>  <SCORE.INTRA.SOLV.lig_0>
-32.2816

>  <SCORE.INTRA.VDW>
0.532567

>  <SCORE.INTRA.VDW.0>
-0.749945

>  <SCORE.INTRA.norm>
-0.00492601

>  <SCORE.RESTR>
0

>  <SCORE.RESTR.CAVITY>
0

>  <SCORE.RESTR.norm>
0

>  <SCORE.SYSTEM>
0

>  <SCORE.SYSTEM.CONST>
0

>  <SCORE.SYSTEM.DIHEDRAL>
0

>  <SCORE.SYSTEM.SOLV>
0

>  <SCORE.SYSTEM.norm>
0

>  <SCORE.heavy>
10

>  <SCORE.norm>
-0.738711

>  <RMSD>
5.660

$$$$
ligand
 OpenBabel11021811473D
libRbt.so/2013.1/901 2013/11/27
 10  9  0  0  0  0  0  0  0  0999 V2000
   28.6212   14.9862   19.0023 N   0  0  0  0  0  0  0  0  0  0  0  0
   28.1575   15.1286   20.4149 C   0  0  2  0  0  0  0  0  0  0  0  0
   26.6350   15.2374   20.4928 C   0  0  0  0  0  0  0  0  0  0  0  0
   25.9863   15.7450   19.5796 O   0  0  0  0  0  0  0  0  0  0  0  0
   28.8476   16.3138   21.1004 C   0  0  0  0  0  0  0  0  0  0  0  0
   30.3692   16.1761   21.1411 C   0  0  0  0  0  0  0  0  0  0  0  0
   31.0491   17.3929   21.7538 C   0  0  0  0  0  0  0  0  0  0  0  0
   32.5673   17.2457   21.7314 C   0  0  0  0  0  0  0  0  0  0  0  0
   33.2887   18.4584   22.2509 N   0  0  0  0  0  0  0  0  0  0  0  0
   25.9905   14.8022   21.4516 O   0  0  0  0  0  0  0  0  0  0  0  0
  2  1  1  6  0  0  0
  2  3  1  0  0  0  0
  2  5  1  0  0  0  0
  3  4  1  0  0  0  0
  3 10  1  0  0  0  0
  5  6  1  0  0  0  0
  6  7  1  0  0  0  0
  7  8  1  0  0  0  0
  8  9  1  0  0  0  0
M  END
>  <CHROM.1>
-30.41106435,-59.86368655,176.80901634,-177.86720567,176.54881050,29.10531576
16.14431149,20.89053569,-2.76376410,0.28201806,1.18159399

>  <Name>
ligand

>  <RI>
0

>  <Rbt.Current_Directory>
/home/itssahil/PROJECTS/Mol_Feturizer/New_Systems/rnas/3DIL

>  <Rbt.Executable>
rbdock ($Id: //depot/dev/client3/rdock/2013.1/src/exe/rbdock.cxx#4 $)

>  <Rbt.Library>
libRbt.so (2013.1, Build901 2013/11/27)

>  <Rbt.Parameter_File>
/export/apps/rDock/src/rDock_2013.1_src/data/scripts/dock_solv.prm

>  <Rbt.Receptor>
prm/pocket_docking_8.prm

>  <SCORE>
-9.50655

>  <SCORE.INTER>
-8.53633

>  <SCORE.INTER.CONST>
1

>  <SCORE.INTER.POLAR>
0

>  <SCORE.INTER.ROT>
5

>  <SCORE.INTER.SOLV>
13.2632

>  <SCORE.INTER.VDW>
-17.0453

>  <SCORE.INTER.norm>
-0.853633

>  <SCORE.INTRA>
-0.970212

>  <SCORE.INTRA.DIHEDRAL>
-1.26756

>  <SCORE.INTRA.DIHEDRAL.0>
2.93688

>  <SCORE.INTRA.POLAR>
0

>  <SCORE.INTRA.POLAR.0>
0

>  <SCORE.INTRA.REPUL>
0

>  <SCORE.INTRA.REPUL.0>
0

>  <SCORE.INTRA.SOLV>
-0.561933

>  <SCORE.INTRA.SOLV.lig_0>
-32.2816

>  <SCORE.INTRA.VDW>
-0.0554683

>  <SCORE.INTRA.VDW.0>
-0.749945

>  <SCORE.INTRA.norm>
-0.0970212

>  <SCORE.RESTR>
0

>  <SCORE.RESTR.CAVITY>
0

>  <SCORE.RESTR.norm>
0

>  <SCORE.SYSTEM>
0

>  <SCORE.SYSTEM.CONST>
0

>  <SCORE.SYSTEM.DIHEDRAL>
0

>  <SCORE.SYSTEM.SOLV>
0

>  <SCORE.SYSTEM.norm>
0

>  <SCORE.heavy>
10

>  <SCORE.norm>
-0.950655

>  <RMSD>
5.661

$$$$
ligand
 OpenBabel11021811473D
libRbt.so/2013.1/901 2013/11/27
 10  9  0  0  0  0  0  0  0  0999 V2000
   28.6134   15.0090   18.9315 N   0  0  0  0  0  0  0  0  0  0  0  0
   28.1682   15.1481   20.3503 C   0  0  2  0  0  0  0  0  0  0  0  0
   26.6448   15.2179   20.4515 C   0  0  0  0  0  0  0  0  0  0  0  0
   25.9689   15.7006   19.5446 O   0  0  0  0  0  0  0  0  0  0  0  0
   28.8379   16.3549   21.0181 C   0  0  0  0  0  0  0  0  0  0  0  0
   30.3601   16.2335   21.0807 C   0  0  0  0  0  0  0  0  0  0  0  0
   31.0168   17.4497   21.7193 C   0  0  0  0  0  0  0  0  0  0  0  0
   32.5357   17.3093   21.7394 C   0  0  0  0  0  0  0  0  0  0  0  0
   33.2345   18.5059   22.3232 N   0  0  0  0  0  0  0  0  0  0  0  0
   26.0269   14.7744   21.4239 O   0  0  0  0  0  0  0  0  0  0  0  0
  2  1  1  6  0  0  0
  2  3  1  0  0  0  0
  2  5  1  0  0  0  0
  3  4  1  0  0  0  0
  3 10  1  0  0  0  0
  5  6  1  0  0  0  0
  6  7  1  0  0  0  0
  7  8  1  0  0  0  0
  8  9  1  0  0  0  0
M  END
>  <CHROM.1>
-30.27298057,-61.92996912,178.81250233,-178.80391543,178.22839719,29.09494378
16.16499883,20.85729610,-2.75080171,0.29504029,1.19125745

>  <Name>
ligand

>  <RI>
0

>  <Rbt.Current_Directory>
/home/itssahil/PROJECTS/Mol_Feturizer/New_Systems/rnas/3DIL

>  <Rbt.Executable>
rbdock ($Id: //depot/dev/client3/rdock/2013.1/src/exe/rbdock.cxx#4 $)

>  <Rbt.Library>
libRbt.so (2013.1, Build901 2013/11/27)

>  <Rbt.Parameter_File>
/export/apps/rDock/src/rDock_2013.1_src/data/scripts/dock_solv.prm

>  <Rbt.Receptor>
prm/pocket_docking_6.prm

>  <SCORE>
-9.50767

>  <SCORE.INTER>
-8.46594

>  <SCORE.INTER.CONST>
1

>  <SCORE.INTER.POLAR>
0

>  <SCORE.INTER.ROT>
5

>  <SCORE.INTER.SOLV>
13.3085

>  <SCORE.INTER.VDW>
-17.0135

>  <SCORE.INTER.norm>
-0.846594

>  <SCORE.INTRA>
-1.04173

>  <SCORE.INTRA.DIHEDRAL>
-1.33084

>  <SCORE.INTRA.DIHEDRAL.0>
2.93688

>  <SCORE.INTRA.POLAR>
0

>  <SCORE.INTRA.POLAR.0>
0

>  <SCORE.INTRA.REPUL>
0

>  <SCORE.INTRA.REPUL.0>
0

>  <SCORE.INTRA.SOLV>
-0.599671

>  <SCORE.INTRA.SOLV.lig_0>
-32.2816

>  <SCORE.INTRA.VDW>
-0.0764714

>  <SCORE.INTRA.VDW.0>
-0.749945

>  <SCORE.INTRA.norm>
-0.104173

>  <SCORE.RESTR>
0

>  <SCORE.RESTR.CAVITY>
0

>  <SCORE.RESTR.norm>
0

>  <SCORE.SYSTEM>
0

>  <SCORE.SYSTEM.CONST>
0

>  <SCORE.SYSTEM.DIHEDRAL>
0

>  <SCORE.SYSTEM.SOLV>
0

>  <SCORE.SYSTEM.norm>
0

>  <SCORE.heavy>
10

>  <SCORE.norm>
-0.950767

>  <RMSD>
5.665

$$$$
ligand
 OpenBabel11021811473D
libRbt.so/2013.1/901 2013/11/27
 10  9  0  0  0  0  0  0  0  0999 V2000
   28.2398   15.4457   18.5842 N   0  0  0  0  0  0  0  0  0  0  0  0
   28.0529   15.2302   20.0503 C   0  0  2  0  0  0  0  0  0  0  0  0
   26.5728   15.2449   20.4310 C   0  0  0  0  0  0  0  0  0  0  0  0
   26.1892   14.7947   21.5092 O   0  0  0  0  0  0  0  0  0  0  0  0
   28.8583   16.2528   20.8606 C   0  0  0  0  0  0  0  0  0  0  0  0
   30.3616   16.1722   20.5971 C   0  0  0  0  0  0  0  0  0  0  0  0
   31.1458   17.2285   21.3636 C   0  0  0  0  0  0  0  0  0  0  0  0
   32.6327   17.1621   21.0289 C   0  0  0  0  0  0  0  0  0  0  0  0
   33.4359   18.2562   21.6761 N   0  0  0  0  0  0  0  0  0  0  0  0
   25.7069   15.7275   19.6952 O   0  0  0  0  0  0  0  0  0  0  0  0
  2  1  1  6  0  0  0
  2  3  1  0  0  0  0
  2  5  1  0  0  0  0
  3  4  1  0  0  0  0
  3 10  1  0  0  0  0
  5  6  1  0  0  0  0
  6  7  1  0  0  0  0
  7  8  1  0  0  0  0
  8  9  1  0  0  0  0
M  END
>  <CHROM.1>
163.44342500,-60.46213615,177.68406728,-177.37037150,175.38187465,29.07444020
16.14590275,20.58626000,-2.93597048,0.33906267,1.45429193

>  <Name>
ligand

>  <RI>
0

>  <Rbt.Current_Directory>
/home/itssahil/PROJECTS/Mol_Feturizer/New_Systems/rnas/3DIL

>  <Rbt.Executable>
rbdock ($Id: //depot/dev/client3/rdock/2013.1/src/exe/rbdock.cxx#4 $)

>  <Rbt.Library>
libRbt.so (2013.1, Build901 2013/11/27)

>  <Rbt.Parameter_File>
/export/apps/rDock/src/rDock_2013.1_src/data/scripts/dock_solv.prm

>  <Rbt.Receptor>
prm/pocket_docking_6.prm

>  <SCORE>
-9.66124

>  <SCORE.INTER>
-8.69874

>  <SCORE.INTER.CONST>
1

>  <SCORE.INTER.POLAR>
0

>  <SCORE.INTER.ROT>
5

>  <SCORE.INTER.SOLV>
13.4415

>  <SCORE.INTER.VDW>
-17.213

>  <SCORE.INTER.norm>
-0.869874

>  <SCORE.INTRA>
-0.962501

>  <SCORE.INTRA.DIHEDRAL>
-1.33838

>  <SCORE.INTRA.DIHEDRAL.0>
2.93688

>  <SCORE.INTRA.POLAR>
0

>  <SCORE.INTRA.POLAR.0>
0

>  <SCORE.INTRA.REPUL>
0

>  <SCORE.INTRA.REPUL.0>
0

>  <SCORE.INTRA.SOLV>
-0.580465

>  <SCORE.INTRA.SOLV.lig_0>
-32.2816

>  <SCORE.INTRA.VDW>
-0.00308079

>  <SCORE.INTRA.VDW.0>
-0.749945

>  <SCORE.INTRA.norm>
-0.0962501

>  <SCORE.RESTR>
0

>  <SCORE.RESTR.CAVITY>
0

>  <SCORE.RESTR.norm>
0

>  <SCORE.SYSTEM>
0

>  <SCORE.SYSTEM.CONST>
0

>  <SCORE.SYSTEM.DIHEDRAL>
0

>  <SCORE.SYSTEM.SOLV>
0

>  <SCORE.SYSTEM.norm>
0

>  <SCORE.heavy>
10

>  <SCORE.norm>
-0.966124

>  <RMSD>
5.665

$$$$
ligand
 OpenBabel11021811473D
libRbt.so/2013.1/901 2013/11/27
 10  9  0  0  0  0  0  0  0  0999 V2000
   28.5438   14.9880   18.9292 N   0  0  0  0  0  0  0  0  0  0  0  0
   28.1059   15.0852   20.3538 C   0  0  2  0  0  0  0  0  0  0  0  0
   26.5873   15.2197   20.4615 C   0  0  0  0  0  0  0  0  0  0  0  0
   25.9336   15.7707   19.5775 O   0  0  0  0  0  0  0  0  0  0  0  0
   28.8301   16.2302   21.0718 C   0  0  0  0  0  0  0  0  0  0  0  0
   30.3488   16.0593   21.0866 C   0  0  0  0  0  0  0  0  0  0  0  0
   31.0644   17.2535   21.7031 C   0  0  0  0  0  0  0  0  0  0  0  0
   32.5788   17.0798   21.6433 C   0  0  0  0  0  0  0  0  0  0  0  0
   33.3336   18.2650   22.1786 N   0  0  0  0  0  0  0  0  0  0  0  0
   25.9504   14.7637   21.4157 O   0  0  0  0  0  0  0  0  0  0  0  0
  2  1  1  6  0  0  0
  2  3  1  0  0  0  0
  2  5  1  0  0  0  0
  3  4  1  0  0  0  0
  3 10  1  0  0  0  0
  5  6  1  0  0  0  0
  6  7  1  0  0  0  0
  7  8  1  0  0  0  0
  8  9  1  0  0  0  0
M  END
>  <CHROM.1>
-30.21504012,-60.10547954,175.44651056,-177.35133469,177.13075188,29.08166616
16.06807088,20.84145096,-2.79140474,0.27351174,1.22473285

>  <Name>
ligand

>  <RI>
0

>  <Rbt.Current_Directory>
/home/itssahil/PROJECTS/Mol_Feturizer/New_Systems/rnas/3DIL

>  <Rbt.Executable>
rbdock ($Id: //depot/dev/client3/rdock/2013.1/src/exe/rbdock.cxx#4 $)

>  <Rbt.Library>
libRbt.so (2013.1, Build901 2013/11/27)

>  <Rbt.Parameter_File>
/export/apps/rDock/src/rDock_2013.1_src/data/scripts/dock_solv.prm

>  <Rbt.Receptor>
prm/pocket_docking_8.prm

>  <SCORE>
-9.50305

>  <SCORE.INTER>
-8.55277

>  <SCORE.INTER.CONST>
1

>  <SCORE.INTER.POLAR>
0

>  <SCORE.INTER.ROT>
5

>  <SCORE.INTER.SOLV>
13.3289

>  <SCORE.INTER.VDW>
-17.0782

>  <SCORE.INTER.norm>
-0.855277

>  <SCORE.INTRA>
-0.95028

>  <SCORE.INTRA.DIHEDRAL>
-1.22654

>  <SCORE.INTRA.DIHEDRAL.0>
2.93688

>  <SCORE.INTRA.POLAR>
0

>  <SCORE.INTRA.POLAR.0>
0

>  <SCORE.INTRA.REPUL>
0

>  <SCORE.INTRA.REPUL.0>
0

>  <SCORE.INTRA.SOLV>
-0.55778

>  <SCORE.INTRA.SOLV.lig_0>
-32.2816

>  <SCORE.INTRA.VDW>
-0.0581222

>  <SCORE.INTRA.VDW.0>
-0.749945

>  <SCORE.INTRA.norm>
-0.095028

>  <SCORE.RESTR>
0

>  <SCORE.RESTR.CAVITY>
0

>  <SCORE.RESTR.norm>
0

>  <SCORE.SYSTEM>
0

>  <SCORE.SYSTEM.CONST>
0

>  <SCORE.SYSTEM.DIHEDRAL>
0

>  <SCORE.SYSTEM.SOLV>
0

>  <SCORE.SYSTEM.norm>
0

>  <SCORE.heavy>
10

>  <SCORE.norm>
-0.950305

>  <RMSD>
5.667

$$$$
ligand
 OpenBabel11021811473D
libRbt.so/2013.1/901 2013/11/27
 10  9  0  0  0  0  0  0  0  0999 V2000
   28.7580   14.1281   21.5959 N   0  0  0  0  0  0  0  0  0  0  0  0
   28.1032   15.4313   21.2740 C   0  0  2  0  0  0  0  0  0  0  0  0
   26.9645   15.2495   20.2710 C   0  0  0  0  0  0  0  0  0  0  0  0
   27.1871   15.1684   19.0643 O   0  0  0  0  0  0  0  0  0  0  0  0
   29.1340   16.4552   20.7840 C   0  0  0  0  0  0  0  0  0  0  0  0
   30.3315   16.5928   21.7237 C   0  0  0  0  0  0  0  0  0  0  0  0
   31.3595   17.5947   21.2161 C   0  0  0  0  0  0  0  0  0  0  0  0
   32.5935   17.6206   22.1127 C   0  0  0  0  0  0  0  0  0  0  0  0
   33.5959   18.6674   21.7122 N   0  0  0  0  0  0  0  0  0  0  0  0
   25.7852   15.1498   20.6223 O   0  0  0  0  0  0  0  0  0  0  0  0
  2  1  1  6  0  0  0
  2  3  1  0  0  0  0
  2  5  1  0  0  0  0
  3  4  1  0  0  0  0
  3 10  1  0  0  0  0
  5  6  1  0  0  0  0
  6  7  1  0  0  0  0
  7  8  1  0  0  0  0
  8  9  1  0  0  0  0
M  END
>  <CHROM.1>
-81.79530155,-51.38704042,179.04775515,-175.15315765,-175.73961773,29.34343288
16.19563653,21.01331935,-2.98771260,-0.49355366,-0.79284186

>  <Name>
ligand

>  <RI>
0

>  <Rbt.Current_Directory>
/home/itssahil/PROJECTS/Mol_Feturizer/New_Systems/rnas/3DIL

>  <Rbt.Executable>
rbdock ($Id: //depot/dev/client3/rdock/2013.1/src/exe/rbdock.cxx#4 $)

>  <Rbt.Library>
libRbt.so (2013.1, Build901 2013/11/27)

>  <Rbt.Parameter_File>
/export/apps/rDock/src/rDock_2013.1_src/data/scripts/dock_solv.prm

>  <Rbt.Receptor>
prm/pocket_docking_2.prm

>  <SCORE>
-6.90801

>  <SCORE.INTER>
-6.42944

>  <SCORE.INTER.CONST>
1

>  <SCORE.INTER.POLAR>
0

>  <SCORE.INTER.ROT>
5

>  <SCORE.INTER.SOLV>
17.8478

>  <SCORE.INTER.VDW>
-17.1689

>  <SCORE.INTER.norm>
-0.642944

>  <SCORE.INTRA>
-0.479724

>  <SCORE.INTRA.DIHEDRAL>
-1.04169

>  <SCORE.INTRA.DIHEDRAL.0>
2.93688

>  <SCORE.INTRA.POLAR>
0

>  <SCORE.INTRA.POLAR.0>
0

>  <SCORE.INTRA.REPUL>
0

>  <SCORE.INTRA.REPUL.0>
0

>  <SCORE.INTRA.SOLV>
-0.486568

>  <SCORE.INTRA.SOLV.lig_0>
-32.2816

>  <SCORE.INTRA.VDW>
0.284406

>  <SCORE.INTRA.VDW.0>
-0.749945

>  <SCORE.INTRA.norm>
-0.0479724

>  <SCORE.RESTR>
0.00115486

>  <SCORE.RESTR.CAVITY>
0.00115486

>  <SCORE.RESTR.norm>
0.000115486

>  <SCORE.SYSTEM>
0

>  <SCORE.SYSTEM.CONST>
0

>  <SCORE.SYSTEM.DIHEDRAL>
0

>  <SCORE.SYSTEM.SOLV>
0

>  <SCORE.SYSTEM.norm>
0

>  <SCORE.heavy>
10

>  <SCORE.norm>
-0.690801

>  <RMSD>
5.669

$$$$
ligand
 OpenBabel11021811473D
libRbt.so/2013.1/901 2013/11/27
 10  9  0  0  0  0  0  0  0  0999 V2000
   28.4763   15.2419   18.8379 N   0  0  0  0  0  0  0  0  0  0  0  0
   28.1133   15.1902   20.2857 C   0  0  2  0  0  0  0  0  0  0  0  0
   26.5980   15.2293   20.4814 C   0  0  0  0  0  0  0  0  0  0  0  0
   26.0782   14.7960   21.5083 O   0  0  0  0  0  0  0  0  0  0  0  0
   28.8160   16.3073   21.0662 C   0  0  0  0  0  0  0  0  0  0  0  0
   30.3398   16.2281   20.9796 C   0  0  0  0  0  0  0  0  0  0  0  0
   31.0260   17.3803   21.7007 C   0  0  0  0  0  0  0  0  0  0  0  0
   32.5431   17.2863   21.5713 C   0  0  0  0  0  0  0  0  0  0  0  0
   33.2662   18.4329   22.2220 N   0  0  0  0  0  0  0  0  0  0  0  0
   25.8363   15.7157   19.6405 O   0  0  0  0  0  0  0  0  0  0  0  0
  2  1  1  6  0  0  0
  2  3  1  0  0  0  0
  2  5  1  0  0  0  0
  3  4  1  0  0  0  0
  3 10  1  0  0  0  0
  5  6  1  0  0  0  0
  6  7  1  0  0  0  0
  7  8  1  0  0  0  0
  8  9  1  0  0  0  0
M  END
>  <CHROM.1>
157.41451592,-59.63018910,177.19176260,-178.86555954,177.73401805,29.06367019
16.17542063,20.83117584,-2.81500539,0.32654804,1.31277535

>  <Name>
ligand

>  <RI>
0

>  <Rbt.Current_Directory>
/home/itssahil/PROJECTS/Mol_Feturizer/New_Systems/rnas/3DIL

>  <Rbt.Executable>
rbdock ($Id: //depot/dev/client3/rdock/2013.1/src/exe/rbdock.cxx#4 $)

>  <Rbt.Library>
libRbt.so (2013.1, Build901 2013/11/27)

>  <Rbt.Parameter_File>
/export/apps/rDock/src/rDock_2013.1_src/data/scripts/dock_solv.prm

>  <Rbt.Receptor>
prm/pocket_docking_8.prm

>  <SCORE>
-9.56611

>  <SCORE.INTER>
-8.54039

>  <SCORE.INTER.CONST>
1

>  <SCORE.INTER.POLAR>
0

>  <SCORE.INTER.ROT>
5

>  <SCORE.INTER.SOLV>
12.9813

>  <SCORE.INTER.VDW>
-16.954

>  <SCORE.INTER.norm>
-0.854039

>  <SCORE.INTRA>
-1.02573

>  <SCORE.INTRA.DIHEDRAL>
-1.42226

>  <SCORE.INTRA.DIHEDRAL.0>
2.93688

>  <SCORE.INTRA.POLAR>
0

>  <SCORE.INTRA.POLAR.0>
0

>  <SCORE.INTRA.REPUL>
0

>  <SCORE.INTRA.REPUL.0>
0

>  <SCORE.INTRA.SOLV>
-0.570655

>  <SCORE.INTRA.SOLV.lig_0>
-32.2816

>  <SCORE.INTRA.VDW>
-0.0292703

>  <SCORE.INTRA.VDW.0>
-0.749945

>  <SCORE.INTRA.norm>
-0.102573

>  <SCORE.RESTR>
0

>  <SCORE.RESTR.CAVITY>
0

>  <SCORE.RESTR.norm>
0

>  <SCORE.SYSTEM>
0

>  <SCORE.SYSTEM.CONST>
0

>  <SCORE.SYSTEM.DIHEDRAL>
0

>  <SCORE.SYSTEM.SOLV>
0

>  <SCORE.SYSTEM.norm>
0

>  <SCORE.heavy>
10

>  <SCORE.norm>
-0.956611

>  <RMSD>
5.669

$$$$
ligand
 OpenBabel11021811473D
libRbt.so/2013.1/901 2013/11/27
 10  9  0  0  0  0  0  0  0  0999 V2000
   28.2702   15.2120   18.6337 N   0  0  0  0  0  0  0  0  0  0  0  0
   28.0428   15.1609   20.1089 C   0  0  2  0  0  0  0  0  0  0  0  0
   26.5532   15.2236   20.4451 C   0  0  0  0  0  0  0  0  0  0  0  0
   26.1263   14.8086   21.5212 O   0  0  0  0  0  0  0  0  0  0  0  0
   28.8333   16.2637   20.8229 C   0  0  0  0  0  0  0  0  0  0  0  0
   30.3423   16.1504   20.6085 C   0  0  0  0  0  0  0  0  0  0  0  0
   31.1146   17.2706   21.2918 C   0  0  0  0  0  0  0  0  0  0  0  0
   32.6113   17.1534   21.0208 C   0  0  0  0  0  0  0  0  0  0  0  0
   33.4183   18.2460   21.6657 N   0  0  0  0  0  0  0  0  0  0  0  0
   25.7224   15.7118   19.6733 O   0  0  0  0  0  0  0  0  0  0  0  0
  2  1  1  6  0  0  0
  2  3  1  0  0  0  0
  2  5  1  0  0  0  0
  3  4  1  0  0  0  0
  3 10  1  0  0  0  0
  5  6  1  0  0  0  0
  6  7  1  0  0  0  0
  7  8  1  0  0  0  0
  8  9  1  0  0  0  0
M  END
>  <CHROM.1>
158.24250143,-60.33382132,178.52219167,-178.16298069,179.49892634,29.05809348
16.11553804,20.58507993,-2.90635939,0.32451430,1.35043767

>  <Name>
ligand

>  <RI>
0

>  <Rbt.Current_Directory>
/home/itssahil/PROJECTS/Mol_Feturizer/New_Systems/rnas/3DIL

>  <Rbt.Executable>
rbdock ($Id: //depot/dev/client3/rdock/2013.1/src/exe/rbdock.cxx#4 $)

>  <Rbt.Library>
libRbt.so (2013.1, Build901 2013/11/27)

>  <Rbt.Parameter_File>
/export/apps/rDock/src/rDock_2013.1_src/data/scripts/dock_solv.prm

>  <Rbt.Receptor>
prm/blind_docking_80.prm

>  <SCORE>
-9.6601

>  <SCORE.INTER>
-8.60778

>  <SCORE.INTER.CONST>
1

>  <SCORE.INTER.POLAR>
0

>  <SCORE.INTER.ROT>
5

>  <SCORE.INTER.SOLV>
13.3911

>  <SCORE.INTER.VDW>
-17.1355

>  <SCORE.INTER.norm>
-0.860778

>  <SCORE.INTRA>
-1.05232

>  <SCORE.INTRA.DIHEDRAL>
-1.45348

>  <SCORE.INTRA.DIHEDRAL.0>
2.93688

>  <SCORE.INTRA.POLAR>
0

>  <SCORE.INTRA.POLAR.0>
0

>  <SCORE.INTRA.REPUL>
0

>  <SCORE.INTRA.REPUL.0>
0

>  <SCORE.INTRA.SOLV>
-0.586557

>  <SCORE.INTRA.SOLV.lig_0>
-32.2816

>  <SCORE.INTRA.VDW>
-0.0323033

>  <SCORE.INTRA.VDW.0>
-0.749945

>  <SCORE.INTRA.norm>
-0.105232

>  <SCORE.RESTR>
0

>  <SCORE.RESTR.CAVITY>
0

>  <SCORE.RESTR.norm>
0

>  <SCORE.SYSTEM>
0

>  <SCORE.SYSTEM.CONST>
0

>  <SCORE.SYSTEM.DIHEDRAL>
0

>  <SCORE.SYSTEM.SOLV>
0

>  <SCORE.SYSTEM.norm>
0

>  <SCORE.heavy>
10

>  <SCORE.norm>
-0.96601

>  <RMSD>
5.670

$$$$
ligand
 OpenBabel11021811473D
libRbt.so/2013.1/901 2013/11/27
 10  9  0  0  0  0  0  0  0  0999 V2000
   28.6939   14.1561   21.4780 N   0  0  0  0  0  0  0  0  0  0  0  0
   28.0406   15.4741   21.2196 C   0  0  2  0  0  0  0  0  0  0  0  0
   26.8924   15.3398   20.2197 C   0  0  0  0  0  0  0  0  0  0  0  0
   25.7206   15.3435   20.5930 O   0  0  0  0  0  0  0  0  0  0  0  0
   29.0703   16.5155   20.7658 C   0  0  0  0  0  0  0  0  0  0  0  0
   30.2731   16.6133   21.7037 C   0  0  0  0  0  0  0  0  0  0  0  0
   31.3218   17.5991   21.2071 C   0  0  0  0  0  0  0  0  0  0  0  0
   32.5748   17.5553   22.0760 C   0  0  0  0  0  0  0  0  0  0  0  0
   33.6294   18.5374   21.6464 N   0  0  0  0  0  0  0  0  0  0  0  0
   27.0837   15.2496   19.0035 O   0  0  0  0  0  0  0  0  0  0  0  0
  2  1  1  6  0  0  0
  2  3  1  0  0  0  0
  2  5  1  0  0  0  0
  3  4  1  0  0  0  0
  3 10  1  0  0  0  0
  5  6  1  0  0  0  0
  6  7  1  0  0  0  0
  7  8  1  0  0  0  0
  8  9  1  0  0  0  0
M  END
>  <CHROM.1>
102.94472651,-51.68090980,177.11292465,-173.47614221,-178.56222959,29.29170315
16.23029843,20.96715411,-2.99340902,-0.46779424,-0.75673412

>  <Name>
ligand

>  <RI>
0

>  <Rbt.Current_Directory>
/home/itssahil/PROJECTS/Mol_Feturizer/New_Systems/rnas/3DIL

>  <Rbt.Executable>
rbdock ($Id: //depot/dev/client3/rdock/2013.1/src/exe/rbdock.cxx#4 $)

>  <Rbt.Library>
libRbt.so (2013.1, Build901 2013/11/27)

>  <Rbt.Parameter_File>
/export/apps/rDock/src/rDock_2013.1_src/data/scripts/dock_solv.prm

>  <Rbt.Receptor>
prm/pocket_docking_6.prm

>  <SCORE>
-7.00014

>  <SCORE.INTER>
-6.49347

>  <SCORE.INTER.CONST>
1

>  <SCORE.INTER.POLAR>
0

>  <SCORE.INTER.ROT>
5

>  <SCORE.INTER.SOLV>
17.5422

>  <SCORE.INTER.VDW>
-17.1097

>  <SCORE.INTER.norm>
-0.649347

>  <SCORE.INTRA>
-0.50667

>  <SCORE.INTRA.DIHEDRAL>
-0.914765

>  <SCORE.INTRA.DIHEDRAL.0>
2.93688

>  <SCORE.INTRA.POLAR>
0

>  <SCORE.INTRA.POLAR.0>
0

>  <SCORE.INTRA.REPUL>
0

>  <SCORE.INTRA.REPUL.0>
0

>  <SCORE.INTRA.SOLV>
-0.495503

>  <SCORE.INTRA.SOLV.lig_0>
-32.2816

>  <SCORE.INTRA.VDW>
0.198464

>  <SCORE.INTRA.VDW.0>
-0.749945

>  <SCORE.INTRA.norm>
-0.050667

>  <SCORE.RESTR>
0

>  <SCORE.RESTR.CAVITY>
0

>  <SCORE.RESTR.norm>
0

>  <SCORE.SYSTEM>
0

>  <SCORE.SYSTEM.CONST>
0

>  <SCORE.SYSTEM.DIHEDRAL>
0

>  <SCORE.SYSTEM.SOLV>
0

>  <SCORE.SYSTEM.norm>
0

>  <SCORE.heavy>
10

>  <SCORE.norm>
-0.700014

>  <RMSD>
5.671

$$$$
ligand
 OpenBabel11021811473D
libRbt.so/2013.1/901 2013/11/27
 10  9  0  0  0  0  0  0  0  0999 V2000
   28.5559   15.0373   18.9455 N   0  0  0  0  0  0  0  0  0  0  0  0
   28.1292   15.1274   20.3739 C   0  0  2  0  0  0  0  0  0  0  0  0
   26.6072   15.1927   20.4972 C   0  0  0  0  0  0  0  0  0  0  0  0
   26.0302   14.7503   21.4891 O   0  0  0  0  0  0  0  0  0  0  0  0
   28.8073   16.3111   21.0739 C   0  0  0  0  0  0  0  0  0  0  0  0
   30.3248   16.1572   21.1709 C   0  0  0  0  0  0  0  0  0  0  0  0
   30.9927   17.3593   21.8244 C   0  0  0  0  0  0  0  0  0  0  0  0
   32.5082   17.1909   21.8698 C   0  0  0  0  0  0  0  0  0  0  0  0
   33.2173   18.3643   22.4872 N   0  0  0  0  0  0  0  0  0  0  0  0
   25.8965   15.7100   19.6305 O   0  0  0  0  0  0  0  0  0  0  0  0
  2  1  1  6  0  0  0
  2  3  1  0  0  0  0
  2  5  1  0  0  0  0
  3  4  1  0  0  0  0
  3 10  1  0  0  0  0
  5  6  1  0  0  0  0
  6  7  1  0  0  0  0
  7  8  1  0  0  0  0
  8  9  1  0  0  0  0
M  END
>  <CHROM.1>
150.72882782,-64.64423738,178.02458728,-178.39421147,179.06570576,29.06123364
16.11533077,20.93604904,-2.75463757,0.28815954,1.23184139

>  <Name>
ligand

>  <RI>
0

>  <Rbt.Current_Directory>
/home/itssahil/PROJECTS/Mol_Feturizer/New_Systems/rnas/3DIL

>  <Rbt.Executable>
rbdock ($Id: //depot/dev/client3/rdock/2013.1/src/exe/rbdock.cxx#4 $)

>  <Rbt.Library>
libRbt.so (2013.1, Build901 2013/11/27)

>  <Rbt.Parameter_File>
/export/apps/rDock/src/rDock_2013.1_src/data/scripts/dock_solv.prm

>  <Rbt.Receptor>
prm/blind_docking_100.prm

>  <SCORE>
-9.54692

>  <SCORE.INTER>
-8.43662

>  <SCORE.INTER.CONST>
1

>  <SCORE.INTER.POLAR>
0

>  <SCORE.INTER.ROT>
5

>  <SCORE.INTER.SOLV>
13.3298

>  <SCORE.INTER.VDW>
-17.001

>  <SCORE.INTER.norm>
-0.843662

>  <SCORE.INTRA>
-1.1103

>  <SCORE.INTRA.DIHEDRAL>
-1.3563

>  <SCORE.INTRA.DIHEDRAL.0>
2.93688

>  <SCORE.INTRA.POLAR>
0

>  <SCORE.INTRA.POLAR.0>
0

>  <SCORE.INTRA.REPUL>
0

>  <SCORE.INTRA.REPUL.0>
0

>  <SCORE.INTRA.SOLV>
-0.643971

>  <SCORE.INTRA.SOLV.lig_0>
-32.2816

>  <SCORE.INTRA.VDW>
-0.110164

>  <SCORE.INTRA.VDW.0>
-0.749945

>  <SCORE.INTRA.norm>
-0.11103

>  <SCORE.RESTR>
0

>  <SCORE.RESTR.CAVITY>
0

>  <SCORE.RESTR.norm>
0

>  <SCORE.SYSTEM>
0

>  <SCORE.SYSTEM.CONST>
0

>  <SCORE.SYSTEM.DIHEDRAL>
0

>  <SCORE.SYSTEM.SOLV>
0

>  <SCORE.SYSTEM.norm>
0

>  <SCORE.heavy>
10

>  <SCORE.norm>
-0.954692

>  <RMSD>
5.674

$$$$
ligand
 OpenBabel11021811473D
libRbt.so/2013.1/901 2013/11/27
 10  9  0  0  0  0  0  0  0  0999 V2000
   28.4645   15.1826   18.8274 N   0  0  0  0  0  0  0  0  0  0  0  0
   28.0917   15.1600   20.2735 C   0  0  2  0  0  0  0  0  0  0  0  0
   26.5757   15.2179   20.4585 C   0  0  0  0  0  0  0  0  0  0  0  0
   26.0414   14.7715   21.4723 O   0  0  0  0  0  0  0  0  0  0  0  0
   28.8009   16.2833   21.0390 C   0  0  0  0  0  0  0  0  0  0  0  0
   30.3233   16.1504   21.0187 C   0  0  0  0  0  0  0  0  0  0  0  0
   31.0201   17.3150   21.7089 C   0  0  0  0  0  0  0  0  0  0  0  0
   32.5371   17.1750   21.6298 C   0  0  0  0  0  0  0  0  0  0  0  0
   33.2727   18.3157   22.2769 N   0  0  0  0  0  0  0  0  0  0  0  0
   25.8280   15.7330   19.6221 O   0  0  0  0  0  0  0  0  0  0  0  0
  2  1  1  6  0  0  0
  2  3  1  0  0  0  0
  2  5  1  0  0  0  0
  3  4  1  0  0  0  0
  3 10  1  0  0  0  0
  5  6  1  0  0  0  0
  6  7  1  0  0  0  0
  7  8  1  0  0  0  0
  8  9  1  0  0  0  0
M  END
>  <CHROM.1>
155.21380025,-62.32112445,176.53344408,-178.09376864,178.95985528,29.04983501
16.12566346,20.83414463,-2.80563555,0.30757831,1.30647221

>  <Name>
ligand

>  <RI>
0

>  <Rbt.Current_Directory>
/home/itssahil/PROJECTS/Mol_Feturizer/New_Systems/rnas/3DIL

>  <Rbt.Executable>
rbdock ($Id: //depot/dev/client3/rdock/2013.1/src/exe/rbdock.cxx#4 $)

>  <Rbt.Library>
libRbt.so (2013.1, Build901 2013/11/27)

>  <Rbt.Parameter_File>
/export/apps/rDock/src/rDock_2013.1_src/data/scripts/dock_solv.prm

>  <Rbt.Receptor>
prm/blind_docking_60.prm

>  <SCORE>
-9.60154

>  <SCORE.INTER>
-8.53781

>  <SCORE.INTER.CONST>
1

>  <SCORE.INTER.POLAR>
0

>  <SCORE.INTER.ROT>
5

>  <SCORE.INTER.SOLV>
13.1125

>  <SCORE.INTER.VDW>
-16.9961

>  <SCORE.INTER.norm>
-0.853781

>  <SCORE.INTRA>
-1.06373

>  <SCORE.INTRA.DIHEDRAL>
-1.38497

>  <SCORE.INTRA.DIHEDRAL.0>
2.93688

>  <SCORE.INTRA.POLAR>
0

>  <SCORE.INTRA.POLAR.0>
0

>  <SCORE.INTRA.REPUL>
0

>  <SCORE.INTRA.REPUL.0>
0

>  <SCORE.INTRA.SOLV>
-0.603176

>  <SCORE.INTRA.SOLV.lig_0>
-32.2816

>  <SCORE.INTRA.VDW>
-0.0696546

>  <SCORE.INTRA.VDW.0>
-0.749945

>  <SCORE.INTRA.norm>
-0.106373

>  <SCORE.RESTR>
0

>  <SCORE.RESTR.CAVITY>
0

>  <SCORE.RESTR.norm>
0

>  <SCORE.SYSTEM>
0

>  <SCORE.SYSTEM.CONST>
0

>  <SCORE.SYSTEM.DIHEDRAL>
0

>  <SCORE.SYSTEM.SOLV>
0

>  <SCORE.SYSTEM.norm>
0

>  <SCORE.heavy>
10

>  <SCORE.norm>
-0.960154

>  <RMSD>
5.674

$$$$
ligand
 OpenBabel11021811473D
libRbt.so/2013.1/901 2013/11/27
 10  9  0  0  0  0  0  0  0  0999 V2000
   28.5398   14.5270   19.0086 N   0  0  0  0  0  0  0  0  0  0  0  0
   28.0982   14.9301   20.3772 C   0  0  2  0  0  0  0  0  0  0  0  0
   26.5810   15.1025   20.4444 C   0  0  0  0  0  0  0  0  0  0  0  0
   25.9485   15.5455   19.4873 O   0  0  0  0  0  0  0  0  0  0  0  0
   28.8345   16.1928   20.8400 C   0  0  0  0  0  0  0  0  0  0  0  0
   30.3424   15.9865   20.9803 C   0  0  0  0  0  0  0  0  0  0  0  0
   31.0680   17.2555   21.4062 C   0  0  0  0  0  0  0  0  0  0  0  0
   32.5720   17.0224   21.5095 C   0  0  0  0  0  0  0  0  0  0  0  0
   33.3421   18.2648   21.8621 N   0  0  0  0  0  0  0  0  0  0  0  0
   25.9241   14.7841   21.4400 O   0  0  0  0  0  0  0  0  0  0  0  0
  2  1  1  6  0  0  0
  2  3  1  0  0  0  0
  2  5  1  0  0  0  0
  3  4  1  0  0  0  0
  3 10  1  0  0  0  0
  5  6  1  0  0  0  0
  6  7  1  0  0  0  0
  7  8  1  0  0  0  0
  8  9  1  0  0  0  0
M  END
>  <CHROM.1>
-35.10772993,-63.52885281,178.55247400,-178.86260164,177.17344634,29.07907380
15.95835403,20.73474544,-2.76523761,0.23504100,1.02801078

>  <Name>
ligand

>  <RI>
0

>  <Rbt.Current_Directory>
/home/itssahil/PROJECTS/Mol_Feturizer/New_Systems/rnas/3DIL

>  <Rbt.Executable>
rbdock ($Id: //depot/dev/client3/rdock/2013.1/src/exe/rbdock.cxx#4 $)

>  <Rbt.Library>
libRbt.so (2013.1, Build901 2013/11/27)

>  <Rbt.Parameter_File>
/export/apps/rDock/src/rDock_2013.1_src/data/scripts/dock_solv.prm

>  <Rbt.Receptor>
prm/pocket_docking_2.prm

>  <SCORE>
-9.23542

>  <SCORE.INTER>
-8.18109

>  <SCORE.INTER.CONST>
1

>  <SCORE.INTER.POLAR>
0

>  <SCORE.INTER.ROT>
5

>  <SCORE.INTER.SOLV>
14.2612

>  <SCORE.INTER.VDW>
-17.1411

>  <SCORE.INTER.norm>
-0.818109

>  <SCORE.INTRA>
-1.05433

>  <SCORE.INTRA.DIHEDRAL>
-1.27522

>  <SCORE.INTRA.DIHEDRAL.0>
2.93688

>  <SCORE.INTRA.POLAR>
0

>  <SCORE.INTRA.POLAR.0>
0

>  <SCORE.INTRA.REPUL>
0

>  <SCORE.INTRA.REPUL.0>
0

>  <SCORE.INTRA.SOLV>
-0.620887

>  <SCORE.INTRA.SOLV.lig_0>
-32.2816

>  <SCORE.INTRA.VDW>
-0.10628

>  <SCORE.INTRA.VDW.0>
-0.749945

>  <SCORE.INTRA.norm>
-0.105433

>  <SCORE.RESTR>
0

>  <SCORE.RESTR.CAVITY>
0

>  <SCORE.RESTR.norm>
0

>  <SCORE.SYSTEM>
0

>  <SCORE.SYSTEM.CONST>
0

>  <SCORE.SYSTEM.DIHEDRAL>
0

>  <SCORE.SYSTEM.SOLV>
0

>  <SCORE.SYSTEM.norm>
0

>  <SCORE.heavy>
10

>  <SCORE.norm>
-0.923542

>  <RMSD>
5.674

$$$$
ligand
 OpenBabel11021811473D
libRbt.so/2013.1/901 2013/11/27
 10  9  0  0  0  0  0  0  0  0999 V2000
   28.4628   15.1645   18.8144 N   0  0  0  0  0  0  0  0  0  0  0  0
   28.0968   15.1749   20.2623 C   0  0  2  0  0  0  0  0  0  0  0  0
   26.5819   15.2405   20.4532 C   0  0  0  0  0  0  0  0  0  0  0  0
   25.8555   15.7518   19.6028 O   0  0  0  0  0  0  0  0  0  0  0  0
   28.8122   16.3134   20.9993 C   0  0  0  0  0  0  0  0  0  0  0  0
   30.3347   16.1872   20.9576 C   0  0  0  0  0  0  0  0  0  0  0  0
   31.0354   17.3400   21.6636 C   0  0  0  0  0  0  0  0  0  0  0  0
   32.5519   17.2048   21.5683 C   0  0  0  0  0  0  0  0  0  0  0  0
   33.2913   18.3203   22.2538 N   0  0  0  0  0  0  0  0  0  0  0  0
   26.0205   14.7655   21.4448 O   0  0  0  0  0  0  0  0  0  0  0  0
  2  1  1  6  0  0  0
  2  3  1  0  0  0  0
  2  5  1  0  0  0  0
  3  4  1  0  0  0  0
  3 10  1  0  0  0  0
  5  6  1  0  0  0  0
  6  7  1  0  0  0  0
  7  8  1  0  0  0  0
  8  9  1  0  0  0  0
M  END
>  <CHROM.1>
-26.87123838,-61.49993826,178.63632929,-178.33451442,-179.90202166,29.05849912
16.14118236,20.80313745,-2.80700205,0.30693646,1.29585057

>  <Name>
ligand

>  <RI>
0

>  <Rbt.Current_Directory>
/home/itssahil/PROJECTS/Mol_Feturizer/New_Systems/rnas/3DIL

>  <Rbt.Executable>
rbdock ($Id: //depot/dev/client3/rdock/2013.1/src/exe/rbdock.cxx#4 $)

>  <Rbt.Library>
libRbt.so (2013.1, Build901 2013/11/27)

>  <Rbt.Parameter_File>
/export/apps/rDock/src/rDock_2013.1_src/data/scripts/dock_solv.prm

>  <Rbt.Receptor>
prm/pocket_docking_5.prm

>  <SCORE>
-9.49016

>  <SCORE.INTER>
-8.46395

>  <SCORE.INTER.CONST>
1

>  <SCORE.INTER.POLAR>
0

>  <SCORE.INTER.ROT>
5

>  <SCORE.INTER.SOLV>
13.1287

>  <SCORE.INTER.VDW>
-16.9522

>  <SCORE.INTER.norm>
-0.846395

>  <SCORE.INTRA>
-1.02621

>  <SCORE.INTRA.DIHEDRAL>
-1.34193

>  <SCORE.INTRA.DIHEDRAL.0>
2.93688

>  <SCORE.INTRA.POLAR>
0

>  <SCORE.INTRA.POLAR.0>
0

>  <SCORE.INTRA.REPUL>
0

>  <SCORE.INTRA.REPUL.0>
0

>  <SCORE.INTRA.SOLV>
-0.592205

>  <SCORE.INTRA.SOLV.lig_0>
-32.2816

>  <SCORE.INTRA.VDW>
-0.0591433

>  <SCORE.INTRA.VDW.0>
-0.749945

>  <SCORE.INTRA.norm>
-0.102621

>  <SCORE.RESTR>
0

>  <SCORE.RESTR.CAVITY>
0

>  <SCORE.RESTR.norm>
0

>  <SCORE.SYSTEM>
0

>  <SCORE.SYSTEM.CONST>
0

>  <SCORE.SYSTEM.DIHEDRAL>
0

>  <SCORE.SYSTEM.SOLV>
0

>  <SCORE.SYSTEM.norm>
0

>  <SCORE.heavy>
10

>  <SCORE.norm>
-0.949016

>  <RMSD>
5.674

$$$$
ligand
 OpenBabel11021811473D
libRbt.so/2013.1/901 2013/11/27
 10  9  0  0  0  0  0  0  0  0999 V2000
   28.5741   14.9922   18.9681 N   0  0  0  0  0  0  0  0  0  0  0  0
   28.0885   15.0580   20.3789 C   0  0  2  0  0  0  0  0  0  0  0  0
   26.5660   15.1776   20.4386 C   0  0  0  0  0  0  0  0  0  0  0  0
   25.9326   14.7563   21.4049 O   0  0  0  0  0  0  0  0  0  0  0  0
   28.7781   16.1947   21.1425 C   0  0  0  0  0  0  0  0  0  0  0  0
   30.2945   16.0232   21.2263 C   0  0  0  0  0  0  0  0  0  0  0  0
   30.9830   17.2216   21.8650 C   0  0  0  0  0  0  0  0  0  0  0  0
   32.5009   17.0791   21.8104 C   0  0  0  0  0  0  0  0  0  0  0  0
   33.2289   18.2641   22.3819 N   0  0  0  0  0  0  0  0  0  0  0  0
   25.9110   15.7198   19.5436 O   0  0  0  0  0  0  0  0  0  0  0  0
  2  1  1  6  0  0  0
  2  3  1  0  0  0  0
  2  5  1  0  0  0  0
  3  4  1  0  0  0  0
  3 10  1  0  0  0  0
  5  6  1  0  0  0  0
  6  7  1  0  0  0  0
  7  8  1  0  0  0  0
  8  9  1  0  0  0  0
M  END
>  <CHROM.1>
152.37507897,-61.14112682,174.36715649,-174.47386259,177.77362376,29.03990681
16.04535973,20.91438404,-2.76039665,0.26982868,1.22895096

>  <Name>
ligand

>  <RI>
0

>  <Rbt.Current_Directory>
/home/itssahil/PROJECTS/Mol_Feturizer/New_Systems/rnas/3DIL

>  <Rbt.Executable>
rbdock ($Id: //depot/dev/client3/rdock/2013.1/src/exe/rbdock.cxx#4 $)

>  <Rbt.Library>
libRbt.so (2013.1, Build901 2013/11/27)

>  <Rbt.Parameter_File>
/export/apps/rDock/src/rDock_2013.1_src/data/scripts/dock_solv.prm

>  <Rbt.Receptor>
prm/pocket_docking_5.prm

>  <SCORE>
-9.55376

>  <SCORE.INTER>
-8.59595

>  <SCORE.INTER.CONST>
1

>  <SCORE.INTER.POLAR>
0

>  <SCORE.INTER.ROT>
5

>  <SCORE.INTER.SOLV>
13.38

>  <SCORE.INTER.VDW>
-17.124

>  <SCORE.INTER.norm>
-0.859595

>  <SCORE.INTRA>
-0.957813

>  <SCORE.INTRA.DIHEDRAL>
-1.19633

>  <SCORE.INTRA.DIHEDRAL.0>
2.93688

>  <SCORE.INTRA.POLAR>
0

>  <SCORE.INTRA.POLAR.0>
0

>  <SCORE.INTRA.REPUL>
0

>  <SCORE.INTRA.REPUL.0>
0

>  <SCORE.INTRA.SOLV>
-0.576764

>  <SCORE.INTRA.SOLV.lig_0>
-32.2816

>  <SCORE.INTRA.VDW>
-0.071269

>  <SCORE.INTRA.VDW.0>
-0.749945

>  <SCORE.INTRA.norm>
-0.0957813

>  <SCORE.RESTR>
0

>  <SCORE.RESTR.CAVITY>
0

>  <SCORE.RESTR.norm>
0

>  <SCORE.SYSTEM>
0

>  <SCORE.SYSTEM.CONST>
0

>  <SCORE.SYSTEM.DIHEDRAL>
0

>  <SCORE.SYSTEM.SOLV>
0

>  <SCORE.SYSTEM.norm>
0

>  <SCORE.heavy>
10

>  <SCORE.norm>
-0.955376

>  <RMSD>
5.675

$$$$
ligand
 OpenBabel11021811473D
libRbt.so/2013.1/901 2013/11/27
 10  9  0  0  0  0  0  0  0  0999 V2000
   28.4936   14.6258   19.0117 N   0  0  0  0  0  0  0  0  0  0  0  0
   28.0689   15.0008   20.3936 C   0  0  2  0  0  0  0  0  0  0  0  0
   26.5561   15.2022   20.4757 C   0  0  0  0  0  0  0  0  0  0  0  0
   25.9386   15.7577   19.5688 O   0  0  0  0  0  0  0  0  0  0  0  0
   28.8340   16.2353   20.8850 C   0  0  0  0  0  0  0  0  0  0  0  0
   30.3369   15.9919   21.0183 C   0  0  0  0  0  0  0  0  0  0  0  0
   31.0896   17.2303   21.4851 C   0  0  0  0  0  0  0  0  0  0  0  0
   32.5932   16.9766   21.5320 C   0  0  0  0  0  0  0  0  0  0  0  0
   33.3847   18.1801   21.9633 N   0  0  0  0  0  0  0  0  0  0  0  0
   25.8875   14.7981   21.4316 O   0  0  0  0  0  0  0  0  0  0  0  0
  2  1  1  6  0  0  0
  2  3  1  0  0  0  0
  2  5  1  0  0  0  0
  3  4  1  0  0  0  0
  3 10  1  0  0  0  0
  5  6  1  0  0  0  0
  6  7  1  0  0  0  0
  7  8  1  0  0  0  0
  8  9  1  0  0  0  0
M  END
>  <CHROM.1>
-39.58440787,-63.91017323,179.06703771,-176.80097289,178.92071731,29.07227534
15.99812806,20.77590698,-2.77816913,0.21595291,1.04650239

>  <Name>
ligand

>  <RI>
0

>  <Rbt.Current_Directory>
/home/itssahil/PROJECTS/Mol_Feturizer/New_Systems/rnas/3DIL

>  <Rbt.Executable>
rbdock ($Id: //depot/dev/client3/rdock/2013.1/src/exe/rbdock.cxx#4 $)

>  <Rbt.Library>
libRbt.so (2013.1, Build901 2013/11/27)

>  <Rbt.Parameter_File>
/export/apps/rDock/src/rDock_2013.1_src/data/scripts/dock_solv.prm

>  <Rbt.Receptor>
prm/pocket_docking_6.prm

>  <SCORE>
-9.52148

>  <SCORE.INTER>
-8.45737

>  <SCORE.INTER.CONST>
1

>  <SCORE.INTER.POLAR>
0

>  <SCORE.INTER.ROT>
5

>  <SCORE.INTER.SOLV>
13.9967

>  <SCORE.INTER.VDW>
-17.2371

>  <SCORE.INTER.norm>
-0.845737

>  <SCORE.INTRA>
-1.06411

>  <SCORE.INTRA.DIHEDRAL>
-1.26242

>  <SCORE.INTRA.DIHEDRAL.0>
2.93688

>  <SCORE.INTRA.POLAR>
0

>  <SCORE.INTRA.POLAR.0>
0

>  <SCORE.INTRA.REPUL>
0

>  <SCORE.INTRA.REPUL.0>
0

>  <SCORE.INTRA.SOLV>
-0.630887

>  <SCORE.INTRA.SOLV.lig_0>
-32.2816

>  <SCORE.INTRA.VDW>
-0.117454

>  <SCORE.INTRA.VDW.0>
-0.749945

>  <SCORE.INTRA.norm>
-0.106411

>  <SCORE.RESTR>
0

>  <SCORE.RESTR.CAVITY>
0

>  <SCORE.RESTR.norm>
0

>  <SCORE.SYSTEM>
0

>  <SCORE.SYSTEM.CONST>
0

>  <SCORE.SYSTEM.DIHEDRAL>
0

>  <SCORE.SYSTEM.SOLV>
0

>  <SCORE.SYSTEM.norm>
0

>  <SCORE.heavy>
10

>  <SCORE.norm>
-0.952148

>  <RMSD>
5.675

$$$$
ligand
 OpenBabel11021811473D
libRbt.so/2013.1/901 2013/11/27
 10  9  0  0  0  0  0  0  0  0999 V2000
   28.5789   15.0166   18.9753 N   0  0  0  0  0  0  0  0  0  0  0  0
   28.1102   15.1329   20.3886 C   0  0  2  0  0  0  0  0  0  0  0  0
   26.5870   15.2337   20.4635 C   0  0  0  0  0  0  0  0  0  0  0  0
   25.9662   14.7801   21.4233 O   0  0  0  0  0  0  0  0  0  0  0  0
   28.7929   16.3092   21.0964 C   0  0  0  0  0  0  0  0  0  0  0  0
   30.3074   16.1387   21.2114 C   0  0  0  0  0  0  0  0  0  0  0  0
   30.9863   17.3540   21.8282 C   0  0  0  0  0  0  0  0  0  0  0  0
   32.5003   17.1736   21.8779 C   0  0  0  0  0  0  0  0  0  0  0  0
   33.2214   18.3650   22.4449 N   0  0  0  0  0  0  0  0  0  0  0  0
   25.9187   15.7917   19.5882 O   0  0  0  0  0  0  0  0  0  0  0  0
  2  1  1  6  0  0  0
  2  3  1  0  0  0  0
  2  5  1  0  0  0  0
  3  4  1  0  0  0  0
  3 10  1  0  0  0  0
  5  6  1  0  0  0  0
  6  7  1  0  0  0  0
  7  8  1  0  0  0  0
  8  9  1  0  0  0  0
M  END
>  <CHROM.1>
148.53348758,-63.19625564,176.02264246,-177.77004873,178.40063343,29.05114841
16.12570911,20.92850359,-2.74780565,0.26903266,1.20390992

>  <Name>
ligand

>  <RI>
0

>  <Rbt.Current_Directory>
/home/itssahil/PROJECTS/Mol_Feturizer/New_Systems/rnas/3DIL

>  <Rbt.Executable>
rbdock ($Id: //depot/dev/client3/rdock/2013.1/src/exe/rbdock.cxx#4 $)

>  <Rbt.Library>
libRbt.so (2013.1, Build901 2013/11/27)

>  <Rbt.Parameter_File>
/export/apps/rDock/src/rDock_2013.1_src/data/scripts/dock_solv.prm

>  <Rbt.Receptor>
prm/pocket_docking_6.prm

>  <SCORE>
-9.59455

>  <SCORE.INTER>
-8.51334

>  <SCORE.INTER.CONST>
1

>  <SCORE.INTER.POLAR>
0

>  <SCORE.INTER.ROT>
5

>  <SCORE.INTER.SOLV>
13.3347

>  <SCORE.INTER.VDW>
-17.0538

>  <SCORE.INTER.norm>
-0.851334

>  <SCORE.INTRA>
-1.08121

>  <SCORE.INTRA.DIHEDRAL>
-1.33728

>  <SCORE.INTRA.DIHEDRAL.0>
2.93688

>  <SCORE.INTRA.POLAR>
0

>  <SCORE.INTRA.POLAR.0>
0

>  <SCORE.INTRA.REPUL>
0

>  <SCORE.INTRA.REPUL.0>
0

>  <SCORE.INTRA.SOLV>
-0.614913

>  <SCORE.INTRA.SOLV.lig_0>
-32.2816

>  <SCORE.INTRA.VDW>
-0.105113

>  <SCORE.INTRA.VDW.0>
-0.749945

>  <SCORE.INTRA.norm>
-0.108121

>  <SCORE.RESTR>
0

>  <SCORE.RESTR.CAVITY>
0

>  <SCORE.RESTR.norm>
0

>  <SCORE.SYSTEM>
0

>  <SCORE.SYSTEM.CONST>
0

>  <SCORE.SYSTEM.DIHEDRAL>
0

>  <SCORE.SYSTEM.SOLV>
0

>  <SCORE.SYSTEM.norm>
0

>  <SCORE.heavy>
10

>  <SCORE.norm>
-0.959455

>  <RMSD>
5.675

$$$$
ligand
 OpenBabel11021811473D
libRbt.so/2013.1/901 2013/11/27
 10  9  0  0  0  0  0  0  0  0999 V2000
   25.8504   15.2863   20.2350 N   0  0  0  0  0  0  0  0  0  0  0  0
   27.1218   15.6498   19.5406 C   0  0  2  0  0  0  0  0  0  0  0  0
   27.3143   14.8288   18.2659 C   0  0  0  0  0  0  0  0  0  0  0  0
   26.8999   13.6738   18.1850 O   0  0  0  0  0  0  0  0  0  0  0  0
   28.3199   15.5174   20.4881 C   0  0  0  0  0  0  0  0  0  0  0  0
   29.6615   15.7251   19.7860 C   0  0  0  0  0  0  0  0  0  0  0  0
   30.8199   15.8501   20.7662 C   0  0  0  0  0  0  0  0  0  0  0  0
   30.8201   17.2147   21.4483 C   0  0  0  0  0  0  0  0  0  0  0  0
   32.0708   17.4826   22.2388 N   0  0  0  0  0  0  0  0  0  0  0  0
   27.8639   15.2894   17.2610 O   0  0  0  0  0  0  0  0  0  0  0  0
  2  1  1  1  0  0  0
  2  3  1  0  0  0  0
  2  5  1  0  0  0  0
  3  4  1  0  0  0  0
  3 10  1  0  0  0  0
  5  6  1  0  0  0  0
  6  7  1  0  0  0  0
  7  8  1  0  0  0  0
  8  9  1  0  0  0  0
M  END
>  <CHROM.1>
-32.39362561,173.51752636,169.32712562,-75.04160952,-169.83654195,28.66855637
15.63064462,19.78663130,2.45423655,-0.22329234,-1.93791022

>  <Name>
ligand

>  <RI>
0

>  <Rbt.Current_Directory>
/home/itssahil/PROJECTS/Mol_Feturizer/New_Systems/rnas/3DIL

>  <Rbt.Executable>
rbdock ($Id: //depot/dev/client3/rdock/2013.1/src/exe/rbdock.cxx#4 $)

>  <Rbt.Library>
libRbt.so (2013.1, Build901 2013/11/27)

>  <Rbt.Parameter_File>
/export/apps/rDock/src/rDock_2013.1_src/data/scripts/dock_solv.prm

>  <Rbt.Receptor>
prm/pocket_docking_8.prm

>  <SCORE>
-6.937

>  <SCORE.INTER>
-7.15221

>  <SCORE.INTER.CONST>
1

>  <SCORE.INTER.POLAR>
0

>  <SCORE.INTER.ROT>
5

>  <SCORE.INTER.SOLV>
16.997

>  <SCORE.INTER.VDW>
-17.3671

>  <SCORE.INTER.norm>
-0.715221

>  <SCORE.INTRA>
0.215213

>  <SCORE.INTRA.DIHEDRAL>
0.552397

>  <SCORE.INTRA.DIHEDRAL.0>
2.93688

>  <SCORE.INTRA.POLAR>
0

>  <SCORE.INTRA.POLAR.0>
0

>  <SCORE.INTRA.REPUL>
0

>  <SCORE.INTRA.REPUL.0>
0

>  <SCORE.INTRA.SOLV>
-1.37135

>  <SCORE.INTRA.SOLV.lig_0>
-32.2816

>  <SCORE.INTRA.VDW>
0.624689

>  <SCORE.INTRA.VDW.0>
-0.749945

>  <SCORE.INTRA.norm>
0.0215213

>  <SCORE.RESTR>
0

>  <SCORE.RESTR.CAVITY>
0

>  <SCORE.RESTR.norm>
0

>  <SCORE.SYSTEM>
0

>  <SCORE.SYSTEM.CONST>
0

>  <SCORE.SYSTEM.DIHEDRAL>
0

>  <SCORE.SYSTEM.SOLV>
0

>  <SCORE.SYSTEM.norm>
0

>  <SCORE.heavy>
10

>  <SCORE.norm>
-0.6937

>  <RMSD>
5.675

$$$$
ligand
 OpenBabel11021811473D
libRbt.so/2013.1/901 2013/11/27
 10  9  0  0  0  0  0  0  0  0999 V2000
   28.5152   15.0102   18.9344 N   0  0  0  0  0  0  0  0  0  0  0  0
   28.0905   15.1025   20.3633 C   0  0  2  0  0  0  0  0  0  0  0  0
   26.5704   15.2023   20.4869 C   0  0  0  0  0  0  0  0  0  0  0  0
   25.9827   14.7632   21.4739 O   0  0  0  0  0  0  0  0  0  0  0  0
   28.7956   16.2665   21.0696 C   0  0  0  0  0  0  0  0  0  0  0  0
   30.3157   16.1111   21.1033 C   0  0  0  0  0  0  0  0  0  0  0  0
   31.0102   17.3042   21.7456 C   0  0  0  0  0  0  0  0  0  0  0  0
   32.5263   17.1363   21.7251 C   0  0  0  0  0  0  0  0  0  0  0  0
   33.2610   18.3084   22.3145 N   0  0  0  0  0  0  0  0  0  0  0  0
   25.8724   15.7452   19.6255 O   0  0  0  0  0  0  0  0  0  0  0  0
  2  1  1  6  0  0  0
  2  3  1  0  0  0  0
  2  5  1  0  0  0  0
  3  4  1  0  0  0  0
  3 10  1  0  0  0  0
  5  6  1  0  0  0  0
  6  7  1  0  0  0  0
  7  8  1  0  0  0  0
  8  9  1  0  0  0  0
M  END
>  <CHROM.1>
150.43002061,-61.73477588,177.18190527,-178.28103254,178.38245627,29.04817457
16.09115415,20.88433067,-2.77789255,0.28030865,1.22542449

>  <Name>
ligand

>  <RI>
0

>  <Rbt.Current_Directory>
/home/itssahil/PROJECTS/Mol_Feturizer/New_Systems/rnas/3DIL

>  <Rbt.Executable>
rbdock ($Id: //depot/dev/client3/rdock/2013.1/src/exe/rbdock.cxx#4 $)

>  <Rbt.Library>
libRbt.so (2013.1, Build901 2013/11/27)

>  <Rbt.Parameter_File>
/export/apps/rDock/src/rDock_2013.1_src/data/scripts/dock_solv.prm

>  <Rbt.Receptor>
prm/pocket_docking_3.prm

>  <SCORE>
-9.65554

>  <SCORE.INTER>
-8.56606

>  <SCORE.INTER.CONST>
1

>  <SCORE.INTER.POLAR>
0

>  <SCORE.INTER.ROT>
5

>  <SCORE.INTER.SOLV>
13.3048

>  <SCORE.INTER.VDW>
-17.079

>  <SCORE.INTER.norm>
-0.856606

>  <SCORE.INTRA>
-1.08948

>  <SCORE.INTRA.DIHEDRAL>
-1.41069

>  <SCORE.INTRA.DIHEDRAL.0>
2.93688

>  <SCORE.INTRA.POLAR>
0

>  <SCORE.INTRA.POLAR.0>
0

>  <SCORE.INTRA.REPUL>
0

>  <SCORE.INTRA.REPUL.0>
0

>  <SCORE.INTRA.SOLV>
-0.601208

>  <SCORE.INTRA.SOLV.lig_0>
-32.2816

>  <SCORE.INTRA.VDW>
-0.0835291

>  <SCORE.INTRA.VDW.0>
-0.749945

>  <SCORE.INTRA.norm>
-0.108948

>  <SCORE.RESTR>
0

>  <SCORE.RESTR.CAVITY>
0

>  <SCORE.RESTR.norm>
0

>  <SCORE.SYSTEM>
0

>  <SCORE.SYSTEM.CONST>
0

>  <SCORE.SYSTEM.DIHEDRAL>
0

>  <SCORE.SYSTEM.SOLV>
0

>  <SCORE.SYSTEM.norm>
0

>  <SCORE.heavy>
10

>  <SCORE.norm>
-0.965554

>  <RMSD>
5.676

$$$$
ligand
 OpenBabel11021811473D
libRbt.so/2013.1/901 2013/11/27
 10  9  0  0  0  0  0  0  0  0999 V2000
   28.3158   15.5415   18.7305 N   0  0  0  0  0  0  0  0  0  0  0  0
   28.0339   15.2190   20.1613 C   0  0  2  0  0  0  0  0  0  0  0  0
   26.5325   15.2207   20.4470 C   0  0  0  0  0  0  0  0  0  0  0  0
   26.0858   14.7761   21.5030 O   0  0  0  0  0  0  0  0  0  0  0  0
   28.7913   16.1696   21.0959 C   0  0  0  0  0  0  0  0  0  0  0  0
   30.3081   16.0914   20.9250 C   0  0  0  0  0  0  0  0  0  0  0  0
   31.0431   17.1392   21.7498 C   0  0  0  0  0  0  0  0  0  0  0  0
   32.5433   17.1037   21.4757 C   0  0  0  0  0  0  0  0  0  0  0  0
   33.2999   18.2002   22.1731 N   0  0  0  0  0  0  0  0  0  0  0  0
   25.7102   15.6870   19.6530 O   0  0  0  0  0  0  0  0  0  0  0  0
  2  1  1  6  0  0  0
  2  3  1  0  0  0  0
  2  5  1  0  0  0  0
  3  4  1  0  0  0  0
  3 10  1  0  0  0  0
  5  6  1  0  0  0  0
  6  7  1  0  0  0  0
  7  8  1  0  0  0  0
  8  9  1  0  0  0  0
M  END
>  <CHROM.1>
168.40493847,-60.56618753,173.99924176,-175.67091139,174.86532942,29.02088745
16.10909832,20.79498285,-2.87941015,0.33572081,1.48678412

>  <Name>
ligand

>  <RI>
0

>  <Rbt.Current_Directory>
/home/itssahil/PROJECTS/Mol_Feturizer/New_Systems/rnas/3DIL

>  <Rbt.Executable>
rbdock ($Id: //depot/dev/client3/rdock/2013.1/src/exe/rbdock.cxx#4 $)

>  <Rbt.Library>
libRbt.so (2013.1, Build901 2013/11/27)

>  <Rbt.Parameter_File>
/export/apps/rDock/src/rDock_2013.1_src/data/scripts/dock_solv.prm

>  <Rbt.Receptor>
prm/pocket_docking_7.prm

>  <SCORE>
-9.4107

>  <SCORE.INTER>
-8.59353

>  <SCORE.INTER.CONST>
1

>  <SCORE.INTER.POLAR>
0

>  <SCORE.INTER.ROT>
5

>  <SCORE.INTER.SOLV>
13.0602

>  <SCORE.INTER.VDW>
-17.0158

>  <SCORE.INTER.norm>
-0.859353

>  <SCORE.INTRA>
-0.817167

>  <SCORE.INTRA.DIHEDRAL>
-1.13257

>  <SCORE.INTRA.DIHEDRAL.0>
2.93688

>  <SCORE.INTRA.POLAR>
0

>  <SCORE.INTRA.POLAR.0>
0

>  <SCORE.INTRA.REPUL>
0

>  <SCORE.INTRA.REPUL.0>
0

>  <SCORE.INTRA.SOLV>
-0.559491

>  <SCORE.INTRA.SOLV.lig_0>
-32.2816

>  <SCORE.INTRA.VDW>
0.0288613

>  <SCORE.INTRA.VDW.0>
-0.749945

>  <SCORE.INTRA.norm>
-0.0817167

>  <SCORE.RESTR>
0

>  <SCORE.RESTR.CAVITY>
0

>  <SCORE.RESTR.norm>
0

>  <SCORE.SYSTEM>
0

>  <SCORE.SYSTEM.CONST>
0

>  <SCORE.SYSTEM.DIHEDRAL>
0

>  <SCORE.SYSTEM.SOLV>
0

>  <SCORE.SYSTEM.norm>
0

>  <SCORE.heavy>
10

>  <SCORE.norm>
-0.94107

>  <RMSD>
5.677

$$$$
ligand
 OpenBabel11021811473D
libRbt.so/2013.1/901 2013/11/27
 10  9  0  0  0  0  0  0  0  0999 V2000
   26.4227   14.9024   20.5981 N   0  0  0  0  0  0  0  0  0  0  0  0
   26.9107   15.5059   19.3220 C   0  0  2  0  0  0  0  0  0  0  0  0
   27.4664   14.4396   18.3786 C   0  0  0  0  0  0  0  0  0  0  0  0
   28.6135   14.0146   18.5047 O   0  0  0  0  0  0  0  0  0  0  0  0
   27.9366   16.6117   19.5970 C   0  0  0  0  0  0  0  0  0  0  0  0
   29.1013   16.1417   20.4679 C   0  0  0  0  0  0  0  0  0  0  0  0
   30.1273   17.2398   20.7124 C   0  0  0  0  0  0  0  0  0  0  0  0
   31.2356   16.7610   21.6450 C   0  0  0  0  0  0  0  0  0  0  0  0
   32.2791   17.8098   21.9138 N   0  0  0  0  0  0  0  0  0  0  0  0
   26.7900   13.9415   17.4739 O   0  0  0  0  0  0  0  0  0  0  0  0
  2  1  1  1  0  0  0
  2  3  1  0  0  0  0
  2  5  1  0  0  0  0
  3  4  1  0  0  0  0
  3 10  1  0  0  0  0
  5  6  1  0  0  0  0
  6  7  1  0  0  0  0
  7  8  1  0  0  0  0
  8  9  1  0  0  0  0
M  END
>  <CHROM.1>
-82.01219009,54.34375300,178.89926965,176.92721341,179.76088950,28.69069963
15.70762172,19.83366057,2.36565081,-0.07464113,-2.25998878

>  <Name>
ligand

>  <RI>
0

>  <Rbt.Current_Directory>
/home/itssahil/PROJECTS/Mol_Feturizer/New_Systems/rnas/3DIL

>  <Rbt.Executable>
rbdock ($Id: //depot/dev/client3/rdock/2013.1/src/exe/rbdock.cxx#4 $)

>  <Rbt.Library>
libRbt.so (2013.1, Build901 2013/11/27)

>  <Rbt.Parameter_File>
/export/apps/rDock/src/rDock_2013.1_src/data/scripts/dock_solv.prm

>  <Rbt.Receptor>
prm/pocket_docking_4.prm

>  <SCORE>
-8.65215

>  <SCORE.INTER>
-8.18201

>  <SCORE.INTER.CONST>
1

>  <SCORE.INTER.POLAR>
0

>  <SCORE.INTER.ROT>
5

>  <SCORE.INTER.SOLV>
15.9672

>  <SCORE.INTER.VDW>
-17.7104

>  <SCORE.INTER.norm>
-0.818201

>  <SCORE.INTRA>
-0.470135

>  <SCORE.INTRA.DIHEDRAL>
-1.29605

>  <SCORE.INTRA.DIHEDRAL.0>
2.93688

>  <SCORE.INTRA.POLAR>
0

>  <SCORE.INTRA.POLAR.0>
0

>  <SCORE.INTRA.REPUL>
0

>  <SCORE.INTRA.REPUL.0>
0

>  <SCORE.INTRA.SOLV>
-0.540062

>  <SCORE.INTRA.SOLV.lig_0>
-32.2816

>  <SCORE.INTRA.VDW>
0.447922

>  <SCORE.INTRA.VDW.0>
-0.749945

>  <SCORE.INTRA.norm>
-0.0470135

>  <SCORE.RESTR>
0

>  <SCORE.RESTR.CAVITY>
0

>  <SCORE.RESTR.norm>
0

>  <SCORE.SYSTEM>
0

>  <SCORE.SYSTEM.CONST>
0

>  <SCORE.SYSTEM.DIHEDRAL>
0

>  <SCORE.SYSTEM.SOLV>
0

>  <SCORE.SYSTEM.norm>
0

>  <SCORE.heavy>
10

>  <SCORE.norm>
-0.865215

>  <RMSD>
5.679

$$$$
ligand
 OpenBabel11021811473D
libRbt.so/2013.1/901 2013/11/27
 10  9  0  0  0  0  0  0  0  0999 V2000
   28.5951   14.7820   19.0583 N   0  0  0  0  0  0  0  0  0  0  0  0
   28.0954   15.0555   20.4389 C   0  0  2  0  0  0  0  0  0  0  0  0
   26.5735   15.1940   20.4630 C   0  0  0  0  0  0  0  0  0  0  0  0
   25.9103   14.7581   21.4024 O   0  0  0  0  0  0  0  0  0  0  0  0
   28.7875   16.2858   21.0376 C   0  0  0  0  0  0  0  0  0  0  0  0
   30.2977   16.1061   21.1889 C   0  0  0  0  0  0  0  0  0  0  0  0
   30.9844   17.3586   21.7162 C   0  0  0  0  0  0  0  0  0  0  0  0
   32.4930   17.1574   21.8211 C   0  0  0  0  0  0  0  0  0  0  0  0
   33.2214   18.3775   22.3130 N   0  0  0  0  0  0  0  0  0  0  0  0
   25.9487   15.7663   19.5652 O   0  0  0  0  0  0  0  0  0  0  0  0
  2  1  1  6  0  0  0
  2  3  1  0  0  0  0
  2  5  1  0  0  0  0
  3  4  1  0  0  0  0
  3 10  1  0  0  0  0
  5  6  1  0  0  0  0
  6  7  1  0  0  0  0
  7  8  1  0  0  0  0
  8  9  1  0  0  0  0
M  END
>  <CHROM.1>
142.60641027,-62.29901001,177.02225443,-178.53277576,178.88444362,29.04486569
16.08106625,20.89842664,-2.72961907,0.23468539,1.08262218

>  <Name>
ligand

>  <RI>
0

>  <Rbt.Current_Directory>
/home/itssahil/PROJECTS/Mol_Feturizer/New_Systems/rnas/3DIL

>  <Rbt.Executable>
rbdock ($Id: //depot/dev/client3/rdock/2013.1/src/exe/rbdock.cxx#4 $)

>  <Rbt.Library>
libRbt.so (2013.1, Build901 2013/11/27)

>  <Rbt.Parameter_File>
/export/apps/rDock/src/rDock_2013.1_src/data/scripts/dock_solv.prm

>  <Rbt.Receptor>
prm/pocket_docking_7.prm

>  <SCORE>
-9.59102

>  <SCORE.INTER>
-8.47525

>  <SCORE.INTER.CONST>
1

>  <SCORE.INTER.POLAR>
0

>  <SCORE.INTER.ROT>
5

>  <SCORE.INTER.SOLV>
13.7424

>  <SCORE.INTER.VDW>
-17.1643

>  <SCORE.INTER.norm>
-0.847525

>  <SCORE.INTRA>
-1.11578

>  <SCORE.INTRA.DIHEDRAL>
-1.39937

>  <SCORE.INTRA.DIHEDRAL.0>
2.93688

>  <SCORE.INTRA.POLAR>
0

>  <SCORE.INTRA.POLAR.0>
0

>  <SCORE.INTRA.REPUL>
0

>  <SCORE.INTRA.REPUL.0>
0

>  <SCORE.INTRA.SOLV>
-0.611797

>  <SCORE.INTRA.SOLV.lig_0>
-32.2816

>  <SCORE.INTRA.VDW>
-0.110193

>  <SCORE.INTRA.VDW.0>
-0.749945

>  <SCORE.INTRA.norm>
-0.111578

>  <SCORE.RESTR>
0

>  <SCORE.RESTR.CAVITY>
0

>  <SCORE.RESTR.norm>
0

>  <SCORE.SYSTEM>
0

>  <SCORE.SYSTEM.CONST>
0

>  <SCORE.SYSTEM.DIHEDRAL>
0

>  <SCORE.SYSTEM.SOLV>
0

>  <SCORE.SYSTEM.norm>
0

>  <SCORE.heavy>
10

>  <SCORE.norm>
-0.959102

>  <RMSD>
5.679

$$$$
ligand
 OpenBabel11021811473D
libRbt.so/2013.1/901 2013/11/27
 10  9  0  0  0  0  0  0  0  0999 V2000
   28.5363   14.7784   19.0215 N   0  0  0  0  0  0  0  0  0  0  0  0
   28.0565   15.0261   20.4140 C   0  0  2  0  0  0  0  0  0  0  0  0
   26.5392   15.2046   20.4566 C   0  0  0  0  0  0  0  0  0  0  0  0
   25.9377   15.7548   19.5357 O   0  0  0  0  0  0  0  0  0  0  0  0
   28.7868   16.2199   21.0402 C   0  0  0  0  0  0  0  0  0  0  0  0
   30.2986   16.0141   21.1301 C   0  0  0  0  0  0  0  0  0  0  0  0
   31.0261   17.2487   21.6448 C   0  0  0  0  0  0  0  0  0  0  0  0
   32.5361   17.0323   21.6604 C   0  0  0  0  0  0  0  0  0  0  0  0
   33.3023   18.2320   22.1450 N   0  0  0  0  0  0  0  0  0  0  0  0
   25.8515   14.7865   21.3927 O   0  0  0  0  0  0  0  0  0  0  0  0
  2  1  1  6  0  0  0
  2  3  1  0  0  0  0
  2  5  1  0  0  0  0
  3  4  1  0  0  0  0
  3 10  1  0  0  0  0
  5  6  1  0  0  0  0
  6  7  1  0  0  0  0
  7  8  1  0  0  0  0
  8  9  1  0  0  0  0
M  END
>  <CHROM.1>
-34.73352719,-60.42082583,175.21497585,-177.33581012,179.24895307,29.04108164
16.02734758,20.84215997,-2.76678198,0.23456958,1.11612122

>  <Name>
ligand

>  <RI>
0

>  <Rbt.Current_Directory>
/home/itssahil/PROJECTS/Mol_Feturizer/New_Systems/rnas/3DIL

>  <Rbt.Executable>
rbdock ($Id: //depot/dev/client3/rdock/2013.1/src/exe/rbdock.cxx#4 $)

>  <Rbt.Library>
libRbt.so (2013.1, Build901 2013/11/27)

>  <Rbt.Parameter_File>
/export/apps/rDock/src/rDock_2013.1_src/data/scripts/dock_solv.prm

>  <Rbt.Receptor>
prm/blind_docking_60.prm

>  <SCORE>
-9.51507

>  <SCORE.INTER>
-8.53503

>  <SCORE.INTER.CONST>
1

>  <SCORE.INTER.POLAR>
0

>  <SCORE.INTER.ROT>
5

>  <SCORE.INTER.SOLV>
13.6717

>  <SCORE.INTER.VDW>
-17.1806

>  <SCORE.INTER.norm>
-0.853503

>  <SCORE.INTRA>
-0.98004

>  <SCORE.INTRA.DIHEDRAL>
-1.24742

>  <SCORE.INTRA.DIHEDRAL.0>
2.93688

>  <SCORE.INTRA.POLAR>
0

>  <SCORE.INTRA.POLAR.0>
0

>  <SCORE.INTRA.REPUL>
0

>  <SCORE.INTRA.REPUL.0>
0

>  <SCORE.INTRA.SOLV>
-0.562721

>  <SCORE.INTRA.SOLV.lig_0>
-32.2816

>  <SCORE.INTRA.VDW>
-0.0749693

>  <SCORE.INTRA.VDW.0>
-0.749945

>  <SCORE.INTRA.norm>
-0.098004

>  <SCORE.RESTR>
0

>  <SCORE.RESTR.CAVITY>
0

>  <SCORE.RESTR.norm>
0

>  <SCORE.SYSTEM>
0

>  <SCORE.SYSTEM.CONST>
0

>  <SCORE.SYSTEM.DIHEDRAL>
0

>  <SCORE.SYSTEM.SOLV>
0

>  <SCORE.SYSTEM.norm>
0

>  <SCORE.heavy>
10

>  <SCORE.norm>
-0.951507

>  <RMSD>
5.680

$$$$
ligand
 OpenBabel11021811473D
libRbt.so/2013.1/901 2013/11/27
 10  9  0  0  0  0  0  0  0  0999 V2000
   28.5590   14.8130   19.0183 N   0  0  0  0  0  0  0  0  0  0  0  0
   28.0907   15.0233   20.4209 C   0  0  2  0  0  0  0  0  0  0  0  0
   26.5693   15.1538   20.4862 C   0  0  0  0  0  0  0  0  0  0  0  0
   25.9341   15.6573   19.5613 O   0  0  0  0  0  0  0  0  0  0  0  0
   28.7923   16.2292   21.0569 C   0  0  0  0  0  0  0  0  0  0  0  0
   30.3069   16.0525   21.1594 C   0  0  0  0  0  0  0  0  0  0  0  0
   31.0046   17.2955   21.6947 C   0  0  0  0  0  0  0  0  0  0  0  0
   32.5186   17.1107   21.7186 C   0  0  0  0  0  0  0  0  0  0  0  0
   33.2564   18.3226   22.2167 N   0  0  0  0  0  0  0  0  0  0  0  0
   25.9122   14.7409   21.4463 O   0  0  0  0  0  0  0  0  0  0  0  0
  2  1  1  6  0  0  0
  2  3  1  0  0  0  0
  2  5  1  0  0  0  0
  3  4  1  0  0  0  0
  3 10  1  0  0  0  0
  5  6  1  0  0  0  0
  6  7  1  0  0  0  0
  7  8  1  0  0  0  0
  8  9  1  0  0  0  0
M  END
>  <CHROM.1>
-32.14996878,-62.03319772,175.67965469,-177.15907076,178.93970708,29.04847588
16.03613870,20.87641494,-2.75933417,0.26274524,1.14427764

>  <Name>
ligand

>  <RI>
0

>  <Rbt.Current_Directory>
/home/itssahil/PROJECTS/Mol_Feturizer/New_Systems/rnas/3DIL

>  <Rbt.Executable>
rbdock ($Id: //depot/dev/client3/rdock/2013.1/src/exe/rbdock.cxx#4 $)

>  <Rbt.Library>
libRbt.so (2013.1, Build901 2013/11/27)

>  <Rbt.Parameter_File>
/export/apps/rDock/src/rDock_2013.1_src/data/scripts/dock_solv.prm

>  <Rbt.Receptor>
prm/pocket_docking_3.prm

>  <SCORE>
-9.46575

>  <SCORE.INTER>
-8.46958

>  <SCORE.INTER.CONST>
1

>  <SCORE.INTER.POLAR>
0

>  <SCORE.INTER.ROT>
5

>  <SCORE.INTER.SOLV>
13.6455

>  <SCORE.INTER.VDW>
-17.1282

>  <SCORE.INTER.norm>
-0.846958

>  <SCORE.INTRA>
-0.996174

>  <SCORE.INTRA.DIHEDRAL>
-1.23752

>  <SCORE.INTRA.DIHEDRAL.0>
2.93688

>  <SCORE.INTRA.POLAR>
0

>  <SCORE.INTRA.POLAR.0>
0

>  <SCORE.INTRA.REPUL>
0

>  <SCORE.INTRA.REPUL.0>
0

>  <SCORE.INTRA.SOLV>
-0.585094

>  <SCORE.INTRA.SOLV.lig_0>
-32.2816

>  <SCORE.INTRA.VDW>
-0.0848673

>  <SCORE.INTRA.VDW.0>
-0.749945

>  <SCORE.INTRA.norm>
-0.0996174

>  <SCORE.RESTR>
0

>  <SCORE.RESTR.CAVITY>
0

>  <SCORE.RESTR.norm>
0

>  <SCORE.SYSTEM>
0

>  <SCORE.SYSTEM.CONST>
0

>  <SCORE.SYSTEM.DIHEDRAL>
0

>  <SCORE.SYSTEM.SOLV>
0

>  <SCORE.SYSTEM.norm>
0

>  <SCORE.heavy>
10

>  <SCORE.norm>
-0.946575

>  <RMSD>
5.680

$$$$
ligand
 OpenBabel11021811473D
libRbt.so/2013.1/901 2013/11/27
 10  9  0  0  0  0  0  0  0  0999 V2000
   28.2260   15.7544   18.6667 N   0  0  0  0  0  0  0  0  0  0  0  0
   28.0361   15.3414   20.0894 C   0  0  2  0  0  0  0  0  0  0  0  0
   26.5539   15.2704   20.4554 C   0  0  0  0  0  0  0  0  0  0  0  0
   25.6878   15.6745   19.6814 O   0  0  0  0  0  0  0  0  0  0  0  0
   28.8113   16.2659   21.0356 C   0  0  0  0  0  0  0  0  0  0  0  0
   30.3132   16.2853   20.7529 C   0  0  0  0  0  0  0  0  0  0  0  0
   31.0641   17.2566   21.6535 C   0  0  0  0  0  0  0  0  0  0  0  0
   32.5487   17.2961   21.3050 C   0  0  0  0  0  0  0  0  0  0  0  0
   33.3225   18.2967   22.1181 N   0  0  0  0  0  0  0  0  0  0  0  0
   26.1595   14.7858   21.5202 O   0  0  0  0  0  0  0  0  0  0  0  0
  2  1  1  6  0  0  0
  2  3  1  0  0  0  0
  2  5  1  0  0  0  0
  3  4  1  0  0  0  0
  3 10  1  0  0  0  0
  5  6  1  0  0  0  0
  6  7  1  0  0  0  0
  7  8  1  0  0  0  0
  8  9  1  0  0  0  0
M  END
>  <CHROM.1>
-8.15159757,-58.92195814,177.23692185,-177.53675040,176.90021069,29.02717713
16.21463224,20.73283047,-2.91841368,0.36548257,1.55254862

>  <Name>
ligand

>  <RI>
0

>  <Rbt.Current_Directory>
/home/itssahil/PROJECTS/Mol_Feturizer/New_Systems/rnas/3DIL

>  <Rbt.Executable>
rbdock ($Id: //depot/dev/client3/rdock/2013.1/src/exe/rbdock.cxx#4 $)

>  <Rbt.Library>
libRbt.so (2013.1, Build901 2013/11/27)

>  <Rbt.Parameter_File>
/export/apps/rDock/src/rDock_2013.1_src/data/scripts/dock_solv.prm

>  <Rbt.Receptor>
prm/pocket_docking_3.prm

>  <SCORE>
-9.40434

>  <SCORE.INTER>
-8.55315

>  <SCORE.INTER.CONST>
1

>  <SCORE.INTER.POLAR>
0

>  <SCORE.INTER.ROT>
5

>  <SCORE.INTER.SOLV>
13.1251

>  <SCORE.INTER.VDW>
-17.0105

>  <SCORE.INTER.norm>
-0.855315

>  <SCORE.INTRA>
-0.851187

>  <SCORE.INTRA.DIHEDRAL>
-1.30597

>  <SCORE.INTRA.DIHEDRAL.0>
2.93688

>  <SCORE.INTRA.POLAR>
0

>  <SCORE.INTRA.POLAR.0>
0

>  <SCORE.INTRA.REPUL>
0

>  <SCORE.INTRA.REPUL.0>
0

>  <SCORE.INTRA.SOLV>
-0.547595

>  <SCORE.INTRA.SOLV.lig_0>
-32.2816

>  <SCORE.INTRA.VDW>
0.0755934

>  <SCORE.INTRA.VDW.0>
-0.749945

>  <SCORE.INTRA.norm>
-0.0851187

>  <SCORE.RESTR>
0

>  <SCORE.RESTR.CAVITY>
0

>  <SCORE.RESTR.norm>
0

>  <SCORE.SYSTEM>
0

>  <SCORE.SYSTEM.CONST>
0

>  <SCORE.SYSTEM.DIHEDRAL>
0

>  <SCORE.SYSTEM.SOLV>
0

>  <SCORE.SYSTEM.norm>
0

>  <SCORE.heavy>
10

>  <SCORE.norm>
-0.940434

>  <RMSD>
5.681

$$$$
ligand
 OpenBabel11021811473D
libRbt.so/2013.1/901 2013/11/27
 10  9  0  0  0  0  0  0  0  0999 V2000
   28.5196   14.5347   19.0056 N   0  0  0  0  0  0  0  0  0  0  0  0
   28.0859   14.9201   20.3818 C   0  0  2  0  0  0  0  0  0  0  0  0
   26.5692   15.0915   20.4600 C   0  0  0  0  0  0  0  0  0  0  0  0
   25.9296   15.5350   19.5078 O   0  0  0  0  0  0  0  0  0  0  0  0
   28.8250   16.1768   20.8565 C   0  0  0  0  0  0  0  0  0  0  0  0
   30.3246   15.9510   21.0463 C   0  0  0  0  0  0  0  0  0  0  0  0
   31.0440   17.1972   21.5439 C   0  0  0  0  0  0  0  0  0  0  0  0
   32.5469   16.9594   21.6537 C   0  0  0  0  0  0  0  0  0  0  0  0
   33.3048   18.1656   22.1351 N   0  0  0  0  0  0  0  0  0  0  0  0
   25.9196   14.7720   21.4600 O   0  0  0  0  0  0  0  0  0  0  0  0
  2  1  1  6  0  0  0
  2  3  1  0  0  0  0
  2  5  1  0  0  0  0
  3  4  1  0  0  0  0
  3 10  1  0  0  0  0
  5  6  1  0  0  0  0
  6  7  1  0  0  0  0
  7  8  1  0  0  0  0
  8  9  1  0  0  0  0
M  END
>  <CHROM.1>
-34.41307620,-66.14026790,-178.87233919,-177.07063505,179.68817675,29.06096206
15.92769197,20.80411573,-2.75043537,0.22308507,1.05772271

>  <Name>
ligand

>  <RI>
0

>  <Rbt.Current_Directory>
/home/itssahil/PROJECTS/Mol_Feturizer/New_Systems/rnas/3DIL

>  <Rbt.Executable>
rbdock ($Id: //depot/dev/client3/rdock/2013.1/src/exe/rbdock.cxx#4 $)

>  <Rbt.Library>
libRbt.so (2013.1, Build901 2013/11/27)

>  <Rbt.Parameter_File>
/export/apps/rDock/src/rDock_2013.1_src/data/scripts/dock_solv.prm

>  <Rbt.Receptor>
prm/pocket_docking_2.prm

>  <SCORE>
-9.24622

>  <SCORE.INTER>
-8.20039

>  <SCORE.INTER.CONST>
1

>  <SCORE.INTER.POLAR>
0

>  <SCORE.INTER.ROT>
5

>  <SCORE.INTER.SOLV>
14.3539

>  <SCORE.INTER.VDW>
-17.1849

>  <SCORE.INTER.norm>
-0.820039

>  <SCORE.INTRA>
-1.04787

>  <SCORE.INTRA.DIHEDRAL>
-1.17305

>  <SCORE.INTRA.DIHEDRAL.0>
2.93688

>  <SCORE.INTRA.POLAR>
0

>  <SCORE.INTRA.POLAR.0>
0

>  <SCORE.INTRA.REPUL>
0

>  <SCORE.INTRA.REPUL.0>
0

>  <SCORE.INTRA.SOLV>
-0.668969

>  <SCORE.INTRA.SOLV.lig_0>
-32.2816

>  <SCORE.INTRA.VDW>
-0.126855

>  <SCORE.INTRA.VDW.0>
-0.749945

>  <SCORE.INTRA.norm>
-0.104787

>  <SCORE.RESTR>
0.00203842

>  <SCORE.RESTR.CAVITY>
0.00203842

>  <SCORE.RESTR.norm>
0.000203842

>  <SCORE.SYSTEM>
0

>  <SCORE.SYSTEM.CONST>
0

>  <SCORE.SYSTEM.DIHEDRAL>
0

>  <SCORE.SYSTEM.SOLV>
0

>  <SCORE.SYSTEM.norm>
0

>  <SCORE.heavy>
10

>  <SCORE.norm>
-0.924622

>  <RMSD>
5.682

$$$$
ligand
 OpenBabel11021811473D
libRbt.so/2013.1/901 2013/11/27
 10  9  0  0  0  0  0  0  0  0999 V2000
   28.4542   15.1806   18.8271 N   0  0  0  0  0  0  0  0  0  0  0  0
   28.0706   15.1566   20.2703 C   0  0  2  0  0  0  0  0  0  0  0  0
   26.5537   15.2247   20.4444 C   0  0  0  0  0  0  0  0  0  0  0  0
   25.8364   15.7256   19.5801 O   0  0  0  0  0  0  0  0  0  0  0  0
   28.7820   16.2728   21.0441 C   0  0  0  0  0  0  0  0  0  0  0  0
   30.3050   16.1533   20.9984 C   0  0  0  0  0  0  0  0  0  0  0  0
   31.0022   17.2995   21.7184 C   0  0  0  0  0  0  0  0  0  0  0  0
   32.5192   17.1651   21.6293 C   0  0  0  0  0  0  0  0  0  0  0  0
   33.2551   18.2797   22.3200 N   0  0  0  0  0  0  0  0  0  0  0  0
   25.9818   14.7620   21.4358 O   0  0  0  0  0  0  0  0  0  0  0  0
  2  1  1  6  0  0  0
  2  3  1  0  0  0  0
  2  5  1  0  0  0  0
  3  4  1  0  0  0  0
  3 10  1  0  0  0  0
  5  6  1  0  0  0  0
  6  7  1  0  0  0  0
  7  8  1  0  0  0  0
  8  9  1  0  0  0  0
M  END
>  <CHROM.1>
-24.71139432,-60.54992069,177.50662016,-178.83398625,179.67512276,29.03017452
16.11698225,20.82739675,-2.80154769,0.30467032,1.30960713

>  <Name>
ligand

>  <RI>
0

>  <Rbt.Current_Directory>
/home/itssahil/PROJECTS/Mol_Feturizer/New_Systems/rnas/3DIL

>  <Rbt.Executable>
rbdock ($Id: //depot/dev/client3/rdock/2013.1/src/exe/rbdock.cxx#4 $)

>  <Rbt.Library>
libRbt.so (2013.1, Build901 2013/11/27)

>  <Rbt.Parameter_File>
/export/apps/rDock/src/rDock_2013.1_src/data/scripts/dock_solv.prm

>  <Rbt.Receptor>
prm/pocket_docking_4.prm

>  <SCORE>
-9.50983

>  <SCORE.INTER>
-8.51319

>  <SCORE.INTER.CONST>
1

>  <SCORE.INTER.POLAR>
0

>  <SCORE.INTER.ROT>
5

>  <SCORE.INTER.SOLV>
13.1138

>  <SCORE.INTER.VDW>
-16.9801

>  <SCORE.INTER.norm>
-0.851319

>  <SCORE.INTRA>
-0.996633

>  <SCORE.INTRA.DIHEDRAL>
-1.34004

>  <SCORE.INTRA.DIHEDRAL.0>
2.93688

>  <SCORE.INTRA.POLAR>
0

>  <SCORE.INTRA.POLAR.0>
0

>  <SCORE.INTRA.REPUL>
0

>  <SCORE.INTRA.REPUL.0>
0

>  <SCORE.INTRA.SOLV>
-0.573362

>  <SCORE.INTRA.SOLV.lig_0>
-32.2816

>  <SCORE.INTRA.VDW>
-0.0399304

>  <SCORE.INTRA.VDW.0>
-0.749945

>  <SCORE.INTRA.norm>
-0.0996633

>  <SCORE.RESTR>
0

>  <SCORE.RESTR.CAVITY>
0

>  <SCORE.RESTR.norm>
0

>  <SCORE.SYSTEM>
0

>  <SCORE.SYSTEM.CONST>
0

>  <SCORE.SYSTEM.DIHEDRAL>
0

>  <SCORE.SYSTEM.SOLV>
0

>  <SCORE.SYSTEM.norm>
0

>  <SCORE.heavy>
10

>  <SCORE.norm>
-0.950983

>  <RMSD>
5.682

$$$$
ligand
 OpenBabel11021811473D
libRbt.so/2013.1/901 2013/11/27
 10  9  0  0  0  0  0  0  0  0999 V2000
   28.4750   14.8814   18.9480 N   0  0  0  0  0  0  0  0  0  0  0  0
   28.0352   15.0139   20.3691 C   0  0  2  0  0  0  0  0  0  0  0  0
   26.5180   15.1673   20.4705 C   0  0  0  0  0  0  0  0  0  0  0  0
   25.8999   14.7437   21.4456 O   0  0  0  0  0  0  0  0  0  0  0  0
   28.7705   16.1659   21.0642 C   0  0  0  0  0  0  0  0  0  0  0  0
   30.2880   15.9847   21.0754 C   0  0  0  0  0  0  0  0  0  0  0  0
   31.0145   17.1834   21.6700 C   0  0  0  0  0  0  0  0  0  0  0  0
   32.5276   17.0141   21.5743 C   0  0  0  0  0  0  0  0  0  0  0  0
   33.2918   18.1847   22.1281 N   0  0  0  0  0  0  0  0  0  0  0  0
   25.8531   15.7400   19.6021 O   0  0  0  0  0  0  0  0  0  0  0  0
  2  1  1  6  0  0  0
  2  3  1  0  0  0  0
  2  5  1  0  0  0  0
  3  4  1  0  0  0  0
  3 10  1  0  0  0  0
  5  6  1  0  0  0  0
  6  7  1  0  0  0  0
  7  8  1  0  0  0  0
  8  9  1  0  0  0  0
M  END
>  <CHROM.1>
149.04399035,-59.60096369,175.52645168,-175.90365770,179.01831886,29.02141445
16.00545959,20.83465168,-2.79490170,0.26091284,1.19265417

>  <Name>
ligand

>  <RI>
0

>  <Rbt.Current_Directory>
/home/itssahil/PROJECTS/Mol_Feturizer/New_Systems/rnas/3DIL

>  <Rbt.Executable>
rbdock ($Id: //depot/dev/client3/rdock/2013.1/src/exe/rbdock.cxx#4 $)

>  <Rbt.Library>
libRbt.so (2013.1, Build901 2013/11/27)

>  <Rbt.Parameter_File>
/export/apps/rDock/src/rDock_2013.1_src/data/scripts/dock_solv.prm

>  <Rbt.Receptor>
prm/pocket_docking_4.prm

>  <SCORE>
-9.63384

>  <SCORE.INTER>
-8.62286

>  <SCORE.INTER.CONST>
1

>  <SCORE.INTER.POLAR>
0

>  <SCORE.INTER.ROT>
5

>  <SCORE.INTER.SOLV>
13.5132

>  <SCORE.INTER.VDW>
-17.1863

>  <SCORE.INTER.norm>
-0.862286

>  <SCORE.INTRA>
-1.01098

>  <SCORE.INTRA.DIHEDRAL>
-1.32485

>  <SCORE.INTRA.DIHEDRAL.0>
2.93688

>  <SCORE.INTRA.POLAR>
0

>  <SCORE.INTRA.POLAR.0>
0

>  <SCORE.INTRA.REPUL>
0

>  <SCORE.INTRA.REPUL.0>
0

>  <SCORE.INTRA.SOLV>
-0.565485

>  <SCORE.INTRA.SOLV.lig_0>
-32.2816

>  <SCORE.INTRA.VDW>
-0.0658117

>  <SCORE.INTRA.VDW.0>
-0.749945

>  <SCORE.INTRA.norm>
-0.101098

>  <SCORE.RESTR>
0

>  <SCORE.RESTR.CAVITY>
0

>  <SCORE.RESTR.norm>
0

>  <SCORE.SYSTEM>
0

>  <SCORE.SYSTEM.CONST>
0

>  <SCORE.SYSTEM.DIHEDRAL>
0

>  <SCORE.SYSTEM.SOLV>
0

>  <SCORE.SYSTEM.norm>
0

>  <SCORE.heavy>
10

>  <SCORE.norm>
-0.963384

>  <RMSD>
5.683

$$$$
ligand
 OpenBabel11021811473D
libRbt.so/2013.1/901 2013/11/27
 10  9  0  0  0  0  0  0  0  0999 V2000
   28.3968   15.1314   18.7746 N   0  0  0  0  0  0  0  0  0  0  0  0
   28.0266   15.1044   20.2212 C   0  0  2  0  0  0  0  0  0  0  0  0
   26.5127   15.1955   20.4102 C   0  0  0  0  0  0  0  0  0  0  0  0
   25.9690   14.7416   21.4156 O   0  0  0  0  0  0  0  0  0  0  0  0
   28.7630   16.2043   20.9951 C   0  0  0  0  0  0  0  0  0  0  0  0
   30.2831   16.0545   20.9434 C   0  0  0  0  0  0  0  0  0  0  0  0
   31.0063   17.1993   21.6395 C   0  0  0  0  0  0  0  0  0  0  0  0
   32.5198   17.0475   21.5226 C   0  0  0  0  0  0  0  0  0  0  0  0
   33.2795   18.1989   22.1212 N   0  0  0  0  0  0  0  0  0  0  0  0
   25.7766   15.7459   19.5859 O   0  0  0  0  0  0  0  0  0  0  0  0
  2  1  1  6  0  0  0
  2  3  1  0  0  0  0
  2  5  1  0  0  0  0
  3  4  1  0  0  0  0
  3 10  1  0  0  0  0
  5  6  1  0  0  0  0
  6  7  1  0  0  0  0
  7  8  1  0  0  0  0
  8  9  1  0  0  0  0
M  END
>  <CHROM.1>
154.54392157,-61.00371707,176.36541062,-177.79137218,176.43137314,29.00754530
16.05850024,20.76459736,-2.82359923,0.29548331,1.31319690

>  <Name>
ligand

>  <RI>
0

>  <Rbt.Current_Directory>
/home/itssahil/PROJECTS/Mol_Feturizer/New_Systems/rnas/3DIL

>  <Rbt.Executable>
rbdock ($Id: //depot/dev/client3/rdock/2013.1/src/exe/rbdock.cxx#4 $)

>  <Rbt.Library>
libRbt.so (2013.1, Build901 2013/11/27)

>  <Rbt.Parameter_File>
/export/apps/rDock/src/rDock_2013.1_src/data/scripts/dock_solv.prm

>  <Rbt.Receptor>
prm/pocket_docking_8.prm

>  <SCORE>
-9.64475

>  <SCORE.INTER>
-8.61741

>  <SCORE.INTER.CONST>
1

>  <SCORE.INTER.POLAR>
0

>  <SCORE.INTER.ROT>
5

>  <SCORE.INTER.SOLV>
13.169

>  <SCORE.INTER.VDW>
-17.0679

>  <SCORE.INTER.norm>
-0.861741

>  <SCORE.INTRA>
-1.02734

>  <SCORE.INTRA.DIHEDRAL>
-1.35153

>  <SCORE.INTRA.DIHEDRAL.0>
2.93688

>  <SCORE.INTRA.POLAR>
0

>  <SCORE.INTRA.POLAR.0>
0

>  <SCORE.INTRA.REPUL>
0

>  <SCORE.INTRA.REPUL.0>
0

>  <SCORE.INTRA.SOLV>
-0.584696

>  <SCORE.INTRA.SOLV.lig_0>
-32.2816

>  <SCORE.INTRA.VDW>
-0.0592297

>  <SCORE.INTRA.VDW.0>
-0.749945

>  <SCORE.INTRA.norm>
-0.102734

>  <SCORE.RESTR>
0

>  <SCORE.RESTR.CAVITY>
0

>  <SCORE.RESTR.norm>
0

>  <SCORE.SYSTEM>
0

>  <SCORE.SYSTEM.CONST>
0

>  <SCORE.SYSTEM.DIHEDRAL>
0

>  <SCORE.SYSTEM.SOLV>
0

>  <SCORE.SYSTEM.norm>
0

>  <SCORE.heavy>
10

>  <SCORE.norm>
-0.964475

>  <RMSD>
5.684

$$$$
ligand
 OpenBabel11021811473D
libRbt.so/2013.1/901 2013/11/27
 10  9  0  0  0  0  0  0  0  0999 V2000
   28.4268   14.3575   21.7673 N   0  0  0  0  0  0  0  0  0  0  0  0
   27.9851   15.6496   21.1624 C   0  0  2  0  0  0  0  0  0  0  0  0
   26.8534   15.4359   20.1577 C   0  0  0  0  0  0  0  0  0  0  0  0
   25.7192   15.1411   20.5308 O   0  0  0  0  0  0  0  0  0  0  0  0
   29.1699   16.3929   20.5341 C   0  0  0  0  0  0  0  0  0  0  0  0
   30.2917   16.6788   21.5319 C   0  0  0  0  0  0  0  0  0  0  0  0
   31.5338   17.2534   20.8646 C   0  0  0  0  0  0  0  0  0  0  0  0
   32.6305   17.5318   21.8878 C   0  0  0  0  0  0  0  0  0  0  0  0
   33.8676   18.1350   21.2823 N   0  0  0  0  0  0  0  0  0  0  0  0
   27.0157   15.5736   18.9417 O   0  0  0  0  0  0  0  0  0  0  0  0
  2  1  1  6  0  0  0
  2  3  1  0  0  0  0
  2  5  1  0  0  0  0
  3  4  1  0  0  0  0
  3 10  1  0  0  0  0
  5  6  1  0  0  0  0
  6  7  1  0  0  0  0
  7  8  1  0  0  0  0
  8  9  1  0  0  0  0
M  END
>  <CHROM.1>
72.04036047,-57.74988258,172.60882163,179.78190527,-178.49297575,29.31091100
16.20613459,20.84230546,-3.10981584,-0.41769010,-1.04107035

>  <Name>
ligand

>  <RI>
0

>  <Rbt.Current_Directory>
/home/itssahil/PROJECTS/Mol_Feturizer/New_Systems/rnas/3DIL

>  <Rbt.Executable>
rbdock ($Id: //depot/dev/client3/rdock/2013.1/src/exe/rbdock.cxx#4 $)

>  <Rbt.Library>
libRbt.so (2013.1, Build901 2013/11/27)

>  <Rbt.Parameter_File>
/export/apps/rDock/src/rDock_2013.1_src/data/scripts/dock_solv.prm

>  <Rbt.Receptor>
prm/pocket_docking_2.prm

>  <SCORE>
-6.95928

>  <SCORE.INTER>
-6.58765

>  <SCORE.INTER.CONST>
1

>  <SCORE.INTER.POLAR>
0

>  <SCORE.INTER.ROT>
5

>  <SCORE.INTER.SOLV>
18.1322

>  <SCORE.INTER.VDW>
-17.3692

>  <SCORE.INTER.norm>
-0.658765

>  <SCORE.INTRA>
-0.371629

>  <SCORE.INTRA.DIHEDRAL>
-1.14991

>  <SCORE.INTRA.DIHEDRAL.0>
2.93688

>  <SCORE.INTRA.POLAR>
0

>  <SCORE.INTRA.POLAR.0>
0

>  <SCORE.INTRA.REPUL>
0

>  <SCORE.INTRA.REPUL.0>
0

>  <SCORE.INTRA.SOLV>
-0.541351

>  <SCORE.INTRA.SOLV.lig_0>
-32.2816

>  <SCORE.INTRA.VDW>
0.474003

>  <SCORE.INTRA.VDW.0>
-0.749945

>  <SCORE.INTRA.norm>
-0.0371629

>  <SCORE.RESTR>
0

>  <SCORE.RESTR.CAVITY>
0

>  <SCORE.RESTR.norm>
0

>  <SCORE.SYSTEM>
0

>  <SCORE.SYSTEM.CONST>
0

>  <SCORE.SYSTEM.DIHEDRAL>
0

>  <SCORE.SYSTEM.SOLV>
0

>  <SCORE.SYSTEM.norm>
0

>  <SCORE.heavy>
10

>  <SCORE.norm>
-0.695928

>  <RMSD>
5.685

$$$$
ligand
 OpenBabel11021811473D
libRbt.so/2013.1/901 2013/11/27
 10  9  0  0  0  0  0  0  0  0999 V2000
   27.0366   15.3581   20.2987 N   0  0  0  0  0  0  0  0  0  0  0  0
   27.9257   15.9124   19.2344 C   0  0  2  0  0  0  0  0  0  0  0  0
   27.7380   15.1719   17.9106 C   0  0  0  0  0  0  0  0  0  0  0  0
   27.1238   14.1078   17.8590 O   0  0  0  0  0  0  0  0  0  0  0  0
   29.3908   15.9052   19.6867 C   0  0  0  0  0  0  0  0  0  0  0  0
   29.6963   16.9732   20.7364 C   0  0  0  0  0  0  0  0  0  0  0  0
   31.1686   17.0072   21.1229 C   0  0  0  0  0  0  0  0  0  0  0  0
   31.4588   18.1519   22.0887 C   0  0  0  0  0  0  0  0  0  0  0  0
   32.9093   18.2511   22.4724 N   0  0  0  0  0  0  0  0  0  0  0  0
   28.1653   15.6147   16.8404 O   0  0  0  0  0  0  0  0  0  0  0  0
  2  1  1  1  0  0  0
  2  3  1  0  0  0  0
  2  5  1  0  0  0  0
  3  4  1  0  0  0  0
  3 10  1  0  0  0  0
  5  6  1  0  0  0  0
  6  7  1  0  0  0  0
  7  8  1  0  0  0  0
  8  9  1  0  0  0  0
M  END
>  <CHROM.1>
-12.95316298,-73.07377478,-176.89040391,175.59472572,-178.44756978,29.24722290
16.22421245,19.78693718,2.40331039,-0.45976439,-1.74657615

>  <Name>
ligand

>  <RI>
0

>  <Rbt.Current_Directory>
/home/itssahil/PROJECTS/Mol_Feturizer/New_Systems/rnas/3DIL

>  <Rbt.Executable>
rbdock ($Id: //depot/dev/client3/rdock/2013.1/src/exe/rbdock.cxx#4 $)

>  <Rbt.Library>
libRbt.so (2013.1, Build901 2013/11/27)

>  <Rbt.Parameter_File>
/export/apps/rDock/src/rDock_2013.1_src/data/scripts/dock_solv.prm

>  <Rbt.Receptor>
prm/blind_docking_60.prm

>  <SCORE>
-8.3711

>  <SCORE.INTER>
-7.6198

>  <SCORE.INTER.CONST>
1

>  <SCORE.INTER.POLAR>
0

>  <SCORE.INTER.ROT>
5

>  <SCORE.INTER.SOLV>
14.6402

>  <SCORE.INTER.VDW>
-16.8933

>  <SCORE.INTER.norm>
-0.76198

>  <SCORE.INTRA>
-0.751304

>  <SCORE.INTRA.DIHEDRAL>
-0.584252

>  <SCORE.INTRA.DIHEDRAL.0>
2.93688

>  <SCORE.INTRA.POLAR>
0

>  <SCORE.INTRA.POLAR.0>
0

>  <SCORE.INTRA.REPUL>
0

>  <SCORE.INTRA.REPUL.0>
0

>  <SCORE.INTRA.SOLV>
-0.767482

>  <SCORE.INTRA.SOLV.lig_0>
-32.2816

>  <SCORE.INTRA.VDW>
-0.0754369

>  <SCORE.INTRA.VDW.0>
-0.749945

>  <SCORE.INTRA.norm>
-0.0751304

>  <SCORE.RESTR>
0

>  <SCORE.RESTR.CAVITY>
0

>  <SCORE.RESTR.norm>
0

>  <SCORE.SYSTEM>
0

>  <SCORE.SYSTEM.CONST>
0

>  <SCORE.SYSTEM.DIHEDRAL>
0

>  <SCORE.SYSTEM.SOLV>
0

>  <SCORE.SYSTEM.norm>
0

>  <SCORE.heavy>
10

>  <SCORE.norm>
-0.83711

>  <RMSD>
5.686

$$$$
ligand
 OpenBabel11021811473D
libRbt.so/2013.1/901 2013/11/27
 10  9  0  0  0  0  0  0  0  0999 V2000
   28.5020   14.8046   18.9969 N   0  0  0  0  0  0  0  0  0  0  0  0
   28.0261   14.9984   20.3992 C   0  0  2  0  0  0  0  0  0  0  0  0
   26.5091   15.1769   20.4526 C   0  0  0  0  0  0  0  0  0  0  0  0
   25.8511   14.7457   21.3979 O   0  0  0  0  0  0  0  0  0  0  0  0
   28.7595   16.1662   21.0694 C   0  0  0  0  0  0  0  0  0  0  0  0
   30.2749   15.9725   21.1135 C   0  0  0  0  0  0  0  0  0  0  0  0
   31.0004   17.1761   21.6993 C   0  0  0  0  0  0  0  0  0  0  0  0
   32.5126   16.9778   21.6671 C   0  0  0  0  0  0  0  0  0  0  0  0
   33.2773   18.1591   22.1968 N   0  0  0  0  0  0  0  0  0  0  0  0
   25.8840   15.7781   19.5741 O   0  0  0  0  0  0  0  0  0  0  0  0
  2  1  1  6  0  0  0
  2  3  1  0  0  0  0
  2  5  1  0  0  0  0
  3  4  1  0  0  0  0
  3 10  1  0  0  0  0
  5  6  1  0  0  0  0
  6  7  1  0  0  0  0
  7  8  1  0  0  0  0
  8  9  1  0  0  0  0
M  END
>  <CHROM.1>
145.67327010,-58.87003181,176.30895618,-177.27362604,178.22341254,29.01376285
15.99371220,20.85543237,-2.77236042,0.23452634,1.14265531

>  <Name>
ligand

>  <RI>
0

>  <Rbt.Current_Directory>
/home/itssahil/PROJECTS/Mol_Feturizer/New_Systems/rnas/3DIL

>  <Rbt.Executable>
rbdock ($Id: //depot/dev/client3/rdock/2013.1/src/exe/rbdock.cxx#4 $)

>  <Rbt.Library>
libRbt.so (2013.1, Build901 2013/11/27)

>  <Rbt.Parameter_File>
/export/apps/rDock/src/rDock_2013.1_src/data/scripts/dock_solv.prm

>  <Rbt.Receptor>
prm/pocket_docking_5.prm

>  <SCORE>
-9.62933

>  <SCORE.INTER>
-8.59303

>  <SCORE.INTER.CONST>
1

>  <SCORE.INTER.POLAR>
0

>  <SCORE.INTER.ROT>
5

>  <SCORE.INTER.SOLV>
13.6603

>  <SCORE.INTER.VDW>
-17.2155

>  <SCORE.INTER.norm>
-0.859303

>  <SCORE.INTRA>
-1.0363

>  <SCORE.INTRA.DIHEDRAL>
-1.37742

>  <SCORE.INTRA.DIHEDRAL.0>
2.93688

>  <SCORE.INTRA.POLAR>
0

>  <SCORE.INTRA.POLAR.0>
0

>  <SCORE.INTRA.REPUL>
0

>  <SCORE.INTRA.REPUL.0>
0

>  <SCORE.INTRA.SOLV>
-0.562014

>  <SCORE.INTRA.SOLV.lig_0>
-32.2816

>  <SCORE.INTRA.VDW>
-0.0665804

>  <SCORE.INTRA.VDW.0>
-0.749945

>  <SCORE.INTRA.norm>
-0.10363

>  <SCORE.RESTR>
0

>  <SCORE.RESTR.CAVITY>
0

>  <SCORE.RESTR.norm>
0

>  <SCORE.SYSTEM>
0

>  <SCORE.SYSTEM.CONST>
0

>  <SCORE.SYSTEM.DIHEDRAL>
0

>  <SCORE.SYSTEM.SOLV>
0

>  <SCORE.SYSTEM.norm>
0

>  <SCORE.heavy>
10

>  <SCORE.norm>
-0.962933

>  <RMSD>
5.686

$$$$
ligand
 OpenBabel11021811473D
libRbt.so/2013.1/901 2013/11/27
 10  9  0  0  0  0  0  0  0  0999 V2000
   28.4900   14.7604   19.0048 N   0  0  0  0  0  0  0  0  0  0  0  0
   28.0148   14.9868   20.4024 C   0  0  2  0  0  0  0  0  0  0  0  0
   26.4981   15.1684   20.4522 C   0  0  0  0  0  0  0  0  0  0  0  0
   25.8951   15.7324   19.5408 O   0  0  0  0  0  0  0  0  0  0  0  0
   28.7500   16.1686   21.0456 C   0  0  0  0  0  0  0  0  0  0  0  0
   30.2625   15.9617   21.1193 C   0  0  0  0  0  0  0  0  0  0  0  0
   30.9898   17.1710   21.6910 C   0  0  0  0  0  0  0  0  0  0  0  0
   32.5016   16.9693   21.6625 C   0  0  0  0  0  0  0  0  0  0  0  0
   33.2689   18.1629   22.1601 N   0  0  0  0  0  0  0  0  0  0  0  0
   25.8123   14.7394   21.3848 O   0  0  0  0  0  0  0  0  0  0  0  0
  2  1  1  6  0  0  0
  2  3  1  0  0  0  0
  2  5  1  0  0  0  0
  3  4  1  0  0  0  0
  3 10  1  0  0  0  0
  5  6  1  0  0  0  0
  6  7  1  0  0  0  0
  7  8  1  0  0  0  0
  8  9  1  0  0  0  0
M  END
>  <CHROM.1>
-34.58350363,-60.03027523,176.93848842,-176.12949184,177.39787637,29.00227935
15.97984215,20.84450947,-2.77000545,0.23424260,1.13261935

>  <Name>
ligand

>  <RI>
0

>  <Rbt.Current_Directory>
/home/itssahil/PROJECTS/Mol_Feturizer/New_Systems/rnas/3DIL

>  <Rbt.Executable>
rbdock ($Id: //depot/dev/client3/rdock/2013.1/src/exe/rbdock.cxx#4 $)

>  <Rbt.Library>
libRbt.so (2013.1, Build901 2013/11/27)

>  <Rbt.Parameter_File>
/export/apps/rDock/src/rDock_2013.1_src/data/scripts/dock_solv.prm

>  <Rbt.Receptor>
prm/pocket_docking_4.prm

>  <SCORE>
-9.57824

>  <SCORE.INTER>
-8.60085

>  <SCORE.INTER.CONST>
1

>  <SCORE.INTER.POLAR>
0

>  <SCORE.INTER.ROT>
5

>  <SCORE.INTER.SOLV>
13.7171

>  <SCORE.INTER.VDW>
-17.2396

>  <SCORE.INTER.norm>
-0.860085

>  <SCORE.INTRA>
-0.977389

>  <SCORE.INTRA.DIHEDRAL>
-1.24888

>  <SCORE.INTRA.DIHEDRAL.0>
2.93688

>  <SCORE.INTRA.POLAR>
0

>  <SCORE.INTRA.POLAR.0>
0

>  <SCORE.INTRA.REPUL>
0

>  <SCORE.INTRA.REPUL.0>
0

>  <SCORE.INTRA.SOLV>
-0.56666

>  <SCORE.INTRA.SOLV.lig_0>
-32.2816

>  <SCORE.INTRA.VDW>
-0.0696193

>  <SCORE.INTRA.VDW.0>
-0.749945

>  <SCORE.INTRA.norm>
-0.0977389

>  <SCORE.RESTR>
0

>  <SCORE.RESTR.CAVITY>
0

>  <SCORE.RESTR.norm>
0

>  <SCORE.SYSTEM>
0

>  <SCORE.SYSTEM.CONST>
0

>  <SCORE.SYSTEM.DIHEDRAL>
0

>  <SCORE.SYSTEM.SOLV>
0

>  <SCORE.SYSTEM.norm>
0

>  <SCORE.heavy>
10

>  <SCORE.norm>
-0.957824

>  <RMSD>
5.692

$$$$
ligand
 OpenBabel11021811473D
libRbt.so/2013.1/901 2013/11/27
 10  9  0  0  0  0  0  0  0  0999 V2000
   28.4821   14.7551   18.9938 N   0  0  0  0  0  0  0  0  0  0  0  0
   28.0095   14.9887   20.3912 C   0  0  2  0  0  0  0  0  0  0  0  0
   26.4925   15.1665   20.4435 C   0  0  0  0  0  0  0  0  0  0  0  0
   25.8376   14.7620   21.4026 O   0  0  0  0  0  0  0  0  0  0  0  0
   28.7430   16.1765   21.0254 C   0  0  0  0  0  0  0  0  0  0  0  0
   30.2539   15.9649   21.1167 C   0  0  0  0  0  0  0  0  0  0  0  0
   30.9810   17.1818   21.6723 C   0  0  0  0  0  0  0  0  0  0  0  0
   32.4907   16.9631   21.6863 C   0  0  0  0  0  0  0  0  0  0  0  0
   33.2596   18.1627   22.1666 N   0  0  0  0  0  0  0  0  0  0  0  0
   25.8641   15.7409   19.5495 O   0  0  0  0  0  0  0  0  0  0  0  0
  2  1  1  6  0  0  0
  2  3  1  0  0  0  0
  2  5  1  0  0  0  0
  3  4  1  0  0  0  0
  3 10  1  0  0  0  0
  5  6  1  0  0  0  0
  6  7  1  0  0  0  0
  7  8  1  0  0  0  0
  8  9  1  0  0  0  0
M  END
>  <CHROM.1>
145.68528588,-60.93395958,176.63969345,-177.22228682,177.28582313,28.99547004
15.98437082,20.84352231,-2.76706875,0.22939961,1.12470976

>  <Name>
ligand

>  <RI>
0

>  <Rbt.Current_Directory>
/home/itssahil/PROJECTS/Mol_Feturizer/New_Systems/rnas/3DIL

>  <Rbt.Executable>
rbdock ($Id: //depot/dev/client3/rdock/2013.1/src/exe/rbdock.cxx#4 $)

>  <Rbt.Library>
libRbt.so (2013.1, Build901 2013/11/27)

>  <Rbt.Parameter_File>
/export/apps/rDock/src/rDock_2013.1_src/data/scripts/dock_solv.prm

>  <Rbt.Receptor>
prm/pocket_docking_6.prm

>  <SCORE>
-9.69219

>  <SCORE.INTER>
-8.62394

>  <SCORE.INTER.CONST>
1

>  <SCORE.INTER.POLAR>
0

>  <SCORE.INTER.ROT>
5

>  <SCORE.INTER.SOLV>
13.7194

>  <SCORE.INTER.VDW>
-17.2558

>  <SCORE.INTER.norm>
-0.862394

>  <SCORE.INTRA>
-1.06825

>  <SCORE.INTRA.DIHEDRAL>
-1.36674

>  <SCORE.INTRA.DIHEDRAL.0>
2.93688

>  <SCORE.INTRA.POLAR>
0

>  <SCORE.INTRA.POLAR.0>
0

>  <SCORE.INTRA.REPUL>
0

>  <SCORE.INTRA.REPUL.0>
0

>  <SCORE.INTRA.SOLV>
-0.589981

>  <SCORE.INTRA.SOLV.lig_0>
-32.2816

>  <SCORE.INTRA.VDW>
-0.0898867

>  <SCORE.INTRA.VDW.0>
-0.749945

>  <SCORE.INTRA.norm>
-0.106825

>  <SCORE.RESTR>
0

>  <SCORE.RESTR.CAVITY>
0

>  <SCORE.RESTR.norm>
0

>  <SCORE.SYSTEM>
0

>  <SCORE.SYSTEM.CONST>
0

>  <SCORE.SYSTEM.DIHEDRAL>
0

>  <SCORE.SYSTEM.SOLV>
0

>  <SCORE.SYSTEM.norm>
0

>  <SCORE.heavy>
10

>  <SCORE.norm>
-0.969219

>  <RMSD>
5.692

$$$$
ligand
 OpenBabel11021811473D
libRbt.so/2013.1/901 2013/11/27
 10  9  0  0  0  0  0  0  0  0999 V2000
   27.0617   15.2651   20.3040 N   0  0  0  0  0  0  0  0  0  0  0  0
   27.9094   15.8652   19.2307 C   0  0  2  0  0  0  0  0  0  0  0  0
   27.7187   15.1391   17.8994 C   0  0  0  0  0  0  0  0  0  0  0  0
   27.1379   14.0565   17.8432 O   0  0  0  0  0  0  0  0  0  0  0  0
   29.3830   15.9003   19.6528 C   0  0  0  0  0  0  0  0  0  0  0  0
   29.6713   16.9492   20.7263 C   0  0  0  0  0  0  0  0  0  0  0  0
   31.1473   17.0180   21.0936 C   0  0  0  0  0  0  0  0  0  0  0  0
   31.4171   18.1470   22.0835 C   0  0  0  0  0  0  0  0  0  0  0  0
   32.8665   18.2676   22.4653 N   0  0  0  0  0  0  0  0  0  0  0  0
   28.1099   15.6115   16.8281 O   0  0  0  0  0  0  0  0  0  0  0  0
  2  1  1  1  0  0  0
  2  3  1  0  0  0  0
  2  5  1  0  0  0  0
  3  4  1  0  0  0  0
  3 10  1  0  0  0  0
  5  6  1  0  0  0  0
  6  7  1  0  0  0  0
  7  8  1  0  0  0  0
  8  9  1  0  0  0  0
M  END
>  <CHROM.1>
-12.86974754,-72.31856799,-177.46017406,175.49113228,-179.28517488,29.22811557
16.20101850,19.77448630,2.41344329,-0.49084542,-1.72102184

>  <Name>
ligand

>  <RI>
0

>  <Rbt.Current_Directory>
/home/itssahil/PROJECTS/Mol_Feturizer/New_Systems/rnas/3DIL

>  <Rbt.Executable>
rbdock ($Id: //depot/dev/client3/rdock/2013.1/src/exe/rbdock.cxx#4 $)

>  <Rbt.Library>
libRbt.so (2013.1, Build901 2013/11/27)

>  <Rbt.Parameter_File>
/export/apps/rDock/src/rDock_2013.1_src/data/scripts/dock_solv.prm

>  <Rbt.Receptor>
prm/blind_docking_80.prm

>  <SCORE>
-8.31011

>  <SCORE.INTER>
-7.52596

>  <SCORE.INTER.CONST>
1

>  <SCORE.INTER.POLAR>
0

>  <SCORE.INTER.ROT>
5

>  <SCORE.INTER.SOLV>
14.5349

>  <SCORE.INTER.VDW>
-16.7956

>  <SCORE.INTER.norm>
-0.752596

>  <SCORE.INTRA>
-0.784144

>  <SCORE.INTRA.DIHEDRAL>
-0.672671

>  <SCORE.INTRA.DIHEDRAL.0>
2.93688

>  <SCORE.INTRA.POLAR>
0

>  <SCORE.INTRA.POLAR.0>
0

>  <SCORE.INTRA.REPUL>
0

>  <SCORE.INTRA.REPUL.0>
0

>  <SCORE.INTRA.SOLV>
-0.754408

>  <SCORE.INTRA.SOLV.lig_0>
-32.2816

>  <SCORE.INTRA.VDW>
-0.0706042

>  <SCORE.INTRA.VDW.0>
-0.749945

>  <SCORE.INTRA.norm>
-0.0784144

>  <SCORE.RESTR>
0

>  <SCORE.RESTR.CAVITY>
0

>  <SCORE.RESTR.norm>
0

>  <SCORE.SYSTEM>
0

>  <SCORE.SYSTEM.CONST>
0

>  <SCORE.SYSTEM.DIHEDRAL>
0

>  <SCORE.SYSTEM.SOLV>
0

>  <SCORE.SYSTEM.norm>
0

>  <SCORE.heavy>
10

>  <SCORE.norm>
-0.831011

>  <RMSD>
5.694

$$$$
ligand
 OpenBabel11021811473D
libRbt.so/2013.1/901 2013/11/27
 10  9  0  0  0  0  0  0  0  0999 V2000
   28.7017   14.0891   21.1793 N   0  0  0  0  0  0  0  0  0  0  0  0
   28.0750   15.4286   21.3879 C   0  0  2  0  0  0  0  0  0  0  0  0
   26.7351   15.5358   20.6605 C   0  0  0  0  0  0  0  0  0  0  0  0
   26.6173   16.2149   19.6419 O   0  0  0  0  0  0  0  0  0  0  0  0
   29.0352   16.5516   20.9786 C   0  0  0  0  0  0  0  0  0  0  0  0
   30.3686   16.4977   21.7237 C   0  0  0  0  0  0  0  0  0  0  0  0
   31.2844   17.6603   21.3661 C   0  0  0  0  0  0  0  0  0  0  0  0
   32.6566   17.5004   22.0133 C   0  0  0  0  0  0  0  0  0  0  0  0
   33.5596   18.6816   21.7890 N   0  0  0  0  0  0  0  0  0  0  0  0
   25.7276   14.9322   21.0407 O   0  0  0  0  0  0  0  0  0  0  0  0
  2  1  1  6  0  0  0
  2  3  1  0  0  0  0
  2  5  1  0  0  0  0
  3  4  1  0  0  0  0
  3 10  1  0  0  0  0
  5  6  1  0  0  0  0
  6  7  1  0  0  0  0
  7  8  1  0  0  0  0
  8  9  1  0  0  0  0
M  END
>  <CHROM.1>
-106.87540843,-56.96125858,-176.86013467,-174.13632896,-174.99032541,29.23368092
16.30596977,21.16051736,-2.83106950,-0.33146412,-0.39243204

>  <Name>
ligand

>  <RI>
0

>  <Rbt.Current_Directory>
/home/itssahil/PROJECTS/Mol_Feturizer/New_Systems/rnas/3DIL

>  <Rbt.Executable>
rbdock ($Id: //depot/dev/client3/rdock/2013.1/src/exe/rbdock.cxx#4 $)

>  <Rbt.Library>
libRbt.so (2013.1, Build901 2013/11/27)

>  <Rbt.Parameter_File>
/export/apps/rDock/src/rDock_2013.1_src/data/scripts/dock_solv.prm

>  <Rbt.Receptor>
prm/blind_docking_80.prm

>  <SCORE>
-7.3295

>  <SCORE.INTER>
-7.02228

>  <SCORE.INTER.CONST>
1

>  <SCORE.INTER.POLAR>
0

>  <SCORE.INTER.ROT>
5

>  <SCORE.INTER.SOLV>
17.6276

>  <SCORE.INTER.VDW>
-17.4907

>  <SCORE.INTER.norm>
-0.702228

>  <SCORE.INTRA>
-0.307228

>  <SCORE.INTRA.DIHEDRAL>
-1.15121

>  <SCORE.INTRA.DIHEDRAL.0>
2.93688

>  <SCORE.INTRA.POLAR>
0

>  <SCORE.INTRA.POLAR.0>
0

>  <SCORE.INTRA.REPUL>
0

>  <SCORE.INTRA.REPUL.0>
0

>  <SCORE.INTRA.SOLV>
-0.572797

>  <SCORE.INTRA.SOLV.lig_0>
-32.2816

>  <SCORE.INTRA.VDW>
0.554774

>  <SCORE.INTRA.VDW.0>
-0.749945

>  <SCORE.INTRA.norm>
-0.0307228

>  <SCORE.RESTR>
0

>  <SCORE.RESTR.CAVITY>
0

>  <SCORE.RESTR.norm>
0

>  <SCORE.SYSTEM>
0

>  <SCORE.SYSTEM.CONST>
0

>  <SCORE.SYSTEM.DIHEDRAL>
0

>  <SCORE.SYSTEM.SOLV>
0

>  <SCORE.SYSTEM.norm>
0

>  <SCORE.heavy>
10

>  <SCORE.norm>
-0.73295

>  <RMSD>
5.701

$$$$
ligand
 OpenBabel11021811473D
libRbt.so/2013.1/901 2013/11/27
 10  9  0  0  0  0  0  0  0  0999 V2000
   28.7396   16.3428   18.8665 N   0  0  0  0  0  0  0  0  0  0  0  0
   27.5846   15.4400   18.5808 C   0  0  2  0  0  0  0  0  0  0  0  0
   26.7459   15.1951   19.8348 C   0  0  0  0  0  0  0  0  0  0  0  0
   25.5741   15.5629   19.8977 O   0  0  0  0  0  0  0  0  0  0  0  0
   28.0603   14.1260   17.9498 C   0  0  0  0  0  0  0  0  0  0  0  0
   26.9084   13.2006   17.5589 C   0  0  0  0  0  0  0  0  0  0  0  0
   27.3907   11.8353   17.0881 C   0  0  0  0  0  0  0  0  0  0  0  0
   26.2499   10.8226   17.0732 C   0  0  0  0  0  0  0  0  0  0  0  0
   26.6924    9.4360   16.6957 N   0  0  0  0  0  0  0  0  0  0  0  0
   27.1911   14.6005   20.8208 O   0  0  0  0  0  0  0  0  0  0  0  0
  2  1  1  1  0  0  0
  2  3  1  0  0  0  0
  2  5  1  0  0  0  0
  3  4  1  0  0  0  0
  3 10  1  0  0  0  0
  5  6  1  0  0  0  0
  6  7  1  0  0  0  0
  7  8  1  0  0  0  0
  8  9  1  0  0  0  0
M  END
>  <CHROM.1>
116.68469140,-176.48272146,-173.18260222,164.40780211,-176.46885530,27.09498952
13.66153577,18.46956485,-1.45814275,-0.68312838,-2.56899816

>  <Name>
ligand

>  <RI>
0

>  <Rbt.Current_Directory>
/home/itssahil/PROJECTS/Mol_Feturizer/New_Systems/rnas/3DIL

>  <Rbt.Executable>
rbdock ($Id: //depot/dev/client3/rdock/2013.1/src/exe/rbdock.cxx#4 $)

>  <Rbt.Library>
libRbt.so (2013.1, Build901 2013/11/27)

>  <Rbt.Parameter_File>
/export/apps/rDock/src/rDock_2013.1_src/data/scripts/dock_solv.prm

>  <Rbt.Receptor>
prm/blind_docking_40.prm

>  <SCORE>
-9.37787

>  <SCORE.INTER>
-8.46792

>  <SCORE.INTER.CONST>
1

>  <SCORE.INTER.POLAR>
0

>  <SCORE.INTER.ROT>
5

>  <SCORE.INTER.SOLV>
14.7475

>  <SCORE.INTER.VDW>
-17.4944

>  <SCORE.INTER.norm>
-0.846792

>  <SCORE.INTRA>
-0.909949

>  <SCORE.INTRA.DIHEDRAL>
-0.169877

>  <SCORE.INTRA.DIHEDRAL.0>
2.93688

>  <SCORE.INTRA.POLAR>
0

>  <SCORE.INTRA.POLAR.0>
0

>  <SCORE.INTRA.REPUL>
0

>  <SCORE.INTRA.REPUL.0>
0

>  <SCORE.INTRA.SOLV>
-1.52201

>  <SCORE.INTRA.SOLV.lig_0>
-32.2816

>  <SCORE.INTRA.VDW>
-0.0640042

>  <SCORE.INTRA.VDW.0>
-0.749945

>  <SCORE.INTRA.norm>
-0.0909949

>  <SCORE.RESTR>
0

>  <SCORE.RESTR.CAVITY>
0

>  <SCORE.RESTR.norm>
0

>  <SCORE.SYSTEM>
0

>  <SCORE.SYSTEM.CONST>
0

>  <SCORE.SYSTEM.DIHEDRAL>
0

>  <SCORE.SYSTEM.SOLV>
0

>  <SCORE.SYSTEM.norm>
0

>  <SCORE.heavy>
10

>  <SCORE.norm>
-0.937787

>  <RMSD>
5.737

$$$$
ligand
 OpenBabel11021811473D
libRbt.so/2013.1/901 2013/11/27
 10  9  0  0  0  0  0  0  0  0999 V2000
   28.4997   15.1239   17.3712 N   0  0  0  0  0  0  0  0  0  0  0  0
   27.9381   14.0501   18.2442 C   0  0  2  0  0  0  0  0  0  0  0  0
   27.2470   12.9656   17.4182 C   0  0  0  0  0  0  0  0  0  0  0  0
   26.2460   13.2169   16.7495 O   0  0  0  0  0  0  0  0  0  0  0  0
   27.0007   14.6409   19.3041 C   0  0  0  0  0  0  0  0  0  0  0  0
   27.7175   15.5705   20.2828 C   0  0  0  0  0  0  0  0  0  0  0  0
   28.6350   14.8181   21.2369 C   0  0  0  0  0  0  0  0  0  0  0  0
   29.5040   15.7807   22.0403 C   0  0  0  0  0  0  0  0  0  0  0  0
   30.4446   16.5848   21.1860 N   0  0  0  0  0  0  0  0  0  0  0  0
   27.6711   11.8076   17.3627 O   0  0  0  0  0  0  0  0  0  0  0  0
  2  1  1  6  0  0  0
  2  3  1  0  0  0  0
  2  5  1  0  0  0  0
  3  4  1  0  0  0  0
  3 10  1  0  0  0  0
  5  6  1  0  0  0  0
  6  7  1  0  0  0  0
  7  8  1  0  0  0  0
  8  9  1  0  0  0  0
M  END
>  <CHROM.1>
-64.19789048,-63.88166755,-71.10784715,170.61762905,-63.23000821,28.07146321
14.42535765,19.09241131,-2.34891449,0.94535037,1.63093971

>  <Name>
ligand

>  <RI>
0

>  <Rbt.Current_Directory>
/home/itssahil/PROJECTS/Mol_Feturizer/New_Systems/rnas/3DIL

>  <Rbt.Executable>
rbdock ($Id: //depot/dev/client3/rdock/2013.1/src/exe/rbdock.cxx#4 $)

>  <Rbt.Library>
libRbt.so (2013.1, Build901 2013/11/27)

>  <Rbt.Parameter_File>
/export/apps/rDock/src/rDock_2013.1_src/data/scripts/dock_solv.prm

>  <Rbt.Receptor>
prm/blind_docking_60.prm

>  <SCORE>
-7.69245

>  <SCORE.INTER>
-7.99123

>  <SCORE.INTER.CONST>
1

>  <SCORE.INTER.POLAR>
0

>  <SCORE.INTER.ROT>
5

>  <SCORE.INTER.SOLV>
13.7549

>  <SCORE.INTER.VDW>
-16.8458

>  <SCORE.INTER.norm>
-0.799123

>  <SCORE.INTRA>
0.22768

>  <SCORE.INTRA.DIHEDRAL>
-0.471288

>  <SCORE.INTRA.DIHEDRAL.0>
2.93688

>  <SCORE.INTRA.POLAR>
0

>  <SCORE.INTRA.POLAR.0>
0

>  <SCORE.INTRA.REPUL>
0

>  <SCORE.INTRA.REPUL.0>
0

>  <SCORE.INTRA.SOLV>
0.748242

>  <SCORE.INTRA.SOLV.lig_0>
-32.2816

>  <SCORE.INTRA.VDW>
0.0892036

>  <SCORE.INTRA.VDW.0>
-0.749945

>  <SCORE.INTRA.norm>
0.022768

>  <SCORE.RESTR>
0.0710922

>  <SCORE.RESTR.CAVITY>
0.0710922

>  <SCORE.RESTR.norm>
0.00710922

>  <SCORE.SYSTEM>
0

>  <SCORE.SYSTEM.CONST>
0

>  <SCORE.SYSTEM.DIHEDRAL>
0

>  <SCORE.SYSTEM.SOLV>
0

>  <SCORE.SYSTEM.norm>
0

>  <SCORE.heavy>
10

>  <SCORE.norm>
-0.769245

>  <RMSD>
5.914

$$$$
ligand
 OpenBabel11021811473D
libRbt.so/2013.1/901 2013/11/27
 10  9  0  0  0  0  0  0  0  0999 V2000
   28.3110   14.2189   19.5958 N   0  0  0  0  0  0  0  0  0  0  0  0
   28.2653   14.2679   18.1038 C   0  0  2  0  0  0  0  0  0  0  0  0
   28.2801   15.7085   17.5934 C   0  0  0  0  0  0  0  0  0  0  0  0
   28.1659   16.6581   18.3665 O   0  0  0  0  0  0  0  0  0  0  0  0
   27.0596   13.4874   17.5674 C   0  0  0  0  0  0  0  0  0  0  0  0
   27.4006   12.0451   17.1941 C   0  0  0  0  0  0  0  0  0  0  0  0
   26.1608   11.1788   17.0191 C   0  0  0  0  0  0  0  0  0  0  0  0
   26.5361    9.7153   16.8082 C   0  0  0  0  0  0  0  0  0  0  0  0
   27.1950    9.0930   18.0080 N   0  0  0  0  0  0  0  0  0  0  0  0
   28.4323   15.9842   16.3998 O   0  0  0  0  0  0  0  0  0  0  0  0
  2  1  1  1  0  0  0
  2  3  1  0  0  0  0
  2  5  1  0  0  0  0
  3  4  1  0  0  0  0
  3 10  1  0  0  0  0
  5  6  1  0  0  0  0
  6  7  1  0  0  0  0
  7  8  1  0  0  0  0
  8  9  1  0  0  0  0
M  END
>  <CHROM.1>
-8.66014360,-94.45901853,164.79935819,-173.39188430,65.47261524,27.58583219
13.27972334,17.65528566,-0.73262918,1.22692123,2.41678854

>  <Name>
ligand

>  <RI>
0

>  <Rbt.Current_Directory>
/home/itssahil/PROJECTS/Mol_Feturizer/New_Systems/rnas/3DIL

>  <Rbt.Executable>
rbdock ($Id: //depot/dev/client3/rdock/2013.1/src/exe/rbdock.cxx#4 $)

>  <Rbt.Library>
libRbt.so (2013.1, Build901 2013/11/27)

>  <Rbt.Parameter_File>
/export/apps/rDock/src/rDock_2013.1_src/data/scripts/dock_solv.prm

>  <Rbt.Receptor>
prm/blind_docking_40.prm

>  <SCORE>
-4.10117

>  <SCORE.INTER>
-5.70691

>  <SCORE.INTER.CONST>
1

>  <SCORE.INTER.POLAR>
0

>  <SCORE.INTER.ROT>
5

>  <SCORE.INTER.SOLV>
16.1728

>  <SCORE.INTER.VDW>
-16.1289

>  <SCORE.INTER.norm>
-0.570691

>  <SCORE.INTRA>
1.6055

>  <SCORE.INTRA.DIHEDRAL>
3.39246

>  <SCORE.INTRA.DIHEDRAL.0>
2.93688

>  <SCORE.INTRA.POLAR>
0

>  <SCORE.INTRA.POLAR.0>
0

>  <SCORE.INTRA.REPUL>
0

>  <SCORE.INTRA.REPUL.0>
0

>  <SCORE.INTRA.SOLV>
-0.0484635

>  <SCORE.INTRA.SOLV.lig_0>
-32.2816

>  <SCORE.INTRA.VDW>
-0.0664985

>  <SCORE.INTRA.VDW.0>
-0.749945

>  <SCORE.INTRA.norm>
0.16055

>  <SCORE.RESTR>
0.00023934

>  <SCORE.RESTR.CAVITY>
0.00023934

>  <SCORE.RESTR.norm>
2.3934e-05

>  <SCORE.SYSTEM>
0

>  <SCORE.SYSTEM.CONST>
0

>  <SCORE.SYSTEM.DIHEDRAL>
0

>  <SCORE.SYSTEM.SOLV>
0

>  <SCORE.SYSTEM.norm>
0

>  <SCORE.heavy>
10

>  <SCORE.norm>
-0.410117

>  <RMSD>
5.932

$$$$
ligand
 OpenBabel11021811473D
libRbt.so/2013.1/901 2013/11/27
 10  9  0  0  0  0  0  0  0  0999 V2000
   28.3250   15.1716   17.2808 N   0  0  0  0  0  0  0  0  0  0  0  0
   27.8718   14.0778   18.1913 C   0  0  2  0  0  0  0  0  0  0  0  0
   27.2117   12.9415   17.4110 C   0  0  0  0  0  0  0  0  0  0  0  0
   26.1489   13.1122   16.8163 O   0  0  0  0  0  0  0  0  0  0  0  0
   26.9498   14.6251   19.2873 C   0  0  0  0  0  0  0  0  0  0  0  0
   27.6786   15.5223   20.2871 C   0  0  0  0  0  0  0  0  0  0  0  0
   28.6468   14.7464   21.1696 C   0  0  0  0  0  0  0  0  0  0  0  0
   29.5006   15.6886   22.0125 C   0  0  0  0  0  0  0  0  0  0  0  0
   30.4242   16.5460   21.1922 N   0  0  0  0  0  0  0  0  0  0  0  0
   27.7211   11.8207   17.3196 O   0  0  0  0  0  0  0  0  0  0  0  0
  2  1  1  6  0  0  0
  2  3  1  0  0  0  0
  2  5  1  0  0  0  0
  3  4  1  0  0  0  0
  3 10  1  0  0  0  0
  5  6  1  0  0  0  0
  6  7  1  0  0  0  0
  7  8  1  0  0  0  0
  8  9  1  0  0  0  0
M  END
>  <CHROM.1>
-66.13342758,-68.51056152,-69.36913414,171.80826437,-65.24559720,28.02956423
14.39372957,19.07054984,-2.58398659,1.05448391,1.91162442

>  <Name>
ligand

>  <RI>
0

>  <Rbt.Current_Directory>
/home/itssahil/PROJECTS/Mol_Feturizer/New_Systems/rnas/3DIL

>  <Rbt.Executable>
rbdock ($Id: //depot/dev/client3/rdock/2013.1/src/exe/rbdock.cxx#4 $)

>  <Rbt.Library>
libRbt.so (2013.1, Build901 2013/11/27)

>  <Rbt.Parameter_File>
/export/apps/rDock/src/rDock_2013.1_src/data/scripts/dock_solv.prm

>  <Rbt.Receptor>
prm/blind_docking_100.prm

>  <SCORE>
-8.07561

>  <SCORE.INTER>
-8.39509

>  <SCORE.INTER.CONST>
1

>  <SCORE.INTER.POLAR>
0

>  <SCORE.INTER.ROT>
5

>  <SCORE.INTER.SOLV>
14.0438

>  <SCORE.INTER.VDW>
-17.2113

>  <SCORE.INTER.norm>
-0.839509

>  <SCORE.INTRA>
0.19843

>  <SCORE.INTRA.DIHEDRAL>
-0.407563

>  <SCORE.INTRA.DIHEDRAL.0>
2.93688

>  <SCORE.INTRA.POLAR>
0

>  <SCORE.INTRA.POLAR.0>
0

>  <SCORE.INTRA.REPUL>
0

>  <SCORE.INTRA.REPUL.0>
0

>  <SCORE.INTRA.SOLV>
0.640758

>  <SCORE.INTRA.SOLV.lig_0>
-32.2816

>  <SCORE.INTRA.VDW>
0.0818324

>  <SCORE.INTRA.VDW.0>
-0.749945

>  <SCORE.INTRA.norm>
0.019843

>  <SCORE.RESTR>
0.121056

>  <SCORE.RESTR.CAVITY>
0.121056

>  <SCORE.RESTR.norm>
0.0121056

>  <SCORE.SYSTEM>
0

>  <SCORE.SYSTEM.CONST>
0

>  <SCORE.SYSTEM.DIHEDRAL>
0

>  <SCORE.SYSTEM.SOLV>
0

>  <SCORE.SYSTEM.norm>
0

>  <SCORE.heavy>
10

>  <SCORE.norm>
-0.807561

>  <RMSD>
5.950

$$$$
ligand
 OpenBabel11021811473D
libRbt.so/2013.1/901 2013/11/27
 10  9  0  0  0  0  0  0  0  0999 V2000
   28.3624   14.1895   19.5853 N   0  0  0  0  0  0  0  0  0  0  0  0
   28.2916   14.2663   18.0954 C   0  0  2  0  0  0  0  0  0  0  0  0
   28.2615   15.7164   17.6135 C   0  0  0  0  0  0  0  0  0  0  0  0
   28.3892   15.9932   16.4221 O   0  0  0  0  0  0  0  0  0  0  0  0
   27.0977   13.4655   17.5624 C   0  0  0  0  0  0  0  0  0  0  0  0
   27.4648   12.0331   17.1761 C   0  0  0  0  0  0  0  0  0  0  0  0
   26.2461   11.1266   17.0702 C   0  0  0  0  0  0  0  0  0  0  0  0
   26.6572    9.6653   16.9197 C   0  0  0  0  0  0  0  0  0  0  0  0
   25.4928    8.7146   16.9553 N   0  0  0  0  0  0  0  0  0  0  0  0
   28.0830   16.6643   18.3840 O   0  0  0  0  0  0  0  0  0  0  0  0
  2  1  1  1  0  0  0
  2  3  1  0  0  0  0
  2  5  1  0  0  0  0
  3  4  1  0  0  0  0
  3 10  1  0  0  0  0
  5  6  1  0  0  0  0
  6  7  1  0  0  0  0
  7  8  1  0  0  0  0
  8  9  1  0  0  0  0
M  END
>  <CHROM.1>
169.86971740,-93.54967658,162.01564805,-170.32905158,173.98201774,27.43926517
13.22799131,17.56909575,-0.36520851,1.21688805,2.10129616

>  <Name>
ligand

>  <RI>
0

>  <Rbt.Current_Directory>
/home/itssahil/PROJECTS/Mol_Feturizer/New_Systems/rnas/3DIL

>  <Rbt.Executable>
rbdock ($Id: //depot/dev/client3/rdock/2013.1/src/exe/rbdock.cxx#4 $)

>  <Rbt.Library>
libRbt.so (2013.1, Build901 2013/11/27)

>  <Rbt.Parameter_File>
/export/apps/rDock/src/rDock_2013.1_src/data/scripts/dock_solv.prm

>  <Rbt.Receptor>
prm/blind_docking_40.prm

>  <SCORE>
-5.12905

>  <SCORE.INTER>
-6.4118

>  <SCORE.INTER.CONST>
1

>  <SCORE.INTER.POLAR>
0

>  <SCORE.INTER.ROT>
5

>  <SCORE.INTER.SOLV>
13.5758

>  <SCORE.INTER.VDW>
-15.7331

>  <SCORE.INTER.norm>
-0.64118

>  <SCORE.INTRA>
1.28275

>  <SCORE.INTRA.DIHEDRAL>
3.76673

>  <SCORE.INTRA.DIHEDRAL.0>
2.93688

>  <SCORE.INTRA.POLAR>
0

>  <SCORE.INTRA.POLAR.0>
0

>  <SCORE.INTRA.REPUL>
0

>  <SCORE.INTRA.REPUL.0>
0

>  <SCORE.INTRA.SOLV>
-0.926209

>  <SCORE.INTRA.SOLV.lig_0>
-32.2816

>  <SCORE.INTRA.VDW>
-0.137509

>  <SCORE.INTRA.VDW.0>
-0.749945

>  <SCORE.INTRA.norm>
0.128275

>  <SCORE.RESTR>
0

>  <SCORE.RESTR.CAVITY>
0

>  <SCORE.RESTR.norm>
0

>  <SCORE.SYSTEM>
0

>  <SCORE.SYSTEM.CONST>
0

>  <SCORE.SYSTEM.DIHEDRAL>
0

>  <SCORE.SYSTEM.SOLV>
0

>  <SCORE.SYSTEM.norm>
0

>  <SCORE.heavy>
10

>  <SCORE.norm>
-0.512905

>  <RMSD>
6.013

$$$$
ligand
 OpenBabel11021811473D
libRbt.so/2013.1/901 2013/11/27
 10  9  0  0  0  0  0  0  0  0999 V2000
   25.4524   11.8132   17.0655 N   0  0  0  0  0  0  0  0  0  0  0  0
   26.8978   11.7586   16.6933 C   0  0  2  0  0  0  0  0  0  0  0  0
   27.4520   10.3399   16.8193 C   0  0  0  0  0  0  0  0  0  0  0  0
   27.6616    9.8347   17.9207 O   0  0  0  0  0  0  0  0  0  0  0  0
   27.7131   12.7623   17.5172 C   0  0  0  0  0  0  0  0  0  0  0  0
   27.1010   14.1627   17.5271 C   0  0  0  0  0  0  0  0  0  0  0  0
   27.9013   15.1435   18.3732 C   0  0  0  0  0  0  0  0  0  0  0  0
   27.7709   14.8238   19.8592 C   0  0  0  0  0  0  0  0  0  0  0  0
   28.5403   15.7696   20.7392 N   0  0  0  0  0  0  0  0  0  0  0  0
   27.6870    9.6333   15.8346 O   0  0  0  0  0  0  0  0  0  0  0  0
  2  1  1  1  0  0  0
  2  3  1  0  0  0  0
  2  5  1  0  0  0  0
  3  4  1  0  0  0  0
  3 10  1  0  0  0  0
  5  6  1  0  0  0  0
  6  7  1  0  0  0  0
  7  8  1  0  0  0  0
  8  9  1  0  0  0  0
M  END
>  <CHROM.1>
-73.11878502,-49.20484754,178.71419775,-70.32498996,-179.76179029,27.42825060
12.56196850,17.83051717,1.77550874,0.88339317,-2.77027981

>  <Name>
ligand

>  <RI>
0

>  <Rbt.Current_Directory>
/home/itssahil/PROJECTS/Mol_Feturizer/New_Systems/rnas/3DIL

>  <Rbt.Executable>
rbdock ($Id: //depot/dev/client3/rdock/2013.1/src/exe/rbdock.cxx#4 $)

>  <Rbt.Library>
libRbt.so (2013.1, Build901 2013/11/27)

>  <Rbt.Parameter_File>
/export/apps/rDock/src/rDock_2013.1_src/data/scripts/dock_solv.prm

>  <Rbt.Receptor>
prm/blind_docking_40.prm

>  <SCORE>
-2.34274

>  <SCORE.INTER>
-2.60144

>  <SCORE.INTER.CONST>
1

>  <SCORE.INTER.POLAR>
0

>  <SCORE.INTER.ROT>
5

>  <SCORE.INTER.SOLV>
17.3312

>  <SCORE.INTER.VDW>
-14.4447

>  <SCORE.INTER.norm>
-0.260144

>  <SCORE.INTRA>
0.258699

>  <SCORE.INTRA.DIHEDRAL>
-0.600061

>  <SCORE.INTRA.DIHEDRAL.0>
2.93688

>  <SCORE.INTRA.POLAR>
0

>  <SCORE.INTRA.POLAR.0>
0

>  <SCORE.INTRA.REPUL>
0

>  <SCORE.INTRA.REPUL.0>
0

>  <SCORE.INTRA.SOLV>
-0.268838

>  <SCORE.INTRA.SOLV.lig_0>
-32.2816

>  <SCORE.INTRA.VDW>
0.693148

>  <SCORE.INTRA.VDW.0>
-0.749945

>  <SCORE.INTRA.norm>
0.0258699

>  <SCORE.RESTR>
0

>  <SCORE.RESTR.CAVITY>
0

>  <SCORE.RESTR.norm>
0

>  <SCORE.SYSTEM>
0

>  <SCORE.SYSTEM.CONST>
0

>  <SCORE.SYSTEM.DIHEDRAL>
0

>  <SCORE.SYSTEM.SOLV>
0

>  <SCORE.SYSTEM.norm>
0

>  <SCORE.heavy>
10

>  <SCORE.norm>
-0.234274

>  <RMSD>
7.385

$$$$
ligand
 OpenBabel11021811473D
libRbt.so/2013.1/901 2013/11/27
 10  9  0  0  0  0  0  0  0  0999 V2000
   28.5417    8.6807   28.8491 N   0  0  0  0  0  0  0  0  0  0  0  0
   28.7817    9.2175   27.4762 C   0  0  2  0  0  0  0  0  0  0  0  0
   28.3989   10.6941   27.3809 C   0  0  0  0  0  0  0  0  0  0  0  0
   27.2307   11.0573   27.5057 O   0  0  0  0  0  0  0  0  0  0  0  0
   28.0542    8.3728   26.4235 C   0  0  0  0  0  0  0  0  0  0  0  0
   28.3892    8.7867   24.9909 C   0  0  0  0  0  0  0  0  0  0  0  0
   27.4994    8.1020   23.9625 C   0  0  0  0  0  0  0  0  0  0  0  0
   26.0526    8.5696   24.0867 C   0  0  0  0  0  0  0  0  0  0  0  0
   25.1218    7.8801   23.1279 N   0  0  0  0  0  0  0  0  0  0  0  0
   29.2370   11.5830   27.2031 O   0  0  0  0  0  0  0  0  0  0  0  0
  2  1  1  1  0  0  0
  2  3  1  0  0  0  0
  2  5  1  0  0  0  0
  3  4  1  0  0  0  0
  3 10  1  0  0  0  0
  5  6  1  0  0  0  0
  6  7  1  0  0  0  0
  7  8  1  0  0  0  0
  8  9  1  0  0  0  0
M  END
>  <CHROM.1>
-65.68723771,-173.73149161,-170.69252753,66.76476188,-177.66589670,27.72798374
9.33184525,26.10762678,-0.60100854,0.98379206,-2.95303011

>  <Name>
ligand

>  <RI>
0

>  <Rbt.Current_Directory>
/home/itssahil/PROJECTS/Mol_Feturizer/New_Systems/rnas/3DIL

>  <Rbt.Executable>
rbdock ($Id: //depot/dev/client3/rdock/2013.1/src/exe/rbdock.cxx#4 $)

>  <Rbt.Library>
libRbt.so (2013.1, Build901 2013/11/27)

>  <Rbt.Parameter_File>
/export/apps/rDock/src/rDock_2013.1_src/data/scripts/dock_solv.prm

>  <Rbt.Receptor>
prm/blind_docking_80.prm

>  <SCORE>
-4.57068

>  <SCORE.INTER>
-4.0313

>  <SCORE.INTER.CONST>
1

>  <SCORE.INTER.POLAR>
0

>  <SCORE.INTER.ROT>
5

>  <SCORE.INTER.SOLV>
9.41458

>  <SCORE.INTER.VDW>
-12.7591

>  <SCORE.INTER.norm>
-0.40313

>  <SCORE.INTRA>
-0.539372

>  <SCORE.INTRA.DIHEDRAL>
-0.742686

>  <SCORE.INTRA.DIHEDRAL.0>
2.93688

>  <SCORE.INTRA.POLAR>
0

>  <SCORE.INTRA.POLAR.0>
0

>  <SCORE.INTRA.REPUL>
0

>  <SCORE.INTRA.REPUL.0>
0

>  <SCORE.INTRA.SOLV>
-1.27574

>  <SCORE.INTRA.SOLV.lig_0>
-32.2816

>  <SCORE.INTRA.VDW>
0.46984

>  <SCORE.INTRA.VDW.0>
-0.749945

>  <SCORE.INTRA.norm>
-0.0539372

>  <SCORE.RESTR>
0

>  <SCORE.RESTR.CAVITY>
0

>  <SCORE.RESTR.norm>
0

>  <SCORE.SYSTEM>
0

>  <SCORE.SYSTEM.CONST>
0

>  <SCORE.SYSTEM.DIHEDRAL>
0

>  <SCORE.SYSTEM.SOLV>
0

>  <SCORE.SYSTEM.norm>
0

>  <SCORE.heavy>
10

>  <SCORE.norm>
-0.457068

>  <RMSD>
9.595

$$$$
ligand
 OpenBabel11021811473D
libRbt.so/2013.1/901 2013/11/27
 10  9  0  0  0  0  0  0  0  0999 V2000
   23.9596   24.7410   20.1276 N   0  0  0  0  0  0  0  0  0  0  0  0
   24.2414   23.7998   19.0027 C   0  0  2  0  0  0  0  0  0  0  0  0
   25.2200   22.7045   19.4251 C   0  0  0  0  0  0  0  0  0  0  0  0
   24.8323   21.7005   20.0202 O   0  0  0  0  0  0  0  0  0  0  0  0
   24.7370   24.5584   17.7658 C   0  0  0  0  0  0  0  0  0  0  0  0
   24.9403   23.6522   16.5520 C   0  0  0  0  0  0  0  0  0  0  0  0
   25.3956   24.4213   15.3193 C   0  0  0  0  0  0  0  0  0  0  0  0
   25.5871   23.4888   14.1273 C   0  0  0  0  0  0  0  0  0  0  0  0
   26.1223   24.1870   12.9078 N   0  0  0  0  0  0  0  0  0  0  0  0
   26.4262   22.7623   19.1686 O   0  0  0  0  0  0  0  0  0  0  0  0
  2  1  1  1  0  0  0
  2  3  1  0  0  0  0
  2  5  1  0  0  0  0
  3  4  1  0  0  0  0
  3 10  1  0  0  0  0
  5  6  1  0  0  0  0
  6  7  1  0  0  0  0
  7  8  1  0  0  0  0
  8  9  1  0  0  0  0
M  END
>  <CHROM.1>
82.95100495,-175.69111434,178.42719045,-179.92812651,-176.27882855,25.16510873
23.57443717,17.46258763,1.84403410,-0.98717260,1.96170387

>  <Name>
ligand

>  <RI>
0

>  <Rbt.Current_Directory>
/home/itssahil/PROJECTS/Mol_Feturizer/New_Systems/rnas/3DIL

>  <Rbt.Executable>
rbdock ($Id: //depot/dev/client3/rdock/2013.1/src/exe/rbdock.cxx#4 $)

>  <Rbt.Library>
libRbt.so (2013.1, Build901 2013/11/27)

>  <Rbt.Parameter_File>
/export/apps/rDock/src/rDock_2013.1_src/data/scripts/dock_solv.prm

>  <Rbt.Receptor>
prm/blind_docking_100.prm

>  <SCORE>
-2.66791

>  <SCORE.INTER>
-1.65227

>  <SCORE.INTER.CONST>
1

>  <SCORE.INTER.POLAR>
0

>  <SCORE.INTER.ROT>
5

>  <SCORE.INTER.SOLV>
11.7873

>  <SCORE.INTER.VDW>
-11.9639

>  <SCORE.INTER.norm>
-0.165227

>  <SCORE.INTRA>
-1.01564

>  <SCORE.INTRA.DIHEDRAL>
-1.25387

>  <SCORE.INTRA.DIHEDRAL.0>
2.93688

>  <SCORE.INTRA.POLAR>
0

>  <SCORE.INTRA.POLAR.0>
0

>  <SCORE.INTRA.REPUL>
0

>  <SCORE.INTRA.REPUL.0>
0

>  <SCORE.INTRA.SOLV>
-1.52537

>  <SCORE.INTRA.SOLV.lig_0>
-32.2816

>  <SCORE.INTRA.VDW>
0.373975

>  <SCORE.INTRA.VDW.0>
-0.749945

>  <SCORE.INTRA.norm>
-0.101564

>  <SCORE.RESTR>
0

>  <SCORE.RESTR.CAVITY>
0

>  <SCORE.RESTR.norm>
0

>  <SCORE.SYSTEM>
0

>  <SCORE.SYSTEM.CONST>
0

>  <SCORE.SYSTEM.DIHEDRAL>
0

>  <SCORE.SYSTEM.SOLV>
0

>  <SCORE.SYSTEM.norm>
0

>  <SCORE.heavy>
10

>  <SCORE.norm>
-0.266791

>  <RMSD>
10.466

$$$$
ligand
 OpenBabel11021811473D
libRbt.so/2013.1/901 2013/11/27
 10  9  0  0  0  0  0  0  0  0999 V2000
   25.6611    7.4443   26.6154 N   0  0  0  0  0  0  0  0  0  0  0  0
   26.6103    8.5316   26.2314 C   0  0  2  0  0  0  0  0  0  0  0  0
   26.4400    8.9270   24.7649 C   0  0  0  0  0  0  0  0  0  0  0  0
   27.3713    8.8288   23.9677 O   0  0  0  0  0  0  0  0  0  0  0  0
   28.0564    8.1326   26.5481 C   0  0  0  0  0  0  0  0  0  0  0  0
   29.0425    9.2898   26.3919 C   0  0  0  0  0  0  0  0  0  0  0  0
   28.8789   10.3462   27.4762 C   0  0  0  0  0  0  0  0  0  0  0  0
   29.9191   11.4524   27.3295 C   0  0  0  0  0  0  0  0  0  0  0  0
   29.9424   12.4031   28.4943 N   0  0  0  0  0  0  0  0  0  0  0  0
   25.3660    9.3329   24.3113 O   0  0  0  0  0  0  0  0  0  0  0  0
  2  1  1  6  0  0  0
  2  3  1  0  0  0  0
  2  5  1  0  0  0  0
  3  4  1  0  0  0  0
  3 10  1  0  0  0  0
  5  6  1  0  0  0  0
  6  7  1  0  0  0  0
  7  8  1  0  0  0  0
  8  9  1  0  0  0  0
M  END
>  <CHROM.1>
-120.24162688,-170.48543530,70.45917913,177.34334601,-170.90985719,27.71714717
9.47231990,26.17526923,3.02222309,-0.83633077,-0.97556340

>  <Name>
ligand

>  <RI>
0

>  <Rbt.Current_Directory>
/home/itssahil/PROJECTS/Mol_Feturizer/New_Systems/rnas/3DIL

>  <Rbt.Executable>
rbdock ($Id: //depot/dev/client3/rdock/2013.1/src/exe/rbdock.cxx#4 $)

>  <Rbt.Library>
libRbt.so (2013.1, Build901 2013/11/27)

>  <Rbt.Parameter_File>
/export/apps/rDock/src/rDock_2013.1_src/data/scripts/dock_solv.prm

>  <Rbt.Receptor>
prm/blind_docking_80.prm

>  <SCORE>
-3.34141

>  <SCORE.INTER>
-3.39783

>  <SCORE.INTER.CONST>
1

>  <SCORE.INTER.POLAR>
0

>  <SCORE.INTER.ROT>
5

>  <SCORE.INTER.SOLV>
12.4303

>  <SCORE.INTER.VDW>
-13.342

>  <SCORE.INTER.norm>
-0.339783

>  <SCORE.INTRA>
0.056423

>  <SCORE.INTRA.DIHEDRAL>
-0.312013

>  <SCORE.INTRA.DIHEDRAL.0>
2.93688

>  <SCORE.INTRA.POLAR>
0

>  <SCORE.INTRA.POLAR.0>
0

>  <SCORE.INTRA.REPUL>
0

>  <SCORE.INTRA.REPUL.0>
0

>  <SCORE.INTRA.SOLV>
-1.25639

>  <SCORE.INTRA.SOLV.lig_0>
-32.2816

>  <SCORE.INTRA.VDW>
0.840625

>  <SCORE.INTRA.VDW.0>
-0.749945

>  <SCORE.INTRA.norm>
0.0056423

>  <SCORE.RESTR>
0

>  <SCORE.RESTR.CAVITY>
0

>  <SCORE.RESTR.norm>
0

>  <SCORE.SYSTEM>
0

>  <SCORE.SYSTEM.CONST>
0

>  <SCORE.SYSTEM.DIHEDRAL>
0

>  <SCORE.SYSTEM.SOLV>
0

>  <SCORE.SYSTEM.norm>
0

>  <SCORE.heavy>
10

>  <SCORE.norm>
-0.334141

>  <RMSD>
10.485

$$$$
ligand
 OpenBabel11021811473D
libRbt.so/2013.1/901 2013/11/27
 10  9  0  0  0  0  0  0  0  0999 V2000
   25.5908   24.7689   17.5463 N   0  0  0  0  0  0  0  0  0  0  0  0
   24.9083   23.4947   17.1702 C   0  0  2  0  0  0  0  0  0  0  0  0
   25.0852   22.4285   18.2508 C   0  0  0  0  0  0  0  0  0  0  0  0
   26.1163   21.7622   18.3238 O   0  0  0  0  0  0  0  0  0  0  0  0
   25.3884   23.0006   15.8004 C   0  0  0  0  0  0  0  0  0  0  0  0
   25.1291   24.0062   14.6790 C   0  0  0  0  0  0  0  0  0  0  0  0
   25.6964   23.5486   13.3422 C   0  0  0  0  0  0  0  0  0  0  0  0
   25.4740   24.6005   12.2599 C   0  0  0  0  0  0  0  0  0  0  0  0
   26.0556   24.2137   10.9283 N   0  0  0  0  0  0  0  0  0  0  0  0
   24.2236   22.2070   19.1067 O   0  0  0  0  0  0  0  0  0  0  0  0
  2  1  1  1  0  0  0
  2  3  1  0  0  0  0
  2  5  1  0  0  0  0
  3  4  1  0  0  0  0
  3 10  1  0  0  0  0
  5  6  1  0  0  0  0
  6  7  1  0  0  0  0
  7  8  1  0  0  0  0
  8  9  1  0  0  0  0
M  END
>  <CHROM.1>
-81.03845989,-59.36430851,175.97630436,-177.52824263,178.19583026,25.36843019
23.37640580,15.77825953,2.00035624,-1.33816597,2.24828329

>  <Name>
ligand

>  <RI>
0

>  <Rbt.Current_Directory>
/home/itssahil/PROJECTS/Mol_Feturizer/New_Systems/rnas/3DIL

>  <Rbt.Executable>
rbdock ($Id: //depot/dev/client3/rdock/2013.1/src/exe/rbdock.cxx#4 $)

>  <Rbt.Library>
libRbt.so (2013.1, Build901 2013/11/27)

>  <Rbt.Parameter_File>
/export/apps/rDock/src/rDock_2013.1_src/data/scripts/dock_solv.prm

>  <Rbt.Receptor>
prm/blind_docking_60.prm

>  <SCORE>
-3.66187

>  <SCORE.INTER>
-2.85261

>  <SCORE.INTER.CONST>
1

>  <SCORE.INTER.POLAR>
0

>  <SCORE.INTER.ROT>
5

>  <SCORE.INTER.SOLV>
8.2178

>  <SCORE.INTER.VDW>
-11.5743

>  <SCORE.INTER.norm>
-0.285261

>  <SCORE.INTRA>
-0.809259

>  <SCORE.INTRA.DIHEDRAL>
-1.3726

>  <SCORE.INTRA.DIHEDRAL.0>
2.93688

>  <SCORE.INTRA.POLAR>
0

>  <SCORE.INTRA.POLAR.0>
0

>  <SCORE.INTRA.REPUL>
0

>  <SCORE.INTRA.REPUL.0>
0

>  <SCORE.INTRA.SOLV>
-0.570661

>  <SCORE.INTRA.SOLV.lig_0>
-32.2816

>  <SCORE.INTRA.VDW>
0.162371

>  <SCORE.INTRA.VDW.0>
-0.749945

>  <SCORE.INTRA.norm>
-0.0809259

>  <SCORE.RESTR>
0

>  <SCORE.RESTR.CAVITY>
0

>  <SCORE.RESTR.norm>
0

>  <SCORE.SYSTEM>
0

>  <SCORE.SYSTEM.CONST>
0

>  <SCORE.SYSTEM.DIHEDRAL>
0

>  <SCORE.SYSTEM.SOLV>
0

>  <SCORE.SYSTEM.norm>
0

>  <SCORE.heavy>
10

>  <SCORE.norm>
-0.366187

>  <RMSD>
10.888

$$$$
ligand
 OpenBabel11021811473D
libRbt.so/2013.1/901 2013/11/27
 10  9  0  0  0  0  0  0  0  0999 V2000
   26.1301   23.1903   17.2029 N   0  0  0  0  0  0  0  0  0  0  0  0
   25.9907   23.4725   18.6629 C   0  0  2  0  0  0  0  0  0  0  0  0
   24.8231   22.6960   19.2710 C   0  0  0  0  0  0  0  0  0  0  0  0
   23.7475   22.6010   18.6824 O   0  0  0  0  0  0  0  0  0  0  0  0
   25.8662   24.9790   18.9195 C   0  0  0  0  0  0  0  0  0  0  0  0
   25.9463   25.3402   20.4024 C   0  0  0  0  0  0  0  0  0  0  0  0
   26.1318   26.8342   20.6300 C   0  0  0  0  0  0  0  0  0  0  0  0
   26.4028   27.1385   22.1001 C   0  0  0  0  0  0  0  0  0  0  0  0
   26.6808   28.5925   22.3636 N   0  0  0  0  0  0  0  0  0  0  0  0
   24.9120   22.1124   20.3552 O   0  0  0  0  0  0  0  0  0  0  0  0
  2  1  1  6  0  0  0
  2  3  1  0  0  0  0
  2  5  1  0  0  0  0
  3  4  1  0  0  0  0
  3 10  1  0  0  0  0
  5  6  1  0  0  0  0
  6  7  1  0  0  0  0
  7  8  1  0  0  0  0
  8  9  1  0  0  0  0
M  END
>  <CHROM.1>
-42.35743012,-170.77416140,167.31622974,-172.05911334,176.31100191,25.63530058
24.66722912,19.86644994,-2.06637147,1.01924000,0.99101975

>  <Name>
ligand

>  <RI>
0

>  <Rbt.Current_Directory>
/home/itssahil/PROJECTS/Mol_Feturizer/New_Systems/rnas/3DIL

>  <Rbt.Executable>
rbdock ($Id: //depot/dev/client3/rdock/2013.1/src/exe/rbdock.cxx#4 $)

>  <Rbt.Library>
libRbt.so (2013.1, Build901 2013/11/27)

>  <Rbt.Parameter_File>
/export/apps/rDock/src/rDock_2013.1_src/data/scripts/dock_solv.prm

>  <Rbt.Receptor>
prm/blind_docking_60.prm

>  <SCORE>
-3.9348

>  <SCORE.INTER>
-2.99174

>  <SCORE.INTER.CONST>
1

>  <SCORE.INTER.POLAR>
0

>  <SCORE.INTER.ROT>
5

>  <SCORE.INTER.SOLV>
7.25023

>  <SCORE.INTER.VDW>
-11.3446

>  <SCORE.INTER.norm>
-0.299174

>  <SCORE.INTRA>
-0.943061

>  <SCORE.INTRA.DIHEDRAL>
-0.117666

>  <SCORE.INTRA.DIHEDRAL.0>
2.93688

>  <SCORE.INTRA.POLAR>
0

>  <SCORE.INTRA.POLAR.0>
0

>  <SCORE.INTRA.REPUL>
0

>  <SCORE.INTRA.REPUL.0>
0

>  <SCORE.INTRA.SOLV>
-1.49098

>  <SCORE.INTRA.SOLV.lig_0>
-32.2816

>  <SCORE.INTRA.VDW>
-0.138737

>  <SCORE.INTRA.VDW.0>
-0.749945

>  <SCORE.INTRA.norm>
-0.0943061

>  <SCORE.RESTR>
0

>  <SCORE.RESTR.CAVITY>
0

>  <SCORE.RESTR.norm>
0

>  <SCORE.SYSTEM>
0

>  <SCORE.SYSTEM.CONST>
0

>  <SCORE.SYSTEM.DIHEDRAL>
0

>  <SCORE.SYSTEM.SOLV>
0

>  <SCORE.SYSTEM.norm>
0

>  <SCORE.heavy>
10

>  <SCORE.norm>
-0.39348

>  <RMSD>
10.931

$$$$
ligand
 OpenBabel11021811473D
libRbt.so/2013.1/901 2013/11/27
 10  9  0  0  0  0  0  0  0  0999 V2000
   24.7166   24.3526   18.0497 N   0  0  0  0  0  0  0  0  0  0  0  0
   25.6080   23.7589   19.0906 C   0  0  2  0  0  0  0  0  0  0  0  0
   25.2723   22.2886   19.3384 C   0  0  0  0  0  0  0  0  0  0  0  0
   24.7436   21.9252   20.3876 O   0  0  0  0  0  0  0  0  0  0  0  0
   25.5590   24.5788   20.3853 C   0  0  0  0  0  0  0  0  0  0  0  0
   26.2287   25.9461   20.2512 C   0  0  0  0  0  0  0  0  0  0  0  0
   26.3486   26.6705   21.5851 C   0  0  0  0  0  0  0  0  0  0  0  0
   27.0918   27.9936   21.4290 C   0  0  0  0  0  0  0  0  0  0  0  0
   27.2268   28.7540   22.7192 N   0  0  0  0  0  0  0  0  0  0  0  0
   25.4885   21.4114   18.4970 O   0  0  0  0  0  0  0  0  0  0  0  0
  2  1  1  6  0  0  0
  2  3  1  0  0  0  0
  2  5  1  0  0  0  0
  3  4  1  0  0  0  0
  3 10  1  0  0  0  0
  5  6  1  0  0  0  0
  6  7  1  0  0  0  0
  7  8  1  0  0  0  0
  8  9  1  0  0  0  0
M  END
>  <CHROM.1>
-109.57994775,-69.97346247,-171.96648325,176.73189542,179.52888825,25.81795418
24.72341268,20.17248767,2.90677426,1.28876159,2.27550530

>  <Name>
ligand

>  <RI>
0

>  <Rbt.Current_Directory>
/home/itssahil/PROJECTS/Mol_Feturizer/New_Systems/rnas/3DIL

>  <Rbt.Executable>
rbdock ($Id: //depot/dev/client3/rdock/2013.1/src/exe/rbdock.cxx#4 $)

>  <Rbt.Library>
libRbt.so (2013.1, Build901 2013/11/27)

>  <Rbt.Parameter_File>
/export/apps/rDock/src/rDock_2013.1_src/data/scripts/dock_solv.prm

>  <Rbt.Receptor>
prm/blind_docking_60.prm

>  <SCORE>
-4.1064

>  <SCORE.INTER>
-3.81707

>  <SCORE.INTER.CONST>
1

>  <SCORE.INTER.POLAR>
0

>  <SCORE.INTER.ROT>
5

>  <SCORE.INTER.SOLV>
8.00367

>  <SCORE.INTER.VDW>
-12.1459

>  <SCORE.INTER.norm>
-0.381707

>  <SCORE.INTRA>
-0.289333

>  <SCORE.INTRA.DIHEDRAL>
-0.734637

>  <SCORE.INTRA.DIHEDRAL.0>
2.93688

>  <SCORE.INTRA.POLAR>
0

>  <SCORE.INTRA.POLAR.0>
0

>  <SCORE.INTRA.REPUL>
0

>  <SCORE.INTRA.REPUL.0>
0

>  <SCORE.INTRA.SOLV>
-0.768817

>  <SCORE.INTRA.SOLV.lig_0>
-32.2816

>  <SCORE.INTRA.VDW>
0.462394

>  <SCORE.INTRA.VDW.0>
-0.749945

>  <SCORE.INTRA.norm>
-0.0289333

>  <SCORE.RESTR>
0

>  <SCORE.RESTR.CAVITY>
0

>  <SCORE.RESTR.norm>
0

>  <SCORE.SYSTEM>
0

>  <SCORE.SYSTEM.CONST>
0

>  <SCORE.SYSTEM.DIHEDRAL>
0

>  <SCORE.SYSTEM.SOLV>
0

>  <SCORE.SYSTEM.norm>
0

>  <SCORE.heavy>
10

>  <SCORE.norm>
-0.41064

>  <RMSD>
10.980

$$$$
ligand
 OpenBabel11021811473D
libRbt.so/2013.1/901 2013/11/27
 10  9  0  0  0  0  0  0  0  0999 V2000
   27.6279    9.1809   25.3862 N   0  0  0  0  0  0  0  0  0  0  0  0
   27.6177    9.3351   26.8718 C   0  0  2  0  0  0  0  0  0  0  0  0
   28.6460   10.3682   27.3313 C   0  0  0  0  0  0  0  0  0  0  0  0
   29.7414   10.4635   26.7804 O   0  0  0  0  0  0  0  0  0  0  0  0
   27.8231    7.9824   27.5637 C   0  0  0  0  0  0  0  0  0  0  0  0
   26.6755    7.0043   27.3142 C   0  0  0  0  0  0  0  0  0  0  0  0
   26.9314    5.6352   27.9292 C   0  0  0  0  0  0  0  0  0  0  0  0
   25.7422    4.7038   27.7155 C   0  0  0  0  0  0  0  0  0  0  0  0
   25.4075    4.4923   26.2649 N   0  0  0  0  0  0  0  0  0  0  0  0
   28.4184   11.1636   28.2476 O   0  0  0  0  0  0  0  0  0  0  0  0
  2  1  1  6  0  0  0
  2  3  1  0  0  0  0
  2  5  1  0  0  0  0
  3  4  1  0  0  0  0
  3 10  1  0  0  0  0
  5  6  1  0  0  0  0
  6  7  1  0  0  0  0
  7  8  1  0  0  0  0
  8  9  1  0  0  0  0
M  END
>  <CHROM.1>
-37.56360084,-65.06134474,176.25136644,177.48154564,58.85266309,27.49057924
8.06835055,27.15049783,0.18557706,-1.08736259,-1.35612080

>  <Name>
ligand

>  <RI>
0

>  <Rbt.Current_Directory>
/home/itssahil/PROJECTS/Mol_Feturizer/New_Systems/rnas/3DIL

>  <Rbt.Executable>
rbdock ($Id: //depot/dev/client3/rdock/2013.1/src/exe/rbdock.cxx#4 $)

>  <Rbt.Library>
libRbt.so (2013.1, Build901 2013/11/27)

>  <Rbt.Parameter_File>
/export/apps/rDock/src/rDock_2013.1_src/data/scripts/dock_solv.prm

>  <Rbt.Receptor>
prm/blind_docking_80.prm

>  <SCORE>
-3.82379

>  <SCORE.INTER>
-3.392

>  <SCORE.INTER.CONST>
1

>  <SCORE.INTER.POLAR>
0

>  <SCORE.INTER.ROT>
5

>  <SCORE.INTER.SOLV>
7.20444

>  <SCORE.INTER.VDW>
-11.5961

>  <SCORE.INTER.norm>
-0.3392

>  <SCORE.INTRA>
-0.431787

>  <SCORE.INTRA.DIHEDRAL>
-1.17716

>  <SCORE.INTRA.DIHEDRAL.0>
2.93688

>  <SCORE.INTRA.POLAR>
0

>  <SCORE.INTRA.POLAR.0>
0

>  <SCORE.INTRA.REPUL>
0

>  <SCORE.INTRA.REPUL.0>
0

>  <SCORE.INTRA.SOLV>
0.316155

>  <SCORE.INTRA.SOLV.lig_0>
-32.2816

>  <SCORE.INTRA.VDW>
-0.00128523

>  <SCORE.INTRA.VDW.0>
-0.749945

>  <SCORE.INTRA.norm>
-0.0431787

>  <SCORE.RESTR>
0

>  <SCORE.RESTR.CAVITY>
0

>  <SCORE.RESTR.norm>
0

>  <SCORE.SYSTEM>
0

>  <SCORE.SYSTEM.CONST>
0

>  <SCORE.SYSTEM.DIHEDRAL>
0

>  <SCORE.SYSTEM.SOLV>
0

>  <SCORE.SYSTEM.norm>
0

>  <SCORE.heavy>
10

>  <SCORE.norm>
-0.382379

>  <RMSD>
11.080

$$$$
ligand
 OpenBabel11021811473D
libRbt.so/2013.1/901 2013/11/27
 10  9  0  0  0  0  0  0  0  0999 V2000
   26.0042   24.1991   17.9895 N   0  0  0  0  0  0  0  0  0  0  0  0
   25.8142   23.7822   19.4110 C   0  0  2  0  0  0  0  0  0  0  0  0
   24.8343   22.6146   19.5225 C   0  0  0  0  0  0  0  0  0  0  0  0
   24.8930   21.8228   20.4617 O   0  0  0  0  0  0  0  0  0  0  0  0
   25.3820   24.9714   20.2770 C   0  0  0  0  0  0  0  0  0  0  0  0
   26.4357   26.0765   20.3416 C   0  0  0  0  0  0  0  0  0  0  0  0
   26.0406   27.2052   21.2840 C   0  0  0  0  0  0  0  0  0  0  0  0
   27.1185   28.2836   21.3351 C   0  0  0  0  0  0  0  0  0  0  0  0
   26.7529   29.4465   22.2155 N   0  0  0  0  0  0  0  0  0  0  0  0
   23.9325   22.4291   18.7001 O   0  0  0  0  0  0  0  0  0  0  0  0
  2  1  1  6  0  0  0
  2  3  1  0  0  0  0
  2  5  1  0  0  0  0
  3  4  1  0  0  0  0
  3 10  1  0  0  0  0
  5  6  1  0  0  0  0
  6  7  1  0  0  0  0
  7  8  1  0  0  0  0
  8  9  1  0  0  0  0
M  END
>  <CHROM.1>
153.30726620,-63.13837628,-175.80638734,179.46472982,177.91413038,25.69603257
25.04447945,20.15212877,-2.35416958,1.13883508,1.11138406

>  <Name>
ligand

>  <RI>
0

>  <Rbt.Current_Directory>
/home/itssahil/PROJECTS/Mol_Feturizer/New_Systems/rnas/3DIL

>  <Rbt.Executable>
rbdock ($Id: //depot/dev/client3/rdock/2013.1/src/exe/rbdock.cxx#4 $)

>  <Rbt.Library>
libRbt.so (2013.1, Build901 2013/11/27)

>  <Rbt.Parameter_File>
/export/apps/rDock/src/rDock_2013.1_src/data/scripts/dock_solv.prm

>  <Rbt.Receptor>
prm/blind_docking_60.prm

>  <SCORE>
-4.71488

>  <SCORE.INTER>
-3.63233

>  <SCORE.INTER.CONST>
1

>  <SCORE.INTER.POLAR>
0

>  <SCORE.INTER.ROT>
5

>  <SCORE.INTER.SOLV>
6.57301

>  <SCORE.INTER.VDW>
-11.5459

>  <SCORE.INTER.norm>
-0.363233

>  <SCORE.INTRA>
-1.08255

>  <SCORE.INTRA.DIHEDRAL>
-1.34478

>  <SCORE.INTRA.DIHEDRAL.0>
2.93688

>  <SCORE.INTRA.POLAR>
0

>  <SCORE.INTRA.POLAR.0>
0

>  <SCORE.INTRA.REPUL>
0

>  <SCORE.INTRA.REPUL.0>
0

>  <SCORE.INTRA.SOLV>
-0.65197

>  <SCORE.INTRA.SOLV.lig_0>
-32.2816

>  <SCORE.INTRA.VDW>
-0.0841682

>  <SCORE.INTRA.VDW.0>
-0.749945

>  <SCORE.INTRA.norm>
-0.108255

>  <SCORE.RESTR>
0

>  <SCORE.RESTR.CAVITY>
0

>  <SCORE.RESTR.norm>
0

>  <SCORE.SYSTEM>
0

>  <SCORE.SYSTEM.CONST>
0

>  <SCORE.SYSTEM.DIHEDRAL>
0

>  <SCORE.SYSTEM.SOLV>
0

>  <SCORE.SYSTEM.norm>
0

>  <SCORE.heavy>
10

>  <SCORE.norm>
-0.471488

>  <RMSD>
11.287

$$$$
ligand
 OpenBabel11021811473D
libRbt.so/2013.1/901 2013/11/27
 10  9  0  0  0  0  0  0  0  0999 V2000
   28.3006   16.0656    9.3566 N   0  0  0  0  0  0  0  0  0  0  0  0
   27.2321   15.3123   10.0786 C   0  0  2  0  0  0  0  0  0  0  0  0
   27.7751   14.6531   11.3461 C   0  0  0  0  0  0  0  0  0  0  0  0
   28.9376   14.2567   11.4085 O   0  0  0  0  0  0  0  0  0  0  0  0
   26.5595   14.2929    9.1515 C   0  0  0  0  0  0  0  0  0  0  0  0
   25.3579   13.6024    9.7958 C   0  0  0  0  0  0  0  0  0  0  0  0
   24.1742   14.5422    9.9798 C   0  0  0  0  0  0  0  0  0  0  0  0
   22.9918   13.8210   10.6193 C   0  0  0  0  0  0  0  0  0  0  0  0
   23.2613   13.3750   12.0298 N   0  0  0  0  0  0  0  0  0  0  0  0
   27.0894   14.5136   12.3631 O   0  0  0  0  0  0  0  0  0  0  0  0
  2  1  1  6  0  0  0
  2  3  1  0  0  0  0
  2  5  1  0  0  0  0
  3  4  1  0  0  0  0
  3 10  1  0  0  0  0
  5  6  1  0  0  0  0
  6  7  1  0  0  0  0
  7  8  1  0  0  0  0
  8  9  1  0  0  0  0
M  END
>  <CHROM.1>
-31.80934418,-173.72446024,69.91519335,179.78076464,65.76326358,26.18910414
14.43259786,10.64182891,0.11521271,-0.22951653,-1.27133757

>  <Name>
ligand

>  <RI>
0

>  <Rbt.Current_Directory>
/home/itssahil/PROJECTS/Mol_Feturizer/New_Systems/rnas/3DIL

>  <Rbt.Executable>
rbdock ($Id: //depot/dev/client3/rdock/2013.1/src/exe/rbdock.cxx#4 $)

>  <Rbt.Library>
libRbt.so (2013.1, Build901 2013/11/27)

>  <Rbt.Parameter_File>
/export/apps/rDock/src/rDock_2013.1_src/data/scripts/dock_solv.prm

>  <Rbt.Receptor>
prm/blind_docking_40.prm

>  <SCORE>
-5.38596

>  <SCORE.INTER>
-4.78267

>  <SCORE.INTER.CONST>
1

>  <SCORE.INTER.POLAR>
0

>  <SCORE.INTER.ROT>
5

>  <SCORE.INTER.SOLV>
14.2369

>  <SCORE.INTER.VDW>
-14.8674

>  <SCORE.INTER.norm>
-0.478267

>  <SCORE.INTRA>
-0.603282

>  <SCORE.INTRA.DIHEDRAL>
-0.707503

>  <SCORE.INTRA.DIHEDRAL.0>
2.93688

>  <SCORE.INTRA.POLAR>
0

>  <SCORE.INTRA.POLAR.0>
0

>  <SCORE.INTRA.REPUL>
0

>  <SCORE.INTRA.REPUL.0>
0

>  <SCORE.INTRA.SOLV>
-0.408392

>  <SCORE.INTRA.SOLV.lig_0>
-32.2816

>  <SCORE.INTRA.VDW>
-0.0453344

>  <SCORE.INTRA.VDW.0>
-0.749945

>  <SCORE.INTRA.norm>
-0.0603282

>  <SCORE.RESTR>
0

>  <SCORE.RESTR.CAVITY>
0

>  <SCORE.RESTR.norm>
0

>  <SCORE.SYSTEM>
0

>  <SCORE.SYSTEM.CONST>
0

>  <SCORE.SYSTEM.DIHEDRAL>
0

>  <SCORE.SYSTEM.SOLV>
0

>  <SCORE.SYSTEM.norm>
0

>  <SCORE.heavy>
10

>  <SCORE.norm>
-0.538596

>  <RMSD>
11.321

$$$$
ligand
 OpenBabel11021811473D
libRbt.so/2013.1/901 2013/11/27
 10  9  0  0  0  0  0  0  0  0999 V2000
   25.9267   24.9965   16.5962 N   0  0  0  0  0  0  0  0  0  0  0  0
   25.0458   23.8410   16.2505 C   0  0  2  0  0  0  0  0  0  0  0  0
   24.9671   22.8374   17.4005 C   0  0  0  0  0  0  0  0  0  0  0  0
   23.9669   22.7632   18.1122 O   0  0  0  0  0  0  0  0  0  0  0  0
   25.5021   23.1761   14.9464 C   0  0  0  0  0  0  0  0  0  0  0  0
   25.4537   24.1212   13.7462 C   0  0  0  0  0  0  0  0  0  0  0  0
   26.0394   23.4963   12.4874 C   0  0  0  0  0  0  0  0  0  0  0  0
   25.9335   24.4473   11.2993 C   0  0  0  0  0  0  0  0  0  0  0  0
   26.5016   23.8760   10.0296 N   0  0  0  0  0  0  0  0  0  0  0  0
   25.8811   22.0457   17.6493 O   0  0  0  0  0  0  0  0  0  0  0  0
  2  1  1  1  0  0  0
  2  3  1  0  0  0  0
  2  5  1  0  0  0  0
  3  4  1  0  0  0  0
  3 10  1  0  0  0  0
  5  6  1  0  0  0  0
  6  7  1  0  0  0  0
  7  8  1  0  0  0  0
  8  9  1  0  0  0  0
M  END
>  <CHROM.1>
104.83440443,-60.97485066,174.22284429,178.11147984,179.90841717,25.51621655
23.53580008,14.89047003,3.10599076,-1.39215263,-3.00977694

>  <Name>
ligand

>  <RI>
0

>  <Rbt.Current_Directory>
/home/itssahil/PROJECTS/Mol_Feturizer/New_Systems/rnas/3DIL

>  <Rbt.Executable>
rbdock ($Id: //depot/dev/client3/rdock/2013.1/src/exe/rbdock.cxx#4 $)

>  <Rbt.Library>
libRbt.so (2013.1, Build901 2013/11/27)

>  <Rbt.Parameter_File>
/export/apps/rDock/src/rDock_2013.1_src/data/scripts/dock_solv.prm

>  <Rbt.Receptor>
prm/blind_docking_40.prm

>  <SCORE>
-2.88023

>  <SCORE.INTER>
-2.02345

>  <SCORE.INTER.CONST>
1

>  <SCORE.INTER.POLAR>
0

>  <SCORE.INTER.ROT>
5

>  <SCORE.INTER.SOLV>
8.87733

>  <SCORE.INTER.VDW>
-11.2414

>  <SCORE.INTER.norm>
-0.202345

>  <SCORE.INTRA>
-0.856779

>  <SCORE.INTRA.DIHEDRAL>
-1.22633

>  <SCORE.INTRA.DIHEDRAL.0>
2.93688

>  <SCORE.INTRA.POLAR>
0

>  <SCORE.INTRA.POLAR.0>
0

>  <SCORE.INTRA.REPUL>
0

>  <SCORE.INTRA.REPUL.0>
0

>  <SCORE.INTRA.SOLV>
-0.595038

>  <SCORE.INTRA.SOLV.lig_0>
-32.2816

>  <SCORE.INTRA.VDW>
0.0539046

>  <SCORE.INTRA.VDW.0>
-0.749945

>  <SCORE.INTRA.norm>
-0.0856779

>  <SCORE.RESTR>
0

>  <SCORE.RESTR.CAVITY>
0

>  <SCORE.RESTR.norm>
0

>  <SCORE.SYSTEM>
0

>  <SCORE.SYSTEM.CONST>
0

>  <SCORE.SYSTEM.DIHEDRAL>
0

>  <SCORE.SYSTEM.SOLV>
0

>  <SCORE.SYSTEM.norm>
0

>  <SCORE.heavy>
10

>  <SCORE.norm>
-0.288023

>  <RMSD>
11.371

$$$$
ligand
 OpenBabel11021811473D
libRbt.so/2013.1/901 2013/11/27
 10  9  0  0  0  0  0  0  0  0999 V2000
   26.4132   13.5171    9.2300 N   0  0  0  0  0  0  0  0  0  0  0  0
   26.1761   14.7319   10.0660 C   0  0  2  0  0  0  0  0  0  0  0  0
   27.4456   15.1568   10.8033 C   0  0  0  0  0  0  0  0  0  0  0  0
   28.1064   14.3462   11.4504 O   0  0  0  0  0  0  0  0  0  0  0  0
   25.0051   14.5119   11.0310 C   0  0  0  0  0  0  0  0  0  0  0  0
   23.6984   14.1704   10.3156 C   0  0  0  0  0  0  0  0  0  0  0  0
   22.5068   14.1340   11.2627 C   0  0  0  0  0  0  0  0  0  0  0  0
   22.6340   12.9911   12.2650 C   0  0  0  0  0  0  0  0  0  0  0  0
   21.4503   12.8744   13.1851 N   0  0  0  0  0  0  0  0  0  0  0  0
   27.8768   16.3128   10.7628 O   0  0  0  0  0  0  0  0  0  0  0  0
  2  1  1  1  0  0  0
  2  3  1  0  0  0  0
  2  5  1  0  0  0  0
  3  4  1  0  0  0  0
  3 10  1  0  0  0  0
  5  6  1  0  0  0  0
  6  7  1  0  0  0  0
  7  8  1  0  0  0  0
  8  9  1  0  0  0  0
M  END
>  <CHROM.1>
-49.73705786,-58.66247381,-172.47528539,-66.02162848,-177.43130464,25.17105056
14.28861133,11.04935802,0.24687505,-0.33361689,-1.62795708

>  <Name>
ligand

>  <RI>
0

>  <Rbt.Current_Directory>
/home/itssahil/PROJECTS/Mol_Feturizer/New_Systems/rnas/3DIL

>  <Rbt.Executable>
rbdock ($Id: //depot/dev/client3/rdock/2013.1/src/exe/rbdock.cxx#4 $)

>  <Rbt.Library>
libRbt.so (2013.1, Build901 2013/11/27)

>  <Rbt.Parameter_File>
/export/apps/rDock/src/rDock_2013.1_src/data/scripts/dock_solv.prm

>  <Rbt.Receptor>
prm/blind_docking_40.prm

>  <SCORE>
-5.28588

>  <SCORE.INTER>
-5.1654

>  <SCORE.INTER.CONST>
1

>  <SCORE.INTER.POLAR>
0

>  <SCORE.INTER.ROT>
5

>  <SCORE.INTER.SOLV>
9.26621

>  <SCORE.INTER.VDW>
-13.4657

>  <SCORE.INTER.norm>
-0.51654

>  <SCORE.INTRA>
-0.120487

>  <SCORE.INTRA.DIHEDRAL>
-0.989905

>  <SCORE.INTRA.DIHEDRAL.0>
2.93688

>  <SCORE.INTRA.POLAR>
0

>  <SCORE.INTRA.POLAR.0>
0

>  <SCORE.INTRA.REPUL>
0

>  <SCORE.INTRA.REPUL.0>
0

>  <SCORE.INTRA.SOLV>
-0.399761

>  <SCORE.INTRA.SOLV.lig_0>
-32.2816

>  <SCORE.INTRA.VDW>
0.574347

>  <SCORE.INTRA.VDW.0>
-0.749945

>  <SCORE.INTRA.norm>
-0.0120487

>  <SCORE.RESTR>
0

>  <SCORE.RESTR.CAVITY>
0

>  <SCORE.RESTR.norm>
0

>  <SCORE.SYSTEM>
0

>  <SCORE.SYSTEM.CONST>
0

>  <SCORE.SYSTEM.DIHEDRAL>
0

>  <SCORE.SYSTEM.SOLV>
0

>  <SCORE.SYSTEM.norm>
0

>  <SCORE.heavy>
10

>  <SCORE.norm>
-0.528588

>  <RMSD>
11.433

$$$$
ligand
 OpenBabel11021811473D
libRbt.so/2013.1/901 2013/11/27
 10  9  0  0  0  0  0  0  0  0999 V2000
   26.3794   13.5166    9.1830 N   0  0  0  0  0  0  0  0  0  0  0  0
   26.1792   14.7263   10.0358 C   0  0  2  0  0  0  0  0  0  0  0  0
   27.4671   15.1156   10.7608 C   0  0  0  0  0  0  0  0  0  0  0  0
   27.9132   16.2597   10.6942 O   0  0  0  0  0  0  0  0  0  0  0  0
   25.0167   14.5199   11.0139 C   0  0  0  0  0  0  0  0  0  0  0  0
   23.6998   14.1864   10.3136 C   0  0  0  0  0  0  0  0  0  0  0  0
   22.5234   14.1309   11.2786 C   0  0  0  0  0  0  0  0  0  0  0  0
   22.6885   12.9960   12.2846 C   0  0  0  0  0  0  0  0  0  0  0  0
   21.5193   12.8574   13.2199 N   0  0  0  0  0  0  0  0  0  0  0  0
   28.0977   14.3175   11.4603 O   0  0  0  0  0  0  0  0  0  0  0  0
  2  1  1  1  0  0  0
  2  3  1  0  0  0  0
  2  5  1  0  0  0  0
  3  4  1  0  0  0  0
  3 10  1  0  0  0  0
  5  6  1  0  0  0  0
  6  7  1  0  0  0  0
  7  8  1  0  0  0  0
  8  9  1  0  0  0  0
M  END
>  <CHROM.1>
127.53139469,-57.49047622,-173.84619814,-64.43389202,-177.24159246,25.18816256
14.27609986,11.03672540,0.28002618,-0.31508076,-1.56182786

>  <Name>
ligand

>  <RI>
0

>  <Rbt.Current_Directory>
/home/itssahil/PROJECTS/Mol_Feturizer/New_Systems/rnas/3DIL

>  <Rbt.Executable>
rbdock ($Id: //depot/dev/client3/rdock/2013.1/src/exe/rbdock.cxx#4 $)

>  <Rbt.Library>
libRbt.so (2013.1, Build901 2013/11/27)

>  <Rbt.Parameter_File>
/export/apps/rDock/src/rDock_2013.1_src/data/scripts/dock_solv.prm

>  <Rbt.Receptor>
prm/blind_docking_40.prm

>  <SCORE>
-5.23655

>  <SCORE.INTER>
-5.11258

>  <SCORE.INTER.CONST>
1

>  <SCORE.INTER.POLAR>
0

>  <SCORE.INTER.ROT>
5

>  <SCORE.INTER.SOLV>
9.41392

>  <SCORE.INTER.VDW>
-13.4797

>  <SCORE.INTER.norm>
-0.511258

>  <SCORE.INTRA>
-0.123965

>  <SCORE.INTRA.DIHEDRAL>
-1.15772

>  <SCORE.INTRA.DIHEDRAL.0>
2.93688

>  <SCORE.INTRA.POLAR>
0

>  <SCORE.INTRA.POLAR.0>
0

>  <SCORE.INTRA.REPUL>
0

>  <SCORE.INTRA.REPUL.0>
0

>  <SCORE.INTRA.SOLV>
-0.386174

>  <SCORE.INTRA.SOLV.lig_0>
-32.2816

>  <SCORE.INTRA.VDW>
0.647983

>  <SCORE.INTRA.VDW.0>
-0.749945

>  <SCORE.INTRA.norm>
-0.0123965

>  <SCORE.RESTR>
0

>  <SCORE.RESTR.CAVITY>
0

>  <SCORE.RESTR.norm>
0

>  <SCORE.SYSTEM>
0

>  <SCORE.SYSTEM.CONST>
0

>  <SCORE.SYSTEM.DIHEDRAL>
0

>  <SCORE.SYSTEM.SOLV>
0

>  <SCORE.SYSTEM.norm>
0

>  <SCORE.heavy>
10

>  <SCORE.norm>
-0.523655

>  <RMSD>
11.442

$$$$
ligand
 OpenBabel11021811473D
libRbt.so/2013.1/901 2013/11/27
 10  9  0  0  0  0  0  0  0  0999 V2000
   28.0042   16.1293    9.3120 N   0  0  0  0  0  0  0  0  0  0  0  0
   26.9921   15.3056   10.0386 C   0  0  2  0  0  0  0  0  0  0  0  0
   27.6290   14.5304   11.1915 C   0  0  0  0  0  0  0  0  0  0  0  0
   27.0469   14.3977   12.2666 O   0  0  0  0  0  0  0  0  0  0  0  0
   26.2470   14.3769    9.0725 C   0  0  0  0  0  0  0  0  0  0  0  0
   25.1683   13.5413    9.7610 C   0  0  0  0  0  0  0  0  0  0  0  0
   24.0195   14.3906   10.2876 C   0  0  0  0  0  0  0  0  0  0  0  0
   22.9700   13.5287   10.9825 C   0  0  0  0  0  0  0  0  0  0  0  0
   21.7998   14.3195   11.4984 N   0  0  0  0  0  0  0  0  0  0  0  0
   28.7320   13.9852   11.0904 O   0  0  0  0  0  0  0  0  0  0  0  0
  2  1  1  6  0  0  0
  2  3  1  0  0  0  0
  2  5  1  0  0  0  0
  3  4  1  0  0  0  0
  3 10  1  0  0  0  0
  5  6  1  0  0  0  0
  6  7  1  0  0  0  0
  7  8  1  0  0  0  0
  8  9  1  0  0  0  0
M  END
>  <CHROM.1>
140.74447027,-178.24655609,66.52243604,-179.32442338,-178.90961025,25.88454062
14.43581726,10.57617789,0.12652350,-0.12543011,-1.23522486

>  <Name>
ligand

>  <RI>
0

>  <Rbt.Current_Directory>
/home/itssahil/PROJECTS/Mol_Feturizer/New_Systems/rnas/3DIL

>  <Rbt.Executable>
rbdock ($Id: //depot/dev/client3/rdock/2013.1/src/exe/rbdock.cxx#4 $)

>  <Rbt.Library>
libRbt.so (2013.1, Build901 2013/11/27)

>  <Rbt.Parameter_File>
/export/apps/rDock/src/rDock_2013.1_src/data/scripts/dock_solv.prm

>  <Rbt.Receptor>
prm/blind_docking_40.prm

>  <SCORE>
-6.27795

>  <SCORE.INTER>
-5.0391

>  <SCORE.INTER.CONST>
1

>  <SCORE.INTER.POLAR>
0

>  <SCORE.INTER.ROT>
5

>  <SCORE.INTER.SOLV>
12.6048

>  <SCORE.INTER.VDW>
-14.4943

>  <SCORE.INTER.norm>
-0.50391

>  <SCORE.INTRA>
-1.23885

>  <SCORE.INTRA.DIHEDRAL>
-1.28285

>  <SCORE.INTRA.DIHEDRAL.0>
2.93688

>  <SCORE.INTRA.POLAR>
0

>  <SCORE.INTRA.POLAR.0>
0

>  <SCORE.INTRA.REPUL>
0

>  <SCORE.INTRA.REPUL.0>
0

>  <SCORE.INTRA.SOLV>
-1.29765

>  <SCORE.INTRA.SOLV.lig_0>
-32.2816

>  <SCORE.INTRA.VDW>
0.0513946

>  <SCORE.INTRA.VDW.0>
-0.749945

>  <SCORE.INTRA.norm>
-0.123885

>  <SCORE.RESTR>
0

>  <SCORE.RESTR.CAVITY>
0

>  <SCORE.RESTR.norm>
0

>  <SCORE.SYSTEM>
0

>  <SCORE.SYSTEM.CONST>
0

>  <SCORE.SYSTEM.DIHEDRAL>
0

>  <SCORE.SYSTEM.SOLV>
0

>  <SCORE.SYSTEM.norm>
0

>  <SCORE.heavy>
10

>  <SCORE.norm>
-0.627795

>  <RMSD>
11.502

$$$$
ligand
 OpenBabel11021811473D
libRbt.so/2013.1/901 2013/11/27
 10  9  0  0  0  0  0  0  0  0999 V2000
   27.4332    9.8739   28.2415 N   0  0  0  0  0  0  0  0  0  0  0  0
   28.2140    8.7509   27.6415 C   0  0  2  0  0  0  0  0  0  0  0  0
   28.2763    8.8673   26.1189 C   0  0  0  0  0  0  0  0  0  0  0  0
   29.2655    8.4911   25.4925 O   0  0  0  0  0  0  0  0  0  0  0  0
   27.6517    7.3952   28.0852 C   0  0  0  0  0  0  0  0  0  0  0  0
   26.2292    7.1467   27.5847 C   0  0  0  0  0  0  0  0  0  0  0  0
   25.6893    5.7886   28.0116 C   0  0  0  0  0  0  0  0  0  0  0  0
   26.4437    4.6546   27.3245 C   0  0  0  0  0  0  0  0  0  0  0  0
   26.2582    4.6371   25.8325 N   0  0  0  0  0  0  0  0  0  0  0  0
   27.3382    9.3139   25.4522 O   0  0  0  0  0  0  0  0  0  0  0  0
  2  1  1  6  0  0  0
  2  3  1  0  0  0  0
  2  5  1  0  0  0  0
  3  4  1  0  0  0  0
  3 10  1  0  0  0  0
  5  6  1  0  0  0  0
  6  7  1  0  0  0  0
  7  8  1  0  0  0  0
  8  9  1  0  0  0  0
M  END
>  <CHROM.1>
146.76897778,64.36482358,179.05685875,-67.43184000,-64.66602540,27.28771638
7.50281008,26.94393112,0.58769494,1.01152396,0.75943157

>  <Name>
ligand

>  <RI>
0

>  <Rbt.Current_Directory>
/home/itssahil/PROJECTS/Mol_Feturizer/New_Systems/rnas/3DIL

>  <Rbt.Executable>
rbdock ($Id: //depot/dev/client3/rdock/2013.1/src/exe/rbdock.cxx#4 $)

>  <Rbt.Library>
libRbt.so (2013.1, Build901 2013/11/27)

>  <Rbt.Parameter_File>
/export/apps/rDock/src/rDock_2013.1_src/data/scripts/dock_solv.prm

>  <Rbt.Receptor>
prm/blind_docking_80.prm

>  <SCORE>
-2.14837

>  <SCORE.INTER>
-2.50223

>  <SCORE.INTER.CONST>
1

>  <SCORE.INTER.POLAR>
0

>  <SCORE.INTER.ROT>
5

>  <SCORE.INTER.SOLV>
6.64004

>  <SCORE.INTER.VDW>
-10.8148

>  <SCORE.INTER.norm>
-0.250223

>  <SCORE.INTRA>
0.35386

>  <SCORE.INTRA.DIHEDRAL>
-1.10187

>  <SCORE.INTRA.DIHEDRAL.0>
2.93688

>  <SCORE.INTRA.POLAR>
0

>  <SCORE.INTRA.POLAR.0>
0

>  <SCORE.INTRA.REPUL>
0

>  <SCORE.INTRA.REPUL.0>
0

>  <SCORE.INTRA.SOLV>
0.724412

>  <SCORE.INTRA.SOLV.lig_0>
-32.2816

>  <SCORE.INTRA.VDW>
0.54259

>  <SCORE.INTRA.VDW.0>
-0.749945

>  <SCORE.INTRA.norm>
0.035386

>  <SCORE.RESTR>
0

>  <SCORE.RESTR.CAVITY>
0

>  <SCORE.RESTR.norm>
0

>  <SCORE.SYSTEM>
0

>  <SCORE.SYSTEM.CONST>
0

>  <SCORE.SYSTEM.DIHEDRAL>
0

>  <SCORE.SYSTEM.SOLV>
0

>  <SCORE.SYSTEM.norm>
0

>  <SCORE.heavy>
10

>  <SCORE.norm>
-0.214837

>  <RMSD>
11.562

$$$$
ligand
 OpenBabel11021811473D
libRbt.so/2013.1/901 2013/11/27
 10  9  0  0  0  0  0  0  0  0999 V2000
   26.5496   14.1869    8.4938 N   0  0  0  0  0  0  0  0  0  0  0  0
   26.5095   15.1028    9.6729 C   0  0  2  0  0  0  0  0  0  0  0  0
   27.9166   15.5054   10.1133 C   0  0  0  0  0  0  0  0  0  0  0  0
   28.2805   16.6798   10.0832 O   0  0  0  0  0  0  0  0  0  0  0  0
   25.7108   14.4789   10.8234 C   0  0  0  0  0  0  0  0  0  0  0  0
   24.2229   14.3328   10.5063 C   0  0  0  0  0  0  0  0  0  0  0  0
   23.4093   13.8902   11.7148 C   0  0  0  0  0  0  0  0  0  0  0  0
   21.9176   13.8660   11.3964 C   0  0  0  0  0  0  0  0  0  0  0  0
   21.0667   13.4676   12.5704 N   0  0  0  0  0  0  0  0  0  0  0  0
   28.7347   14.6851   10.5397 O   0  0  0  0  0  0  0  0  0  0  0  0
  2  1  1  6  0  0  0
  2  3  1  0  0  0  0
  2  5  1  0  0  0  0
  3  4  1  0  0  0  0
  3 10  1  0  0  0  0
  5  6  1  0  0  0  0
  6  7  1  0  0  0  0
  7  8  1  0  0  0  0
  8  9  1  0  0  0  0
M  END
>  <CHROM.1>
117.65617268,-67.03629575,-172.25583440,175.28812136,-178.55719300,25.47508827
14.63339424,10.59701387,0.19107308,-0.35790088,-1.90529728

>  <Name>
ligand

>  <RI>
0

>  <Rbt.Current_Directory>
/home/itssahil/PROJECTS/Mol_Feturizer/New_Systems/rnas/3DIL

>  <Rbt.Executable>
rbdock ($Id: //depot/dev/client3/rdock/2013.1/src/exe/rbdock.cxx#4 $)

>  <Rbt.Library>
libRbt.so (2013.1, Build901 2013/11/27)

>  <Rbt.Parameter_File>
/export/apps/rDock/src/rDock_2013.1_src/data/scripts/dock_solv.prm

>  <Rbt.Receptor>
prm/blind_docking_60.prm

>  <SCORE>
-6.8349

>  <SCORE.INTER>
-5.93641

>  <SCORE.INTER.CONST>
1

>  <SCORE.INTER.POLAR>
0

>  <SCORE.INTER.ROT>
5

>  <SCORE.INTER.SOLV>
7.03496

>  <SCORE.INTER.VDW>
-13.2359

>  <SCORE.INTER.norm>
-0.593641

>  <SCORE.INTRA>
-0.898484

>  <SCORE.INTRA.DIHEDRAL>
-0.859266

>  <SCORE.INTRA.DIHEDRAL.0>
2.93688

>  <SCORE.INTRA.POLAR>
0

>  <SCORE.INTRA.POLAR.0>
0

>  <SCORE.INTRA.REPUL>
0

>  <SCORE.INTRA.REPUL.0>
0

>  <SCORE.INTRA.SOLV>
-0.737201

>  <SCORE.INTRA.SOLV.lig_0>
-32.2816

>  <SCORE.INTRA.VDW>
-0.10025

>  <SCORE.INTRA.VDW.0>
-0.749945

>  <SCORE.INTRA.norm>
-0.0898484

>  <SCORE.RESTR>
0

>  <SCORE.RESTR.CAVITY>
0

>  <SCORE.RESTR.norm>
0

>  <SCORE.SYSTEM>
0

>  <SCORE.SYSTEM.CONST>
0

>  <SCORE.SYSTEM.DIHEDRAL>
0

>  <SCORE.SYSTEM.SOLV>
0

>  <SCORE.SYSTEM.norm>
0

>  <SCORE.heavy>
10

>  <SCORE.norm>
-0.68349

>  <RMSD>
11.617

$$$$
ligand
 OpenBabel11021811473D
libRbt.so/2013.1/901 2013/11/27
 10  9  0  0  0  0  0  0  0  0999 V2000
   26.2698   15.1241   11.6837 N   0  0  0  0  0  0  0  0  0  0  0  0
   26.7802   14.5916   10.3850 C   0  0  2  0  0  0  0  0  0  0  0  0
   28.0410   15.3304    9.9373 C   0  0  0  0  0  0  0  0  0  0  0  0
   29.1550   14.9753   10.3183 O   0  0  0  0  0  0  0  0  0  0  0  0
   25.6872   14.6304    9.3104 C   0  0  0  0  0  0  0  0  0  0  0  0
   24.4644   13.7881    9.6725 C   0  0  0  0  0  0  0  0  0  0  0  0
   23.6521   14.3963   10.8077 C   0  0  0  0  0  0  0  0  0  0  0  0
   22.5569   13.4425   11.2746 C   0  0  0  0  0  0  0  0  0  0  0  0
   21.6533   14.0414   12.3167 N   0  0  0  0  0  0  0  0  0  0  0  0
   28.0033   16.2894    9.1608 O   0  0  0  0  0  0  0  0  0  0  0  0
  2  1  1  1  0  0  0
  2  3  1  0  0  0  0
  2  5  1  0  0  0  0
  3  4  1  0  0  0  0
  3 10  1  0  0  0  0
  5  6  1  0  0  0  0
  6  7  1  0  0  0  0
  7  8  1  0  0  0  0
  8  9  1  0  0  0  0
M  END
>  <CHROM.1>
86.74385139,-60.59569706,70.64940920,-172.07306426,-175.19011730,25.66662098
14.67907154,10.47396041,-0.24727907,0.27337724,1.53442127

>  <Name>
ligand

>  <RI>
0

>  <Rbt.Current_Directory>
/home/itssahil/PROJECTS/Mol_Feturizer/New_Systems/rnas/3DIL

>  <Rbt.Executable>
rbdock ($Id: //depot/dev/client3/rdock/2013.1/src/exe/rbdock.cxx#4 $)

>  <Rbt.Library>
libRbt.so (2013.1, Build901 2013/11/27)

>  <Rbt.Parameter_File>
/export/apps/rDock/src/rDock_2013.1_src/data/scripts/dock_solv.prm

>  <Rbt.Receptor>
prm/blind_docking_40.prm

>  <SCORE>
-3.01938

>  <SCORE.INTER>
-4.01876

>  <SCORE.INTER.CONST>
1

>  <SCORE.INTER.POLAR>
0

>  <SCORE.INTER.ROT>
5

>  <SCORE.INTER.SOLV>
11.3122

>  <SCORE.INTER.VDW>
-13.3832

>  <SCORE.INTER.norm>
-0.401876

>  <SCORE.INTRA>
0.999372

>  <SCORE.INTRA.DIHEDRAL>
-0.562119

>  <SCORE.INTRA.DIHEDRAL.0>
2.93688

>  <SCORE.INTRA.POLAR>
0

>  <SCORE.INTRA.POLAR.0>
0

>  <SCORE.INTRA.REPUL>
0

>  <SCORE.INTRA.REPUL.0>
0

>  <SCORE.INTRA.SOLV>
0.981617

>  <SCORE.INTRA.SOLV.lig_0>
-32.2816

>  <SCORE.INTRA.VDW>
0.789623

>  <SCORE.INTRA.VDW.0>
-0.749945

>  <SCORE.INTRA.norm>
0.0999372

>  <SCORE.RESTR>
0

>  <SCORE.RESTR.CAVITY>
0

>  <SCORE.RESTR.norm>
0

>  <SCORE.SYSTEM>
0

>  <SCORE.SYSTEM.CONST>
0

>  <SCORE.SYSTEM.DIHEDRAL>
0

>  <SCORE.SYSTEM.SOLV>
0

>  <SCORE.SYSTEM.norm>
0

>  <SCORE.heavy>
10

>  <SCORE.norm>
-0.301938

>  <RMSD>
11.677

$$$$
ligand
 OpenBabel11021811473D
libRbt.so/2013.1/901 2013/11/27
 10  9  0  0  0  0  0  0  0  0999 V2000
   27.0709   14.4340    8.2425 N   0  0  0  0  0  0  0  0  0  0  0  0
   26.6898   15.1392    9.5026 C   0  0  2  0  0  0  0  0  0  0  0  0
   27.9227   15.5239   10.3200 C   0  0  0  0  0  0  0  0  0  0  0  0
   28.1289   16.6908   10.6486 O   0  0  0  0  0  0  0  0  0  0  0  0
   25.7037   14.2993   10.3229 C   0  0  0  0  0  0  0  0  0  0  0  0
   24.3647   14.0918    9.6159 C   0  0  0  0  0  0  0  0  0  0  0  0
   23.3977   13.2465   10.4335 C   0  0  0  0  0  0  0  0  0  0  0  0
   22.9374   13.9894   11.6839 C   0  0  0  0  0  0  0  0  0  0  0  0
   21.9184   13.2275   12.4853 N   0  0  0  0  0  0  0  0  0  0  0  0
   28.7450   14.6883   10.7068 O   0  0  0  0  0  0  0  0  0  0  0  0
  2  1  1  6  0  0  0
  2  3  1  0  0  0  0
  2  5  1  0  0  0  0
  3  4  1  0  0  0  0
  3 10  1  0  0  0  0
  5  6  1  0  0  0  0
  6  7  1  0  0  0  0
  7  8  1  0  0  0  0
  8  9  1  0  0  0  0
M  END
>  <CHROM.1>
123.71358562,-64.50199292,179.49194733,68.22492348,176.66400944,25.72604259
14.54712075,10.41155532,0.13272988,-0.40591592,-1.87050887

>  <Name>
ligand

>  <RI>
0

>  <Rbt.Current_Directory>
/home/itssahil/PROJECTS/Mol_Feturizer/New_Systems/rnas/3DIL

>  <Rbt.Executable>
rbdock ($Id: //depot/dev/client3/rdock/2013.1/src/exe/rbdock.cxx#4 $)

>  <Rbt.Library>
libRbt.so (2013.1, Build901 2013/11/27)

>  <Rbt.Parameter_File>
/export/apps/rDock/src/rDock_2013.1_src/data/scripts/dock_solv.prm

>  <Rbt.Receptor>
prm/blind_docking_40.prm

>  <SCORE>
-6.43372

>  <SCORE.INTER>
-6.12764

>  <SCORE.INTER.CONST>
1

>  <SCORE.INTER.POLAR>
0

>  <SCORE.INTER.ROT>
5

>  <SCORE.INTER.SOLV>
8.70843

>  <SCORE.INTER.VDW>
-13.9212

>  <SCORE.INTER.norm>
-0.612764

>  <SCORE.INTRA>
-0.30607

>  <SCORE.INTRA.DIHEDRAL>
-1.02163

>  <SCORE.INTRA.DIHEDRAL.0>
2.93688

>  <SCORE.INTRA.POLAR>
0

>  <SCORE.INTRA.POLAR.0>
0

>  <SCORE.INTRA.REPUL>
0

>  <SCORE.INTRA.REPUL.0>
0

>  <SCORE.INTRA.SOLV>
-0.476664

>  <SCORE.INTRA.SOLV.lig_0>
-32.2816

>  <SCORE.INTRA.VDW>
0.443078

>  <SCORE.INTRA.VDW.0>
-0.749945

>  <SCORE.INTRA.norm>
-0.030607

>  <SCORE.RESTR>
0

>  <SCORE.RESTR.CAVITY>
0

>  <SCORE.RESTR.norm>
0

>  <SCORE.SYSTEM>
0

>  <SCORE.SYSTEM.CONST>
0

>  <SCORE.SYSTEM.DIHEDRAL>
0

>  <SCORE.SYSTEM.SOLV>
0

>  <SCORE.SYSTEM.norm>
0

>  <SCORE.heavy>
10

>  <SCORE.norm>
-0.643372

>  <RMSD>
11.677

$$$$
ligand
 OpenBabel11021811473D
libRbt.so/2013.1/901 2013/11/27
 10  9  0  0  0  0  0  0  0  0999 V2000
   27.0257   14.4362    8.2434 N   0  0  0  0  0  0  0  0  0  0  0  0
   26.6790   15.1668    9.4990 C   0  0  2  0  0  0  0  0  0  0  0  0
   27.9318   15.5324   10.2944 C   0  0  0  0  0  0  0  0  0  0  0  0
   28.1746   16.6994   10.5972 O   0  0  0  0  0  0  0  0  0  0  0  0
   25.6845   14.3616   10.3437 C   0  0  0  0  0  0  0  0  0  0  0  0
   24.3563   14.1159    9.6287 C   0  0  0  0  0  0  0  0  0  0  0  0
   23.4055   13.2509   10.4448 C   0  0  0  0  0  0  0  0  0  0  0  0
   22.9072   13.9938   11.6805 C   0  0  0  0  0  0  0  0  0  0  0  0
   21.9143   13.2040   12.4874 N   0  0  0  0  0  0  0  0  0  0  0  0
   28.7350   14.6817   10.6886 O   0  0  0  0  0  0  0  0  0  0  0  0
  2  1  1  6  0  0  0
  2  3  1  0  0  0  0
  2  5  1  0  0  0  0
  3  4  1  0  0  0  0
  3 10  1  0  0  0  0
  5  6  1  0  0  0  0
  6  7  1  0  0  0  0
  7  8  1  0  0  0  0
  8  9  1  0  0  0  0
M  END
>  <CHROM.1>
123.24594724,-61.56977309,176.83461990,68.76582998,177.34157237,25.72000168
14.55796407,10.40557604,0.14104769,-0.40697132,-1.85502182

>  <Name>
ligand

>  <RI>
0

>  <Rbt.Current_Directory>
/home/itssahil/PROJECTS/Mol_Feturizer/New_Systems/rnas/3DIL

>  <Rbt.Executable>
rbdock ($Id: //depot/dev/client3/rdock/2013.1/src/exe/rbdock.cxx#4 $)

>  <Rbt.Library>
libRbt.so (2013.1, Build901 2013/11/27)

>  <Rbt.Parameter_File>
/export/apps/rDock/src/rDock_2013.1_src/data/scripts/dock_solv.prm

>  <Rbt.Receptor>
prm/blind_docking_40.prm

>  <SCORE>
-6.44719

>  <SCORE.INTER>
-6.19029

>  <SCORE.INTER.CONST>
1

>  <SCORE.INTER.POLAR>
0

>  <SCORE.INTER.ROT>
5

>  <SCORE.INTER.SOLV>
8.65957

>  <SCORE.INTER.VDW>
-13.9467

>  <SCORE.INTER.norm>
-0.619029

>  <SCORE.INTRA>
-0.256902

>  <SCORE.INTRA.DIHEDRAL>
-1.0341

>  <SCORE.INTRA.DIHEDRAL.0>
2.93688

>  <SCORE.INTRA.POLAR>
0

>  <SCORE.INTRA.POLAR.0>
0

>  <SCORE.INTRA.REPUL>
0

>  <SCORE.INTRA.REPUL.0>
0

>  <SCORE.INTRA.SOLV>
-0.425254

>  <SCORE.INTRA.SOLV.lig_0>
-32.2816

>  <SCORE.INTRA.VDW>
0.472777

>  <SCORE.INTRA.VDW.0>
-0.749945

>  <SCORE.INTRA.norm>
-0.0256902

>  <SCORE.RESTR>
0

>  <SCORE.RESTR.CAVITY>
0

>  <SCORE.RESTR.norm>
0

>  <SCORE.SYSTEM>
0

>  <SCORE.SYSTEM.CONST>
0

>  <SCORE.SYSTEM.DIHEDRAL>
0

>  <SCORE.SYSTEM.SOLV>
0

>  <SCORE.SYSTEM.norm>
0

>  <SCORE.heavy>
10

>  <SCORE.norm>
-0.644719

>  <RMSD>
11.684

$$$$
ligand
 OpenBabel11021811473D
libRbt.so/2013.1/901 2013/11/27
 10  9  0  0  0  0  0  0  0  0999 V2000
   26.6644   14.2913    8.2897 N   0  0  0  0  0  0  0  0  0  0  0  0
   26.6233   15.1907    9.4814 C   0  0  2  0  0  0  0  0  0  0  0  0
   28.0272   15.6294    9.8965 C   0  0  0  0  0  0  0  0  0  0  0  0
   28.1992   16.6082   10.6209 O   0  0  0  0  0  0  0  0  0  0  0  0
   25.8689   14.5288   10.6405 C   0  0  0  0  0  0  0  0  0  0  0  0
   24.3770   14.3538   10.3587 C   0  0  0  0  0  0  0  0  0  0  0  0
   23.5982   13.9124   11.5904 C   0  0  0  0  0  0  0  0  0  0  0  0
   22.0993   13.8719   11.3098 C   0  0  0  0  0  0  0  0  0  0  0  0
   21.2839   13.4504   12.5008 N   0  0  0  0  0  0  0  0  0  0  0  0
   29.0402   15.0143    9.5506 O   0  0  0  0  0  0  0  0  0  0  0  0
  2  1  1  6  0  0  0
  2  3  1  0  0  0  0
  2  5  1  0  0  0  0
  3  4  1  0  0  0  0
  3 10  1  0  0  0  0
  5  6  1  0  0  0  0
  6  7  1  0  0  0  0
  7  8  1  0  0  0  0
  8  9  1  0  0  0  0
M  END
>  <CHROM.1>
161.75323238,-67.54804140,-170.51960182,174.75055423,-179.58351567,25.62120542
14.69972910,10.42875521,0.15550909,-0.40084070,-2.05564477

>  <Name>
ligand

>  <RI>
0

>  <Rbt.Current_Directory>
/home/itssahil/PROJECTS/Mol_Feturizer/New_Systems/rnas/3DIL

>  <Rbt.Executable>
rbdock ($Id: //depot/dev/client3/rdock/2013.1/src/exe/rbdock.cxx#4 $)

>  <Rbt.Library>
libRbt.so (2013.1, Build901 2013/11/27)

>  <Rbt.Parameter_File>
/export/apps/rDock/src/rDock_2013.1_src/data/scripts/dock_solv.prm

>  <Rbt.Receptor>
prm/blind_docking_80.prm

>  <SCORE>
-6.93789

>  <SCORE.INTER>
-6.11978

>  <SCORE.INTER.CONST>
1

>  <SCORE.INTER.POLAR>
0

>  <SCORE.INTER.ROT>
5

>  <SCORE.INTER.SOLV>
7.21801

>  <SCORE.INTER.VDW>
-13.4192

>  <SCORE.INTER.norm>
-0.611978

>  <SCORE.INTRA>
-0.818115

>  <SCORE.INTRA.DIHEDRAL>
-0.750913

>  <SCORE.INTRA.DIHEDRAL.0>
2.93688

>  <SCORE.INTRA.POLAR>
0

>  <SCORE.INTRA.POLAR.0>
0

>  <SCORE.INTRA.REPUL>
0

>  <SCORE.INTRA.REPUL.0>
0

>  <SCORE.INTRA.SOLV>
-0.729463

>  <SCORE.INTRA.SOLV.lig_0>
-32.2816

>  <SCORE.INTRA.VDW>
-0.0779274

>  <SCORE.INTRA.VDW.0>
-0.749945

>  <SCORE.INTRA.norm>
-0.0818115

>  <SCORE.RESTR>
0

>  <SCORE.RESTR.CAVITY>
0

>  <SCORE.RESTR.norm>
0

>  <SCORE.SYSTEM>
0

>  <SCORE.SYSTEM.CONST>
0

>  <SCORE.SYSTEM.DIHEDRAL>
0

>  <SCORE.SYSTEM.SOLV>
0

>  <SCORE.SYSTEM.norm>
0

>  <SCORE.heavy>
10

>  <SCORE.norm>
-0.693789

>  <RMSD>
11.688

$$$$
ligand
 OpenBabel11021811473D
libRbt.so/2013.1/901 2013/11/27
 10  9  0  0  0  0  0  0  0  0999 V2000
   27.0297   14.4427    8.2074 N   0  0  0  0  0  0  0  0  0  0  0  0
   26.6790   15.1415    9.4799 C   0  0  2  0  0  0  0  0  0  0  0  0
   27.9304   15.5051   10.2785 C   0  0  0  0  0  0  0  0  0  0  0  0
   28.2072   16.6771   10.5278 O   0  0  0  0  0  0  0  0  0  0  0  0
   25.6978   14.3059   10.3105 C   0  0  0  0  0  0  0  0  0  0  0  0
   24.3432   14.1223    9.6270 C   0  0  0  0  0  0  0  0  0  0  0  0
   23.3961   13.2454   10.4346 C   0  0  0  0  0  0  0  0  0  0  0  0
   22.9525   13.9463   11.7148 C   0  0  0  0  0  0  0  0  0  0  0  0
   21.9523   13.1530   12.5095 N   0  0  0  0  0  0  0  0  0  0  0  0
   28.6982   14.6493   10.7281 O   0  0  0  0  0  0  0  0  0  0  0  0
  2  1  1  6  0  0  0
  2  3  1  0  0  0  0
  2  5  1  0  0  0  0
  3  4  1  0  0  0  0
  3 10  1  0  0  0  0
  5  6  1  0  0  0  0
  6  7  1  0  0  0  0
  7  8  1  0  0  0  0
  8  9  1  0  0  0  0
M  END
>  <CHROM.1>
118.26420651,-64.63190014,177.71820884,68.80568227,176.65434205,25.72714896
14.53252530,10.39662019,0.16592500,-0.40745240,-1.80859994

>  <Name>
ligand

>  <RI>
0

>  <Rbt.Current_Directory>
/home/itssahil/PROJECTS/Mol_Feturizer/New_Systems/rnas/3DIL

>  <Rbt.Executable>
rbdock ($Id: //depot/dev/client3/rdock/2013.1/src/exe/rbdock.cxx#4 $)

>  <Rbt.Library>
libRbt.so (2013.1, Build901 2013/11/27)

>  <Rbt.Parameter_File>
/export/apps/rDock/src/rDock_2013.1_src/data/scripts/dock_solv.prm

>  <Rbt.Receptor>
prm/blind_docking_40.prm

>  <SCORE>
-6.45508

>  <SCORE.INTER>
-6.21373

>  <SCORE.INTER.CONST>
1

>  <SCORE.INTER.POLAR>
0

>  <SCORE.INTER.ROT>
5

>  <SCORE.INTER.SOLV>
8.77171

>  <SCORE.INTER.VDW>
-13.9997

>  <SCORE.INTER.norm>
-0.621373

>  <SCORE.INTRA>
-0.241348

>  <SCORE.INTRA.DIHEDRAL>
-0.940163

>  <SCORE.INTRA.DIHEDRAL.0>
2.93688

>  <SCORE.INTRA.POLAR>
0

>  <SCORE.INTRA.POLAR.0>
0

>  <SCORE.INTRA.REPUL>
0

>  <SCORE.INTRA.REPUL.0>
0

>  <SCORE.INTRA.SOLV>
-0.47571

>  <SCORE.INTRA.SOLV.lig_0>
-32.2816

>  <SCORE.INTRA.VDW>
0.466588

>  <SCORE.INTRA.VDW.0>
-0.749945

>  <SCORE.INTRA.norm>
-0.0241348

>  <SCORE.RESTR>
0

>  <SCORE.RESTR.CAVITY>
0

>  <SCORE.RESTR.norm>
0

>  <SCORE.SYSTEM>
0

>  <SCORE.SYSTEM.CONST>
0

>  <SCORE.SYSTEM.DIHEDRAL>
0

>  <SCORE.SYSTEM.SOLV>
0

>  <SCORE.SYSTEM.norm>
0

>  <SCORE.heavy>
10

>  <SCORE.norm>
-0.645508

>  <RMSD>
11.696

$$$$
ligand
 OpenBabel11021811473D
libRbt.so/2013.1/901 2013/11/27
 10  9  0  0  0  0  0  0  0  0999 V2000
   26.5616   14.1803    8.3152 N   0  0  0  0  0  0  0  0  0  0  0  0
   26.7834   14.9728    9.5615 C   0  0  2  0  0  0  0  0  0  0  0  0
   28.2633   15.0101    9.9416 C   0  0  0  0  0  0  0  0  0  0  0  0
   29.1145   15.4022    9.1453 O   0  0  0  0  0  0  0  0  0  0  0  0
   25.9154   14.4425   10.7088 C   0  0  0  0  0  0  0  0  0  0  0  0
   24.4263   14.4133   10.3659 C   0  0  0  0  0  0  0  0  0  0  0  0
   23.5669   13.9537   11.5358 C   0  0  0  0  0  0  0  0  0  0  0  0
   22.0821   14.0401   11.1966 C   0  0  0  0  0  0  0  0  0  0  0  0
   21.1882   13.6607   12.3446 N   0  0  0  0  0  0  0  0  0  0  0  0
   28.6659   14.6782   11.0604 O   0  0  0  0  0  0  0  0  0  0  0  0
  2  1  1  6  0  0  0
  2  3  1  0  0  0  0
  2  5  1  0  0  0  0
  3  4  1  0  0  0  0
  3 10  1  0  0  0  0
  5  6  1  0  0  0  0
  6  7  1  0  0  0  0
  7  8  1  0  0  0  0
  8  9  1  0  0  0  0
M  END
>  <CHROM.1>
55.04702612,-55.96876977,-177.03136458,175.55382607,-177.16114845,25.70238819
14.48015417,10.42169208,0.30757340,-0.16537305,-1.54665931

>  <Name>
ligand

>  <RI>
0

>  <Rbt.Current_Directory>
/home/itssahil/PROJECTS/Mol_Feturizer/New_Systems/rnas/3DIL

>  <Rbt.Executable>
rbdock ($Id: //depot/dev/client3/rdock/2013.1/src/exe/rbdock.cxx#4 $)

>  <Rbt.Library>
libRbt.so (2013.1, Build901 2013/11/27)

>  <Rbt.Parameter_File>
/export/apps/rDock/src/rDock_2013.1_src/data/scripts/dock_solv.prm

>  <Rbt.Receptor>
prm/blind_docking_40.prm

>  <SCORE>
-6.22845

>  <SCORE.INTER>
-5.91685

>  <SCORE.INTER.CONST>
1

>  <SCORE.INTER.POLAR>
0

>  <SCORE.INTER.ROT>
5

>  <SCORE.INTER.SOLV>
6.8242

>  <SCORE.INTER.VDW>
-13.1526

>  <SCORE.INTER.norm>
-0.591685

>  <SCORE.INTRA>
-0.311608

>  <SCORE.INTRA.DIHEDRAL>
-1.24202

>  <SCORE.INTRA.DIHEDRAL.0>
2.93688

>  <SCORE.INTRA.POLAR>
0

>  <SCORE.INTRA.POLAR.0>
0

>  <SCORE.INTRA.REPUL>
0

>  <SCORE.INTRA.REPUL.0>
0

>  <SCORE.INTRA.SOLV>
-0.562454

>  <SCORE.INTRA.SOLV.lig_0>
-32.2816

>  <SCORE.INTRA.VDW>
0.590629

>  <SCORE.INTRA.VDW.0>
-0.749945

>  <SCORE.INTRA.norm>
-0.0311608

>  <SCORE.RESTR>
0

>  <SCORE.RESTR.CAVITY>
0

>  <SCORE.RESTR.norm>
0

>  <SCORE.SYSTEM>
0

>  <SCORE.SYSTEM.CONST>
0

>  <SCORE.SYSTEM.DIHEDRAL>
0

>  <SCORE.SYSTEM.SOLV>
0

>  <SCORE.SYSTEM.norm>
0

>  <SCORE.heavy>
10

>  <SCORE.norm>
-0.622845

>  <RMSD>
11.707

$$$$
ligand
 OpenBabel11021811473D
libRbt.so/2013.1/901 2013/11/27
 10  9  0  0  0  0  0  0  0  0999 V2000
   25.5326   23.2743   18.2317 N   0  0  0  0  0  0  0  0  0  0  0  0
   24.4694   24.2507   18.6149 C   0  0  2  0  0  0  0  0  0  0  0  0
   24.2663   25.3072   17.5293 C   0  0  0  0  0  0  0  0  0  0  0  0
   23.5230   26.2700   17.7104 O   0  0  0  0  0  0  0  0  0  0  0  0
   24.7753   24.8864   19.9762 C   0  0  0  0  0  0  0  0  0  0  0  0
   26.0506   25.7286   19.9683 C   0  0  0  0  0  0  0  0  0  0  0  0
   26.3240   26.3864   21.3140 C   0  0  0  0  0  0  0  0  0  0  0  0
   27.6181   27.1935   21.2805 C   0  0  0  0  0  0  0  0  0  0  0  0
   27.5587   28.3713   20.3476 N   0  0  0  0  0  0  0  0  0  0  0  0
   24.8520   25.2589   16.4436 O   0  0  0  0  0  0  0  0  0  0  0  0
  2  1  1  6  0  0  0
  2  3  1  0  0  0  0
  2  5  1  0  0  0  0
  3  4  1  0  0  0  0
  3 10  1  0  0  0  0
  5  6  1  0  0  0  0
  6  7  1  0  0  0  0
  7  8  1  0  0  0  0
  8  9  1  0  0  0  0
M  END
>  <CHROM.1>
-173.20528508,64.20099353,178.40317446,178.75676202,65.18318284,25.48500468
25.71050066,19.11068233,-2.96138708,-0.98030935,-0.39941890

>  <Name>
ligand

>  <RI>
0

>  <Rbt.Current_Directory>
/home/itssahil/PROJECTS/Mol_Feturizer/New_Systems/rnas/3DIL

>  <Rbt.Executable>
rbdock ($Id: //depot/dev/client3/rdock/2013.1/src/exe/rbdock.cxx#4 $)

>  <Rbt.Library>
libRbt.so (2013.1, Build901 2013/11/27)

>  <Rbt.Parameter_File>
/export/apps/rDock/src/rDock_2013.1_src/data/scripts/dock_solv.prm

>  <Rbt.Receptor>
prm/blind_docking_60.prm

>  <SCORE>
-2.47143

>  <SCORE.INTER>
-2.26814

>  <SCORE.INTER.CONST>
1

>  <SCORE.INTER.POLAR>
0

>  <SCORE.INTER.ROT>
5

>  <SCORE.INTER.SOLV>
6.94423

>  <SCORE.INTER.VDW>
-10.7602

>  <SCORE.INTER.norm>
-0.226814

>  <SCORE.INTRA>
-0.203286

>  <SCORE.INTRA.DIHEDRAL>
-1.23576

>  <SCORE.INTRA.DIHEDRAL.0>
2.93688

>  <SCORE.INTRA.POLAR>
0

>  <SCORE.INTRA.POLAR.0>
0

>  <SCORE.INTRA.REPUL>
0

>  <SCORE.INTRA.REPUL.0>
0

>  <SCORE.INTRA.SOLV>
0.210205

>  <SCORE.INTRA.SOLV.lig_0>
-32.2816

>  <SCORE.INTRA.VDW>
0.309493

>  <SCORE.INTRA.VDW.0>
-0.749945

>  <SCORE.INTRA.norm>
-0.0203286

>  <SCORE.RESTR>
0

>  <SCORE.RESTR.CAVITY>
0

>  <SCORE.RESTR.norm>
0

>  <SCORE.SYSTEM>
0

>  <SCORE.SYSTEM.CONST>
0

>  <SCORE.SYSTEM.DIHEDRAL>
0

>  <SCORE.SYSTEM.SOLV>
0

>  <SCORE.SYSTEM.norm>
0

>  <SCORE.heavy>
10

>  <SCORE.norm>
-0.247143

>  <RMSD>
11.809

$$$$
ligand
 OpenBabel11021811473D
libRbt.so/2013.1/901 2013/11/27
 10  9  0  0  0  0  0  0  0  0999 V2000
   26.2448   14.2640    8.3446 N   0  0  0  0  0  0  0  0  0  0  0  0
   25.7181   14.5514    9.7123 C   0  0  2  0  0  0  0  0  0  0  0  0
   26.7193   14.1416   10.7919 C   0  0  0  0  0  0  0  0  0  0  0  0
   26.8972   14.8366   11.7908 O   0  0  0  0  0  0  0  0  0  0  0  0
   24.3520   13.8880    9.9231 C   0  0  0  0  0  0  0  0  0  0  0  0
   23.7377   14.2071   11.2857 C   0  0  0  0  0  0  0  0  0  0  0  0
   22.3497   13.6047   11.4557 C   0  0  0  0  0  0  0  0  0  0  0  0
   21.7392   13.9966   12.7976 C   0  0  0  0  0  0  0  0  0  0  0  0
   20.3500   13.4570   12.9976 N   0  0  0  0  0  0  0  0  0  0  0  0
   27.3688   13.0938   10.7262 O   0  0  0  0  0  0  0  0  0  0  0  0
  2  1  1  6  0  0  0
  2  3  1  0  0  0  0
  2  5  1  0  0  0  0
  3  4  1  0  0  0  0
  3 10  1  0  0  0  0
  5  6  1  0  0  0  0
  6  7  1  0  0  0  0
  7  8  1  0  0  0  0
  8  9  1  0  0  0  0
M  END
>  <CHROM.1>
140.28947207,-177.25479085,176.95598536,-177.30465199,178.38972287,24.58093837
13.99714968,11.00215643,0.40886065,-0.06640853,-1.56191351

>  <Name>
ligand

>  <RI>
0

>  <Rbt.Current_Directory>
/home/itssahil/PROJECTS/Mol_Feturizer/New_Systems/rnas/3DIL

>  <Rbt.Executable>
rbdock ($Id: //depot/dev/client3/rdock/2013.1/src/exe/rbdock.cxx#4 $)

>  <Rbt.Library>
libRbt.so (2013.1, Build901 2013/11/27)

>  <Rbt.Parameter_File>
/export/apps/rDock/src/rDock_2013.1_src/data/scripts/dock_solv.prm

>  <Rbt.Receptor>
prm/blind_docking_40.prm

>  <SCORE>
-6.82503

>  <SCORE.INTER>
-5.32009

>  <SCORE.INTER.CONST>
1

>  <SCORE.INTER.POLAR>
0

>  <SCORE.INTER.ROT>
5

>  <SCORE.INTER.SOLV>
6.23799

>  <SCORE.INTER.VDW>
-12.5594

>  <SCORE.INTER.norm>
-0.532009

>  <SCORE.INTRA>
-1.50494

>  <SCORE.INTRA.DIHEDRAL>
-1.3711

>  <SCORE.INTRA.DIHEDRAL.0>
2.93688

>  <SCORE.INTRA.POLAR>
0

>  <SCORE.INTRA.POLAR.0>
0

>  <SCORE.INTRA.REPUL>
0

>  <SCORE.INTRA.REPUL.0>
0

>  <SCORE.INTRA.SOLV>
-1.51126

>  <SCORE.INTRA.SOLV.lig_0>
-32.2816

>  <SCORE.INTRA.VDW>
-0.0637605

>  <SCORE.INTRA.VDW.0>
-0.749945

>  <SCORE.INTRA.norm>
-0.150494

>  <SCORE.RESTR>
0

>  <SCORE.RESTR.CAVITY>
0

>  <SCORE.RESTR.norm>
0

>  <SCORE.SYSTEM>
0

>  <SCORE.SYSTEM.CONST>
0

>  <SCORE.SYSTEM.DIHEDRAL>
0

>  <SCORE.SYSTEM.SOLV>
0

>  <SCORE.SYSTEM.norm>
0

>  <SCORE.heavy>
10

>  <SCORE.norm>
-0.682503

>  <RMSD>
11.856

$$$$
ligand
 OpenBabel11021811473D
libRbt.so/2013.1/901 2013/11/27
 10  9  0  0  0  0  0  0  0  0999 V2000
   26.1169   14.1122    8.3306 N   0  0  0  0  0  0  0  0  0  0  0  0
   25.5587   14.4950    9.6620 C   0  0  2  0  0  0  0  0  0  0  0  0
   26.6034   14.3455   10.7675 C   0  0  0  0  0  0  0  0  0  0  0  0
   26.6331   15.1193   11.7229 O   0  0  0  0  0  0  0  0  0  0  0  0
   24.2860   13.6977    9.9713 C   0  0  0  0  0  0  0  0  0  0  0  0
   23.5859   14.1632   11.2477 C   0  0  0  0  0  0  0  0  0  0  0  0
   22.4077   13.2753   11.6241 C   0  0  0  0  0  0  0  0  0  0  0  0
   21.6737   13.8213   12.8448 C   0  0  0  0  0  0  0  0  0  0  0  0
   20.8843   15.0676   12.5540 N   0  0  0  0  0  0  0  0  0  0  0  0
   27.4389   13.4368   10.7674 O   0  0  0  0  0  0  0  0  0  0  0  0
  2  1  1  6  0  0  0
  2  3  1  0  0  0  0
  2  5  1  0  0  0  0
  3  4  1  0  0  0  0
  3 10  1  0  0  0  0
  5  6  1  0  0  0  0
  6  7  1  0  0  0  0
  7  8  1  0  0  0  0
  8  9  1  0  0  0  0
M  END
>  <CHROM.1>
145.43016289,-173.42763472,-174.05004076,-176.07162669,71.80808514,24.55231328
14.15157970,10.96941662,0.40392621,-0.07899554,-1.77374421

>  <Name>
ligand

>  <RI>
0

>  <Rbt.Current_Directory>
/home/itssahil/PROJECTS/Mol_Feturizer/New_Systems/rnas/3DIL

>  <Rbt.Executable>
rbdock ($Id: //depot/dev/client3/rdock/2013.1/src/exe/rbdock.cxx#4 $)

>  <Rbt.Library>
libRbt.so (2013.1, Build901 2013/11/27)

>  <Rbt.Parameter_File>
/export/apps/rDock/src/rDock_2013.1_src/data/scripts/dock_solv.prm

>  <Rbt.Receptor>
prm/blind_docking_40.prm

>  <SCORE>
-5.17488

>  <SCORE.INTER>
-4.41391

>  <SCORE.INTER.CONST>
1

>  <SCORE.INTER.POLAR>
0

>  <SCORE.INTER.ROT>
5

>  <SCORE.INTER.SOLV>
8.56375

>  <SCORE.INTER.VDW>
-12.7305

>  <SCORE.INTER.norm>
-0.441391

>  <SCORE.INTRA>
-0.760972

>  <SCORE.INTRA.DIHEDRAL>
-0.603928

>  <SCORE.INTRA.DIHEDRAL.0>
2.93688

>  <SCORE.INTRA.POLAR>
0

>  <SCORE.INTRA.POLAR.0>
0

>  <SCORE.INTRA.REPUL>
0

>  <SCORE.INTRA.REPUL.0>
0

>  <SCORE.INTRA.SOLV>
-0.709867

>  <SCORE.INTRA.SOLV.lig_0>
-32.2816

>  <SCORE.INTRA.VDW>
-0.104074

>  <SCORE.INTRA.VDW.0>
-0.749945

>  <SCORE.INTRA.norm>
-0.0760972

>  <SCORE.RESTR>
0

>  <SCORE.RESTR.CAVITY>
0

>  <SCORE.RESTR.norm>
0

>  <SCORE.SYSTEM>
0

>  <SCORE.SYSTEM.CONST>
0

>  <SCORE.SYSTEM.DIHEDRAL>
0

>  <SCORE.SYSTEM.SOLV>
0

>  <SCORE.SYSTEM.norm>
0

>  <SCORE.heavy>
10

>  <SCORE.norm>
-0.517488

>  <RMSD>
11.872

$$$$
ligand
 OpenBabel11021811473D
libRbt.so/2013.1/901 2013/11/27
 10  9  0  0  0  0  0  0  0  0999 V2000
   28.2438   15.5177    9.2404 N   0  0  0  0  0  0  0  0  0  0  0  0
   26.8914   15.0738    9.6928 C   0  0  2  0  0  0  0  0  0  0  0  0
   26.9894   14.0882   10.8568 C   0  0  0  0  0  0  0  0  0  0  0  0
   27.2777   12.9078   10.6677 O   0  0  0  0  0  0  0  0  0  0  0  0
   26.0864   14.4942    8.5237 C   0  0  0  0  0  0  0  0  0  0  0  0
   24.5757   14.5827    8.7376 C   0  0  0  0  0  0  0  0  0  0  0  0
   24.0679   13.5597    9.7445 C   0  0  0  0  0  0  0  0  0  0  0  0
   23.7983   14.2066   11.0995 C   0  0  0  0  0  0  0  0  0  0  0  0
   23.1187   13.2837   12.0729 N   0  0  0  0  0  0  0  0  0  0  0  0
   26.8124   14.4319   12.0292 O   0  0  0  0  0  0  0  0  0  0  0  0
  2  1  1  6  0  0  0
  2  3  1  0  0  0  0
  2  5  1  0  0  0  0
  3  4  1  0  0  0  0
  3 10  1  0  0  0  0
  5  6  1  0  0  0  0
  6  7  1  0  0  0  0
  7  8  1  0  0  0  0
  8  9  1  0  0  0  0
M  END
>  <CHROM.1>
-78.28076955,-155.23506329,-74.67420820,102.40699383,172.08431311,25.79629982
14.19502807,10.29233235,0.38015001,-0.15323670,-1.25202462

>  <Name>
ligand

>  <RI>
0

>  <Rbt.Current_Directory>
/home/itssahil/PROJECTS/Mol_Feturizer/New_Systems/rnas/3DIL

>  <Rbt.Executable>
rbdock ($Id: //depot/dev/client3/rdock/2013.1/src/exe/rbdock.cxx#4 $)

>  <Rbt.Library>
libRbt.so (2013.1, Build901 2013/11/27)

>  <Rbt.Parameter_File>
/export/apps/rDock/src/rDock_2013.1_src/data/scripts/dock_solv.prm

>  <Rbt.Receptor>
prm/blind_docking_40.prm

>  <SCORE>
-2.27877

>  <SCORE.INTER>
-4.61713

>  <SCORE.INTER.CONST>
1

>  <SCORE.INTER.POLAR>
0

>  <SCORE.INTER.ROT>
5

>  <SCORE.INTER.SOLV>
12.9848

>  <SCORE.INTER.VDW>
-14.3397

>  <SCORE.INTER.norm>
-0.461713

>  <SCORE.INTRA>
2.33836

>  <SCORE.INTRA.DIHEDRAL>
6.57947

>  <SCORE.INTRA.DIHEDRAL.0>
2.93688

>  <SCORE.INTRA.POLAR>
0

>  <SCORE.INTRA.POLAR.0>
0

>  <SCORE.INTRA.REPUL>
0

>  <SCORE.INTRA.REPUL.0>
0

>  <SCORE.INTRA.SOLV>
-1.25394

>  <SCORE.INTRA.SOLV.lig_0>
-32.2816

>  <SCORE.INTRA.VDW>
-0.324408

>  <SCORE.INTRA.VDW.0>
-0.749945

>  <SCORE.INTRA.norm>
0.233836

>  <SCORE.RESTR>
0

>  <SCORE.RESTR.CAVITY>
0

>  <SCORE.RESTR.norm>
0

>  <SCORE.SYSTEM>
0

>  <SCORE.SYSTEM.CONST>
0

>  <SCORE.SYSTEM.DIHEDRAL>
0

>  <SCORE.SYSTEM.SOLV>
0

>  <SCORE.SYSTEM.norm>
0

>  <SCORE.heavy>
10

>  <SCORE.norm>
-0.227877

>  <RMSD>
11.889

$$$$
ligand
 OpenBabel11021811473D
libRbt.so/2013.1/901 2013/11/27
 10  9  0  0  0  0  0  0  0  0999 V2000
   25.8580   23.9068   16.5383 N   0  0  0  0  0  0  0  0  0  0  0  0
   25.0612   24.5791   17.6078 C   0  0  2  0  0  0  0  0  0  0  0  0
   24.3330   25.8100   17.0689 C   0  0  0  0  0  0  0  0  0  0  0  0
   23.3874   26.3068   17.6784 O   0  0  0  0  0  0  0  0  0  0  0  0
   25.9441   24.9235   18.8131 C   0  0  0  0  0  0  0  0  0  0  0  0
   25.1464   25.4485   20.0063 C   0  0  0  0  0  0  0  0  0  0  0  0
   26.0393   26.0172   21.1006 C   0  0  0  0  0  0  0  0  0  0  0  0
   26.6665   27.3392   20.6690 C   0  0  0  0  0  0  0  0  0  0  0  0
   27.4585   28.0044   21.7604 N   0  0  0  0  0  0  0  0  0  0  0  0
   24.6723   26.3726   16.0237 O   0  0  0  0  0  0  0  0  0  0  0  0
  2  1  1  6  0  0  0
  2  3  1  0  0  0  0
  2  5  1  0  0  0  0
  3  4  1  0  0  0  0
  3 10  1  0  0  0  0
  5  6  1  0  0  0  0
  6  7  1  0  0  0  0
  7  8  1  0  0  0  0
  8  9  1  0  0  0  0
M  END
>  <CHROM.1>
162.09766529,-172.58955556,-169.82324312,71.28742761,174.78478746,25.43531131
25.89398245,18.70574555,-2.24327322,-0.88897340,0.63810246

>  <Name>
ligand

>  <RI>
0

>  <Rbt.Current_Directory>
/home/itssahil/PROJECTS/Mol_Feturizer/New_Systems/rnas/3DIL

>  <Rbt.Executable>
rbdock ($Id: //depot/dev/client3/rdock/2013.1/src/exe/rbdock.cxx#4 $)

>  <Rbt.Library>
libRbt.so (2013.1, Build901 2013/11/27)

>  <Rbt.Parameter_File>
/export/apps/rDock/src/rDock_2013.1_src/data/scripts/dock_solv.prm

>  <Rbt.Receptor>
prm/blind_docking_80.prm

>  <SCORE>
-1.33808

>  <SCORE.INTER>
-1.00959

>  <SCORE.INTER.CONST>
1

>  <SCORE.INTER.POLAR>
0

>  <SCORE.INTER.ROT>
5

>  <SCORE.INTER.SOLV>
5.47004

>  <SCORE.INTER.VDW>
-9.42974

>  <SCORE.INTER.norm>
-0.100959

>  <SCORE.INTRA>
-0.328492

>  <SCORE.INTRA.DIHEDRAL>
-0.232513

>  <SCORE.INTRA.DIHEDRAL.0>
2.93688

>  <SCORE.INTRA.POLAR>
0

>  <SCORE.INTRA.POLAR.0>
0

>  <SCORE.INTRA.REPUL>
0

>  <SCORE.INTRA.REPUL.0>
0

>  <SCORE.INTRA.SOLV>
-1.33476

>  <SCORE.INTRA.SOLV.lig_0>
-32.2816

>  <SCORE.INTRA.VDW>
0.455147

>  <SCORE.INTRA.VDW.0>
-0.749945

>  <SCORE.INTRA.norm>
-0.0328492

>  <SCORE.RESTR>
0

>  <SCORE.RESTR.CAVITY>
0

>  <SCORE.RESTR.norm>
0

>  <SCORE.SYSTEM>
0

>  <SCORE.SYSTEM.CONST>
0

>  <SCORE.SYSTEM.DIHEDRAL>
0

>  <SCORE.SYSTEM.SOLV>
0

>  <SCORE.SYSTEM.norm>
0

>  <SCORE.heavy>
10

>  <SCORE.norm>
-0.133808

>  <RMSD>
11.973

$$$$
ligand
 OpenBabel11021811473D
libRbt.so/2013.1/901 2013/11/27
 10  9  0  0  0  0  0  0  0  0999 V2000
   28.0157   15.0032   12.0840 N   0  0  0  0  0  0  0  0  0  0  0  0
   27.7511   14.6268   10.6632 C   0  0  2  0  0  0  0  0  0  0  0  0
   28.2407   15.7081    9.7003 C   0  0  0  0  0  0  0  0  0  0  0  0
   27.9852   16.8952    9.8944 O   0  0  0  0  0  0  0  0  0  0  0  0
   26.2672   14.3054   10.4495 C   0  0  0  0  0  0  0  0  0  0  0  0
   25.9740   13.7351    9.0622 C   0  0  0  0  0  0  0  0  0  0  0  0
   25.7959   14.8215    8.0104 C   0  0  0  0  0  0  0  0  0  0  0  0
   25.6738   14.2215    6.6132 C   0  0  0  0  0  0  0  0  0  0  0  0
   26.9501   13.5958    6.1226 N   0  0  0  0  0  0  0  0  0  0  0  0
   28.9296   15.4469    8.7098 O   0  0  0  0  0  0  0  0  0  0  0  0
  2  1  1  1  0  0  0
  2  3  1  0  0  0  0
  2  5  1  0  0  0  0
  3  4  1  0  0  0  0
  3 10  1  0  0  0  0
  5  6  1  0  0  0  0
  6  7  1  0  0  0  0
  7  8  1  0  0  0  0
  8  9  1  0  0  0  0
M  END
>  <CHROM.1>
-46.87246863,-172.31090420,-83.94221310,173.11552329,-68.54255412,27.17488271
14.86245814,9.11666634,1.04063567,0.66700783,1.56912689

>  <Name>
ligand

>  <RI>
0

>  <Rbt.Current_Directory>
/home/itssahil/PROJECTS/Mol_Feturizer/New_Systems/rnas/3DIL

>  <Rbt.Executable>
rbdock ($Id: //depot/dev/client3/rdock/2013.1/src/exe/rbdock.cxx#4 $)

>  <Rbt.Library>
libRbt.so (2013.1, Build901 2013/11/27)

>  <Rbt.Parameter_File>
/export/apps/rDock/src/rDock_2013.1_src/data/scripts/dock_solv.prm

>  <Rbt.Receptor>
prm/blind_docking_40.prm

>  <SCORE>
-5.94646

>  <SCORE.INTER>
-6.13863

>  <SCORE.INTER.CONST>
1

>  <SCORE.INTER.POLAR>
0

>  <SCORE.INTER.ROT>
5

>  <SCORE.INTER.SOLV>
12.223

>  <SCORE.INTER.VDW>
-15.1001

>  <SCORE.INTER.norm>
-0.613863

>  <SCORE.INTRA>
0.186594

>  <SCORE.INTRA.DIHEDRAL>
1.38848

>  <SCORE.INTRA.DIHEDRAL.0>
2.93688

>  <SCORE.INTRA.POLAR>
0

>  <SCORE.INTRA.POLAR.0>
0

>  <SCORE.INTRA.REPUL>
0

>  <SCORE.INTRA.REPUL.0>
0

>  <SCORE.INTRA.SOLV>
-0.4114

>  <SCORE.INTRA.SOLV.lig_0>
-32.2816

>  <SCORE.INTRA.VDW>
-0.301948

>  <SCORE.INTRA.VDW.0>
-0.749945

>  <SCORE.INTRA.norm>
0.0186594

>  <SCORE.RESTR>
0.00556875

>  <SCORE.RESTR.CAVITY>
0.00556875

>  <SCORE.RESTR.norm>
0.000556875

>  <SCORE.SYSTEM>
0

>  <SCORE.SYSTEM.CONST>
0

>  <SCORE.SYSTEM.DIHEDRAL>
0

>  <SCORE.SYSTEM.SOLV>
0

>  <SCORE.SYSTEM.norm>
0

>  <SCORE.heavy>
10

>  <SCORE.norm>
-0.594646

>  <RMSD>
12.424

$$$$
ligand
 OpenBabel11021811473D
libRbt.so/2013.1/901 2013/11/27
 10  9  0  0  0  0  0  0  0  0999 V2000
   25.9741   13.2828    7.8650 N   0  0  0  0  0  0  0  0  0  0  0  0
   25.8372   14.6910    8.3434 C   0  0  2  0  0  0  0  0  0  0  0  0
   26.8882   15.0240    9.4019 C   0  0  0  0  0  0  0  0  0  0  0  0
   27.1874   14.2141   10.2776 O   0  0  0  0  0  0  0  0  0  0  0  0
   24.4154   14.9611    8.8497 C   0  0  0  0  0  0  0  0  0  0  0  0
   24.0964   14.2272   10.1519 C   0  0  0  0  0  0  0  0  0  0  0  0
   22.6552   14.4313   10.5988 C   0  0  0  0  0  0  0  0  0  0  0  0
   22.4569   13.9816   12.0429 C   0  0  0  0  0  0  0  0  0  0  0  0
   22.8054   12.5361   12.2673 N   0  0  0  0  0  0  0  0  0  0  0  0
   27.4978   16.0975    9.4117 O   0  0  0  0  0  0  0  0  0  0  0  0
  2  1  1  1  0  0  0
  2  3  1  0  0  0  0
  2  5  1  0  0  0  0
  3  4  1  0  0  0  0
  3 10  1  0  0  0  0
  5  6  1  0  0  0  0
  6  7  1  0  0  0  0
  7  8  1  0  0  0  0
  8  9  1  0  0  0  0
M  END
>  <CHROM.1>
-40.79400633,69.58560331,-176.36099604,-166.31006836,-58.55207899,25.01421844
14.35557884,9.93751852,0.53473172,-0.30263590,-1.55253698

>  <Name>
ligand

>  <RI>
0

>  <Rbt.Current_Directory>
/home/itssahil/PROJECTS/Mol_Feturizer/New_Systems/rnas/3DIL

>  <Rbt.Executable>
rbdock ($Id: //depot/dev/client3/rdock/2013.1/src/exe/rbdock.cxx#4 $)

>  <Rbt.Library>
libRbt.so (2013.1, Build901 2013/11/27)

>  <Rbt.Parameter_File>
/export/apps/rDock/src/rDock_2013.1_src/data/scripts/dock_solv.prm

>  <Rbt.Receptor>
prm/blind_docking_80.prm

>  <SCORE>
-2.48731

>  <SCORE.INTER>
-2.70404

>  <SCORE.INTER.CONST>
1

>  <SCORE.INTER.POLAR>
0

>  <SCORE.INTER.ROT>
5

>  <SCORE.INTER.SOLV>
12.0511

>  <SCORE.INTER.VDW>
-12.7531

>  <SCORE.INTER.norm>
-0.270404

>  <SCORE.INTRA>
0.216731

>  <SCORE.INTRA.DIHEDRAL>
-0.23611

>  <SCORE.INTRA.DIHEDRAL.0>
2.93688

>  <SCORE.INTRA.POLAR>
0

>  <SCORE.INTRA.POLAR.0>
0

>  <SCORE.INTRA.REPUL>
0

>  <SCORE.INTRA.REPUL.0>
0

>  <SCORE.INTRA.SOLV>
0.210355

>  <SCORE.INTRA.SOLV.lig_0>
-32.2816

>  <SCORE.INTRA.VDW>
0.229609

>  <SCORE.INTRA.VDW.0>
-0.749945

>  <SCORE.INTRA.norm>
0.0216731

>  <SCORE.RESTR>
0

>  <SCORE.RESTR.CAVITY>
0

>  <SCORE.RESTR.norm>
0

>  <SCORE.SYSTEM>
0

>  <SCORE.SYSTEM.CONST>
0

>  <SCORE.SYSTEM.DIHEDRAL>
0

>  <SCORE.SYSTEM.SOLV>
0

>  <SCORE.SYSTEM.norm>
0

>  <SCORE.heavy>
10

>  <SCORE.norm>
-0.248731

>  <RMSD>
12.515

$$$$
ligand
 OpenBabel11021811473D
libRbt.so/2013.1/901 2013/11/27
 10  9  0  0  0  0  0  0  0  0999 V2000
   25.3902    6.6453   26.6104 N   0  0  0  0  0  0  0  0  0  0  0  0
   26.7050    6.2346   27.1877 C   0  0  2  0  0  0  0  0  0  0  0  0
   26.5924    4.9105   27.9426 C   0  0  0  0  0  0  0  0  0  0  0  0
   27.5866    4.2254   28.1763 O   0  0  0  0  0  0  0  0  0  0  0  0
   27.2853    7.3450   28.0715 C   0  0  0  0  0  0  0  0  0  0  0  0
   27.7704    8.5529   27.2705 C   0  0  0  0  0  0  0  0  0  0  0  0
   28.3543    9.6446   28.1567 C   0  0  0  0  0  0  0  0  0  0  0  0
   28.9389   10.7792   27.3212 C   0  0  0  0  0  0  0  0  0  0  0  0
   29.6091   11.8409   28.1486 N   0  0  0  0  0  0  0  0  0  0  0  0
   25.5159    4.4848   28.3714 O   0  0  0  0  0  0  0  0  0  0  0  0
  2  1  1  1  0  0  0
  2  3  1  0  0  0  0
  2  5  1  0  0  0  0
  3  4  1  0  0  0  0
  3 10  1  0  0  0  0
  5  6  1  0  0  0  0
  6  7  1  0  0  0  0
  7  8  1  0  0  0  0
  8  9  1  0  0  0  0
M  END
>  <CHROM.1>
160.18503142,-71.01994388,-179.55917008,175.02323544,-176.22265200,27.36772795
7.42411864,27.74185098,2.05704381,0.50607036,2.87546237

>  <Name>
ligand

>  <RI>
0

>  <Rbt.Current_Directory>
/home/itssahil/PROJECTS/Mol_Feturizer/New_Systems/rnas/3DIL

>  <Rbt.Executable>
rbdock ($Id: //depot/dev/client3/rdock/2013.1/src/exe/rbdock.cxx#4 $)

>  <Rbt.Library>
libRbt.so (2013.1, Build901 2013/11/27)

>  <Rbt.Parameter_File>
/export/apps/rDock/src/rDock_2013.1_src/data/scripts/dock_solv.prm

>  <Rbt.Receptor>
prm/blind_docking_80.prm

>  <SCORE>
-5.20528

>  <SCORE.INTER>
-4.30904

>  <SCORE.INTER.CONST>
1

>  <SCORE.INTER.POLAR>
0

>  <SCORE.INTER.ROT>
5

>  <SCORE.INTER.SOLV>
8.79119

>  <SCORE.INTER.VDW>
-12.7364

>  <SCORE.INTER.norm>
-0.430904

>  <SCORE.INTRA>
-0.896231

>  <SCORE.INTRA.DIHEDRAL>
-0.8291

>  <SCORE.INTRA.DIHEDRAL.0>
2.93688

>  <SCORE.INTRA.POLAR>
0

>  <SCORE.INTRA.POLAR.0>
0

>  <SCORE.INTRA.REPUL>
0

>  <SCORE.INTRA.REPUL.0>
0

>  <SCORE.INTRA.SOLV>
-0.737741

>  <SCORE.INTRA.SOLV.lig_0>
-32.2816

>  <SCORE.INTRA.VDW>
-0.112811

>  <SCORE.INTRA.VDW.0>
-0.749945

>  <SCORE.INTRA.norm>
-0.0896231

>  <SCORE.RESTR>
0

>  <SCORE.RESTR.CAVITY>
0

>  <SCORE.RESTR.norm>
0

>  <SCORE.SYSTEM>
0

>  <SCORE.SYSTEM.CONST>
0

>  <SCORE.SYSTEM.DIHEDRAL>
0

>  <SCORE.SYSTEM.SOLV>
0

>  <SCORE.SYSTEM.norm>
0

>  <SCORE.heavy>
10

>  <SCORE.norm>
-0.520528

>  <RMSD>
12.773

$$$$
ligand
 OpenBabel11021811473D
libRbt.so/2013.1/901 2013/11/27
 10  9  0  0  0  0  0  0  0  0999 V2000
   24.5951   13.7957    8.5664 N   0  0  0  0  0  0  0  0  0  0  0  0
   24.4639   13.6685   10.0487 C   0  0  2  0  0  0  0  0  0  0  0  0
   23.0710   14.0829   10.5219 C   0  0  0  0  0  0  0  0  0  0  0  0
   22.5389   15.1116   10.1083 O   0  0  0  0  0  0  0  0  0  0  0  0
   25.5657   14.4581   10.7652 C   0  0  0  0  0  0  0  0  0  0  0  0
   26.9514   13.8358   10.5969 C   0  0  0  0  0  0  0  0  0  0  0  0
   28.0595   14.7193   11.1535 C   0  0  0  0  0  0  0  0  0  0  0  0
   28.2593   15.9620   10.2915 C   0  0  0  0  0  0  0  0  0  0  0  0
   28.7240   15.6477    8.8964 N   0  0  0  0  0  0  0  0  0  0  0  0
   22.4116   13.3996   11.3108 O   0  0  0  0  0  0  0  0  0  0  0  0
  2  1  1  6  0  0  0
  2  3  1  0  0  0  0
  2  5  1  0  0  0  0
  3  4  1  0  0  0  0
  3 10  1  0  0  0  0
  5  6  1  0  0  0  0
  6  7  1  0  0  0  0
  7  8  1  0  0  0  0
  8  9  1  0  0  0  0
M  END
>  <CHROM.1>
-45.84468665,-70.04096822,172.47676797,-70.37797587,-63.81190120,25.42147708
14.47331347,10.23694588,2.99984104,0.19235072,1.88406654

>  <Name>
ligand

>  <RI>
0

>  <Rbt.Current_Directory>
/home/itssahil/PROJECTS/Mol_Feturizer/New_Systems/rnas/3DIL

>  <Rbt.Executable>
rbdock ($Id: //depot/dev/client3/rdock/2013.1/src/exe/rbdock.cxx#4 $)

>  <Rbt.Library>
libRbt.so (2013.1, Build901 2013/11/27)

>  <Rbt.Parameter_File>
/export/apps/rDock/src/rDock_2013.1_src/data/scripts/dock_solv.prm

>  <Rbt.Receptor>
prm/blind_docking_80.prm

>  <SCORE>
-5.2502

>  <SCORE.INTER>
-5.81607

>  <SCORE.INTER.CONST>
1

>  <SCORE.INTER.POLAR>
0

>  <SCORE.INTER.ROT>
5

>  <SCORE.INTER.SOLV>
14.1605

>  <SCORE.INTER.VDW>
-15.5309

>  <SCORE.INTER.norm>
-0.581607

>  <SCORE.INTRA>
0.565878

>  <SCORE.INTRA.DIHEDRAL>
-0.253992

>  <SCORE.INTRA.DIHEDRAL.0>
2.93688

>  <SCORE.INTRA.POLAR>
0

>  <SCORE.INTRA.POLAR.0>
0

>  <SCORE.INTRA.REPUL>
0

>  <SCORE.INTRA.REPUL.0>
0

>  <SCORE.INTRA.SOLV>
0.769874

>  <SCORE.INTRA.SOLV.lig_0>
-32.2816

>  <SCORE.INTRA.VDW>
0.307936

>  <SCORE.INTRA.VDW.0>
-0.749945

>  <SCORE.INTRA.norm>
0.0565878

>  <SCORE.RESTR>
0

>  <SCORE.RESTR.CAVITY>
0

>  <SCORE.RESTR.norm>
0

>  <SCORE.SYSTEM>
0

>  <SCORE.SYSTEM.CONST>
0

>  <SCORE.SYSTEM.DIHEDRAL>
0

>  <SCORE.SYSTEM.SOLV>
0

>  <SCORE.SYSTEM.norm>
0

>  <SCORE.heavy>
10

>  <SCORE.norm>
-0.52502

>  <RMSD>
12.839

$$$$
ligand
 OpenBabel11021811473D
libRbt.so/2013.1/901 2013/11/27
 10  9  0  0  0  0  0  0  0  0999 V2000
   23.7812   14.8525    8.9023 N   0  0  0  0  0  0  0  0  0  0  0  0
   23.7251   14.0192   10.1405 C   0  0  2  0  0  0  0  0  0  0  0  0
   22.3388   14.0680   10.7821 C   0  0  0  0  0  0  0  0  0  0  0  0
   22.0124   13.2628   11.6524 O   0  0  0  0  0  0  0  0  0  0  0  0
   24.8231   14.4320   11.1280 C   0  0  0  0  0  0  0  0  0  0  0  0
   26.2308   14.2812   10.5522 C   0  0  0  0  0  0  0  0  0  0  0  0
   27.3059   14.8046   11.4947 C   0  0  0  0  0  0  0  0  0  0  0  0
   28.6938   14.6730   10.8752 C   0  0  0  0  0  0  0  0  0  0  0  0
   28.8443   15.4374    9.5892 N   0  0  0  0  0  0  0  0  0  0  0  0
   21.5016   14.9235   10.4802 O   0  0  0  0  0  0  0  0  0  0  0  0
  2  1  1  6  0  0  0
  2  3  1  0  0  0  0
  2  5  1  0  0  0  0
  3  4  1  0  0  0  0
  3 10  1  0  0  0  0
  5  6  1  0  0  0  0
  6  7  1  0  0  0  0
  7  8  1  0  0  0  0
  8  9  1  0  0  0  0
M  END
>  <CHROM.1>
166.04445744,-59.91324985,175.09830691,-178.50449130,60.13955769,24.88224814
14.47362436,10.57404844,3.05596824,0.09982861,2.00947523

>  <Name>
ligand

>  <RI>
0

>  <Rbt.Current_Directory>
/home/itssahil/PROJECTS/Mol_Feturizer/New_Systems/rnas/3DIL

>  <Rbt.Executable>
rbdock ($Id: //depot/dev/client3/rdock/2013.1/src/exe/rbdock.cxx#4 $)

>  <Rbt.Library>
libRbt.so (2013.1, Build901 2013/11/27)

>  <Rbt.Parameter_File>
/export/apps/rDock/src/rDock_2013.1_src/data/scripts/dock_solv.prm

>  <Rbt.Receptor>
prm/blind_docking_40.prm

>  <SCORE>
-4.65643

>  <SCORE.INTER>
-4.30083

>  <SCORE.INTER.CONST>
1

>  <SCORE.INTER.POLAR>
0

>  <SCORE.INTER.ROT>
5

>  <SCORE.INTER.SOLV>
13.9121

>  <SCORE.INTER.VDW>
-14.4379

>  <SCORE.INTER.norm>
-0.430083

>  <SCORE.INTRA>
-0.355602

>  <SCORE.INTRA.DIHEDRAL>
-1.35783

>  <SCORE.INTRA.DIHEDRAL.0>
2.93688

>  <SCORE.INTRA.POLAR>
0

>  <SCORE.INTRA.POLAR.0>
0

>  <SCORE.INTRA.REPUL>
0

>  <SCORE.INTRA.REPUL.0>
0

>  <SCORE.INTRA.SOLV>
0.388548

>  <SCORE.INTRA.SOLV.lig_0>
-32.2816

>  <SCORE.INTRA.VDW>
0.129037

>  <SCORE.INTRA.VDW.0>
-0.749945

>  <SCORE.INTRA.norm>
-0.0355602

>  <SCORE.RESTR>
0

>  <SCORE.RESTR.CAVITY>
0

>  <SCORE.RESTR.norm>
0

>  <SCORE.SYSTEM>
0

>  <SCORE.SYSTEM.CONST>
0

>  <SCORE.SYSTEM.DIHEDRAL>
0

>  <SCORE.SYSTEM.SOLV>
0

>  <SCORE.SYSTEM.norm>
0

>  <SCORE.heavy>
10

>  <SCORE.norm>
-0.465643

>  <RMSD>
12.879

$$$$
ligand
 OpenBabel11021811473D
libRbt.so/2013.1/901 2013/11/27
 10  9  0  0  0  0  0  0  0  0999 V2000
   27.2190   14.9771    9.8255 N   0  0  0  0  0  0  0  0  0  0  0  0
   25.9338   14.3815    9.3520 C   0  0  2  0  0  0  0  0  0  0  0  0
   25.4265   15.0818    8.0918 C   0  0  0  0  0  0  0  0  0  0  0  0
   25.1865   16.2880    8.0877 O   0  0  0  0  0  0  0  0  0  0  0  0
   24.8829   14.3894   10.4685 C   0  0  0  0  0  0  0  0  0  0  0  0
   23.5657   13.7353   10.0527 C   0  0  0  0  0  0  0  0  0  0  0  0
   22.4719   13.9103   11.0972 C   0  0  0  0  0  0  0  0  0  0  0  0
   22.7383   13.0449   12.3249 C   0  0  0  0  0  0  0  0  0  0  0  0
   21.6021   13.0464   13.3098 N   0  0  0  0  0  0  0  0  0  0  0  0
   25.2615   14.4829    7.0250 O   0  0  0  0  0  0  0  0  0  0  0  0
  2  1  1  1  0  0  0
  2  3  1  0  0  0  0
  2  5  1  0  0  0  0
  3  4  1  0  0  0  0
  3 10  1  0  0  0  0
  5  6  1  0  0  0  0
  6  7  1  0  0  0  0
  7  8  1  0  0  0  0
  8  9  1  0  0  0  0
M  END
>  <CHROM.1>
-59.01469898,-177.55065137,-172.41889730,-72.06248641,-172.65752706,24.42606006
14.35222067,9.92688345,-0.90111755,0.19586418,1.84411258

>  <Name>
ligand

>  <RI>
0

>  <Rbt.Current_Directory>
/home/itssahil/PROJECTS/Mol_Feturizer/New_Systems/rnas/3DIL

>  <Rbt.Executable>
rbdock ($Id: //depot/dev/client3/rdock/2013.1/src/exe/rbdock.cxx#4 $)

>  <Rbt.Library>
libRbt.so (2013.1, Build901 2013/11/27)

>  <Rbt.Parameter_File>
/export/apps/rDock/src/rDock_2013.1_src/data/scripts/dock_solv.prm

>  <Rbt.Receptor>
prm/blind_docking_60.prm

>  <SCORE>
-5.07955

>  <SCORE.INTER>
-4.63246

>  <SCORE.INTER.CONST>
1

>  <SCORE.INTER.POLAR>
0

>  <SCORE.INTER.ROT>
5

>  <SCORE.INTER.SOLV>
7.99431

>  <SCORE.INTER.VDW>
-12.6864

>  <SCORE.INTER.norm>
-0.463246

>  <SCORE.INTRA>
-0.447094

>  <SCORE.INTRA.DIHEDRAL>
-0.382057

>  <SCORE.INTRA.DIHEDRAL.0>
2.93688

>  <SCORE.INTRA.POLAR>
0

>  <SCORE.INTRA.POLAR.0>
0

>  <SCORE.INTRA.REPUL>
0

>  <SCORE.INTRA.REPUL.0>
0

>  <SCORE.INTRA.SOLV>
-1.36159

>  <SCORE.INTRA.SOLV.lig_0>
-32.2816

>  <SCORE.INTRA.VDW>
0.424731

>  <SCORE.INTRA.VDW.0>
-0.749945

>  <SCORE.INTRA.norm>
-0.0447094

>  <SCORE.RESTR>
0

>  <SCORE.RESTR.CAVITY>
0

>  <SCORE.RESTR.norm>
0

>  <SCORE.SYSTEM>
0

>  <SCORE.SYSTEM.CONST>
0

>  <SCORE.SYSTEM.DIHEDRAL>
0

>  <SCORE.SYSTEM.SOLV>
0

>  <SCORE.SYSTEM.norm>
0

>  <SCORE.heavy>
10

>  <SCORE.norm>
-0.507955

>  <RMSD>
12.895

$$$$
ligand
 OpenBabel11021811473D
libRbt.so/2013.1/901 2013/11/27
 10  9  0  0  0  0  0  0  0  0999 V2000
   23.9618   15.0867    8.4740 N   0  0  0  0  0  0  0  0  0  0  0  0
   23.8373   13.9071    9.3815 C   0  0  2  0  0  0  0  0  0  0  0  0
   22.9553   14.2241   10.5888 C   0  0  0  0  0  0  0  0  0  0  0  0
   23.1310   13.6634   11.6692 O   0  0  0  0  0  0  0  0  0  0  0  0
   25.2188   13.3951    9.8059 C   0  0  0  0  0  0  0  0  0  0  0  0
   26.0786   14.4738   10.4640 C   0  0  0  0  0  0  0  0  0  0  0  0
   27.5050   14.0073   10.7206 C   0  0  0  0  0  0  0  0  0  0  0  0
   28.4358   15.1902   10.9686 C   0  0  0  0  0  0  0  0  0  0  0  0
   28.4881   16.1556    9.8169 N   0  0  0  0  0  0  0  0  0  0  0  0
   22.0540   15.0666   10.5446 O   0  0  0  0  0  0  0  0  0  0  0  0
  2  1  1  1  0  0  0
  2  3  1  0  0  0  0
  2  5  1  0  0  0  0
  3  4  1  0  0  0  0
  3 10  1  0  0  0  0
  5  6  1  0  0  0  0
  6  7  1  0  0  0  0
  7  8  1  0  0  0  0
  8  9  1  0  0  0  0
M  END
>  <CHROM.1>
-150.47854710,55.91483868,-172.72273280,162.64885670,-59.42357723,25.13538316
14.52099019,10.26908865,3.06646080,0.13268097,2.10906691

>  <Name>
ligand

>  <RI>
0

>  <Rbt.Current_Directory>
/home/itssahil/PROJECTS/Mol_Feturizer/New_Systems/rnas/3DIL

>  <Rbt.Executable>
rbdock ($Id: //depot/dev/client3/rdock/2013.1/src/exe/rbdock.cxx#4 $)

>  <Rbt.Library>
libRbt.so (2013.1, Build901 2013/11/27)

>  <Rbt.Parameter_File>
/export/apps/rDock/src/rDock_2013.1_src/data/scripts/dock_solv.prm

>  <Rbt.Receptor>
prm/blind_docking_40.prm

>  <SCORE>
-2.44827

>  <SCORE.INTER>
-3.40431

>  <SCORE.INTER.CONST>
1

>  <SCORE.INTER.POLAR>
0

>  <SCORE.INTER.ROT>
5

>  <SCORE.INTER.SOLV>
14.9293

>  <SCORE.INTER.VDW>
-14.1793

>  <SCORE.INTER.norm>
-0.340431

>  <SCORE.INTRA>
0.956035

>  <SCORE.INTRA.DIHEDRAL>
0.100251

>  <SCORE.INTRA.DIHEDRAL.0>
2.93688

>  <SCORE.INTRA.POLAR>
0

>  <SCORE.INTRA.POLAR.0>
0

>  <SCORE.INTRA.REPUL>
0

>  <SCORE.INTRA.REPUL.0>
0

>  <SCORE.INTRA.SOLV>
0.561243

>  <SCORE.INTRA.SOLV.lig_0>
-32.2816

>  <SCORE.INTRA.VDW>
0.625288

>  <SCORE.INTRA.VDW.0>
-0.749945

>  <SCORE.INTRA.norm>
0.0956035

>  <SCORE.RESTR>
0

>  <SCORE.RESTR.CAVITY>
0

>  <SCORE.RESTR.norm>
0

>  <SCORE.SYSTEM>
0

>  <SCORE.SYSTEM.CONST>
0

>  <SCORE.SYSTEM.DIHEDRAL>
0

>  <SCORE.SYSTEM.SOLV>
0

>  <SCORE.SYSTEM.norm>
0

>  <SCORE.heavy>
10

>  <SCORE.norm>
-0.244827

>  <RMSD>
12.913

$$$$
ligand
 OpenBabel11021811473D
libRbt.so/2013.1/901 2013/11/27
 10  9  0  0  0  0  0  0  0  0999 V2000
   26.4276   14.1949   10.6737 N   0  0  0  0  0  0  0  0  0  0  0  0
   25.5761   13.5124    9.6539 C   0  0  2  0  0  0  0  0  0  0  0  0
   26.1471   13.6844    8.2467 C   0  0  0  0  0  0  0  0  0  0  0  0
   25.6825   13.0641    7.2919 O   0  0  0  0  0  0  0  0  0  0  0  0
   24.1240   13.9967    9.7410 C   0  0  0  0  0  0  0  0  0  0  0  0
   23.4612   13.6580   11.0759 C   0  0  0  0  0  0  0  0  0  0  0  0
   22.0027   14.0918   11.1299 C   0  0  0  0  0  0  0  0  0  0  0  0
   21.3683   13.7273   12.4686 C   0  0  0  0  0  0  0  0  0  0  0  0
   19.9101   14.0848   12.5510 N   0  0  0  0  0  0  0  0  0  0  0  0
   27.0720   14.4641    8.0005 O   0  0  0  0  0  0  0  0  0  0  0  0
  2  1  1  1  0  0  0
  2  3  1  0  0  0  0
  2  5  1  0  0  0  0
  3  4  1  0  0  0  0
  3 10  1  0  0  0  0
  5  6  1  0  0  0  0
  6  7  1  0  0  0  0
  7  8  1  0  0  0  0
  8  9  1  0  0  0  0
M  END
>  <CHROM.1>
171.14431183,-63.24772788,-177.61684854,179.45066876,-177.63944067,24.20083261
13.85016686,10.04403877,-0.61441633,0.13533052,1.35093666

>  <Name>
ligand

>  <RI>
0

>  <Rbt.Current_Directory>
/home/itssahil/PROJECTS/Mol_Feturizer/New_Systems/rnas/3DIL

>  <Rbt.Executable>
rbdock ($Id: //depot/dev/client3/rdock/2013.1/src/exe/rbdock.cxx#4 $)

>  <Rbt.Library>
libRbt.so (2013.1, Build901 2013/11/27)

>  <Rbt.Parameter_File>
/export/apps/rDock/src/rDock_2013.1_src/data/scripts/dock_solv.prm

>  <Rbt.Receptor>
prm/blind_docking_40.prm

>  <SCORE>
-4.4835

>  <SCORE.INTER>
-3.50964

>  <SCORE.INTER.CONST>
1

>  <SCORE.INTER.POLAR>
0

>  <SCORE.INTER.ROT>
5

>  <SCORE.INTER.SOLV>
6.50536

>  <SCORE.INTER.VDW>
-11.4415

>  <SCORE.INTER.norm>
-0.350964

>  <SCORE.INTRA>
-0.973862

>  <SCORE.INTRA.DIHEDRAL>
-1.36079

>  <SCORE.INTRA.DIHEDRAL.0>
2.93688

>  <SCORE.INTRA.POLAR>
0

>  <SCORE.INTRA.POLAR.0>
0

>  <SCORE.INTRA.REPUL>
0

>  <SCORE.INTRA.REPUL.0>
0

>  <SCORE.INTRA.SOLV>
-0.638618

>  <SCORE.INTRA.SOLV.lig_0>
-32.2816

>  <SCORE.INTRA.VDW>
0.0258404

>  <SCORE.INTRA.VDW.0>
-0.749945

>  <SCORE.INTRA.norm>
-0.0973862

>  <SCORE.RESTR>
0

>  <SCORE.RESTR.CAVITY>
0

>  <SCORE.RESTR.norm>
0

>  <SCORE.SYSTEM>
0

>  <SCORE.SYSTEM.CONST>
0

>  <SCORE.SYSTEM.DIHEDRAL>
0

>  <SCORE.SYSTEM.SOLV>
0

>  <SCORE.SYSTEM.norm>
0

>  <SCORE.heavy>
10

>  <SCORE.norm>
-0.44835

>  <RMSD>
13.002

$$$$
ligand
 OpenBabel11021811473D
libRbt.so/2013.1/901 2013/11/27
 10  9  0  0  0  0  0  0  0  0999 V2000
   23.8569   13.4488    9.6233 N   0  0  0  0  0  0  0  0  0  0  0  0
   24.8573   14.5510    9.7454 C   0  0  2  0  0  0  0  0  0  0  0  0
   25.3176   15.0398    8.3724 C   0  0  0  0  0  0  0  0  0  0  0  0
   25.0604   16.1777    7.9836 O   0  0  0  0  0  0  0  0  0  0  0  0
   26.0401   14.1217   10.6216 C   0  0  0  0  0  0  0  0  0  0  0  0
   26.8770   15.3019   11.1141 C   0  0  0  0  0  0  0  0  0  0  0  0
   27.6870   15.9486    9.9988 C   0  0  0  0  0  0  0  0  0  0  0  0
   28.7821   15.0118    9.4982 C   0  0  0  0  0  0  0  0  0  0  0  0
   29.3520   15.4223    8.1687 N   0  0  0  0  0  0  0  0  0  0  0  0
   25.9839   14.3336    7.6098 O   0  0  0  0  0  0  0  0  0  0  0  0
  2  1  1  6  0  0  0
  2  3  1  0  0  0  0
  2  5  1  0  0  0  0
  3  4  1  0  0  0  0
  3 10  1  0  0  0  0
  5  6  1  0  0  0  0
  6  7  1  0  0  0  0
  7  8  1  0  0  0  0
  8  9  1  0  0  0  0
M  END
>  <CHROM.1>
114.34015108,-163.29413389,-71.00563518,-67.80414335,163.78617506,26.38342353
14.94607615,9.24191699,-3.10028750,-0.24880164,-1.35715991

>  <Name>
ligand

>  <RI>
0

>  <Rbt.Current_Directory>
/home/itssahil/PROJECTS/Mol_Feturizer/New_Systems/rnas/3DIL

>  <Rbt.Executable>
rbdock ($Id: //depot/dev/client3/rdock/2013.1/src/exe/rbdock.cxx#4 $)

>  <Rbt.Library>
libRbt.so (2013.1, Build901 2013/11/27)

>  <Rbt.Parameter_File>
/export/apps/rDock/src/rDock_2013.1_src/data/scripts/dock_solv.prm

>  <Rbt.Receptor>
prm/blind_docking_40.prm

>  <SCORE>
-2.97475

>  <SCORE.INTER>
-3.76461

>  <SCORE.INTER.CONST>
1

>  <SCORE.INTER.POLAR>
0

>  <SCORE.INTER.ROT>
5

>  <SCORE.INTER.SOLV>
15.1854

>  <SCORE.INTER.VDW>
-14.5049

>  <SCORE.INTER.norm>
-0.376461

>  <SCORE.INTRA>
0.537832

>  <SCORE.INTRA.DIHEDRAL>
1.26937

>  <SCORE.INTRA.DIHEDRAL.0>
2.93688

>  <SCORE.INTRA.POLAR>
0

>  <SCORE.INTRA.POLAR.0>
0

>  <SCORE.INTRA.REPUL>
0

>  <SCORE.INTRA.REPUL.0>
0

>  <SCORE.INTRA.SOLV>
-0.777996

>  <SCORE.INTRA.SOLV.lig_0>
-32.2816

>  <SCORE.INTRA.VDW>
0.292147

>  <SCORE.INTRA.VDW.0>
-0.749945

>  <SCORE.INTRA.norm>
0.0537832

>  <SCORE.RESTR>
0.252024

>  <SCORE.RESTR.CAVITY>
0.252024

>  <SCORE.RESTR.norm>
0.0252024

>  <SCORE.SYSTEM>
0

>  <SCORE.SYSTEM.CONST>
0

>  <SCORE.SYSTEM.DIHEDRAL>
0

>  <SCORE.SYSTEM.SOLV>
0

>  <SCORE.SYSTEM.norm>
0

>  <SCORE.heavy>
10

>  <SCORE.norm>
-0.297475

>  <RMSD>
13.070

$$$$
ligand
 OpenBabel11021811473D
libRbt.so/2013.1/901 2013/11/27
 10  9  0  0  0  0  0  0  0  0999 V2000
   26.6669   15.2876    9.4819 N   0  0  0  0  0  0  0  0  0  0  0  0
   25.6729   14.7371    8.5126 C   0  0  2  0  0  0  0  0  0  0  0  0
   24.8965   15.8545    7.8164 C   0  0  0  0  0  0  0  0  0  0  0  0
   25.2299   17.0319    7.9386 O   0  0  0  0  0  0  0  0  0  0  0  0
   24.7358   13.7363    9.1989 C   0  0  0  0  0  0  0  0  0  0  0  0
   23.9921   14.3366   10.3916 C   0  0  0  0  0  0  0  0  0  0  0  0
   23.0497   13.3404   11.0532 C   0  0  0  0  0  0  0  0  0  0  0  0
   22.3351   13.9665   12.2468 C   0  0  0  0  0  0  0  0  0  0  0  0
   21.3831   13.0239   12.9295 N   0  0  0  0  0  0  0  0  0  0  0  0
   23.9268   15.6286    7.0865 O   0  0  0  0  0  0  0  0  0  0  0  0
  2  1  1  1  0  0  0
  2  3  1  0  0  0  0
  2  5  1  0  0  0  0
  3  4  1  0  0  0  0
  3 10  1  0  0  0  0
  5  6  1  0  0  0  0
  6  7  1  0  0  0  0
  7  8  1  0  0  0  0
  8  9  1  0  0  0  0
M  END
>  <CHROM.1>
9.57805359,57.13372575,179.17397986,179.42153284,179.56380069,24.17910225
14.72334276,9.63961804,-1.01347587,-0.02718322,2.11961641

>  <Name>
ligand

>  <RI>
0

>  <Rbt.Current_Directory>
/home/itssahil/PROJECTS/Mol_Feturizer/New_Systems/rnas/3DIL

>  <Rbt.Executable>
rbdock ($Id: //depot/dev/client3/rdock/2013.1/src/exe/rbdock.cxx#4 $)

>  <Rbt.Library>
libRbt.so (2013.1, Build901 2013/11/27)

>  <Rbt.Parameter_File>
/export/apps/rDock/src/rDock_2013.1_src/data/scripts/dock_solv.prm

>  <Rbt.Receptor>
prm/blind_docking_40.prm

>  <SCORE>
-6.42121

>  <SCORE.INTER>
-5.68468

>  <SCORE.INTER.CONST>
1

>  <SCORE.INTER.POLAR>
0

>  <SCORE.INTER.ROT>
5

>  <SCORE.INTER.SOLV>
8.46737

>  <SCORE.INTER.VDW>
-13.5456

>  <SCORE.INTER.norm>
-0.568468

>  <SCORE.INTRA>
-0.736537

>  <SCORE.INTRA.DIHEDRAL>
-1.40612

>  <SCORE.INTRA.DIHEDRAL.0>
2.93688

>  <SCORE.INTRA.POLAR>
0

>  <SCORE.INTRA.POLAR.0>
0

>  <SCORE.INTRA.REPUL>
0

>  <SCORE.INTRA.REPUL.0>
0

>  <SCORE.INTRA.SOLV>
-0.551519

>  <SCORE.INTRA.SOLV.lig_0>
-32.2816

>  <SCORE.INTRA.VDW>
0.242283

>  <SCORE.INTRA.VDW.0>
-0.749945

>  <SCORE.INTRA.norm>
-0.0736537

>  <SCORE.RESTR>
0

>  <SCORE.RESTR.CAVITY>
0

>  <SCORE.RESTR.norm>
0

>  <SCORE.SYSTEM>
0

>  <SCORE.SYSTEM.CONST>
0

>  <SCORE.SYSTEM.DIHEDRAL>
0

>  <SCORE.SYSTEM.SOLV>
0

>  <SCORE.SYSTEM.norm>
0

>  <SCORE.heavy>
10

>  <SCORE.norm>
-0.642121

>  <RMSD>
13.238

$$$$
ligand
 OpenBabel11021811473D
libRbt.so/2013.1/901 2013/11/27
 10  9  0  0  0  0  0  0  0  0999 V2000
   26.7533   15.2021    9.3723 N   0  0  0  0  0  0  0  0  0  0  0  0
   25.7140   14.6909    8.4294 C   0  0  2  0  0  0  0  0  0  0  0  0
   24.9450   15.8373    7.7736 C   0  0  0  0  0  0  0  0  0  0  0  0
   23.9634   15.6211    7.0650 O   0  0  0  0  0  0  0  0  0  0  0  0
   24.7737   13.7055    9.1336 C   0  0  0  0  0  0  0  0  0  0  0  0
   24.0283   14.3307   10.3122 C   0  0  0  0  0  0  0  0  0  0  0  0
   23.0854   13.3485   10.9937 C   0  0  0  0  0  0  0  0  0  0  0  0
   22.3941   13.9896   12.1930 C   0  0  0  0  0  0  0  0  0  0  0  0
   21.4283   13.0672   12.8840 N   0  0  0  0  0  0  0  0  0  0  0  0
   25.2526   17.0207    7.9437 O   0  0  0  0  0  0  0  0  0  0  0  0
  2  1  1  1  0  0  0
  2  3  1  0  0  0  0
  2  5  1  0  0  0  0
  3  4  1  0  0  0  0
  3 10  1  0  0  0  0
  5  6  1  0  0  0  0
  6  7  1  0  0  0  0
  7  8  1  0  0  0  0
  8  9  1  0  0  0  0
M  END
>  <CHROM.1>
-172.89987357,60.24995106,179.32080492,178.06198536,178.76890974,24.22357630
14.71077437,9.58539733,-1.00497450,-0.08668365,2.14763008

>  <Name>
ligand

>  <RI>
0

>  <Rbt.Current_Directory>
/home/itssahil/PROJECTS/Mol_Feturizer/New_Systems/rnas/3DIL

>  <Rbt.Executable>
rbdock ($Id: //depot/dev/client3/rdock/2013.1/src/exe/rbdock.cxx#4 $)

>  <Rbt.Library>
libRbt.so (2013.1, Build901 2013/11/27)

>  <Rbt.Parameter_File>
/export/apps/rDock/src/rDock_2013.1_src/data/scripts/dock_solv.prm

>  <Rbt.Receptor>
prm/blind_docking_40.prm

>  <SCORE>
-6.48382

>  <SCORE.INTER>
-5.73818

>  <SCORE.INTER.CONST>
1

>  <SCORE.INTER.POLAR>
0

>  <SCORE.INTER.ROT>
5

>  <SCORE.INTER.SOLV>
8.41572

>  <SCORE.INTER.VDW>
-13.564

>  <SCORE.INTER.norm>
-0.573818

>  <SCORE.INTRA>
-0.745641

>  <SCORE.INTRA.DIHEDRAL>
-1.38926

>  <SCORE.INTRA.DIHEDRAL.0>
2.93688

>  <SCORE.INTRA.POLAR>
0

>  <SCORE.INTRA.POLAR.0>
0

>  <SCORE.INTRA.REPUL>
0

>  <SCORE.INTRA.REPUL.0>
0

>  <SCORE.INTRA.SOLV>
-0.596061

>  <SCORE.INTRA.SOLV.lig_0>
-32.2816

>  <SCORE.INTRA.VDW>
0.247021

>  <SCORE.INTRA.VDW.0>
-0.749945

>  <SCORE.INTRA.norm>
-0.0745641

>  <SCORE.RESTR>
0

>  <SCORE.RESTR.CAVITY>
0

>  <SCORE.RESTR.norm>
0

>  <SCORE.SYSTEM>
0

>  <SCORE.SYSTEM.CONST>
0

>  <SCORE.SYSTEM.DIHEDRAL>
0

>  <SCORE.SYSTEM.SOLV>
0

>  <SCORE.SYSTEM.norm>
0

>  <SCORE.heavy>
10

>  <SCORE.norm>
-0.648382

>  <RMSD>
13.263

$$$$
ligand
 OpenBabel11021811473D
libRbt.so/2013.1/901 2013/11/27
 10  9  0  0  0  0  0  0  0  0999 V2000
   26.7360   15.1863    9.3546 N   0  0  0  0  0  0  0  0  0  0  0  0
   25.6824   14.6900    8.4196 C   0  0  2  0  0  0  0  0  0  0  0  0
   24.9111   15.8471    7.7853 C   0  0  0  0  0  0  0  0  0  0  0  0
   25.2760   17.0119    7.9346 O   0  0  0  0  0  0  0  0  0  0  0  0
   24.7459   13.7021    9.1252 C   0  0  0  0  0  0  0  0  0  0  0  0
   24.0290   14.3148   10.3279 C   0  0  0  0  0  0  0  0  0  0  0  0
   23.0916   13.3296   11.0127 C   0  0  0  0  0  0  0  0  0  0  0  0
   22.3817   13.9767   12.1978 C   0  0  0  0  0  0  0  0  0  0  0  0
   21.4309   13.0470   12.8996 N   0  0  0  0  0  0  0  0  0  0  0  0
   23.9139   15.6675    7.0801 O   0  0  0  0  0  0  0  0  0  0  0  0
  2  1  1  1  0  0  0
  2  3  1  0  0  0  0
  2  5  1  0  0  0  0
  3  4  1  0  0  0  0
  3 10  1  0  0  0  0
  5  6  1  0  0  0  0
  6  7  1  0  0  0  0
  7  8  1  0  0  0  0
  8  9  1  0  0  0  0
M  END
>  <CHROM.1>
8.53431594,59.67734166,179.43275461,-179.37859601,179.35074509,24.21006066
14.70713229,9.58906861,-1.00986794,-0.09410943,2.15561764

>  <Name>
ligand

>  <RI>
0

>  <Rbt.Current_Directory>
/home/itssahil/PROJECTS/Mol_Feturizer/New_Systems/rnas/3DIL

>  <Rbt.Executable>
rbdock ($Id: //depot/dev/client3/rdock/2013.1/src/exe/rbdock.cxx#4 $)

>  <Rbt.Library>
libRbt.so (2013.1, Build901 2013/11/27)

>  <Rbt.Parameter_File>
/export/apps/rDock/src/rDock_2013.1_src/data/scripts/dock_solv.prm

>  <Rbt.Receptor>
prm/blind_docking_60.prm

>  <SCORE>
-6.5637

>  <SCORE.INTER>
-5.78395

>  <SCORE.INTER.CONST>
1

>  <SCORE.INTER.POLAR>
0

>  <SCORE.INTER.ROT>
5

>  <SCORE.INTER.SOLV>
8.41544

>  <SCORE.INTER.VDW>
-13.5944

>  <SCORE.INTER.norm>
-0.578395

>  <SCORE.INTRA>
-0.779745

>  <SCORE.INTRA.DIHEDRAL>
-1.44173

>  <SCORE.INTRA.DIHEDRAL.0>
2.93688

>  <SCORE.INTRA.POLAR>
0

>  <SCORE.INTRA.POLAR.0>
0

>  <SCORE.INTRA.REPUL>
0

>  <SCORE.INTRA.REPUL.0>
0

>  <SCORE.INTRA.SOLV>
-0.58296

>  <SCORE.INTRA.SOLV.lig_0>
-32.2816

>  <SCORE.INTRA.VDW>
0.2326

>  <SCORE.INTRA.VDW.0>
-0.749945

>  <SCORE.INTRA.norm>
-0.0779745

>  <SCORE.RESTR>
0

>  <SCORE.RESTR.CAVITY>
0

>  <SCORE.RESTR.norm>
0

>  <SCORE.SYSTEM>
0

>  <SCORE.SYSTEM.CONST>
0

>  <SCORE.SYSTEM.DIHEDRAL>
0

>  <SCORE.SYSTEM.SOLV>
0

>  <SCORE.SYSTEM.norm>
0

>  <SCORE.heavy>
10

>  <SCORE.norm>
-0.65637

>  <RMSD>
13.269

$$$$
ligand
 OpenBabel11021811473D
libRbt.so/2013.1/901 2013/11/27
 10  9  0  0  0  0  0  0  0  0999 V2000
   26.9729   14.4959    8.4053 N   0  0  0  0  0  0  0  0  0  0  0  0
   25.4899   14.3742    8.5336 C   0  0  2  0  0  0  0  0  0  0  0  0
   24.7753   15.5520    7.8718 C   0  0  0  0  0  0  0  0  0  0  0  0
   23.7134   15.3954    7.2716 O   0  0  0  0  0  0  0  0  0  0  0  0
   25.0792   14.2127   10.0020 C   0  0  0  0  0  0  0  0  0  0  0  0
   23.5831   13.9550   10.1781 C   0  0  0  0  0  0  0  0  0  0  0  0
   23.1810   13.8282   11.6412 C   0  0  0  0  0  0  0  0  0  0  0  0
   21.6777   13.6111   11.7830 C   0  0  0  0  0  0  0  0  0  0  0  0
   21.2344   13.4438   13.2101 N   0  0  0  0  0  0  0  0  0  0  0  0
   25.2107   16.7057    7.9308 O   0  0  0  0  0  0  0  0  0  0  0  0
  2  1  1  1  0  0  0
  2  3  1  0  0  0  0
  2  5  1  0  0  0  0
  3  4  1  0  0  0  0
  3 10  1  0  0  0  0
  5  6  1  0  0  0  0
  6  7  1  0  0  0  0
  7  8  1  0  0  0  0
  8  9  1  0  0  0  0
M  END
>  <CHROM.1>
143.10228063,-174.70842524,-178.68167073,178.39519933,178.50660552,24.08235641
14.58641563,9.65828784,-0.91526529,-0.22531734,2.14400201

>  <Name>
ligand

>  <RI>
0

>  <Rbt.Current_Directory>
/home/itssahil/PROJECTS/Mol_Feturizer/New_Systems/rnas/3DIL

>  <Rbt.Executable>
rbdock ($Id: //depot/dev/client3/rdock/2013.1/src/exe/rbdock.cxx#4 $)

>  <Rbt.Library>
libRbt.so (2013.1, Build901 2013/11/27)

>  <Rbt.Parameter_File>
/export/apps/rDock/src/rDock_2013.1_src/data/scripts/dock_solv.prm

>  <Rbt.Receptor>
prm/blind_docking_40.prm

>  <SCORE>
-7.08214

>  <SCORE.INTER>
-5.54503

>  <SCORE.INTER.CONST>
1

>  <SCORE.INTER.POLAR>
0

>  <SCORE.INTER.ROT>
5

>  <SCORE.INTER.SOLV>
8.03952

>  <SCORE.INTER.VDW>
-13.3099

>  <SCORE.INTER.norm>
-0.554503

>  <SCORE.INTRA>
-1.53711

>  <SCORE.INTRA.DIHEDRAL>
-1.3536

>  <SCORE.INTRA.DIHEDRAL.0>
2.93688

>  <SCORE.INTRA.POLAR>
0

>  <SCORE.INTRA.POLAR.0>
0

>  <SCORE.INTRA.REPUL>
0

>  <SCORE.INTRA.REPUL.0>
0

>  <SCORE.INTRA.SOLV>
-1.50822

>  <SCORE.INTRA.SOLV.lig_0>
-32.2816

>  <SCORE.INTRA.VDW>
-0.106202

>  <SCORE.INTRA.VDW.0>
-0.749945

>  <SCORE.INTRA.norm>
-0.153711

>  <SCORE.RESTR>
0

>  <SCORE.RESTR.CAVITY>
0

>  <SCORE.RESTR.norm>
0

>  <SCORE.SYSTEM>
0

>  <SCORE.SYSTEM.CONST>
0

>  <SCORE.SYSTEM.DIHEDRAL>
0

>  <SCORE.SYSTEM.SOLV>
0

>  <SCORE.SYSTEM.norm>
0

>  <SCORE.heavy>
10

>  <SCORE.norm>
-0.708214

>  <RMSD>
13.280

$$$$
ligand
 OpenBabel11021811473D
libRbt.so/2013.1/901 2013/11/27
 10  9  0  0  0  0  0  0  0  0999 V2000
   26.9340   14.5537    8.3037 N   0  0  0  0  0  0  0  0  0  0  0  0
   25.4546   14.4342    8.4701 C   0  0  2  0  0  0  0  0  0  0  0  0
   24.7245   15.6091    7.8201 C   0  0  0  0  0  0  0  0  0  0  0  0
   23.6662   15.4441    7.2157 O   0  0  0  0  0  0  0  0  0  0  0  0
   25.0809   14.2812    9.9492 C   0  0  0  0  0  0  0  0  0  0  0  0
   23.5890   14.0294   10.1647 C   0  0  0  0  0  0  0  0  0  0  0  0
   23.2389   13.8159   11.6311 C   0  0  0  0  0  0  0  0  0  0  0  0
   21.7545   13.5100   11.8047 C   0  0  0  0  0  0  0  0  0  0  0  0
   21.3814   13.1655   13.2200 N   0  0  0  0  0  0  0  0  0  0  0  0
   25.1433   16.7681    7.8929 O   0  0  0  0  0  0  0  0  0  0  0  0
  2  1  1  1  0  0  0
  2  3  1  0  0  0  0
  2  5  1  0  0  0  0
  3  4  1  0  0  0  0
  3 10  1  0  0  0  0
  5  6  1  0  0  0  0
  6  7  1  0  0  0  0
  7  8  1  0  0  0  0
  8  9  1  0  0  0  0
M  END
>  <CHROM.1>
141.06258297,-174.84481471,177.38490458,-177.63470903,174.65770945,24.08666333
14.59044098,9.62289506,-0.95994281,-0.20423930,2.14987249

>  <Name>
ligand

>  <RI>
0

>  <Rbt.Current_Directory>
/home/itssahil/PROJECTS/Mol_Feturizer/New_Systems/rnas/3DIL

>  <Rbt.Executable>
rbdock ($Id: //depot/dev/client3/rdock/2013.1/src/exe/rbdock.cxx#4 $)

>  <Rbt.Library>
libRbt.so (2013.1, Build901 2013/11/27)

>  <Rbt.Parameter_File>
/export/apps/rDock/src/rDock_2013.1_src/data/scripts/dock_solv.prm

>  <Rbt.Receptor>
prm/blind_docking_40.prm

>  <SCORE>
-7.15106

>  <SCORE.INTER>
-5.67635

>  <SCORE.INTER.CONST>
1

>  <SCORE.INTER.POLAR>
0

>  <SCORE.INTER.ROT>
5

>  <SCORE.INTER.SOLV>
8.01331

>  <SCORE.INTER.VDW>
-13.3887

>  <SCORE.INTER.norm>
-0.567635

>  <SCORE.INTRA>
-1.47471

>  <SCORE.INTRA.DIHEDRAL>
-1.22324

>  <SCORE.INTRA.DIHEDRAL.0>
2.93688

>  <SCORE.INTRA.POLAR>
0

>  <SCORE.INTRA.POLAR.0>
0

>  <SCORE.INTRA.REPUL>
0

>  <SCORE.INTRA.REPUL.0>
0

>  <SCORE.INTRA.SOLV>
-1.50773

>  <SCORE.INTRA.SOLV.lig_0>
-32.2816

>  <SCORE.INTRA.VDW>
-0.10923

>  <SCORE.INTRA.VDW.0>
-0.749945

>  <SCORE.INTRA.norm>
-0.147471

>  <SCORE.RESTR>
0

>  <SCORE.RESTR.CAVITY>
0

>  <SCORE.RESTR.norm>
0

>  <SCORE.SYSTEM>
0

>  <SCORE.SYSTEM.CONST>
0

>  <SCORE.SYSTEM.DIHEDRAL>
0

>  <SCORE.SYSTEM.SOLV>
0

>  <SCORE.SYSTEM.norm>
0

>  <SCORE.heavy>
10

>  <SCORE.norm>
-0.715106

>  <RMSD>
13.313

$$$$
ligand
 OpenBabel11021811473D
libRbt.so/2013.1/901 2013/11/27
 10  9  0  0  0  0  0  0  0  0999 V2000
   24.1166   15.4222    8.3255 N   0  0  0  0  0  0  0  0  0  0  0  0
   25.4918   14.9620    8.6830 C   0  0  2  0  0  0  0  0  0  0  0  0
   26.0616   14.0287    7.6152 C   0  0  0  0  0  0  0  0  0  0  0  0
   27.2296   14.1265    7.2431 O   0  0  0  0  0  0  0  0  0  0  0  0
   25.5078   14.3131   10.0721 C   0  0  0  0  0  0  0  0  0  0  0  0
   26.9196   14.0086   10.5721 C   0  0  0  0  0  0  0  0  0  0  0  0
   27.6699   15.2622   11.0008 C   0  0  0  0  0  0  0  0  0  0  0  0
   28.1483   16.0592    9.7913 C   0  0  0  0  0  0  0  0  0  0  0  0
   29.1228   15.3038    8.9307 N   0  0  0  0  0  0  0  0  0  0  0  0
   25.3928   13.1269    7.1019 O   0  0  0  0  0  0  0  0  0  0  0  0
  2  1  1  6  0  0  0
  2  3  1  0  0  0  0
  2  5  1  0  0  0  0
  3  4  1  0  0  0  0
  3 10  1  0  0  0  0
  5  6  1  0  0  0  0
  6  7  1  0  0  0  0
  7  8  1  0  0  0  0
  8  9  1  0  0  0  0
M  END
>  <CHROM.1>
137.66469193,-171.64071470,73.76229691,-75.72611060,-62.31911448,26.57380049
14.63909747,8.90504780,2.38743081,-0.12915081,-1.90034460

>  <Name>
ligand

>  <RI>
0

>  <Rbt.Current_Directory>
/home/itssahil/PROJECTS/Mol_Feturizer/New_Systems/rnas/3DIL

>  <Rbt.Executable>
rbdock ($Id: //depot/dev/client3/rdock/2013.1/src/exe/rbdock.cxx#4 $)

>  <Rbt.Library>
libRbt.so (2013.1, Build901 2013/11/27)

>  <Rbt.Parameter_File>
/export/apps/rDock/src/rDock_2013.1_src/data/scripts/dock_solv.prm

>  <Rbt.Receptor>
prm/blind_docking_40.prm

>  <SCORE>
-4.06937

>  <SCORE.INTER>
-5.58164

>  <SCORE.INTER.CONST>
1

>  <SCORE.INTER.POLAR>
0

>  <SCORE.INTER.ROT>
5

>  <SCORE.INTER.SOLV>
12.9813

>  <SCORE.INTER.VDW>
-14.9815

>  <SCORE.INTER.norm>
-0.558164

>  <SCORE.INTRA>
1.51227

>  <SCORE.INTRA.DIHEDRAL>
0.543703

>  <SCORE.INTRA.DIHEDRAL.0>
2.93688

>  <SCORE.INTRA.POLAR>
0

>  <SCORE.INTRA.POLAR.0>
0

>  <SCORE.INTRA.REPUL>
0

>  <SCORE.INTRA.REPUL.0>
0

>  <SCORE.INTRA.SOLV>
1.98943

>  <SCORE.INTRA.SOLV.lig_0>
-32.2816

>  <SCORE.INTRA.VDW>
0.245704

>  <SCORE.INTRA.VDW.0>
-0.749945

>  <SCORE.INTRA.norm>
0.151227

>  <SCORE.RESTR>
0

>  <SCORE.RESTR.CAVITY>
0

>  <SCORE.RESTR.norm>
0

>  <SCORE.SYSTEM>
0

>  <SCORE.SYSTEM.CONST>
0

>  <SCORE.SYSTEM.DIHEDRAL>
0

>  <SCORE.SYSTEM.SOLV>
0

>  <SCORE.SYSTEM.norm>
0

>  <SCORE.heavy>
10

>  <SCORE.norm>
-0.406937

>  <RMSD>
13.315

$$$$
ligand
 OpenBabel11021811473D
libRbt.so/2013.1/901 2013/11/27
 10  9  0  0  0  0  0  0  0  0999 V2000
   26.9045   14.5348    8.3873 N   0  0  0  0  0  0  0  0  0  0  0  0
   25.4206   14.4305    8.5209 C   0  0  2  0  0  0  0  0  0  0  0  0
   24.7166   15.6051    7.8424 C   0  0  0  0  0  0  0  0  0  0  0  0
   23.6696   15.4440    7.2178 O   0  0  0  0  0  0  0  0  0  0  0  0
   25.0119   14.2964    9.9926 C   0  0  0  0  0  0  0  0  0  0  0  0
   23.5130   14.0612   10.1764 C   0  0  0  0  0  0  0  0  0  0  0  0
   23.1256   13.8793   11.6377 C   0  0  0  0  0  0  0  0  0  0  0  0
   21.6231   13.6618   11.7868 C   0  0  0  0  0  0  0  0  0  0  0  0
   21.1939   13.4418   13.2110 N   0  0  0  0  0  0  0  0  0  0  0  0
   25.1459   16.7606    7.9108 O   0  0  0  0  0  0  0  0  0  0  0  0
  2  1  1  1  0  0  0
  2  3  1  0  0  0  0
  2  5  1  0  0  0  0
  3  4  1  0  0  0  0
  3 10  1  0  0  0  0
  5  6  1  0  0  0  0
  6  7  1  0  0  0  0
  7  8  1  0  0  0  0
  8  9  1  0  0  0  0
M  END
>  <CHROM.1>
141.20686941,-174.87822316,177.92459014,179.39957352,178.54305994,24.02327723
14.64050037,9.64351040,-0.92431870,-0.21776530,2.13697311

>  <Name>
ligand

>  <RI>
0

>  <Rbt.Current_Directory>
/home/itssahil/PROJECTS/Mol_Feturizer/New_Systems/rnas/3DIL

>  <Rbt.Executable>
rbdock ($Id: //depot/dev/client3/rdock/2013.1/src/exe/rbdock.cxx#4 $)

>  <Rbt.Library>
libRbt.so (2013.1, Build901 2013/11/27)

>  <Rbt.Parameter_File>
/export/apps/rDock/src/rDock_2013.1_src/data/scripts/dock_solv.prm

>  <Rbt.Receptor>
prm/blind_docking_40.prm

>  <SCORE>
-7.01117

>  <SCORE.INTER>
-5.46978

>  <SCORE.INTER.CONST>
1

>  <SCORE.INTER.POLAR>
0

>  <SCORE.INTER.ROT>
5

>  <SCORE.INTER.SOLV>
7.86688

>  <SCORE.INTER.VDW>
-13.2021

>  <SCORE.INTER.norm>
-0.546978

>  <SCORE.INTRA>
-1.54139

>  <SCORE.INTRA.DIHEDRAL>
-1.35647

>  <SCORE.INTRA.DIHEDRAL.0>
2.93688

>  <SCORE.INTRA.POLAR>
0

>  <SCORE.INTRA.POLAR.0>
0

>  <SCORE.INTRA.REPUL>
0

>  <SCORE.INTRA.REPUL.0>
0

>  <SCORE.INTRA.SOLV>
-1.5094

>  <SCORE.INTRA.SOLV.lig_0>
-32.2816

>  <SCORE.INTRA.VDW>
-0.108456

>  <SCORE.INTRA.VDW.0>
-0.749945

>  <SCORE.INTRA.norm>
-0.154139

>  <SCORE.RESTR>
0

>  <SCORE.RESTR.CAVITY>
0

>  <SCORE.RESTR.norm>
0

>  <SCORE.SYSTEM>
0

>  <SCORE.SYSTEM.CONST>
0

>  <SCORE.SYSTEM.DIHEDRAL>
0

>  <SCORE.SYSTEM.SOLV>
0

>  <SCORE.SYSTEM.norm>
0

>  <SCORE.heavy>
10

>  <SCORE.norm>
-0.701117

>  <RMSD>
13.316

$$$$
ligand
 OpenBabel11021811473D
libRbt.so/2013.1/901 2013/11/27
 10  9  0  0  0  0  0  0  0  0999 V2000
   26.6042   15.1495    9.4554 N   0  0  0  0  0  0  0  0  0  0  0  0
   25.5725   14.6123    8.5186 C   0  0  2  0  0  0  0  0  0  0  0  0
   24.8107   15.7401    7.8232 C   0  0  0  0  0  0  0  0  0  0  0  0
   23.7786   15.5160    7.1930 O   0  0  0  0  0  0  0  0  0  0  0  0
   24.6248   13.6486    9.2426 C   0  0  0  0  0  0  0  0  0  0  0  0
   23.8203   14.3244   10.3525 C   0  0  0  0  0  0  0  0  0  0  0  0
   22.9831   13.3352   11.1517 C   0  0  0  0  0  0  0  0  0  0  0  0
   22.1291   14.0510   12.1936 C   0  0  0  0  0  0  0  0  0  0  0  0
   21.0030   14.8460   11.5930 N   0  0  0  0  0  0  0  0  0  0  0  0
   25.1758   16.9179    7.8829 O   0  0  0  0  0  0  0  0  0  0  0  0
  2  1  1  1  0  0  0
  2  3  1  0  0  0  0
  2  5  1  0  0  0  0
  3  4  1  0  0  0  0
  3 10  1  0  0  0  0
  5  6  1  0  0  0  0
  6  7  1  0  0  0  0
  7  8  1  0  0  0  0
  8  9  1  0  0  0  0
M  END
>  <CHROM.1>
-167.50998859,63.01555246,-174.50378350,-176.52816461,70.64357993,24.04047687
14.84148092,9.51621837,-0.86184885,-0.27147045,2.21933510

>  <Name>
ligand

>  <RI>
0

>  <Rbt.Current_Directory>
/home/itssahil/PROJECTS/Mol_Feturizer/New_Systems/rnas/3DIL

>  <Rbt.Executable>
rbdock ($Id: //depot/dev/client3/rdock/2013.1/src/exe/rbdock.cxx#4 $)

>  <Rbt.Library>
libRbt.so (2013.1, Build901 2013/11/27)

>  <Rbt.Parameter_File>
/export/apps/rDock/src/rDock_2013.1_src/data/scripts/dock_solv.prm

>  <Rbt.Receptor>
prm/blind_docking_40.prm

>  <SCORE>
-5.50179

>  <SCORE.INTER>
-5.55295

>  <SCORE.INTER.CONST>
1

>  <SCORE.INTER.POLAR>
0

>  <SCORE.INTER.ROT>
5

>  <SCORE.INTER.SOLV>
8.76535

>  <SCORE.INTER.VDW>
-13.5571

>  <SCORE.INTER.norm>
-0.555295

>  <SCORE.INTRA>
0.0511638

>  <SCORE.INTRA.DIHEDRAL>
-0.776043

>  <SCORE.INTRA.DIHEDRAL.0>
2.93688

>  <SCORE.INTRA.POLAR>
0

>  <SCORE.INTRA.POLAR.0>
0

>  <SCORE.INTRA.REPUL>
0

>  <SCORE.INTRA.REPUL.0>
0

>  <SCORE.INTRA.SOLV>
0.210336

>  <SCORE.INTRA.SOLV.lig_0>
-32.2816

>  <SCORE.INTRA.VDW>
0.334017

>  <SCORE.INTRA.VDW.0>
-0.749945

>  <SCORE.INTRA.norm>
0.00511638

>  <SCORE.RESTR>
0

>  <SCORE.RESTR.CAVITY>
0

>  <SCORE.RESTR.norm>
0

>  <SCORE.SYSTEM>
0

>  <SCORE.SYSTEM.CONST>
0

>  <SCORE.SYSTEM.DIHEDRAL>
0

>  <SCORE.SYSTEM.SOLV>
0

>  <SCORE.SYSTEM.norm>
0

>  <SCORE.heavy>
10

>  <SCORE.norm>
-0.550179

>  <RMSD>
13.365

$$$$
ligand
 OpenBabel11021811473D
libRbt.so/2013.1/901 2013/11/27
 10  9  0  0  0  0  0  0  0  0999 V2000
   25.4660    3.9705   25.6464 N   0  0  0  0  0  0  0  0  0  0  0  0
   26.3368    4.9584   26.3509 C   0  0  2  0  0  0  0  0  0  0  0  0
   26.5861    4.5460   27.8013 C   0  0  0  0  0  0  0  0  0  0  0  0
   25.6521    4.2830   28.5570 O   0  0  0  0  0  0  0  0  0  0  0  0
   25.7497    6.3716   26.2550 C   0  0  0  0  0  0  0  0  0  0  0  0
   26.7810    7.4659   26.5283 C   0  0  0  0  0  0  0  0  0  0  0  0
   27.2371    7.4884   27.9808 C   0  0  0  0  0  0  0  0  0  0  0  0
   28.1083    8.7076   28.2663 C   0  0  0  0  0  0  0  0  0  0  0  0
   29.3362    8.7751   27.4011 N   0  0  0  0  0  0  0  0  0  0  0  0
   27.7229    4.4326   28.2692 O   0  0  0  0  0  0  0  0  0  0  0  0
  2  1  1  1  0  0  0
  2  3  1  0  0  0  0
  2  5  1  0  0  0  0
  3  4  1  0  0  0  0
  3 10  1  0  0  0  0
  5  6  1  0  0  0  0
  6  7  1  0  0  0  0
  7  8  1  0  0  0  0
  8  9  1  0  0  0  0
M  END
>  <CHROM.1>
-52.74184429,-160.77985165,-68.58832195,-171.89944259,-58.61109081,26.90004834
6.08148239,27.33656291,2.45986219,0.89135607,2.52011639

>  <Name>
ligand

>  <RI>
0

>  <Rbt.Current_Directory>
/home/itssahil/PROJECTS/Mol_Feturizer/New_Systems/rnas/3DIL

>  <Rbt.Executable>
rbdock ($Id: //depot/dev/client3/rdock/2013.1/src/exe/rbdock.cxx#4 $)

>  <Rbt.Library>
libRbt.so (2013.1, Build901 2013/11/27)

>  <Rbt.Parameter_File>
/export/apps/rDock/src/rDock_2013.1_src/data/scripts/dock_solv.prm

>  <Rbt.Receptor>
prm/blind_docking_80.prm

>  <SCORE>
-3.01708

>  <SCORE.INTER>
-3.23182

>  <SCORE.INTER.CONST>
1

>  <SCORE.INTER.POLAR>
0

>  <SCORE.INTER.ROT>
5

>  <SCORE.INTER.SOLV>
9.98538

>  <SCORE.INTER.VDW>
-12.4163

>  <SCORE.INTER.norm>
-0.323182

>  <SCORE.INTRA>
0.214739

>  <SCORE.INTRA.DIHEDRAL>
0.467363

>  <SCORE.INTRA.DIHEDRAL.0>
2.93688

>  <SCORE.INTRA.POLAR>
0

>  <SCORE.INTRA.POLAR.0>
0

>  <SCORE.INTRA.REPUL>
0

>  <SCORE.INTRA.REPUL.0>
0

>  <SCORE.INTRA.SOLV>
-0.438653

>  <SCORE.INTRA.SOLV.lig_0>
-32.2816

>  <SCORE.INTRA.VDW>
0.200384

>  <SCORE.INTRA.VDW.0>
-0.749945

>  <SCORE.INTRA.norm>
0.0214739

>  <SCORE.RESTR>
0

>  <SCORE.RESTR.CAVITY>
0

>  <SCORE.RESTR.norm>
0

>  <SCORE.SYSTEM>
0

>  <SCORE.SYSTEM.CONST>
0

>  <SCORE.SYSTEM.DIHEDRAL>
0

>  <SCORE.SYSTEM.SOLV>
0

>  <SCORE.SYSTEM.norm>
0

>  <SCORE.heavy>
10

>  <SCORE.norm>
-0.301708

>  <RMSD>
13.412

$$$$
ligand
 OpenBabel11021811473D
libRbt.so/2013.1/901 2013/11/27
 10  9  0  0  0  0  0  0  0  0999 V2000
   26.1524   13.2600    7.6850 N   0  0  0  0  0  0  0  0  0  0  0  0
   24.8035   13.7457    8.1035 C   0  0  2  0  0  0  0  0  0  0  0  0
   24.5945   15.2097    7.7176 C   0  0  0  0  0  0  0  0  0  0  0  0
   24.9911   15.6455    6.6382 O   0  0  0  0  0  0  0  0  0  0  0  0
   24.5802   13.5158    9.6029 C   0  0  0  0  0  0  0  0  0  0  0  0
   25.5167   14.3464   10.4798 C   0  0  0  0  0  0  0  0  0  0  0  0
   26.9509   13.8361   10.4485 C   0  0  0  0  0  0  0  0  0  0  0  0
   27.8750   14.7386   11.2602 C   0  0  0  0  0  0  0  0  0  0  0  0
   27.9459   16.1444   10.7314 N   0  0  0  0  0  0  0  0  0  0  0  0
   24.0016   16.0071    8.4502 O   0  0  0  0  0  0  0  0  0  0  0  0
  2  1  1  1  0  0  0
  2  3  1  0  0  0  0
  2  5  1  0  0  0  0
  3  4  1  0  0  0  0
  3 10  1  0  0  0  0
  5  6  1  0  0  0  0
  6  7  1  0  0  0  0
  7  8  1  0  0  0  0
  8  9  1  0  0  0  0
M  END
>  <CHROM.1>
40.04123885,65.60615940,-72.43471839,176.32286925,-61.84612773,25.72906705
14.67630178,9.09501098,2.89391724,-0.84467935,-0.28067236

>  <Name>
ligand

>  <RI>
0

>  <Rbt.Current_Directory>
/home/itssahil/PROJECTS/Mol_Feturizer/New_Systems/rnas/3DIL

>  <Rbt.Executable>
rbdock ($Id: //depot/dev/client3/rdock/2013.1/src/exe/rbdock.cxx#4 $)

>  <Rbt.Library>
libRbt.so (2013.1, Build901 2013/11/27)

>  <Rbt.Parameter_File>
/export/apps/rDock/src/rDock_2013.1_src/data/scripts/dock_solv.prm

>  <Rbt.Receptor>
prm/blind_docking_40.prm

>  <SCORE>
-3.89397

>  <SCORE.INTER>
-5.35916

>  <SCORE.INTER.CONST>
1

>  <SCORE.INTER.POLAR>
0

>  <SCORE.INTER.ROT>
5

>  <SCORE.INTER.SOLV>
13.8571

>  <SCORE.INTER.VDW>
-15.1251

>  <SCORE.INTER.norm>
-0.535916

>  <SCORE.INTRA>
1.46179

>  <SCORE.INTRA.DIHEDRAL>
-0.671992

>  <SCORE.INTRA.DIHEDRAL.0>
2.93688

>  <SCORE.INTRA.POLAR>
0

>  <SCORE.INTRA.POLAR.0>
0

>  <SCORE.INTRA.REPUL>
0

>  <SCORE.INTRA.REPUL.0>
0

>  <SCORE.INTRA.SOLV>
1.73323

>  <SCORE.INTRA.SOLV.lig_0>
-32.2816

>  <SCORE.INTRA.VDW>
0.931165

>  <SCORE.INTRA.VDW.0>
-0.749945

>  <SCORE.INTRA.norm>
0.146179

>  <SCORE.RESTR>
0.00340673

>  <SCORE.RESTR.CAVITY>
0.00340673

>  <SCORE.RESTR.norm>
0.000340673

>  <SCORE.SYSTEM>
0

>  <SCORE.SYSTEM.CONST>
0

>  <SCORE.SYSTEM.DIHEDRAL>
0

>  <SCORE.SYSTEM.SOLV>
0

>  <SCORE.SYSTEM.norm>
0

>  <SCORE.heavy>
10

>  <SCORE.norm>
-0.389397

>  <RMSD>
13.417

$$$$
ligand
 OpenBabel11021811473D
libRbt.so/2013.1/901 2013/11/27
 10  9  0  0  0  0  0  0  0  0999 V2000
   26.6128   14.4890    8.9035 N   0  0  0  0  0  0  0  0  0  0  0  0
   25.2483   14.2967    8.3276 C   0  0  2  0  0  0  0  0  0  0  0  0
   24.6853   15.6079    7.7801 C   0  0  0  0  0  0  0  0  0  0  0  0
   25.2515   16.6794    7.9892 O   0  0  0  0  0  0  0  0  0  0  0  0
   24.3057   13.6588    9.3550 C   0  0  0  0  0  0  0  0  0  0  0  0
   24.2405   14.4369   10.6688 C   0  0  0  0  0  0  0  0  0  0  0  0
   23.2400   13.8422   11.6503 C   0  0  0  0  0  0  0  0  0  0  0  0
   21.8056   14.1209   11.2122 C   0  0  0  0  0  0  0  0  0  0  0  0
   20.7793   13.6389   12.1999 N   0  0  0  0  0  0  0  0  0  0  0  0
   23.6636   15.6497    7.0885 O   0  0  0  0  0  0  0  0  0  0  0  0
  2  1  1  1  0  0  0
  2  3  1  0  0  0  0
  2  5  1  0  0  0  0
  3  4  1  0  0  0  0
  3 10  1  0  0  0  0
  5  6  1  0  0  0  0
  6  7  1  0  0  0  0
  7  8  1  0  0  0  0
  8  9  1  0  0  0  0
M  END
>  <CHROM.1>
-9.32841778,54.67426220,176.57660270,-72.96587922,-175.88251282,23.97754630
14.67343073,9.49519404,-0.88387399,-0.18741912,2.14053566

>  <Name>
ligand

>  <RI>
0

>  <Rbt.Current_Directory>
/home/itssahil/PROJECTS/Mol_Feturizer/New_Systems/rnas/3DIL

>  <Rbt.Executable>
rbdock ($Id: //depot/dev/client3/rdock/2013.1/src/exe/rbdock.cxx#4 $)

>  <Rbt.Library>
libRbt.so (2013.1, Build901 2013/11/27)

>  <Rbt.Parameter_File>
/export/apps/rDock/src/rDock_2013.1_src/data/scripts/dock_solv.prm

>  <Rbt.Receptor>
prm/blind_docking_40.prm

>  <SCORE>
-5.50523

>  <SCORE.INTER>
-5.51894

>  <SCORE.INTER.CONST>
1

>  <SCORE.INTER.POLAR>
0

>  <SCORE.INTER.ROT>
5

>  <SCORE.INTER.SOLV>
7.04088

>  <SCORE.INTER.VDW>
-12.9596

>  <SCORE.INTER.norm>
-0.551894

>  <SCORE.INTRA>
0.0137137

>  <SCORE.INTRA.DIHEDRAL>
-0.483827

>  <SCORE.INTRA.DIHEDRAL.0>
2.93688

>  <SCORE.INTRA.POLAR>
0

>  <SCORE.INTRA.POLAR.0>
0

>  <SCORE.INTRA.REPUL>
0

>  <SCORE.INTRA.REPUL.0>
0

>  <SCORE.INTRA.SOLV>
-0.375533

>  <SCORE.INTRA.SOLV.lig_0>
-32.2816

>  <SCORE.INTRA.VDW>
0.443393

>  <SCORE.INTRA.VDW.0>
-0.749945

>  <SCORE.INTRA.norm>
0.00137137

>  <SCORE.RESTR>
0

>  <SCORE.RESTR.CAVITY>
0

>  <SCORE.RESTR.norm>
0

>  <SCORE.SYSTEM>
0

>  <SCORE.SYSTEM.CONST>
0

>  <SCORE.SYSTEM.DIHEDRAL>
0

>  <SCORE.SYSTEM.SOLV>
0

>  <SCORE.SYSTEM.norm>
0

>  <SCORE.heavy>
10

>  <SCORE.norm>
-0.550523

>  <RMSD>
13.433

$$$$
ligand
 OpenBabel11021811473D
libRbt.so/2013.1/901 2013/11/27
 10  9  0  0  0  0  0  0  0  0999 V2000
   25.9536   13.3321    9.1407 N   0  0  0  0  0  0  0  0  0  0  0  0
   24.6914   13.9498    8.6349 C   0  0  2  0  0  0  0  0  0  0  0  0
   24.9733   14.9665    7.5291 C   0  0  0  0  0  0  0  0  0  0  0  0
   24.8618   16.1742    7.7323 O   0  0  0  0  0  0  0  0  0  0  0  0
   23.8864   14.5686    9.7838 C   0  0  0  0  0  0  0  0  0  0  0  0
   23.2695   13.5221   10.7113 C   0  0  0  0  0  0  0  0  0  0  0  0
   22.7442   14.1270   12.0060 C   0  0  0  0  0  0  0  0  0  0  0  0
   21.9507   13.1026   12.8111 C   0  0  0  0  0  0  0  0  0  0  0  0
   20.5597   12.8825   12.2842 N   0  0  0  0  0  0  0  0  0  0  0  0
   25.3475   14.6290    6.4021 O   0  0  0  0  0  0  0  0  0  0  0  0
  2  1  1  1  0  0  0
  2  3  1  0  0  0  0
  2  5  1  0  0  0  0
  3  4  1  0  0  0  0
  3 10  1  0  0  0  0
  5  6  1  0  0  0  0
  6  7  1  0  0  0  0
  7  8  1  0  0  0  0
  8  9  1  0  0  0  0
M  END
>  <CHROM.1>
-107.41575433,-70.51378269,167.15360238,171.38086732,-77.90699451,23.83717357
14.15064871,9.66823647,-0.84342216,-0.56022228,2.33581286

>  <Name>
ligand

>  <RI>
0

>  <Rbt.Current_Directory>
/home/itssahil/PROJECTS/Mol_Feturizer/New_Systems/rnas/3DIL

>  <Rbt.Executable>
rbdock ($Id: //depot/dev/client3/rdock/2013.1/src/exe/rbdock.cxx#4 $)

>  <Rbt.Library>
libRbt.so (2013.1, Build901 2013/11/27)

>  <Rbt.Parameter_File>
/export/apps/rDock/src/rDock_2013.1_src/data/scripts/dock_solv.prm

>  <Rbt.Receptor>
prm/blind_docking_40.prm

>  <SCORE>
-3.18462

>  <SCORE.INTER>
-4.18874

>  <SCORE.INTER.CONST>
1

>  <SCORE.INTER.POLAR>
0

>  <SCORE.INTER.ROT>
5

>  <SCORE.INTER.SOLV>
9.55353

>  <SCORE.INTER.VDW>
-12.9103

>  <SCORE.INTER.norm>
-0.418874

>  <SCORE.INTRA>
1.00063

>  <SCORE.INTRA.DIHEDRAL>
1.09012

>  <SCORE.INTRA.DIHEDRAL.0>
2.93688

>  <SCORE.INTRA.POLAR>
0

>  <SCORE.INTRA.POLAR.0>
0

>  <SCORE.INTRA.REPUL>
0

>  <SCORE.INTRA.REPUL.0>
0

>  <SCORE.INTRA.SOLV>
0.0758535

>  <SCORE.INTRA.SOLV.lig_0>
-32.2816

>  <SCORE.INTRA.VDW>
0.417641

>  <SCORE.INTRA.VDW.0>
-0.749945

>  <SCORE.INTRA.norm>
0.100063

>  <SCORE.RESTR>
0.00348932

>  <SCORE.RESTR.CAVITY>
0.00348932

>  <SCORE.RESTR.norm>
0.000348932

>  <SCORE.SYSTEM>
0

>  <SCORE.SYSTEM.CONST>
0

>  <SCORE.SYSTEM.DIHEDRAL>
0

>  <SCORE.SYSTEM.SOLV>
0

>  <SCORE.SYSTEM.norm>
0

>  <SCORE.heavy>
10

>  <SCORE.norm>
-0.318462

>  <RMSD>
13.455

$$$$
ligand
 OpenBabel11021811473D
libRbt.so/2013.1/901 2013/11/27
 10  9  0  0  0  0  0  0  0  0999 V2000
   26.5037   14.7335    9.2322 N   0  0  0  0  0  0  0  0  0  0  0  0
   25.3066   14.3398    8.4306 C   0  0  2  0  0  0  0  0  0  0  0  0
   25.2793   15.0576    7.0816 C   0  0  0  0  0  0  0  0  0  0  0  0
   24.8135   16.1906    6.9736 O   0  0  0  0  0  0  0  0  0  0  0  0
   24.0158   14.5729    9.2246 C   0  0  0  0  0  0  0  0  0  0  0  0
   23.8925   13.6603   10.4443 C   0  0  0  0  0  0  0  0  0  0  0  0
   22.5915   13.8759   11.2054 C   0  0  0  0  0  0  0  0  0  0  0  0
   22.5145   12.9729   12.4325 C   0  0  0  0  0  0  0  0  0  0  0  0
   21.2387   13.1376   13.2112 N   0  0  0  0  0  0  0  0  0  0  0  0
   25.7419   14.5512    6.0551 O   0  0  0  0  0  0  0  0  0  0  0  0
  2  1  1  1  0  0  0
  2  3  1  0  0  0  0
  2  5  1  0  0  0  0
  3  4  1  0  0  0  0
  3 10  1  0  0  0  0
  5  6  1  0  0  0  0
  6  7  1  0  0  0  0
  7  8  1  0  0  0  0
  8  9  1  0  0  0  0
M  END
>  <CHROM.1>
-84.20909622,-66.31113134,-178.57130957,-178.73357243,-179.36202609,24.19675668
14.32812154,9.38777263,-1.02266318,-0.15661213,1.99693745

>  <Name>
ligand

>  <RI>
0

>  <Rbt.Current_Directory>
/home/itssahil/PROJECTS/Mol_Feturizer/New_Systems/rnas/3DIL

>  <Rbt.Executable>
rbdock ($Id: //depot/dev/client3/rdock/2013.1/src/exe/rbdock.cxx#4 $)

>  <Rbt.Library>
libRbt.so (2013.1, Build901 2013/11/27)

>  <Rbt.Parameter_File>
/export/apps/rDock/src/rDock_2013.1_src/data/scripts/dock_solv.prm

>  <Rbt.Receptor>
prm/blind_docking_40.prm

>  <SCORE>
-6.42828

>  <SCORE.INTER>
-5.57435

>  <SCORE.INTER.CONST>
1

>  <SCORE.INTER.POLAR>
0

>  <SCORE.INTER.ROT>
5

>  <SCORE.INTER.SOLV>
7.85687

>  <SCORE.INTER.VDW>
-13.2685

>  <SCORE.INTER.norm>
-0.557435

>  <SCORE.INTRA>
-0.853931

>  <SCORE.INTRA.DIHEDRAL>
-1.29395

>  <SCORE.INTRA.DIHEDRAL.0>
2.93688

>  <SCORE.INTRA.POLAR>
0

>  <SCORE.INTRA.POLAR.0>
0

>  <SCORE.INTRA.REPUL>
0

>  <SCORE.INTRA.REPUL.0>
0

>  <SCORE.INTRA.SOLV>
-0.690893

>  <SCORE.INTRA.SOLV.lig_0>
-32.2816

>  <SCORE.INTRA.VDW>
0.138489

>  <SCORE.INTRA.VDW.0>
-0.749945

>  <SCORE.INTRA.norm>
-0.0853931

>  <SCORE.RESTR>
0

>  <SCORE.RESTR.CAVITY>
0

>  <SCORE.RESTR.norm>
0

>  <SCORE.SYSTEM>
0

>  <SCORE.SYSTEM.CONST>
0

>  <SCORE.SYSTEM.DIHEDRAL>
0

>  <SCORE.SYSTEM.SOLV>
0

>  <SCORE.SYSTEM.norm>
0

>  <SCORE.heavy>
10

>  <SCORE.norm>
-0.642828

>  <RMSD>
13.534

$$$$
ligand
 OpenBabel11021811473D
libRbt.so/2013.1/901 2013/11/27
 10  9  0  0  0  0  0  0  0  0999 V2000
   26.2395   13.6686    6.9076 N   0  0  0  0  0  0  0  0  0  0  0  0
   25.2393   14.0582    7.9460 C   0  0  2  0  0  0  0  0  0  0  0  0
   24.6770   15.4545    7.6812 C   0  0  0  0  0  0  0  0  0  0  0  0
   25.3108   16.4634    7.9859 O   0  0  0  0  0  0  0  0  0  0  0  0
   25.8383   13.9443    9.3527 C   0  0  0  0  0  0  0  0  0  0  0  0
   24.8813   14.4128   10.4484 C   0  0  0  0  0  0  0  0  0  0  0  0
   23.6617   13.5112   10.5828 C   0  0  0  0  0  0  0  0  0  0  0  0
   22.8016   13.9212   11.7741 C   0  0  0  0  0  0  0  0  0  0  0  0
   21.6087   13.0291   11.9795 N   0  0  0  0  0  0  0  0  0  0  0  0
   23.5862   15.6334    7.1315 O   0  0  0  0  0  0  0  0  0  0  0  0
  2  1  1  6  0  0  0
  2  3  1  0  0  0  0
  2  5  1  0  0  0  0
  3  4  1  0  0  0  0
  3 10  1  0  0  0  0
  5  6  1  0  0  0  0
  6  7  1  0  0  0  0
  7  8  1  0  0  0  0
  8  9  1  0  0  0  0
M  END
>  <CHROM.1>
-79.36400226,176.53394100,66.60589002,174.19067980,-177.92716819,24.37608807
14.44338199,9.16380261,-0.95542135,-0.48432253,2.25292617

>  <Name>
ligand

>  <RI>
0

>  <Rbt.Current_Directory>
/home/itssahil/PROJECTS/Mol_Feturizer/New_Systems/rnas/3DIL

>  <Rbt.Executable>
rbdock ($Id: //depot/dev/client3/rdock/2013.1/src/exe/rbdock.cxx#4 $)

>  <Rbt.Library>
libRbt.so (2013.1, Build901 2013/11/27)

>  <Rbt.Parameter_File>
/export/apps/rDock/src/rDock_2013.1_src/data/scripts/dock_solv.prm

>  <Rbt.Receptor>
prm/blind_docking_40.prm

>  <SCORE>
-5.64286

>  <SCORE.INTER>
-4.88103

>  <SCORE.INTER.CONST>
1

>  <SCORE.INTER.POLAR>
0

>  <SCORE.INTER.ROT>
5

>  <SCORE.INTER.SOLV>
10.0037

>  <SCORE.INTER.VDW>
-13.5219

>  <SCORE.INTER.norm>
-0.488103

>  <SCORE.INTRA>
-0.761831

>  <SCORE.INTRA.DIHEDRAL>
-1.08288

>  <SCORE.INTRA.DIHEDRAL.0>
2.93688

>  <SCORE.INTRA.POLAR>
0

>  <SCORE.INTRA.POLAR.0>
0

>  <SCORE.INTRA.REPUL>
0

>  <SCORE.INTRA.REPUL.0>
0

>  <SCORE.INTRA.SOLV>
-1.32635

>  <SCORE.INTRA.SOLV.lig_0>
-32.2816

>  <SCORE.INTRA.VDW>
0.442787

>  <SCORE.INTRA.VDW.0>
-0.749945

>  <SCORE.INTRA.norm>
-0.0761831

>  <SCORE.RESTR>
0

>  <SCORE.RESTR.CAVITY>
0

>  <SCORE.RESTR.norm>
0

>  <SCORE.SYSTEM>
0

>  <SCORE.SYSTEM.CONST>
0

>  <SCORE.SYSTEM.DIHEDRAL>
0

>  <SCORE.SYSTEM.SOLV>
0

>  <SCORE.SYSTEM.norm>
0

>  <SCORE.heavy>
10

>  <SCORE.norm>
-0.564286

>  <RMSD>
13.585

$$$$
ligand
 OpenBabel11021811473D
libRbt.so/2013.1/901 2013/11/27
 10  9  0  0  0  0  0  0  0  0999 V2000
   25.7169   13.9213    6.1364 N   0  0  0  0  0  0  0  0  0  0  0  0
   25.2772   14.1092    7.5513 C   0  0  2  0  0  0  0  0  0  0  0  0
   24.5360   15.4335    7.7327 C   0  0  0  0  0  0  0  0  0  0  0  0
   23.6579   15.5590    8.5846 O   0  0  0  0  0  0  0  0  0  0  0  0
   26.4642   13.9860    8.5140 C   0  0  0  0  0  0  0  0  0  0  0  0
   26.0682   14.1806    9.9773 C   0  0  0  0  0  0  0  0  0  0  0  0
   27.2426   13.9979   10.9290 C   0  0  0  0  0  0  0  0  0  0  0  0
   28.3367   15.0259   10.6582 C   0  0  0  0  0  0  0  0  0  0  0  0
   27.8681   16.4461   10.8144 N   0  0  0  0  0  0  0  0  0  0  0  0
   24.7987   16.4344    7.0596 O   0  0  0  0  0  0  0  0  0  0  0  0
  2  1  1  6  0  0  0
  2  3  1  0  0  0  0
  2  5  1  0  0  0  0
  3  4  1  0  0  0  0
  3 10  1  0  0  0  0
  5  6  1  0  0  0  0
  6  7  1  0  0  0  0
  7  8  1  0  0  0  0
  8  9  1  0  0  0  0
M  END
>  <CHROM.1>
150.08085520,179.59547452,177.57266112,61.68516620,59.77070621,25.97298609
14.93794934,8.79268411,-2.63989871,-0.73984054,0.71985367

>  <Name>
ligand

>  <RI>
0

>  <Rbt.Current_Directory>
/home/itssahil/PROJECTS/Mol_Feturizer/New_Systems/rnas/3DIL

>  <Rbt.Executable>
rbdock ($Id: //depot/dev/client3/rdock/2013.1/src/exe/rbdock.cxx#4 $)

>  <Rbt.Library>
libRbt.so (2013.1, Build901 2013/11/27)

>  <Rbt.Parameter_File>
/export/apps/rDock/src/rDock_2013.1_src/data/scripts/dock_solv.prm

>  <Rbt.Receptor>
prm/blind_docking_40.prm

>  <SCORE>
-5.46736

>  <SCORE.INTER>
-5.74313

>  <SCORE.INTER.CONST>
1

>  <SCORE.INTER.POLAR>
0

>  <SCORE.INTER.ROT>
5

>  <SCORE.INTER.SOLV>
15.1044

>  <SCORE.INTER.VDW>
-15.7969

>  <SCORE.INTER.norm>
-0.574313

>  <SCORE.INTRA>
0.275775

>  <SCORE.INTRA.DIHEDRAL>
-1.44375

>  <SCORE.INTRA.DIHEDRAL.0>
2.93688

>  <SCORE.INTRA.POLAR>
0

>  <SCORE.INTRA.POLAR.0>
0

>  <SCORE.INTRA.REPUL>
0

>  <SCORE.INTRA.REPUL.0>
0

>  <SCORE.INTRA.SOLV>
0.0611984

>  <SCORE.INTRA.SOLV.lig_0>
-32.2816

>  <SCORE.INTRA.VDW>
0.967049

>  <SCORE.INTRA.VDW.0>
-0.749945

>  <SCORE.INTRA.norm>
0.0275775

>  <SCORE.RESTR>
0

>  <SCORE.RESTR.CAVITY>
0

>  <SCORE.RESTR.norm>
0

>  <SCORE.SYSTEM>
0

>  <SCORE.SYSTEM.CONST>
0

>  <SCORE.SYSTEM.DIHEDRAL>
0

>  <SCORE.SYSTEM.SOLV>
0

>  <SCORE.SYSTEM.norm>
0

>  <SCORE.heavy>
10

>  <SCORE.norm>
-0.546736

>  <RMSD>
13.609

$$$$
ligand
 OpenBabel11021811473D
libRbt.so/2013.1/901 2013/11/27
 10  9  0  0  0  0  0  0  0  0999 V2000
   25.7584   14.0060    6.0835 N   0  0  0  0  0  0  0  0  0  0  0  0
   25.3112   14.1489    7.5013 C   0  0  2  0  0  0  0  0  0  0  0  0
   24.5480   15.4556    7.7154 C   0  0  0  0  0  0  0  0  0  0  0  0
   24.7756   16.4456    7.0222 O   0  0  0  0  0  0  0  0  0  0  0  0
   26.4969   14.0190    8.4647 C   0  0  0  0  0  0  0  0  0  0  0  0
   26.0918   14.1593    9.9317 C   0  0  0  0  0  0  0  0  0  0  0  0
   27.2556   13.9202   10.8840 C   0  0  0  0  0  0  0  0  0  0  0  0
   28.3569   14.9560   10.6796 C   0  0  0  0  0  0  0  0  0  0  0  0
   27.8830   16.3706   10.8673 N   0  0  0  0  0  0  0  0  0  0  0  0
   23.6599   15.5696    8.5652 O   0  0  0  0  0  0  0  0  0  0  0  0
  2  1  1  6  0  0  0
  2  3  1  0  0  0  0
  2  5  1  0  0  0  0
  3  4  1  0  0  0  0
  3 10  1  0  0  0  0
  5  6  1  0  0  0  0
  6  7  1  0  0  0  0
  7  8  1  0  0  0  0
  8  9  1  0  0  0  0
M  END
>  <CHROM.1>
-28.32240347,179.95287015,175.49102887,62.61609889,58.07318579,25.98926070
14.93336208,8.76839286,-2.61132160,-0.72757018,0.79339035

>  <Name>
ligand

>  <RI>
0

>  <Rbt.Current_Directory>
/home/itssahil/PROJECTS/Mol_Feturizer/New_Systems/rnas/3DIL

>  <Rbt.Executable>
rbdock ($Id: //depot/dev/client3/rdock/2013.1/src/exe/rbdock.cxx#4 $)

>  <Rbt.Library>
libRbt.so (2013.1, Build901 2013/11/27)

>  <Rbt.Parameter_File>
/export/apps/rDock/src/rDock_2013.1_src/data/scripts/dock_solv.prm

>  <Rbt.Receptor>
prm/blind_docking_40.prm

>  <SCORE>
-5.3351

>  <SCORE.INTER>
-5.70747

>  <SCORE.INTER.CONST>
1

>  <SCORE.INTER.POLAR>
0

>  <SCORE.INTER.ROT>
5

>  <SCORE.INTER.SOLV>
14.814

>  <SCORE.INTER.VDW>
-15.6763

>  <SCORE.INTER.norm>
-0.570747

>  <SCORE.INTRA>
0.372367

>  <SCORE.INTRA.DIHEDRAL>
-1.24594

>  <SCORE.INTRA.DIHEDRAL.0>
2.93688

>  <SCORE.INTRA.POLAR>
0

>  <SCORE.INTRA.POLAR.0>
0

>  <SCORE.INTRA.REPUL>
0

>  <SCORE.INTRA.REPUL.0>
0

>  <SCORE.INTRA.SOLV>
0.0986378

>  <SCORE.INTRA.SOLV.lig_0>
-32.2816

>  <SCORE.INTRA.VDW>
0.946016

>  <SCORE.INTRA.VDW.0>
-0.749945

>  <SCORE.INTRA.norm>
0.0372367

>  <SCORE.RESTR>
0

>  <SCORE.RESTR.CAVITY>
0

>  <SCORE.RESTR.norm>
0

>  <SCORE.SYSTEM>
0

>  <SCORE.SYSTEM.CONST>
0

>  <SCORE.SYSTEM.DIHEDRAL>
0

>  <SCORE.SYSTEM.SOLV>
0

>  <SCORE.SYSTEM.norm>
0

>  <SCORE.heavy>
10

>  <SCORE.norm>
-0.53351

>  <RMSD>
13.626

$$$$
ligand
 OpenBabel11021811473D
libRbt.so/2013.1/901 2013/11/27
 10  9  0  0  0  0  0  0  0  0999 V2000
   26.4825   14.1617   10.9858 N   0  0  0  0  0  0  0  0  0  0  0  0
   26.8666   14.2255    9.5439 C   0  0  2  0  0  0  0  0  0  0  0  0
   27.9519   15.2742    9.3027 C   0  0  0  0  0  0  0  0  0  0  0  0
   28.8627   15.0738    8.5010 O   0  0  0  0  0  0  0  0  0  0  0  0
   25.6370   14.4666    8.6603 C   0  0  0  0  0  0  0  0  0  0  0  0
   25.6439   13.6237    7.3854 C   0  0  0  0  0  0  0  0  0  0  0  0
   26.7465   14.0356    6.4194 C   0  0  0  0  0  0  0  0  0  0  0  0
   26.5574   13.3800    5.0550 C   0  0  0  0  0  0  0  0  0  0  0  0
   27.4976   13.9086    4.0074 N   0  0  0  0  0  0  0  0  0  0  0  0
   27.9505   16.3687    9.8738 O   0  0  0  0  0  0  0  0  0  0  0  0
  2  1  1  1  0  0  0
  2  3  1  0  0  0  0
  2  5  1  0  0  0  0
  3  4  1  0  0  0  0
  3 10  1  0  0  0  0
  5  6  1  0  0  0  0
  6  7  1  0  0  0  0
  7  8  1  0  0  0  0
  8  9  1  0  0  0  0
M  END
>  <CHROM.1>
141.57233758,-138.45185381,-67.73461209,-168.52903132,171.47520091,27.04623018
14.47731361,7.97733193,1.46180020,0.54245169,1.35535610

>  <Name>
ligand

>  <RI>
0

>  <Rbt.Current_Directory>
/home/itssahil/PROJECTS/Mol_Feturizer/New_Systems/rnas/3DIL

>  <Rbt.Executable>
rbdock ($Id: //depot/dev/client3/rdock/2013.1/src/exe/rbdock.cxx#4 $)

>  <Rbt.Library>
libRbt.so (2013.1, Build901 2013/11/27)

>  <Rbt.Parameter_File>
/export/apps/rDock/src/rDock_2013.1_src/data/scripts/dock_solv.prm

>  <Rbt.Receptor>
prm/blind_docking_40.prm

>  <SCORE>
-2.73664

>  <SCORE.INTER>
-3.8605

>  <SCORE.INTER.CONST>
1

>  <SCORE.INTER.POLAR>
0

>  <SCORE.INTER.ROT>
5

>  <SCORE.INTER.SOLV>
8.43789

>  <SCORE.INTER.VDW>
-12.3196

>  <SCORE.INTER.norm>
-0.38605

>  <SCORE.INTRA>
1.12378

>  <SCORE.INTRA.DIHEDRAL>
4.04401

>  <SCORE.INTRA.DIHEDRAL.0>
2.93688

>  <SCORE.INTRA.POLAR>
0

>  <SCORE.INTRA.POLAR.0>
0

>  <SCORE.INTRA.REPUL>
0

>  <SCORE.INTRA.REPUL.0>
0

>  <SCORE.INTRA.SOLV>
-1.28094

>  <SCORE.INTRA.SOLV.lig_0>
-32.2816

>  <SCORE.INTRA.VDW>
-0.25776

>  <SCORE.INTRA.VDW.0>
-0.749945

>  <SCORE.INTRA.norm>
0.112378

>  <SCORE.RESTR>
8.96182e-05

>  <SCORE.RESTR.CAVITY>
8.96182e-05

>  <SCORE.RESTR.norm>
8.96182e-06

>  <SCORE.SYSTEM>
0

>  <SCORE.SYSTEM.CONST>
0

>  <SCORE.SYSTEM.DIHEDRAL>
0

>  <SCORE.SYSTEM.SOLV>
0

>  <SCORE.SYSTEM.norm>
0

>  <SCORE.heavy>
10

>  <SCORE.norm>
-0.273664

>  <RMSD>
13.687

$$$$
ligand
 OpenBabel11021811473D
libRbt.so/2013.1/901 2013/11/27
 10  9  0  0  0  0  0  0  0  0999 V2000
   26.1732   14.1277    6.4257 N   0  0  0  0  0  0  0  0  0  0  0  0
   25.0716   14.0395    7.4305 C   0  0  2  0  0  0  0  0  0  0  0  0
   24.3605   15.3822    7.5963 C   0  0  0  0  0  0  0  0  0  0  0  0
   24.6431   16.3435    6.8833 O   0  0  0  0  0  0  0  0  0  0  0  0
   25.5936   13.5039    8.7690 C   0  0  0  0  0  0  0  0  0  0  0  0
   26.5417   14.4753    9.4714 C   0  0  0  0  0  0  0  0  0  0  0  0
   27.1184   13.9005   10.7580 C   0  0  0  0  0  0  0  0  0  0  0  0
   28.0977   14.8739   11.4064 C   0  0  0  0  0  0  0  0  0  0  0  0
   29.1555   15.3700   10.4599 N   0  0  0  0  0  0  0  0  0  0  0  0
   23.4618   15.5551    8.4248 O   0  0  0  0  0  0  0  0  0  0  0  0
  2  1  1  6  0  0  0
  2  3  1  0  0  0  0
  2  5  1  0  0  0  0
  3  4  1  0  0  0  0
  3 10  1  0  0  0  0
  5  6  1  0  0  0  0
  6  7  1  0  0  0  0
  7  8  1  0  0  0  0
  8  9  1  0  0  0  0
M  END
>  <CHROM.1>
5.18642705,67.78676286,-176.60243267,177.94486735,-51.55981778,25.99671028
14.78668927,8.75780745,-2.47257407,-0.40644445,1.26149647

>  <Name>
ligand

>  <RI>
0

>  <Rbt.Current_Directory>
/home/itssahil/PROJECTS/Mol_Feturizer/New_Systems/rnas/3DIL

>  <Rbt.Executable>
rbdock ($Id: //depot/dev/client3/rdock/2013.1/src/exe/rbdock.cxx#4 $)

>  <Rbt.Library>
libRbt.so (2013.1, Build901 2013/11/27)

>  <Rbt.Parameter_File>
/export/apps/rDock/src/rDock_2013.1_src/data/scripts/dock_solv.prm

>  <Rbt.Receptor>
prm/blind_docking_40.prm

>  <SCORE>
-4.27682

>  <SCORE.INTER>
-4.50102

>  <SCORE.INTER.CONST>
1

>  <SCORE.INTER.POLAR>
0

>  <SCORE.INTER.ROT>
5

>  <SCORE.INTER.SOLV>
13.1205

>  <SCORE.INTER.VDW>
-14.3075

>  <SCORE.INTER.norm>
-0.450102

>  <SCORE.INTRA>
0.224201

>  <SCORE.INTRA.DIHEDRAL>
-0.889976

>  <SCORE.INTRA.DIHEDRAL.0>
2.93688

>  <SCORE.INTRA.POLAR>
0

>  <SCORE.INTRA.POLAR.0>
0

>  <SCORE.INTRA.REPUL>
0

>  <SCORE.INTRA.REPUL.0>
0

>  <SCORE.INTRA.SOLV>
0.395918

>  <SCORE.INTRA.SOLV.lig_0>
-32.2816

>  <SCORE.INTRA.VDW>
0.471229

>  <SCORE.INTRA.VDW.0>
-0.749945

>  <SCORE.INTRA.norm>
0.0224201

>  <SCORE.RESTR>
0

>  <SCORE.RESTR.CAVITY>
0

>  <SCORE.RESTR.norm>
0

>  <SCORE.SYSTEM>
0

>  <SCORE.SYSTEM.CONST>
0

>  <SCORE.SYSTEM.DIHEDRAL>
0

>  <SCORE.SYSTEM.SOLV>
0

>  <SCORE.SYSTEM.norm>
0

>  <SCORE.heavy>
10

>  <SCORE.norm>
-0.427682

>  <RMSD>
13.688

$$$$
ligand
 OpenBabel11021811473D
libRbt.so/2013.1/901 2013/11/27
 10  9  0  0  0  0  0  0  0  0999 V2000
   25.7553   13.2334    9.5607 N   0  0  0  0  0  0  0  0  0  0  0  0
   24.7841   14.3108    9.9167 C   0  0  2  0  0  0  0  0  0  0  0  0
   23.7979   13.8404   10.9854 C   0  0  0  0  0  0  0  0  0  0  0  0
   23.0622   12.8744   10.7905 O   0  0  0  0  0  0  0  0  0  0  0  0
   24.0630   14.8318    8.6680 C   0  0  0  0  0  0  0  0  0  0  0  0
   25.0133   15.1157    7.5051 C   0  0  0  0  0  0  0  0  0  0  0  0
   25.5017   13.8432    6.8265 C   0  0  0  0  0  0  0  0  0  0  0  0
   26.4329   14.1624    5.6611 C   0  0  0  0  0  0  0  0  0  0  0  0
   27.0418   12.9381    5.0357 N   0  0  0  0  0  0  0  0  0  0  0  0
   23.7133   14.3842   12.0904 O   0  0  0  0  0  0  0  0  0  0  0  0
  2  1  1  6  0  0  0
  2  3  1  0  0  0  0
  2  5  1  0  0  0  0
  3  4  1  0  0  0  0
  3 10  1  0  0  0  0
  5  6  1  0  0  0  0
  6  7  1  0  0  0  0
  7  8  1  0  0  0  0
  8  9  1  0  0  0  0
M  END
>  <CHROM.1>
-59.57981650,-46.59540122,74.90145799,179.28647223,174.76380909,24.89031871
13.94369683,8.73966736,-2.51010971,0.98870723,-0.73985219

>  <Name>
ligand

>  <RI>
0

>  <Rbt.Current_Directory>
/home/itssahil/PROJECTS/Mol_Feturizer/New_Systems/rnas/3DIL

>  <Rbt.Executable>
rbdock ($Id: //depot/dev/client3/rdock/2013.1/src/exe/rbdock.cxx#4 $)

>  <Rbt.Library>
libRbt.so (2013.1, Build901 2013/11/27)

>  <Rbt.Parameter_File>
/export/apps/rDock/src/rDock_2013.1_src/data/scripts/dock_solv.prm

>  <Rbt.Receptor>
prm/blind_docking_40.prm

>  <SCORE>
-1.907

>  <SCORE.INTER>
-3.33164

>  <SCORE.INTER.CONST>
1

>  <SCORE.INTER.POLAR>
0

>  <SCORE.INTER.ROT>
5

>  <SCORE.INTER.SOLV>
9.2268

>  <SCORE.INTER.VDW>
-12.23

>  <SCORE.INTER.norm>
-0.333164

>  <SCORE.INTRA>
1.42465

>  <SCORE.INTRA.DIHEDRAL>
0.208325

>  <SCORE.INTRA.DIHEDRAL.0>
2.93688

>  <SCORE.INTRA.POLAR>
0

>  <SCORE.INTRA.POLAR.0>
0

>  <SCORE.INTRA.REPUL>
0

>  <SCORE.INTRA.REPUL.0>
0

>  <SCORE.INTRA.SOLV>
1.14582

>  <SCORE.INTRA.SOLV.lig_0>
-32.2816

>  <SCORE.INTRA.VDW>
0.747575

>  <SCORE.INTRA.VDW.0>
-0.749945

>  <SCORE.INTRA.norm>
0.142465

>  <SCORE.RESTR>
0

>  <SCORE.RESTR.CAVITY>
0

>  <SCORE.RESTR.norm>
0

>  <SCORE.SYSTEM>
0

>  <SCORE.SYSTEM.CONST>
0

>  <SCORE.SYSTEM.DIHEDRAL>
0

>  <SCORE.SYSTEM.SOLV>
0

>  <SCORE.SYSTEM.norm>
0

>  <SCORE.heavy>
10

>  <SCORE.norm>
-0.1907

>  <RMSD>
14.100

$$$$
ligand
 OpenBabel11021811473D
libRbt.so/2013.1/901 2013/11/27
 10  9  0  0  0  0  0  0  0  0999 V2000
   19.8053   15.7724   12.8974 N   0  0  0  0  0  0  0  0  0  0  0  0
   20.6648   15.1423   11.8511 C   0  0  2  0  0  0  0  0  0  0  0  0
   19.8214   14.5084   10.7453 C   0  0  0  0  0  0  0  0  0  0  0  0
   19.9760   14.8249    9.5671 O   0  0  0  0  0  0  0  0  0  0  0  0
   21.6351   14.1324   12.4753 C   0  0  0  0  0  0  0  0  0  0  0  0
   22.5177   13.4351   11.4406 C   0  0  0  0  0  0  0  0  0  0  0  0
   23.3965   14.4111   10.6704 C   0  0  0  0  0  0  0  0  0  0  0  0
   24.2419   13.6869    9.6273 C   0  0  0  0  0  0  0  0  0  0  0  0
   25.1163   14.6115    8.8263 N   0  0  0  0  0  0  0  0  0  0  0  0
   18.9746   13.6403   10.9767 O   0  0  0  0  0  0  0  0  0  0  0  0
  2  1  1  1  0  0  0
  2  3  1  0  0  0  0
  2  5  1  0  0  0  0
  3  4  1  0  0  0  0
  3 10  1  0  0  0  0
  5  6  1  0  0  0  0
  6  7  1  0  0  0  0
  7  8  1  0  0  0  0
  8  9  1  0  0  0  0
M  END
>  <CHROM.1>
124.07740007,178.70794510,60.98240611,-178.80392468,179.26422246,21.58730552
14.40467819,10.88556443,-2.74360232,0.05971150,-1.69760586

>  <Name>
ligand

>  <RI>
0

>  <Rbt.Current_Directory>
/home/itssahil/PROJECTS/Mol_Feturizer/New_Systems/rnas/3DIL

>  <Rbt.Executable>
rbdock ($Id: //depot/dev/client3/rdock/2013.1/src/exe/rbdock.cxx#4 $)

>  <Rbt.Library>
libRbt.so (2013.1, Build901 2013/11/27)

>  <Rbt.Parameter_File>
/export/apps/rDock/src/rDock_2013.1_src/data/scripts/dock_solv.prm

>  <Rbt.Receptor>
prm/blind_docking_40.prm

>  <SCORE>
-3.18067

>  <SCORE.INTER>
-2.04999

>  <SCORE.INTER.CONST>
1

>  <SCORE.INTER.POLAR>
0

>  <SCORE.INTER.ROT>
5

>  <SCORE.INTER.SOLV>
8.32573

>  <SCORE.INTER.VDW>
-11.0752

>  <SCORE.INTER.norm>
-0.204999

>  <SCORE.INTRA>
-1.13069

>  <SCORE.INTRA.DIHEDRAL>
-1.41347

>  <SCORE.INTRA.DIHEDRAL.0>
2.93688

>  <SCORE.INTRA.POLAR>
0

>  <SCORE.INTRA.POLAR.0>
0

>  <SCORE.INTRA.REPUL>
0

>  <SCORE.INTRA.REPUL.0>
0

>  <SCORE.INTRA.SOLV>
-1.29238

>  <SCORE.INTRA.SOLV.lig_0>
-32.2816

>  <SCORE.INTRA.VDW>
0.222238

>  <SCORE.INTRA.VDW.0>
-0.749945

>  <SCORE.INTRA.norm>
-0.113069

>  <SCORE.RESTR>
0

>  <SCORE.RESTR.CAVITY>
0

>  <SCORE.RESTR.norm>
0

>  <SCORE.SYSTEM>
0

>  <SCORE.SYSTEM.CONST>
0

>  <SCORE.SYSTEM.DIHEDRAL>
0

>  <SCORE.SYSTEM.SOLV>
0

>  <SCORE.SYSTEM.norm>
0

>  <SCORE.heavy>
10

>  <SCORE.norm>
-0.318067

>  <RMSD>
14.266

$$$$
ligand
 OpenBabel11021811473D
libRbt.so/2013.1/901 2013/11/27
 10  9  0  0  0  0  0  0  0  0999 V2000
   19.1577   14.7180   12.8871 N   0  0  0  0  0  0  0  0  0  0  0  0
   20.3234   14.6888   11.9539 C   0  0  2  0  0  0  0  0  0  0  0  0
   19.8683   14.6213   10.4965 C   0  0  0  0  0  0  0  0  0  0  0  0
   18.8433   14.0213   10.1777 O   0  0  0  0  0  0  0  0  0  0  0  0
   21.2769   13.5406   12.3052 C   0  0  0  0  0  0  0  0  0  0  0  0
   22.7401   13.8684   12.0094 C   0  0  0  0  0  0  0  0  0  0  0  0
   23.0279   13.9581   10.5170 C   0  0  0  0  0  0  0  0  0  0  0  0
   24.5009   14.2573   10.2566 C   0  0  0  0  0  0  0  0  0  0  0  0
   24.8383   14.3481    8.7941 N   0  0  0  0  0  0  0  0  0  0  0  0
   20.4856   15.1813    9.5857 O   0  0  0  0  0  0  0  0  0  0  0  0
  2  1  1  1  0  0  0
  2  3  1  0  0  0  0
  2  5  1  0  0  0  0
  3  4  1  0  0  0  0
  3 10  1  0  0  0  0
  5  6  1  0  0  0  0
  6  7  1  0  0  0  0
  7  8  1  0  0  0  0
  8  9  1  0  0  0  0
M  END
>  <CHROM.1>
-33.15797862,-147.41509422,-69.28794127,-178.81403388,179.67264543,21.48644912
14.32116803,10.86813694,-2.83748170,0.11400772,-1.38719215

>  <Name>
ligand

>  <RI>
0

>  <Rbt.Current_Directory>
/home/itssahil/PROJECTS/Mol_Feturizer/New_Systems/rnas/3DIL

>  <Rbt.Executable>
rbdock ($Id: //depot/dev/client3/rdock/2013.1/src/exe/rbdock.cxx#4 $)

>  <Rbt.Library>
libRbt.so (2013.1, Build901 2013/11/27)

>  <Rbt.Parameter_File>
/export/apps/rDock/src/rDock_2013.1_src/data/scripts/dock_solv.prm

>  <Rbt.Receptor>
prm/blind_docking_40.prm

>  <SCORE>
-2.31787

>  <SCORE.INTER>
-2.65912

>  <SCORE.INTER.CONST>
1

>  <SCORE.INTER.POLAR>
0

>  <SCORE.INTER.ROT>
5

>  <SCORE.INTER.SOLV>
5.64549

>  <SCORE.INTER.VDW>
-10.5879

>  <SCORE.INTER.norm>
-0.265912

>  <SCORE.INTRA>
0.341245

>  <SCORE.INTRA.DIHEDRAL>
2.199

>  <SCORE.INTRA.DIHEDRAL.0>
2.93688

>  <SCORE.INTRA.POLAR>
0

>  <SCORE.INTRA.POLAR.0>
0

>  <SCORE.INTRA.REPUL>
0

>  <SCORE.INTRA.REPUL.0>
0

>  <SCORE.INTRA.SOLV>
-1.32689

>  <SCORE.INTRA.SOLV.lig_0>
-32.2816

>  <SCORE.INTRA.VDW>
-0.0948088

>  <SCORE.INTRA.VDW.0>
-0.749945

>  <SCORE.INTRA.norm>
0.0341245

>  <SCORE.RESTR>
0

>  <SCORE.RESTR.CAVITY>
0

>  <SCORE.RESTR.norm>
0

>  <SCORE.SYSTEM>
0

>  <SCORE.SYSTEM.CONST>
0

>  <SCORE.SYSTEM.DIHEDRAL>
0

>  <SCORE.SYSTEM.SOLV>
0

>  <SCORE.SYSTEM.norm>
0

>  <SCORE.heavy>
10

>  <SCORE.norm>
-0.231787

>  <RMSD>
14.353

$$$$
ligand
 OpenBabel11021811473D
libRbt.so/2013.1/901 2013/11/27
 10  9  0  0  0  0  0  0  0  0999 V2000
   13.9369   23.2705   13.5043 N   0  0  0  0  0  0  0  0  0  0  0  0
   15.2922   23.1660   12.8853 C   0  0  2  0  0  0  0  0  0  0  0  0
   15.4691   24.1824   11.7577 C   0  0  0  0  0  0  0  0  0  0  0  0
   14.5441   24.4512   10.9932 O   0  0  0  0  0  0  0  0  0  0  0  0
   15.5671   21.7349   12.4086 C   0  0  0  0  0  0  0  0  0  0  0  0
   15.8726   20.7723   13.5557 C   0  0  0  0  0  0  0  0  0  0  0  0
   16.3224   19.4031   13.0645 C   0  0  0  0  0  0  0  0  0  0  0  0
   16.6555   18.4803   14.2327 C   0  0  0  0  0  0  0  0  0  0  0  0
   17.1435   17.1260   13.7984 N   0  0  0  0  0  0  0  0  0  0  0  0
   16.5269   24.7935   11.5801 O   0  0  0  0  0  0  0  0  0  0  0  0
  2  1  1  6  0  0  0
  2  3  1  0  0  0  0
  2  5  1  0  0  0  0
  3  4  1  0  0  0  0
  3 10  1  0  0  0  0
  5  6  1  0  0  0  0
  6  7  1  0  0  0  0
  7  8  1  0  0  0  0
  8  9  1  0  0  0  0
M  END
>  <CHROM.1>
-37.97086475,-74.84510468,-172.45717455,178.44398314,-178.34116965,15.73448223
21.77398689,12.74990034,1.83937045,0.53828334,-0.46094065

>  <Name>
ligand

>  <RI>
0

>  <Rbt.Current_Directory>
/home/itssahil/PROJECTS/Mol_Feturizer/New_Systems/rnas/3DIL

>  <Rbt.Executable>
rbdock ($Id: //depot/dev/client3/rdock/2013.1/src/exe/rbdock.cxx#4 $)

>  <Rbt.Library>
libRbt.so (2013.1, Build901 2013/11/27)

>  <Rbt.Parameter_File>
/export/apps/rDock/src/rDock_2013.1_src/data/scripts/dock_solv.prm

>  <Rbt.Receptor>
prm/blind_docking_60.prm

>  <SCORE>
-2.2082

>  <SCORE.INTER>
-1.47491

>  <SCORE.INTER.CONST>
1

>  <SCORE.INTER.POLAR>
0

>  <SCORE.INTER.ROT>
5

>  <SCORE.INTER.SOLV>
3.45697

>  <SCORE.INTER.VDW>
-9.06893

>  <SCORE.INTER.norm>
-0.147491

>  <SCORE.INTRA>
-0.733285

>  <SCORE.INTRA.DIHEDRAL>
-0.267493

>  <SCORE.INTRA.DIHEDRAL.0>
2.93688

>  <SCORE.INTRA.POLAR>
0

>  <SCORE.INTRA.POLAR.0>
0

>  <SCORE.INTRA.REPUL>
0

>  <SCORE.INTRA.REPUL.0>
0

>  <SCORE.INTRA.SOLV>
-0.819165

>  <SCORE.INTRA.SOLV.lig_0>
-32.2816

>  <SCORE.INTRA.VDW>
-0.189956

>  <SCORE.INTRA.VDW.0>
-0.749945

>  <SCORE.INTRA.norm>
-0.0733285

>  <SCORE.RESTR>
0

>  <SCORE.RESTR.CAVITY>
0

>  <SCORE.RESTR.norm>
0

>  <SCORE.SYSTEM>
0

>  <SCORE.SYSTEM.CONST>
0

>  <SCORE.SYSTEM.DIHEDRAL>
0

>  <SCORE.SYSTEM.SOLV>
0

>  <SCORE.SYSTEM.norm>
0

>  <SCORE.heavy>
10

>  <SCORE.norm>
-0.22082

>  <RMSD>
18.154

$$$$
ligand
 OpenBabel11021811473D
libRbt.so/2013.1/901 2013/11/27
 10  9  0  0  0  0  0  0  0  0999 V2000
   17.5957   28.2040   20.1411 N   0  0  0  0  0  0  0  0  0  0  0  0
   18.9693   28.4819   20.6574 C   0  0  2  0  0  0  0  0  0  0  0  0
   19.6053   27.2257   21.2519 C   0  0  0  0  0  0  0  0  0  0  0  0
   20.8022   26.9869   21.1014 O   0  0  0  0  0  0  0  0  0  0  0  0
   18.9523   29.6400   21.6620 C   0  0  0  0  0  0  0  0  0  0  0  0
   18.3721   30.9278   21.0781 C   0  0  0  0  0  0  0  0  0  0  0  0
   18.3250   32.0602   22.0948 C   0  0  0  0  0  0  0  0  0  0  0  0
   17.7763   33.3393   21.4704 C   0  0  0  0  0  0  0  0  0  0  0  0
   17.7240   34.4940   22.4321 N   0  0  0  0  0  0  0  0  0  0  0  0
   18.9616   26.4156   21.9253 O   0  0  0  0  0  0  0  0  0  0  0  0
  2  1  1  1  0  0  0
  2  3  1  0  0  0  0
  2  5  1  0  0  0  0
  3  4  1  0  0  0  0
  3 10  1  0  0  0  0
  5  6  1  0  0  0  0
  6  7  1  0  0  0  0
  7  8  1  0  0  0  0
  8  9  1  0  0  0  0
M  END
>  <CHROM.1>
142.02520206,-57.36939267,178.44283877,178.48275086,-179.35980393,18.72680655
29.73678165,21.39218934,1.28728185,0.51060111,-2.88466916

>  <Name>
ligand

>  <RI>
0

>  <Rbt.Current_Directory>
/home/itssahil/PROJECTS/Mol_Feturizer/New_Systems/rnas/3DIL

>  <Rbt.Executable>
rbdock ($Id: //depot/dev/client3/rdock/2013.1/src/exe/rbdock.cxx#4 $)

>  <Rbt.Library>
libRbt.so (2013.1, Build901 2013/11/27)

>  <Rbt.Parameter_File>
/export/apps/rDock/src/rDock_2013.1_src/data/scripts/dock_solv.prm

>  <Rbt.Receptor>
prm/blind_docking_80.prm

>  <SCORE>
-0.0133431

>  <SCORE.INTER>
1.03577

>  <SCORE.INTER.CONST>
1

>  <SCORE.INTER.POLAR>
0

>  <SCORE.INTER.ROT>
5

>  <SCORE.INTER.SOLV>
6.75722

>  <SCORE.INTER.VDW>
-8.49523

>  <SCORE.INTER.norm>
0.103577

>  <SCORE.INTRA>
-1.04911

>  <SCORE.INTRA.DIHEDRAL>
-1.43344

>  <SCORE.INTRA.DIHEDRAL.0>
2.93688

>  <SCORE.INTRA.POLAR>
0

>  <SCORE.INTRA.POLAR.0>
0

>  <SCORE.INTRA.REPUL>
0

>  <SCORE.INTRA.REPUL.0>
0

>  <SCORE.INTRA.SOLV>
-0.556094

>  <SCORE.INTRA.SOLV.lig_0>
-32.2816

>  <SCORE.INTRA.VDW>
-0.0543468

>  <SCORE.INTRA.VDW.0>
-0.749945

>  <SCORE.INTRA.norm>
-0.104911

>  <SCORE.RESTR>
0

>  <SCORE.RESTR.CAVITY>
0

>  <SCORE.RESTR.norm>
0

>  <SCORE.SYSTEM>
0

>  <SCORE.SYSTEM.CONST>
0

>  <SCORE.SYSTEM.DIHEDRAL>
0

>  <SCORE.SYSTEM.SOLV>
0

>  <SCORE.SYSTEM.norm>
0

>  <SCORE.heavy>
10

>  <SCORE.norm>
-0.00133431

>  <RMSD>
18.514

$$$$
ligand
 OpenBabel11021811473D
libRbt.so/2013.1/901 2013/11/27
 10  9  0  0  0  0  0  0  0  0999 V2000
   11.6961   25.0910   17.1120 N   0  0  0  0  0  0  0  0  0  0  0  0
   10.7157   26.1821   16.8308 C   0  0  2  0  0  0  0  0  0  0  0  0
    9.4046   25.6237   16.2785 C   0  0  0  0  0  0  0  0  0  0  0  0
    9.2571   25.4209   15.0745 O   0  0  0  0  0  0  0  0  0  0  0  0
   11.3227   27.2358   15.8970 C   0  0  0  0  0  0  0  0  0  0  0  0
   10.4679   28.4979   15.7859 C   0  0  0  0  0  0  0  0  0  0  0  0
   11.1612   29.6055   15.0043 C   0  0  0  0  0  0  0  0  0  0  0  0
   11.2232   29.2746   13.5164 C   0  0  0  0  0  0  0  0  0  0  0  0
   11.9451   30.3159   12.7067 N   0  0  0  0  0  0  0  0  0  0  0  0
    8.4536   25.3285   17.0082 O   0  0  0  0  0  0  0  0  0  0  0  0
  2  1  1  6  0  0  0
  2  3  1  0  0  0  0
  2  5  1  0  0  0  0
  3  4  1  0  0  0  0
  3 10  1  0  0  0  0
  5  6  1  0  0  0  0
  6  7  1  0  0  0  0
  7  8  1  0  0  0  0
  8  9  1  0  0  0  0
M  END
>  <CHROM.1>
-86.70826501,-169.18779966,172.57476690,71.76777463,-177.86851793,10.53207802
27.23584103,15.51597898,-1.92911796,-0.41153980,-0.73754076

>  <Name>
ligand

>  <RI>
0

>  <Rbt.Current_Directory>
/home/itssahil/PROJECTS/Mol_Feturizer/New_Systems/rnas/3DIL

>  <Rbt.Executable>
rbdock ($Id: //depot/dev/client3/rdock/2013.1/src/exe/rbdock.cxx#4 $)

>  <Rbt.Library>
libRbt.so (2013.1, Build901 2013/11/27)

>  <Rbt.Parameter_File>
/export/apps/rDock/src/rDock_2013.1_src/data/scripts/dock_solv.prm

>  <Rbt.Receptor>
prm/blind_docking_40.prm

>  <SCORE>
-1.20325

>  <SCORE.INTER>
-0.963592

>  <SCORE.INTER.CONST>
1

>  <SCORE.INTER.POLAR>
0

>  <SCORE.INTER.ROT>
5

>  <SCORE.INTER.SOLV>
2.37393

>  <SCORE.INTER.VDW>
-8.36704

>  <SCORE.INTER.norm>
-0.0963592

>  <SCORE.INTRA>
-0.239653

>  <SCORE.INTRA.DIHEDRAL>
-0.250403

>  <SCORE.INTRA.DIHEDRAL.0>
2.93688

>  <SCORE.INTRA.POLAR>
0

>  <SCORE.INTRA.POLAR.0>
0

>  <SCORE.INTRA.REPUL>
0

>  <SCORE.INTRA.REPUL.0>
0

>  <SCORE.INTRA.SOLV>
-1.31349

>  <SCORE.INTRA.SOLV.lig_0>
-32.2816

>  <SCORE.INTRA.VDW>
0.542292

>  <SCORE.INTRA.VDW.0>
-0.749945

>  <SCORE.INTRA.norm>
-0.0239653

>  <SCORE.RESTR>
0

>  <SCORE.RESTR.CAVITY>
0

>  <SCORE.RESTR.norm>
0

>  <SCORE.SYSTEM>
0

>  <SCORE.SYSTEM.CONST>
0

>  <SCORE.SYSTEM.DIHEDRAL>
0

>  <SCORE.SYSTEM.SOLV>
0

>  <SCORE.SYSTEM.norm>
0

>  <SCORE.heavy>
10

>  <SCORE.norm>
-0.120325

>  <RMSD>
23.877

$$$$
ligand
 OpenBabel11021811473D
libRbt.so/2013.1/901 2013/11/27
 10  9  0  0  0  0  0  0  0  0999 V2000
   14.2893   38.7405   19.7987 N   0  0  0  0  0  0  0  0  0  0  0  0
   15.4371   38.4374   20.7049 C   0  0  2  0  0  0  0  0  0  0  0  0
   16.4141   39.6105   20.7774 C   0  0  0  0  0  0  0  0  0  0  0  0
   17.2905   39.7614   19.9279 O   0  0  0  0  0  0  0  0  0  0  0  0
   16.1376   37.1397   20.2853 C   0  0  0  0  0  0  0  0  0  0  0  0
   17.2676   36.7383   21.2328 C   0  0  0  0  0  0  0  0  0  0  0  0
   17.5961   35.2537   21.1536 C   0  0  0  0  0  0  0  0  0  0  0  0
   18.4552   34.8153   22.3355 C   0  0  0  0  0  0  0  0  0  0  0  0
   18.5818   33.3218   22.4553 N   0  0  0  0  0  0  0  0  0  0  0  0
   16.3536   40.4658   21.6655 O   0  0  0  0  0  0  0  0  0  0  0  0
  2  1  1  6  0  0  0
  2  3  1  0  0  0  0
  2  5  1  0  0  0  0
  3  4  1  0  0  0  0
  3 10  1  0  0  0  0
  5  6  1  0  0  0  0
  6  7  1  0  0  0  0
  7  8  1  0  0  0  0
  8  9  1  0  0  0  0
M  END
>  <CHROM.1>
-83.90236060,-176.46532125,158.00628171,-165.47161487,168.61758230,16.79837854
37.46553428,21.03304319,2.03371815,-0.51253130,-0.03753019

>  <Name>
ligand

>  <RI>
0

>  <Rbt.Current_Directory>
/home/itssahil/PROJECTS/Mol_Feturizer/New_Systems/rnas/3DIL

>  <Rbt.Executable>
rbdock ($Id: //depot/dev/client3/rdock/2013.1/src/exe/rbdock.cxx#4 $)

>  <Rbt.Library>
libRbt.so (2013.1, Build901 2013/11/27)

>  <Rbt.Parameter_File>
/export/apps/rDock/src/rDock_2013.1_src/data/scripts/dock_solv.prm

>  <Rbt.Receptor>
prm/blind_docking_60.prm

>  <SCORE>
-2.92012

>  <SCORE.INTER>
-3.24938

>  <SCORE.INTER.CONST>
1

>  <SCORE.INTER.POLAR>
0

>  <SCORE.INTER.ROT>
5

>  <SCORE.INTER.SOLV>
10.7513

>  <SCORE.INTER.VDW>
-12.6833

>  <SCORE.INTER.norm>
-0.324938

>  <SCORE.INTRA>
0.329262

>  <SCORE.INTRA.DIHEDRAL>
1.69366

>  <SCORE.INTRA.DIHEDRAL.0>
2.93688

>  <SCORE.INTRA.POLAR>
0

>  <SCORE.INTRA.POLAR.0>
0

>  <SCORE.INTRA.REPUL>
0

>  <SCORE.INTRA.REPUL.0>
0

>  <SCORE.INTRA.SOLV>
-1.5034

>  <SCORE.INTRA.SOLV.lig_0>
-32.2816

>  <SCORE.INTRA.VDW>
0.234132

>  <SCORE.INTRA.VDW.0>
-0.749945

>  <SCORE.INTRA.norm>
0.0329262

>  <SCORE.RESTR>
0

>  <SCORE.RESTR.CAVITY>
0

>  <SCORE.RESTR.norm>
0

>  <SCORE.SYSTEM>
0

>  <SCORE.SYSTEM.CONST>
0

>  <SCORE.SYSTEM.DIHEDRAL>
0

>  <SCORE.SYSTEM.SOLV>
0

>  <SCORE.SYSTEM.norm>
0

>  <SCORE.heavy>
10

>  <SCORE.norm>
-0.292012

>  <RMSD>
25.564

$$$$
ligand
 OpenBabel11021811473D
libRbt.so/2013.1/901 2013/11/27
 10  9  0  0  0  0  0  0  0  0999 V2000
   15.2415   36.6844   19.1972 N   0  0  0  0  0  0  0  0  0  0  0  0
   14.1529   37.2137   20.0720 C   0  0  2  0  0  0  0  0  0  0  0  0
   13.0634   36.1664   20.3005 C   0  0  0  0  0  0  0  0  0  0  0  0
   12.8676   35.6855   21.4153 O   0  0  0  0  0  0  0  0  0  0  0  0
   13.5784   38.5164   19.5029 C   0  0  0  0  0  0  0  0  0  0  0  0
   12.6299   39.2231   20.4708 C   0  0  0  0  0  0  0  0  0  0  0  0
   11.8515   40.3505   19.8064 C   0  0  0  0  0  0  0  0  0  0  0  0
   10.8202   39.8042   18.8240 C   0  0  0  0  0  0  0  0  0  0  0  0
    9.9587   40.8740   18.2122 N   0  0  0  0  0  0  0  0  0  0  0  0
   12.3204   35.7785   19.3941 O   0  0  0  0  0  0  0  0  0  0  0  0
  2  1  1  6  0  0  0
  2  3  1  0  0  0  0
  2  5  1  0  0  0  0
  3  4  1  0  0  0  0
  3 10  1  0  0  0  0
  5  6  1  0  0  0  0
  6  7  1  0  0  0  0
  7  8  1  0  0  0  0
  8  9  1  0  0  0  0
M  END
>  <CHROM.1>
113.67637801,-170.35093618,-168.39998752,70.15801474,175.97093313,12.63028216
37.99768203,19.72816397,-1.00657786,-0.02493199,-0.27420611

>  <Name>
ligand

>  <RI>
0

>  <Rbt.Current_Directory>
/home/itssahil/PROJECTS/Mol_Feturizer/New_Systems/rnas/3DIL

>  <Rbt.Executable>
rbdock ($Id: //depot/dev/client3/rdock/2013.1/src/exe/rbdock.cxx#4 $)

>  <Rbt.Library>
libRbt.so (2013.1, Build901 2013/11/27)

>  <Rbt.Parameter_File>
/export/apps/rDock/src/rDock_2013.1_src/data/scripts/dock_solv.prm

>  <Rbt.Receptor>
prm/blind_docking_100.prm

>  <SCORE>
-0.661448

>  <SCORE.INTER>
-0.254066

>  <SCORE.INTER.CONST>
1

>  <SCORE.INTER.POLAR>
0

>  <SCORE.INTER.ROT>
5

>  <SCORE.INTER.SOLV>
3.33259

>  <SCORE.INTER.VDW>
-8.21357

>  <SCORE.INTER.norm>
-0.0254066

>  <SCORE.INTRA>
-0.407382

>  <SCORE.INTRA.DIHEDRAL>
-0.0385299

>  <SCORE.INTRA.DIHEDRAL.0>
2.93688

>  <SCORE.INTRA.POLAR>
0

>  <SCORE.INTRA.POLAR.0>
0

>  <SCORE.INTRA.REPUL>
0

>  <SCORE.INTRA.REPUL.0>
0

>  <SCORE.INTRA.SOLV>
-1.34316

>  <SCORE.INTRA.SOLV.lig_0>
-32.2816

>  <SCORE.INTRA.VDW>
0.283461

>  <SCORE.INTRA.VDW.0>
-0.749945

>  <SCORE.INTRA.norm>
-0.0407382

>  <SCORE.RESTR>
0

>  <SCORE.RESTR.CAVITY>
0

>  <SCORE.RESTR.norm>
0

>  <SCORE.SYSTEM>
0

>  <SCORE.SYSTEM.CONST>
0

>  <SCORE.SYSTEM.DIHEDRAL>
0

>  <SCORE.SYSTEM.SOLV>
0

>  <SCORE.SYSTEM.norm>
0

>  <SCORE.heavy>
10

>  <SCORE.norm>
-0.0661448

>  <RMSD>
28.438

$$$$
ligand
 OpenBabel11021811473D
libRbt.so/2013.1/901 2013/11/27
 10  9  0  0  0  0  0  0  0  0999 V2000
   14.6185   37.3780   19.9220 N   0  0  0  0  0  0  0  0  0  0  0  0
   13.1746   37.7435   19.8116 C   0  0  2  0  0  0  0  0  0  0  0  0
   12.5548   37.1836   18.5317 C   0  0  0  0  0  0  0  0  0  0  0  0
   11.6715   36.3289   18.5742 O   0  0  0  0  0  0  0  0  0  0  0  0
   12.9848   39.2613   19.9180 C   0  0  0  0  0  0  0  0  0  0  0  0
   11.5164   39.6831   19.8785 C   0  0  0  0  0  0  0  0  0  0  0  0
   11.3450   41.1941   19.8026 C   0  0  0  0  0  0  0  0  0  0  0  0
    9.8698   41.5826   19.8062 C   0  0  0  0  0  0  0  0  0  0  0  0
    9.1330   41.1259   18.5775 N   0  0  0  0  0  0  0  0  0  0  0  0
   12.8882   37.5770   17.4101 O   0  0  0  0  0  0  0  0  0  0  0  0
  2  1  1  6  0  0  0
  2  3  1  0  0  0  0
  2  5  1  0  0  0  0
  3  4  1  0  0  0  0
  3 10  1  0  0  0  0
  5  6  1  0  0  0  0
  6  7  1  0  0  0  0
  7  8  1  0  0  0  0
  8  9  1  0  0  0  0
M  END
>  <CHROM.1>
114.72133315,-177.22790227,-172.56449186,-178.32638194,-66.02746531,11.96736464
38.88399461,19.19450802,-0.80938097,-0.50457506,0.55647750

>  <Name>
ligand

>  <RI>
0

>  <Rbt.Current_Directory>
/home/itssahil/PROJECTS/Mol_Feturizer/New_Systems/rnas/3DIL

>  <Rbt.Executable>
rbdock ($Id: //depot/dev/client3/rdock/2013.1/src/exe/rbdock.cxx#4 $)

>  <Rbt.Library>
libRbt.so (2013.1, Build901 2013/11/27)

>  <Rbt.Parameter_File>
/export/apps/rDock/src/rDock_2013.1_src/data/scripts/dock_solv.prm

>  <Rbt.Receptor>
prm/blind_docking_80.prm

>  <SCORE>
-2.30264

>  <SCORE.INTER>
-1.48438

>  <SCORE.INTER.CONST>
1

>  <SCORE.INTER.POLAR>
0

>  <SCORE.INTER.ROT>
5

>  <SCORE.INTER.SOLV>
4.4892

>  <SCORE.INTER.VDW>
-9.41932

>  <SCORE.INTER.norm>
-0.148438

>  <SCORE.INTRA>
-0.818263

>  <SCORE.INTRA.DIHEDRAL>
-1.00841

>  <SCORE.INTRA.DIHEDRAL.0>
2.93688

>  <SCORE.INTRA.POLAR>
0

>  <SCORE.INTRA.POLAR.0>
0

>  <SCORE.INTRA.REPUL>
0

>  <SCORE.INTRA.REPUL.0>
0

>  <SCORE.INTRA.SOLV>
-0.675122

>  <SCORE.INTRA.SOLV.lig_0>
-32.2816

>  <SCORE.INTRA.VDW>
0.0235036

>  <SCORE.INTRA.VDW.0>
-0.749945

>  <SCORE.INTRA.norm>
-0.0818263

>  <SCORE.RESTR>
0

>  <SCORE.RESTR.CAVITY>
0

>  <SCORE.RESTR.norm>
0

>  <SCORE.SYSTEM>
0

>  <SCORE.SYSTEM.CONST>
0

>  <SCORE.SYSTEM.DIHEDRAL>
0

>  <SCORE.SYSTEM.SOLV>
0

>  <SCORE.SYSTEM.norm>
0

>  <SCORE.heavy>
10

>  <SCORE.norm>
-0.230264

>  <RMSD>
29.566

$$$$
ligand
 OpenBabel11021811473D
libRbt.so/2013.1/901 2013/11/27
 10  9  0  0  0  0  0  0  0  0999 V2000
   12.0337   36.3967   30.4790 N   0  0  0  0  0  0  0  0  0  0  0  0
   12.7873   37.2830   29.5424 C   0  0  2  0  0  0  0  0  0  0  0  0
   14.0871   36.6260   29.0788 C   0  0  0  0  0  0  0  0  0  0  0  0
   14.7179   35.8730   29.8186 O   0  0  0  0  0  0  0  0  0  0  0  0
   13.0390   38.6576   30.1733 C   0  0  0  0  0  0  0  0  0  0  0  0
   11.7560   39.4603   30.3862 C   0  0  0  0  0  0  0  0  0  0  0  0
   12.0091   40.7923   31.0789 C   0  0  0  0  0  0  0  0  0  0  0  0
   10.7154   41.5847   31.2397 C   0  0  0  0  0  0  0  0  0  0  0  0
   10.9073   42.8960   31.9500 N   0  0  0  0  0  0  0  0  0  0  0  0
   14.5451   36.7969   27.9451 O   0  0  0  0  0  0  0  0  0  0  0  0
  2  1  1  1  0  0  0
  2  3  1  0  0  0  0
  2  5  1  0  0  0  0
  3  4  1  0  0  0  0
  3 10  1  0  0  0  0
  5  6  1  0  0  0  0
  6  7  1  0  0  0  0
  7  8  1  0  0  0  0
  8  9  1  0  0  0  0
M  END
>  <CHROM.1>
-32.79977458,-66.81464394,177.01512837,178.36908839,178.58742872,12.69395175
38.61040570,30.15294497,0.94690651,-0.68598084,3.11343359

>  <Name>
ligand

>  <RI>
0

>  <Rbt.Current_Directory>
/home/itssahil/PROJECTS/Mol_Feturizer/New_Systems/rnas/3DIL

>  <Rbt.Executable>
rbdock ($Id: //depot/dev/client3/rdock/2013.1/src/exe/rbdock.cxx#4 $)

>  <Rbt.Library>
libRbt.so (2013.1, Build901 2013/11/27)

>  <Rbt.Parameter_File>
/export/apps/rDock/src/rDock_2013.1_src/data/scripts/dock_solv.prm

>  <Rbt.Receptor>
prm/blind_docking_60.prm

>  <SCORE>
-3.34717

>  <SCORE.INTER>
-2.32886

>  <SCORE.INTER.CONST>
1

>  <SCORE.INTER.POLAR>
0

>  <SCORE.INTER.ROT>
5

>  <SCORE.INTER.SOLV>
5.36526

>  <SCORE.INTER.VDW>
-10.2743

>  <SCORE.INTER.norm>
-0.232886

>  <SCORE.INTRA>
-1.01831

>  <SCORE.INTRA.DIHEDRAL>
-1.12222

>  <SCORE.INTRA.DIHEDRAL.0>
2.93688

>  <SCORE.INTRA.POLAR>
0

>  <SCORE.INTRA.POLAR.0>
0

>  <SCORE.INTRA.REPUL>
0

>  <SCORE.INTRA.REPUL.0>
0

>  <SCORE.INTRA.SOLV>
-0.655877

>  <SCORE.INTRA.SOLV.lig_0>
-32.2816

>  <SCORE.INTRA.VDW>
-0.12926

>  <SCORE.INTRA.VDW.0>
-0.749945

>  <SCORE.INTRA.norm>
-0.101831

>  <SCORE.RESTR>
0

>  <SCORE.RESTR.CAVITY>
0

>  <SCORE.RESTR.norm>
0

>  <SCORE.SYSTEM>
0

>  <SCORE.SYSTEM.CONST>
0

>  <SCORE.SYSTEM.DIHEDRAL>
0

>  <SCORE.SYSTEM.SOLV>
0

>  <SCORE.SYSTEM.norm>
0

>  <SCORE.heavy>
10

>  <SCORE.norm>
-0.334717

>  <RMSD>
30.464

$$$$
ligand
 OpenBabel11021811473D
libRbt.so/2013.1/901 2013/11/27
 10  9  0  0  0  0  0  0  0  0999 V2000
   10.6890   40.9180   31.5482 N   0  0  0  0  0  0  0  0  0  0  0  0
   11.5202   41.0032   30.3102 C   0  0  2  0  0  0  0  0  0  0  0  0
   10.8408   41.8585   29.2412 C   0  0  0  0  0  0  0  0  0  0  0  0
    9.7659   41.5229   28.7469 O   0  0  0  0  0  0  0  0  0  0  0  0
   11.8642   39.6044   29.7848 C   0  0  0  0  0  0  0  0  0  0  0  0
   12.5782   38.7369   30.8208 C   0  0  0  0  0  0  0  0  0  0  0  0
   12.7356   37.2929   30.3642 C   0  0  0  0  0  0  0  0  0  0  0  0
   13.7628   37.1784   29.2422 C   0  0  0  0  0  0  0  0  0  0  0  0
   14.1178   35.7565   28.9057 N   0  0  0  0  0  0  0  0  0  0  0  0
   11.3194   42.9264   28.8479 O   0  0  0  0  0  0  0  0  0  0  0  0
  2  1  1  1  0  0  0
  2  3  1  0  0  0  0
  2  5  1  0  0  0  0
  3  4  1  0  0  0  0
  3 10  1  0  0  0  0
  5  6  1  0  0  0  0
  6  7  1  0  0  0  0
  7  8  1  0  0  0  0
  8  9  1  0  0  0  0
M  END
>  <CHROM.1>
-63.38452374,-56.59439146,171.72508749,71.03506220,170.77755616,11.89901024
39.71075984,29.75752154,2.79058202,1.03207721,-1.18740709

>  <Name>
ligand

>  <RI>
0

>  <Rbt.Current_Directory>
/home/itssahil/PROJECTS/Mol_Feturizer/New_Systems/rnas/3DIL

>  <Rbt.Executable>
rbdock ($Id: //depot/dev/client3/rdock/2013.1/src/exe/rbdock.cxx#4 $)

>  <Rbt.Library>
libRbt.so (2013.1, Build901 2013/11/27)

>  <Rbt.Parameter_File>
/export/apps/rDock/src/rDock_2013.1_src/data/scripts/dock_solv.prm

>  <Rbt.Receptor>
prm/blind_docking_60.prm

>  <SCORE>
-3.35703

>  <SCORE.INTER>
-3.5268

>  <SCORE.INTER.CONST>
1

>  <SCORE.INTER.POLAR>
0

>  <SCORE.INTER.ROT>
5

>  <SCORE.INTER.SOLV>
8.05825

>  <SCORE.INTER.VDW>
-11.9706

>  <SCORE.INTER.norm>
-0.35268

>  <SCORE.INTRA>
0.169769

>  <SCORE.INTRA.DIHEDRAL>
-0.309282

>  <SCORE.INTRA.DIHEDRAL.0>
2.93688

>  <SCORE.INTRA.POLAR>
0

>  <SCORE.INTRA.POLAR.0>
0

>  <SCORE.INTRA.REPUL>
0

>  <SCORE.INTRA.REPUL.0>
0

>  <SCORE.INTRA.SOLV>
-0.362252

>  <SCORE.INTRA.SOLV.lig_0>
-32.2816

>  <SCORE.INTRA.VDW>
0.505536

>  <SCORE.INTRA.VDW.0>
-0.749945

>  <SCORE.INTRA.norm>
0.0169769

>  <SCORE.RESTR>
0

>  <SCORE.RESTR.CAVITY>
0

>  <SCORE.RESTR.norm>
0

>  <SCORE.SYSTEM>
0

>  <SCORE.SYSTEM.CONST>
0

>  <SCORE.SYSTEM.DIHEDRAL>
0

>  <SCORE.SYSTEM.SOLV>
0

>  <SCORE.SYSTEM.norm>
0

>  <SCORE.heavy>
10

>  <SCORE.norm>
-0.335703

>  <RMSD>
31.564

$$$$
ligand
 OpenBabel11021811473D
libRbt.so/2013.1/901 2013/11/27
 10  9  0  0  0  0  0  0  0  0999 V2000
   10.7169   42.4941   32.0883 N   0  0  0  0  0  0  0  0  0  0  0  0
   11.2796   41.7940   30.8951 C   0  0  2  0  0  0  0  0  0  0  0  0
   10.4574   42.0848   29.6399 C   0  0  0  0  0  0  0  0  0  0  0  0
   10.9212   42.7514   28.7164 O   0  0  0  0  0  0  0  0  0  0  0  0
   11.4077   40.2882   31.1541 C   0  0  0  0  0  0  0  0  0  0  0  0
   12.2143   39.5640   30.0768 C   0  0  0  0  0  0  0  0  0  0  0  0
   12.3956   38.0830   30.3802 C   0  0  0  0  0  0  0  0  0  0  0  0
   13.2763   37.4093   29.3325 C   0  0  0  0  0  0  0  0  0  0  0  0
   13.5244   35.9532   29.6134 N   0  0  0  0  0  0  0  0  0  0  0  0
    9.3135   41.6474   29.4843 O   0  0  0  0  0  0  0  0  0  0  0  0
  2  1  1  1  0  0  0
  2  3  1  0  0  0  0
  2  5  1  0  0  0  0
  3  4  1  0  0  0  0
  3 10  1  0  0  0  0
  5  6  1  0  0  0  0
  6  7  1  0  0  0  0
  7  8  1  0  0  0  0
  8  9  1  0  0  0  0
M  END
>  <CHROM.1>
112.07663095,-169.21662734,177.07608351,-176.47131298,178.04629807,11.52800315
40.22475428,30.11060958,-2.85342085,1.07152089,-1.81994949

>  <Name>
ligand

>  <RI>
0

>  <Rbt.Current_Directory>
/home/itssahil/PROJECTS/Mol_Feturizer/New_Systems/rnas/3DIL

>  <Rbt.Executable>
rbdock ($Id: //depot/dev/client3/rdock/2013.1/src/exe/rbdock.cxx#4 $)

>  <Rbt.Library>
libRbt.so (2013.1, Build901 2013/11/27)

>  <Rbt.Parameter_File>
/export/apps/rDock/src/rDock_2013.1_src/data/scripts/dock_solv.prm

>  <Rbt.Receptor>
prm/blind_docking_60.prm

>  <SCORE>
-5.2427

>  <SCORE.INTER>
-3.95381

>  <SCORE.INTER.CONST>
1

>  <SCORE.INTER.POLAR>
0

>  <SCORE.INTER.ROT>
5

>  <SCORE.INTER.SOLV>
6.50267

>  <SCORE.INTER.VDW>
-11.7368

>  <SCORE.INTER.norm>
-0.395381

>  <SCORE.INTRA>
-1.2889

>  <SCORE.INTRA.DIHEDRAL>
-0.878746

>  <SCORE.INTRA.DIHEDRAL.0>
2.93688

>  <SCORE.INTRA.POLAR>
0

>  <SCORE.INTRA.POLAR.0>
0

>  <SCORE.INTRA.REPUL>
0

>  <SCORE.INTRA.REPUL.0>
0

>  <SCORE.INTRA.SOLV>
-1.51727

>  <SCORE.INTRA.SOLV.lig_0>
-32.2816

>  <SCORE.INTRA.VDW>
-0.0908878

>  <SCORE.INTRA.VDW.0>
-0.749945

>  <SCORE.INTRA.norm>
-0.12889

>  <SCORE.RESTR>
0

>  <SCORE.RESTR.CAVITY>
0

>  <SCORE.RESTR.norm>
0

>  <SCORE.SYSTEM>
0

>  <SCORE.SYSTEM.CONST>
0

>  <SCORE.SYSTEM.DIHEDRAL>
0

>  <SCORE.SYSTEM.SOLV>
0

>  <SCORE.SYSTEM.norm>
0

>  <SCORE.heavy>
10

>  <SCORE.norm>
-0.52427

>  <RMSD>
32.273

$$$$
ligand
 OpenBabel11021811473D
libRbt.so/2013.1/901 2013/11/27
 10  9  0  0  0  0  0  0  0  0999 V2000
   -0.8050   40.0641    8.2454 N   0  0  0  0  0  0  0  0  0  0  0  0
   -0.3399   40.9655    9.3416 C   0  0  2  0  0  0  0  0  0  0  0  0
   -1.3634   41.0386   10.4743 C   0  0  0  0  0  0  0  0  0  0  0  0
   -2.3735   40.3372   10.4647 O   0  0  0  0  0  0  0  0  0  0  0  0
    0.0050   42.3566    8.7969 C   0  0  0  0  0  0  0  0  0  0  0  0
    0.7960   43.2071    9.7903 C   0  0  0  0  0  0  0  0  0  0  0  0
    0.9852   44.6398    9.3110 C   0  0  0  0  0  0  0  0  0  0  0  0
    2.0687   45.3517   10.1150 C   0  0  0  0  0  0  0  0  0  0  0  0
    1.7642   45.4255   11.5857 N   0  0  0  0  0  0  0  0  0  0  0  0
   -1.2132   41.7760   11.4530 O   0  0  0  0  0  0  0  0  0  0  0  0
  2  1  1  6  0  0  0
  2  3  1  0  0  0  0
  2  5  1  0  0  0  0
  3  4  1  0  0  0  0
  3 10  1  0  0  0  0
  5  6  1  0  0  0  0
  6  7  1  0  0  0  0
  7  8  1  0  0  0  0
  8  9  1  0  0  0  0
M  END
>  <CHROM.1>
5.04931806,-166.09022222,-172.94915394,-164.86099486,-59.91818273,-0.07564974
42.50752151,9.98281728,-2.60791881,0.85798981,1.03605476

>  <Name>
ligand

>  <RI>
0

>  <Rbt.Current_Directory>
/home/itssahil/PROJECTS/Mol_Feturizer/New_Systems/rnas/3DIL

>  <Rbt.Executable>
rbdock ($Id: //depot/dev/client3/rdock/2013.1/src/exe/rbdock.cxx#4 $)

>  <Rbt.Library>
libRbt.so (2013.1, Build901 2013/11/27)

>  <Rbt.Parameter_File>
/export/apps/rDock/src/rDock_2013.1_src/data/scripts/dock_solv.prm

>  <Rbt.Receptor>
prm/blind_docking_80.prm

>  <SCORE>
-6.16657

>  <SCORE.INTER>
-6.38403

>  <SCORE.INTER.CONST>
1

>  <SCORE.INTER.POLAR>
0

>  <SCORE.INTER.ROT>
5

>  <SCORE.INTER.SOLV>
17.6681

>  <SCORE.INTER.VDW>
-17.0787

>  <SCORE.INTER.norm>
-0.638403

>  <SCORE.INTRA>
0.216771

>  <SCORE.INTRA.DIHEDRAL>
0.37827

>  <SCORE.INTRA.DIHEDRAL.0>
2.93688

>  <SCORE.INTRA.POLAR>
0

>  <SCORE.INTRA.POLAR.0>
0

>  <SCORE.INTRA.REPUL>
0

>  <SCORE.INTRA.REPUL.0>
0

>  <SCORE.INTRA.SOLV>
-0.588979

>  <SCORE.INTRA.SOLV.lig_0>
-32.2816

>  <SCORE.INTRA.VDW>
0.322125

>  <SCORE.INTRA.VDW.0>
-0.749945

>  <SCORE.INTRA.norm>
0.0216771

>  <SCORE.RESTR>
0.000691452

>  <SCORE.RESTR.CAVITY>
0.000691452

>  <SCORE.RESTR.norm>
6.91452e-05

>  <SCORE.SYSTEM>
0

>  <SCORE.SYSTEM.CONST>
0

>  <SCORE.SYSTEM.DIHEDRAL>
0

>  <SCORE.SYSTEM.SOLV>
0

>  <SCORE.SYSTEM.norm>
0

>  <SCORE.heavy>
10

>  <SCORE.norm>
-0.616657

>  <RMSD>
42.050

$$$$
ligand
 OpenBabel11021811473D
libRbt.so/2013.1/901 2013/11/27
 10  9  0  0  0  0  0  0  0  0999 V2000
   -4.9323   40.1174   12.6856 N   0  0  0  0  0  0  0  0  0  0  0  0
   -3.9669   41.2201   12.3983 C   0  0  2  0  0  0  0  0  0  0  0  0
   -4.6731   42.4367   11.8008 C   0  0  0  0  0  0  0  0  0  0  0  0
   -4.4268   43.5739   12.1990 O   0  0  0  0  0  0  0  0  0  0  0  0
   -2.8255   40.7280   11.5006 C   0  0  0  0  0  0  0  0  0  0  0  0
   -1.7456   41.7856   11.2749 C   0  0  0  0  0  0  0  0  0  0  0  0
   -0.7230   41.3617   10.2295 C   0  0  0  0  0  0  0  0  0  0  0  0
    0.2173   42.5111    9.8802 C   0  0  0  0  0  0  0  0  0  0  0  0
    1.3063   42.1163    8.9215 N   0  0  0  0  0  0  0  0  0  0  0  0
   -5.4936   42.3390   10.8836 O   0  0  0  0  0  0  0  0  0  0  0  0
  2  1  1  6  0  0  0
  2  3  1  0  0  0  0
  2  5  1  0  0  0  0
  3  4  1  0  0  0  0
  3 10  1  0  0  0  0
  5  6  1  0  0  0  0
  6  7  1  0  0  0  0
  7  8  1  0  0  0  0
  8  9  1  0  0  0  0
M  END
>  <CHROM.1>
134.78537835,-175.03356692,-171.82497082,171.71458230,176.01336436,-2.75236863
41.84643406,11.17006683,-2.97910985,0.39345532,-0.32273049

>  <Name>
ligand

>  <RI>
0

>  <Rbt.Current_Directory>
/home/itssahil/PROJECTS/Mol_Feturizer/New_Systems/rnas/3DIL

>  <Rbt.Executable>
rbdock ($Id: //depot/dev/client3/rdock/2013.1/src/exe/rbdock.cxx#4 $)

>  <Rbt.Library>
libRbt.so (2013.1, Build901 2013/11/27)

>  <Rbt.Parameter_File>
/export/apps/rDock/src/rDock_2013.1_src/data/scripts/dock_solv.prm

>  <Rbt.Receptor>
prm/blind_docking_100.prm

>  <SCORE>
-6.37576

>  <SCORE.INTER>
-5.10456

>  <SCORE.INTER.CONST>
1

>  <SCORE.INTER.POLAR>
0

>  <SCORE.INTER.ROT>
5

>  <SCORE.INTER.SOLV>
9.53662

>  <SCORE.INTER.VDW>
-13.5152

>  <SCORE.INTER.norm>
-0.510456

>  <SCORE.INTRA>
-1.2712

>  <SCORE.INTRA.DIHEDRAL>
-0.758524

>  <SCORE.INTRA.DIHEDRAL.0>
2.93688

>  <SCORE.INTRA.POLAR>
0

>  <SCORE.INTRA.POLAR.0>
0

>  <SCORE.INTRA.REPUL>
0

>  <SCORE.INTRA.REPUL.0>
0

>  <SCORE.INTRA.SOLV>
-1.51202

>  <SCORE.INTRA.SOLV.lig_0>
-32.2816

>  <SCORE.INTRA.VDW>
-0.135927

>  <SCORE.INTRA.VDW.0>
-0.749945

>  <SCORE.INTRA.norm>
-0.12712

>  <SCORE.RESTR>
0

>  <SCORE.RESTR.CAVITY>
0

>  <SCORE.RESTR.norm>
0

>  <SCORE.SYSTEM>
0

>  <SCORE.SYSTEM.CONST>
0

>  <SCORE.SYSTEM.DIHEDRAL>
0

>  <SCORE.SYSTEM.SOLV>
0

>  <SCORE.SYSTEM.norm>
0

>  <SCORE.heavy>
10

>  <SCORE.norm>
-0.637576

>  <RMSD>
43.348

$$$$
ligand
 OpenBabel11021811473D
libRbt.so/2013.1/901 2013/11/27
 10  9  0  0  0  0  0  0  0  0999 V2000
   -3.4730   38.5560    7.5417 N   0  0  0  0  0  0  0  0  0  0  0  0
   -4.7793   37.9083    7.8650 C   0  0  2  0  0  0  0  0  0  0  0  0
   -4.9952   36.6446    7.0329 C   0  0  0  0  0  0  0  0  0  0  0  0
   -5.3613   36.7101    5.8607 O   0  0  0  0  0  0  0  0  0  0  0  0
   -5.9370   38.9004    7.7023 C   0  0  0  0  0  0  0  0  0  0  0  0
   -5.7225   40.1999    8.4777 C   0  0  0  0  0  0  0  0  0  0  0  0
   -5.5564   39.9666    9.9731 C   0  0  0  0  0  0  0  0  0  0  0  0
   -5.3582   41.2832   10.7178 C   0  0  0  0  0  0  0  0  0  0  0  0
   -5.1846   41.1056   12.2008 N   0  0  0  0  0  0  0  0  0  0  0  0
   -4.7891   35.5141    7.4841 O   0  0  0  0  0  0  0  0  0  0  0  0
  2  1  1  6  0  0  0
  2  3  1  0  0  0  0
  2  5  1  0  0  0  0
  3  4  1  0  0  0  0
  3 10  1  0  0  0  0
  5  6  1  0  0  0  0
  6  7  1  0  0  0  0
  7  8  1  0  0  0  0
  8  9  1  0  0  0  0
M  END
>  <CHROM.1>
-78.61503670,-52.71662649,-59.20670602,-179.43822653,-179.80941445,-5.11887067
38.64133581,8.45973139,-1.37363011,-1.19672332,0.94258652

>  <Name>
ligand

>  <RI>
0

>  <Rbt.Current_Directory>
/home/itssahil/PROJECTS/Mol_Feturizer/New_Systems/rnas/3DIL

>  <Rbt.Executable>
rbdock ($Id: //depot/dev/client3/rdock/2013.1/src/exe/rbdock.cxx#4 $)

>  <Rbt.Library>
libRbt.so (2013.1, Build901 2013/11/27)

>  <Rbt.Parameter_File>
/export/apps/rDock/src/rDock_2013.1_src/data/scripts/dock_solv.prm

>  <Rbt.Receptor>
prm/blind_docking_100.prm

>  <SCORE>
-2.20335

>  <SCORE.INTER>
-2.27339

>  <SCORE.INTER.CONST>
1

>  <SCORE.INTER.POLAR>
0

>  <SCORE.INTER.ROT>
5

>  <SCORE.INTER.SOLV>
2.71492

>  <SCORE.INTER.VDW>
-9.3539

>  <SCORE.INTER.norm>
-0.227339

>  <SCORE.INTRA>
0.0700326

>  <SCORE.INTRA.DIHEDRAL>
-1.28187

>  <SCORE.INTRA.DIHEDRAL.0>
2.93688

>  <SCORE.INTRA.POLAR>
0

>  <SCORE.INTRA.POLAR.0>
0

>  <SCORE.INTRA.REPUL>
0

>  <SCORE.INTRA.REPUL.0>
0

>  <SCORE.INTRA.SOLV>
0.236449

>  <SCORE.INTRA.SOLV.lig_0>
-32.2816

>  <SCORE.INTRA.VDW>
0.592744

>  <SCORE.INTRA.VDW.0>
-0.749945

>  <SCORE.INTRA.norm>
0.00700326

>  <SCORE.RESTR>
0

>  <SCORE.RESTR.CAVITY>
0

>  <SCORE.RESTR.norm>
0

>  <SCORE.SYSTEM>
0

>  <SCORE.SYSTEM.CONST>
0

>  <SCORE.SYSTEM.DIHEDRAL>
0

>  <SCORE.SYSTEM.SOLV>
0

>  <SCORE.SYSTEM.norm>
0

>  <SCORE.heavy>
10

>  <SCORE.norm>
-0.220335

>  <RMSD>
44.133

$$$$
ligand
 OpenBabel11021811473D
libRbt.so/2013.1/901 2013/11/27
 10  9  0  0  0  0  0  0  0  0999 V2000
   -4.7740   41.9383   14.4507 N   0  0  0  0  0  0  0  0  0  0  0  0
   -4.4281   41.7061   13.0165 C   0  0  2  0  0  0  0  0  0  0  0  0
   -5.4775   42.3125   12.0854 C   0  0  0  0  0  0  0  0  0  0  0  0
   -6.6730   42.0599   12.2248 O   0  0  0  0  0  0  0  0  0  0  0  0
   -4.2175   40.2129   12.7393 C   0  0  0  0  0  0  0  0  0  0  0  0
   -3.6234   39.9405   11.3577 C   0  0  0  0  0  0  0  0  0  0  0  0
   -4.6447   40.1053   10.2405 C   0  0  0  0  0  0  0  0  0  0  0  0
   -4.0583   39.6963    8.8929 C   0  0  0  0  0  0  0  0  0  0  0  0
   -3.7795   38.2223    8.7899 N   0  0  0  0  0  0  0  0  0  0  0  0
   -5.1812   43.0955   11.1781 O   0  0  0  0  0  0  0  0  0  0  0  0
  2  1  1  1  0  0  0
  2  3  1  0  0  0  0
  2  5  1  0  0  0  0
  3  4  1  0  0  0  0
  3 10  1  0  0  0  0
  5  6  1  0  0  0  0
  6  7  1  0  0  0  0
  7  8  1  0  0  0  0
  8  9  1  0  0  0  0
M  END
>  <CHROM.1>
-52.04242887,-169.82413928,-75.39232344,-174.48933301,67.86755524,-4.71106383
40.95000184,11.48401071,-2.05818042,0.95765117,-1.85294206

>  <Name>
ligand

>  <RI>
0

>  <Rbt.Current_Directory>
/home/itssahil/PROJECTS/Mol_Feturizer/New_Systems/rnas/3DIL

>  <Rbt.Executable>
rbdock ($Id: //depot/dev/client3/rdock/2013.1/src/exe/rbdock.cxx#4 $)

>  <Rbt.Library>
libRbt.so (2013.1, Build901 2013/11/27)

>  <Rbt.Parameter_File>
/export/apps/rDock/src/rDock_2013.1_src/data/scripts/dock_solv.prm

>  <Rbt.Receptor>
prm/blind_docking_60.prm

>  <SCORE>
-0.0445225

>  <SCORE.INTER>
-0.0287396

>  <SCORE.INTER.CONST>
1

>  <SCORE.INTER.POLAR>
0

>  <SCORE.INTER.ROT>
5

>  <SCORE.INTER.SOLV>
4.52613

>  <SCORE.INTER.VDW>
-8.4612

>  <SCORE.INTER.norm>
-0.00287396

>  <SCORE.INTRA>
-0.0157829

>  <SCORE.INTRA.DIHEDRAL>
0.263291

>  <SCORE.INTRA.DIHEDRAL.0>
2.93688

>  <SCORE.INTRA.POLAR>
0

>  <SCORE.INTRA.POLAR.0>
0

>  <SCORE.INTRA.REPUL>
0

>  <SCORE.INTRA.REPUL.0>
0

>  <SCORE.INTRA.SOLV>
-0.534509

>  <SCORE.INTRA.SOLV.lig_0>
-32.2816

>  <SCORE.INTRA.VDW>
0.119826

>  <SCORE.INTRA.VDW.0>
-0.749945

>  <SCORE.INTRA.norm>
-0.00157829

>  <SCORE.RESTR>
0

>  <SCORE.RESTR.CAVITY>
0

>  <SCORE.RESTR.norm>
0

>  <SCORE.SYSTEM>
0

>  <SCORE.SYSTEM.CONST>
0

>  <SCORE.SYSTEM.DIHEDRAL>
0

>  <SCORE.SYSTEM.SOLV>
0

>  <SCORE.SYSTEM.norm>
0

>  <SCORE.heavy>
10

>  <SCORE.norm>
-0.00445225

>  <RMSD>
44.178

$$$$
ligand
 OpenBabel11021811473D
libRbt.so/2013.1/901 2013/11/27
 10  9  0  0  0  0  0  0  0  0999 V2000
   -4.5750   41.2571   13.6258 N   0  0  0  0  0  0  0  0  0  0  0  0
   -4.5269   41.4133   12.1412 C   0  0  2  0  0  0  0  0  0  0  0  0
   -4.8726   42.8413   11.7201 C   0  0  0  0  0  0  0  0  0  0  0  0
   -5.5748   43.0612   10.7347 O   0  0  0  0  0  0  0  0  0  0  0  0
   -5.4308   40.3835   11.4531 C   0  0  0  0  0  0  0  0  0  0  0  0
   -5.1736   40.2733    9.9506 C   0  0  0  0  0  0  0  0  0  0  0  0
   -6.1597   39.3439    9.2563 C   0  0  0  0  0  0  0  0  0  0  0  0
   -5.8232   39.1892    7.7764 C   0  0  0  0  0  0  0  0  0  0  0  0
   -4.5170   38.4843    7.5356 N   0  0  0  0  0  0  0  0  0  0  0  0
   -4.4906   43.8277   12.3565 O   0  0  0  0  0  0  0  0  0  0  0  0
  2  1  1  1  0  0  0
  2  3  1  0  0  0  0
  2  5  1  0  0  0  0
  3  4  1  0  0  0  0
  3 10  1  0  0  0  0
  5  6  1  0  0  0  0
  6  7  1  0  0  0  0
  7  8  1  0  0  0  0
  8  9  1  0  0  0  0
M  END
>  <CHROM.1>
-139.75218188,-166.35567593,-174.75558326,-176.50361672,66.18732348,-5.11994546
41.04685075,10.65413606,-0.88063973,1.39363043,-2.97544264

>  <Name>
ligand

>  <RI>
0

>  <Rbt.Current_Directory>
/home/itssahil/PROJECTS/Mol_Feturizer/New_Systems/rnas/3DIL

>  <Rbt.Executable>
rbdock ($Id: //depot/dev/client3/rdock/2013.1/src/exe/rbdock.cxx#4 $)

>  <Rbt.Library>
libRbt.so (2013.1, Build901 2013/11/27)

>  <Rbt.Parameter_File>
/export/apps/rDock/src/rDock_2013.1_src/data/scripts/dock_solv.prm

>  <Rbt.Receptor>
prm/blind_docking_100.prm

>  <SCORE>
-1.9579

>  <SCORE.INTER>
-2.21208

>  <SCORE.INTER.CONST>
1

>  <SCORE.INTER.POLAR>
0

>  <SCORE.INTER.ROT>
5

>  <SCORE.INTER.SOLV>
5.44372

>  <SCORE.INTER.VDW>
-10.2226

>  <SCORE.INTER.norm>
-0.221208

>  <SCORE.INTRA>
0.254051

>  <SCORE.INTRA.DIHEDRAL>
-0.397772

>  <SCORE.INTRA.DIHEDRAL.0>
2.93688

>  <SCORE.INTRA.POLAR>
0

>  <SCORE.INTRA.POLAR.0>
0

>  <SCORE.INTRA.REPUL>
0

>  <SCORE.INTRA.REPUL.0>
0

>  <SCORE.INTRA.SOLV>
-0.616145

>  <SCORE.INTRA.SOLV.lig_0>
-32.2816

>  <SCORE.INTRA.VDW>
0.761009

>  <SCORE.INTRA.VDW.0>
-0.749945

>  <SCORE.INTRA.norm>
0.0254051

>  <SCORE.RESTR>
0.000133885

>  <SCORE.RESTR.CAVITY>
0.000133885

>  <SCORE.RESTR.norm>
1.33885e-05

>  <SCORE.SYSTEM>
0

>  <SCORE.SYSTEM.CONST>
0

>  <SCORE.SYSTEM.DIHEDRAL>
0

>  <SCORE.SYSTEM.SOLV>
0

>  <SCORE.SYSTEM.norm>
0

>  <SCORE.heavy>
10

>  <SCORE.norm>
-0.19579

>  <RMSD>
44.701

$$$$
ligand
 OpenBabel11021811473D
libRbt.so/2013.1/901 2013/11/27
 10  9  0  0  0  0  0  0  0  0999 V2000
   -4.3203   40.4876   12.7097 N   0  0  0  0  0  0  0  0  0  0  0  0
   -4.4609   41.7608   11.9418 C   0  0  2  0  0  0  0  0  0  0  0  0
   -4.7935   42.9333   12.8641 C   0  0  0  0  0  0  0  0  0  0  0  0
   -4.4067   44.0725   12.6088 O   0  0  0  0  0  0  0  0  0  0  0  0
   -5.4934   41.6111   10.8183 C   0  0  0  0  0  0  0  0  0  0  0  0
   -5.0944   40.5663    9.7766 C   0  0  0  0  0  0  0  0  0  0  0  0
   -6.1962   40.3069    8.7584 C   0  0  0  0  0  0  0  0  0  0  0  0
   -5.7631   39.2664    7.7303 C   0  0  0  0  0  0  0  0  0  0  0  0
   -5.3450   37.9606    8.3477 N   0  0  0  0  0  0  0  0  0  0  0  0
   -5.4797   42.7987   13.8814 O   0  0  0  0  0  0  0  0  0  0  0  0
  2  1  1  1  0  0  0
  2  3  1  0  0  0  0
  2  5  1  0  0  0  0
  3  4  1  0  0  0  0
  3 10  1  0  0  0  0
  5  6  1  0  0  0  0
  6  7  1  0  0  0  0
  7  8  1  0  0  0  0
  8  9  1  0  0  0  0
M  END
>  <CHROM.1>
148.33278255,-62.56698986,173.23434315,179.69176812,56.69370619,-5.13973917
41.21086985,10.97361276,-1.09715007,1.26993791,-2.70959931

>  <Name>
ligand

>  <RI>
0

>  <Rbt.Current_Directory>
/home/itssahil/PROJECTS/Mol_Feturizer/New_Systems/rnas/3DIL

>  <Rbt.Executable>
rbdock ($Id: //depot/dev/client3/rdock/2013.1/src/exe/rbdock.cxx#4 $)

>  <Rbt.Library>
libRbt.so (2013.1, Build901 2013/11/27)

>  <Rbt.Parameter_File>
/export/apps/rDock/src/rDock_2013.1_src/data/scripts/dock_solv.prm

>  <Rbt.Receptor>
prm/blind_docking_60.prm

>  <SCORE>
-3.17133

>  <SCORE.INTER>
-2.8093

>  <SCORE.INTER.CONST>
1

>  <SCORE.INTER.POLAR>
0

>  <SCORE.INTER.ROT>
5

>  <SCORE.INTER.SOLV>
4.16554

>  <SCORE.INTER.VDW>
-10.1947

>  <SCORE.INTER.norm>
-0.28093

>  <SCORE.INTRA>
-0.362031

>  <SCORE.INTRA.DIHEDRAL>
-1.21786

>  <SCORE.INTRA.DIHEDRAL.0>
2.93688

>  <SCORE.INTRA.POLAR>
0

>  <SCORE.INTRA.POLAR.0>
0

>  <SCORE.INTRA.REPUL>
0

>  <SCORE.INTRA.REPUL.0>
0

>  <SCORE.INTRA.SOLV>
0.39557

>  <SCORE.INTRA.SOLV.lig_0>
-32.2816

>  <SCORE.INTRA.VDW>
0.0491155

>  <SCORE.INTRA.VDW.0>
-0.749945

>  <SCORE.INTRA.norm>
-0.0362031

>  <SCORE.RESTR>
0

>  <SCORE.RESTR.CAVITY>
0

>  <SCORE.RESTR.norm>
0

>  <SCORE.SYSTEM>
0

>  <SCORE.SYSTEM.CONST>
0

>  <SCORE.SYSTEM.DIHEDRAL>
0

>  <SCORE.SYSTEM.SOLV>
0

>  <SCORE.SYSTEM.norm>
0

>  <SCORE.heavy>
10

>  <SCORE.norm>
-0.317133

>  <RMSD>
44.737

$$$$
ligand
 OpenBabel11021811473D
libRbt.so/2013.1/901 2013/11/27
 10  9  0  0  0  0  0  0  0  0999 V2000
   -6.2885   42.2287   12.4328 N   0  0  0  0  0  0  0  0  0  0  0  0
   -5.6451   42.4999   11.1126 C   0  0  2  0  0  0  0  0  0  0  0  0
   -6.5757   43.2877   10.1910 C   0  0  0  0  0  0  0  0  0  0  0  0
   -6.1299   44.0881    9.3707 O   0  0  0  0  0  0  0  0  0  0  0  0
   -5.1672   41.1978   10.4591 C   0  0  0  0  0  0  0  0  0  0  0  0
   -4.0308   40.5259   11.2292 C   0  0  0  0  0  0  0  0  0  0  0  0
   -3.5576   39.2392   10.5668 C   0  0  0  0  0  0  0  0  0  0  0  0
   -4.6205   38.1488   10.6584 C   0  0  0  0  0  0  0  0  0  0  0  0
   -4.1823   36.8413   10.0588 N   0  0  0  0  0  0  0  0  0  0  0  0
   -7.8013   43.1399   10.2078 O   0  0  0  0  0  0  0  0  0  0  0  0
  2  1  1  1  0  0  0
  2  3  1  0  0  0  0
  2  5  1  0  0  0  0
  3  4  1  0  0  0  0
  3 10  1  0  0  0  0
  5  6  1  0  0  0  0
  6  7  1  0  0  0  0
  7  8  1  0  0  0  0
  8  9  1  0  0  0  0
M  END
>  <CHROM.1>
147.95065618,-66.40554468,-179.60857520,-68.75856609,-178.03023501,-5.42517353
41.14907026,10.60788757,-2.75469303,1.07601462,-2.03511468

>  <Name>
ligand

>  <RI>
0

>  <Rbt.Current_Directory>
/home/itssahil/PROJECTS/Mol_Feturizer/New_Systems/rnas/3DIL

>  <Rbt.Executable>
rbdock ($Id: //depot/dev/client3/rdock/2013.1/src/exe/rbdock.cxx#4 $)

>  <Rbt.Library>
libRbt.so (2013.1, Build901 2013/11/27)

>  <Rbt.Parameter_File>
/export/apps/rDock/src/rDock_2013.1_src/data/scripts/dock_solv.prm

>  <Rbt.Receptor>
prm/blind_docking_100.prm

>  <SCORE>
-3.07746

>  <SCORE.INTER>
-2.73591

>  <SCORE.INTER.CONST>
1

>  <SCORE.INTER.POLAR>
0

>  <SCORE.INTER.ROT>
5

>  <SCORE.INTER.SOLV>
5.73941

>  <SCORE.INTER.VDW>
-10.6704

>  <SCORE.INTER.norm>
-0.273591

>  <SCORE.INTRA>
-0.341549

>  <SCORE.INTRA.DIHEDRAL>
-0.974838

>  <SCORE.INTRA.DIHEDRAL.0>
2.93688

>  <SCORE.INTRA.POLAR>
0

>  <SCORE.INTRA.POLAR.0>
0

>  <SCORE.INTRA.REPUL>
0

>  <SCORE.INTRA.REPUL.0>
0

>  <SCORE.INTRA.SOLV>
-0.491161

>  <SCORE.INTRA.SOLV.lig_0>
-32.2816

>  <SCORE.INTRA.VDW>
0.391451

>  <SCORE.INTRA.VDW.0>
-0.749945

>  <SCORE.INTRA.norm>
-0.0341549

>  <SCORE.RESTR>
0

>  <SCORE.RESTR.CAVITY>
0

>  <SCORE.RESTR.norm>
0

>  <SCORE.SYSTEM>
0

>  <SCORE.SYSTEM.CONST>
0

>  <SCORE.SYSTEM.DIHEDRAL>
0

>  <SCORE.SYSTEM.SOLV>
0

>  <SCORE.SYSTEM.norm>
0

>  <SCORE.heavy>
10

>  <SCORE.norm>
-0.307746

>  <RMSD>
45.078

$$$$
ligand
 OpenBabel11021811473D
libRbt.so/2013.1/901 2013/11/27
 10  9  0  0  0  0  0  0  0  0999 V2000
   -5.7514   42.1682   12.3016 N   0  0  0  0  0  0  0  0  0  0  0  0
   -5.4306   41.9680   10.8568 C   0  0  2  0  0  0  0  0  0  0  0  0
   -6.2667   42.8884    9.9681 C   0  0  0  0  0  0  0  0  0  0  0  0
   -7.2221   42.4559    9.3258 O   0  0  0  0  0  0  0  0  0  0  0  0
   -5.5905   40.4957   10.4597 C   0  0  0  0  0  0  0  0  0  0  0  0
   -5.0556   40.1937    9.0603 C   0  0  0  0  0  0  0  0  0  0  0  0
   -5.3175   38.7559    8.6331 C   0  0  0  0  0  0  0  0  0  0  0  0
   -4.5689   38.4177    7.3476 C   0  0  0  0  0  0  0  0  0  0  0  0
   -3.0744   38.4200    7.5133 N   0  0  0  0  0  0  0  0  0  0  0  0
   -6.0419   44.0987    9.8752 O   0  0  0  0  0  0  0  0  0  0  0  0
  2  1  1  1  0  0  0
  2  3  1  0  0  0  0
  2  5  1  0  0  0  0
  3  4  1  0  0  0  0
  3 10  1  0  0  0  0
  5  6  1  0  0  0  0
  6  7  1  0  0  0  0
  7  8  1  0  0  0  0
  8  9  1  0  0  0  0
M  END
>  <CHROM.1>
-104.32350478,-170.47848889,-175.49863550,-170.19668028,66.18127489,-5.45388081
41.01629438,9.52024618,-2.46350337,1.08947032,-1.75425306

>  <Name>
ligand

>  <RI>
0

>  <Rbt.Current_Directory>
/home/itssahil/PROJECTS/Mol_Feturizer/New_Systems/rnas/3DIL

>  <Rbt.Executable>
rbdock ($Id: //depot/dev/client3/rdock/2013.1/src/exe/rbdock.cxx#4 $)

>  <Rbt.Library>
libRbt.so (2013.1, Build901 2013/11/27)

>  <Rbt.Parameter_File>
/export/apps/rDock/src/rDock_2013.1_src/data/scripts/dock_solv.prm

>  <Rbt.Receptor>
prm/blind_docking_80.prm

>  <SCORE>
-4.02902

>  <SCORE.INTER>
-3.98396

>  <SCORE.INTER.CONST>
1

>  <SCORE.INTER.POLAR>
0

>  <SCORE.INTER.ROT>
5

>  <SCORE.INTER.SOLV>
4.87055

>  <SCORE.INTER.VDW>
-11.2128

>  <SCORE.INTER.norm>
-0.398396

>  <SCORE.INTRA>
-0.0450652

>  <SCORE.INTRA.DIHEDRAL>
-0.514803

>  <SCORE.INTRA.DIHEDRAL.0>
2.93688

>  <SCORE.INTRA.POLAR>
0

>  <SCORE.INTRA.POLAR.0>
0

>  <SCORE.INTRA.REPUL>
0

>  <SCORE.INTRA.REPUL.0>
0

>  <SCORE.INTRA.SOLV>
-0.592339

>  <SCORE.INTRA.SOLV.lig_0>
-32.2816

>  <SCORE.INTRA.VDW>
0.508506

>  <SCORE.INTRA.VDW.0>
-0.749945

>  <SCORE.INTRA.norm>
-0.00450652

>  <SCORE.RESTR>
0

>  <SCORE.RESTR.CAVITY>
0

>  <SCORE.RESTR.norm>
0

>  <SCORE.SYSTEM>
0

>  <SCORE.SYSTEM.CONST>
0

>  <SCORE.SYSTEM.DIHEDRAL>
0

>  <SCORE.SYSTEM.SOLV>
0

>  <SCORE.SYSTEM.norm>
0

>  <SCORE.heavy>
10

>  <SCORE.norm>
-0.402902

>  <RMSD>
45.271

$$$$
ligand
 OpenBabel11021811473D
libRbt.so/2013.1/901 2013/11/27
 10  9  0  0  0  0  0  0  0  0999 V2000
   -5.8231   41.0056   11.1957 N   0  0  0  0  0  0  0  0  0  0  0  0
   -5.7392   41.6971    9.8746 C   0  0  2  0  0  0  0  0  0  0  0  0
   -6.5322   43.0037    9.8787 C   0  0  0  0  0  0  0  0  0  0  0  0
   -5.9639   44.0920    9.9494 O   0  0  0  0  0  0  0  0  0  0  0  0
   -6.1842   40.7660    8.7405 C   0  0  0  0  0  0  0  0  0  0  0  0
   -5.2139   39.6094    8.5028 C   0  0  0  0  0  0  0  0  0  0  0  0
   -5.3513   38.5086    9.5456 C   0  0  0  0  0  0  0  0  0  0  0  0
   -4.2939   37.4269    9.3481 C   0  0  0  0  0  0  0  0  0  0  0  0
   -4.3829   36.7475    8.0097 N   0  0  0  0  0  0  0  0  0  0  0  0
   -7.7629   43.0290    9.7855 O   0  0  0  0  0  0  0  0  0  0  0  0
  2  1  1  1  0  0  0
  2  3  1  0  0  0  0
  2  5  1  0  0  0  0
  3  4  1  0  0  0  0
  3 10  1  0  0  0  0
  5  6  1  0  0  0  0
  6  7  1  0  0  0  0
  7  8  1  0  0  0  0
  8  9  1  0  0  0  0
M  END
>  <CHROM.1>
104.27203420,-68.41270494,77.02071083,-175.29695338,-60.62709147,-5.74510456
40.62972440,9.48533091,-2.45119084,1.13074979,-2.09963739

>  <Name>
ligand

>  <RI>
0

>  <Rbt.Current_Directory>
/home/itssahil/PROJECTS/Mol_Feturizer/New_Systems/rnas/3DIL

>  <Rbt.Executable>
rbdock ($Id: //depot/dev/client3/rdock/2013.1/src/exe/rbdock.cxx#4 $)

>  <Rbt.Library>
libRbt.so (2013.1, Build901 2013/11/27)

>  <Rbt.Parameter_File>
/export/apps/rDock/src/rDock_2013.1_src/data/scripts/dock_solv.prm

>  <Rbt.Receptor>
prm/blind_docking_80.prm

>  <SCORE>
-3.94246

>  <SCORE.INTER>
-5.02648

>  <SCORE.INTER.CONST>
1

>  <SCORE.INTER.POLAR>
0

>  <SCORE.INTER.ROT>
5

>  <SCORE.INTER.SOLV>
3.44638

>  <SCORE.INTER.VDW>
-11.4331

>  <SCORE.INTER.norm>
-0.502648

>  <SCORE.INTRA>
1.08402

>  <SCORE.INTRA.DIHEDRAL>
0.138917

>  <SCORE.INTRA.DIHEDRAL.0>
2.93688

>  <SCORE.INTRA.POLAR>
0

>  <SCORE.INTRA.POLAR.0>
0

>  <SCORE.INTRA.REPUL>
0

>  <SCORE.INTRA.REPUL.0>
0

>  <SCORE.INTRA.SOLV>
1.55191

>  <SCORE.INTRA.SOLV.lig_0>
-32.2816

>  <SCORE.INTRA.VDW>
0.238611

>  <SCORE.INTRA.VDW.0>
-0.749945

>  <SCORE.INTRA.norm>
0.108402

>  <SCORE.RESTR>
0

>  <SCORE.RESTR.CAVITY>
0

>  <SCORE.RESTR.norm>
0

>  <SCORE.SYSTEM>
0

>  <SCORE.SYSTEM.CONST>
0

>  <SCORE.SYSTEM.DIHEDRAL>
0

>  <SCORE.SYSTEM.SOLV>
0

>  <SCORE.SYSTEM.norm>
0

>  <SCORE.heavy>
10

>  <SCORE.norm>
-0.394246

>  <RMSD>
45.290

$$$$
ligand
 OpenBabel11021811473D
libRbt.so/2013.1/901 2013/11/27
 10  9  0  0  0  0  0  0  0  0999 V2000
   -5.6022   41.0805   11.1918 N   0  0  0  0  0  0  0  0  0  0  0  0
   -5.6870   41.6398    9.8096 C   0  0  2  0  0  0  0  0  0  0  0  0
   -6.5911   42.8712    9.7617 C   0  0  0  0  0  0  0  0  0  0  0  0
   -7.4595   43.0557   10.6127 O   0  0  0  0  0  0  0  0  0  0  0  0
   -6.1361   40.5661    8.8114 C   0  0  0  0  0  0  0  0  0  0  0  0
   -5.0867   39.4762    8.5952 C   0  0  0  0  0  0  0  0  0  0  0  0
   -5.5054   38.4646    7.5371 C   0  0  0  0  0  0  0  0  0  0  0  0
   -4.3884   37.4636    7.2588 C   0  0  0  0  0  0  0  0  0  0  0  0
   -4.0913   36.5658    8.4279 N   0  0  0  0  0  0  0  0  0  0  0  0
   -6.4761   43.7410    8.8933 O   0  0  0  0  0  0  0  0  0  0  0  0
  2  1  1  1  0  0  0
  2  3  1  0  0  0  0
  2  5  1  0  0  0  0
  3  4  1  0  0  0  0
  3 10  1  0  0  0  0
  5  6  1  0  0  0  0
  6  7  1  0  0  0  0
  7  8  1  0  0  0  0
  8  9  1  0  0  0  0
M  END
>  <CHROM.1>
-23.25390224,-68.55910693,-176.33363387,175.04215629,66.58444535,-5.72543287
40.53200564,9.09354788,-2.71660507,1.18681068,-1.65958413

>  <Name>
ligand

>  <RI>
0

>  <Rbt.Current_Directory>
/home/itssahil/PROJECTS/Mol_Feturizer/New_Systems/rnas/3DIL

>  <Rbt.Executable>
rbdock ($Id: //depot/dev/client3/rdock/2013.1/src/exe/rbdock.cxx#4 $)

>  <Rbt.Library>
libRbt.so (2013.1, Build901 2013/11/27)

>  <Rbt.Parameter_File>
/export/apps/rDock/src/rDock_2013.1_src/data/scripts/dock_solv.prm

>  <Rbt.Receptor>
prm/blind_docking_100.prm

>  <SCORE>
-5.61258

>  <SCORE.INTER>
-5.24844

>  <SCORE.INTER.CONST>
1

>  <SCORE.INTER.POLAR>
0

>  <SCORE.INTER.ROT>
5

>  <SCORE.INTER.SOLV>
3.75085

>  <SCORE.INTER.VDW>
-11.6826

>  <SCORE.INTER.norm>
-0.524844

>  <SCORE.INTRA>
-0.36875

>  <SCORE.INTRA.DIHEDRAL>
-0.751172

>  <SCORE.INTRA.DIHEDRAL.0>
2.93688

>  <SCORE.INTRA.POLAR>
0

>  <SCORE.INTRA.POLAR.0>
0

>  <SCORE.INTRA.REPUL>
0

>  <SCORE.INTRA.REPUL.0>
0

>  <SCORE.INTRA.SOLV>
0.115134

>  <SCORE.INTRA.SOLV.lig_0>
-32.2816

>  <SCORE.INTRA.VDW>
-0.0507307

>  <SCORE.INTRA.VDW.0>
-0.749945

>  <SCORE.INTRA.norm>
-0.036875

>  <SCORE.RESTR>
0.00460576

>  <SCORE.RESTR.CAVITY>
0.00460576

>  <SCORE.RESTR.norm>
0.000460576

>  <SCORE.SYSTEM>
0

>  <SCORE.SYSTEM.CONST>
0

>  <SCORE.SYSTEM.DIHEDRAL>
0

>  <SCORE.SYSTEM.SOLV>
0

>  <SCORE.SYSTEM.norm>
0

>  <SCORE.heavy>
10

>  <SCORE.norm>
-0.561258

>  <RMSD>
45.329

$$$$
ligand
 OpenBabel11021811473D
libRbt.so/2013.1/901 2013/11/27
 10  9  0  0  0  0  0  0  0  0999 V2000
   -5.8414   41.0748   11.2555 N   0  0  0  0  0  0  0  0  0  0  0  0
   -5.7123   41.6953    9.9031 C   0  0  2  0  0  0  0  0  0  0  0  0
   -6.5266   42.9847    9.8021 C   0  0  0  0  0  0  0  0  0  0  0  0
   -7.7429   42.9561    9.6227 O   0  0  0  0  0  0  0  0  0  0  0  0
   -6.0921   40.6959    8.8040 C   0  0  0  0  0  0  0  0  0  0  0  0
   -5.1572   39.4882    8.7468 C   0  0  0  0  0  0  0  0  0  0  0  0
   -5.4961   38.5414    7.6036 C   0  0  0  0  0  0  0  0  0  0  0  0
   -4.5415   37.3519    7.5714 C   0  0  0  0  0  0  0  0  0  0  0  0
   -3.1150   37.7432    7.3017 N   0  0  0  0  0  0  0  0  0  0  0  0
   -6.0127   44.1008    9.9211 O   0  0  0  0  0  0  0  0  0  0  0  0
  2  1  1  1  0  0  0
  2  3  1  0  0  0  0
  2  5  1  0  0  0  0
  3  4  1  0  0  0  0
  3 10  1  0  0  0  0
  5  6  1  0  0  0  0
  6  7  1  0  0  0  0
  7  8  1  0  0  0  0
  8  9  1  0  0  0  0
M  END
>  <CHROM.1>
-79.05344979,-63.72104736,-176.81386978,179.74921404,-63.60364700,-5.64565050
40.70314202,9.05645284,-2.06729163,0.66263732,-2.38514643

>  <Name>
ligand

>  <RI>
0

>  <Rbt.Current_Directory>
/home/itssahil/PROJECTS/Mol_Feturizer/New_Systems/rnas/3DIL

>  <Rbt.Executable>
rbdock ($Id: //depot/dev/client3/rdock/2013.1/src/exe/rbdock.cxx#4 $)

>  <Rbt.Library>
libRbt.so (2013.1, Build901 2013/11/27)

>  <Rbt.Parameter_File>
/export/apps/rDock/src/rDock_2013.1_src/data/scripts/dock_solv.prm

>  <Rbt.Receptor>
prm/blind_docking_100.prm

>  <SCORE>
-6.53498

>  <SCORE.INTER>
-6.16119

>  <SCORE.INTER.CONST>
1

>  <SCORE.INTER.POLAR>
0

>  <SCORE.INTER.ROT>
5

>  <SCORE.INTER.SOLV>
4.15101

>  <SCORE.INTER.VDW>
-12.4245

>  <SCORE.INTER.norm>
-0.616119

>  <SCORE.INTRA>
-0.374602

>  <SCORE.INTRA.DIHEDRAL>
-1.3209

>  <SCORE.INTRA.DIHEDRAL.0>
2.93688

>  <SCORE.INTRA.POLAR>
0

>  <SCORE.INTRA.POLAR.0>
0

>  <SCORE.INTRA.REPUL>
0

>  <SCORE.INTRA.REPUL.0>
0

>  <SCORE.INTRA.SOLV>
0.230084

>  <SCORE.INTRA.SOLV.lig_0>
-32.2816

>  <SCORE.INTRA.VDW>
0.170808

>  <SCORE.INTRA.VDW.0>
-0.749945

>  <SCORE.INTRA.norm>
-0.0374602

>  <SCORE.RESTR>
0.000808565

>  <SCORE.RESTR.CAVITY>
0.000808565

>  <SCORE.RESTR.norm>
8.08565e-05

>  <SCORE.SYSTEM>
0

>  <SCORE.SYSTEM.CONST>
0

>  <SCORE.SYSTEM.DIHEDRAL>
0

>  <SCORE.SYSTEM.SOLV>
0

>  <SCORE.SYSTEM.norm>
0

>  <SCORE.heavy>
10

>  <SCORE.norm>
-0.653498

>  <RMSD>
45.374

$$$$
ligand
 OpenBabel11021811473D
libRbt.so/2013.1/901 2013/11/27
 10  9  0  0  0  0  0  0  0  0999 V2000
    1.9447   46.4079    1.8935 N   0  0  0  0  0  0  0  0  0  0  0  0
    0.9462   47.3959    2.4009 C   0  0  2  0  0  0  0  0  0  0  0  0
    0.9784   47.4866    3.9263 C   0  0  0  0  0  0  0  0  0  0  0  0
    1.3142   46.5236    4.6134 O   0  0  0  0  0  0  0  0  0  0  0  0
   -0.4588   47.0704    1.8806 C   0  0  0  0  0  0  0  0  0  0  0  0
   -0.5716   47.1776    0.3602 C   0  0  0  0  0  0  0  0  0  0  0  0
   -1.9028   46.6571   -0.1645 C   0  0  0  0  0  0  0  0  0  0  0  0
   -3.0526   47.5721    0.2452 C   0  0  0  0  0  0  0  0  0  0  0  0
   -2.9426   48.9570   -0.3303 N   0  0  0  0  0  0  0  0  0  0  0  0
    0.6983   48.5254    4.5317 O   0  0  0  0  0  0  0  0  0  0  0  0
  2  1  1  1  0  0  0
  2  3  1  0  0  0  0
  2  5  1  0  0  0  0
  3  4  1  0  0  0  0
  3 10  1  0  0  0  0
  5  6  1  0  0  0  0
  6  7  1  0  0  0  0
  7  8  1  0  0  0  0
  8  9  1  0  0  0  0
M  END
>  <CHROM.1>
-28.73099375,-63.66359595,171.53555929,69.04784753,62.95942930,-0.29521206
47.37969523,1.97798054,-0.64315794,0.57397289,-2.07465169

>  <Name>
ligand

>  <RI>
0

>  <Rbt.Current_Directory>
/home/itssahil/PROJECTS/Mol_Feturizer/New_Systems/rnas/3DIL

>  <Rbt.Executable>
rbdock ($Id: //depot/dev/client3/rdock/2013.1/src/exe/rbdock.cxx#4 $)

>  <Rbt.Library>
libRbt.so (2013.1, Build901 2013/11/27)

>  <Rbt.Parameter_File>
/export/apps/rDock/src/rDock_2013.1_src/data/scripts/dock_solv.prm

>  <Rbt.Receptor>
prm/blind_docking_80.prm

>  <SCORE>
-5.73488

>  <SCORE.INTER>
-6.31903

>  <SCORE.INTER.CONST>
1

>  <SCORE.INTER.POLAR>
0

>  <SCORE.INTER.ROT>
5

>  <SCORE.INTER.SOLV>
10.8177

>  <SCORE.INTER.VDW>
-14.7519

>  <SCORE.INTER.norm>
-0.631903

>  <SCORE.INTRA>
0.584147

>  <SCORE.INTRA.DIHEDRAL>
-0.646541

>  <SCORE.INTRA.DIHEDRAL.0>
2.93688

>  <SCORE.INTRA.POLAR>
0

>  <SCORE.INTRA.POLAR.0>
0

>  <SCORE.INTRA.REPUL>
0

>  <SCORE.INTRA.REPUL.0>
0

>  <SCORE.INTRA.SOLV>
0.820798

>  <SCORE.INTRA.SOLV.lig_0>
-32.2816

>  <SCORE.INTRA.VDW>
0.497018

>  <SCORE.INTRA.VDW.0>
-0.749945

>  <SCORE.INTRA.norm>
0.0584147

>  <SCORE.RESTR>
0

>  <SCORE.RESTR.CAVITY>
0

>  <SCORE.RESTR.norm>
0

>  <SCORE.SYSTEM>
0

>  <SCORE.SYSTEM.CONST>
0

>  <SCORE.SYSTEM.DIHEDRAL>
0

>  <SCORE.SYSTEM.SOLV>
0

>  <SCORE.SYSTEM.norm>
0

>  <SCORE.heavy>
10

>  <SCORE.norm>
-0.573488

>  <RMSD>
47.756

$$$$
ligand
 OpenBabel11021811473D
libRbt.so/2013.1/901 2013/11/27
 10  9  0  0  0  0  0  0  0  0999 V2000
    1.4096   46.1971    4.0449 N   0  0  0  0  0  0  0  0  0  0  0  0
    1.1908   47.1511    2.9168 C   0  0  2  0  0  0  0  0  0  0  0  0
    1.0759   48.5900    3.4188 C   0  0  0  0  0  0  0  0  0  0  0  0
    0.6744   48.8369    4.5547 O   0  0  0  0  0  0  0  0  0  0  0  0
   -0.0286   46.7414    2.0824 C   0  0  0  0  0  0  0  0  0  0  0  0
   -0.0820   47.4369    0.7225 C   0  0  0  0  0  0  0  0  0  0  0  0
   -1.2892   47.0128   -0.1028 C   0  0  0  0  0  0  0  0  0  0  0  0
   -2.5833   47.5588    0.4924 C   0  0  0  0  0  0  0  0  0  0  0  0
   -3.7968   47.2465   -0.3388 N   0  0  0  0  0  0  0  0  0  0  0  0
    1.4019   49.5586    2.7263 O   0  0  0  0  0  0  0  0  0  0  0  0
  2  1  1  1  0  0  0
  2  3  1  0  0  0  0
  2  5  1  0  0  0  0
  3  4  1  0  0  0  0
  3 10  1  0  0  0  0
  5  6  1  0  0  0  0
  6  7  1  0  0  0  0
  7  8  1  0  0  0  0
  8  9  1  0  0  0  0
M  END
>  <CHROM.1>
-27.06051953,-164.45032065,179.44866959,70.09675699,176.06544407,-0.19595479
47.66678928,2.07049385,-0.25686668,0.75657986,-3.00829434

>  <Name>
ligand

>  <RI>
0

>  <Rbt.Current_Directory>
/home/itssahil/PROJECTS/Mol_Feturizer/New_Systems/rnas/3DIL

>  <Rbt.Executable>
rbdock ($Id: //depot/dev/client3/rdock/2013.1/src/exe/rbdock.cxx#4 $)

>  <Rbt.Library>
libRbt.so (2013.1, Build901 2013/11/27)

>  <Rbt.Parameter_File>
/export/apps/rDock/src/rDock_2013.1_src/data/scripts/dock_solv.prm

>  <Rbt.Receptor>
prm/blind_docking_80.prm

>  <SCORE>
-4.1564

>  <SCORE.INTER>
-3.77445

>  <SCORE.INTER.CONST>
1

>  <SCORE.INTER.POLAR>
0

>  <SCORE.INTER.ROT>
5

>  <SCORE.INTER.SOLV>
13.0836

>  <SCORE.INTER.VDW>
-13.8109

>  <SCORE.INTER.norm>
-0.377445

>  <SCORE.INTRA>
-0.381948

>  <SCORE.INTRA.DIHEDRAL>
-0.0294715

>  <SCORE.INTRA.DIHEDRAL.0>
2.93688

>  <SCORE.INTRA.POLAR>
0

>  <SCORE.INTRA.POLAR.0>
0

>  <SCORE.INTRA.REPUL>
0

>  <SCORE.INTRA.REPUL.0>
0

>  <SCORE.INTRA.SOLV>
-1.30361

>  <SCORE.INTRA.SOLV.lig_0>
-32.2816

>  <SCORE.INTRA.VDW>
0.284591

>  <SCORE.INTRA.VDW.0>
-0.749945

>  <SCORE.INTRA.norm>
-0.0381948

>  <SCORE.RESTR>
0

>  <SCORE.RESTR.CAVITY>
0

>  <SCORE.RESTR.norm>
0

>  <SCORE.SYSTEM>
0

>  <SCORE.SYSTEM.CONST>
0

>  <SCORE.SYSTEM.DIHEDRAL>
0

>  <SCORE.SYSTEM.SOLV>
0

>  <SCORE.SYSTEM.norm>
0

>  <SCORE.heavy>
10

>  <SCORE.norm>
-0.41564

>  <RMSD>
47.807

$$$$
ligand
 OpenBabel11021811473D
libRbt.so/2013.1/901 2013/11/27
 10  9  0  0  0  0  0  0  0  0999 V2000
    1.0381   46.0385    3.5239 N   0  0  0  0  0  0  0  0  0  0  0  0
    1.2928   47.1922    2.6103 C   0  0  2  0  0  0  0  0  0  0  0  0
    1.0703   48.5260    3.3225 C   0  0  0  0  0  0  0  0  0  0  0  0
    0.6963   48.5669    4.4933 O   0  0  0  0  0  0  0  0  0  0  0  0
    0.4454   47.0795    1.3374 C   0  0  0  0  0  0  0  0  0  0  0  0
   -1.0570   47.1154    1.6157 C   0  0  0  0  0  0  0  0  0  0  0  0
   -1.8884   47.0320    0.3430 C   0  0  0  0  0  0  0  0  0  0  0  0
   -3.3756   47.1890    0.6446 C   0  0  0  0  0  0  0  0  0  0  0  0
   -4.2278   47.2579   -0.5923 N   0  0  0  0  0  0  0  0  0  0  0  0
    1.2787   49.6111    2.7718 O   0  0  0  0  0  0  0  0  0  0  0  0
  2  1  1  1  0  0  0
  2  3  1  0  0  0  0
  2  5  1  0  0  0  0
  3  4  1  0  0  0  0
  3 10  1  0  0  0  0
  5  6  1  0  0  0  0
  6  7  1  0  0  0  0
  7  8  1  0  0  0  0
  8  9  1  0  0  0  0
M  END
>  <CHROM.1>
-1.64265227,62.27284215,178.80837808,-175.18765642,173.98042015,-0.46623004
47.59267663,2.02953143,-0.29227518,0.61521856,-2.94970971

>  <Name>
ligand

>  <RI>
0

>  <Rbt.Current_Directory>
/home/itssahil/PROJECTS/Mol_Feturizer/New_Systems/rnas/3DIL

>  <Rbt.Executable>
rbdock ($Id: //depot/dev/client3/rdock/2013.1/src/exe/rbdock.cxx#4 $)

>  <Rbt.Library>
libRbt.so (2013.1, Build901 2013/11/27)

>  <Rbt.Parameter_File>
/export/apps/rDock/src/rDock_2013.1_src/data/scripts/dock_solv.prm

>  <Rbt.Receptor>
prm/blind_docking_100.prm

>  <SCORE>
-5.40697

>  <SCORE.INTER>
-4.63616

>  <SCORE.INTER.CONST>
1

>  <SCORE.INTER.POLAR>
0

>  <SCORE.INTER.ROT>
5

>  <SCORE.INTER.SOLV>
12.6279

>  <SCORE.INTER.VDW>
-14.2334

>  <SCORE.INTER.norm>
-0.463616

>  <SCORE.INTRA>
-0.770811

>  <SCORE.INTRA.DIHEDRAL>
-1.16559

>  <SCORE.INTRA.DIHEDRAL.0>
2.93688

>  <SCORE.INTRA.POLAR>
0

>  <SCORE.INTRA.POLAR.0>
0

>  <SCORE.INTRA.REPUL>
0

>  <SCORE.INTRA.REPUL.0>
0

>  <SCORE.INTRA.SOLV>
-0.616092

>  <SCORE.INTRA.SOLV.lig_0>
-32.2816

>  <SCORE.INTRA.VDW>
0.120031

>  <SCORE.INTRA.VDW.0>
-0.749945

>  <SCORE.INTRA.norm>
-0.0770811

>  <SCORE.RESTR>
0

>  <SCORE.RESTR.CAVITY>
0

>  <SCORE.RESTR.norm>
0

>  <SCORE.SYSTEM>
0

>  <SCORE.SYSTEM.CONST>
0

>  <SCORE.SYSTEM.DIHEDRAL>
0

>  <SCORE.SYSTEM.SOLV>
0

>  <SCORE.SYSTEM.norm>
0

>  <SCORE.heavy>
10

>  <SCORE.norm>
-0.540697

>  <RMSD>
47.942

$$$$
ligand
 OpenBabel11021811473D
libRbt.so/2013.1/901 2013/11/27
 10  9  0  0  0  0  0  0  0  0999 V2000
    0.3723   48.9057    2.9629 N   0  0  0  0  0  0  0  0  0  0  0  0
    0.1476   47.4302    2.9069 C   0  0  2  0  0  0  0  0  0  0  0  0
    1.4349   46.6596    3.1985 C   0  0  0  0  0  0  0  0  0  0  0  0
    1.5745   46.0276    4.2442 O   0  0  0  0  0  0  0  0  0  0  0  0
   -0.4677   47.0211    1.5635 C   0  0  0  0  0  0  0  0  0  0  0  0
   -1.8963   47.5326    1.3810 C   0  0  0  0  0  0  0  0  0  0  0  0
   -2.5125   47.0852    0.0626 C   0  0  0  0  0  0  0  0  0  0  0  0
   -3.9453   47.5904   -0.0759 C   0  0  0  0  0  0  0  0  0  0  0  0
   -4.5785   47.2258   -1.3901 N   0  0  0  0  0  0  0  0  0  0  0  0
    2.3725   46.6137    2.3968 O   0  0  0  0  0  0  0  0  0  0  0  0
  2  1  1  6  0  0  0
  2  3  1  0  0  0  0
  2  5  1  0  0  0  0
  3  4  1  0  0  0  0
  3 10  1  0  0  0  0
  5  6  1  0  0  0  0
  6  7  1  0  0  0  0
  7  8  1  0  0  0  0
  8  9  1  0  0  0  0
M  END
>  <CHROM.1>
109.83396456,-67.80745739,-178.25455961,178.94452887,177.45030771,-0.71094188
47.19037557,1.74042269,0.22160158,-0.58628145,0.53430350

>  <Name>
ligand

>  <RI>
0

>  <Rbt.Current_Directory>
/home/itssahil/PROJECTS/Mol_Feturizer/New_Systems/rnas/3DIL

>  <Rbt.Executable>
rbdock ($Id: //depot/dev/client3/rdock/2013.1/src/exe/rbdock.cxx#4 $)

>  <Rbt.Library>
libRbt.so (2013.1, Build901 2013/11/27)

>  <Rbt.Parameter_File>
/export/apps/rDock/src/rDock_2013.1_src/data/scripts/dock_solv.prm

>  <Rbt.Receptor>
prm/blind_docking_80.prm

>  <SCORE>
-6.35059

>  <SCORE.INTER>
-5.38792

>  <SCORE.INTER.CONST>
1

>  <SCORE.INTER.POLAR>
0

>  <SCORE.INTER.ROT>
5

>  <SCORE.INTER.SOLV>
9.37241

>  <SCORE.INTER.VDW>
-13.6494

>  <SCORE.INTER.norm>
-0.538792

>  <SCORE.INTRA>
-0.962675

>  <SCORE.INTRA.DIHEDRAL>
-1.1

>  <SCORE.INTRA.DIHEDRAL.0>
2.93688

>  <SCORE.INTRA.POLAR>
0

>  <SCORE.INTRA.POLAR.0>
0

>  <SCORE.INTRA.REPUL>
0

>  <SCORE.INTRA.REPUL.0>
0

>  <SCORE.INTRA.SOLV>
-0.724158

>  <SCORE.INTRA.SOLV.lig_0>
-32.2816

>  <SCORE.INTRA.VDW>
-0.0505956

>  <SCORE.INTRA.VDW.0>
-0.749945

>  <SCORE.INTRA.norm>
-0.0962675

>  <SCORE.RESTR>
0

>  <SCORE.RESTR.CAVITY>
0

>  <SCORE.RESTR.norm>
0

>  <SCORE.SYSTEM>
0

>  <SCORE.SYSTEM.CONST>
0

>  <SCORE.SYSTEM.DIHEDRAL>
0

>  <SCORE.SYSTEM.SOLV>
0

>  <SCORE.SYSTEM.norm>
0

>  <SCORE.heavy>
10

>  <SCORE.norm>
-0.635059

>  <RMSD>
48.018

$$$$
ligand
 OpenBabel11021811473D
libRbt.so/2013.1/901 2013/11/27
 10  9  0  0  0  0  0  0  0  0999 V2000
    0.5775   48.9393    2.6783 N   0  0  0  0  0  0  0  0  0  0  0  0
    0.2028   47.5126    2.9123 C   0  0  2  0  0  0  0  0  0  0  0  0
    1.4307   46.6593    3.2286 C   0  0  0  0  0  0  0  0  0  0  0  0
    1.4881   45.9835    4.2545 O   0  0  0  0  0  0  0  0  0  0  0  0
   -0.5875   46.9525    1.7238 C   0  0  0  0  0  0  0  0  0  0  0  0
   -1.9270   47.6574    1.5127 C   0  0  0  0  0  0  0  0  0  0  0  0
   -2.7007   47.0973    0.3269 C   0  0  0  0  0  0  0  0  0  0  0  0
   -4.0422   47.8044    0.1603 C   0  0  0  0  0  0  0  0  0  0  0  0
   -4.8219   47.3241   -1.0323 N   0  0  0  0  0  0  0  0  0  0  0  0
    2.3990   46.5880    2.4662 O   0  0  0  0  0  0  0  0  0  0  0  0
  2  1  1  6  0  0  0
  2  3  1  0  0  0  0
  2  5  1  0  0  0  0
  3  4  1  0  0  0  0
  3 10  1  0  0  0  0
  5  6  1  0  0  0  0
  6  7  1  0  0  0  0
  7  8  1  0  0  0  0
  8  9  1  0  0  0  0
M  END
>  <CHROM.1>
124.85147909,-63.65231373,179.76712131,178.94387664,177.70493200,-0.76007099
47.23118616,1.83852625,-0.07405216,-0.56567075,0.06092969

>  <Name>
ligand

>  <RI>
0

>  <Rbt.Current_Directory>
/home/itssahil/PROJECTS/Mol_Feturizer/New_Systems/rnas/3DIL

>  <Rbt.Executable>
rbdock ($Id: //depot/dev/client3/rdock/2013.1/src/exe/rbdock.cxx#4 $)

>  <Rbt.Library>
libRbt.so (2013.1, Build901 2013/11/27)

>  <Rbt.Parameter_File>
/export/apps/rDock/src/rDock_2013.1_src/data/scripts/dock_solv.prm

>  <Rbt.Receptor>
prm/blind_docking_80.prm

>  <SCORE>
-6.51867

>  <SCORE.INTER>
-5.40993

>  <SCORE.INTER.CONST>
1

>  <SCORE.INTER.POLAR>
0

>  <SCORE.INTER.ROT>
5

>  <SCORE.INTER.SOLV>
7.77068

>  <SCORE.INTER.VDW>
-13.1302

>  <SCORE.INTER.norm>
-0.540993

>  <SCORE.INTRA>
-1.10874

>  <SCORE.INTRA.DIHEDRAL>
-1.35156

>  <SCORE.INTRA.DIHEDRAL.0>
2.93688

>  <SCORE.INTRA.POLAR>
0

>  <SCORE.INTRA.POLAR.0>
0

>  <SCORE.INTRA.REPUL>
0

>  <SCORE.INTRA.REPUL.0>
0

>  <SCORE.INTRA.SOLV>
-0.652734

>  <SCORE.INTRA.SOLV.lig_0>
-32.2816

>  <SCORE.INTRA.VDW>
-0.106599

>  <SCORE.INTRA.VDW.0>
-0.749945

>  <SCORE.INTRA.norm>
-0.110874

>  <SCORE.RESTR>
0

>  <SCORE.RESTR.CAVITY>
0

>  <SCORE.RESTR.norm>
0

>  <SCORE.SYSTEM>
0

>  <SCORE.SYSTEM.CONST>
0

>  <SCORE.SYSTEM.DIHEDRAL>
0

>  <SCORE.SYSTEM.SOLV>
0

>  <SCORE.SYSTEM.norm>
0

>  <SCORE.heavy>
10

>  <SCORE.norm>
-0.651867

>  <RMSD>
48.035

$$$$
ligand
 OpenBabel11021811473D
libRbt.so/2013.1/901 2013/11/27
 10  9  0  0  0  0  0  0  0  0999 V2000
    0.6476   48.8871    3.0611 N   0  0  0  0  0  0  0  0  0  0  0  0
    0.1397   47.7086    2.2971 C   0  0  2  0  0  0  0  0  0  0  0  0
    1.0343   46.4861    2.4999 C   0  0  0  0  0  0  0  0  0  0  0  0
    2.0368   46.3104    1.8095 O   0  0  0  0  0  0  0  0  0  0  0  0
   -0.0276   48.0502    0.8118 C   0  0  0  0  0  0  0  0  0  0  0  0
   -0.7493   46.9561    0.0256 C   0  0  0  0  0  0  0  0  0  0  0  0
   -2.2122   46.8190    0.4247 C   0  0  0  0  0  0  0  0  0  0  0  0
   -3.0232   48.0287   -0.0291 C   0  0  0  0  0  0  0  0  0  0  0  0
   -4.4691   47.9603    0.3780 N   0  0  0  0  0  0  0  0  0  0  0  0
    0.8107   45.6422    3.3727 O   0  0  0  0  0  0  0  0  0  0  0  0
  2  1  1  1  0  0  0
  2  3  1  0  0  0  0
  2  5  1  0  0  0  0
  3  4  1  0  0  0  0
  3 10  1  0  0  0  0
  5  6  1  0  0  0  0
  6  7  1  0  0  0  0
  7  8  1  0  0  0  0
  8  9  1  0  0  0  0
M  END
>  <CHROM.1>
-85.27803886,-170.92712457,67.98265725,69.46119129,-178.27362781,-0.55302607
47.25632996,1.47582169,0.00841391,-0.52751938,0.42496134

>  <Name>
ligand

>  <RI>
0

>  <Rbt.Current_Directory>
/home/itssahil/PROJECTS/Mol_Feturizer/New_Systems/rnas/3DIL

>  <Rbt.Executable>
rbdock ($Id: //depot/dev/client3/rdock/2013.1/src/exe/rbdock.cxx#4 $)

>  <Rbt.Library>
libRbt.so (2013.1, Build901 2013/11/27)

>  <Rbt.Parameter_File>
/export/apps/rDock/src/rDock_2013.1_src/data/scripts/dock_solv.prm

>  <Rbt.Receptor>
prm/blind_docking_80.prm

>  <SCORE>
-5.53557

>  <SCORE.INTER>
-5.50016

>  <SCORE.INTER.CONST>
1

>  <SCORE.INTER.POLAR>
0

>  <SCORE.INTER.ROT>
5

>  <SCORE.INTER.SOLV>
6.35304

>  <SCORE.INTER.VDW>
-12.7178

>  <SCORE.INTER.norm>
-0.550016

>  <SCORE.INTRA>
-0.0354168

>  <SCORE.INTRA.DIHEDRAL>
-0.541982

>  <SCORE.INTRA.DIHEDRAL.0>
2.93688

>  <SCORE.INTRA.POLAR>
0

>  <SCORE.INTRA.POLAR.0>
0

>  <SCORE.INTRA.REPUL>
0

>  <SCORE.INTRA.REPUL.0>
0

>  <SCORE.INTRA.SOLV>
-1.04259

>  <SCORE.INTRA.SOLV.lig_0>
-32.2816

>  <SCORE.INTRA.VDW>
0.756869

>  <SCORE.INTRA.VDW.0>
-0.749945

>  <SCORE.INTRA.norm>
-0.00354168

>  <SCORE.RESTR>
0

>  <SCORE.RESTR.CAVITY>
0

>  <SCORE.RESTR.norm>
0

>  <SCORE.SYSTEM>
0

>  <SCORE.SYSTEM.CONST>
0

>  <SCORE.SYSTEM.DIHEDRAL>
0

>  <SCORE.SYSTEM.SOLV>
0

>  <SCORE.SYSTEM.norm>
0

>  <SCORE.heavy>
10

>  <SCORE.norm>
-0.553557

>  <RMSD>
48.071

$$$$
ligand
 OpenBabel11021811473D
libRbt.so/2013.1/901 2013/11/27
 10  9  0  0  0  0  0  0  0  0999 V2000
    0.6255   48.9192    2.4733 N   0  0  0  0  0  0  0  0  0  0  0  0
    0.1887   47.5379    2.8363 C   0  0  2  0  0  0  0  0  0  0  0  0
    1.3815   46.6544    3.2005 C   0  0  0  0  0  0  0  0  0  0  0  0
    1.3660   45.9487    4.2075 O   0  0  0  0  0  0  0  0  0  0  0  0
   -0.6557   46.9189    1.7161 C   0  0  0  0  0  0  0  0  0  0  0  0
   -1.9531   47.6834    1.4552 C   0  0  0  0  0  0  0  0  0  0  0  0
   -2.7584   47.0914    0.3066 C   0  0  0  0  0  0  0  0  0  0  0  0
   -4.0375   47.8861    0.0629 C   0  0  0  0  0  0  0  0  0  0  0  0
   -4.8555   47.3572   -1.0826 N   0  0  0  0  0  0  0  0  0  0  0  0
    2.3931   46.5880    2.4959 O   0  0  0  0  0  0  0  0  0  0  0  0
  2  1  1  6  0  0  0
  2  3  1  0  0  0  0
  2  5  1  0  0  0  0
  3  4  1  0  0  0  0
  3 10  1  0  0  0  0
  5  6  1  0  0  0  0
  6  7  1  0  0  0  0
  7  8  1  0  0  0  0
  8  9  1  0  0  0  0
M  END
>  <CHROM.1>
133.14832426,-62.65011066,177.84152010,-179.36579086,178.80466181,-0.79329840
47.23722499,1.78365150,-0.19362152,-0.54322351,-0.14983004

>  <Name>
ligand

>  <RI>
0

>  <Rbt.Current_Directory>
/home/itssahil/PROJECTS/Mol_Feturizer/New_Systems/rnas/3DIL

>  <Rbt.Executable>
rbdock ($Id: //depot/dev/client3/rdock/2013.1/src/exe/rbdock.cxx#4 $)

>  <Rbt.Library>
libRbt.so (2013.1, Build901 2013/11/27)

>  <Rbt.Parameter_File>
/export/apps/rDock/src/rDock_2013.1_src/data/scripts/dock_solv.prm

>  <Rbt.Receptor>
prm/blind_docking_60.prm

>  <SCORE>
-6.38778

>  <SCORE.INTER>
-5.25909

>  <SCORE.INTER.CONST>
1

>  <SCORE.INTER.POLAR>
0

>  <SCORE.INTER.ROT>
5

>  <SCORE.INTER.SOLV>
7.27804

>  <SCORE.INTER.VDW>
-12.8654

>  <SCORE.INTER.norm>
-0.525909

>  <SCORE.INTRA>
-1.12869

>  <SCORE.INTRA.DIHEDRAL>
-1.39851

>  <SCORE.INTRA.DIHEDRAL.0>
2.93688

>  <SCORE.INTRA.POLAR>
0

>  <SCORE.INTRA.POLAR.0>
0

>  <SCORE.INTRA.REPUL>
0

>  <SCORE.INTRA.REPUL.0>
0

>  <SCORE.INTRA.SOLV>
-0.625726

>  <SCORE.INTRA.SOLV.lig_0>
-32.2816

>  <SCORE.INTRA.VDW>
-0.116573

>  <SCORE.INTRA.VDW.0>
-0.749945

>  <SCORE.INTRA.norm>
-0.112869

>  <SCORE.RESTR>
0

>  <SCORE.RESTR.CAVITY>
0

>  <SCORE.RESTR.norm>
0

>  <SCORE.SYSTEM>
0

>  <SCORE.SYSTEM.CONST>
0

>  <SCORE.SYSTEM.DIHEDRAL>
0

>  <SCORE.SYSTEM.SOLV>
0

>  <SCORE.SYSTEM.norm>
0

>  <SCORE.heavy>
10

>  <SCORE.norm>
-0.638778

>  <RMSD>
48.082

$$$$
ligand
 OpenBabel11021811473D
libRbt.so/2013.1/901 2013/11/27
 10  9  0  0  0  0  0  0  0  0999 V2000
    0.3440   48.8845    2.4588 N   0  0  0  0  0  0  0  0  0  0  0  0
    0.1679   47.4319    2.1597 C   0  0  2  0  0  0  0  0  0  0  0  0
    1.3117   46.6011    2.7405 C   0  0  0  0  0  0  0  0  0  0  0  0
    2.4372   46.6355    2.2461 O   0  0  0  0  0  0  0  0  0  0  0  0
    0.0049   47.1994    0.6530 C   0  0  0  0  0  0  0  0  0  0  0  0
   -1.3398   47.6883    0.1158 C   0  0  0  0  0  0  0  0  0  0  0  0
   -2.5090   46.8563    0.6249 C   0  0  0  0  0  0  0  0  0  0  0  0
   -3.8435   47.4898    0.2442 C   0  0  0  0  0  0  0  0  0  0  0  0
   -4.0290   47.6353   -1.2409 N   0  0  0  0  0  0  0  0  0  0  0  0
    1.1685   45.8864    3.7368 O   0  0  0  0  0  0  0  0  0  0  0  0
  2  1  1  6  0  0  0
  2  3  1  0  0  0  0
  2  5  1  0  0  0  0
  3  4  1  0  0  0  0
  3 10  1  0  0  0  0
  5  6  1  0  0  0  0
  6  7  1  0  0  0  0
  7  8  1  0  0  0  0
  8  9  1  0  0  0  0
M  END
>  <CHROM.1>
-72.26049607,-71.26157634,-68.35266913,171.49390333,59.80414808,-0.59378516
47.21100125,1.39420239,-0.44099258,-0.39630682,-0.64581320

>  <Name>
ligand

>  <RI>
0

>  <Rbt.Current_Directory>
/home/itssahil/PROJECTS/Mol_Feturizer/New_Systems/rnas/3DIL

>  <Rbt.Executable>
rbdock ($Id: //depot/dev/client3/rdock/2013.1/src/exe/rbdock.cxx#4 $)

>  <Rbt.Library>
libRbt.so (2013.1, Build901 2013/11/27)

>  <Rbt.Parameter_File>
/export/apps/rDock/src/rDock_2013.1_src/data/scripts/dock_solv.prm

>  <Rbt.Receptor>
prm/blind_docking_60.prm

>  <SCORE>
-5.67076

>  <SCORE.INTER>
-6.01558

>  <SCORE.INTER.CONST>
1

>  <SCORE.INTER.POLAR>
0

>  <SCORE.INTER.ROT>
5

>  <SCORE.INTER.SOLV>
6.77063

>  <SCORE.INTER.VDW>
-13.2006

>  <SCORE.INTER.norm>
-0.601558

>  <SCORE.INTRA>
0.344824

>  <SCORE.INTRA.DIHEDRAL>
-0.366926

>  <SCORE.INTRA.DIHEDRAL.0>
2.93688

>  <SCORE.INTRA.POLAR>
0

>  <SCORE.INTRA.POLAR.0>
0

>  <SCORE.INTRA.REPUL>
0

>  <SCORE.INTRA.REPUL.0>
0

>  <SCORE.INTRA.SOLV>
0.588378

>  <SCORE.INTRA.SOLV.lig_0>
-32.2816

>  <SCORE.INTRA.VDW>
0.234098

>  <SCORE.INTRA.VDW.0>
-0.749945

>  <SCORE.INTRA.norm>
0.0344824

>  <SCORE.RESTR>
0

>  <SCORE.RESTR.CAVITY>
0

>  <SCORE.RESTR.norm>
0

>  <SCORE.SYSTEM>
0

>  <SCORE.SYSTEM.CONST>
0

>  <SCORE.SYSTEM.DIHEDRAL>
0

>  <SCORE.SYSTEM.SOLV>
0

>  <SCORE.SYSTEM.norm>
0

>  <SCORE.heavy>
10

>  <SCORE.norm>
-0.567076

>  <RMSD>
48.090

$$$$
ligand
 OpenBabel11021811473D
libRbt.so/2013.1/901 2013/11/27
 10  9  0  0  0  0  0  0  0  0999 V2000
   -1.8196   49.1258    0.4574 N   0  0  0  0  0  0  0  0  0  0  0  0
   -1.1476   47.7959    0.3545 C   0  0  2  0  0  0  0  0  0  0  0  0
   -2.0254   46.7841   -0.3815 C   0  0  0  0  0  0  0  0  0  0  0  0
   -3.2411   46.9456   -0.4738 O   0  0  0  0  0  0  0  0  0  0  0  0
   -0.7303   47.2852    1.7387 C   0  0  0  0  0  0  0  0  0  0  0  0
    0.3230   48.1678    2.4076 C   0  0  0  0  0  0  0  0  0  0  0  0
    0.7620   47.6280    3.7619 C   0  0  0  0  0  0  0  0  0  0  0  0
    1.4729   46.2861    3.6165 C   0  0  0  0  0  0  0  0  0  0  0  0
    1.9938   45.7463    4.9197 N   0  0  0  0  0  0  0  0  0  0  0  0
   -1.5582   45.7838   -0.9340 O   0  0  0  0  0  0  0  0  0  0  0  0
  2  1  1  1  0  0  0
  2  3  1  0  0  0  0
  2  5  1  0  0  0  0
  3  4  1  0  0  0  0
  3 10  1  0  0  0  0
  5  6  1  0  0  0  0
  6  7  1  0  0  0  0
  7  8  1  0  0  0  0
  8  9  1  0  0  0  0
M  END
>  <CHROM.1>
-20.89998097,-64.25304520,-178.19973551,64.77169089,176.82852519,-0.62330627
47.13338782,1.51951238,3.00500415,0.88112073,-2.85626554

>  <Name>
ligand

>  <RI>
0

>  <Rbt.Current_Directory>
/home/itssahil/PROJECTS/Mol_Feturizer/New_Systems/rnas/3DIL

>  <Rbt.Executable>
rbdock ($Id: //depot/dev/client3/rdock/2013.1/src/exe/rbdock.cxx#4 $)

>  <Rbt.Library>
libRbt.so (2013.1, Build901 2013/11/27)

>  <Rbt.Parameter_File>
/export/apps/rDock/src/rDock_2013.1_src/data/scripts/dock_solv.prm

>  <Rbt.Receptor>
prm/blind_docking_80.prm

>  <SCORE>
-4.75848

>  <SCORE.INTER>
-4.59202

>  <SCORE.INTER.CONST>
1

>  <SCORE.INTER.POLAR>
0

>  <SCORE.INTER.ROT>
5

>  <SCORE.INTER.SOLV>
12.4717

>  <SCORE.INTER.VDW>
-14.1519

>  <SCORE.INTER.norm>
-0.459202

>  <SCORE.INTRA>
-0.166455

>  <SCORE.INTRA.DIHEDRAL>
-1.1503

>  <SCORE.INTRA.DIHEDRAL.0>
2.93688

>  <SCORE.INTRA.POLAR>
0

>  <SCORE.INTRA.POLAR.0>
0

>  <SCORE.INTRA.REPUL>
0

>  <SCORE.INTRA.REPUL.0>
0

>  <SCORE.INTRA.SOLV>
-0.432149

>  <SCORE.INTRA.SOLV.lig_0>
-32.2816

>  <SCORE.INTRA.VDW>
0.624771

>  <SCORE.INTRA.VDW.0>
-0.749945

>  <SCORE.INTRA.norm>
-0.0166455

>  <SCORE.RESTR>
0

>  <SCORE.RESTR.CAVITY>
0

>  <SCORE.RESTR.norm>
0

>  <SCORE.SYSTEM>
0

>  <SCORE.SYSTEM.CONST>
0

>  <SCORE.SYSTEM.DIHEDRAL>
0

>  <SCORE.SYSTEM.SOLV>
0

>  <SCORE.SYSTEM.norm>
0

>  <SCORE.heavy>
10

>  <SCORE.norm>
-0.475848

>  <RMSD>
48.157

$$$$
ligand
 OpenBabel11021811473D
libRbt.so/2013.1/901 2013/11/27
 10  9  0  0  0  0  0  0  0  0999 V2000
    0.6965   48.9108    2.4276 N   0  0  0  0  0  0  0  0  0  0  0  0
    0.1076   47.5532    2.2251 C   0  0  2  0  0  0  0  0  0  0  0  0
    1.1008   46.4539    2.6005 C   0  0  0  0  0  0  0  0  0  0  0  0
    0.8562   45.6582    3.5057 O   0  0  0  0  0  0  0  0  0  0  0  0
   -0.4067   47.3885    0.7901 C   0  0  0  0  0  0  0  0  0  0  0  0
   -1.4491   48.4381    0.4058 C   0  0  0  0  0  0  0  0  0  0  0  0
   -2.7319   48.3105    1.2159 C   0  0  0  0  0  0  0  0  0  0  0  0
   -3.5617   47.1180    0.7503 C   0  0  0  0  0  0  0  0  0  0  0  0
   -4.1165   47.2868   -0.6371 N   0  0  0  0  0  0  0  0  0  0  0  0
    2.1696   46.2979    2.0028 O   0  0  0  0  0  0  0  0  0  0  0  0
  2  1  1  6  0  0  0
  2  3  1  0  0  0  0
  2  5  1  0  0  0  0
  3  4  1  0  0  0  0
  3 10  1  0  0  0  0
  5  6  1  0  0  0  0
  6  7  1  0  0  0  0
  7  8  1  0  0  0  0
  8  9  1  0  0  0  0
M  END
>  <CHROM.1>
118.33254733,-57.62966328,-65.25612916,-74.67304850,-67.19962964,-0.70263616
47.31441899,1.54281952,-0.30887198,-0.41678289,-0.25588281

>  <Name>
ligand

>  <RI>
0

>  <Rbt.Current_Directory>
/home/itssahil/PROJECTS/Mol_Feturizer/New_Systems/rnas/3DIL

>  <Rbt.Executable>
rbdock ($Id: //depot/dev/client3/rdock/2013.1/src/exe/rbdock.cxx#4 $)

>  <Rbt.Library>
libRbt.so (2013.1, Build901 2013/11/27)

>  <Rbt.Parameter_File>
/export/apps/rDock/src/rDock_2013.1_src/data/scripts/dock_solv.prm

>  <Rbt.Receptor>
prm/blind_docking_100.prm

>  <SCORE>
-3.36066

>  <SCORE.INTER>
-4.43453

>  <SCORE.INTER.CONST>
1

>  <SCORE.INTER.POLAR>
0

>  <SCORE.INTER.ROT>
5

>  <SCORE.INTER.SOLV>
6.36889

>  <SCORE.INTER.VDW>
-12.0126

>  <SCORE.INTER.norm>
-0.443453

>  <SCORE.INTRA>
1.07387

>  <SCORE.INTRA.DIHEDRAL>
-0.234038

>  <SCORE.INTRA.DIHEDRAL.0>
2.93688

>  <SCORE.INTRA.POLAR>
0

>  <SCORE.INTRA.POLAR.0>
0

>  <SCORE.INTRA.REPUL>
0

>  <SCORE.INTRA.REPUL.0>
0

>  <SCORE.INTRA.SOLV>
1.22531

>  <SCORE.INTRA.SOLV.lig_0>
-32.2816

>  <SCORE.INTRA.VDW>
0.578236

>  <SCORE.INTRA.VDW.0>
-0.749945

>  <SCORE.INTRA.norm>
0.107387

>  <SCORE.RESTR>
0

>  <SCORE.RESTR.CAVITY>
0

>  <SCORE.RESTR.norm>
0

>  <SCORE.SYSTEM>
0

>  <SCORE.SYSTEM.CONST>
0

>  <SCORE.SYSTEM.DIHEDRAL>
0

>  <SCORE.SYSTEM.SOLV>
0

>  <SCORE.SYSTEM.norm>
0

>  <SCORE.heavy>
10

>  <SCORE.norm>
-0.336066

>  <RMSD>
48.170

$$$$
ligand
 OpenBabel11021811473D
libRbt.so/2013.1/901 2013/11/27
 10  9  0  0  0  0  0  0  0  0999 V2000
    0.9020   49.0531    2.3509 N   0  0  0  0  0  0  0  0  0  0  0  0
    0.3381   47.6724    2.4304 C   0  0  2  0  0  0  0  0  0  0  0  0
    1.4102   46.6545    2.8182 C   0  0  0  0  0  0  0  0  0  0  0  0
    1.2167   45.8390    3.7182 O   0  0  0  0  0  0  0  0  0  0  0  0
   -0.3604   47.2904    1.1200 C   0  0  0  0  0  0  0  0  0  0  0  0
   -1.4671   48.2684    0.7268 C   0  0  0  0  0  0  0  0  0  0  0  0
   -2.5825   48.3341    1.7611 C   0  0  0  0  0  0  0  0  0  0  0  0
   -3.6319   49.3719    1.3752 C   0  0  0  0  0  0  0  0  0  0  0  0
   -4.7404   49.4980    2.3834 N   0  0  0  0  0  0  0  0  0  0  0  0
    2.4967   46.5862    2.2361 O   0  0  0  0  0  0  0  0  0  0  0  0
  2  1  1  6  0  0  0
  2  3  1  0  0  0  0
  2  5  1  0  0  0  0
  3  4  1  0  0  0  0
  3 10  1  0  0  0  0
  5  6  1  0  0  0  0
  6  7  1  0  0  0  0
  7  8  1  0  0  0  0
  8  9  1  0  0  0  0
M  END
>  <CHROM.1>
131.00349081,-56.78871077,-61.38563970,176.97024333,-178.64287966,-0.60797285
47.82891622,2.10391140,-0.39797407,0.24936291,-0.91842649

>  <Name>
ligand

>  <RI>
0

>  <Rbt.Current_Directory>
/home/itssahil/PROJECTS/Mol_Feturizer/New_Systems/rnas/3DIL

>  <Rbt.Executable>
rbdock ($Id: //depot/dev/client3/rdock/2013.1/src/exe/rbdock.cxx#4 $)

>  <Rbt.Library>
libRbt.so (2013.1, Build901 2013/11/27)

>  <Rbt.Parameter_File>
/export/apps/rDock/src/rDock_2013.1_src/data/scripts/dock_solv.prm

>  <Rbt.Receptor>
prm/blind_docking_80.prm

>  <SCORE>
-4.59539

>  <SCORE.INTER>
-4.19671

>  <SCORE.INTER.CONST>
1

>  <SCORE.INTER.POLAR>
0

>  <SCORE.INTER.ROT>
5

>  <SCORE.INTER.SOLV>
3.88544

>  <SCORE.INTER.VDW>
-11.0263

>  <SCORE.INTER.norm>
-0.419671

>  <SCORE.INTRA>
-0.398681

>  <SCORE.INTRA.DIHEDRAL>
-1.36758

>  <SCORE.INTRA.DIHEDRAL.0>
2.93688

>  <SCORE.INTRA.POLAR>
0

>  <SCORE.INTRA.POLAR.0>
0

>  <SCORE.INTRA.REPUL>
0

>  <SCORE.INTRA.REPUL.0>
0

>  <SCORE.INTRA.SOLV>
0.0829847

>  <SCORE.INTRA.SOLV.lig_0>
-32.2816

>  <SCORE.INTRA.VDW>
0.243614

>  <SCORE.INTRA.VDW.0>
-0.749945

>  <SCORE.INTRA.norm>
-0.0398681

>  <SCORE.RESTR>
0

>  <SCORE.RESTR.CAVITY>
0

>  <SCORE.RESTR.norm>
0

>  <SCORE.SYSTEM>
0

>  <SCORE.SYSTEM.CONST>
0

>  <SCORE.SYSTEM.DIHEDRAL>
0

>  <SCORE.SYSTEM.SOLV>
0

>  <SCORE.SYSTEM.norm>
0

>  <SCORE.heavy>
10

>  <SCORE.norm>
-0.459539

>  <RMSD>
48.243

$$$$
ligand
 OpenBabel11021811473D
libRbt.so/2013.1/901 2013/11/27
 10  9  0  0  0  0  0  0  0  0999 V2000
    0.8194   48.9829    2.1626 N   0  0  0  0  0  0  0  0  0  0  0  0
    0.1630   47.6575    1.9553 C   0  0  2  0  0  0  0  0  0  0  0  0
    1.0386   46.5158    2.4709 C   0  0  0  0  0  0  0  0  0  0  0  0
    0.6896   45.8303    3.4304 O   0  0  0  0  0  0  0  0  0  0  0  0
   -0.2192   47.4604    0.4836 C   0  0  0  0  0  0  0  0  0  0  0  0
   -1.6102   46.8530    0.3046 C   0  0  0  0  0  0  0  0  0  0  0  0
   -2.7217   47.8090    0.7153 C   0  0  0  0  0  0  0  0  0  0  0  0
   -4.0958   47.1846    0.4937 C   0  0  0  0  0  0  0  0  0  0  0  0
   -5.2301   48.1270    0.7876 N   0  0  0  0  0  0  0  0  0  0  0  0
    2.1110   46.2145    1.9387 O   0  0  0  0  0  0  0  0  0  0  0  0
  2  1  1  6  0  0  0
  2  3  1  0  0  0  0
  2  5  1  0  0  0  0
  3  4  1  0  0  0  0
  3 10  1  0  0  0  0
  5  6  1  0  0  0  0
  6  7  1  0  0  0  0
  7  8  1  0  0  0  0
  8  9  1  0  0  0  0
M  END
>  <CHROM.1>
113.88597552,-137.06474329,68.81538757,178.67098634,-175.69776975,-0.87610880
47.23630802,1.49043182,-0.28269345,-0.23143062,-0.40936588

>  <Name>
ligand

>  <RI>
0

>  <Rbt.Current_Directory>
/home/itssahil/PROJECTS/Mol_Feturizer/New_Systems/rnas/3DIL

>  <Rbt.Executable>
rbdock ($Id: //depot/dev/client3/rdock/2013.1/src/exe/rbdock.cxx#4 $)

>  <Rbt.Library>
libRbt.so (2013.1, Build901 2013/11/27)

>  <Rbt.Parameter_File>
/export/apps/rDock/src/rDock_2013.1_src/data/scripts/dock_solv.prm

>  <Rbt.Receptor>
prm/blind_docking_60.prm

>  <SCORE>
-4.55051

>  <SCORE.INTER>
-5.88612

>  <SCORE.INTER.CONST>
1

>  <SCORE.INTER.POLAR>
0

>  <SCORE.INTER.ROT>
5

>  <SCORE.INTER.SOLV>
6.17297

>  <SCORE.INTER.VDW>
-12.9151

>  <SCORE.INTER.norm>
-0.588612

>  <SCORE.INTRA>
1.33561

>  <SCORE.INTRA.DIHEDRAL>
3.62524

>  <SCORE.INTRA.DIHEDRAL.0>
2.93688

>  <SCORE.INTRA.POLAR>
0

>  <SCORE.INTRA.POLAR.0>
0

>  <SCORE.INTRA.REPUL>
0

>  <SCORE.INTRA.REPUL.0>
0

>  <SCORE.INTRA.SOLV>
-0.85222

>  <SCORE.INTRA.SOLV.lig_0>
-32.2816

>  <SCORE.INTRA.VDW>
-0.0509032

>  <SCORE.INTRA.VDW.0>
-0.749945

>  <SCORE.INTRA.norm>
0.133561

>  <SCORE.RESTR>
0

>  <SCORE.RESTR.CAVITY>
0

>  <SCORE.RESTR.norm>
0

>  <SCORE.SYSTEM>
0

>  <SCORE.SYSTEM.CONST>
0

>  <SCORE.SYSTEM.DIHEDRAL>
0

>  <SCORE.SYSTEM.SOLV>
0

>  <SCORE.SYSTEM.norm>
0

>  <SCORE.heavy>
10

>  <SCORE.norm>
-0.455051

>  <RMSD>
48.255

$$$$
ligand
 OpenBabel11021811473D
libRbt.so/2013.1/901 2013/11/27
 10  9  0  0  0  0  0  0  0  0999 V2000
    1.4233   49.0946    2.7481 N   0  0  0  0  0  0  0  0  0  0  0  0
    0.4668   48.0346    3.1864 C   0  0  2  0  0  0  0  0  0  0  0  0
    1.0314   46.6368    2.9350 C   0  0  0  0  0  0  0  0  0  0  0  0
    1.7409   46.4039    1.9579 O   0  0  0  0  0  0  0  0  0  0  0  0
   -0.9014   48.2229    2.5204 C   0  0  0  0  0  0  0  0  0  0  0  0
   -1.5253   49.5868    2.8145 C   0  0  0  0  0  0  0  0  0  0  0  0
   -2.8919   49.7557    2.1646 C   0  0  0  0  0  0  0  0  0  0  0  0
   -3.9464   48.9088    2.8702 C   0  0  0  0  0  0  0  0  0  0  0  0
   -5.3229   49.0677    2.2863 N   0  0  0  0  0  0  0  0  0  0  0  0
    0.8267   45.6940    3.7053 O   0  0  0  0  0  0  0  0  0  0  0  0
  2  1  1  6  0  0  0
  2  3  1  0  0  0  0
  2  5  1  0  0  0  0
  3  4  1  0  0  0  0
  3 10  1  0  0  0  0
  5  6  1  0  0  0  0
  6  7  1  0  0  0  0
  7  8  1  0  0  0  0
  8  9  1  0  0  0  0
M  END
>  <CHROM.1>
-34.55108310,-58.08284414,-179.19918714,72.23799476,178.54752398,-0.88580085
48.10407151,2.71568455,-0.43960010,0.00129795,-0.15265645

>  <Name>
ligand

>  <RI>
0

>  <Rbt.Current_Directory>
/home/itssahil/PROJECTS/Mol_Feturizer/New_Systems/rnas/3DIL

>  <Rbt.Executable>
rbdock ($Id: //depot/dev/client3/rdock/2013.1/src/exe/rbdock.cxx#4 $)

>  <Rbt.Library>
libRbt.so (2013.1, Build901 2013/11/27)

>  <Rbt.Parameter_File>
/export/apps/rDock/src/rDock_2013.1_src/data/scripts/dock_solv.prm

>  <Rbt.Receptor>
prm/blind_docking_60.prm

>  <SCORE>
-5.6398

>  <SCORE.INTER>
-5.46906

>  <SCORE.INTER.CONST>
1

>  <SCORE.INTER.POLAR>
0

>  <SCORE.INTER.ROT>
5

>  <SCORE.INTER.SOLV>
6.51041

>  <SCORE.INTER.VDW>
-12.7495

>  <SCORE.INTER.norm>
-0.546906

>  <SCORE.INTRA>
-0.170746

>  <SCORE.INTRA.DIHEDRAL>
-0.748808

>  <SCORE.INTRA.DIHEDRAL.0>
2.93688

>  <SCORE.INTRA.POLAR>
0

>  <SCORE.INTRA.POLAR.0>
0

>  <SCORE.INTRA.REPUL>
0

>  <SCORE.INTRA.REPUL.0>
0

>  <SCORE.INTRA.SOLV>
-0.390592

>  <SCORE.INTRA.SOLV.lig_0>
-32.2816

>  <SCORE.INTRA.VDW>
0.398954

>  <SCORE.INTRA.VDW.0>
-0.749945

>  <SCORE.INTRA.norm>
-0.0170746

>  <SCORE.RESTR>
0

>  <SCORE.RESTR.CAVITY>
0

>  <SCORE.RESTR.norm>
0

>  <SCORE.SYSTEM>
0

>  <SCORE.SYSTEM.CONST>
0

>  <SCORE.SYSTEM.DIHEDRAL>
0

>  <SCORE.SYSTEM.SOLV>
0

>  <SCORE.SYSTEM.norm>
0

>  <SCORE.heavy>
10

>  <SCORE.norm>
-0.56398

>  <RMSD>
48.371

$$$$
ligand
 OpenBabel11021811473D
libRbt.so/2013.1/901 2013/11/27
 10  9  0  0  0  0  0  0  0  0999 V2000
   -3.2019   48.4214   -0.8181 N   0  0  0  0  0  0  0  0  0  0  0  0
   -1.9757   48.2827    0.0232 C   0  0  2  0  0  0  0  0  0  0  0  0
   -1.1554   47.0597   -0.3858 C   0  0  0  0  0  0  0  0  0  0  0  0
   -1.6798   45.9540   -0.5070 O   0  0  0  0  0  0  0  0  0  0  0  0
   -2.3351   48.2534    1.5135 C   0  0  0  0  0  0  0  0  0  0  0  0
   -1.1244   48.4595    2.4232 C   0  0  0  0  0  0  0  0  0  0  0  0
   -0.2251   47.2324    2.4850 C   0  0  0  0  0  0  0  0  0  0  0  0
    0.9094   47.4301    3.4855 C   0  0  0  0  0  0  0  0  0  0  0  0
    1.7716   46.2097    3.6534 N   0  0  0  0  0  0  0  0  0  0  0  0
    0.0515   47.1284   -0.6365 O   0  0  0  0  0  0  0  0  0  0  0  0
  2  1  1  6  0  0  0
  2  3  1  0  0  0  0
  2  5  1  0  0  0  0
  3  4  1  0  0  0  0
  3 10  1  0  0  0  0
  5  6  1  0  0  0  0
  6  7  1  0  0  0  0
  7  8  1  0  0  0  0
  8  9  1  0  0  0  0
M  END
>  <CHROM.1>
-50.18107440,-165.82124111,-74.08101860,-175.42529895,176.03241012,-0.88284368
47.41744036,1.10557263,2.45064516,0.61738489,-2.00434003

>  <Name>
ligand

>  <RI>
0

>  <Rbt.Current_Directory>
/home/itssahil/PROJECTS/Mol_Feturizer/New_Systems/rnas/3DIL

>  <Rbt.Executable>
rbdock ($Id: //depot/dev/client3/rdock/2013.1/src/exe/rbdock.cxx#4 $)

>  <Rbt.Library>
libRbt.so (2013.1, Build901 2013/11/27)

>  <Rbt.Parameter_File>
/export/apps/rDock/src/rDock_2013.1_src/data/scripts/dock_solv.prm

>  <Rbt.Receptor>
prm/blind_docking_100.prm

>  <SCORE>
-3.52044

>  <SCORE.INTER>
-2.95807

>  <SCORE.INTER.CONST>
1

>  <SCORE.INTER.POLAR>
0

>  <SCORE.INTER.ROT>
5

>  <SCORE.INTER.SOLV>
10.4664

>  <SCORE.INTER.VDW>
-12.3942

>  <SCORE.INTER.norm>
-0.295807

>  <SCORE.INTRA>
-0.562363

>  <SCORE.INTRA.DIHEDRAL>
0.260907

>  <SCORE.INTRA.DIHEDRAL.0>
2.93688

>  <SCORE.INTRA.POLAR>
0

>  <SCORE.INTRA.POLAR.0>
0

>  <SCORE.INTRA.REPUL>
0

>  <SCORE.INTRA.REPUL.0>
0

>  <SCORE.INTRA.SOLV>
-1.3944

>  <SCORE.INTRA.SOLV.lig_0>
-32.2816

>  <SCORE.INTRA.VDW>
0.00438368

>  <SCORE.INTRA.VDW.0>
-0.749945

>  <SCORE.INTRA.norm>
-0.0562363

>  <SCORE.RESTR>
0

>  <SCORE.RESTR.CAVITY>
0

>  <SCORE.RESTR.norm>
0

>  <SCORE.SYSTEM>
0

>  <SCORE.SYSTEM.CONST>
0

>  <SCORE.SYSTEM.DIHEDRAL>
0

>  <SCORE.SYSTEM.SOLV>
0

>  <SCORE.SYSTEM.norm>
0

>  <SCORE.heavy>
10

>  <SCORE.norm>
-0.352044

>  <RMSD>
48.657

$$$$
ligand
 OpenBabel11021811473D
libRbt.so/2013.1/901 2013/11/27
 10  9  0  0  0  0  0  0  0  0999 V2000
   -0.9834   50.7478   11.3832 N   0  0  0  0  0  0  0  0  0  0  0  0
   -2.3483   51.3025   11.1383 C   0  0  2  0  0  0  0  0  0  0  0  0
   -2.9069   50.8342    9.7950 C   0  0  0  0  0  0  0  0  0  0  0  0
   -4.0950   50.5440    9.6669 O   0  0  0  0  0  0  0  0  0  0  0  0
   -2.3458   52.8316   11.2506 C   0  0  0  0  0  0  0  0  0  0  0  0
   -2.0826   53.3250   12.6730 C   0  0  0  0  0  0  0  0  0  0  0  0
   -1.9336   54.8384   12.7476 C   0  0  0  0  0  0  0  0  0  0  0  0
   -1.7854   55.3073   14.1917 C   0  0  0  0  0  0  0  0  0  0  0  0
   -0.5789   54.7328   14.8812 N   0  0  0  0  0  0  0  0  0  0  0  0
   -2.2065   50.7518    8.7817 O   0  0  0  0  0  0  0  0  0  0  0  0
  2  1  1  6  0  0  0
  2  3  1  0  0  0  0
  2  5  1  0  0  0  0
  3  4  1  0  0  0  0
  3 10  1  0  0  0  0
  5  6  1  0  0  0  0
  6  7  1  0  0  0  0
  7  8  1  0  0  0  0
  8  9  1  0  0  0  0
M  END
>  <CHROM.1>
141.52506396,-67.48534170,173.84730311,175.39266818,60.54573286,-2.14291521
52.50190008,11.61283097,-1.84858256,-0.55245820,0.66519231

>  <Name>
ligand

>  <RI>
0

>  <Rbt.Current_Directory>
/home/itssahil/PROJECTS/Mol_Feturizer/New_Systems/rnas/3DIL

>  <Rbt.Executable>
rbdock ($Id: //depot/dev/client3/rdock/2013.1/src/exe/rbdock.cxx#4 $)

>  <Rbt.Library>
libRbt.so (2013.1, Build901 2013/11/27)

>  <Rbt.Parameter_File>
/export/apps/rDock/src/rDock_2013.1_src/data/scripts/dock_solv.prm

>  <Rbt.Receptor>
prm/blind_docking_80.prm

>  <SCORE>
-5.07954

>  <SCORE.INTER>
-4.65638

>  <SCORE.INTER.CONST>
1

>  <SCORE.INTER.POLAR>
0

>  <SCORE.INTER.ROT>
5

>  <SCORE.INTER.SOLV>
11.1241

>  <SCORE.INTER.VDW>
-13.7456

>  <SCORE.INTER.norm>
-0.465638

>  <SCORE.INTRA>
-0.42316

>  <SCORE.INTRA.DIHEDRAL>
-0.992694

>  <SCORE.INTRA.DIHEDRAL.0>
2.93688

>  <SCORE.INTRA.POLAR>
0

>  <SCORE.INTRA.POLAR.0>
0

>  <SCORE.INTRA.REPUL>
0

>  <SCORE.INTRA.REPUL.0>
0

>  <SCORE.INTRA.SOLV>
0.250636

>  <SCORE.INTRA.SOLV.lig_0>
-32.2816

>  <SCORE.INTRA.VDW>
-0.0521304

>  <SCORE.INTRA.VDW.0>
-0.749945

>  <SCORE.INTRA.norm>
-0.042316

>  <SCORE.RESTR>
0

>  <SCORE.RESTR.CAVITY>
0

>  <SCORE.RESTR.norm>
0

>  <SCORE.SYSTEM>
0

>  <SCORE.SYSTEM.CONST>
0

>  <SCORE.SYSTEM.DIHEDRAL>
0

>  <SCORE.SYSTEM.SOLV>
0

>  <SCORE.SYSTEM.norm>
0

>  <SCORE.heavy>
10

>  <SCORE.norm>
-0.507954

>  <RMSD>
49.916

$$$$
ligand
 OpenBabel11021811473D
libRbt.so/2013.1/901 2013/11/27
 10  9  0  0  0  0  0  0  0  0999 V2000
   -1.0474   50.8541   11.2171 N   0  0  0  0  0  0  0  0  0  0  0  0
   -2.3022   51.5428   10.7907 C   0  0  2  0  0  0  0  0  0  0  0  0
   -3.0749   50.7095    9.7687 C   0  0  0  0  0  0  0  0  0  0  0  0
   -2.5045   50.1869    8.8127 O   0  0  0  0  0  0  0  0  0  0  0  0
   -2.0017   52.9513   10.2647 C   0  0  0  0  0  0  0  0  0  0  0  0
   -1.2512   53.8180   11.2754 C   0  0  0  0  0  0  0  0  0  0  0  0
   -2.0534   54.0589   12.5469 C   0  0  0  0  0  0  0  0  0  0  0  0
   -1.2601   54.8907   13.5499 C   0  0  0  0  0  0  0  0  0  0  0  0
   -1.9975   55.1281   14.8387 N   0  0  0  0  0  0  0  0  0  0  0  0
   -4.2878   50.5021    9.8679 O   0  0  0  0  0  0  0  0  0  0  0  0
  2  1  1  6  0  0  0
  2  3  1  0  0  0  0
  2  5  1  0  0  0  0
  3  4  1  0  0  0  0
  3 10  1  0  0  0  0
  5  6  1  0  0  0  0
  6  7  1  0  0  0  0
  7  8  1  0  0  0  0
  8  9  1  0  0  0  0
M  END
>  <CHROM.1>
-46.17070829,-56.14347156,-62.39569855,178.28148601,-178.58351265,-2.19861709
52.43649087,11.26354518,-1.79998419,0.27139488,0.82740252

>  <Name>
ligand

>  <RI>
0

>  <Rbt.Current_Directory>
/home/itssahil/PROJECTS/Mol_Feturizer/New_Systems/rnas/3DIL

>  <Rbt.Executable>
rbdock ($Id: //depot/dev/client3/rdock/2013.1/src/exe/rbdock.cxx#4 $)

>  <Rbt.Library>
libRbt.so (2013.1, Build901 2013/11/27)

>  <Rbt.Parameter_File>
/export/apps/rDock/src/rDock_2013.1_src/data/scripts/dock_solv.prm

>  <Rbt.Receptor>
prm/blind_docking_100.prm

>  <SCORE>
-7.05486

>  <SCORE.INTER>
-6.68278

>  <SCORE.INTER.CONST>
1

>  <SCORE.INTER.POLAR>
0

>  <SCORE.INTER.ROT>
5

>  <SCORE.INTER.SOLV>
10.0595

>  <SCORE.INTER.VDW>
-14.7417

>  <SCORE.INTER.norm>
-0.668278

>  <SCORE.INTRA>
-0.372089

>  <SCORE.INTRA.DIHEDRAL>
-1.30215

>  <SCORE.INTRA.DIHEDRAL.0>
2.93688

>  <SCORE.INTRA.POLAR>
0

>  <SCORE.INTRA.POLAR.0>
0

>  <SCORE.INTRA.REPUL>
0

>  <SCORE.INTRA.REPUL.0>
0

>  <SCORE.INTRA.SOLV>
0.0852885

>  <SCORE.INTRA.SOLV.lig_0>
-32.2816

>  <SCORE.INTRA.VDW>
0.236343

>  <SCORE.INTRA.VDW.0>
-0.749945

>  <SCORE.INTRA.norm>
-0.0372089

>  <SCORE.RESTR>
0

>  <SCORE.RESTR.CAVITY>
0

>  <SCORE.RESTR.norm>
0

>  <SCORE.SYSTEM>
0

>  <SCORE.SYSTEM.CONST>
0

>  <SCORE.SYSTEM.DIHEDRAL>
0

>  <SCORE.SYSTEM.SOLV>
0

>  <SCORE.SYSTEM.norm>
0

>  <SCORE.heavy>
10

>  <SCORE.norm>
-0.705486

>  <RMSD>
49.967

$$$$
ligand
 OpenBabel11021811473D
libRbt.so/2013.1/901 2013/11/27
 10  9  0  0  0  0  0  0  0  0999 V2000
   -0.6670   51.7177   11.2911 N   0  0  0  0  0  0  0  0  0  0  0  0
   -1.5381   52.7787   10.7026 C   0  0  2  0  0  0  0  0  0  0  0  0
   -0.7385   53.7190    9.8013 C   0  0  0  0  0  0  0  0  0  0  0  0
   -1.1560   54.0431    8.6909 O   0  0  0  0  0  0  0  0  0  0  0  0
   -2.2862   53.5438   11.8007 C   0  0  0  0  0  0  0  0  0  0  0  0
   -1.3515   54.3053   12.7399 C   0  0  0  0  0  0  0  0  0  0  0  0
   -2.1072   55.1337   13.7699 C   0  0  0  0  0  0  0  0  0  0  0  0
   -1.1465   55.8447   14.7179 C   0  0  0  0  0  0  0  0  0  0  0  0
   -0.3214   54.8988   15.5459 N   0  0  0  0  0  0  0  0  0  0  0  0
    0.3374   54.2126   10.1518 O   0  0  0  0  0  0  0  0  0  0  0  0
  2  1  1  1  0  0  0
  2  3  1  0  0  0  0
  2  5  1  0  0  0  0
  3  4  1  0  0  0  0
  3 10  1  0  0  0  0
  5  6  1  0  0  0  0
  6  7  1  0  0  0  0
  7  8  1  0  0  0  0
  8  9  1  0  0  0  0
M  END
>  <CHROM.1>
133.88716335,63.46942479,176.25977154,178.18846474,-63.32105726,-1.08041904
54.03613908,11.88987028,1.35908210,-1.32330261,-2.11497359

>  <Name>
ligand

>  <RI>
0

>  <Rbt.Current_Directory>
/home/itssahil/PROJECTS/Mol_Feturizer/New_Systems/rnas/3DIL

>  <Rbt.Executable>
rbdock ($Id: //depot/dev/client3/rdock/2013.1/src/exe/rbdock.cxx#4 $)

>  <Rbt.Library>
libRbt.so (2013.1, Build901 2013/11/27)

>  <Rbt.Parameter_File>
/export/apps/rDock/src/rDock_2013.1_src/data/scripts/dock_solv.prm

>  <Rbt.Receptor>
prm/blind_docking_80.prm

>  <SCORE>
-2.58006

>  <SCORE.INTER>
-2.13786

>  <SCORE.INTER.CONST>
1

>  <SCORE.INTER.POLAR>
0

>  <SCORE.INTER.ROT>
5

>  <SCORE.INTER.SOLV>
7.8475

>  <SCORE.INTER.VDW>
-10.9744

>  <SCORE.INTER.norm>
-0.213786

>  <SCORE.INTRA>
-0.4422

>  <SCORE.INTRA.DIHEDRAL>
-1.30789

>  <SCORE.INTRA.DIHEDRAL.0>
2.93688

>  <SCORE.INTRA.POLAR>
0

>  <SCORE.INTRA.POLAR.0>
0

>  <SCORE.INTRA.REPUL>
0

>  <SCORE.INTRA.REPUL.0>
0

>  <SCORE.INTRA.SOLV>
0.233913

>  <SCORE.INTRA.SOLV.lig_0>
-32.2816

>  <SCORE.INTRA.VDW>
0.0947891

>  <SCORE.INTRA.VDW.0>
-0.749945

>  <SCORE.INTRA.norm>
-0.04422

>  <SCORE.RESTR>
0

>  <SCORE.RESTR.CAVITY>
0

>  <SCORE.RESTR.norm>
0

>  <SCORE.SYSTEM>
0

>  <SCORE.SYSTEM.CONST>
0

>  <SCORE.SYSTEM.DIHEDRAL>
0

>  <SCORE.SYSTEM.SOLV>
0

>  <SCORE.SYSTEM.norm>
0

>  <SCORE.heavy>
10

>  <SCORE.norm>
-0.258006

>  <RMSD>
50.242

$$$$
ligand
 OpenBabel11021811473D
libRbt.so/2013.1/901 2013/11/27
 10  9  0  0  0  0  0  0  0  0999 V2000
   -1.9830   52.9004    9.0799 N   0  0  0  0  0  0  0  0  0  0  0  0
   -2.1463   51.8575   10.1365 C   0  0  2  0  0  0  0  0  0  0  0  0
   -3.0425   50.7157    9.6580 C   0  0  0  0  0  0  0  0  0  0  0  0
   -4.2410   50.6903    9.9327 O   0  0  0  0  0  0  0  0  0  0  0  0
   -2.6622   52.4763   11.4410 C   0  0  0  0  0  0  0  0  0  0  0  0
   -1.7022   53.5081   12.0325 C   0  0  0  0  0  0  0  0  0  0  0  0
   -2.2221   54.1128   13.3295 C   0  0  0  0  0  0  0  0  0  0  0  0
   -1.2552   55.1581   13.8769 C   0  0  0  0  0  0  0  0  0  0  0  0
   -1.7145   55.7712   15.1708 N   0  0  0  0  0  0  0  0  0  0  0  0
   -2.6170   49.7910    8.9595 O   0  0  0  0  0  0  0  0  0  0  0  0
  2  1  1  6  0  0  0
  2  3  1  0  0  0  0
  2  5  1  0  0  0  0
  3  4  1  0  0  0  0
  3 10  1  0  0  0  0
  5  6  1  0  0  0  0
  6  7  1  0  0  0  0
  7  8  1  0  0  0  0
  8  9  1  0  0  0  0
M  END
>  <CHROM.1>
-96.53374479,-61.86296054,-179.81848076,-178.81301144,-179.12546086,-2.38040548
52.66327329,11.34104501,-1.86009317,0.77528521,1.03098619

>  <Name>
ligand

>  <RI>
0

>  <Rbt.Current_Directory>
/home/itssahil/PROJECTS/Mol_Feturizer/New_Systems/rnas/3DIL

>  <Rbt.Executable>
rbdock ($Id: //depot/dev/client3/rdock/2013.1/src/exe/rbdock.cxx#4 $)

>  <Rbt.Library>
libRbt.so (2013.1, Build901 2013/11/27)

>  <Rbt.Parameter_File>
/export/apps/rDock/src/rDock_2013.1_src/data/scripts/dock_solv.prm

>  <Rbt.Receptor>
prm/blind_docking_80.prm

>  <SCORE>
-5.36032

>  <SCORE.INTER>
-4.67795

>  <SCORE.INTER.CONST>
1

>  <SCORE.INTER.POLAR>
0

>  <SCORE.INTER.ROT>
5

>  <SCORE.INTER.SOLV>
13.08

>  <SCORE.INTER.VDW>
-14.412

>  <SCORE.INTER.norm>
-0.467795

>  <SCORE.INTRA>
-0.682377

>  <SCORE.INTRA.DIHEDRAL>
-1.4505

>  <SCORE.INTRA.DIHEDRAL.0>
2.93688

>  <SCORE.INTRA.POLAR>
0

>  <SCORE.INTRA.POLAR.0>
0

>  <SCORE.INTRA.REPUL>
0

>  <SCORE.INTRA.REPUL.0>
0

>  <SCORE.INTRA.SOLV>
-0.625963

>  <SCORE.INTRA.SOLV.lig_0>
-32.2816

>  <SCORE.INTRA.VDW>
0.355852

>  <SCORE.INTRA.VDW.0>
-0.749945

>  <SCORE.INTRA.norm>
-0.0682377

>  <SCORE.RESTR>
0

>  <SCORE.RESTR.CAVITY>
0

>  <SCORE.RESTR.norm>
0

>  <SCORE.SYSTEM>
0

>  <SCORE.SYSTEM.CONST>
0

>  <SCORE.SYSTEM.DIHEDRAL>
0

>  <SCORE.SYSTEM.SOLV>
0

>  <SCORE.SYSTEM.norm>
0

>  <SCORE.heavy>
10

>  <SCORE.norm>
-0.536032

>  <RMSD>
50.254

$$$$
ligand
 OpenBabel11021811473D
libRbt.so/2013.1/901 2013/11/27
 10  9  0  0  0  0  0  0  0  0999 V2000
   -1.9065   52.9089    9.0794 N   0  0  0  0  0  0  0  0  0  0  0  0
   -2.1293   51.8793   10.1382 C   0  0  2  0  0  0  0  0  0  0  0  0
   -3.0332   50.7530    9.6381 C   0  0  0  0  0  0  0  0  0  0  0  0
   -2.6097   49.8918    8.8690 O   0  0  0  0  0  0  0  0  0  0  0  0
   -2.6765   52.5209   11.4188 C   0  0  0  0  0  0  0  0  0  0  0  0
   -1.7125   53.5322   12.0383 C   0  0  0  0  0  0  0  0  0  0  0  0
   -2.2598   54.1529   13.3164 C   0  0  0  0  0  0  0  0  0  0  0  0
   -1.2809   55.1671   13.8999 C   0  0  0  0  0  0  0  0  0  0  0  0
   -1.7683   55.7958   15.1759 N   0  0  0  0  0  0  0  0  0  0  0  0
   -4.2085   50.6404    9.9990 O   0  0  0  0  0  0  0  0  0  0  0  0
  2  1  1  6  0  0  0
  2  3  1  0  0  0  0
  2  5  1  0  0  0  0
  3  4  1  0  0  0  0
  3 10  1  0  0  0  0
  5  6  1  0  0  0  0
  6  7  1  0  0  0  0
  7  8  1  0  0  0  0
  8  9  1  0  0  0  0
M  END
>  <CHROM.1>
75.44531964,-62.12648039,-179.43509442,-179.38942360,-179.21653399,-2.38004239
52.68923522,11.33658847,-1.84140772,0.76027959,1.01857400

>  <Name>
ligand

>  <RI>
0

>  <Rbt.Current_Directory>
/home/itssahil/PROJECTS/Mol_Feturizer/New_Systems/rnas/3DIL

>  <Rbt.Executable>
rbdock ($Id: //depot/dev/client3/rdock/2013.1/src/exe/rbdock.cxx#4 $)

>  <Rbt.Library>
libRbt.so (2013.1, Build901 2013/11/27)

>  <Rbt.Parameter_File>
/export/apps/rDock/src/rDock_2013.1_src/data/scripts/dock_solv.prm

>  <Rbt.Receptor>
prm/blind_docking_60.prm

>  <SCORE>
-5.46923

>  <SCORE.INTER>
-4.8597

>  <SCORE.INTER.CONST>
1

>  <SCORE.INTER.POLAR>
0

>  <SCORE.INTER.ROT>
5

>  <SCORE.INTER.SOLV>
13.0588

>  <SCORE.INTER.VDW>
-14.5261

>  <SCORE.INTER.norm>
-0.48597

>  <SCORE.INTRA>
-0.609531

>  <SCORE.INTRA.DIHEDRAL>
-1.36369

>  <SCORE.INTRA.DIHEDRAL.0>
2.93688

>  <SCORE.INTRA.POLAR>
0

>  <SCORE.INTRA.POLAR.0>
0

>  <SCORE.INTRA.REPUL>
0

>  <SCORE.INTRA.REPUL.0>
0

>  <SCORE.INTRA.SOLV>
-0.641657

>  <SCORE.INTRA.SOLV.lig_0>
-32.2816

>  <SCORE.INTRA.VDW>
0.393141

>  <SCORE.INTRA.VDW.0>
-0.749945

>  <SCORE.INTRA.norm>
-0.0609531

>  <SCORE.RESTR>
0

>  <SCORE.RESTR.CAVITY>
0

>  <SCORE.RESTR.norm>
0

>  <SCORE.SYSTEM>
0

>  <SCORE.SYSTEM.CONST>
0

>  <SCORE.SYSTEM.DIHEDRAL>
0

>  <SCORE.SYSTEM.SOLV>
0

>  <SCORE.SYSTEM.norm>
0

>  <SCORE.heavy>
10

>  <SCORE.norm>
-0.546923

>  <RMSD>
50.273

$$$$
ligand
 OpenBabel11021811473D
libRbt.so/2013.1/901 2013/11/27
 10  9  0  0  0  0  0  0  0  0999 V2000
   -2.1667   51.6205   10.0340 N   0  0  0  0  0  0  0  0  0  0  0  0
   -2.0427   53.0418   10.4760 C   0  0  2  0  0  0  0  0  0  0  0  0
   -0.8965   53.7509    9.7555 C   0  0  0  0  0  0  0  0  0  0  0  0
   -1.0651   54.2780    8.6572 O   0  0  0  0  0  0  0  0  0  0  0  0
   -1.8972   53.1302   11.9998 C   0  0  0  0  0  0  0  0  0  0  0  0
   -1.8822   54.5689   12.5152 C   0  0  0  0  0  0  0  0  0  0  0  0
   -1.8454   54.6438   14.0355 C   0  0  0  0  0  0  0  0  0  0  0  0
   -1.8992   56.0901   14.5176 C   0  0  0  0  0  0  0  0  0  0  0  0
   -1.8960   56.2165   16.0160 N   0  0  0  0  0  0  0  0  0  0  0  0
    0.2314   53.8502   10.2476 O   0  0  0  0  0  0  0  0  0  0  0  0
  2  1  1  6  0  0  0
  2  3  1  0  0  0  0
  2  5  1  0  0  0  0
  3  4  1  0  0  0  0
  3 10  1  0  0  0  0
  5  6  1  0  0  0  0
  6  7  1  0  0  0  0
  7  8  1  0  0  0  0
  8  9  1  0  0  0  0
M  END
>  <CHROM.1>
85.96113061,-175.26941325,175.58972116,-177.25853380,178.73029371,-1.51006262
54.13055753,11.79795363,1.36505425,-0.95269850,-2.17403127

>  <Name>
ligand

>  <RI>
0

>  <Rbt.Current_Directory>
/home/itssahil/PROJECTS/Mol_Feturizer/New_Systems/rnas/3DIL

>  <Rbt.Executable>
rbdock ($Id: //depot/dev/client3/rdock/2013.1/src/exe/rbdock.cxx#4 $)

>  <Rbt.Library>
libRbt.so (2013.1, Build901 2013/11/27)

>  <Rbt.Parameter_File>
/export/apps/rDock/src/rDock_2013.1_src/data/scripts/dock_solv.prm

>  <Rbt.Receptor>
prm/blind_docking_80.prm

>  <SCORE>
-3.73223

>  <SCORE.INTER>
-2.69115

>  <SCORE.INTER.CONST>
1

>  <SCORE.INTER.POLAR>
0

>  <SCORE.INTER.ROT>
5

>  <SCORE.INTER.SOLV>
8.77874

>  <SCORE.INTER.VDW>
-11.6537

>  <SCORE.INTER.norm>
-0.269115

>  <SCORE.INTRA>
-1.04107

>  <SCORE.INTRA.DIHEDRAL>
-1.18072

>  <SCORE.INTRA.DIHEDRAL.0>
2.93688

>  <SCORE.INTRA.POLAR>
0

>  <SCORE.INTRA.POLAR.0>
0

>  <SCORE.INTRA.REPUL>
0

>  <SCORE.INTRA.REPUL.0>
0

>  <SCORE.INTRA.SOLV>
-1.52641

>  <SCORE.INTRA.SOLV.lig_0>
-32.2816

>  <SCORE.INTRA.VDW>
0.312491

>  <SCORE.INTRA.VDW.0>
-0.749945

>  <SCORE.INTRA.norm>
-0.104107

>  <SCORE.RESTR>
0

>  <SCORE.RESTR.CAVITY>
0

>  <SCORE.RESTR.norm>
0

>  <SCORE.SYSTEM>
0

>  <SCORE.SYSTEM.CONST>
0

>  <SCORE.SYSTEM.DIHEDRAL>
0

>  <SCORE.SYSTEM.SOLV>
0

>  <SCORE.SYSTEM.norm>
0

>  <SCORE.heavy>
10

>  <SCORE.norm>
-0.373223

>  <RMSD>
50.615

$$$$
ligand
 OpenBabel11021811473D
libRbt.so/2013.1/901 2013/11/27
 10  9  0  0  0  0  0  0  0  0999 V2000
   -1.9906   60.4103   19.3090 N   0  0  0  0  0  0  0  0  0  0  0  0
   -2.2583   59.3129   20.2861 C   0  0  2  0  0  0  0  0  0  0  0  0
   -3.5344   59.5774   21.0846 C   0  0  0  0  0  0  0  0  0  0  0  0
   -4.3734   60.3865   20.6925 O   0  0  0  0  0  0  0  0  0  0  0  0
   -1.0500   59.0902   21.2033 C   0  0  0  0  0  0  0  0  0  0  0  0
    0.1593   58.5138   20.4676 C   0  0  0  0  0  0  0  0  0  0  0  0
    1.3149   58.1935   21.4058 C   0  0  0  0  0  0  0  0  0  0  0  0
    1.9225   59.4665   21.9868 C   0  0  0  0  0  0  0  0  0  0  0  0
    2.6043   60.3226   20.9557 N   0  0  0  0  0  0  0  0  0  0  0  0
   -3.7925   58.9794   22.1333 O   0  0  0  0  0  0  0  0  0  0  0  0
  2  1  1  6  0  0  0
  2  3  1  0  0  0  0
  2  5  1  0  0  0  0
  3  4  1  0  0  0  0
  3 10  1  0  0  0  0
  5  6  1  0  0  0  0
  6  7  1  0  0  0  0
  7  8  1  0  0  0  0
  8  9  1  0  0  0  0
M  END
>  <CHROM.1>
18.03308436,-68.23624503,-175.45339824,-68.08536674,-66.56403001,-1.14057797
59.43086447,20.96844668,-3.04624615,-0.02302732,2.25651470

>  <Name>
ligand

>  <RI>
0

>  <Rbt.Current_Directory>
/home/itssahil/PROJECTS/Mol_Feturizer/New_Systems/rnas/3DIL

>  <Rbt.Executable>
rbdock ($Id: //depot/dev/client3/rdock/2013.1/src/exe/rbdock.cxx#4 $)

>  <Rbt.Library>
libRbt.so (2013.1, Build901 2013/11/27)

>  <Rbt.Parameter_File>
/export/apps/rDock/src/rDock_2013.1_src/data/scripts/dock_solv.prm

>  <Rbt.Receptor>
prm/blind_docking_100.prm

>  <SCORE>
-3.19718

>  <SCORE.INTER>
-3.95198

>  <SCORE.INTER.CONST>
1

>  <SCORE.INTER.POLAR>
0

>  <SCORE.INTER.ROT>
5

>  <SCORE.INTER.SOLV>
4.68264

>  <SCORE.INTER.VDW>
-11.1289

>  <SCORE.INTER.norm>
-0.395198

>  <SCORE.INTRA>
0.754803

>  <SCORE.INTRA.DIHEDRAL>
-0.669469

>  <SCORE.INTRA.DIHEDRAL.0>
2.93688

>  <SCORE.INTRA.POLAR>
0

>  <SCORE.INTRA.POLAR.0>
0

>  <SCORE.INTRA.REPUL>
0

>  <SCORE.INTRA.REPUL.0>
0

>  <SCORE.INTRA.SOLV>
0.627178

>  <SCORE.INTRA.SOLV.lig_0>
-32.2816

>  <SCORE.INTRA.VDW>
0.775948

>  <SCORE.INTRA.VDW.0>
-0.749945

>  <SCORE.INTRA.norm>
0.0754803

>  <SCORE.RESTR>
0

>  <SCORE.RESTR.CAVITY>
0

>  <SCORE.RESTR.norm>
0

>  <SCORE.SYSTEM>
0

>  <SCORE.SYSTEM.CONST>
0

>  <SCORE.SYSTEM.DIHEDRAL>
0

>  <SCORE.SYSTEM.SOLV>
0

>  <SCORE.SYSTEM.norm>
0

>  <SCORE.heavy>
10

>  <SCORE.norm>
-0.319718

>  <RMSD>
53.778

$$$$
