@<TRIPOS>MOLECULE
3DIL_rdock.pdb
 3728 4173 0 0 0
SMALL
GASTEIGER

@<TRIPOS>ATOM
      1  P         38.2900   -8.6130   15.6330 P.3     1  G1          0.1280
      2  C5'       38.7800   -8.3290   13.0610 C.3     1  G1          0.1795
      3  O5'       38.0730   -9.0030   14.0970 O.3     1  G1         -0.3259
      4  C4'       38.2320   -8.7040   11.6950 C.3     1  G1          0.1772
      5  O4'       38.1850  -10.1470   11.5460 O.3     1  G1         -0.3307
      6  C3'       36.7990   -8.2680   11.4220 C.3     1  G1          0.1860
      7  O3'       36.7420   -6.9000   11.0370 O.3     1  G1         -0.3112
      8  C2'       36.4300   -9.2070   10.2800 C.3     1  G1          0.2309
      9  O2'       36.9920   -8.8160    9.0400 O.3     1  G1         -0.2156
     10  C1'       37.0510  -10.5130   10.7760 C.3     1  G1          0.2408
     11  N1        32.7330  -13.2760   10.9910 N.ar    1  G1         -0.1709
     12  C2        33.2960  -12.6320    9.9100 C.ar    1  G1          0.2606
     13  N2        32.6360  -12.7270    8.7480 N.pl3   1  G1         -0.0859
     14  N3        34.4300  -11.9390    9.9690 N.ar    1  G1         -0.1918
     15  C4        34.9730  -11.9360   11.2170 C.ar    1  G1          0.1723
     16  C5        34.4850  -12.5500   12.3540 C.ar    1  G1          0.1748
     17  C6        33.2750  -13.2860   12.2780 C.ar    1  G1          0.3023
     18  O6        32.6950  -13.8970   13.1860 O.2     1  G1         -0.2633
     19  N7        35.3210  -12.3200   13.4380 N.ar    1  G1         -0.2173
     20  C8        36.2800  -11.5860   12.9470 C.ar    1  G1          0.1817
     21  N9        36.1420  -11.3110   11.6070 N.ar    1  G1         -0.2693
     22  OP1       37.8490   -7.2140   15.8260 O.3     1  G1         -0.1955
     23  OP2       37.6540   -9.6920   16.4220 O.co2   1  G1         -0.7863
     24  P         35.4170   -6.0390   11.3030 P.3     2  G2          0.2141
     25  C5'       34.6140   -6.1590    8.7970 C.3     2  G2          0.1812
     26  O5'       34.4240   -6.5410   10.1540 O.3     2  G2         -0.3114
     27  C4'       33.5030   -6.7220    7.9290 C.3     2  G2          0.1773
     28  O4'       33.4640   -8.1680    8.0470 O.3     2  G2         -0.3307
     29  C3'       32.0970   -6.2860    8.3160 C.3     2  G2          0.1860
     30  O3'       31.7990   -5.0000    7.7830 O.3     2  G2         -0.3112
     31  C2'       31.2600   -7.3920    7.6810 C.3     2  G2          0.2309
     32  O2'       31.0790   -7.2220    6.2840 O.3     2  G2         -0.2156
     33  C1'       32.1200   -8.6180    7.9800 C.3     2  G2          0.2408
     34  N1        28.6930  -11.4980   10.4630 N.ar    2  G2         -0.1709
     35  C2        28.6630  -11.0360    9.1660 C.ar    2  G2          0.2606
     36  N2        27.5930  -11.3800    8.4350 N.pl3   2  G2         -0.0859
     37  N3        29.6190  -10.2890    8.6250 N.ar    2  G2         -0.1918
     38  C4        30.6310  -10.0300    9.4950 C.ar    2  G2          0.1723
     39  C5        30.7500  -10.4460   10.8060 C.ar    2  G2          0.1748
     40  C6        29.7220  -11.2450   11.3700 C.ar    2  G2          0.3023
     41  O6        29.6540  -11.7050   12.5170 O.2     2  G2         -0.2633
     42  N7        31.9300   -9.9750   11.3660 N.ar    2  G2         -0.2173
     43  C8        32.4920   -9.2980   10.4040 C.ar    2  G2          0.1817
     44  N9        31.7650   -9.2860    9.2360 N.ar    2  G2         -0.2693
     45  OP1       35.7600   -4.6180   11.0650 O.2     2  G2         -0.5172
     46  OP2       34.8290   -6.4570   12.5970 O.co2   2  G2         -0.4373
     47  P         30.8290   -3.9920    8.5660 P.3     3  C3          0.2141
     48  C5'       28.6460   -4.8860    7.3880 C.3     3  C3          0.1812
     49  O5'       29.4280   -4.7650    8.5740 O.3     3  C3         -0.3114
     50  C4'       27.4210   -5.7460    7.6300 C.3     3  C3          0.1773
     51  O4'       27.8140   -7.0760    8.0600 O.3     3  C3         -0.3307
     52  C3'       26.5070   -5.2620    8.7450 C.3     3  C3          0.1860
     53  O3'       25.6680   -4.2100    8.2870 O.3     3  C3         -0.3112
     54  C2'       25.7500   -6.5400    9.0930 C.3     3  C3          0.2309
     55  O2'       24.7020   -6.8460    8.1900 O.3     3  C3         -0.2156
     56  C1'       26.8710   -7.5740    8.9970 C.3     3  C3          0.2420
     57  N1        27.5430   -7.8520   10.3230 N.ar    3  C3         -0.2535
     58  C2        26.9420   -8.7290   11.2500 C.ar    3  C3          0.3532
     59  O2        25.8640   -9.2820   10.9840 O.2     3  C3         -0.2443
     60  N3        27.5670   -8.9590   12.4340 N.ar    3  C3         -0.1739
     61  C4        28.7290   -8.3600   12.7170 C.ar    3  C3          0.1759
     62  N4        29.2940   -8.6280   13.8980 N.pl3   3  C3         -0.1070
     63  C5        29.3580   -7.4660   11.7980 C.ar    3  C3          0.0566
     64  C6        28.7360   -7.2470   10.6300 C.ar    3  C3          0.0850
     65  OP1       30.7040   -2.7610    7.7510 O.2     3  C3         -0.5172
     66  OP2       31.2880   -3.8980    9.9710 O.co2   3  C3         -0.4373
     67  P         25.2680   -3.0180    9.2760 P.3     4  C4          0.2141
     68  C5'       22.9060   -4.0960    9.6680 C.3     4  C4          0.1812
     69  O5'       24.1620   -3.7020   10.2060 O.3     4  C4         -0.3114
     70  C4'       22.1220   -4.9020   10.6850 C.3     4  C4          0.1773
     71  O4'       22.8150   -6.1460   10.9780 O.3     4  C4         -0.3307
     72  C3'       21.9870   -4.2640   12.0600 C.3     4  C4          0.1860
     73  O3'       21.0240   -3.2130   12.0860 O.3     4  C4         -0.3112
     74  C2'       21.5960   -5.4830   12.8900 C.3     4  C4          0.2309
     75  O2'       20.2690   -5.9210   12.6670 O.3     4  C4         -0.2156
     76  C1'       22.5980   -6.4960   12.3410 C.3     4  C4          0.2420
     77  N1        23.8930   -6.5220   13.1250 N.ar    4  C4         -0.2535
     78  C2        23.9560   -7.2210   14.3510 C.ar    4  C4          0.3532
     79  O2        22.9610   -7.8230   14.7810 O.2     4  C4         -0.2443
     80  N3        25.1270   -7.2310   15.0420 N.ar    4  C4         -0.1739
     81  C4        26.1980   -6.5830   14.5740 C.ar    4  C4          0.1759
     82  N4        27.3190   -6.6290   15.3010 N.pl3   4  C4         -0.1070
     83  C5        26.1610   -5.8610   13.3400 C.ar    4  C4          0.0566
     84  C6        25.0040   -5.8600   12.6630 C.ar    4  C4          0.0850
     85  OP1       24.6320   -1.9600    8.4530 O.2     4  C4         -0.5172
     86  OP2       26.4300   -2.6730   10.1250 O.co2   4  C4         -0.4373
     87  P         21.2590   -1.9460   13.0430 P.3     5  G5          0.2141
     88  C5'       19.7340   -2.9640   14.9300 C.3     5  G5          0.1812
     89  O5'       21.0310   -2.5360   14.5140 O.3     5  G5         -0.3114
     90  C4'       19.7870   -3.7940   16.2020 C.3     5  G5          0.1773
     91  O4'       20.7120   -4.9050   16.0610 O.3     5  G5         -0.3307
     92  C3'       20.2940   -3.0950   17.4540 C.3     5  G5          0.1860
     93  O3'       19.3230   -2.2070   18.0050 O.3     5  G5         -0.3112
     94  C2'       20.5640   -4.3110   18.3360 C.3     5  G5          0.2309
     95  O2'       19.3910   -4.9280   18.8330 O.3     5  G5         -0.2156
     96  C1'       21.2570   -5.2300   17.3310 C.3     5  G5          0.2408
     97  N1        25.6520   -6.0560   19.8060 N.ar    5  G5         -0.1709
     98  C2        24.3700   -6.4160   20.1610 C.ar    5  G5          0.2606
     99  N2        24.2250   -7.0770   21.3170 N.pl3   5  G5         -0.0859
    100  N3        23.2980   -6.1420   19.4270 N.ar    5  G5         -0.1918
    101  C4        23.6040   -5.4670   18.2860 C.ar    5  G5          0.1723
    102  C5        24.8470   -5.0630   17.8450 C.ar    5  G5          0.1748
    103  C6        25.9860   -5.3620   18.6370 C.ar    5  G5          0.3023
    104  O6        27.1700   -5.0820   18.4080 O.2     5  G5         -0.2633
    105  N7        24.7440   -4.3980   16.6270 N.ar    5  G5         -0.2173
    106  C8        23.4680   -4.4130   16.3610 C.ar    5  G5          0.1817
    107  N9        22.7110   -5.0490   17.3210 N.ar    5  G5         -0.2693
    108  OP1       20.1980   -0.9600   12.7420 O.2     5  G5         -0.5172
    109  OP2       22.6750   -1.5210   12.9530 O.co2   5  G5         -0.4373
    110  P         19.7950   -0.9270   18.8480 P.3     6  A6          0.2141
    111  C5'       19.1340   -2.1670   21.0650 C.3     6  A6          0.1812
    112  O5'       20.1410   -1.5460   20.2810 O.3     6  A6         -0.3114
    113  C4'       19.7580   -2.9140   22.2270 C.3     6  A6          0.1773
    114  O4'       20.6970   -3.9140   21.7510 O.3     6  A6         -0.3307
    115  C3'       20.5910   -2.0670   23.1780 C.3     6  A6          0.1860
    116  O3'       19.7500   -1.3270   24.0600 O.3     6  A6         -0.3112
    117  C2'       21.3770   -3.1680   23.8800 C.3     6  A6          0.2309
    118  O2'       20.5980   -3.8900   24.8160 O.3     6  A6         -0.2156
    119  C1'       21.7470   -4.0560   22.6940 C.3     6  A6          0.2408
    120  N1        26.9090   -4.1280   23.1130 N.ar    6  A6         -0.2040
    121  C2        25.9380   -4.5720   23.9280 C.ar    6  A6          0.2016
    122  N3        24.6140   -4.5210   23.7570 N.ar    6  A6         -0.2048
    123  C4        24.2920   -3.9290   22.5890 C.ar    6  A6          0.1692
    124  C5        25.1780   -3.4240   21.6520 C.ar    6  A6          0.1518
    125  C6        26.5570   -3.5400   21.9460 C.ar    6  A6          0.1919
    126  N6        27.5200   -3.0930   21.1310 N.pl3   6  A6         -0.1054
    127  N7        24.4920   -2.8910   20.5740 N.ar    6  A6         -0.2193
    128  C8        23.2290   -3.0780   20.8750 C.ar    6  A6          0.1816
    129  N9        23.0300   -3.7030   22.0750 N.ar    6  A6         -0.2693
    130  OP1       18.6280   -0.0230   18.9780 O.3     6  A6         -0.4373
    131  OP2       21.0620   -0.4100   18.2870 O.co2   6  A6         -0.5172
    132  P         20.1560    0.1410   24.5600 P.3     7  C7          0.2141
    133  C5'       20.9820   -0.9730   26.8060 C.3     7  C7          0.1812
    134  O5'       21.2680   -0.1510   25.6710 O.3     7  C7         -0.3114
    135  C4'       22.2700   -1.4540   27.4510 C.3     7  C7          0.1773
    136  O4'       23.0050   -2.3060   26.5310 O.3     7  C7         -0.3307
    137  C3'       23.2750   -0.3590   27.7800 C.3     7  C7          0.1860
    138  O3'       22.9420    0.3330   28.9740 O.3     7  C7         -0.3112
    139  C2'       24.5560   -1.1770   27.9000 C.3     7  C7          0.2309
    140  O2'       24.6390   -1.9260   29.0990 O.3     7  C7         -0.2156
    141  C1'       24.4000   -2.0970   26.6900 C.3     7  C7          0.2420
    142  N1        25.0230   -1.5180   25.4370 N.ar    7  C7         -0.2535
    143  C2        26.4210   -1.5910   25.2680 C.ar    7  C7          0.3532
    144  O2        27.1220   -2.1380   26.1320 O.2     7  C7         -0.2443
    145  N3        26.9750   -1.0690   24.1430 N.ar    7  C7         -0.1739
    146  C4        26.2080   -0.4850   23.2170 C.ar    7  C7          0.1759
    147  N4        26.8120    0.0100   22.1340 N.pl3   7  C7         -0.1070
    148  C5        24.7890   -0.3940   23.3600 C.ar    7  C7          0.0566
    149  C6        24.2490   -0.9170   24.4730 C.ar    7  C7          0.0850
    150  OP1       18.9620    0.7250   25.2130 O.3     7  C7         -0.4373
    151  OP2       20.8130    0.8770   23.4580 O.co2   7  C7         -0.5172
    152  P         23.3950    1.8610   29.1530 P.3     8  G8          0.2141
    153  C5'       25.4900    1.1110   30.5530 C.3     8  G8          0.1812
    154  O5'       24.9760    1.7430   29.3780 O.3     8  G8         -0.3114
    155  C4'       27.0040    1.1670   30.5790 C.3     8  G8          0.1773
    156  O4'       27.5530    0.4650   29.4320 O.3     8  G8         -0.3307
    157  C3'       27.5920    2.5650   30.4640 C.3     8  G8          0.1860
    158  O3'       27.5390    3.2330   31.7240 O.3     8  G8         -0.3112
    159  C2'       29.0130    2.2520   30.0040 C.3     8  G8          0.2309
    160  O2'       29.8520    1.8260   31.0660 O.3     8  G8         -0.2156
    161  C1'       28.7560    1.1010   29.0320 C.3     8  G8          0.2408
    162  N1        31.2770    2.5300   24.8220 N.ar    8  G8         -0.1709
    163  C2        31.7730    2.2510   26.0780 C.ar    8  G8          0.2606
    164  N2        33.1000    2.3630   26.2330 N.pl3   8  G8         -0.0859
    165  N3        31.0140    1.8890   27.1090 N.ar    8  G8         -0.1918
    166  C4        29.6930    1.8250   26.7790 C.ar    8  G8          0.1723
    167  C5        29.1060    2.0830   25.5560 C.ar    8  G8          0.1748
    168  C6        29.9280    2.4660   24.4670 C.ar    8  G8          0.3023
    169  O6        29.5830    2.7370   23.3070 O.2     8  G8         -0.2633
    170  N7        27.7280    1.9070   25.6180 N.ar    8  G8         -0.2173
    171  C8        27.5130    1.5510   26.8540 C.ar    8  G8          0.1817
    172  N9        28.6550    1.4830   27.6190 N.ar    8  G8         -0.2693
    173  OP1       22.7550    2.3610   30.3870 O.3     8  G8         -0.4373
    174  OP2       23.1900    2.5850   27.8770 O.co2   8  G8         -0.5172
    175  P         27.6870    4.8270   31.8050 P.3     9  G9          0.2141
    176  C5'       29.5710    6.1380   30.5240 C.3     9  G9          0.1812
    177  O5'       29.1930    5.0390   31.3250 O.3     9  G9         -0.3114
    178  C4'       30.9910    5.9170   30.0550 C.3     9  G9          0.1773
    179  O4'       31.0170    4.9080   29.0110 O.3     9  G9         -0.3307
    180  C3'       31.6330    7.1490   29.4420 C.3     9  G9          0.1860
    181  O3'       32.2170    7.9340   30.4820 O.3     9  G9         -0.3112
    182  C2'       32.6630    6.5300   28.5020 C.3     9  G9          0.2309
    183  O2'       33.8320    6.0910   29.1660 O.3     9  G9         -0.2156
    184  C1'       31.9140    5.3020   27.9890 C.3     9  G9          0.2408
    185  N1        32.0790    6.3040   22.9470 N.ar    9  G9         -0.1709
    186  C2        33.1210    6.2440   23.8440 C.ar    9  G9          0.2606
    187  N2        34.3460    6.4720   23.3430 N.pl3   9  G9         -0.0859
    188  N3        32.9660    5.9740   25.1410 N.ar    9  G9         -0.1918
    189  C4        31.6630    5.7710   25.4840 C.ar    9  G9          0.1723
    190  C5        30.5610    5.8150   24.6560 C.ar    9  G9          0.1748
    191  C6        30.7420    6.0980   23.2780 C.ar    9  G9          0.3023
    192  O6        29.8700    6.1760   22.4020 O.2     9  G9         -0.2633
    193  N7        29.3940    5.5540   25.3620 N.ar    9  G9         -0.2173
    194  C8        29.8020    5.3590   26.5850 C.ar    9  G9          0.1817
    195  N9        31.1650    5.4770   26.7420 N.ar    9  G9         -0.2693
    196  OP1       27.6090    5.2020   33.2350 O.3     9  G9         -0.4373
    197  OP2       26.7560    5.4510   30.8370 O.co2   9  G9         -0.5172
    198  P         32.1740    9.5350   30.4190 P.3    10  A10         0.2141
    199  C5'       34.6730    9.5080   29.6630 C.3    10  A10         0.1812
    200  O5'       33.3280    9.8630   29.3720 O.3    10  A10        -0.3114
    201  C4'       35.5760    9.9210   28.5240 C.3    10  A10         0.1773
    202  O4'       35.3010    9.1080   27.3570 O.3    10  A10        -0.3307
    203  C3'       35.3660   11.3540   28.0640 C.3    10  A10         0.1860
    204  O3'       36.1540   12.1940   28.9030 O.3    10  A10        -0.3112
    205  C2'       35.8330   11.2990   26.6130 C.3    10  A10         0.2309
    206  O2'       37.2420   11.3680   26.5010 O.3    10  A10        -0.2156
    207  C1'       35.3700    9.9060   26.1890 C.3    10  A10         0.2408
    208  N1        32.9550    9.9520   21.6240 N.ar   10  A10        -0.2040
    209  C2        34.2440   10.1200   21.9530 C.ar   10  A10         0.2016
    210  N3        34.7980   10.1010   23.1690 N.ar   10  A10        -0.2048
    211  C4        33.8790    9.8770   24.1280 C.ar   10  A10         0.1692
    212  C5        32.5190    9.6850   23.9430 C.ar   10  A10         0.1518
    213  C6        32.0530    9.7230   22.6060 C.ar   10  A10         0.1919
    214  N6        30.7720    9.5580   22.2620 N.pl3  10  A10        -0.1054
    215  N7        31.8830    9.4830   25.1580 N.ar   10  A10        -0.2193
    216  C8        32.8550    9.5540   26.0360 C.ar   10  A10         0.1816
    217  N9        34.0850    9.7980   25.4880 N.ar   10  A10        -0.2693
    218  OP1       32.5760   10.0520   31.7450 O.3    10  A10        -0.4373
    219  OP2       30.8880    9.9600   29.8220 O.co2  10  A10        -0.5172
    220  P         35.9010   13.7670   28.9970 P.3    11  G11         0.2141
    221  C5'       36.3910   15.4740   27.0780 C.3    11  G11         0.1812
    222  O5'       36.6080   14.2240   27.6440 O.3    11  G11        -0.3114
    223  C4'       37.1800   15.5250   25.7850 C.3    11  G11         0.1773
    224  O4'       36.6900   14.5390   24.8300 O.3    11  G11        -0.3307
    225  C3'       37.0690   16.8750   25.1070 C.3    11  G11         0.1860
    226  O3'       38.2800   17.2270   24.4220 O.3    11  G11        -0.3112
    227  C2'       35.8850   16.6320   24.1800 C.3    11  G11         0.2309
    228  O2'       35.8530   17.5570   23.1150 O.3    11  G11        -0.2156
    229  C1'       36.1210   15.1970   23.7110 C.3    11  G11         0.2408
    230  N1        31.6200   13.0350   25.0340 N.ar   11  G11        -0.1709
    231  C2        32.5870   13.5760   25.8590 C.ar   11  G11         0.2606
    232  N2        32.3300   13.5360   27.1750 N.pl3  11  G11        -0.0859
    233  N3        33.7270   14.1100   25.4210 N.ar   11  G11        -0.1918
    234  C4        33.8300   14.0710   24.0600 C.ar   11  G11         0.1723
    235  C5        32.9150   13.5540   23.1590 C.ar   11  G11         0.1748
    236  C6        31.7050   12.9880   23.6390 C.ar   11  G11         0.3023
    237  O6        30.7840   12.4880   22.9750 O.2    11  G11        -0.2633
    238  N7        33.3690   13.6880   21.8570 N.ar   11  G11        -0.2173
    239  C8        34.5250   14.2720   21.9830 C.ar   11  G11         0.1817
    240  N9        34.8810   14.5370   23.2850 N.ar   11  G11        -0.2693
    241  OP1       36.7010   14.2670   30.1390 O.3    11  G11        -0.4373
    242  OP2       34.4520   14.0600   28.9240 O.co2  11  G11        -0.5172
    243  P         39.4550   17.9920   25.1970 P.3    12  G12         0.2141
    244  C5'       38.3290   20.3040   24.6720 C.3    12  G12         0.1812
    245  O5'       38.7920   19.3710   25.6280 O.3    12  G12        -0.3114
    246  C4'       37.1660   21.0500   25.2940 C.3    12  G12         0.1773
    247  O4'       36.1560   20.0980   25.7530 O.3    12  G12        -0.3307
    248  C3'       37.5400   21.9120   26.4970 C.3    12  G12         0.1860
    249  O3'       36.9560   23.2190   26.3760 O.3    12  G12        -0.3112
    250  C2'       36.9880   21.1250   27.6850 C.3    12  G12         0.2309
    251  O2'       36.6260   21.9660   28.7590 O.3    12  G12        -0.2156
    252  C1'       35.7460   20.5130   27.0450 C.3    12  G12         0.2408
    253  N1        32.1160   16.8200   27.2900 N.ar   12  G12        -0.1709
    254  C2        32.5080   17.5560   26.1960 C.ar   12  G12         0.2606
    255  N2        31.8640   17.2900   25.0520 N.pl3  12  G12        -0.0859
    256  N3        33.4650   18.4830   26.2270 N.ar   12  G12        -0.1918
    257  C4        34.0190   18.6300   27.4640 C.ar   12  G12         0.1723
    258  C5        33.6880   17.9340   28.6120 C.ar   12  G12         0.1748
    259  C6        32.6690   16.9550   28.5610 C.ar   12  G12         0.3023
    260  O6        32.2540   16.2470   29.4870 O.2    12  G12        -0.2633
    261  N7        34.4570   18.3420   29.6890 N.ar   12  G12        -0.2173
    262  C8        35.2260   19.2630   29.1880 C.ar   12  G12         0.1817
    263  N9        35.0370   19.4930   27.8400 N.ar   12  G12        -0.2693
    264  OP1       40.5480   18.2560   24.2440 O.2    12  G12        -0.5172
    265  OP2       39.7470   17.2750   26.4620 O.co2  12  G12        -0.4373
    266  P         37.8030   24.4380   25.7600 P.3    13  C13         0.2141
    267  C5'       37.2530   25.6540   28.0560 C.3    13  C13         0.1812
    268  O5'       37.3520   25.7010   26.6320 O.3    13  C13        -0.3114
    269  C4'       35.9100   26.2060   28.5130 C.3    13  C13         0.1773
    270  O4'       35.8800   27.6460   28.3140 O.3    13  C13        -0.3307
    271  C3'       34.7030   25.6520   27.7600 C.3    13  C13         0.1860
    272  O3'       33.6540   25.3100   28.6620 O.3    13  C13        -0.3112
    273  C2'       34.3060   26.7920   26.8180 C.3    13  C13         0.2309
    274  O2'       32.9290   26.7990   26.4930 O.3    13  C13        -0.2156
    275  C1'       34.6850   28.0100   27.6550 C.3    13  C13         0.2420
    276  N1        34.9030   29.2510   26.8370 N.ar   13  C13        -0.2535
    277  C2        34.0310   30.3480   26.9860 C.ar   13  C13         0.3532
    278  O2        33.0920   30.2950   27.7960 O.2    13  C13        -0.2443
    279  N3        34.2440   31.4580   26.2290 N.ar   13  C13        -0.1739
    280  C4        35.2590   31.5030   25.3600 C.ar   13  C13         0.1759
    281  N4        35.4160   32.6220   24.6450 N.pl3  13  C13        -0.1070
    282  C5        36.1560   30.4000   25.1900 C.ar   13  C13         0.0566
    283  C6        35.9410   29.3090   25.9400 C.ar   13  C13         0.0850
    284  OP1       37.3290   24.6280   24.3730 O.2    13  C13        -0.5172
    285  OP2       39.2460   24.2090   26.0100 O.co2  13  C13        -0.4373
    286  P         33.0110   23.8430   28.6800 P.3    14  G14         0.2141
    287  C5'       32.8240   23.5400   26.0430 C.3    14  G14         0.1812
    288  O5'       32.1930   23.7330   27.3050 O.3    14  G14        -0.3114
    289  C4'       31.9720   22.7270   25.0860 C.3    14  G14         0.1773
    290  O4'       32.1970   21.3070   25.3090 O.3    14  G14        -0.3307
    291  C3'       30.4650   22.8910   25.2020 C.3    14  G14         0.1860
    292  O3'       30.0540   24.0360   24.4830 O.3    14  G14        -0.3112
    293  C2'       29.9820   21.5720   24.6040 C.3    14  G14         0.2309
    294  O2'       30.1320   21.4960   23.1930 O.3    14  G14        -0.2156
    295  C1'       30.9530   20.6220   25.3050 C.3    14  G14         0.2408
    296  N1        27.6440   18.1940   28.3540 N.ar   14  G14        -0.1709
    297  C2        27.6500   18.2910   26.9800 C.ar   14  G14         0.2606
    298  N2        26.6580   17.6670   26.3270 N.pl3  14  G14        -0.0859
    299  N3        28.5770   18.9550   26.2950 N.ar   14  G14        -0.1918
    300  C4        29.5120   19.5250   27.1010 C.ar   14  G14         0.1723
    301  C5        29.5870   19.4800   28.4800 C.ar   14  G14         0.1748
    302  C6        28.5930   18.7680   29.2020 C.ar   14  G14         0.3023
    303  O6        28.4940   18.6180   30.4320 O.2    14  G14        -0.2633
    304  N7        30.6940   20.1820   28.9340 N.ar   14  G14        -0.2173
    305  C8        31.2500   20.6360   27.8440 C.ar   14  G14         0.1817
    306  N9        30.5920   20.2750   26.6890 N.ar   14  G14        -0.2693
    307  OP1       31.9950   23.8270   29.7520 O.3    14  G14        -0.4373
    308  OP2       34.1190   22.8560   28.7020 O.co2  14  G14        -0.5172
    309  P         28.8310   24.9300   24.9940 P.3    15  C15         0.2141
    310  C5'       27.2690   23.7270   23.2470 C.3    15  C15         0.1812
    311  O5'       27.5790   24.0210   24.6060 O.3    15  C15        -0.3114
    312  C4'       26.1380   22.7240   23.1780 C.3    15  C15         0.1773
    313  O4'       26.4950   21.5270   23.9100 O.3    15  C15        -0.3307
    314  C3'       24.8410   23.1670   23.8410 C.3    15  C15         0.1860
    315  O3'       24.1180   24.0520   22.9990 O.3    15  C15        -0.3112
    316  C2'       24.1550   21.8190   24.0200 C.3    15  C15         0.2309
    317  O2'       23.6470   21.2770   22.8120 O.3    15  C15        -0.2156
    318  C1'       25.3350   20.9880   24.5280 C.3    15  C15         0.2420
    319  N1        25.4770   20.9750   26.0430 N.ar   15  C15        -0.2535
    320  C2        24.5540   20.2490   26.8220 C.ar   15  C15         0.3532
    321  O2        23.6370   19.6300   26.2730 O.2    15  C15        -0.2443
    322  N3        24.6860   20.2410   28.1750 N.ar   15  C15        -0.1739
    323  C4        25.6820   20.9120   28.7610 C.ar   15  C15         0.1759
    324  N4        25.7610   20.8610   30.0980 N.pl3  15  C15        -0.1070
    325  C5        26.6370   21.6550   27.9990 C.ar   15  C15         0.0566
    326  C6        26.4970   21.6580   26.6600 C.ar   15  C15         0.0850
    327  OP1       28.8220   26.1720   24.1870 O.2    15  C15        -0.5172
    328  OP2       28.8540   25.0190   26.4740 O.co2  15  C15        -0.4373
    329  P         23.5510   25.4420   23.5570 P.3    16  G16         0.2141
    330  C5'       21.0760   24.6500   23.2240 C.3    16  G16         0.1812
    331  O5'       22.1050   25.0640   24.1140 O.3    16  G16        -0.3114
    332  C4'       20.1460   23.6620   23.9050 C.3    16  G16         0.1773
    333  O4'       20.9030   22.6270   24.5830 O.3    16  G16        -0.3307
    334  C3'       19.2640   24.2350   25.0030 C.3    16  G16         0.1860
    335  O3'       18.1400   24.8910   24.4360 O.3    16  G16        -0.3112
    336  C2'       18.8760   22.9590   25.7410 C.3    16  G16         0.2309
    337  O2'       17.8970   22.2000   25.0570 O.3    16  G16        -0.2156
    338  C1'       20.2040   22.2030   25.7430 C.3    16  G16         0.2408
    339  N1        20.6400   21.4840   30.8190 N.ar   16  G16        -0.1709
    340  C2        19.6150   21.1230   29.9700 C.ar   16  G16         0.2606
    341  N2        18.5710   20.4920   30.5250 N.pl3  16  G16        -0.0859
    342  N3        19.6150   21.3630   28.6620 N.ar   16  G16        -0.1918
    343  C4        20.7360   22.0120   28.2440 C.ar   16  G16         0.1723
    344  C5        21.8080   22.4140   29.0120 C.ar   16  G16         0.1748
    345  C6        21.8010   22.1460   30.4080 C.ar   16  G16         0.3023
    346  O6        22.6700   22.4320   31.2410 O.2    16  G16        -0.2633
    347  N7        22.7640   23.0460   28.2260 N.ar   16  G16        -0.2173
    348  C8        22.2610   23.0160   27.0210 C.ar   16  G16         0.1817
    349  N9        21.0270   22.4070   26.9480 N.ar   16  G16        -0.2693
    350  OP1       23.3920   26.3320   22.3830 O.2    16  G16        -0.5172
    351  OP2       24.3680   25.9000   24.6990 O.co2  16  G16        -0.4373
    352  P         17.4260   26.1280   25.1660 P.3    17  C17         0.2141
    353  C5'       15.3920   24.7240   26.0760 C.3    17  C17         0.1812
    354  O5'       16.5920   25.4310   26.3310 O.3    17  C17        -0.3114
    355  C4'       14.8720   24.1580   27.3780 C.3    17  C17         0.1773
    356  O4'       15.8570   23.2550   27.9420 O.3    17  C17        -0.3307
    357  C3'       14.6700   25.1870   28.4810 C.3    17  C17         0.1860
    358  O3'       13.4460   25.8920   28.3140 O.3    17  C17        -0.3112
    359  C2'       14.7030   24.2970   29.7190 C.3    17  C17         0.2309
    360  O2'       13.5200   23.5440   29.9190 O.3    17  C17        -0.2156
    361  C1'       15.8670   23.3780   29.3580 C.3    17  C17         0.2420
    362  N1        17.2130   23.8740   29.8530 N.ar   17  C17        -0.2535
    363  C2        17.5560   23.7150   31.2100 C.ar   17  C17         0.3532
    364  O2        16.7620   23.1750   31.9910 O.2    17  C17        -0.2443
    365  N3        18.7660   24.1600   31.6400 N.ar   17  C17        -0.1739
    366  C4        19.6160   24.7420   30.7890 C.ar   17  C17         0.1759
    367  N4        20.7900   25.1560   31.2730 N.pl3  17  C17        -0.1070
    368  C5        19.2950   24.9190   29.4060 C.ar   17  C17         0.0566
    369  C6        18.0980   24.4760   28.9920 C.ar   17  C17         0.0850
    370  OP1       16.5100   26.7350   24.1730 O.2    17  C17        -0.5172
    371  OP2       18.4460   26.9650   25.8350 O.co2  17  C17        -0.4373
    372  P         13.3170   27.4210   28.7840 P.3    18  C18         0.2141
    373  C5'       12.2680   26.6980   31.0910 C.3    18  C18         0.1812
    374  O5'       13.3330   27.3130   30.3780 O.3    18  C18        -0.3114
    375  C4'       12.6490   26.5310   32.5460 C.3    18  C18         0.1773
    376  O4'       13.8520   25.7270   32.6740 O.3    18  C18        -0.3307
    377  C3'       13.0230   27.8140   33.2710 C.3    18  C18         0.1860
    378  O3'       11.8720   28.5960   33.5760 O.3    18  C18        -0.3112
    379  C2'       13.7120   27.2230   34.4970 C.3    18  C18         0.2309
    380  O2'       12.8200   26.6520   35.4380 O.3    18  C18        -0.2156
    381  C1'       14.5610   26.1390   33.8330 C.3    18  C18         0.2420
    382  N1        15.9480   26.6090   33.4610 N.ar   18  C18        -0.2535
    383  C2        16.9320   26.7630   34.4600 C.ar   18  C18         0.3532
    384  O2        16.6680   26.5100   35.6480 O.2    18  C18        -0.2443
    385  N3        18.1700   27.1920   34.0900 N.ar   18  C18        -0.1739
    386  C4        18.4420   27.4590   32.8050 C.ar   18  C18         0.1759
    387  N4        19.6740   27.8730   32.4960 N.pl3  18  C18        -0.1070
    388  C5        17.4590   27.3140   31.7780 C.ar   18  C18         0.0566
    389  C6        16.2430   26.8910   32.1490 C.ar   18  C18         0.0850
    390  OP1       11.9930   27.9000   28.3260 O.2    18  C18        -0.5172
    391  OP2       14.5420   28.1590   28.3970 O.co2  18  C18        -0.4373
    392  P         11.9660   30.1840   33.7950 P.3    19  C19         0.2141
    393  C5'       11.9440   29.8010   36.3950 C.3    19  C19         0.1812
    394  O5'       12.6240   30.3050   35.2450 O.3    19  C19        -0.3114
    395  C4'       12.8510   29.8550   37.6070 C.3    19  C19         0.1773
    396  O4'       14.0830   29.1440   37.3350 O.3    19  C19        -0.3307
    397  C3'       13.2870   31.2600   37.9940 C.3    19  C19         0.1860
    398  O3'       12.3120   31.8220   38.8620 O.3    19  C19        -0.3112
    399  C2'       14.6160   31.0130   38.6990 C.3    19  C19         0.2309
    400  O2'       14.4520   30.6690   40.0620 O.3    19  C19        -0.2156
    401  C1'       15.1780   29.8100   37.9420 C.3    19  C19         0.2420
    402  N1        16.2430   30.0990   36.9030 N.ar   19  C19        -0.2535
    403  C2        17.5720   30.3690   37.2910 C.ar   19  C19         0.3532
    404  O2        17.8870   30.4000   38.4920 O.2    19  C19        -0.2443
    405  N3        18.5000   30.6070   36.3270 N.ar   19  C19        -0.1739
    406  C4        18.1640   30.5720   35.0330 C.ar   19  C19         0.1759
    407  N4        19.1230   30.8130   34.1350 N.pl3  19  C19        -0.1070
    408  C5        16.8270   30.2950   34.6110 C.ar   19  C19         0.0566
    409  C6        15.9170   30.0660   35.5690 C.ar   19  C19         0.0850
    410  OP1       10.5770   30.6860   33.8630 O.3    19  C19        -0.4373
    411  OP2       12.9110   30.7840   32.8290 O.co2  19  C19        -0.5172
    412  P         11.7770   33.3170   38.6570 P.3    20  G20         0.2141
    413  C5'       13.5500   34.2040   40.4270 C.3    20  G20         0.1812
    414  O5'       13.0200   34.2160   39.1060 O.3    20  G20        -0.3114
    415  C4'       14.9170   34.8700   40.4160 C.3    20  G20         0.1773
    416  O4'       15.8370   34.0430   39.6550 O.3    20  G20        -0.3307
    417  C3'       14.9700   36.2270   39.7260 C.3    20  G20         0.1860
    418  O3'       14.6360   37.2690   40.6430 O.3    20  G20        -0.3112
    419  C2'       16.4270   36.3030   39.2750 C.3    20  G20         0.2309
    420  O2'       17.2800   36.7120   40.3290 O.3    20  G20        -0.2156
    421  C1'       16.7410   34.8510   38.9240 C.3    20  G20         0.2408
    422  N1        19.2940   34.0660   34.5430 N.ar   20  G20        -0.1709
    423  C2        19.7800   34.4560   35.7730 C.ar   20  G20         0.2606
    424  N2        21.1030   34.6590   35.8470 N.pl3  20  G20        -0.0859
    425  N3        19.0180   34.6360   36.8500 N.ar   20  G20        -0.1918
    426  C4        17.7020   34.3880   36.6050 C.ar   20  G20         0.1723
    427  C5        17.1250   33.9940   35.4150 C.ar   20  G20         0.1748
    428  C6        17.9490   33.8090   34.2760 C.ar   20  G20         0.3023
    429  O6        17.5980   33.4620   33.1370 O.2    20  G20        -0.2633
    430  N7        15.7510   33.8420   35.5560 N.ar   20  G20        -0.2173
    431  C8        15.5260   34.1370   36.8060 C.ar   20  G20         0.1817
    432  N9        16.6590   34.4830   37.5080 N.ar   20  G20        -0.2693
    433  OP1       10.6560   33.5070   39.6050 O.3    20  G20        -0.4373
    434  OP2       11.5750   33.5720   37.2150 O.co2  20  G20        -0.5172
    435  P         13.3190   38.1590   40.4240 P.3    21  A21         0.2141
    436  C5'       13.7170   39.9220   42.3620 C.3    21  A21         0.1812
    437  O5'       13.7550   39.6010   40.9730 O.3    21  A21        -0.3114
    438  C4'       14.9430   40.7180   42.7780 C.3    21  A21         0.1773
    439  O4'       16.1340   39.9310   42.5230 O.3    21  A21        -0.3307
    440  C3'       15.2140   42.0020   42.0050 C.3    21  A21         0.1860
    441  O3'       14.4220   43.1020   42.4640 O.3    21  A21        -0.3112
    442  C2'       16.6980   42.2060   42.2910 C.3    21  A21         0.2309
    443  O2'       16.9580   42.7330   43.5800 O.3    21  A21        -0.2156
    444  C1'       17.2200   40.7790   42.1830 C.3    21  A21         0.2408
    445  N1        21.1300   40.9190   38.7770 N.ar   21  A21        -0.2040
    446  C2        21.0410   41.3610   40.0420 C.ar   21  A21         0.2016
    447  N3        19.9990   41.2920   40.8780 N.ar   21  A21        -0.2048
    448  C4        18.9400   40.6930   40.2960 C.ar   21  A21         0.1692
    449  C5        18.8850   40.1940   39.0050 C.ar   21  A21         0.1518
    450  C6        20.0500   40.3200   38.2220 C.ar   21  A21         0.1919
    451  N6        20.1210   39.8740   36.9650 N.pl3  21  A21        -0.1054
    452  N7        17.6450   39.6430   38.7370 N.ar   21  A21        -0.2193
    453  C8        16.9820   39.8220   39.8530 C.ar   21  A21         0.1816
    454  N9        17.6960   40.4430   40.8380 N.ar   21  A21        -0.2693
    455  OP1       12.2680   37.5920   41.2990 O.3    21  A21        -0.4373
    456  OP2       13.0990   38.3020   38.9670 O.co2  21  A21        -0.5172
    457  P         13.7260   44.0780   41.3980 P.3    22  G22         0.2141
    458  C5'       15.9110   45.5100   41.0000 C.3    22  G22         0.1812
    459  O5'       14.9380   44.6000   40.4890 O.3    22  G22        -0.3114
    460  C4'       17.1670   45.4890   40.1500 C.3    22  G22         0.1773
    461  O4'       17.6260   44.1310   39.9010 O.3    22  G22        -0.3307
    462  C3'       17.0030   46.0760   38.7570 C.3    22  G22         0.1860
    463  O3'       17.0340   47.4900   38.8160 O.3    22  G22        -0.3112
    464  C2'       18.2080   45.4530   38.0510 C.3    22  G22         0.2309
    465  O2'       19.4400   46.0680   38.3860 O.3    22  G22        -0.2156
    466  C1'       18.1350   44.0210   38.5820 C.3    22  G22         0.2408
    467  N1        17.4320   41.4380   34.2000 N.ar   22  G22        -0.1709
    468  C2        18.5520   42.1220   34.6250 C.ar   22  G22         0.2606
    469  N2        19.5990   42.1210   33.7860 N.pl3  22  G22        -0.0859
    470  N3        18.6300   42.7640   35.7930 N.ar   22  G22        -0.1918
    471  C4        17.4810   42.6640   36.5190 C.ar   22  G22         0.1723
    472  C5        16.3200   42.0010   36.1750 C.ar   22  G22         0.1748
    473  C6        16.2470   41.3290   34.9310 C.ar   22  G22         0.3023
    474  O6        15.2880   40.6910   34.4730 O.2    22  G22        -0.2633
    475  N7        15.3620   42.1200   37.1720 N.ar   22  G22        -0.2173
    476  C8        15.9460   42.8360   38.0850 C.ar   22  G22         0.1817
    477  N9        17.2360   43.2000   37.7690 N.ar   22  G22        -0.2693
    478  OP1       13.1490   45.2160   42.1380 O.3    22  G22        -0.4373
    479  OP2       12.8670   43.2570   40.5160 O.co2  22  G22        -0.5172
    480  P         16.2350   48.3770   37.7440 P.3    23  A23         0.2141
    481  C5'       18.5600   48.9400   36.6530 C.3    23  A23         0.1812
    482  O5'       17.2470   48.4030   36.5100 O.3    23  A23        -0.3114
    483  C4'       19.4320   48.5270   35.4870 C.3    23  A23         0.1773
    484  O4'       19.5650   47.0810   35.4400 O.3    23  A23        -0.3307
    485  C3'       18.8800   48.8810   34.1120 C.3    23  A23         0.1860
    486  O3'       19.1570   50.2310   33.7830 O.3    23  A23        -0.3112
    487  C2'       19.6570   47.9060   33.2380 C.3    23  A23         0.2309
    488  O2'       20.9950   48.3110   33.0180 O.3    23  A23        -0.2156
    489  C1'       19.5910   46.6430   34.0920 C.3    23  A23         0.2408
    490  N1        17.2620   43.3960   30.8050 N.ar   23  A23        -0.2040
    491  C2        18.4550   44.0070   30.7620 C.ar   23  A23         0.2016
    492  N3        18.9980   44.8380   31.6530 N.ar   23  A23        -0.2048
    493  C4        18.1750   45.0400   32.7000 C.ar   23  A23         0.1692
    494  C5        16.9170   44.4800   32.8800 C.ar   23  A23         0.1518
    495  C6        16.4530   43.6130   31.8650 C.ar   23  A23         0.1919
    496  N6        15.2650   42.9980   31.8930 N.pl3  23  A23        -0.1054
    497  N7        16.3630   44.9080   34.0700 N.ar   23  A23        -0.2193
    498  C8        17.2750   45.7060   34.5760 C.ar   23  A23         0.1816
    499  N9        18.4010   45.8280   33.8070 N.ar   23  A23        -0.2693
    500  OP1       16.1040   49.7360   38.3090 O.3    23  A23        -0.4373
    501  OP2       15.0390   47.6350   37.2880 O.co2  23  A23        -0.5172
    502  P         18.1210   51.0810   32.9060 P.3    24  U24         0.2141
    503  C5'       19.3350   50.3860   30.6630 C.3    24  U24         0.1812
    504  O5'       18.1640   50.3500   31.4790 O.3    24  U24        -0.3114
    505  C4'       19.2370   49.3770   29.5340 C.3    24  U24         0.1773
    506  O4'       18.9990   48.0370   30.0530 O.3    24  U24        -0.3307
    507  C3'       18.0720   49.6080   28.5850 C.3    24  U24         0.1860
    508  O3'       18.3710   50.6290   27.6390 O.3    24  U24        -0.3112
    509  C2'       17.9420   48.2250   27.9540 C.3    24  U24         0.2309
    510  O2'       18.9420   47.9390   26.9990 O.3    24  U24        -0.2156
    511  C1'       18.1320   47.3320   29.1790 C.3    24  U24         0.2420
    512  N1        16.8180   46.9550   29.8320 N.ar   24  U24        -0.2534
    513  C2        16.0730   45.9320   29.2620 C.ar   24  U24         0.3546
    514  O2        16.4260   45.3120   28.2770 O.2    24  U24        -0.2443
    515  N3        14.8880   45.6390   29.8960 N.ar   24  U24        -0.1530
    516  C4        14.3740   46.2590   31.0220 C.ar   24  U24         0.2846
    517  O4        13.2970   45.8800   31.4710 O.2    24  U24        -0.2650
    518  C5        15.1930   47.3210   31.5620 C.ar   24  U24         0.0814
    519  C6        16.3580   47.6210   30.9610 C.ar   24  U24         0.0870
    520  OP1       18.6730   52.4480   32.7980 O.2    24  U24        -0.5172
    521  OP2       16.7600   50.8900   33.4630 O.co2  24  U24        -0.4373
    522  P         17.3060   51.7750   27.2850 P.3    25  G25         0.2141
    523  C5'       16.2070   50.2570   25.4640 C.3    25  G25         0.1812
    524  O5'       16.0630   50.9600   26.6900 O.3    25  G25        -0.3114
    525  C4'       15.0980   49.2430   25.2620 C.3    25  G25         0.1773
    526  O4'       14.9370   48.3760   26.4130 O.3    25  G25        -0.3307
    527  C3'       13.7270   49.8490   25.0260 C.3    25  G25         0.1860
    528  O3'       13.6310   50.2270   23.6520 O.3    25  G25        -0.3112
    529  C2'       12.8120   48.6860   25.4010 C.3    25  G25         0.2309
    530  O2'       12.6830   47.7280   24.3680 O.3    25  G25        -0.2156
    531  C1'       13.5610   48.0610   26.5780 C.3    25  G25         0.2408
    532  N1        10.5270   47.3260   30.6750 N.ar   25  G25        -0.1709
    533  C2        10.5920   46.5910   29.5180 C.ar   25  G25         0.2606
    534  N2         9.7580   45.5420   29.4570 N.pl3  25  G25        -0.0859
    535  N3        11.4180   46.8670   28.5110 N.ar   25  G25        -0.1918
    536  C4        12.1920   47.9630   28.7460 C.ar   25  G25         0.1723
    537  C5        12.1920   48.7610   29.8730 C.ar   25  G25         0.1748
    538  C6        11.3050   48.4500   30.9360 C.ar   25  G25         0.3023
    539  O6        11.1680   49.0410   32.0100 O.2    25  G25        -0.2633
    540  N7        13.1160   49.7880   29.7590 N.ar   25  G25        -0.2173
    541  C8        13.6490   49.6050   28.5850 C.ar   25  G25         0.1817
    542  N9        13.1430   48.5200   27.9070 N.ar   25  G25        -0.2693
    543  OP1       17.9050   52.5950   26.2160 O.2    25  G25        -0.5172
    544  OP2       16.8480   52.4220   28.5340 O.co2  25  G25        -0.4373
    545  P         13.1080   51.6780   23.2290 P.3    26  A26         0.2141
    546  C5'       13.8650   54.1090   23.9260 C.3    26  A26         0.1812
    547  O5'       14.0220   52.6990   24.0580 O.3    26  A26        -0.3114
    548  C4'       13.5380   54.7570   25.2650 C.3    26  A26         0.1773
    549  O4'       12.2990   54.2030   25.7800 O.3    26  A26        -0.3307
    550  C3'       14.5780   54.5800   26.3770 C.3    26  A26         0.1860
    551  O3'       14.7580   55.8020   27.0890 O.3    26  A26        -0.3112
    552  C2'       13.9250   53.5310   27.2750 C.3    26  A26         0.2309
    553  O2'       14.3560   53.5830   28.6230 O.3    26  A26        -0.2156
    554  C1'       12.4650   53.9510   27.1570 C.3    26  A26         0.2408
    555  N1         9.6490   52.2110   31.0910 N.ar   26  A26        -0.2040
    556  C2        10.4530   53.2780   30.9710 C.ar   26  A26         0.2016
    557  N3        11.1570   53.6700   29.9060 N.ar   26  A26        -0.2048
    558  C4        10.9780   52.8310   28.8650 C.ar   26  A26         0.1692
    559  C5        10.1850   51.6960   28.8380 C.ar   26  A26         0.1518
    560  C6         9.4880   51.3860   30.0290 C.ar   26  A26         0.1919
    561  N6         8.6860   50.3250   30.1570 N.pl3  26  A26        -0.1054
    562  N7        10.2480   51.0820   27.5960 N.ar   26  A26        -0.2193
    563  C8        11.0630   51.8470   26.9090 C.ar   26  A26         0.1816
    564  N9        11.5380   52.9200   27.6110 N.ar   26  A26        -0.2693
    565  OP1       11.7090   51.7840   23.6960 O.3    26  A26        -0.4373
    566  OP2       13.4120   51.8560   21.7910 O.co2  26  A26        -0.5172
    567  P         15.8360   56.9140   26.6760 P.3    27  G27         0.2141
    568  C5'       14.3740   59.1110   26.8780 C.3    27  G27         0.1812
    569  O5'       15.2560   58.1750   27.4750 O.3    27  G27        -0.3114
    570  C4'       12.9140   58.6880   26.9550 C.3    27  G27         0.1773
    571  O4'       12.4360   58.5750   28.3310 O.3    27  G27        -0.3307
    572  C3'       11.9700   59.6790   26.2800 C.3    27  G27         0.1860
    573  O3'       10.9510   58.9570   25.5890 O.3    27  G27        -0.3112
    574  C2'       11.4350   60.4530   27.4820 C.3    27  G27         0.2309
    575  O2'       10.2420   61.1680   27.2290 O.3    27  G27        -0.2156
    576  C1'       11.1950   59.2640   28.3980 C.3    27  G27         0.2408
    577  N1         8.3470   57.8810   32.4120 N.ar   27  G27        -0.1709
    578  C2         8.4820   57.2660   31.1860 C.ar   27  G27         0.2606
    579  N2         7.7730   56.1430   31.0010 N.pl3  27  G27        -0.0859
    580  N3         9.2620   57.7260   30.2100 N.ar   27  G27        -0.1918
    581  C4         9.9120   58.8700   30.5570 C.ar   27  G27         0.1723
    582  C5         9.8400   59.5560   31.7540 C.ar   27  G27         0.1748
    583  C6         9.0040   59.0560   32.7860 C.ar   27  G27         0.3023
    584  O6         8.8150   59.5310   33.9130 O.2    27  G27        -0.2633
    585  N7        10.6520   60.6820   31.7260 N.ar   27  G27        -0.2173
    586  C8        11.1900   60.6580   30.5370 C.ar   27  G27         0.1817
    587  N9        10.7930   59.5850   29.7700 N.ar   27  G27        -0.2693
    588  OP1       15.7730   57.1420   25.2160 O.2    27  G27        -0.5172
    589  OP2       17.1330   56.5640   27.2950 O.co2  27  G27        -0.4373
    590  P         10.0280   59.6620   24.4890 P.3    28  U28         0.2141
    591  C5'       10.7360   57.9590   22.6120 C.3    28  U28         0.1812
    592  O5'        9.7230   58.4620   23.4780 O.3    28  U28        -0.3114
    593  C4'       10.4720   56.5070   22.2610 C.3    28  U28         0.1773
    594  O4'       10.8770   55.6630   23.3680 O.3    28  U28        -0.3307
    595  C3'        9.0100   56.1480   22.0350 C.3    28  U28         0.1860
    596  O3'        8.6210   56.4210   20.6940 O.3    28  U28        -0.3112
    597  C2'        8.9940   54.6570   22.3460 C.3    28  U28         0.2309
    598  O2'        9.4830   53.8580   21.2840 O.3    28  U28        -0.2156
    599  C1'        9.9600   54.5910   23.5260 C.3    28  U28         0.2420
    600  N1         9.3300   54.6370   24.9070 N.ar   28  U28        -0.2534
    601  C2         8.5110   53.5990   25.3370 C.ar   28  U28         0.3546
    602  O2         8.2370   52.6180   24.6660 O.2    28  U28        -0.2443
    603  N3         8.0070   53.7440   26.6110 N.ar   28  U28        -0.1530
    604  C4         8.2330   54.7940   27.4870 C.ar   28  U28         0.2846
    605  O4         7.7100   54.7830   28.5980 O.2    28  U28        -0.2650
    606  C5         9.0950   55.8350   26.9790 C.ar   28  U28         0.0814
    607  C6         9.5940   55.7170   25.7390 C.ar   28  U28         0.0870
    608  OP1       10.8240   60.7040   23.7980 O.2    28  U28        -0.5172
    609  OP2        8.7540   60.0290   25.1450 O.co2  28  U28        -0.4373
    610  P          7.1390   56.9470   20.3890 P.3    29  A29         0.2141
    611  C5'        6.2990   54.5460   19.7030 C.3    29  A29         0.1812
    612  O5'        6.2320   55.6480   20.6020 O.3    29  A29        -0.3114
    613  C4'        5.4430   53.3980   20.2060 C.3    29  A29         0.1773
    614  O4'        5.9440   52.9280   21.4850 O.3    29  A29        -0.3307
    615  C3'        3.9910   53.7460   20.5050 C.3    29  A29         0.1860
    616  O3'        3.2010   53.7780   19.3210 O.3    29  A29        -0.3112
    617  C2'        3.6020   52.6060   21.4420 C.3    29  A29         0.2309
    618  O2'        3.3650   51.3800   20.7750 O.3    29  A29        -0.2156
    619  C1'        4.8580   52.5160   22.3030 C.3    29  A29         0.2408
    620  N1         2.7590   53.2000   26.9840 N.ar   29  A29        -0.2040
    621  C2         2.5650   52.2560   26.0530 C.ar   29  A29         0.2016
    622  N3         3.1460   52.1380   24.8560 N.ar   29  A29        -0.2048
    623  C4         4.0220   53.1380   24.6310 C.ar   29  A29         0.1692
    624  C5         4.3210   54.1800   25.4930 C.ar   29  A29         0.1518
    625  C6         3.6430   54.1920   26.7320 C.ar   29  A29         0.1919
    626  N6         3.8300   55.1340   27.6580 N.pl3  29  A29        -0.1054
    627  N7         5.2650   55.0250   24.9340 N.ar   29  A29        -0.2193
    628  C8         5.5140   54.4870   23.7650 C.ar   29  A29         0.1816
    629  N9         4.8010   53.3460   23.5110 N.ar   29  A29        -0.2693
    630  OP1        7.1000   57.3460   18.9640 O.2    29  A29        -0.5172
    631  OP2        6.7650   57.9230   21.4370 O.co2  29  A29        -0.4373
    632  P          2.0320   54.8620   19.1590 P.3    30  G30         0.2141
    633  C5'        0.2180   53.4300   20.4490 C.3    30  G30         0.1812
    634  O5'        1.0680   54.5780   20.4100 O.3    30  G30        -0.3114
    635  C4'       -0.4330   53.2780   21.8130 C.3    30  G30         0.1773
    636  O4'        0.5780   53.2290   22.8540 O.3    30  G30        -0.3307
    637  C3'       -1.3400   54.4260   22.2290 C.3    30  G30         0.1860
    638  O3'       -2.6400   54.2740   21.6690 O.3    30  G30        -0.3112
    639  C2'       -1.3280   54.2990   23.7500 C.3    30  G30         0.2309
    640  O2'       -2.1830   53.2800   24.2350 O.3    30  G30        -0.2156
    641  C1'        0.1350   53.9410   23.9990 C.3    30  G30         0.2408
    642  N1         1.4800   57.7450   27.1600 N.ar   30  G30        -0.1709
    643  C2         0.5300   56.7630   27.3390 C.ar   30  G30         0.2606
    644  N2        -0.1470   56.7910   28.4970 N.pl3  30  G30        -0.0859
    645  N3         0.2640   55.8170   26.4420 N.ar   30  G30        -0.1918
    646  C4         1.0340   55.9290   25.3250 C.ar   30  G30         0.1723
    647  C5         2.0050   56.8740   25.0570 C.ar   30  G30         0.1748
    648  C6         2.2810   57.8770   26.0220 C.ar   30  G30         0.3023
    649  O6         3.1090   58.7970   25.9540 O.2    30  G30        -0.2633
    650  N7         2.5730   56.6560   23.8080 N.ar   30  G30        -0.2173
    651  C8         1.9500   55.6050   23.3540 C.ar   30  G30         0.1817
    652  N9         1.0010   55.1050   24.2170 N.ar   30  G30        -0.2693
    653  OP1        1.3200   54.5380   17.9000 O.2    30  G30        -0.5172
    654  OP2        2.6090   56.2120   19.3500 O.co2  30  G30        -0.4373
    655  P         -3.4760   55.5670   21.2210 P.3    31  G31         0.2141
    656  C5'       -4.7970   55.5830   23.4950 C.3    31  G31         0.1812
    657  O5'       -3.8800   56.2360   22.6170 O.3    31  G31        -0.3114
    658  C4'       -4.9920   56.3850   24.7680 C.3    31  G31         0.1773
    659  O4'       -3.7580   56.4130   25.5280 O.3    31  G31        -0.3307
    660  C3'       -5.3410   57.8500   24.5540 C.3    31  G31         0.1860
    661  O3'       -6.7400   58.0000   24.3180 O.3    31  G31        -0.3112
    662  C2'       -4.8770   58.4700   25.8690 C.3    31  G31         0.2309
    663  O2'       -5.7940   58.2770   26.9300 O.3    31  G31        -0.2156
    664  C1'       -3.5880   57.6880   26.1270 C.3    31  G31         0.2408
    665  N1        -0.1150   61.4340   26.5940 N.ar   31  G31        -0.1709
    666  C2        -1.1920   61.1460   27.4040 C.ar   31  G31         0.2606
    667  N2        -1.3670   61.9480   28.4650 N.pl3  31  G31        -0.0859
    668  N3        -2.0360   60.1380   27.1870 N.ar   31  G31        -0.1918
    669  C4        -1.7150   59.4250   26.0730 C.ar   31  G31         0.1723
    670  C5        -0.6630   59.6380   25.2050 C.ar   31  G31         0.1748
    671  C6         0.2290   60.7130   25.4490 C.ar   31  G31         0.3023
    672  O6         1.2180   61.0480   24.7820 O.2    31  G31        -0.2633
    673  N7        -0.6660   58.7000   24.1830 N.ar   31  G31        -0.2173
    674  C8        -1.7000   57.9520   24.4440 C.ar   31  G31         0.1817
    675  N9        -2.3880   58.3260   25.5750 N.ar   31  G31        -0.2693
    676  OP1       -4.6980   55.0940   20.5330 O.3    31  G31        -0.4373
    677  OP2       -2.5600   56.5030   20.5290 O.co2  31  G31        -0.5172
    678  P         -7.2780   58.9840   23.1700 P.3    32  C32         0.2141
    679  C5'       -7.9030   60.8520   24.9070 C.3    32  C32         0.1812
    680  O5'       -7.0740   60.4310   23.8260 O.3    32  C32        -0.3114
    681  C4'       -7.2920   62.0200   25.6610 C.3    32  C32         0.1773
    682  O4'       -5.9420   61.6940   26.0880 O.3    32  C32        -0.3307
    683  C3'       -7.1020   63.2950   24.8550 C.3    32  C32         0.1860
    684  O3'       -8.3220   64.0190   24.7060 O.3    32  C32        -0.3112
    685  C2'       -6.0790   64.0230   25.7230 C.3    32  C32         0.2309
    686  O2'       -6.6350   64.6110   26.8850 O.3    32  C32        -0.2156
    687  C1'       -5.1460   62.8700   26.0930 C.3    32  C32         0.2420
    688  N1        -3.9690   62.7390   25.1490 N.ar   32  C32        -0.2535
    689  C2        -2.8690   63.6130   25.2690 C.ar   32  C32         0.3532
    690  O2        -2.8570   64.4840   26.1500 O.2    32  C32        -0.2443
    691  N3        -1.8250   63.4790   24.4070 N.ar   32  C32        -0.1739
    692  C4        -1.8450   62.5360   23.4600 C.ar   32  C32         0.1759
    693  N4        -0.7920   62.4520   22.6410 N.pl3  32  C32        -0.1070
    694  C5        -2.9470   61.6380   23.3140 C.ar   32  C32         0.0566
    695  C6        -3.9710   61.7770   24.1680 C.ar   32  C32         0.0850
    696  OP1       -8.7260   58.7230   23.0010 O.3    32  C32        -0.4373
    697  OP2       -6.3830   58.8840   21.9940 O.co2  32  C32        -0.5172
    698  P         -8.6610   64.7520   23.3190 P.3    33  U33         0.2141
    699  C5'       -7.4510   66.9850   24.0420 C.3    33  U33         0.1812
    700  O5'       -7.5000   65.8490   23.1760 O.3    33  U33        -0.3114
    701  C4'       -6.1230   67.7160   23.9410 C.3    33  U33         0.1773
    702  O4'       -5.0090   66.7940   24.0590 O.3    33  U33        -0.3307
    703  C3'       -5.8630   68.4060   22.6110 C.3    33  U33         0.1860
    704  O3'       -6.5820   69.6340   22.5270 O.3    33  U33        -0.3112
    705  C2'       -4.3480   68.5970   22.6620 C.3    33  U33         0.2309
    706  O2'       -3.9440   69.7090   23.4400 O.3    33  U33        -0.2156
    707  C1'       -3.9000   67.2910   23.3230 C.3    33  U33         0.2420
    708  N1        -3.4050   66.2530   22.3390 N.ar   33  U33        -0.2534
    709  C2        -2.1020   66.3240   21.8590 C.ar   33  U33         0.3546
    710  O2        -1.3010   67.1850   22.1830 O.2    33  U33        -0.2443
    711  N3        -1.7540   65.3330   20.9680 N.ar   33  U33        -0.1530
    712  C4        -2.5560   64.2980   20.5130 C.ar   33  U33         0.2846
    713  O4        -2.1060   63.4830   19.7140 O.2    33  U33        -0.2650
    714  C5        -3.8950   64.2860   21.0520 C.ar   33  U33         0.0814
    715  C6        -4.2570   65.2400   21.9220 C.ar   33  U33         0.0870
    716  OP1       -9.9620   65.4400   23.4890 O.3    33  U33        -0.4373
    717  OP2       -8.4930   63.7700   22.2240 O.co2  33  U33        -0.5172
    718  P         -7.0020   70.2320   21.1000 P.3    34  G34         0.2141
    719  C5'       -5.3560   72.2660   21.4040 C.3    34  G34         0.1812
    720  O5'       -5.7090   71.0820   20.6910 O.3    34  G34        -0.3114
    721  C4'       -4.0390   72.8290   20.9020 C.3    34  G34         0.1773
    722  O4'       -2.9770   71.8820   21.1780 O.3    34  G34        -0.3307
    723  C3'       -3.9520   73.0480   19.3970 C.3    34  G34         0.1860
    724  O3'       -4.5380   74.2960   19.0210 O.3    34  G34        -0.3112
    725  C2'       -2.4450   73.0120   19.1570 C.3    34  G34         0.2309
    726  O2'       -1.8180   74.2630   19.3680 O.3    34  G34        -0.2156
    727  C1'       -1.9680   71.9910   20.1880 C.3    34  G34         0.2408
    728  N1         1.3630   69.1020   17.6030 N.ar   34  G34        -0.1709
    729  C2         1.4740   70.4180   18.0010 C.ar   34  G34         0.2606
    730  N2         2.6100   71.0490   17.6730 N.pl3  34  G34        -0.0859
    731  N3         0.5310   71.0690   18.6750 N.ar   34  G34        -0.1918
    732  C4        -0.5560   70.2910   18.9290 C.ar   34  G34         0.1723
    733  C5        -0.7590   68.9720   18.5750 C.ar   34  G34         0.1748
    734  C6         0.2560   68.2880   17.8540 C.ar   34  G34         0.3023
    735  O6         0.2530   67.1150   17.4540 O.2    34  G34        -0.2633
    736  N7        -1.9990   68.5310   19.0170 N.ar   34  G34        -0.2173
    737  C8        -2.5120   69.5680   19.6180 C.ar   34  G34         0.1817
    738  N9        -1.6930   70.6740   19.6080 N.ar   34  G34        -0.2693
    739  OP1       -8.1450   71.1480   21.3160 O.3    34  G34        -0.4373
    740  OP2       -7.1310   69.1190   20.1300 O.co2  34  G34        -0.5172
    741  P         -5.2740   74.4540   17.6050 P.3    35  U35         0.2141
    742  C5'       -3.3350   75.7450   16.3650 C.3    35  U35         0.1812
    743  O5'       -4.0560   74.5280   16.5660 O.3    35  U35        -0.3114
    744  C4'       -1.9770   75.4980   15.7300 C.3    35  U35         0.1773
    745  O4'       -1.2990   74.4040   16.3990 O.3    35  U35        -0.3307
    746  C3'       -1.9950   75.0590   14.2720 C.3    35  U35         0.1860
    747  O3'       -2.1980   76.1580   13.3880 O.3    35  U35        -0.3112
    748  C2'       -0.6030   74.4470   14.1390 C.3    35  U35         0.2309
    749  O2'        0.4250   75.4110   13.9930 O.3    35  U35        -0.2156
    750  C1'       -0.4650   73.7200   15.4760 C.3    35  U35         0.2420
    751  N1        -0.8200   72.2490   15.4050 N.ar   35  U35        -0.2534
    752  C2         0.1320   71.3350   14.9690 C.ar   35  U35         0.3546
    753  O2         1.2660   71.6380   14.6340 O.2    35  U35        -0.2443
    754  N3        -0.2910   70.0250   14.9380 N.ar   35  U35        -0.1530
    755  C4        -1.5420   69.5400   15.2880 C.ar   35  U35         0.2846
    756  O4        -1.7730   68.3370   15.2080 O.2    35  U35        -0.2650
    757  C5        -2.4800   70.5430   15.7290 C.ar   35  U35         0.0814
    758  C6        -2.0920   71.8260   15.7670 C.ar   35  U35         0.0870
    759  OP1       -5.9950   75.7470   17.6200 O.3    35  U35        -0.4373
    760  OP2       -6.0240   73.2070   17.3230 O.co2  35  U35        -0.5172
    761  P         -3.0440   75.9630   12.0390 P.3    36  C36         0.2141
    762  C5'       -0.9120   75.6930   10.5110 C.3    36  C36         0.1812
    763  O5'       -2.0640   75.1000   11.1110 O.3    36  C36        -0.3114
    764  C4'        0.0870   74.6460   10.0520 C.3    36  C36         0.1773
    765  O4'        0.3510   73.7010   11.1220 O.3    36  C36        -0.3307
    766  C3'       -0.3630   73.7560    8.9020 C.3    36  C36         0.1860
    767  O3'       -0.2240   74.4040    7.6410 O.3    36  C36        -0.3112
    768  C2'        0.5940   72.5800    9.0580 C.3    36  C36         0.2309
    769  O2'        1.8930   72.8370    8.5560 O.3    36  C36        -0.2156
    770  C1'        0.6260   72.4200   10.5770 C.3    36  C36         0.2420
    771  N1        -0.3560   71.3880   11.0860 N.ar   36  C36        -0.2535
    772  C2        -0.0630   70.0160   10.9540 C.ar   36  C36         0.3532
    773  O2         0.9970   69.6580   10.4250 O.2    36  C36        -0.2443
    774  N3        -0.9610   69.1030   11.4130 N.ar   36  C36        -0.1739
    775  C4        -2.1030   69.5040   11.9790 C.ar   36  C36         0.1759
    776  N4        -2.9490   68.5650   12.4150 N.pl3  36  C36        -0.1070
    777  C5        -2.4250   70.8890   12.1250 C.ar   36  C36         0.0566
    778  C6        -1.5340   71.7810   11.6700 C.ar   36  C36         0.0850
    779  OP1       -3.2410   77.3040   11.4430 O.2    36  C36        -0.5172
    780  OP2       -4.2230   75.1190   12.3400 O.co2  36  C36        -0.4373
    781  P         -1.2470   74.0690    6.4520 P.3    37  C37         0.2141
    782  C5'        0.4450   72.3800    5.3390 C.3    37  C37         0.1812
    783  O5'       -0.8090   72.6020    5.9830 O.3    37  C37        -0.3114
    784  C4'        0.7710   70.8990    5.2490 C.3    37  C37         0.1773
    785  O4'        0.6610   70.2700    6.5520 O.3    37  C37        -0.3307
    786  C3'       -0.1650   70.0730    4.3810 C.3    37  C37         0.1860
    787  O3'        0.1400   70.2330    2.9980 O.3    37  C37        -0.3112
    788  C2'        0.1280   68.6660    4.8920 C.3    37  C37         0.2309
    789  O2'        1.3100   68.1090    4.3470 O.3    37  C37        -0.2156
    790  C1'        0.2960   68.9060    6.3920 C.3    37  C37         0.2420
    791  N1        -0.9410   68.5840    7.2000 N.ar   37  C37        -0.2535
    792  C2        -1.2880   67.2430    7.4700 C.ar   37  C37         0.3532
    793  O2        -0.5810   66.3160    7.0510 O.2    37  C37        -0.2443
    794  N3        -2.4060   66.9850    8.1990 N.ar   37  C37        -0.1739
    795  C4        -3.1660   67.9890    8.6510 C.ar   37  C37         0.1759
    796  N4        -4.2550   67.6770    9.3620 N.pl3  37  C37        -0.1070
    797  C5        -2.8390   69.3550    8.3900 C.ar   37  C37         0.0566
    798  C6        -1.7340   69.6000    7.6710 C.ar   37  C37         0.0850
    799  OP1       -0.9930   75.0350    5.3590 O.2    37  C37        -0.5172
    800  OP2       -2.6080   73.9620    7.0270 O.co2  37  C37        -0.4373
    801  P         -1.0130   70.0850    1.8940 P.3    38  C38         0.2141
    802  C5'       -0.1700   67.6430    1.3350 C.3    38  C38         0.1812
    803  O5'       -1.2180   68.4990    1.7940 O.3    38  C38        -0.3114
    804  C4'       -0.5340   66.1800    1.5210 C.3    38  C38         0.1773
    805  O4'       -0.8590   65.9180    2.9080 O.3    38  C38        -0.3307
    806  C3'       -1.7650   65.7300    0.7500 C.3    38  C38         0.1860
    807  O3'       -1.3980   65.3520   -0.5750 O.3    38  C38        -0.3112
    808  C2'       -2.2750   64.5440    1.5680 C.3    38  C38         0.2309
    809  O2'       -1.7780   63.2990    1.1120 O.3    38  C38        -0.2156
    810  C1'       -1.7610   64.8260    2.9820 C.3    38  C38         0.2420
    811  N1        -2.8590   65.1270    3.9710 N.ar   38  C38        -0.2535
    812  C2        -3.6250   64.0800    4.5260 C.ar   38  C38         0.3532
    813  O2        -3.3980   62.9030    4.2100 O.2    38  C38        -0.2443
    814  N3        -4.6080   64.3860    5.4160 N.ar   38  C38        -0.1739
    815  C4        -4.8420   65.6580    5.7520 C.ar   38  C38         0.1759
    816  N4        -5.8210   65.9020    6.6290 N.pl3  38  C38        -0.1070
    817  C5        -4.0810   66.7350    5.2010 C.ar   38  C38         0.0566
    818  C6        -3.1150   66.4260    4.3260 C.ar   38  C38         0.0850
    819  OP1       -0.4760   70.5930    0.6120 O.2    38  C38        -0.5172
    820  OP2       -2.2630   70.6650    2.4370 O.co2  38  C38        -0.4373
    821  P         -2.0530   66.0640   -1.8540 P.3    39  A39         0.2141
    822  C5'       -4.0140   64.2970   -1.8210 C.3    39  A39         0.1812
    823  O5'       -3.6010   65.6630   -1.7580 O.3    39  A39        -0.3114
    824  C4'       -5.3880   64.1160   -1.1990 C.3    39  A39         0.1773
    825  O4'       -5.4130   64.7080    0.1240 O.3    39  A39        -0.3307
    826  C3'       -6.5270   64.7540   -1.9880 C.3    39  A39         0.1860
    827  O3'       -7.4530   63.7380   -2.3710 O.3    39  A39        -0.3112
    828  C2'       -7.1350   65.7920   -1.0410 C.3    39  A39         0.2309
    829  O2'       -8.5490   65.8370   -1.0980 O.3    39  A39        -0.2156
    830  C1'       -6.6670   65.3210    0.3340 C.3    39  A39         0.2408
    831  N1        -8.1660   67.3780    4.8460 N.ar   39  A39        -0.2040
    832  C2        -8.5740   66.2820    4.1880 C.ar   39  A39         0.2016
    833  N3        -8.1430   65.8020    3.0180 N.ar   39  A39        -0.2048
    834  C4        -7.1720   66.5770    2.4960 C.ar   39  A39         0.1692
    835  C5        -6.6510   67.7340    3.0560 C.ar   39  A39         0.1518
    836  C6        -7.1900   68.1390    4.2990 C.ar   39  A39         0.1919
    837  N6        -6.7820   69.2320    4.9530 N.pl3  39  A39        -0.1054
    838  N7        -5.6660   68.2730    2.2450 N.ar   39  A39        -0.2193
    839  C8        -5.6120   67.4470    1.2280 C.ar   39  A39         0.1816
    840  N9        -6.4920   66.4010    1.3080 N.ar   39  A39        -0.2693
    841  OP1       -1.4790   65.4170   -3.0570 O.2    39  A39        -0.5172
    842  OP2       -1.9320   67.5310   -1.6870 O.co2  39  A39        -0.4373
    843  P         -7.4700   63.1720   -3.8710 P.3    40  U40         0.2141
    844  C5'       -6.6970   60.7500   -3.1600 C.3    40  U40         0.1812
    845  O5'       -7.7260   61.6060   -3.6590 O.3    40  U40        -0.3114
    846  C4'       -7.2150   59.8030   -2.0850 C.3    40  U40         0.1773
    847  O4'       -7.6000   60.5530   -0.9020 O.3    40  U40        -0.3307
    848  C3'       -8.4280   58.9480   -2.4640 C.3    40  U40         0.1860
    849  O3'       -8.2550   57.6000   -2.0080 O.3    40  U40        -0.3112
    850  C2'       -9.5780   59.6430   -1.7330 C.3    40  U40         0.2309
    851  O2'      -10.6530   58.7740   -1.4350 O.3    40  U40        -0.2156
    852  C1'       -8.8600   60.0860   -0.4610 C.3    40  U40         0.2420
    853  N1        -9.5650   61.1440    0.3430 N.ar   40  U40        -0.2534
    854  C2       -10.4410   60.7590    1.3490 C.ar   40  U40         0.3546
    855  O2       -10.6840   59.5980    1.6320 O.2    40  U40        -0.2443
    856  N3       -11.0330   61.7970    2.0310 N.ar   40  U40        -0.1530
    857  C4       -10.8470   63.1530    1.8150 C.ar   40  U40         0.2846
    858  O4       -11.4500   63.9660    2.5080 O.2    40  U40        -0.2650
    859  C5        -9.9230   63.4780    0.7540 C.ar   40  U40         0.0814
    860  C6        -9.3310   62.4850    0.0750 C.ar   40  U40         0.0870
    861  OP1       -6.1310   63.3690   -4.4760 O.3    40  U40        -0.4373
    862  OP2       -8.6650   63.7340   -4.5370 O.co2  40  U40        -0.5172
    863  P         -7.4230   56.4950   -2.8240 P.3    41  C41         0.2141
    864  C5'       -6.2850   55.9640   -0.5130 C.3    41  C41         0.1812
    865  O5'       -6.1380   56.2530   -1.9030 O.3    41  C41        -0.3114
    866  C4'       -5.4030   56.8820    0.3120 C.3    41  C41         0.1773
    867  O4'       -6.0640   58.1400    0.5550 O.3    41  C41        -0.3307
    868  C3'       -5.0840   56.3950    1.7170 C.3    41  C41         0.1860
    869  O3'       -3.9430   55.5500    1.6700 O.3    41  C41        -0.3112
    870  C2'       -4.8280   57.6830    2.5080 C.3    41  C41         0.2309
    871  O2'       -3.4660   57.8730    2.8390 O.3    41  C41        -0.2156
    872  C1'       -5.3020   58.7850    1.5530 C.3    41  C41         0.2420
    873  N1        -6.1100   59.8920    2.1800 N.ar   41  C41        -0.2535
    874  C2        -7.3400   59.6600    2.8350 C.ar   41  C41         0.3532
    875  O2        -7.8130   58.5180    2.9240 O.2    41  C41        -0.2443
    876  N3        -8.0000   60.7210    3.3740 N.ar   41  C41        -0.1739
    877  C4        -7.4960   61.9560    3.2780 C.ar   41  C41         0.1759
    878  N4        -8.1910   62.9570    3.8240 N.pl3  41  C41        -0.1070
    879  C5        -6.2550   62.2140    2.6180 C.ar   41  C41         0.0566
    880  C6        -5.6090   61.1640    2.0910 C.ar   41  C41         0.0850
    881  OP1       -6.9650   57.0860   -4.1040 O.2    41  C41        -0.5172
    882  OP2       -8.2340   55.2580   -2.8400 O.co2  41  C41        -0.4373
    883  P         -3.9370   54.1570    2.4560 P.3    42  A42         0.2141
    884  C5'       -2.9040   54.9540    4.7540 C.3    42  A42         0.1812
    885  O5'       -4.0570   54.6110    3.9890 O.3    42  A42        -0.3114
    886  C4'       -2.8140   54.0920    6.0020 C.3    42  A42         0.1773
    887  O4'       -4.0290   54.2410    6.7850 O.3    42  A42        -0.3307
    888  C3'       -2.6480   52.5930    5.7400 C.3    42  A42         0.1860
    889  O3'       -1.5960   52.0580    6.5410 O.3    42  A42        -0.3112
    890  C2'       -4.0120   52.0150    6.1200 C.3    42  A42         0.2309
    891  O2'       -3.9470   50.6810    6.5870 O.3    42  A42        -0.2156
    892  C1'       -4.4230   52.9650    7.2420 C.3    42  A42         0.2408
    893  N1        -8.0260   52.7440   10.9350 N.ar   42  A42        -0.2040
    894  C2        -6.6870   52.7410   11.0000 C.ar   42  A42         0.2016
    895  N3        -5.8080   52.8020    9.9950 N.ar   42  A42        -0.2048
    896  C4        -6.4300   52.8780    8.8000 C.ar   42  A42         0.1692
    897  C5        -7.7980   52.8910    8.5800 C.ar   42  A42         0.1518
    898  C6        -8.6250   52.8190    9.7230 C.ar   42  A42         0.1919
    899  N6        -9.9600   52.8260    9.6580 N.pl3  42  A42        -0.1054
    900  N7        -8.0810   52.9750    7.2270 N.ar   42  A42        -0.2193
    901  C8        -6.8960   53.0090    6.6630 C.ar   42  A42         0.1816
    902  N9        -5.8550   52.9560    7.5500 N.ar   42  A42        -0.2693
    903  OP1       -2.6190   53.5220    2.2220 O.3    42  A42        -0.4373
    904  OP2       -5.1720   53.4180    2.1030 O.co2  42  A42        -0.5172
    905  P         -0.0820   52.0290    6.0160 P.3    43  G43         0.2141
    906  C5'        0.7660   51.1170    8.3630 C.3    43  G43         0.1812
    907  O5'        0.6000   50.9300    6.9540 O.3    43  G43        -0.3114
    908  C4'        0.9970   49.7800    9.0630 C.3    43  G43         0.1773
    909  O4'       -0.1500   48.9100    8.8580 O.3    43  G43        -0.3307
    910  C3'        2.2090   48.9750    8.5970 C.3    43  G43         0.1860
    911  O3'        2.7660   48.2430    9.6810 O.3    43  G43        -0.3112
    912  C2'        1.6110   48.0430    7.5430 C.3    43  G43         0.2309
    913  O2'        2.3310   46.8370    7.3630 O.3    43  G43        -0.2156
    914  C1'        0.2190   47.7660    8.1080 C.3    43  G43         0.2408
    915  N1        -1.7150   44.4490    4.7680 N.ar   43  G43        -0.1709
    916  C2        -0.7680   44.2480    5.7510 C.ar   43  G43         0.2606
    917  N2        -0.2640   43.0110    5.8590 N.pl3  43  G43        -0.0859
    918  N3        -0.3410   45.2020    6.5750 N.ar   43  G43        -0.1918
    919  C4        -0.9480   46.3940    6.3340 C.ar   43  G43         0.1723
    920  C5        -1.8990   46.6930    5.3820 C.ar   43  G43         0.1748
    921  C6        -2.3480   45.6690    4.5120 C.ar   43  G43         0.3023
    922  O6        -3.1870   45.7650    3.6060 O.2    43  G43        -0.2633
    923  N7        -2.2700   48.0290    5.4550 N.ar   43  G43        -0.2173
    924  C8        -1.5470   48.5040    6.4310 C.ar   43  G43         0.1817
    925  N9        -0.7290   47.5680    7.0160 N.ar   43  G43        -0.2693
    926  OP1        0.5220   53.3510    6.2920 O.3    43  G43        -0.4373
    927  OP2       -0.0750   51.4990    4.6320 O.co2  43  G43        -0.5172
    928  P          4.3500   48.1220    9.8740 P.3    44  G44         0.2141
    929  C5'        6.2110   48.1880    8.0100 C.3    44  G44         0.1812
    930  O5'        4.8890   47.8230    8.3960 O.3    44  G44        -0.3114
    931  C4'        6.7800   47.2120    6.9960 C.3    44  G44         0.1773
    932  O4'        6.8570   45.8800    7.5720 O.3    44  G44        -0.3307
    933  C3'        5.9650   47.0030    5.7270 C.3    44  G44         0.1860
    934  O3'        6.1330   48.0680    4.7970 O.3    44  G44        -0.3112
    935  C2'        6.5840   45.7010    5.2340 C.3    44  G44         0.2309
    936  O2'        7.8760   45.8680    4.6840 O.3    44  G44        -0.2156
    937  C1'        6.6520   44.9210    6.5450 C.3    44  G44         0.2408
    938  N1         3.7950   40.9640    5.0630 N.ar   44  G44        -0.1709
    939  C2         4.9850   41.4300    4.5450 C.ar   44  G44         0.2606
    940  N2         5.4960   40.7710    3.4950 N.pl3  44  G44        -0.0859
    941  N3         5.6360   42.4820    5.0280 N.ar   44  G44        -0.1918
    942  C4         5.0000   43.0480    6.0860 C.ar   44  G44         0.1723
    943  C5         3.8140   42.6610    6.6750 C.ar   44  G44         0.1748
    944  C6         3.1260   41.5330    6.1540 C.ar   44  G44         0.3023
    945  O6         2.0590   41.0420    6.5500 O.2    44  G44        -0.2633
    946  N7         3.4980   43.5020    7.7360 N.ar   44  G44        -0.2173
    947  C8         4.4800   44.3610    7.7680 C.ar   44  G44         0.1817
    948  N9         5.4320   44.1470    6.7970 N.ar   44  G44        -0.2693
    949  OP1        4.5940   46.9200   10.6990 O.3    44  G44        -0.4373
    950  OP2        4.8540   49.4410   10.3240 O.co2  44  G44        -0.5172
    951  P          5.0190   48.3760    3.6870 P.3    45  G45         0.2141
    952  C5'        6.3090   47.2320    1.6800 C.3    45  G45         0.1812
    953  O5'        5.2260   47.2130    2.6060 O.3    45  G45        -0.3114
    954  C4'        6.1510   46.1400    0.6370 C.3    45  G45         0.1773
    955  O4'        6.2130   44.8380    1.2810 O.3    45  G45        -0.3307
    956  C3'        4.8170   46.1010   -0.0980 C.3    45  G45         0.1860
    957  O3'        4.7190   47.0660   -1.1510 O.3    45  G45        -0.3112
    958  C2'        4.8130   44.6630   -0.6060 C.3    45  G45         0.2309
    959  O2'        5.6800   44.4550   -1.7070 O.3    45  G45        -0.2156
    960  C1'        5.3180   43.9400    0.6410 C.3    45  G45         0.2408
    961  N1         1.3820   40.7950    1.5650 N.ar   45  G45        -0.1709
    962  C2         2.2430   40.8180    0.4880 C.ar   45  G45         0.2606
    963  N2         2.0390   39.8940   -0.4620 N.pl3  45  G45        -0.0859
    964  N3         3.2390   41.6880    0.3570 N.ar   45  G45        -0.1918
    965  C4         3.3140   42.5570    1.4020 C.ar   45  G45         0.1723
    966  C5         2.5000   42.6140    2.5160 C.ar   45  G45         0.1748
    967  C6         1.4440   41.6750    2.6490 C.ar   45  G45         0.3023
    968  O6         0.6180   41.5790    3.5670 O.2    45  G45        -0.2633
    969  N7         2.8940   43.6430    3.3600 N.ar   45  G45        -0.2173
    970  C8         3.9170   44.1780    2.7560 C.ar   45  G45         0.1817
    971  N9         4.2360   43.5740    1.5600 N.ar   45  G45        -0.2693
    972  OP1        5.3620   49.6810    3.0780 O.2    45  G45        -0.5172
    973  OP2        3.6790   48.1740    4.2860 O.co2  45  G45        -0.4373
    974  P          3.3330   47.8480   -1.3460 P.3    46  G46         0.2141
    975  C5'        2.5470   46.1300   -3.1720 C.3    46  G46         0.1812
    976  O5'        2.3340   46.7190   -1.8940 O.3    46  G46        -0.3114
    977  C4'        1.7400   44.8580   -3.3670 C.3    46  G46         0.1773
    978  O4'        1.9890   43.8850   -2.3160 O.3    46  G46        -0.3307
    979  C3'        0.2250   44.9880   -3.3250 C.3    46  G46         0.1860
    980  O3'       -0.2820   45.6670   -4.4640 O.3    46  G46        -0.3112
    981  C2'       -0.1110   43.5020   -3.3080 C.3    46  G46         0.2309
    982  O2'        0.1560   42.8450   -4.5380 O.3    46  G46        -0.2156
    983  C1'        0.8480   43.0440   -2.2090 C.3    46  G46         0.2408
    984  N1        -2.6900   41.2780    1.0450 N.ar   46  G46        -0.1709
    985  C2        -2.3800   40.8400   -0.2250 C.ar   46  G46         0.2606
    986  N2        -3.0960   39.8090   -0.6960 N.pl3  46  G46        -0.0859
    987  N3        -1.4300   41.3820   -0.9790 N.ar   46  G46        -0.1918
    988  C4        -0.7940   42.4170   -0.3640 C.ar   46  G46         0.1723
    989  C5        -1.0360   42.9280    0.8950 C.ar   46  G46         0.1748
    990  C6        -2.0500   42.3370    1.6940 C.ar   46  G46         0.3023
    991  O6        -2.4030   42.6550    2.8360 O.2    46  G46        -0.2633
    992  N7        -0.1800   43.9870    1.1680 N.ar   46  G46        -0.2173
    993  C8         0.5480   44.1000    0.0910 C.ar   46  G46         0.1817
    994  N9         0.2380   43.1760   -0.8820 N.ar   46  G46        -0.2693
    995  OP1        3.5270   48.8780   -2.3910 O.2    46  G46        -0.5172
    996  OP2        2.8480   48.2450   -0.0030 O.co2  46  G46        -0.4373
    997  P         -1.6760   46.4640   -4.4270 P.3    47  A47         0.2141
    998  C5'       -3.0030   44.4290   -5.4480 C.3    47  A47         0.1812
    999  O5'       -2.7700   45.3010   -4.3440 O.3    47  A47        -0.3114
   1000  C4'       -4.0660   43.4010   -5.1100 C.3    47  A47         0.1773
   1001  O4'       -3.6540   42.5900   -3.9740 O.3    47  A47        -0.3307
   1002  C3'       -5.4050   43.9740   -4.6720 C.3    47  A47         0.1860
   1003  O3'       -6.1750   44.4050   -5.7870 O.3    47  A47        -0.3112
   1004  C2'       -6.0090   42.7680   -3.9640 C.3    47  A47         0.2309
   1005  O2'       -6.4730   41.7780   -4.8640 O.3    47  A47        -0.2156
   1006  C1'       -4.7910   42.2760   -3.1840 C.3    47  A47         0.2408
   1007  N1        -6.6630   42.6410    1.6320 N.ar   47  A47        -0.2040
   1008  C2        -7.0490   41.9040    0.5790 C.ar   47  A47         0.2016
   1009  N3        -6.5170   41.8590   -0.6460 N.ar   47  A47        -0.2048
   1010  C4        -5.4600   42.6880   -0.7560 C.ar   47  A47         0.1692
   1011  C5        -4.9520   43.5090    0.2380 C.ar   47  A47         0.1518
   1012  C6        -5.6000   43.4680    1.4960 C.ar   47  A47         0.1919
   1013  N6        -5.2170   44.2050    2.5470 N.pl3  47  A47        -0.1054
   1014  N7        -3.8630   44.2250   -0.2310 N.ar   47  A47        -0.2193
   1015  C8        -3.7370   43.8310   -1.4740 C.ar   47  A47         0.1816
   1016  N9        -4.6640   42.9030   -1.8630 N.ar   47  A47        -0.2693
   1017  OP1       -1.8100   47.1750   -5.7190 O.2    47  A47        -0.5172
   1018  OP2       -1.7590   47.2380   -3.1690 O.co2  47  A47        -0.4373
   1019  P         -7.0290   45.7560   -5.6970 P.3    48  G48         0.2141
   1020  C5'       -9.2390   44.4060   -5.2570 C.3    48  G48         0.1812
   1021  O5'       -8.2700   45.3380   -4.7770 O.3    48  G48        -0.3114
   1022  C4'      -10.0730   43.8340   -4.1250 C.3    48  G48         0.1773
   1023  O4'       -9.2280   43.3560   -3.0470 O.3    48  G48        -0.3307
   1024  C3'      -11.0020   44.8200   -3.4370 C.3    48  G48         0.1860
   1025  O3'      -12.1640   45.0480   -4.2240 O.3    48  G48        -0.3112
   1026  C2'      -11.2980   44.0760   -2.1380 C.3    48  G48         0.2309
   1027  O2'      -12.2820   43.0670   -2.2760 O.3    48  G48        -0.2156
   1028  C1'       -9.9290   43.4720   -1.8170 C.3    48  G48         0.2408
   1029  N1        -9.3390   45.0510    3.0160 N.ar   48  G48        -0.1709
   1030  C2       -10.2670   44.1740    2.4950 C.ar   48  G48         0.2606
   1031  N2       -11.1510   43.6490    3.3550 N.pl3  48  G48        -0.0859
   1032  N3       -10.3210   43.8350    1.2110 N.ar   48  G48        -0.1918
   1033  C4        -9.3620   44.4510    0.4690 C.ar   48  G48         0.1723
   1034  C5        -8.3950   45.3390    0.8960 C.ar   48  G48         0.1748
   1035  C6        -8.3450   45.6920    2.2700 C.ar   48  G48         0.3023
   1036  O6        -7.5610   46.4660    2.8360 O.2    48  G48        -0.2633
   1037  N7        -7.5980   45.7470   -0.1680 N.ar   48  G48        -0.2173
   1038  C8        -8.0900   45.1100   -1.1940 C.ar   48  G48         0.1817
   1039  N9        -9.1590   44.3030   -0.8890 N.ar   48  G48        -0.2693
   1040  OP1       -7.5190   46.0610   -7.0600 O.2    48  G48        -0.5172
   1041  OP2       -6.2470   46.7710   -4.9570 O.co2  48  G48        -0.4373
   1042  P        -12.9310   46.4550   -4.1650 P.3    49  G49         0.2141
   1043  C5'      -13.5180   47.2550   -1.7300 C.3    49  G49         0.1812
   1044  O5'      -13.7430   46.3380   -2.7910 O.3    49  G49        -0.3114
   1045  C4'      -14.1440   46.7320   -0.4550 C.3    49  G49         0.1773
   1046  O4'      -13.1610   45.9660    0.2890 O.3    49  G49        -0.3307
   1047  C3'      -14.6170   47.8160    0.5010 C.3    49  G49         0.1860
   1048  O3'      -15.9620   48.1770    0.2060 O.3    49  G49        -0.3112
   1049  C2'      -14.4680   47.1370    1.8590 C.3    49  G49         0.2309
   1050  O2'      -15.5380   46.2660    2.1780 O.3    49  G49        -0.2156
   1051  C1'      -13.1720   46.3540    1.6520 C.3    49  G49         0.2408
   1052  N1       -10.3410   48.5390    5.2950 N.ar   49  G49        -0.1709
   1053  C2       -11.5090   47.8160    5.4140 C.ar   49  G49         0.2606
   1054  N2       -11.9940   47.6460    6.6530 N.pl3  49  G49        -0.0859
   1055  N3       -12.1580   47.2920    4.3810 N.ar   49  G49        -0.1918
   1056  C4       -11.5440   47.5500    3.1970 C.ar   49  G49         0.1723
   1057  C5       -10.3830   48.2620    2.9770 C.ar   49  G49         0.1748
   1058  C6        -9.6970   48.8140    4.0870 C.ar   49  G49         0.3023
   1059  O6        -8.6510   49.4740    4.0840 O.2    49  G49        -0.2633
   1060  N7       -10.0800   48.3050    1.6230 N.ar   49  G49        -0.2173
   1061  C8       -11.0450   47.6320    1.0610 C.ar   49  G49         0.1817
   1062  N9       -11.9710   47.1410    1.9530 N.ar   49  G49        -0.2693
   1063  OP1      -13.8970   46.4780   -5.2830 O.2    49  G49        -0.5172
   1064  OP2      -11.9330   47.5450   -4.0430 O.co2  49  G49        -0.4373
   1065  P        -16.4590   49.6910    0.3750 P.3    50  A50         0.2141
   1066  C5'      -17.5860   48.9990    2.6420 C.3    50  A50         0.1812
   1067  O5'      -16.6430   49.8200    1.9570 O.3    50  A50        -0.3114
   1068  C4'      -17.4090   49.1280    4.1410 C.3    50  A50         0.1773
   1069  O4'      -16.0860   48.6860    4.5260 O.3    50  A50        -0.3307
   1070  C3'      -17.4770   50.5530    4.6580 C.3    50  A50         0.1860
   1071  O3'      -18.8340   50.9570    4.8090 O.3    50  A50        -0.3112
   1072  C2'      -16.7340   50.4410    5.9850 C.3    50  A50         0.2309
   1073  O2'      -17.5400   49.9340    7.0310 O.3    50  A50        -0.2156
   1074  C1'      -15.6280   49.4470    5.6320 C.3    50  A50         0.2408
   1075  N1       -11.4430   51.9360    7.3770 N.ar   50  A50        -0.2040
   1076  C2       -12.5310   51.4670    8.0090 C.ar   50  A50         0.2016
   1077  N3       -13.5820   50.8280    7.4940 N.ar   50  A50        -0.2048
   1078  C4       -13.4590   50.6780    6.1600 C.ar   50  A50         0.1692
   1079  C5       -12.4020   51.1110    5.3740 C.ar   50  A50         0.1518
   1080  C6       -11.3440   51.7720    6.0380 C.ar   50  A50         0.1919
   1081  N6       -10.2590   52.2410    5.4120 N.pl3  50  A50        -0.1054
   1082  N7       -12.6140   50.7840    4.0460 N.ar   50  A50        -0.2193
   1083  C8       -13.7750   50.1740    4.0550 C.ar   50  A50         0.1816
   1084  N9       -14.3470   50.0740    5.2950 N.ar   50  A50        -0.2693
   1085  OP1      -17.7840   49.8060   -0.2750 O.2    50  A50        -0.5172
   1086  OP2      -15.3640   50.6030   -0.0320 O.co2  50  A50        -0.4373
   1087  P        -19.2660   52.4490    4.4210 P.3    51  A51         0.2141
   1088  C5'      -18.8280   53.2800    6.8920 C.3    51  A51         0.1812
   1089  O5'      -18.4920   53.3380    5.5060 O.3    51  A51        -0.3114
   1090  C4'      -17.8160   54.0470    7.7240 C.3    51  A51         0.1773
   1091  O4'      -16.5050   53.4370    7.6030 O.3    51  A51        -0.3307
   1092  C3'      -17.5990   55.4910    7.2960 C.3    51  A51         0.1860
   1093  O3'      -18.6180   56.3340    7.8360 O.3    51  A51        -0.3112
   1094  C2'      -16.2110   55.7770    7.8650 C.3    51  A51         0.2309
   1095  O2'      -16.2330   56.1130    9.2400 O.3    51  A51        -0.2156
   1096  C1'      -15.5010   54.4390    7.6450 C.3    51  A51         0.2408
   1097  N1       -10.9140   55.2760    5.3810 N.ar   51  A51        -0.2040
   1098  C2       -11.3190   55.4200    6.6530 C.ar   51  A51         0.2016
   1099  N3       -12.5260   55.1820    7.1730 N.ar   51  A51        -0.2048
   1100  C4       -13.3940   54.7460    6.2380 C.ar   51  A51         0.1692
   1101  C5       -13.1210   54.5490    4.8930 C.ar   51  A51         0.1518
   1102  C6       -11.8060   54.8370    4.4600 C.ar   51  A51         0.1919
   1103  N6       -11.4050   54.6910    3.1930 N.pl3  51  A51        -0.1054
   1104  N7       -14.2440   54.0920    4.2260 N.ar   51  A51        -0.2193
   1105  C8       -15.1580   54.0250    5.1640 C.ar   51  A51         0.1816
   1106  N9       -14.7190   54.4010    6.4050 N.ar   51  A51        -0.2693
   1107  OP1      -20.7270   52.5650    4.6380 O.3    51  A51        -0.4373
   1108  OP2      -18.7000   52.7740    3.0920 O.co2  51  A51        -0.5172
   1109  P        -19.3280   57.4360    6.9170 P.3    52  U52         0.2141
   1110  C5'      -17.8180   59.5080    7.5170 C.3    52  U52         0.1812
   1111  O5'      -18.1350   58.4580    6.6070 O.3    52  U52        -0.3114
   1112  C4'      -16.9150   60.5380    6.8660 C.3    52  U52         0.1773
   1113  O4'      -15.7200   59.8710    6.3950 O.3    52  U52        -0.3307
   1114  C3'      -17.5160   61.2720    5.6590 C.3    52  U52         0.1860
   1115  O3'      -17.9820   62.6240    5.9380 O.3    52  U52        -0.3112
   1116  C2'      -16.4520   61.1930    4.5530 C.3    52  U52         0.2309
   1117  O2'      -16.0480   62.4560    4.0560 O.3    52  U52        -0.2156
   1118  C1'      -15.2660   60.4800    5.2020 C.3    52  U52         0.2420
   1119  N1       -14.6460   59.4360    4.3110 N.ar   52  U52        -0.2534
   1120  C2       -13.4400   59.7030    3.6820 C.ar   52  U52         0.3546
   1121  O2       -12.8260   60.7480    3.8050 O.2    52  U52        -0.2443
   1122  N3       -12.9630   58.6860    2.8860 N.ar   52  U52        -0.1530
   1123  C4       -13.5570   57.4560    2.6570 C.ar   52  U52         0.2846
   1124  O4       -13.0080   56.6460    1.9180 O.2    52  U52        -0.2650
   1125  C5       -14.8100   57.2490    3.3420 C.ar   52  U52         0.0814
   1126  C6       -15.2950   58.2230    4.1240 C.ar   52  U52         0.0870
   1127  OP1      -20.3600   58.1070    7.7400 O.3    52  U52        -0.4373
   1128  OP2      -19.7240   56.8080    5.6350 O.co2  52  U52        -0.5172
   1129  P        -17.2400   63.7390    6.8300 P.3    53  C53         0.2141
   1130  C5'      -17.4710   64.2800    9.3950 C.3    53  C53         0.1812
   1131  O5'      -17.9180   63.5350    8.2640 O.3    53  C53        -0.3114
   1132  C4'      -17.8980   63.5990   10.6840 C.3    53  C53         0.1773
   1133  O4'      -19.3420   63.4570   10.7000 O.3    53  C53        -0.3307
   1134  C3'      -17.3190   62.2000   10.8870 C.3    53  C53         0.1860
   1135  O3'      -16.6760   62.1070   12.1600 O.3    53  C53        -0.3112
   1136  C2'      -18.5270   61.2690   10.7790 C.3    53  C53         0.2309
   1137  O2'      -18.4450   60.1430   11.6320 O.3    53  C53        -0.2156
   1138  C1'      -19.6760   62.1800   11.1990 C.3    53  C53         0.2420
   1139  N1       -21.0100   61.7490   10.6560 N.ar   53  C53        -0.2535
   1140  C2       -21.9860   61.2270   11.5260 C.ar   53  C53         0.3532
   1141  O2       -21.7530   61.1290   12.7380 O.2    53  C53        -0.2443
   1142  N3       -23.1820   60.8370   11.0090 N.ar   53  C53        -0.1739
   1143  C4       -23.4190   60.9490    9.6970 C.ar   53  C53         0.1759
   1144  N4       -24.6120   60.5520    9.2430 N.pl3  53  C53        -0.1070
   1145  C5       -22.4420   61.4730    8.7950 C.ar   53  C53         0.0566
   1146  C6       -21.2670   61.8550    9.3120 C.ar   53  C53         0.0850
   1147  OP1      -17.6830   65.0550    6.3210 O.2    53  C53        -0.5172
   1148  OP2      -15.7900   63.4410    6.9170 O.co2  53  C53        -0.4373
   1149  P        -15.0790   62.1440   12.2800 P.3    54  G54         0.2141
   1150  C5'      -14.9770   59.5520   11.7910 C.3    54  G54         0.1812
   1151  O5'      -14.6010   60.8770   11.4240 O.3    54  G54        -0.3114
   1152  C4'      -14.3800   58.5320   10.8400 C.3    54  G54         0.1773
   1153  O4'      -14.6560   58.8860    9.4580 O.3    54  G54        -0.3307
   1154  C3'      -12.8660   58.4200   10.8880 C.3    54  G54         0.1860
   1155  O3'      -12.4470   57.6150   11.9840 O.3    54  G54        -0.3112
   1156  C2'      -12.5850   57.7640    9.5410 C.3    54  G54         0.2309
   1157  O2'      -12.8650   56.3760    9.5360 O.3    54  G54        -0.2156
   1158  C1'      -13.5510   58.5310    8.6410 C.3    54  G54         0.2408
   1159  N1       -10.1210   60.4790    5.3540 N.ar   54  G54        -0.1709
   1160  C2       -10.4120   59.1590    5.6240 C.ar   54  G54         0.2606
   1161  N2        -9.7120   58.2410    4.9430 N.pl3  54  G54        -0.0859
   1162  N3       -11.3300   58.7680    6.5040 N.ar   54  G54        -0.1918
   1163  C4       -11.9540   59.8150    7.1100 C.ar   54  G54         0.1723
   1164  C5       -11.7310   61.1620    6.9060 C.ar   54  G54         0.1748
   1165  C6       -10.7470   61.5680    5.9650 C.ar   54  G54         0.3023
   1166  O6       -10.4180   62.7210    5.6550 O.2    54  G54        -0.2633
   1167  N7       -12.5650   61.9260    7.7120 N.ar   54  G54        -0.2173
   1168  C8       -13.2600   61.0450    8.3760 C.ar   54  G54         0.1817
   1169  N9       -12.9510   59.7410    8.0650 N.ar   54  G54        -0.2693
   1170  OP1      -14.7400   61.9290   13.7040 O.3    54  G54        -0.4373
   1171  OP2      -14.5910   63.3580   11.5870 O.co2  54  G54        -0.5172
   1172  P        -11.0930   57.9660   12.7660 P.3    55  G55         0.2141
   1173  C5'       -9.7250   56.3640   11.1940 C.3    55  G55         0.1812
   1174  O5'       -9.9520   57.6840   11.6800 O.3    55  G55        -0.3114
   1175  C4'       -8.7930   56.3750    9.9970 C.3    55  G55         0.1773
   1176  O4'       -9.2950   57.2280    8.9360 O.3    55  G55        -0.3307
   1177  C3'       -7.4090   56.9390   10.2600 C.3    55  G55         0.1860
   1178  O3'       -6.6050   56.0160   10.9870 O.3    55  G55        -0.3112
   1179  C2'       -6.9320   57.1680    8.8300 C.3    55  G55         0.2309
   1180  O2'       -6.5280   55.9850    8.1660 O.3    55  G55        -0.2156
   1181  C1'       -8.1980   57.7480    8.1990 C.3    55  G55         0.2408
   1182  N1        -6.1000   62.0870    6.4660 N.ar   55  G55        -0.1709
   1183  C2        -5.7830   60.7830    6.1540 C.ar   55  G55         0.2606
   1184  N2        -4.7840   60.6020    5.2780 N.pl3  55  G55        -0.0859
   1185  N3        -6.4040   59.7260    6.6720 N.ar   55  G55        -0.1918
   1186  C4        -7.3900   60.0760    7.5430 C.ar   55  G55         0.1723
   1187  C5        -7.7780   61.3470    7.9170 C.ar   55  G55         0.1748
   1188  C6        -7.1070   62.4660    7.3570 C.ar   55  G55         0.3023
   1189  O6        -7.3170   63.6680    7.5700 O.2    55  G55        -0.2633
   1190  N7        -8.8230   61.2930    8.8300 N.ar   55  G55        -0.2173
   1191  C8        -9.0420   60.0170    8.9900 C.ar   55  G55         0.1817
   1192  N9        -8.2150   59.2140    8.2390 N.ar   55  G55        -0.2693
   1193  OP1      -10.9540   56.9970   13.8760 O.3    55  G55        -0.4373
   1194  OP2      -11.0900   59.4180   13.0580 O.co2  55  G55        -0.5172
   1195  P         -5.4930   56.5580   12.0040 P.3    56  G56         0.2141
   1196  C5'       -3.6510   56.0530   10.1920 C.3    56  G56         0.1812
   1197  O5'       -4.3090   57.0050   11.0270 O.3    56  G56        -0.3114
   1198  C4'       -2.8200   56.7470    9.1290 C.3    56  G56         0.1773
   1199  O4'       -3.6480   57.6170    8.3130 O.3    56  G56        -0.3307
   1200  C3'       -1.7420   57.6780    9.6580 C.3    56  G56         0.1860
   1201  O3'       -0.6010   56.9570   10.0940 O.3    56  G56        -0.3112
   1202  C2'       -1.4780   58.5370    8.4250 C.3    56  G56         0.2309
   1203  O2'       -0.7180   57.8800    7.4260 O.3    56  G56        -0.2156
   1204  C1'       -2.9110   58.7750    7.9510 C.3    56  G56         0.2408
   1205  N1        -2.9610   63.8950    8.2280 N.ar   56  G56        -0.1709
   1206  C2        -2.1630   63.0730    7.4600 C.ar   56  G56         0.2606
   1207  N2        -1.2680   63.6780    6.6670 N.pl3  56  G56        -0.0859
   1208  N3        -2.2410   61.7450    7.4690 N.ar   56  G56        -0.1918
   1209  C4        -3.1950   61.2850    8.3240 C.ar   56  G56         0.1723
   1210  C5        -4.0370   62.0250    9.1300 C.ar   56  G56         0.1748
   1211  C6        -3.9450   63.4430    9.1110 C.ar   56  G56         0.3023
   1212  O6        -4.6120   64.2610    9.7600 O.2    56  G56        -0.2633
   1213  N7        -4.8750   61.1920    9.8600 N.ar   56  G56        -0.2173
   1214  C8        -4.5320   59.9900    9.4910 C.ar   56  G56         0.1817
   1215  N9        -3.5210   59.9630    8.5590 N.ar   56  G56        -0.2693
   1216  OP1       -5.0420   55.4160   12.8310 O.3    56  G56        -0.4373
   1217  OP2       -6.0090   57.7800   12.6630 O.co2  56  G56        -0.5172
   1218  P          0.2350   57.4740   11.3600 P.3    57  G57         0.2141
   1219  C5'        2.0070   58.4740    9.6900 C.3    57  G57         0.1812
   1220  O5'        1.0810   58.6880   10.7530 O.3    57  G57        -0.3114
   1221  C4'        2.4300   59.7920    9.0690 C.3    57  G57         0.1773
   1222  O4'        1.2690   60.5380    8.6240 O.3    57  G57        -0.3307
   1223  C3'        3.1400   60.7430   10.0180 C.3    57  G57         0.1860
   1224  O3'        4.5140   60.3920   10.1350 O.3    57  G57        -0.3112
   1225  C2'        2.9280   62.0820    9.3230 C.3    57  G57         0.2309
   1226  O2'        3.8280   62.3100    8.2540 O.3    57  G57        -0.2156
   1227  C1'        1.4990   61.9270    8.8000 C.3    57  G57         0.2408
   1228  N1        -0.4720   66.1680   10.8750 N.ar   57  G57        -0.1709
   1229  C2         0.5790   66.0320    9.9930 C.ar   57  G57         0.2606
   1230  N2         1.1910   67.1580    9.6050 N.pl3  57  G57        -0.0859
   1231  N3         1.0010   64.8650    9.5190 N.ar   57  G57        -0.1918
   1232  C4         0.2840   63.8170   10.0020 C.ar   57  G57         0.1723
   1233  C5        -0.7780   63.8500   10.8840 C.ar   57  G57         0.1748
   1234  C6        -1.2210   65.1050   11.3820 C.ar   57  G57         0.3023
   1235  O6        -2.1490   65.3320   12.1720 O.2    57  G57        -0.2633
   1236  N7        -1.2440   62.5650   11.1340 N.ar   57  G57        -0.2173
   1237  C8        -0.4710   61.7970   10.4150 C.ar   57  G57         0.1817
   1238  N9         0.4820   62.4850    9.6990 N.ar   57  G57        -0.2693
   1239  OP1        1.1550   56.3860   11.7650 O.2    57  G57        -0.5172
   1240  OP2       -0.7080   58.0400   12.3510 O.co2  57  G57        -0.4373
   1241  P          5.3090   60.6610   11.4990 P.3    58  A58         0.2141
   1242  C5'        6.5710   62.6460   10.3130 C.3    58  A58         0.1812
   1243  O5'        5.7110   62.2050   11.3640 O.3    58  A58        -0.3114
   1244  C4'        6.7480   64.1550   10.3340 C.3    58  A58         0.1773
   1245  O4'        5.5000   64.8050    9.9810 O.3    58  A58        -0.3307
   1246  C3'        7.1180   64.7500   11.6860 C.3    58  A58         0.1860
   1247  O3'        8.5230   64.6660   11.9040 O.3    58  A58        -0.3112
   1248  C2'        6.6270   66.1880   11.5410 C.3    58  A58         0.2309
   1249  O2'        7.5310   67.0230   10.8390 O.3    58  A58        -0.2156
   1250  C1'        5.3420   65.9960   10.7360 C.3    58  A58         0.2408
   1251  N1         1.8060   68.4910   13.5760 N.ar   58  A58        -0.2040
   1252  C2         2.8700   68.9340   12.8880 C.ar   58  A58         0.2016
   1253  N3         3.7490   68.2300   12.1690 N.ar   58  A58        -0.2048
   1254  C4         3.4600   66.9140   12.1910 C.ar   58  A58         0.1692
   1255  C5         2.4020   66.3130   12.8550 C.ar   58  A58         0.1518
   1256  C6         1.5380   67.1640   13.5800 C.ar   58  A58         0.1919
   1257  N6         0.4800   66.7210   14.2670 N.pl3  58  A58        -0.1054
   1258  N7         2.4130   64.9430   12.6580 N.ar   58  A58        -0.2193
   1259  C8         3.4590   64.7460   11.8920 C.ar   58  A58         0.1816
   1260  N9         4.1400   65.8880   11.5690 N.ar   58  A58        -0.2693
   1261  OP1        6.5310   59.8250   11.4740 O.2    58  A58        -0.5172
   1262  OP2        4.3690   60.5410   12.6380 O.co2  58  A58        -0.4373
   1263  P          9.1030   64.3170   13.3570 P.3    59  C59         0.2141
   1264  C5'        9.6580   66.8400   13.8730 C.3    59  C59         0.1812
   1265  O5'        8.8740   65.6830   14.1650 O.3    59  C59        -0.3114
   1266  C4'        9.0210   68.1090   14.4130 C.3    59  C59         0.1773
   1267  O4'        7.6590   68.2310   13.9250 O.3    59  C59        -0.3307
   1268  C3'        8.8680   68.1830   15.9260 C.3    59  C59         0.1860
   1269  O3'       10.0820   68.5670   16.5640 O.3    59  C59        -0.3112
   1270  C2'        7.7800   69.2470   16.0610 C.3    59  C59         0.2309
   1271  O2'        8.2620   70.5710   15.9150 O.3    59  C59        -0.2156
   1272  C1'        6.8550   68.8790   14.9010 C.3    59  C59         0.2420
   1273  N1         5.6940   68.0020   15.3190 N.ar   59  C59        -0.2535
   1274  C2         4.5400   68.5820   15.8830 C.ar   59  C59         0.3532
   1275  O2         4.4660   69.8100   16.0320 O.2    59  C59        -0.2443
   1276  N3         3.5110   67.7730   16.2540 N.ar   59  C59        -0.1739
   1277  C4         3.5970   66.4480   16.0890 C.ar   59  C59         0.1759
   1278  N4         2.5560   65.7030   16.4710 N.pl3  59  C59        -0.1070
   1279  C5         4.7560   65.8340   15.5220 C.ar   59  C59         0.0566
   1280  C6         5.7630   66.6400   15.1580 C.ar   59  C59         0.0850
   1281  OP1       10.5540   64.0640   13.2080 O.2    59  C59        -0.5172
   1282  OP2        8.2500   63.2730   13.9730 O.co2  59  C59        -0.4373
   1283  P         10.4630   67.9700   18.0030 P.3    60  G60         0.2141
   1284  C5'        8.9230   68.1200   20.1520 C.3    60  G60         0.1812
   1285  O5'        9.0520   67.8590   18.7570 O.3    60  G60        -0.3114
   1286  C4'        8.0510   69.3380   20.4080 C.3    60  G60         0.1773
   1287  O4'        7.0270   69.4580   19.3840 O.3    60  G60        -0.3307
   1288  C3'        7.2810   69.2950   21.7200 C.3    60  G60         0.1860
   1289  O3'        8.0680   69.8020   22.7950 O.3    60  G60        -0.3112
   1290  C2'        6.0770   70.1800   21.4080 C.3    60  G60         0.2309
   1291  O2'        6.3590   71.5660   21.4690 O.3    60  G60        -0.2156
   1292  C1'        5.7710   69.7570   19.9720 C.3    60  G60         0.2408
   1293  N1         1.1640   67.6900   20.9630 N.ar   60  G60        -0.1709
   1294  C2         1.6250   68.9530   21.2620 C.ar   60  G60         0.2606
   1295  N2         0.7670   69.7620   21.9000 N.pl3  60  G60        -0.0859
   1296  N3         2.8450   69.3880   20.9570 N.ar   60  G60        -0.1918
   1297  C4         3.5900   68.4480   20.3130 C.ar   60  G60         0.1723
   1298  C5         3.2130   67.1630   19.9720 C.ar   60  G60         0.1748
   1299  C6         1.9090   66.7100   20.3040 C.ar   60  G60         0.3023
   1300  O6         1.4040   65.6010   20.0780 O.2    60  G60        -0.2633
   1301  N7         4.2460   66.5000   19.3240 N.ar   60  G60        -0.2173
   1302  C8         5.2080   67.3760   19.2840 C.ar   60  G60         0.1817
   1303  N9         4.8920   68.5840   19.8630 N.ar   60  G60        -0.2693
   1304  OP1       11.3150   68.9730   18.6850 O.3    60  G60        -0.4373
   1305  OP2       10.9670   66.5940   17.7990 O.co2  60  G60        -0.5172
   1306  P          7.9970   69.1160   24.2430 P.3    61  G61         0.2141
   1307  C5'        6.2450   70.8310   25.2140 C.3    61  G61         0.1812
   1308  O5'        6.5320   69.5090   24.7580 O.3    61  G61        -0.3114
   1309  C4'        4.8650   70.9190   25.8430 C.3    61  G61         0.1773
   1310  O4'        3.8470   70.6480   24.8460 O.3    61  G61        -0.3307
   1311  C3'        4.5770   69.9170   26.9550 C.3    61  G61         0.1860
   1312  O3'        5.0930   70.3790   28.2020 O.3    61  G61        -0.3112
   1313  C2'        3.0510   69.8590   26.9350 C.3    61  G61         0.2309
   1314  O2'        2.4370   70.9410   27.6150 O.3    61  G61        -0.2156
   1315  C1'        2.7680   69.9400   25.4350 C.3    61  G61         0.2408
   1316  N1        -0.1540   65.7860   24.7310 N.ar   61  G61        -0.1709
   1317  C2        -0.3990   66.8980   25.5060 C.ar   61  G61         0.2606
   1318  N2        -1.5600   66.9120   26.1750 N.pl3  61  G61        -0.0859
   1319  N3         0.4400   67.9260   25.6150 N.ar   61  G61        -0.1918
   1320  C4         1.5680   67.7560   24.8740 C.ar   61  G61         0.1723
   1321  C5         1.9010   66.6830   24.0710 C.ar   61  G61         0.1748
   1322  C6         0.9960   65.5940   23.9630 C.ar   61  G61         0.3023
   1323  O6         1.1230   64.5550   23.2990 O.2    61  G61        -0.2633
   1324  N7         3.1400   66.8780   23.4780 N.ar   61  G61        -0.2173
   1325  C8         3.5270   68.0410   23.9230 C.ar   61  G61         0.1817
   1326  N9         2.6270   68.6380   24.7760 N.ar   61  G61        -0.2693
   1327  OP1        9.0170   69.7690   25.0950 O.3    61  G61        -0.4373
   1328  OP2        8.0310   67.6460   24.0690 O.co2  61  G61        -0.5172
   1329  P          5.7500   69.3440   29.2370 P.3    62  C62         0.2141
   1330  C5'        3.5700   69.1660   30.7110 C.3    62  C62         0.1812
   1331  O5'        4.4810   68.5460   29.8030 O.3    62  C62        -0.3114
   1332  C4'        2.3070   68.3400   30.8890 C.3    62  C62         0.1773
   1333  O4'        1.6730   68.1240   29.6000 O.3    62  C62        -0.3307
   1334  C3'        2.5040   66.9330   31.4410 C.3    62  C62         0.1860
   1335  O3'        2.6400   66.9350   32.8620 O.3    62  C62        -0.3112
   1336  C2'        1.2180   66.2540   30.9770 C.3    62  C62         0.2309
   1337  O2'        0.0960   66.5630   31.7840 O.3    62  C62        -0.2156
   1338  C1'        1.0560   66.8440   29.5760 C.3    62  C62         0.2420
   1339  N1         1.6450   65.9820   28.4770 N.ar   62  C62        -0.2535
   1340  C2         0.9320   64.8690   27.9830 C.ar   62  C62         0.3532
   1341  O2        -0.1830   64.5860   28.4420 O.2    62  C62        -0.2443
   1342  N3         1.4890   64.1140   26.9970 N.ar   62  C62        -0.1739
   1343  C4         2.6940   64.4240   26.5060 C.ar   62  C62         0.1759
   1344  N4         3.1920   63.6500   25.5360 N.pl3  62  C62        -0.1070
   1345  C5         3.4370   65.5450   26.9870 C.ar   62  C62         0.0566
   1346  C6         2.8800   66.2810   27.9580 C.ar   62  C62         0.0850
   1347  OP1        6.3660   70.1290   30.3300 O.3    62  C62        -0.4373
   1348  OP2        6.5820   68.3850   28.4740 O.co2  62  C62        -0.5172
   1349  P          3.7120   65.9820   33.5810 P.3    63  U63         0.2141
   1350  C5'        2.0940   63.9170   33.8190 C.3    63  U63         0.1812
   1351  O5'        3.2310   64.5030   33.1900 O.3    63  U63        -0.3114
   1352  C4'        1.5310   62.7530   33.0190 C.3    63  U63         0.1773
   1353  O4'        1.4870   63.0580   31.6010 O.3    63  U63        -0.3307
   1354  C3'        2.3390   61.4650   33.0580 C.3    63  U63         0.1860
   1355  O3'        2.1590   60.7760   34.2910 O.3    63  U63        -0.3112
   1356  C2'        1.7200   60.7180   31.8820 C.3    63  U63         0.2309
   1357  O2'        0.4810   60.1110   32.1980 O.3    63  U63        -0.2156
   1358  C1'        1.5220   61.8430   30.8660 C.3    63  U63         0.2420
   1359  N1         2.5950   61.8800   29.8030 N.ar   63  U63        -0.2534
   1360  C2         2.5340   60.9920   28.7340 C.ar   63  U63         0.3546
   1361  O2         1.6530   60.1630   28.5820 O.2    63  U63        -0.2443
   1362  N3         3.5600   61.1040   27.8250 N.ar   63  U63        -0.1530
   1363  C4         4.6220   61.9930   27.8700 C.ar   63  U63         0.2846
   1364  O4         5.4640   61.9740   26.9760 O.2    63  U63        -0.2650
   1365  C5         4.6240   62.8830   29.0060 C.ar   63  U63         0.0814
   1366  C6         3.6340   62.7930   29.9070 C.ar   63  U63         0.0870
   1367  OP1        3.5640   66.1870   35.0410 O.3    63  U63        -0.4373
   1368  OP2        5.0330   66.1990   32.9480 O.co2  63  U63        -0.5172
   1369  P          3.3740   59.9700   34.9590 P.3    64  G64         0.2141
   1370  C5'        2.5710   57.7080   33.8480 C.3    64  G64         0.1812
   1371  O5'        3.5710   58.7180   33.9820 O.3    64  G64        -0.3114
   1372  C4'        2.8030   56.8560   32.6110 C.3    64  G64         0.1773
   1373  O4'        2.7090   57.6640   31.4050 O.3    64  G64        -0.3307
   1374  C3'        4.1780   56.2090   32.4940 C.3    64  G64         0.1860
   1375  O3'        4.3080   55.0460   33.3060 O.3    64  G64        -0.3112
   1376  C2'        4.2360   55.9180   30.9950 C.3    64  G64         0.2309
   1377  O2'        3.4500   54.8100   30.5960 O.3    64  G64        -0.2156
   1378  C1'        3.6550   57.2170   30.4430 C.3    64  G64         0.2408
   1379  N1         7.1850   59.1700   27.2760 N.ar   64  G64        -0.1709
   1380  C2         6.3250   58.1140   27.0650 C.ar   64  G64         0.2606
   1381  N2         6.4120   57.5050   25.8730 N.pl3  64  G64        -0.0859
   1382  N3         5.4400   57.6880   27.9640 N.ar   64  G64        -0.1918
   1383  C4         5.4790   58.4140   29.1160 C.ar   64  G64         0.1723
   1384  C5         6.3020   59.4810   29.4150 C.ar   64  G64         0.1748
   1385  C6         7.2410   59.9230   28.4510 C.ar   64  G64         0.3023
   1386  O6         8.0460   60.8580   28.5530 O.2    64  G64        -0.2633
   1387  N7         6.0480   59.9640   30.6890 N.ar   64  G64        -0.2173
   1388  C8         5.0960   59.1960   31.1330 C.ar   64  G64         0.1817
   1389  N9         4.6920   58.2340   30.2360 N.ar   64  G64        -0.2693
   1390  OP1        2.9120   59.5010   36.2850 O.3    64  G64        -0.4373
   1391  OP2        4.5990   60.7970   34.8640 O.co2  64  G64        -0.5172
   1392  P          5.7570   54.6100   33.8360 P.3    65  A65         0.2141
   1393  C5'        6.5180   52.4320   32.5280 C.3    65  A65         0.1812
   1394  O5'        6.3670   53.8490   32.5620 O.3    65  A65        -0.3114
   1395  C4'        5.2050   51.7300   32.2250 C.3    65  A65         0.1773
   1396  O4'        4.5640   52.3130   31.0620 O.3    65  A65        -0.3307
   1397  C3'        5.3530   50.2580   31.8760 C.3    65  A65         0.1860
   1398  O3'        5.4100   49.4840   33.0600 O.3    65  A65        -0.3112
   1399  C2'        4.0840   50.0000   31.0710 C.3    65  A65         0.2309
   1400  O2'        2.9240   49.8560   31.8710 O.3    65  A65        -0.2156
   1401  C1'        4.0140   51.2860   30.2510 C.3    65  A65         0.2408
   1402  N1         4.4970   49.0700   25.5810 N.ar   65  A65        -0.2040
   1403  C2         3.6380   48.8380   26.5860 C.ar   65  A65         0.2016
   1404  N3         3.5670   49.4450   27.7750 N.ar   65  A65        -0.2048
   1405  C4         4.5120   50.4010   27.9010 C.ar   65  A65         0.1692
   1406  C5         5.4570   50.7510   26.9490 C.ar   65  A65         0.1518
   1407  C6         5.4330   50.0370   25.7300 C.ar   65  A65         0.1919
   1408  N6         6.2870   50.2710   24.7290 N.pl3  65  A65        -0.1054
   1409  N7         6.2640   51.7750   27.4110 N.ar   65  A65        -0.2193
   1410  C8         5.8000   52.0220   28.6110 C.ar   65  A65         0.1816
   1411  N9         4.7420   51.2350   28.9780 N.ar   65  A65        -0.2693
   1412  OP1        5.5540   53.6630   34.9560 O.3    65  A65        -0.4373
   1413  OP2        6.5810   55.8220   34.0530 O.co2  65  A65        -0.5172
   1414  P          6.5660   48.3950   33.2560 P.3    66  A66         0.2141
   1415  C5'        4.8570   46.5610   32.4610 C.3    66  A66         0.1812
   1416  O5'        6.1120   47.2150   32.2800 O.3    66  A66        -0.3114
   1417  C4'        4.4490   45.8190   31.2040 C.3    66  A66         0.1773
   1418  O4'        4.2820   46.7470   30.1030 O.3    66  A66        -0.3307
   1419  C3'        5.4700   44.8160   30.6880 C.3    66  A66         0.1860
   1420  O3'        5.3740   43.5890   31.4070 O.3    66  A66        -0.3112
   1421  C2'        5.0550   44.7020   29.2240 C.3    66  A66         0.2309
   1422  O2'        3.8950   43.9080   29.0460 O.3    66  A66        -0.2156
   1423  C1'        4.7490   46.1590   28.8980 C.3    66  A66         0.2408
   1424  N1         7.8710   47.2130   24.9000 N.ar   66  A66        -0.2040
   1425  C2         6.8320   46.3720   25.0140 C.ar   66  A66         0.2016
   1426  N3         6.0650   46.1440   26.0830 N.ar   66  A66        -0.2048
   1427  C4         6.4480   46.8950   27.1370 C.ar   66  A66         0.1692
   1428  C5         7.4960   47.8010   27.1640 C.ar   66  A66         0.1518
   1429  C6         8.2360   47.9550   25.9720 C.ar   66  A66         0.1919
   1430  N6         9.2700   48.7960   25.8550 N.pl3  66  A66        -0.1054
   1431  N7         7.6020   48.3960   28.4100 N.ar   66  A66        -0.2193
   1432  C8         6.6340   47.8460   29.1000 C.ar   66  A66         0.1816
   1433  N9         5.8950   46.9290   28.4010 N.ar   66  A66        -0.2693
   1434  OP1        6.4820   47.9270   34.6570 O.3    66  A66        -0.4373
   1435  OP2        7.8430   48.9490   32.7480 O.co2  66  A66        -0.5172
   1436  P          6.6080   42.5660   31.4320 P.3    67  A67         0.2141
   1437  C5'        5.4920   41.0350   29.6010 C.3    67  A67         0.1812
   1438  O5'        6.5490   41.9040   29.9810 O.3    67  A67        -0.3114
   1439  C4'        5.6320   40.6730   28.1370 C.3    67  A67         0.1773
   1440  O4'        5.6060   41.8650   27.3100 O.3    67  A67        -0.3307
   1441  C3'        6.9530   40.0250   27.7540 C.3    67  A67         0.1860
   1442  O3'        6.9890   38.6510   28.1120 O.3    67  A67        -0.3112
   1443  C2'        6.9410   40.2480   26.2500 C.3    67  A67         0.2309
   1444  O2'        6.0170   39.4040   25.5910 O.3    67  A67        -0.2156
   1445  C1'        6.4710   41.6960   26.2000 C.3    67  A67         0.2408
   1446  N1        10.0770   44.3810   23.6100 N.ar   67  A67        -0.2040
   1447  C2         9.1850   43.4660   23.1980 C.ar   67  A67         0.2016
   1448  N3         8.2770   42.8040   23.9220 N.ar   67  A67        -0.2048
   1449  C4         8.3270   43.1570   25.2220 C.ar   67  A67         0.1692
   1450  C5         9.1920   44.0810   25.7890 C.ar   67  A67         0.1518
   1451  C6        10.1070   44.7180   24.9220 C.ar   67  A67         0.1919
   1452  N6        10.9930   45.6290   25.3370 N.pl3  67  A67        -0.1054
   1453  N7         8.9680   44.1940   27.1480 N.ar   67  A67        -0.2193
   1454  C8         7.9890   43.3540   27.3750 C.ar   67  A67         0.1816
   1455  N9         7.5500   42.6880   26.2630 N.ar   67  A67        -0.2693
   1456  OP1        6.3270   41.5390   32.4550 O.3    67  A67        -0.4373
   1457  OP2        7.8670   43.3420   31.4910 O.co2  67  A67        -0.5172
   1458  P          8.3790   37.9990   28.5630 P.3    68  G68         0.2141
   1459  C5'        8.7530   37.0220   26.1600 C.3    68  G68         0.1812
   1460  O5'        9.1940   37.8960   27.1940 O.3    68  G68        -0.3114
   1461  C4'        9.3950   37.3940   24.8380 C.3    68  G68         0.1773
   1462  O4'        9.1680   38.7970   24.5360 O.3    68  G68        -0.3307
   1463  C3'       10.9090   37.2530   24.8100 C.3    68  G68         0.1860
   1464  O3'       11.3130   35.8990   24.6270 O.3    68  G68        -0.3112
   1465  C2'       11.2630   38.1610   23.6340 C.3    68  G68         0.2309
   1466  O2'       11.0590   37.5770   22.3650 O.3    68  G68        -0.2156
   1467  C1'       10.2880   39.3180   23.8490 C.3    68  G68         0.2408
   1468  N1        13.4610   43.2660   23.6810 N.ar   68  G68        -0.1709
   1469  C2        13.0140   42.4550   22.6620 C.ar   68  G68         0.2606
   1470  N2        13.4680   42.7250   21.4300 N.pl3  68  G68        -0.0859
   1471  N3        12.1720   41.4450   22.8410 N.ar   68  G68        -0.1918
   1472  C4        11.8040   41.3080   24.1410 C.ar   68  G68         0.1723
   1473  C5        12.1940   42.0570   25.2290 C.ar   68  G68         0.1748
   1474  C6        13.0950   43.1330   25.0240 C.ar   68  G68         0.3023
   1475  O6        13.5560   43.9130   25.8630 O.2    68  G68        -0.2633
   1476  N7        11.5860   41.5920   26.3900 N.ar   68  G68        -0.2173
   1477  C8        10.8610   40.5820   25.9890 C.ar   68  G68         0.1817
   1478  N9        10.9370   40.3620   24.6340 N.ar   68  G68        -0.2693
   1479  OP1        8.0910   36.6310   29.0600 O.2    68  G68        -0.5172
   1480  OP2        9.0930   38.9610   29.4330 O.co2  68  G68        -0.4373
   1481  P         12.3870   35.2390   25.6210 P.3    69  G69         0.2141
   1482  C5'       14.4120   35.8440   24.0350 C.3    69  G69         0.1812
   1483  O5'       13.7500   36.0040   25.2850 O.3    69  G69        -0.3114
   1484  C4'       15.4910   36.8970   23.8570 C.3    69  G69         0.1773
   1485  O4'       14.9020   38.2180   23.7010 O.3    69  G69        -0.3307
   1486  C3'       16.4660   37.0790   25.0170 C.3    69  G69         0.1860
   1487  O3'       17.4530   36.0560   25.0520 O.3    69  G69        -0.3112
   1488  C2'       17.0430   38.4410   24.6430 C.3    69  G69         0.2309
   1489  O2'       17.9350   38.3920   23.5420 O.3    69  G69        -0.2156
   1490  C1'       15.7430   39.1810   24.3190 C.3    69  G69         0.2408
   1491  N1        16.1840   42.3140   28.3130 N.ar   69  G69        -0.1709
   1492  C2        17.0020   42.1880   27.2120 C.ar   69  G69         0.2606
   1493  N2        18.0760   42.9890   27.1670 N.pl3  69  G69        -0.0859
   1494  N3        16.7760   41.3310   26.2190 N.ar   69  G69        -0.1918
   1495  C4        15.6480   40.5940   26.4180 C.ar   69  G69         0.1723
   1496  C5        14.7710   40.6460   27.4810 C.ar   69  G69         0.1748
   1497  C6        15.0260   41.5650   28.5290 C.ar   69  G69         0.3023
   1498  O6        14.3500   41.7520   29.5490 O.2    69  G69        -0.2633
   1499  N7        13.7390   39.7280   27.3220 N.ar   69  G69        -0.2173
   1500  C8        14.0010   39.1500   26.1850 C.ar   69  G69         0.1817
   1501  N9        15.1400   39.6300   25.5750 N.ar   69  G69        -0.2693
   1502  OP1       12.5280   33.8150   25.2480 O.2    69  G69        -0.5172
   1503  OP2       12.0480   35.6060   27.0140 O.co2  69  G69        -0.4373
   1504  P         17.9980   35.4790   26.4430 P.3    70  C70         0.2141
   1505  C5'       20.0890   37.1070   26.4320 C.3    70  C70         0.1812
   1506  O5'       18.8720   36.6800   27.0370 O.3    70  C70        -0.3114
   1507  C4'       20.7030   38.2400   27.2360 C.3    70  C70         0.1773
   1508  O4'       19.7330   39.3060   27.4350 O.3    70  C70        -0.3307
   1509  C3'       21.1280   37.8670   28.6490 C.3    70  C70         0.1860
   1510  O3'       22.4030   37.2410   28.6510 O.3    70  C70        -0.3112
   1511  C2'       21.1580   39.2360   29.3190 C.3    70  C70         0.2309
   1512  O2'       22.3110   39.9980   29.0020 O.3    70  C70        -0.2156
   1513  C1'       19.9020   39.8750   28.7220 C.3    70  C70         0.2420
   1514  N1        18.6560   39.6950   29.5660 N.ar   70  C70        -0.2535
   1515  C2        18.5540   40.3440   30.8130 C.ar   70  C70         0.3532
   1516  O2        19.4780   41.0590   31.2200 O.2    70  C70        -0.2443
   1517  N3        17.4320   40.1720   31.5590 N.ar   70  C70        -0.1739
   1518  C4        16.4360   39.3980   31.1190 C.ar   70  C70         0.1759
   1519  N4        15.3550   39.2700   31.8970 N.pl3  70  C70        -0.1070
   1520  C5        16.5150   38.7230   29.8580 C.ar   70  C70         0.0566
   1521  C6        17.6270   38.8990   29.1270 C.ar   70  C70         0.0850
   1522  OP1       18.8820   34.3430   26.0960 O.2    70  C70        -0.5172
   1523  OP2       16.8700   35.2720   27.3750 O.co2  70  C70        -0.4373
   1524  P         22.7450   36.0410   29.6560 P.3    71  G71         0.2141
   1525  C5'       23.6320   37.7480   31.5040 C.3    71  G71         0.1812
   1526  O5'       22.7290   36.7180   31.1050 O.3    71  G71        -0.3114
   1527  C4'       23.1470   38.3520   32.8150 C.3    71  G71         0.1773
   1528  O4'       21.8180   38.8940   32.6100 O.3    71  G71        -0.3307
   1529  C3'       22.9920   37.3700   33.9760 C.3    71  G71         0.1860
   1530  O3'       24.1680   37.2950   34.7790 O.3    71  G71        -0.3112
   1531  C2'       21.8690   38.0050   34.7900 C.3    71  G71         0.2309
   1532  O2'       22.3430   39.0720   35.5920 O.3    71  G71        -0.2156
   1533  C1'       20.9760   38.6070   33.7130 C.3    71  G71         0.2408
   1534  N1        16.0970   37.2080   34.5590 N.ar   71  G71        -0.1709
   1535  C2        16.9070   38.0150   35.3240 C.ar   71  G71         0.2606
   1536  N2        16.3520   38.5110   36.4420 N.pl3  71  G71        -0.0859
   1537  N3        18.1690   38.3110   35.0090 N.ar   71  G71        -0.1918
   1538  C4        18.5750   37.7250   33.8480 C.ar   71  G71         0.1723
   1539  C5        17.8360   36.9050   33.0190 C.ar   71  G71         0.1748
   1540  C6        16.4940   36.6040   33.3680 C.ar   71  G71         0.3023
   1541  O6        15.6950   35.8930   32.7480 O.2    71  G71        -0.2633
   1542  N7        18.5860   36.4950   31.9260 N.ar   71  G71        -0.2173
   1543  C8        19.7420   37.0670   32.1050 C.ar   71  G71         0.1817
   1544  N9        19.8190   37.8250   33.2540 N.ar   71  G71        -0.2693
   1545  OP1       24.1320   35.6250   29.3340 O.2    71  G71        -0.5172
   1546  OP2       21.6460   35.0500   29.6190 O.co2  71  G71        -0.4373
   1547  P         25.5420   36.5970   34.3350 P.3    72  A72         0.2141
   1548  C5'       27.3460   36.9280   36.2330 C.3    72  A72         0.1812
   1549  O5'       26.1880   36.2330   35.7600 O.3    72  A72        -0.3114
   1550  C4'       27.4550   36.8560   37.7460 C.3    72  A72         0.1773
   1551  O4'       26.3320   37.5640   38.3270 O.3    72  A72        -0.3307
   1552  C3'       27.4250   35.4490   38.3280 C.3    72  A72         0.1860
   1553  O3'       28.7540   34.9660   38.5520 O.3    72  A72        -0.3112
   1554  C2'       26.6750   35.6160   39.6510 C.3    72  A72         0.2309
   1555  O2'       27.5450   35.8350   40.7480 O.3    72  A72        -0.2156
   1556  C1'       25.7970   36.8470   39.4240 C.3    72  A72         0.2408
   1557  N1        20.8790   37.7830   40.7340 N.ar   72  A72        -0.2040
   1558  C2        22.0380   38.2250   41.2440 C.ar   72  A72         0.2016
   1559  N3        23.2840   37.9360   40.8500 N.ar   72  A72        -0.2048
   1560  C4        23.2930   37.0880   39.8040 C.ar   72  A72         0.1692
   1561  C5        22.1850   36.5500   39.1740 C.ar   72  A72         0.1518
   1562  C6        20.9220   36.9300   39.6820 C.ar   72  A72         0.1919
   1563  N6        19.7790   36.4840   39.1640 N.pl3  72  A72        -0.1054
   1564  N7        22.5610   35.7190   38.1340 N.ar   72  A72        -0.2193
   1565  C8        23.8740   35.7670   38.1560 C.ar   72  A72         0.1816
   1566  N9        24.3860   36.5700   39.1400 N.ar   72  A72        -0.2693
   1567  OP1       26.3640   37.6400   33.6700 O.3    72  A72        -0.4373
   1568  OP2       25.2650   35.3320   33.6300 O.co2  72  A72        -0.5172
   1569  P         29.5330   33.9940   37.5400 P.3    73  G73         0.2141
   1570  C5'       29.0750   31.4980   38.3750 C.3    73  G73         0.1812
   1571  O5'       29.8550   32.6970   38.4320 O.3    73  G73        -0.3114
   1572  C4'       28.0810   31.4510   39.5230 C.3    73  G73         0.1773
   1573  O4'       27.0670   32.4640   39.3050 O.3    73  G73        -0.3307
   1574  C3'       27.2860   30.1590   39.6540 C.3    73  G73         0.1860
   1575  O3'       27.9810   29.2080   40.4510 O.3    73  G73        -0.3112
   1576  C2'       25.9880   30.6390   40.2980 C.3    73  G73         0.2309
   1577  O2'       26.1250   30.9500   41.6740 O.3    73  G73        -0.2156
   1578  C1'       25.7700   31.9280   39.5150 C.3    73  G73         0.2408
   1579  N1        21.2710   31.0980   37.1810 N.ar   73  G73        -0.1709
   1580  C2        21.5620   31.1270   38.5280 C.ar   73  G73         0.2606
   1581  N2        20.5400   30.9130   39.3680 N.pl3  73  G73        -0.0859
   1582  N3        22.7780   31.3540   39.0170 N.ar   73  G73        -0.1918
   1583  C4        23.7090   31.5520   38.0460 C.ar   73  G73         0.1723
   1584  C5        23.5120   31.5430   36.6780 C.ar   73  G73         0.1748
   1585  C6        22.2080   31.3040   36.1670 C.ar   73  G73         0.3023
   1586  O6        21.8460   31.2600   34.9810 O.2    73  G73        -0.2633
   1587  N7        24.7060   31.7910   36.0100 N.ar   73  G73        -0.2173
   1588  C8        25.5810   31.9400   36.9680 C.ar   73  G73         0.1817
   1589  N9        25.0550   31.8040   38.2340 N.ar   73  G73        -0.2693
   1590  OP1       30.8120   34.6820   37.2570 O.3    73  G73        -0.4373
   1591  OP2       28.6390   33.5970   36.4300 O.co2  73  G73        -0.5172
   1592  P         28.0880   27.6940   39.9410 P.3    74  G74         0.2141
   1593  C5'       26.2170   26.9590   41.6270 C.3    74  G74         0.1812
   1594  O5'       26.6450   27.0900   40.2770 O.3    74  G74        -0.3114
   1595  C4'       24.7060   26.8320   41.7210 C.3    74  G74         0.1773
   1596  O4'       24.0550   27.9620   41.0870 O.3    74  G74        -0.3307
   1597  C3'       24.0790   25.6250   41.0350 C.3    74  G74         0.1860
   1598  O3'       24.2570   24.4590   41.8230 O.3    74  G74        -0.3112
   1599  C2'       22.6270   26.0850   40.9850 C.3    74  G74         0.2309
   1600  O2'       21.9800   26.0230   42.2460 O.3    74  G74        -0.2156
   1601  C1'       22.8180   27.5340   40.5430 C.3    74  G74         0.2408
   1602  N1        20.1090   27.4760   36.2210 N.ar   74  G74        -0.1709
   1603  C2        19.6860   27.2800   37.5170 C.ar   74  G74         0.2606
   1604  N2        18.3790   27.0370   37.6910 N.pl3  74  G74        -0.0859
   1605  N3        20.4940   27.3220   38.5720 N.ar   74  G74        -0.1918
   1606  C4        21.7830   27.5770   38.2230 C.ar   74  G74         0.1723
   1607  C5        22.3010   27.7860   36.9610 C.ar   74  G74         0.1748
   1608  C6        21.4280   27.7390   35.8440 C.ar   74  G74         0.3023
   1609  O6        21.7060   27.8980   34.6470 O.2    74  G74        -0.2633
   1610  N7        23.6690   28.0140   37.0210 N.ar   74  G74        -0.2173
   1611  C8        23.9480   27.9440   38.2950 C.ar   74  G74         0.1817
   1612  N9        22.8530   27.6800   39.0850 N.ar   74  G74        -0.2693
   1613  OP1       29.1170   27.0300   40.7720 O.3    74  G74        -0.4373
   1614  OP2       28.2170   27.6940   38.4670 O.co2  74  G74        -0.5172
   1615  P         24.2510   22.9930   41.1750 P.3    75  G75         0.2141
   1616  C5'       21.7670   22.5410   41.9710 C.3    75  G75         0.1812
   1617  O5'       22.6960   22.7190   40.9030 O.3    75  G75        -0.3114
   1618  C4'       20.3490   22.4620   41.4330 C.3    75  G75         0.1773
   1619  O4'       20.0210   23.6870   40.7220 O.3    75  G75        -0.3307
   1620  C3'       20.1070   21.3590   40.4060 C.3    75  G75         0.1860
   1621  O3'       19.8670   20.1040   41.0410 O.3    75  G75        -0.3112
   1622  C2'       18.8840   21.9020   39.6690 C.3    75  G75         0.2309
   1623  O2'       17.6700   21.7450   40.3810 O.3    75  G75        -0.2156
   1624  C1'       19.2490   23.3810   39.5670 C.3    75  G75         0.2408
   1625  N1        19.1170   23.9720   34.4760 N.ar   75  G75        -0.1709
   1626  C2        18.0990   23.6230   35.3320 C.ar   75  G75         0.2606
   1627  N2        16.9000   23.4090   34.7680 N.pl3  75  G75        -0.0859
   1628  N3        18.2500   23.5020   36.6520 N.ar   75  G75        -0.1918
   1629  C4        19.5260   23.7530   37.0560 C.ar   75  G75         0.1723
   1630  C5        20.6050   24.1050   36.2750 C.ar   75  G75         0.1748
   1631  C6        20.4290   24.2380   34.8730 C.ar   75  G75         0.3023
   1632  O6        21.2740   24.5430   34.0240 O.2    75  G75        -0.2633
   1633  N7        21.7420   24.2780   37.0510 N.ar   75  G75        -0.2173
   1634  C8        21.3380   24.0340   38.2660 C.ar   75  G75         0.1817
   1635  N9        20.0040   23.7110   38.3530 N.ar   75  G75        -0.2693
   1636  OP1       24.7450   22.0730   42.2240 O.3    75  G75        -0.4373
   1637  OP2       24.9240   23.0300   39.8590 O.co2  75  G75        -0.5172
   1638  P         20.4170   18.7400   40.4010 P.3    76  C76         0.2141
   1639  C5'       18.0610   18.3400   39.2950 C.3    76  C76         0.1812
   1640  O5'       19.4660   18.5370   39.1340 O.3    76  C76        -0.3114
   1641  C4'       17.3680   18.4320   37.9500 C.3    76  C76         0.1773
   1642  O4'       17.5540   19.7530   37.3790 O.3    76  C76        -0.3307
   1643  C3'       17.9330   17.5140   36.8770 C.3    76  C76         0.1860
   1644  O3'       17.5120   16.1610   37.0480 O.3    76  C76        -0.3112
   1645  C2'       17.3770   18.1850   35.6250 C.3    76  C76         0.2309
   1646  O2'       15.9920   17.9590   35.4330 O.3    76  C76        -0.2156
   1647  C1'       17.6420   19.6510   35.9650 C.3    76  C76         0.2420
   1648  N1        18.9790   20.1460   35.4570 N.ar   76  C76        -0.2535
   1649  C2        19.1210   20.5020   34.0990 C.ar   76  C76         0.3532
   1650  O2        18.1540   20.4090   33.3320 O.2    76  C76        -0.2443
   1651  N3        20.3310   20.9390   33.6560 N.ar   76  C76        -0.1739
   1652  C4        21.3700   21.0250   34.4920 C.ar   76  C76         0.1759
   1653  N4        22.5360   21.4650   34.0040 N.pl3  76  C76        -0.1070
   1654  C5        21.2530   20.6710   35.8710 C.ar   76  C76         0.0566
   1655  C6        20.0580   20.2400   36.3000 C.ar   76  C76         0.0850
   1656  OP1       20.1590   17.6630   41.3820 O.3    76  C76        -0.4373
   1657  OP2       21.7870   18.9450   39.8820 O.co2  76  C76        -0.5172
   1658  P         18.4790   14.9740   36.5750 P.3    77  G77         0.2141
   1659  C5'       17.1240   14.8240   34.3250 C.3    77  G77         0.1812
   1660  O5'       18.3750   15.0120   34.9770 O.3    77  G77        -0.3114
   1661  C4'       17.2250   15.1780   32.8540 C.3    77  G77         0.1773
   1662  O4'       17.5900   16.5720   32.6720 O.3    77  G77        -0.3307
   1663  C3'       18.2960   14.4200   32.0880 C.3    77  G77         0.1860
   1664  O3'       17.8260   13.1130   31.7740 O.3    77  G77        -0.3112
   1665  C2'       18.4400   15.3120   30.8610 C.3    77  G77         0.2309
   1666  O2'       17.3950   15.1280   29.9220 O.3    77  G77        -0.2156
   1667  C1'       18.3600   16.7030   31.4870 C.3    77  G77         0.2408
   1668  N1        22.5750   18.9330   29.6380 N.ar   77  G77        -0.1709
   1669  C2        21.4440   18.5150   28.9710 C.ar   77  G77         0.2606
   1670  N2        21.4160   18.7070   27.6450 N.pl3  77  G77        -0.0859
   1671  N3        20.4020   17.9420   29.5690 N.ar   77  G77        -0.1918
   1672  C4        20.5780   17.8110   30.9110 C.ar   77  G77         0.1723
   1673  C5        21.6690   18.1990   31.6650 C.ar   77  G77         0.1748
   1674  C6        22.7770   18.8090   31.0140 C.ar   77  G77         0.3023
   1675  O6        23.8350   19.2170   31.5140 O.2    77  G77        -0.2633
   1676  N7        21.4650   17.8940   33.0020 N.ar   77  G77        -0.2173
   1677  C8        20.2810   17.3430   33.0370 C.ar   77  G77         0.1817
   1678  N9        19.6770   17.2650   31.8020 N.ar   77  G77        -0.2693
   1679  OP1       17.8950   13.7060   37.0640 O.3    77  G77        -0.4373
   1680  OP2       19.8770   15.3320   36.9120 O.co2  77  G77        -0.5172
   1681  P         18.8320   11.9060   31.4570 P.3    78  C78         0.2141
   1682  C5'       20.8260   12.1670   29.7320 C.3    78  C78         0.1812
   1683  O5'       19.4570   12.3670   30.0560 O.3    78  C78        -0.3114
   1684  C4'       21.2460   13.2020   28.7070 C.3    78  C78         0.1773
   1685  O4'       21.4670   14.4830   29.3470 O.3    78  C78        -0.3307
   1686  C3'       22.5570   12.9250   27.9960 C.3    78  C78         0.1860
   1687  O3'       22.3490   11.9810   26.9510 O.3    78  C78        -0.3112
   1688  C2'       22.8950   14.3150   27.4640 C.3    78  C78         0.2309
   1689  O2'       22.1870   14.6650   26.2900 O.3    78  C78        -0.2156
   1690  C1'       22.4400   15.2120   28.6160 C.3    78  C78         0.2420
   1691  N1        23.5640   15.6650   29.5160 N.ar   78  C78        -0.2535
   1692  C2        24.5800   16.5030   29.0140 C.ar   78  C78         0.3532
   1693  O2        24.5530   16.8690   27.8310 O.2    78  C78        -0.2443
   1694  N3        25.5800   16.8970   29.8460 N.ar   78  C78        -0.1739
   1695  C4        25.5980   16.4930   31.1240 C.ar   78  C78         0.1759
   1696  N4        26.6060   16.9090   31.8990 N.pl3  78  C78        -0.1070
   1697  C5        24.5760   15.6470   31.6590 C.ar   78  C78         0.0566
   1698  C6        23.5930   15.2630   30.8310 C.ar   78  C78         0.0850
   1699  OP1       18.0100   10.7020   31.2140 O.2    78  C78        -0.5172
   1700  OP2       19.8910   11.8670   32.4910 O.co2  78  C78        -0.4373
   1701  P         23.5470   11.0720   26.3930 P.3    79  C79         0.2141
   1702  C5'       24.1800   12.6670   24.3670 C.3    79  C79         0.1812
   1703  O5'       24.4860   12.1430   25.6650 O.3    79  C79        -0.3114
   1704  C4'       25.4570   13.0930   23.6570 C.3    79  C79         0.1773
   1705  O4'       26.1170   14.1660   24.3870 O.3    79  C79        -0.3307
   1706  C3'       26.4990   11.9880   23.4810 C.3    79  C79         0.1860
   1707  O3'       27.1480   12.0970   22.2170 O.3    79  C79        -0.3112
   1708  C2'       27.4730   12.2630   24.6190 C.3    79  C79         0.2309
   1709  O2'       28.7650   11.7410   24.3830 O.3    79  C79        -0.2156
   1710  C1'       27.4550   13.7930   24.6560 C.3    79  C79         0.2420
   1711  N1        27.8930   14.3100   25.9830 N.ar   79  C79        -0.2535
   1712  C2        29.0530   15.0990   26.0750 C.ar   79  C79         0.3532
   1713  O2        29.6890   15.3880   25.0500 O.2    79  C79        -0.2443
   1714  N3        29.4410   15.5370   27.3030 N.ar   79  C79        -0.1739
   1715  C4        28.7380   15.2090   28.3950 C.ar   79  C79         0.1759
   1716  N4        29.1670   15.6640   29.5760 N.pl3  79  C79        -0.1070
   1717  C5        27.5600   14.4020   28.3240 C.ar   79  C79         0.0566
   1718  C6        27.1840   13.9780   27.1120 C.ar   79  C79         0.0850
   1719  OP1       22.9610   10.1500   25.3910 O.2    79  C79        -0.5172
   1720  OP2       24.3030   10.5310   27.5410 O.co2  79  C79        -0.4373
   1721  P         26.5510   11.4050   20.9060 P.3    80  G80         0.2141
   1722  C5'       24.2070   11.8420   19.7590 C.3    80  G80         0.1812
   1723  O5'       25.2370   12.2760   20.6360 O.3    80  G80        -0.3114
   1724  C4'       23.4410   13.0630   19.2890 C.3    80  G80         0.1773
   1725  O4'       24.2940   13.8510   18.4160 O.3    80  G80        -0.3307
   1726  C3'       22.1460   12.7870   18.5200 C.3    80  G80         0.1860
   1727  O3'       21.0450   13.5150   19.0940 O.3    80  G80        -0.3112
   1728  C2'       22.4730   13.2840   17.1110 C.3    80  G80         0.2309
   1729  O2'       21.3630   13.8140   16.4110 O.3    80  G80        -0.2156
   1730  C1'       23.4680   14.4000   17.4190 C.3    80  G80         0.2408
   1731  N1        26.6890   17.9160   15.5820 N.ar   80  G80        -0.1709
   1732  C2        26.0960   17.8460   16.8260 C.ar   80  G80         0.2606
   1733  N2        26.3950   18.8350   17.6800 N.pl3  80  G80        -0.0859
   1734  N3        25.2650   16.8750   17.2000 N.ar   80  G80        -0.1918
   1735  C4        25.0740   15.9600   16.2130 C.ar   80  G80         0.1723
   1736  C5        25.6220   15.9440   14.9490 C.ar   80  G80         0.1748
   1737  C6        26.5080   16.9840   14.5620 C.ar   80  G80         0.3023
   1738  O6        27.0900   17.1300   13.4740 O.2    80  G80        -0.2633
   1739  N7        25.1860   14.8380   14.2340 N.ar   80  G80        -0.2173
   1740  C8        24.3950   14.2170   15.0620 C.ar   80  G80         0.1817
   1741  N9        24.2800   14.8360   16.2830 N.ar   80  G80        -0.2693
   1742  OP1       26.1620   10.0120   21.2260 O.3    80  G80        -0.4373
   1743  OP2       27.5190   11.6860   19.8250 O.co2  80  G80        -0.5172
   1744  P         20.3170   13.0760   20.4530 P.3    81  A81         0.2141
   1745  C5'       21.0910   15.2020   21.8060 C.3    81  A81         0.1812
   1746  O5'       21.2020   13.7930   21.5820 O.3    81  A81        -0.3114
   1747  C4'       22.0910   15.6390   22.8580 C.3    81  A81         0.1773
   1748  O4'       23.4210   15.6630   22.2790 O.3    81  A81        -0.3307
   1749  C3'       21.9000   17.0430   23.4150 C.3    81  A81         0.1860
   1750  O3'       20.9470   17.0510   24.4770 O.3    81  A81        -0.3112
   1751  C2'       23.2970   17.3370   23.9540 C.3    81  A81         0.2309
   1752  O2'       23.4790   16.8760   25.2810 O.3    81  A81        -0.2156
   1753  C1'       24.2210   16.5860   22.9900 C.3    81  A81         0.2408
   1754  N1        28.2940   19.6430   22.2120 N.ar   81  A81        -0.2040
   1755  C2        27.9990   18.7830   23.1970 C.ar   81  A81         0.2016
   1756  N3        26.9170   18.0180   23.3390 N.ar   81  A81        -0.2048
   1757  C4        26.0700   18.1790   22.3040 C.ar   81  A81         0.1692
   1758  C5        26.2390   19.0220   21.2180 C.ar   81  A81         0.1518
   1759  C6        27.4230   19.7900   21.1890 C.ar   81  A81         0.1919
   1760  N6        27.7170   20.6480   20.2110 N.pl3  81  A81        -0.1054
   1761  N7        25.1620   18.9320   20.3560 N.ar   81  A81        -0.2193
   1762  C8        24.3780   18.0490   20.9250 C.ar   81  A81         0.1816
   1763  N9        24.8660   17.5460   22.0960 N.ar   81  A81        -0.2693
   1764  OP1       20.4560   11.6120   20.6480 O.3    81  A81        -0.4373
   1765  OP2       18.9740   13.6920   20.4350 O.co2  81  A81        -0.5172
   1766  P         19.5250   17.7870   24.3830 P.3    82  A82         0.2141
   1767  C5'       19.3920   19.6520   22.5050 C.3    82  A82         0.1812
   1768  O5'       19.8690   19.2360   23.7850 O.3    82  A82        -0.3114
   1769  C4'       20.4360   20.5040   21.8110 C.3    82  A82         0.1773
   1770  O4'       21.5370   19.6840   21.3280 O.3    82  A82        -0.3307
   1771  C3'       19.9580   21.2290   20.5630 C.3    82  A82         0.1860
   1772  O3'       19.1700   22.3710   20.8880 O.3    82  A82        -0.3112
   1773  C2'       21.3040   21.5750   19.9380 C.3    82  A82         0.2309
   1774  O2'       21.9740   22.6060   20.6420 O.3    82  A82        -0.2156
   1775  C1'       22.0210   20.2390   20.1150 C.3    82  A82         0.2408
   1776  N1        23.2070   18.9030   15.2780 N.ar   82  A82        -0.2040
   1777  C2        23.6160   19.9260   16.0440 C.ar   82  A82         0.2016
   1778  N3        23.2650   20.2120   17.3010 N.ar   82  A82        -0.2048
   1779  C4        22.3880   19.3090   17.7770 C.ar   82  A82         0.1692
   1780  C5        21.8810   18.2070   17.1050 C.ar   82  A82         0.1518
   1781  C6        22.3250   18.0110   15.7790 C.ar   82  A82         0.1919
   1782  N6        21.9260   16.9900   15.0090 N.pl3  82  A82        -0.1054
   1783  N7        21.0040   17.5040   17.9100 N.ar   82  A82        -0.2193
   1784  C8        20.9970   18.1800   19.0340 C.ar   82  A82         0.1816
   1785  N9        21.8080   19.2830   19.0250 N.ar   82  A82        -0.2693
   1786  OP1       19.0600   17.9800   25.7790 O.3    82  A82        -0.4373
   1787  OP2       18.6790   17.0290   23.4330 O.co2  82  A82        -0.5172
   1788  P         18.0680   22.9090   19.8580 P.3    83  G83         0.2141
   1789  C5'       19.7120   24.7910   19.0430 C.3    83  G83         0.1812
   1790  O5'       18.9450   23.6330   18.7400 O.3    83  G83        -0.3114
   1791  C4'       20.6080   25.1320   17.8710 C.3    83  G83         0.1773
   1792  O4'       21.5070   24.0210   17.6080 O.3    83  G83        -0.3307
   1793  C3'       19.8880   25.3100   16.5400 C.3    83  G83         0.1860
   1794  O3'       19.2320   26.5720   16.4350 O.3    83  G83        -0.3112
   1795  C2'       21.0530   25.1360   15.5720 C.3    83  G83         0.2309
   1796  O2'       21.9170   26.2540   15.4900 O.3    83  G83        -0.2156
   1797  C1'       21.7500   23.9330   16.2110 C.3    83  G83         0.2408
   1798  N1        21.8640   20.7500   12.2370 N.ar   83  G83        -0.1709
   1799  C2        22.5510   21.9280   12.4430 C.ar   83  G83         0.2606
   1800  N2        23.3820   22.3280   11.4670 N.pl3  83  G83        -0.0859
   1801  N3        22.4290   22.6690   13.5400 N.ar   83  G83        -0.1918
   1802  C4        21.5520   22.1410   14.4340 C.ar   83  G83         0.1723
   1803  C5        20.8220   20.9750   14.3230 C.ar   83  G83         0.1748
   1804  C6        20.9630   20.1910   13.1440 C.ar   83  G83         0.3023
   1805  O6        20.4000   19.1300   12.8550 O.2    83  G83        -0.2633
   1806  N7        20.0400   20.7840   15.4560 N.ar   83  G83        -0.2173
   1807  C8        20.3090   21.8140   16.2130 C.ar   83  G83         0.1817
   1808  N9        21.2260   22.6790   15.6580 N.ar   83  G83        -0.2693
   1809  OP1       17.2320   23.9100   20.5570 O.3    83  G83        -0.4373
   1810  OP2       17.4260   21.7420   19.2100 O.co2  83  G83        -0.5172
   1811  P         17.8090   26.6920   15.7090 P.3    84  G84         0.2141
   1812  C5'       19.0500   27.6780   13.6090 C.3    84  G84         0.1812
   1813  O5'       18.2080   26.6580   14.1560 O.3    84  G84        -0.3114
   1814  C4'       19.6830   27.2630   12.2920 C.3    84  G84         0.1773
   1815  O4'       20.4660   26.0460   12.4340 O.3    84  G84        -0.3307
   1816  C3'       18.7200   26.9160   11.1710 C.3    84  G84         0.1860
   1817  O3'       18.1130   28.0780   10.5990 O.3    84  G84        -0.3112
   1818  C2'       19.6900   26.2200   10.2200 C.3    84  G84         0.2309
   1819  O2'       20.5320   27.1240    9.5330 O.3    84  G84        -0.2156
   1820  C1'       20.4660   25.3400   11.2040 C.3    84  G84         0.2408
   1821  N1        19.2790   20.8970    8.9820 N.ar   84  G84        -0.1709
   1822  C2        20.0430   21.9390    8.5020 C.ar   84  G84         0.2606
   1823  N2        20.5500   21.7960    7.2730 N.pl3  84  G84        -0.0859
   1824  N3        20.2880   23.0520    9.1820 N.ar   84  G84        -0.1918
   1825  C4        19.7010   23.0500   10.4090 C.ar   84  G84         0.1723
   1826  C5        18.9260   22.0610   10.9800 C.ar   84  G84         0.1748
   1827  C6        18.6720   20.8760   10.2400 C.ar   84  G84         0.3023
   1828  O6        18.0020   19.8910   10.5780 O.2    84  G84        -0.2633
   1829  N7        18.5070   22.4390   12.2480 N.ar   84  G84        -0.2173
   1830  C8        19.0270   23.6220   12.4210 C.ar   84  G84         0.1817
   1831  N9        19.7750   24.0560   11.3500 N.ar   84  G84        -0.2693
   1832  OP1       17.2740   28.0310   16.0410 O.3    84  G84        -0.4373
   1833  OP2       16.9980   25.4810   15.9760 O.co2  84  G84        -0.5172
   1834  P         16.6830   27.9670    9.8830 P.3    85  G85         0.2141
   1835  C5'       17.8250   27.6460    7.5190 C.3    85  G85         0.1812
   1836  O5'       16.9830   27.1350    8.5510 O.3    85  G85        -0.3114
   1837  C4'       18.0030   26.6070    6.4310 C.3    85  G85         0.1773
   1838  O4'       18.5610   25.3830    6.9790 O.3    85  G85        -0.3307
   1839  C3'       16.7040   26.1660    5.7760 C.3    85  G85         0.1860
   1840  O3'       16.3200   27.0830    4.7570 O.3    85  G85        -0.3112
   1841  C2'       17.0840   24.7970    5.2230 C.3    85  G85         0.2309
   1842  O2'       17.8350   24.8580    4.0280 O.3    85  G85        -0.2156
   1843  C1'       17.9550   24.2610    6.3540 C.3    85  G85         0.2408
   1844  N1        15.4970   19.8840    7.3290 N.ar   85  G85        -0.1709
   1845  C2        16.1060   20.3020    6.1640 C.ar   85  G85         0.2606
   1846  N2        16.0640   19.4590    5.1190 N.pl3  85  G85        -0.0859
   1847  N3        16.7190   21.4720    6.0330 N.ar   85  G85        -0.1918
   1848  C4        16.6770   22.2140    7.1730 C.ar   85  G85         0.1723
   1849  C5        16.0960   21.8840    8.3810 C.ar   85  G85         0.1748
   1850  C6        15.4480   20.6280    8.5110 C.ar   85  G85         0.3023
   1851  O6        14.8740   20.1650    9.5040 O.2    85  G85        -0.2633
   1852  N7        16.2660   22.9080    9.3030 N.ar   85  G85        -0.2173
   1853  C8        16.9320   23.8200    8.6470 C.ar   85  G85         0.1817
   1854  N9        17.2180   23.4700    7.3490 N.ar   85  G85        -0.2693
   1855  OP1       16.2590   29.3320    9.5030 O.2    85  G85        -0.5172
   1856  OP2       15.8050   27.1300   10.7230 O.co2  85  G85        -0.4373
   1857  P         14.7780   27.4730    4.5760 P.3    86  U86         0.2141
   1858  C5'       14.3940   25.6310    2.7310 C.3    86  U86         0.1812
   1859  O5'       14.1180   26.1200    4.0400 O.3    86  U86        -0.3114
   1860  C4'       13.8630   24.2200    2.5830 C.3    86  U86         0.1773
   1861  O4'       14.5240   23.3350    3.5260 O.3    86  U86        -0.3307
   1862  C3'       12.3880   24.0390    2.9130 C.3    86  U86         0.1860
   1863  O3'       11.5490   24.4690    1.8440 O.3    86  U86        -0.3112
   1864  C2'       12.3350   22.5350    3.1480 C.3    86  U86         0.2309
   1865  O2'       12.4210   21.7810    1.9550 O.3    86  U86        -0.2156
   1866  C1'       13.6040   22.3540    3.9790 C.3    86  U86         0.2420
   1867  N1        13.3400   22.4710    5.4650 N.ar   86  U86        -0.2534
   1868  C2        12.8140   21.3740    6.1360 C.ar   86  U86         0.3546
   1869  O2        12.5650   20.3090    5.6020 O.2    86  U86        -0.2443
   1870  N3        12.5960   21.5590    7.4820 N.ar   86  U86        -0.1530
   1871  C4        12.8370   22.7100    8.2120 C.ar   86  U86         0.2846
   1872  O4        12.5930   22.7210    9.4150 O.2    86  U86        -0.2650
   1873  C5        13.3780   23.8150    7.4550 C.ar   86  U86         0.0814
   1874  C6        13.5990   23.6550    6.1400 C.ar   86  U86         0.0870
   1875  OP1       14.7030   28.4970    3.5100 O.2    86  U86        -0.5172
   1876  OP2       14.1840   27.7430    5.8990 O.co2  86  U86        -0.4373
   1877  P         10.1210   25.1120    2.1670 P.3    87  G87         0.2141
   1878  C5'        8.9440   22.8400    1.5330 C.3    87  G87         0.1812
   1879  O5'        9.2330   23.8300    2.5150 O.3    87  G87        -0.3114
   1880  C4'        8.2820   21.6390    2.1800 C.3    87  G87         0.1773
   1881  O4'        9.1660   21.0400    3.1630 O.3    87  G87        -0.3307
   1882  C3'        7.0320   21.9560    2.9850 C.3    87  G87         0.1860
   1883  O3'        5.9080   22.1250    2.1300 O.3    87  G87        -0.3112
   1884  C2'        6.9290   20.7230    3.8740 C.3    87  G87         0.2309
   1885  O2'        6.4030   19.5940    3.2070 O.3    87  G87        -0.2156
   1886  C1'        8.3980   20.5030    4.2280 C.3    87  G87         0.2408
   1887  N1         8.0630   20.3560    9.3240 N.ar   87  G87        -0.1709
   1888  C2         7.5310   19.4960    8.3900 C.ar   87  G87         0.2606
   1889  N2         6.8210   18.4650    8.8670 N.pl3  87  G87        -0.0859
   1890  N3         7.6920   19.6390    7.0760 N.ar   87  G87        -0.1918
   1891  C4         8.4350   20.7330    6.7590 C.ar   87  G87         0.1723
   1892  C5         9.0080   21.6490    7.6170 C.ar   87  G87         0.1748
   1893  C6         8.8320   21.4790    9.0150 C.ar   87  G87         0.3023
   1894  O6         9.2590   22.1900    9.9310 O.2    87  G87        -0.2633
   1895  N7         9.6890   22.6280    6.9050 N.ar   87  G87        -0.2173
   1896  C8         9.5220   22.2920    5.6550 C.ar   87  G87         0.1817
   1897  N9         8.7740   21.1490    5.4880 N.ar   87  G87        -0.2693
   1898  OP1        9.6240   25.7410    0.9220 O.2    87  G87        -0.5172
   1899  OP2       10.2140   25.9280    3.4000 O.co2  87  G87        -0.4373
   1900  P          4.7450   23.1460    2.5370 P.3    88  C88         0.2141
   1901  C5'        3.2230   21.1880    3.4170 C.3    88  C88         0.1812
   1902  O5'        3.9780   22.3620    3.7020 O.3    88  C88        -0.3114
   1903  C4'        2.6940   20.5520    4.6900 C.3    88  C88         0.1773
   1904  O4'        3.7870   20.0720    5.5180 O.3    88  C88        -0.3307
   1905  C3'        1.9470   21.4820    5.6320 C.3    88  C88         0.1860
   1906  O3'        0.6340   21.7450    5.1740 O.3    88  C88        -0.3112
   1907  C2'        1.9790   20.6610    6.9160 C.3    88  C88         0.2309
   1908  O2'        1.0960   19.5560    6.9050 O.3    88  C88        -0.2156
   1909  C1'        3.4380   20.2060    6.8910 C.3    88  C88         0.2420
   1910  N1         4.3280   21.1990    7.5960 N.ar   88  C88        -0.2535
   1911  C2         4.3940   21.1940    9.0040 C.ar   88  C88         0.3532
   1912  O2         3.7390   20.3650    9.6530 O.2    88  C88        -0.2443
   1913  N3         5.1900   22.1030    9.6250 N.ar   88  C88        -0.1739
   1914  C4         5.8890   22.9930    8.9120 C.ar   88  C88         0.1759
   1915  N4         6.6530   23.8640    9.5780 N.pl3  88  C88        -0.1070
   1916  C5         5.8330   23.0260    7.4860 C.ar   88  C88         0.0566
   1917  C6         5.0490   22.1230    6.8800 C.ar   88  C88         0.0850
   1918  OP1        3.8410   23.2710    1.3710 O.2    88  C88        -0.5172
   1919  OP2        5.3460   24.3600    3.1300 O.co2  88  C88        -0.4373
   1920  P         -0.0140   23.1910    5.3820 P.3    89  A89         0.2141
   1921  C5'       -1.2780   22.3920    7.5310 C.3    89  A89         0.1812
   1922  O5'       -0.2880   23.2350    6.9550 O.3    89  A89        -0.3114
   1923  C4'       -1.2160   22.4120    9.0470 C.3    89  A89         0.1773
   1924  O4'        0.0860   21.9660    9.5180 O.3    89  A89        -0.3307
   1925  C3'       -1.3750   23.7730    9.7090 C.3    89  A89         0.1860
   1926  O3'       -2.7330   24.2190    9.6930 O.3    89  A89        -0.3112
   1927  C2'       -0.8650   23.4210   11.1030 C.3    89  A89         0.2309
   1928  O2'       -1.7700   22.6190   11.8410 O.3    89  A89        -0.2156
   1929  C1'        0.3880   22.6300   10.7360 C.3    89  A89         0.2408
   1930  N1         3.9930   25.4820   13.0810 N.ar   89  A89        -0.2040
   1931  C2         2.9970   24.7270   13.5730 C.ar   89  A89         0.2016
   1932  N3         2.0930   24.0070   12.9010 N.ar   89  A89        -0.2048
   1933  C4         2.2800   24.1110   11.5690 C.ar   89  A89         0.1692
   1934  C5         3.2570   24.8520   10.9210 C.ar   89  A89         0.1518
   1935  C6         4.1560   25.5700   11.7400 C.ar   89  A89         0.1919
   1936  N6         5.1510   26.3240   11.2580 N.pl3  89  A89        -0.1054
   1937  N7         3.1420   24.7220    9.5470 N.ar   89  A89        -0.2193
   1938  C8         2.1170   23.9210    9.3910 C.ar   89  A89         0.1816
   1939  N9         1.5490   23.5070   10.5690 N.ar   89  A89        -0.2693
   1940  OP1       -1.3040   23.1840    4.6510 O.2    89  A89        -0.5172
   1941  OP2        0.9760   24.2440    5.0740 O.co2  89  A89        -0.4373
   1942  P         -3.0970   25.7760    9.8460 P.3    90  G90         0.2141
   1943  C5'       -3.5980   25.5250   12.4190 C.3    90  G90         0.1812
   1944  O5'       -2.7910   26.0730   11.3840 O.3    90  G90        -0.3114
   1945  C4'       -3.0690   25.9710   13.7660 C.3    90  G90         0.1773
   1946  O4'       -1.7100   25.4860   13.9560 O.3    90  G90        -0.3307
   1947  C3'       -2.9370   27.4760   13.9330 C.3    90  G90         0.1860
   1948  O3'       -4.1960   28.0950   14.2000 O.3    90  G90        -0.3112
   1949  C2'       -1.9690   27.5280   15.1120 C.3    90  G90         0.2309
   1950  O2'       -2.5840   27.2210   16.3480 O.3    90  G90        -0.2156
   1951  C1'       -0.9710   26.4450   14.6990 C.3    90  G90         0.2408
   1952  N1         3.3250   29.2120   14.7000 N.ar   90  G90        -0.1709
   1953  C2         2.5260   28.8400   15.7580 C.ar   90  G90         0.2606
   1954  N2         2.9080   29.2530   16.9760 N.pl3  90  G90        -0.0859
   1955  N3         1.4230   28.1090   15.6290 N.ar   90  G90        -0.1918
   1956  C4         1.1720   27.7680   14.3380 C.ar   90  G90         0.1723
   1957  C5         1.9090   28.0910   13.2170 C.ar   90  G90         0.1748
   1958  C6         3.0860   28.8720   13.3700 C.ar   90  G90         0.3023
   1959  O6         3.8720   29.2570   12.4930 O.2    90  G90        -0.2633
   1960  N7         1.3220   27.5570   12.0750 N.ar   90  G90        -0.2173
   1961  C8         0.2640   26.9340   12.5180 C.ar   90  G90         0.1817
   1962  N9         0.1090   27.0110   13.8850 N.ar   90  G90        -0.2693
   1963  OP1       -4.5480   25.9270    9.6070 O.3    90  G90        -0.4373
   1964  OP2       -2.1420   26.5880    9.0580 O.co2  90  G90        -0.5172
   1965  P         -4.4840   29.6040   13.7380 P.3    91  A91         0.2141
   1966  C5'       -3.8930   30.4420   16.1700 C.3    91  A91         0.1812
   1967  O5'       -3.6290   30.4780   14.7710 O.3    91  A91        -0.3114
   1968  C4'       -2.7930   31.1420   16.9460 C.3    91  A91         0.1773
   1969  O4'       -1.5160   30.4820   16.7410 O.3    91  A91        -0.3307
   1970  C3'       -2.5130   32.5760   16.5250 C.3    91  A91         0.1860
   1971  O3'       -3.4920   33.4670   17.0420 O.3    91  A91        -0.3112
   1972  C2'       -1.1280   32.7740   17.1340 C.3    91  A91         0.2309
   1973  O2'       -1.1490   32.9320   18.5420 O.3    91  A91        -0.2156
   1974  C1'       -0.4770   31.4510   16.7410 C.3    91  A91         0.2408
   1975  N1         3.5540   33.1340   13.9920 N.ar   91  A91        -0.2040
   1976  C2         3.2490   33.2520   15.2910 C.ar   91  A91         0.2016
   1977  N3         2.1810   32.7830   15.9370 N.ar   91  A91        -0.2048
   1978  C4         1.3510   32.1260   15.1040 C.ar   91  A91         0.1692
   1979  C5         1.5260   31.9310   13.7460 C.ar   91  A91         0.1518
   1980  C6         2.7020   32.4710   13.1760 C.ar   91  A91         0.1919
   1981  N6         3.0130   32.3610   11.8810 N.pl3  91  A91        -0.1054
   1982  N7         0.4700   31.2110   13.2140 N.ar   91  A91        -0.2193
   1983  C8        -0.3120   30.9940   14.2430 C.ar   91  A91         0.1816
   1984  N9         0.1570   31.5140   15.4200 N.ar   91  A91        -0.2693
   1985  OP1       -5.9270   29.8720   13.9440 O.3    91  A91        -0.4373
   1986  OP2       -3.8860   29.8180   12.4040 O.co2  91  A91        -0.5172
   1987  P         -3.8300   34.8330   16.2790 P.3    92  G92         0.2141
   1988  C5'       -2.1410   36.2340   17.7460 C.3    92  G92         0.1812
   1989  O5'       -2.4880   35.6880   16.4730 O.3    92  G92        -0.3114
   1990  C4'       -0.7850   36.9140   17.6980 C.3    92  G92         0.1773
   1991  O4'        0.2240   35.9990   17.1960 O.3    92  G92        -0.3307
   1992  C3'       -0.6880   38.1000   16.7490 C.3    92  G92         0.1860
   1993  O3'       -1.2510   39.2720   17.3300 O.3    92  G92        -0.3112
   1994  C2'        0.8220   38.2010   16.5560 C.3    92  G92         0.2309
   1995  O2'        1.4800   38.8350   17.6390 O.3    92  G92        -0.2156
   1996  C1'        1.1990   36.7250   16.4650 C.3    92  G92         0.2408
   1997  N1         3.8240   36.5740   12.0850 N.ar   92  G92        -0.1709
   1998  C2         4.1520   37.1910   13.2700 C.ar   92  G92         0.2606
   1999  N2         5.3210   37.8490   13.2900 N.pl3  92  G92        -0.0859
   2000  N3         3.3790   37.1630   14.3550 N.ar   92  G92        -0.1918
   2001  C4         2.2360   36.4530   14.1600 C.ar   92  G92         0.1723
   2002  C5         1.8260   35.8010   13.0140 C.ar   92  G92         0.1748
   2003  C6         2.6580   35.8430   11.8680 C.ar   92  G92         0.3023
   2004  O6         2.4570   35.3250   10.7620 O.2    92  G92        -0.2633
   2005  N7         0.5940   35.1880   13.2060 N.ar   92  G92        -0.2173
   2006  C8         0.2870   35.4740   14.4430 C.ar   92  G92         0.1817
   2007  N9         1.2360   36.2370   15.0840 N.ar   92  G92        -0.2693
   2008  OP1       -4.9380   35.4830   17.0140 O.3    92  G92        -0.4373
   2009  OP2       -3.9880   34.5550   14.8320 O.co2  92  G92        -0.5172
   2010  P         -2.0850   40.2860   16.4170 P.3    93  U93         0.2141
   2011  C5'        0.0930   41.7290   16.0150 C.3    93  U93         0.1812
   2012  O5'       -0.9590   40.9260   15.4730 O.3    93  U93        -0.3114
   2013  C4'        1.1290   42.0540   14.9540 C.3    93  U93         0.1773
   2014  O4'        1.7820   40.8310   14.5210 O.3    93  U93        -0.3307
   2015  C3'        0.5810   42.6430   13.6600 C.3    93  U93         0.1860
   2016  O3'        0.3110   44.0340   13.7820 O.3    93  U93        -0.3112
   2017  C2'        1.7230   42.3410   12.6950 C.3    93  U93         0.2309
   2018  O2'        2.8150   43.2310   12.8150 O.3    93  U93        -0.2156
   2019  C1'        2.1250   40.9360   13.1490 C.3    93  U93         0.2420
   2020  N1         1.4600   39.8620   12.3230 N.ar   93  U93        -0.2534
   2021  C2         2.0800   39.4410   11.1560 C.ar   93  U93         0.3546
   2022  O2         3.1480   39.8820   10.7640 O.2    93  U93        -0.2443
   2023  N3         1.4000   38.4670   10.4550 N.ar   93  U93        -0.1530
   2024  C4         0.1860   37.8910   10.7960 C.ar   93  U93         0.2846
   2025  O4        -0.3020   37.0290   10.0740 O.2    93  U93        -0.2650
   2026  C5        -0.4020   38.3800   12.0180 C.ar   93  U93         0.0814
   2027  C6         0.2410   39.3260   12.7170 C.ar   93  U93         0.0870
   2028  OP1       -2.6340   41.3330   17.3050 O.3    93  U93        -0.4373
   2029  OP2       -2.9990   39.5110   15.5470 O.co2  93  U93        -0.5172
   2030  P         -1.1910   44.5950   13.7000 P.3    94  U94         0.2141
   2031  C5'       -0.8570   46.7140   12.1570 C.3    94  U94         0.1812
   2032  O5'       -1.2100   45.3380   12.2830 O.3    94  U94        -0.3114
   2033  C4'       -1.9150   47.4720   11.3730 C.3    94  U94         0.1773
   2034  O4'       -2.0640   46.8790   10.0550 O.3    94  U94        -0.3307
   2035  C3'       -3.3070   47.4920   12.0010 C.3    94  U94         0.1860
   2036  O3'       -3.8140   48.8190   11.9820 O.3    94  U94        -0.3112
   2037  C2'       -4.1250   46.5500   11.1180 C.3    94  U94         0.2309
   2038  O2'       -5.4930   46.8970   11.0130 O.3    94  U94        -0.2156
   2039  C1'       -3.4300   46.6750    9.7650 C.3    94  U94         0.2420
   2040  N1        -3.6040   45.4310    8.9510 N.ar   94  U94        -0.2534
   2041  C2        -4.4000   45.4580    7.8140 C.ar   94  U94         0.3546
   2042  O2        -4.9700   46.4540    7.4030 O.2    94  U94        -0.2443
   2043  N3        -4.5040   44.2530    7.1580 N.ar   94  U94        -0.1530
   2044  C4        -3.9090   43.0530    7.5210 C.ar   94  U94         0.2846
   2045  O4        -4.0950   42.0540    6.8380 O.2    94  U94        -0.2650
   2046  C5        -3.1020   43.1000    8.7150 C.ar   94  U94         0.0814
   2047  C6        -2.9870   44.2620    9.3710 C.ar   94  U94         0.0870
   2048  OP1       -1.3370   45.5670   14.8040 O.3    94  U94        -0.4373
   2049  OP2       -2.1440   43.4670   13.6110 O.co2  94  U94        -0.5172
   2050  P         -4.5770   49.4250   13.2550 P.3    95  C95         0.2141
   2051  C5'       -7.1150   49.1200   13.9170 C.3    95  C95         0.1812
   2052  O5'       -6.0960   49.0550   12.9230 O.3    95  C95        -0.3114
   2053  C4'       -8.4570   48.7600   13.3070 C.3    95  C95         0.1773
   2054  O4'       -8.7840   49.7250   12.2730 O.3    95  C95        -0.3307
   2055  C3'       -8.5150   47.4200   12.5810 C.3    95  C95         0.1860
   2056  O3'       -8.7010   46.3310   13.4840 O.3    95  C95        -0.3112
   2057  C2'       -9.7120   47.6370   11.6610 C.3    95  C95         0.2309
   2058  O2'      -10.9570   47.5050   12.3250 O.3    95  C95        -0.2156
   2059  C1'       -9.4910   49.0830   11.2230 C.3    95  C95         0.2420
   2060  N1        -8.7540   49.2210    9.9060 N.ar   95  C95        -0.2535
   2061  C2        -9.4700   49.1340    8.6970 C.ar   95  C95         0.3532
   2062  O2       -10.6930   48.9470    8.7120 O.2    95  C95        -0.2443
   2063  N3        -8.7960   49.2610    7.5220 N.ar   95  C95        -0.1739
   2064  C4        -7.4740   49.4610    7.5150 C.ar   95  C95         0.1759
   2065  N4        -6.8700   49.5770    6.3270 N.pl3  95  C95        -0.1070
   2066  C5        -6.7210   49.5480    8.7270 C.ar   95  C95         0.0566
   2067  C6        -7.3950   49.4250    9.8820 C.ar   95  C95         0.0850
   2068  OP1       -4.4340   50.8970   13.2010 O.2    95  C95        -0.5172
   2069  OP2       -4.1670   48.6740   14.4630 O.co2  95  C95        -0.4373
   2070  P         -8.1730   44.8630   13.1150 P.3    96  C96         0.2141
   2071  C5'      -10.5340   44.0530   12.2790 C.3    96  C96         0.1812
   2072  O5'       -9.1880   44.3940   11.9710 O.3    96  C96        -0.3114
   2073  C4'      -11.2900   43.6610   11.0220 C.3    96  C96         0.1773
   2074  O4'      -11.3430   44.7770   10.0970 O.3    96  C96        -0.3307
   2075  C3'      -10.6520   42.5550   10.1950 C.3    96  C96         0.1860
   2076  O3'      -10.8990   41.2770   10.7640 O.3    96  C96        -0.3112
   2077  C2'      -11.3500   42.7580    8.8550 C.3    96  C96         0.2309
   2078  O2'      -12.6720   42.2520    8.8280 O.3    96  C96        -0.2156
   2079  C1'      -11.3690   44.2830    8.7650 C.3    96  C96         0.2420
   2080  N1       -10.2330   44.8760    7.9550 N.ar   96  C96        -0.2535
   2081  C2       -10.2880   44.8700    6.5470 C.ar   96  C96         0.3532
   2082  O2       -11.2610   44.3780    5.9630 O.2    96  C96        -0.2443
   2083  N3        -9.2610   45.4140    5.8420 N.ar   96  C96        -0.1739
   2084  C4        -8.2130   45.9450    6.4780 C.ar   96  C96         0.1759
   2085  N4        -7.2330   46.4650    5.7330 N.pl3  96  C96        -0.1070
   2086  C5        -8.1300   45.9630    7.9050 C.ar   96  C96         0.0566
   2087  C6        -9.1490   45.4260    8.5910 C.ar   96  C96         0.0850
   2088  OP1       -8.3450   44.0170   14.3190 O.3    96  C96        -0.4373
   2089  OP2       -6.8310   44.9700   12.4980 O.co2  96  C96        -0.5172
   2090  P         -9.8090   40.1140   10.6220 P.3    97  U97         0.2141
   2091  C5'      -11.2170   38.9630    8.7180 C.3    97  U97         0.1812
   2092  O5'      -10.0120   39.6120    9.1170 O.3    97  U97        -0.3114
   2093  C4'      -11.2500   38.7750    7.2140 C.3    97  U97         0.1773
   2094  O4'      -11.2640   40.0640    6.5520 O.3    97  U97        -0.3307
   2095  C3'      -10.0220   38.0930    6.6300 C.3    97  U97         0.1860
   2096  O3'      -10.0830   36.6890    6.7880 O.3    97  U97        -0.3112
   2097  C2'      -10.0840   38.5310    5.1720 C.3    97  U97         0.2309
   2098  O2'      -11.0240   37.8050    4.4030 O.3    97  U97        -0.2156
   2099  C1'      -10.5350   39.9800    5.3350 C.3    97  U97         0.2420
   2100  N1        -9.3940   40.9700    5.3110 N.ar   97  U97        -0.2534
   2101  C2        -8.8820   41.3570    4.0800 C.ar   97  U97         0.3546
   2102  O2        -9.2990   40.9420    3.0120 O.2    97  U97        -0.2443
   2103  N3        -7.8480   42.2620    4.1400 N.ar   97  U97        -0.1530
   2104  C4        -7.2820   42.8110    5.2780 C.ar   97  U97         0.2846
   2105  O4        -6.3610   43.6100    5.1620 O.2    97  U97        -0.2650
   2106  C5        -7.8600   42.3630    6.5240 C.ar   97  U97         0.0814
   2107  C6        -8.8710   41.4790    6.4920 C.ar   97  U97         0.0870
   2108  OP1      -10.1860   39.0220   11.5470 O.3    97  U97        -0.4373
   2109  OP2       -8.4590   40.7140   10.7170 O.co2  97  U97        -0.5172
   2110  P         -8.7280   35.8650    6.9820 P.3    98  C98         0.2141
   2111  C5'       -8.7150   35.0340    4.4730 C.3    98  C98         0.1812
   2112  O5'       -8.1210   35.8280    5.4990 O.3    98  C98        -0.3114
   2113  C4'       -8.0330   35.2500    3.1320 C.3    98  C98         0.1773
   2114  O4'       -8.1890   36.6310    2.7060 O.3    98  C98        -0.3307
   2115  C3'       -6.5230   35.0310    3.0900 C.3    98  C98         0.1860
   2116  O3'       -6.1680   33.6480    3.0410 O.3    98  C98        -0.3112
   2117  C2'       -6.1820   35.7710    1.8010 C.3    98  C98         0.2309
   2118  O2'       -6.5410   35.0530    0.6340 O.3    98  C98        -0.2156
   2119  C1'       -7.0520   37.0190    1.9490 C.3    98  C98         0.2420
   2120  N1        -6.3260   38.1780    2.6040 N.ar   98  C98        -0.2535
   2121  C2        -5.4490   38.9680    1.8350 C.ar   98  C98         0.3532
   2122  O2        -5.2750   38.7150    0.6350 O.2    98  C98        -0.2443
   2123  N3        -4.8020   40.0040    2.4330 N.ar   98  C98        -0.1739
   2124  C4        -4.9950   40.2670    3.7310 C.ar   98  C98         0.1759
   2125  N4        -4.3330   41.2990    4.2610 N.pl3  98  C98        -0.1070
   2126  C5        -5.8780   39.4800    4.5350 C.ar   98  C98         0.0566
   2127  C6        -6.5110   38.4610    3.9350 C.ar   98  C98         0.0850
   2128  OP1       -9.1150   34.5020    7.4070 O.2    98  C98        -0.5172
   2129  OP2       -7.7910   36.6530    7.8160 O.co2  98  C98        -0.4373
   2130  P         -4.7290   33.1440    3.5360 P.3    99  C99         0.2141
   2131  C5'       -3.7010   33.0490    1.1090 C.3    99  C99         0.1812
   2132  O5'       -3.7260   33.6600    2.4010 O.3    99  C99        -0.3114
   2133  C4'       -2.6460   33.6840    0.2200 C.3    99  C99         0.1773
   2134  O4'       -2.9650   35.0830   -0.0160 O.3    99  C99        -0.3307
   2135  C3'       -1.2370   33.7350    0.7940 C.3    99  C99         0.1860
   2136  O3'       -0.5440   32.4970    0.6800 O.3    99  C99        -0.3112
   2137  C2'       -0.6180   34.8260   -0.0700 C.3    99  C99         0.2309
   2138  O2'       -0.2750   34.3880   -1.3730 O.3    99  C99        -0.2156
   2139  C1'       -1.7630   35.8350   -0.1140 C.3    99  C99         0.2420
   2140  N1        -1.6710   36.8700    0.9870 N.ar   99  C99        -0.2535
   2141  C2        -0.7490   37.9330    0.8840 C.ar   99  C99         0.3532
   2142  O2        -0.0110   38.0310   -0.1070 O.2    99  C99        -0.2443
   2143  N3        -0.6840   38.8470    1.8910 N.ar   99  C99        -0.1739
   2144  C4        -1.4820   38.7390    2.9590 C.ar   99  C99         0.1759
   2145  N4        -1.3740   39.6660    3.9150 N.pl3  99  C99        -0.1070
   2146  C5        -2.4210   37.6690    3.0910 C.ar   99  C99         0.0566
   2147  C6        -2.4790   36.7730    2.0940 C.ar   99  C99         0.0850
   2148  OP1       -4.7440   31.6640    3.5250 O.2    99  C99        -0.5172
   2149  OP2       -4.3810   33.8590    4.7850 O.co2  99  C99        -0.4373
   2150  P          0.5040   32.0710    1.8150 P.3   100  C100        0.2141
   2151  C5'        2.5680   32.9910    0.4530 C.3   100  C100        0.1812
   2152  O5'        1.7330   33.0760    1.6070 O.3   100  C100       -0.3114
   2153  C4'        3.4540   34.2180    0.3120 C.3   100  C100        0.1773
   2154  O4'        2.6610   35.4370    0.3390 O.3   100  C100       -0.3307
   2155  C3'        4.4590   34.4380    1.4320 C.3   100  C100        0.1860
   2156  O3'        5.5940   33.5850    1.3190 O.3   100  C100       -0.3112
   2157  C2'        4.8080   35.9030    1.2020 C.3   100  C100        0.2309
   2158  O2'        5.6860   36.1120    0.1120 O.3   100  C100       -0.2156
   2159  C1'        3.4250   36.4850    0.9210 C.3   100  C100        0.2420
   2160  N1         2.7700   37.0180    2.1790 N.ar  100  C100       -0.2535
   2161  C2         3.2280   38.2220    2.7600 C.ar  100  C100        0.3532
   2162  O2         4.1630   38.8510    2.2430 O.2   100  C100       -0.2443
   2163  N3         2.6290   38.6750    3.8940 N.ar  100  C100       -0.1739
   2164  C4         1.6250   37.9890    4.4480 C.ar  100  C100        0.1759
   2165  N4         1.0710   38.4810    5.5600 N.pl3 100  C100       -0.1070
   2166  C5         1.1450   36.7670    3.8830 C.ar  100  C100        0.0566
   2167  C6         1.7400   36.3270    2.7650 C.ar  100  C100        0.0850
   2168  OP1        0.9560   30.6950    1.5090 O.2   100  C100       -0.5172
   2169  OP2       -0.0970   32.3730    3.1340 O.co2 100  C100       -0.4373
   2170  P          6.3550   33.0940    2.6410 P.3   101  G101        0.2141
   2171  C5'        8.1460   35.0080    2.4280 C.3   101  G101        0.1812
   2172  O5'        7.0820   34.4170    3.1650 O.3   101  G101       -0.3114
   2173  C4'        8.5250   36.3360    3.0540 C.3   101  G101        0.1773
   2174  O4'        7.3660   37.2090    3.1180 O.3   101  G101       -0.3307
   2175  C3'        9.0050   36.2350    4.4940 C.3   101  G101        0.1860
   2176  O3'       10.3860   35.9080    4.5260 O.3   101  G101       -0.3112
   2177  C2'        8.7250   37.6410    5.0100 C.3   101  G101        0.2309
   2178  O2'        9.7150   38.5810    4.6300 O.3   101  G101       -0.2156
   2179  C1'        7.4000   37.9590    4.3220 C.3   101  G101        0.2408
   2180  N1         4.4940   39.3000    8.3140 N.ar  101  G101       -0.1709
   2181  C2         5.6450   39.8910    7.8420 C.ar  101  G101        0.2606
   2182  N2         6.0790   40.9720    8.5090 N.pl3 101  G101       -0.0859
   2183  N3         6.3220   39.4460    6.7870 N.ar  101  G101       -0.1918
   2184  C4         5.7500   38.3440    6.2280 C.ar  101  G101        0.1723
   2185  C5         4.6030   37.6870    6.6270 C.ar  101  G101        0.1748
   2186  C6         3.8900   38.1700    7.7570 C.ar  101  G101        0.3023
   2187  O6         2.8530   37.7190    8.2640 O.2   101  G101       -0.2633
   2188  N7         4.3460   36.6010    5.7980 N.ar  101  G101       -0.2173
   2189  C8         5.3190   36.6230    4.9310 C.ar  101  G101        0.1817
   2190  N9         6.2110   37.6530    5.1250 N.ar  101  G101       -0.2693
   2191  OP1        7.3820   32.1100    2.2280 O.2   101  G101       -0.5172
   2192  OP2        5.3360   32.7100    3.6440 O.co2 101  G101       -0.4373
   2193  P         10.9540   34.8660    5.6000 P.3   102  C102        0.2141
   2194  C5'       11.6710   36.8420    7.2040 C.3   102  C102        0.1812
   2195  O5'       10.8800   35.6740    6.9840 O.3   102  C102       -0.3114
   2196  C4'       11.1560   37.6380    8.3910 C.3   102  C102        0.1773
   2197  O4'        9.8160   38.1380    8.1310 O.3   102  C102       -0.3307
   2198  C3'       11.0020   36.8480    9.6800 C.3   102  C102        0.1860
   2199  O3'       12.2520   36.6860   10.3440 O.3   102  C102       -0.3112
   2200  C2'       10.0260   37.7270   10.4510 C.3   102  C102        0.2309
   2201  O2'       10.6390   38.8680   11.0230 O.3   102  C102       -0.2156
   2202  C1'        9.0630   38.1310    9.3350 C.3   102  C102        0.2420
   2203  N1         7.8600   37.2180    9.2140 N.ar  102  C102       -0.2535
   2204  C2         6.7540   37.4060   10.0670 C.ar  102  C102        0.3532
   2205  O2         6.7620   38.3130   10.9100 O.2   102  C102       -0.2443
   2206  N3         5.6840   36.5750    9.9480 N.ar  102  C102       -0.1739
   2207  C4         5.6800   35.5970    9.0370 C.ar  102  C102        0.1759
   2208  N4         4.5950   34.8190    8.9700 N.pl3 102  C102       -0.1070
   2209  C5         6.7880   35.3840    8.1580 C.ar  102  C102        0.0566
   2210  C6         7.8390   36.2060    8.2820 C.ar  102  C102        0.0850
   2211  OP1       12.3670   34.6110    5.2480 O.2   102  C102       -0.5172
   2212  OP2       10.0040   33.7360    5.7320 O.co2 102  C102       -0.4373
   2213  P         12.5300   35.3670   11.2060 P.3   103  U103        0.2141
   2214  C5'       11.9970   36.5780   13.4710 C.3   103  U103        0.1812
   2215  O5'       11.6390   35.5950   12.5100 O.3   103  U103       -0.3114
   2216  C4'       10.9950   36.5870   14.6040 C.3   103  U103        0.1773
   2217  O4'        9.7030   36.9870   14.0770 O.3   103  U103       -0.3307
   2218  C3'       10.7220   35.2320   15.2470 C.3   103  U103        0.1860
   2219  O3'       11.7160   34.8620   16.2080 O.3   103  U103       -0.3112
   2220  C2'        9.3580   35.4900   15.8760 C.3   103  U103        0.2309
   2221  O2'        9.4290   36.2560   17.0680 O.3   103  U103       -0.2156
   2222  C1'        8.6770   36.2810   14.7570 C.3   103  U103        0.2420
   2223  N1         7.8790   35.4260   13.7890 N.ar  103  U103       -0.2534
   2224  C2         6.6350   34.9480   14.1790 C.ar  103  U103        0.3546
   2225  O2         6.1300   35.1660   15.2670 O.2   103  U103       -0.2443
   2226  N3         5.9880   34.1840   13.2360 N.ar  103  U103       -0.1530
   2227  C4         6.4370   33.8520   11.9700 C.ar  103  U103        0.2846
   2228  O4         5.7330   33.1560   11.2460 O.2   103  U103       -0.2650
   2229  C5         7.7360   34.3800   11.6280 C.ar  103  U103        0.0814
   2230  C6         8.3880   35.1270   12.5320 C.ar  103  U103        0.0870
   2231  OP1       13.9610   35.3670   11.5860 O.3   103  U103       -0.4373
   2232  OP2       11.9660   34.2030   10.4810 O.co2 103  U103       -0.5172
   2233  P         12.1140   33.3170   16.3920 P.3   104  C104        0.2141
   2234  C5'       10.6970   33.2250   18.6030 C.3   104  C104        0.1812
   2235  O5'       10.9180   32.7450   17.2820 O.3   104  C104       -0.3114
   2236  C4'        9.3610   32.7390   19.1270 C.3   104  C104        0.1773
   2237  O4'        8.2850   33.2870   18.3190 O.3   104  C104       -0.3307
   2238  C3'        9.1310   31.2370   19.0430 C.3   104  C104        0.1860
   2239  O3'        9.8060   30.5330   20.0810 O.3   104  C104       -0.3112
   2240  C2'        7.6110   31.1910   19.1620 C.3   104  C104        0.2309
   2241  O2'        7.1400   31.4550   20.4690 O.3   104  C104       -0.2156
   2242  C1'        7.2350   32.3350   18.2210 C.3   104  C104        0.2420
   2243  N1         7.0330   31.8830   16.7870 N.ar  104  C104       -0.2535
   2244  C2         5.8300   31.2470   16.4250 C.ar  104  C104        0.3532
   2245  O2         4.9490   31.0650   17.2760 O.2   104  C104       -0.2443
   2246  N3         5.6580   30.8450   15.1370 N.ar  104  C104       -0.1739
   2247  C4         6.6170   31.0500   14.2290 C.ar  104  C104        0.1759
   2248  N4         6.3930   30.6310   12.9790 N.pl3 104  C104       -0.1070
   2249  C5         7.8500   31.6900   14.5710 C.ar  104  C104        0.0566
   2250  C6         8.0080   32.0840   15.8430 C.ar  104  C104        0.0850
   2251  OP1       13.3630   33.2580   17.1830 O.3   104  C104       -0.4373
   2252  OP2       12.0600   32.6430   15.0750 O.co2 104  C104       -0.5172
   2253  P         10.3530   29.0460   19.8310 P.3   105  U105        0.2141
   2254  C5'        8.1880   27.9830   20.8660 C.3   105  U105        0.1812
   2255  O5'        9.0070   28.1860   19.7160 O.3   105  U105       -0.3114
   2256  C4'        6.9230   27.2180   20.5280 C.3   105  U105        0.1773
   2257  O4'        6.1260   27.9410   19.5510 O.3   105  U105       -0.3307
   2258  C3'        7.1310   25.8630   19.8710 C.3   105  U105        0.1860
   2259  O3'        7.5340   24.8780   20.8240 O.3   105  U105       -0.3112
   2260  C2'        5.7310   25.6300   19.3150 C.3   105  U105        0.2309
   2261  O2'        4.7920   25.2880   20.3150 O.3   105  U105       -0.2156
   2262  C1'        5.4260   27.0120   18.7370 C.3   105  U105        0.2420
   2263  N1         5.8340   27.1510   17.2850 N.ar  105  U105       -0.2534
   2264  C2         5.0520   26.5710   16.2940 C.ar  105  U105        0.3546
   2265  O2         4.0290   25.9410   16.5130 O.2   105  U105       -0.2443
   2266  N3         5.5140   26.7530   15.0080 N.ar  105  U105       -0.1530
   2267  C4         6.6540   27.4400   14.6180 C.ar  105  U105        0.2846
   2268  O4         6.9430   27.5200   13.4290 O.2   105  U105       -0.2650
   2269  C5         7.4160   28.0140   15.6990 C.ar  105  U105        0.0814
   2270  C6         6.9870   27.8510   16.9580 C.ar  105  U105        0.0870
   2271  OP1       11.0840   28.6360   21.0520 O.3   105  U105       -0.4373
   2272  OP2       11.0420   28.9890   18.5240 O.co2 105  U105       -0.5172
   2273  P          8.3300   23.5680   20.3630 P.3   106  G106        0.2141
   2274  C5'        6.1480   22.0920   20.5220 C.3   106  G106        0.1812
   2275  O5'        7.1860   22.6550   19.7170 O.3   106  G106       -0.3114
   2276  C4'        5.1620   21.3290   19.6580 C.3   106  G106        0.1773
   2277  O4'        4.5220   22.2330   18.7170 O.3   106  G106       -0.3307
   2278  C3'        5.7690   20.2630   18.7580 C.3   106  G106        0.1860
   2279  O3'        6.0570   19.0620   19.4710 O.3   106  G106       -0.3112
   2280  C2'        4.6520   20.0930   17.7370 C.3   106  G106        0.2309
   2281  O2'        3.5540   19.3630   18.2480 O.3   106  G106       -0.2156
   2282  C1'        4.2740   21.5530   17.4960 C.3   106  G106        0.2408
   2283  N1         4.9100   22.0310   12.4400 N.ar  106  G106       -0.1709
   2284  C2         3.9900   21.2750   13.1310 C.ar  106  G106        0.2606
   2285  N2         3.1310   20.5580   12.3930 N.pl3 106  G106       -0.0859
   2286  N3         3.9220   21.2300   14.4600 N.ar  106  G106       -0.1918
   2287  C4         4.8590   22.0140   15.0570 C.ar  106  G106        0.1723
   2288  C5         5.8170   22.8020   14.4520 C.ar  106  G106        0.1748
   2289  C6         5.8790   22.8410   13.0360 C.ar  106  G106        0.3023
   2290  O6         6.6640   23.4850   12.3270 O.2   106  G106       -0.2633
   2291  N7         6.5950   23.4530   15.4010 N.ar  106  G106       -0.2173
   2292  C8         6.1020   23.0550   16.5410 C.ar  106  G106        0.1817
   2293  N9         5.0440   22.1820   16.4150 N.ar  106  G106       -0.2693
   2294  OP1        8.8430   22.9070   21.5830 O.3   106  G106       -0.4373
   2295  OP2        9.2730   23.9350   19.2850 O.co2 106  G106       -0.5172
   2296  P          7.3320   18.1740   19.0790 P.3   107  C107        0.2141
   2297  C5'        5.8760   16.6160   17.5320 C.3   107  C107        0.1812
   2298  O5'        6.9440   17.5520   17.6550 O.3   107  C107       -0.3114
   2299  C4'        5.5220   16.3950   16.0730 C.3   107  C107        0.1773
   2300  O4'        5.1630   17.6500   15.4340 O.3   107  C107       -0.3307
   2301  C3'        6.6660   15.8850   15.2100 C.3   107  C107        0.1860
   2302  O3'        6.9140   14.5060   15.4100 O.3   107  C107       -0.3112
   2303  C2'        6.1340   16.2160   13.8200 C.3   107  C107        0.2309
   2304  O2'        5.1410   15.3170   13.3620 O.3   107  C107       -0.2156
   2305  C1'        5.5640   17.6140   14.0720 C.3   107  C107        0.2420
   2306  N1         6.5810   18.6900   13.7710 N.ar  107  C107       -0.2535
   2307  C2         6.8250   19.0540   12.4320 C.ar  107  C107        0.3532
   2308  O2         6.1970   18.5000   11.5200 O.2   107  C107       -0.2443
   2309  N3         7.7520   20.0140   12.1700 N.ar  107  C107       -0.1739
   2310  C4         8.4220   20.6010   13.1690 C.ar  107  C107        0.1759
   2311  N4         9.3180   21.5420   12.8520 N.pl3 107  C107       -0.1070
   2312  C5         8.1940   20.2520   14.5370 C.ar  107  C107        0.0566
   2313  C6         7.2790   19.3030   14.7840 C.ar  107  C107        0.0850
   2314  OP1        7.4200   17.0760   20.0680 O.3   107  C107       -0.4373
   2315  OP2        8.4890   19.0690   18.8730 O.co2 107  C107       -0.5172
   2316  P          8.4020   13.9400   15.2390 P.3   108  A108        0.2141
   2317  C5'        7.7560   13.0500   12.8420 C.3   108  A108        0.1812
   2318  O5'        8.5900   13.8680   13.6510 O.3   108  A108       -0.3114
   2319  C4'        7.9730   13.3560   11.3730 C.3   108  A108        0.1773
   2320  O4'        7.6790   14.7500   11.1100 O.3   108  A108       -0.3307
   2321  C3'        9.4030   13.1810   10.8810 C.3   108  A108        0.1860
   2322  O3'        9.6760   11.8150   10.5810 O.3   108  A108       -0.3112
   2323  C2'        9.3980   14.0550    9.6320 C.3   108  A108        0.2309
   2324  O2'        8.8000   13.4170    8.5170 O.3   108  A108       -0.2156
   2325  C1'        8.5440   15.2320   10.0940 C.3   108  A108        0.2408
   2326  N1        11.4000   19.3440    8.8680 N.ar  108  A108       -0.2040
   2327  C2        10.7920   18.4210    8.1110 C.ar  108  A108        0.2016
   2328  N3        10.0630   17.3720    8.5040 N.ar  108  A108       -0.2048
   2329  C4         9.9800   17.3090    9.8470 C.ar  108  A108        0.1692
   2330  C5        10.5540   18.1830   10.7550 C.ar  108  A108        0.1518
   2331  C6        11.3020   19.2560   10.2140 C.ar  108  A108        0.1919
   2332  N6        11.9110   20.1800   10.9640 N.pl3 108  A108       -0.1054
   2333  N7        10.2590   17.8040   12.0550 N.ar  108  A108       -0.2193
   2334  C8         9.5230   16.7260   11.9070 C.ar  108  A108        0.1816
   2335  N9         9.3170   16.3680   10.6020 N.ar  108  A108       -0.2693
   2336  OP1        8.4080   12.5740   15.8110 O.3   108  A108       -0.4373
   2337  OP2        9.3680   14.9420   15.7370 O.co2 108  A108       -0.5172
   2338  P         11.1500   11.2220   10.8040 P.3   109  U109        0.2141
   2339  C5'       11.7940   11.5790    8.2670 C.3   109  U109        0.1812
   2340  O5'       12.0130   11.9070    9.6430 O.3   109  U109       -0.3114
   2341  C4'       12.5290   12.5540    7.3650 C.3   109  U109        0.1773
   2342  O4'       12.0740   13.9010    7.6450 O.3   109  U109       -0.3307
   2343  C3'       14.0380   12.6160    7.5670 C.3   109  U109        0.1860
   2344  O3'       14.6810   11.5780    6.8300 O.3   109  U109       -0.3112
   2345  C2'       14.3710   14.0130    7.0440 C.3   109  U109        0.2309
   2346  O2'       14.4970   14.0810    5.6360 O.3   109  U109       -0.2156
   2347  C1'       13.1480   14.8130    7.4910 C.3   109  U109        0.2420
   2348  N1        13.3650   15.5970    8.7580 N.ar  109  U109       -0.2534
   2349  C2        13.9320   16.8610    8.6720 C.ar  109  U109        0.3546
   2350  O2        14.2650   17.3820    7.6210 O.2   109  U109       -0.2443
   2351  N3        14.0980   17.5030    9.8780 N.ar  109  U109       -0.1530
   2352  C4        13.7600   17.0220   11.1320 C.ar  109  U109        0.2846
   2353  O4        13.9670   17.7130   12.1230 O.2   109  U109       -0.2650
   2354  C5        13.1760   15.7020   11.1460 C.ar  109  U109        0.0814
   2355  C6        13.0070   15.0550    9.9840 C.ar  109  U109        0.0870
   2356  OP1       11.0660    9.7640   10.5550 O.2   109  U109       -0.5172
   2357  OP2       11.6700   11.7160   12.0960 O.co2 109  U109       -0.4373
   2358  P         15.3820   10.3420    7.5720 P.3   110  G110        0.2141
   2359  C5'       17.9520   10.8300    7.3130 C.3   110  G110        0.1812
   2360  O5'       16.7650   10.9690    8.0730 O.3   110  G110       -0.3114
   2361  C4'       18.9220   11.9400    7.6690 C.3   110  G110        0.1773
   2362  O4'       19.4430   11.6900    8.9980 O.3   110  G110       -0.3307
   2363  C3'       20.1120   12.0480    6.7250 C.3   110  G110        0.1860
   2364  O3'       19.8840   13.1070    5.7830 O.3   110  G110       -0.3112
   2365  C2'       21.3040   12.3160    7.6510 C.3   110  G110        0.2309
   2366  O2'       21.6130   13.6940    7.7610 O.3   110  G110       -0.2156
   2367  C1'       20.8540   11.7780    9.0150 C.3   110  G110        0.2408
   2368  N1        21.8940    6.8340    7.8820 N.ar  110  G110       -0.1709
   2369  C2        21.3300    7.7970    7.0730 C.ar  110  G110        0.2606
   2370  N2        21.0020    7.4170    5.8290 N.pl3 110  G110       -0.0859
   2371  N3        21.1020    9.0480    7.4620 N.ar  110  G110       -0.1918
   2372  C4        21.4870    9.2830    8.7450 C.ar  110  G110        0.1723
   2373  C5        22.0590    8.3830    9.6250 C.ar  110  G110        0.1748
   2374  C6        22.2960    7.0500    9.2000 C.ar  110  G110        0.3023
   2375  O6        22.7950    6.1190    9.8480 O.2   110  G110       -0.2633
   2376  N7        22.3160    8.9840   10.8500 N.ar  110  G110       -0.2173
   2377  C8        21.9040   10.2110   10.6930 C.ar  110  G110        0.1817
   2378  N9        21.3920   10.4770    9.4440 N.ar  110  G110       -0.2693
   2379  OP1       15.6250    9.3110    6.5380 O.2   110  G110       -0.5172
   2380  OP2       14.6270    9.9890    8.7940 O.co2 110  G110       -0.4373
   2381  P         19.2040   12.8360    4.3540 P.3   111  C111        0.2141
   2382  C5'       19.8450   14.5660    2.4310 C.3   111  C111        0.1812
   2383  O5'       19.2210   14.2860    3.6780 O.3   111  C111       -0.3114
   2384  C4'       20.2130   16.0380    2.3760 C.3   111  C111        0.1773
   2385  O4'       19.0940   16.8430    2.8360 O.3   111  C111       -0.3307
   2386  C3'       21.3500   16.4340    3.3040 C.3   111  C111        0.1860
   2387  O3'       22.6160   16.1710    2.7130 O.3   111  C111       -0.3112
   2388  C2'       21.0830   17.9210    3.5210 C.3   111  C111        0.2309
   2389  O2'       21.5000   18.7370    2.4400 O.3   111  C111       -0.2156
   2390  C1'       19.5590   17.9210    3.6380 C.3   111  C111        0.2420
   2391  N1        19.0460   17.8010    5.0630 N.ar  111  C111       -0.2535
   2392  C2        19.1900   18.8800    5.9590 C.ar  111  C111        0.3532
   2393  O2        19.7320   19.9310    5.5900 O.2   111  C111       -0.2443
   2394  N3        18.7200   18.7440    7.2290 N.ar  111  C111       -0.1739
   2395  C4        18.1340   17.6090    7.6220 C.ar  111  C111        0.1759
   2396  N4        17.6930   17.5340    8.8820 N.pl3 111  C111       -0.1070
   2397  C5        17.9790   16.4980    6.7360 C.ar  111  C111        0.0566
   2398  C6        18.4420   16.6430    5.4860 C.ar  111  C111        0.0850
   2399  OP1       17.7800   12.4870    4.5640 O.3   111  C111       -0.4373
   2400  OP2       20.0920   11.9230    3.5960 O.co2 111  C111       -0.5172
   2401  P         23.8390   15.7000    3.6330 P.3   112  C112        0.2141
   2402  C5'       24.9030   18.1020    3.7430 C.3   112  C112        0.1812
   2403  O5'       24.2350   17.0390    4.4140 O.3   112  C112       -0.3114
   2404  C4'       25.1030   19.2810    4.6770 C.3   112  C112        0.1773
   2405  O4'       23.8220   19.7310    5.1890 O.3   112  C112       -0.3307
   2406  C3'       25.9040   18.9890    5.9360 C.3   112  C112        0.1860
   2407  O3'       27.2980   18.9760    5.6690 O.3   112  C112       -0.3112
   2408  C2'       25.4950   20.1630    6.8180 C.3   112  C112        0.2309
   2409  O2'       26.1560   21.3680    6.4790 O.3   112  C112       -0.2156
   2410  C1'       24.0030   20.2630    6.4920 C.3   112  C112        0.2420
   2411  N1        23.1300   19.5450    7.4870 N.ar  112  C112       -0.2535
   2412  C2        22.9200   20.1180    8.7590 C.ar  112  C112        0.3532
   2413  O2        23.4500   21.2010    9.0420 O.2   112  C112       -0.2443
   2414  N3        22.1290   19.4710    9.6510 N.ar  112  C112       -0.1739
   2415  C4        21.5620   18.3030    9.3290 C.ar  112  C112        0.1759
   2416  N4        20.7970   17.7080   10.2510 N.pl3 112  C112       -0.1070
   2417  C5        21.7630   17.6980    8.0480 C.ar  112  C112        0.0566
   2418  C6        22.5420   18.3470    7.1690 C.ar  112  C112        0.0850
   2419  OP1       24.9490   15.3210    2.7340 O.2   112  C112       -0.5172
   2420  OP2       23.3490   14.7300    4.6390 O.co2 112  C112       -0.4373
   2421  P         28.2680   17.9860    6.4690 P.3   113  U113        0.2141
   2422  C5'       29.0680   19.8760    8.1160 C.3   113  U113        0.1812
   2423  O5'       28.3610   18.6570    7.9170 O.3   113  U113       -0.3114
   2424  C4'       28.8180   20.4210    9.5090 C.3   113  U113        0.1773
   2425  O4'       27.3940   20.6240    9.7170 O.3   113  U113       -0.3307
   2426  C3'       29.2150   19.5040   10.6580 C.3   113  U113        0.1860
   2427  O3'       30.6230   19.5420   10.9010 O.3   113  U113       -0.3112
   2428  C2'       28.4230   20.1340   11.7980 C.3   113  U113        0.2309
   2429  O2'       29.0550   21.2730   12.3480 O.3   113  U113       -0.2156
   2430  C1'       27.1180   20.5380   11.1040 C.3   113  U113        0.2420
   2431  N1        26.0190   19.5540   11.3990 N.ar  113  U113       -0.2534
   2432  C2        25.3570   19.6500   12.6150 C.ar  113  U113        0.3546
   2433  O2        25.5960   20.4910   13.4620 O.2   113  U113       -0.2443
   2434  N3        24.3810   18.7080   12.8180 N.ar  113  U113       -0.1530
   2435  C4        24.0150   17.6950   11.9560 C.ar  113  U113        0.2846
   2436  O4        23.1210   16.9350   12.2960 O.2   113  U113       -0.2650
   2437  C5        24.7430   17.6490   10.7060 C.ar  113  U113        0.0814
   2438  C6        25.7030   18.5590   10.4820 C.ar  113  U113        0.0870
   2439  OP1       29.5860   18.0460    5.8000 O.2   113  U113       -0.5172
   2440  OP2       27.5970   16.6770    6.6350 O.co2 113  U113       -0.4373
   2441  P         31.5600   18.2440   10.7780 P.3   114  G114        0.2141
   2442  C5'       30.5580   16.7540   12.7300 C.3   114  G114        0.1812
   2443  O5'       31.5720   17.6410   12.2580 O.3   114  G114       -0.3114
   2444  C4'       30.7270   16.5260   14.2220 C.3   114  G114        0.1773
   2445  O4'       31.9100   15.7120   14.4530 O.3   114  G114       -0.3307
   2446  C3'       30.9700   17.7860   15.0420 C.3   114  G114        0.1860
   2447  O3'       29.7500   18.4330   15.3830 O.3   114  G114       -0.3112
   2448  C2'       31.6970   17.2120   16.2550 C.3   114  G114        0.2309
   2449  O2'       30.8420   16.5880   17.1960 O.3   114  G114       -0.2156
   2450  C1'       32.6240   16.2020   15.5780 C.3   114  G114        0.2408
   2451  N1        36.9280   18.4680   17.1160 N.ar  114  G114       -0.1709
   2452  C2        35.9060   17.9370   17.8680 C.ar  114  G114        0.2606
   2453  N2        36.0320   18.0250   19.2010 N.pl3 114  G114       -0.0859
   2454  N3        34.8280   17.3660   17.3420 N.ar  114  G114       -0.1918
   2455  C4        34.8480   17.3630   15.9810 C.ar  114  G114        0.1723
   2456  C5        35.8210   17.8640   15.1450 C.ar  114  G114        0.1748
   2457  C6        36.9680   18.4720   15.7210 C.ar  114  G114        0.3023
   2458  O6        37.9390   18.9770   15.1500 O.2   114  G114       -0.2633
   2459  N7        35.4770   17.6620   13.8130 N.ar  114  G114       -0.2173
   2460  C8        34.3220   17.0570   13.8710 C.ar  114  G114        0.1817
   2461  N9        33.8770   16.8350   15.1530 N.ar  114  G114       -0.2693
   2462  OP1       32.9270   18.7440   10.5130 O.3   114  G114       -0.4373
   2463  OP2       30.9500   17.2560    9.8620 O.co2 114  G114       -0.5172
   2464  P         29.6700   20.0240   15.5840 P.3   115  G115        0.2141
   2465  C5'       30.1180   19.8500   18.1670 C.3   115  G115        0.1812
   2466  O5'       30.5440   20.3070   16.8880 O.3   115  G115       -0.3114
   2467  C4'       31.1200   20.2630   19.2250 C.3   115  G115        0.1773
   2468  O4'       32.4030   19.6560   18.9230 O.3   115  G115       -0.3307
   2469  C3'       31.4190   21.7530   19.2790 C.3   115  G115        0.1860
   2470  O3'       30.4380   22.4400   20.0450 O.3   115  G115       -0.3112
   2471  C2'       32.7920   21.7590   19.9350 C.3   115  G115        0.2309
   2472  O2'       32.7430   21.5320   21.3330 O.3   115  G115       -0.2156
   2473  C1'       33.4440   20.5670   19.2370 C.3   115  G115        0.2408
   2474  N1        37.6410   22.6540   17.1740 N.ar  115  G115       -0.1709
   2475  C2        37.3110   22.5160   18.5060 C.ar  115  G115        0.2606
   2476  N2        38.2000   22.9870   19.3930 N.pl3 115  G115       -0.0859
   2477  N3        36.1830   21.9520   18.9320 N.ar  115  G115       -0.1918
   2478  C4        35.3920   21.5340   17.9070 C.ar  115  G115        0.1723
   2479  C5        35.6360   21.6320   16.5540 C.ar  115  G115        0.1748
   2480  C6        36.8400   22.2330   16.1100 C.ar  115  G115        0.3023
   2481  O6        37.2160   22.4020   14.9450 O.2   115  G115       -0.2633
   2482  N7        34.5900   21.0890   15.8210 N.ar  115  G115       -0.2173
   2483  C8        33.7470   20.6780   16.7220 C.ar  115  G115        0.1817
   2484  N9        34.1630   20.9140   18.0100 N.ar  115  G115       -0.2693
   2485  OP1       28.2530   20.3410   15.8710 O.3   115  G115       -0.4373
   2486  OP2       30.3550   20.6960   14.4600 O.co2 115  G115       -0.5172
   2487  P         29.9220   23.8780   19.5690 P.3   116  G116        0.2141
   2488  C5'       31.0630   25.0060   21.6310 C.3   116  G116        0.1812
   2489  O5'       30.9790   24.8780   20.2180 O.3   116  G116       -0.3114
   2490  C4'       32.3860   25.6210   22.0270 C.3   116  G116        0.1773
   2491  O4'       33.4570   24.7410   21.6010 O.3   116  G116       -0.3307
   2492  C3'       32.7380   26.9370   21.3480 C.3   116  G116        0.1860
   2493  O3'       32.0300   28.0690   21.8810 O.3   116  G116       -0.3112
   2494  C2'       34.2380   26.9580   21.6270 C.3   116  G116        0.2309
   2495  O2'       34.5640   27.2520   22.9760 O.3   116  G116       -0.2156
   2496  C1'       34.5900   25.5170   21.2570 C.3   116  G116        0.2408
   2497  N1        37.9920   26.3770   17.5760 N.ar  116  G116       -0.1709
   2498  C2        38.0800   26.6280   18.9300 C.ar  116  G116        0.2606
   2499  N2        39.2140   27.1860   19.3810 N.pl3 116  G116       -0.0859
   2500  N3        37.1090   26.3500   19.7920 N.ar  116  G116       -0.1918
   2501  C4        36.0260   25.7920   19.1930 C.ar  116  G116        0.1723
   2502  C5        35.8400   25.5050   17.8550 C.ar  116  G116        0.1748
   2503  C6        36.8810   25.8040   16.9430 C.ar  116  G116        0.3023
   2504  O6        36.8960   25.6150   15.7210 O.2   116  G116       -0.2633
   2505  N7        34.5900   24.9360   17.6450 N.ar  116  G116       -0.2173
   2506  C8        34.0540   24.8970   18.8360 C.ar  116  G116        0.1817
   2507  N9        34.8700   25.3930   19.8250 N.ar  116  G116       -0.2693
   2508  OP1       28.5970   24.0940   20.1860 O.3   116  G116       -0.4373
   2509  OP2       30.0760   23.9660   18.0980 O.co2 116  G116       -0.5172
   2510  P         31.7790   29.3560   20.9530 P.3   117  G117        0.2141
   2511  C5'       33.9980   30.5120   21.7790 C.3   117  G117        0.1812
   2512  O5'       33.2610   29.9150   20.7080 O.3   117  G117       -0.3114
   2513  C4'       35.4560   30.7350   21.4120 C.3   117  G117        0.1773
   2514  O4'       36.0120   29.5850   20.7210 O.3   117  G117       -0.3307
   2515  C3'       35.6970   31.8960   20.4600 C.3   117  G117        0.1860
   2516  O3'       35.7320   33.1270   21.1690 O.3   117  G117       -0.3112
   2517  C2'       37.0590   31.5370   19.8780 C.3   117  G117        0.2309
   2518  O2'       38.1340   31.8760   20.7330 O.3   117  G117       -0.2156
   2519  C1'       36.9440   30.0210   19.7430 C.3   117  G117        0.2408
   2520  N1        38.0640   29.6810   14.7510 N.ar  117  G117       -0.1709
   2521  C2        38.8180   30.2140   15.7760 C.ar  117  G117        0.2606
   2522  N2        40.0180   30.7190   15.4440 N.pl3 117  G117       -0.0859
   2523  N3        38.4200   30.2460   17.0450 N.ar  117  G117       -0.1918
   2524  C4        37.1880   29.6990   17.2230 C.ar  117  G117        0.1723
   2525  C5        36.3610   29.1500   16.2650 C.ar  117  G117        0.1748
   2526  C6        36.7970   29.1150   14.9160 C.ar  117  G117        0.3023
   2527  O6        36.1920   28.6600   13.9400 O.2   117  G117       -0.2633
   2528  N7        35.1790   28.6950   16.8320 N.ar  117  G117       -0.2173
   2529  C8        35.3100   28.9750   18.0990 C.ar  117  G117        0.1817
   2530  N9        36.5020   29.5850   18.4140 N.ar  117  G117       -0.2693
   2531  OP1       31.0250   30.3540   21.7440 O.3   117  G117       -0.4373
   2532  OP2       31.2410   28.9040   19.6510 O.co2 117  G117       -0.5172
   2533  P         35.2640   34.4810   20.4550 P.3   118  G118        0.2141
   2534  C5'       37.7620   35.2450   20.0170 C.3   118  G118        0.1812
   2535  O5'       36.4990   34.8350   19.5030 O.3   118  G118       -0.3114
   2536  C4'       38.7230   35.5120   18.8720 C.3   118  G118        0.1773
   2537  O4'       39.0400   34.2700   18.1900 O.3   118  G118       -0.3307
   2538  C3'       38.1830   36.4070   17.7640 C.3   118  G118        0.1860
   2539  O3'       38.3120   37.7780   18.1080 O.3   118  G118       -0.3112
   2540  C2'       39.0720   36.0080   16.5900 C.3   118  G118        0.2309
   2541  O2'       40.3690   36.5690   16.6560 O.3   118  G118       -0.2156
   2542  C1'       39.1450   34.5000   16.7930 C.3   118  G118        0.2408
   2543  N1        37.4790   32.6230   12.3320 N.ar  118  G118       -0.1709
   2544  C2        38.6340   33.3300   12.5960 C.ar  118  G118        0.2606
   2545  N2        39.4450   33.5640   11.5530 N.pl3 118  G118       -0.0859
   2546  N3        38.9670   33.7760   13.8060 N.ar  118  G118       -0.1918
   2547  C4        38.0410   33.4540   14.7500 C.ar  118  G118        0.1723
   2548  C5        36.8620   32.7540   14.5810 C.ar  118  G118        0.1748
   2549  C6        36.5200   32.2840   13.2880 C.ar  118  G118        0.3023
   2550  O6        35.5110   31.6490   12.9530 O.2   118  G118       -0.2633
   2551  N7        36.1790   32.6280   15.7840 N.ar  118  G118       -0.2173
   2552  C8        36.9440   33.2390   16.6440 C.ar  118  G118        0.1817
   2553  N9        38.0920   33.7640   16.0930 N.ar  118  G118       -0.2693
   2554  OP1       35.1290   35.5120   21.5080 O.3   118  G118       -0.4373
   2555  OP2       34.1110   34.1810   19.5750 O.co2 118  G118       -0.5172
   2556  P         37.1760   38.8220   17.6840 P.3   119  U119        0.2141
   2557  C5'       38.4820   39.5580   15.5280 C.3   119  U119        0.1812
   2558  O5'       37.3420   38.9170   16.0930 O.3   119  U119       -0.3114
   2559  C4'       38.6100   39.2590   14.0470 C.3   119  U119        0.1773
   2560  O4'       38.6610   37.8260   13.8200 O.3   119  U119       -0.3307
   2561  C3'       37.4410   39.7040   13.1810 C.3   119  U119        0.1860
   2562  O3'       37.4640   41.1050   12.9240 O.3   119  U119       -0.3112
   2563  C2'       37.7000   38.8700   11.9320 C.3   119  U119        0.2309
   2564  O2'       38.7650   39.3580   11.1380 O.3   119  U119       -0.2156
   2565  C1'       38.0720   37.5290   12.5630 C.3   119  U119        0.2420
   2566  N1        36.8780   36.6140   12.7100 N.ar  119  U119       -0.2534
   2567  C2        36.4310   35.9160   11.5970 C.ar  119  U119        0.3546
   2568  O2        36.9450   35.9860   10.4910 O.2   119  U119       -0.2443
   2569  N3        35.3380   35.1130   11.8230 N.ar  119  U119       -0.1530
   2570  C4        34.6560   34.9410   13.0140 C.ar  119  U119        0.2846
   2571  O4        33.6940   34.1820   13.0490 O.2   119  U119       -0.2650
   2572  C5        35.1730   35.6960   14.1300 C.ar  119  U119        0.0814
   2573  C6        36.2400   36.4840   13.9370 C.ar  119  U119        0.0870
   2574  OP1       37.5360   40.1230   18.2950 O.3   119  U119       -0.4373
   2575  OP2       35.8520   38.2160   17.9550 O.co2 119  U119       -0.5172
   2576  P         36.0880   41.9150   12.7630 P.3   120  A120        0.2141
   2577  C5'       36.3170   41.7430   10.1510 C.3   120  A120        0.1812
   2578  O5'       35.5530   41.4690   11.3230 O.3   120  A120       -0.3114
   2579  C4'       35.7440   41.0220    8.9460 C.3   120  A120        0.1773
   2580  O4'       35.8380   39.5840    9.1130 O.3   120  A120       -0.3307
   2581  C3'       34.2610   41.2560    8.6960 C.3   120  A120        0.1860
   2582  O3'       34.0400   42.5190    8.0740 O.3   120  A120       -0.3112
   2583  C2'       33.9410   40.0760    7.7860 C.3   120  A120        0.2309
   2584  O2'       34.3950   40.2540    6.4570 O.3   120  A120       -0.2156
   2585  C1'       34.7350   38.9640    8.4670 C.3   120  A120        0.2408
   2586  N1        31.3470   35.1210    9.1900 N.ar  120  A120       -0.2040
   2587  C2        31.8920   35.6300    8.0750 C.ar  120  A120        0.2016
   2588  N3        32.7680   36.6320    7.9620 N.ar  120  A120       -0.2048
   2589  C4        33.0900   37.1450    9.1660 C.ar  120  A120        0.1692
   2590  C5        32.6090   36.7270   10.3960 C.ar  120  A120        0.1518
   2591  C6        31.6870   35.6520   10.3870 C.ar  120  A120        0.1919
   2592  N6        31.1380   35.1390   11.4920 N.pl3 120  A120       -0.1054
   2593  N7        33.1600   37.4820   11.4190 N.ar  120  A120       -0.2193
   2594  C8        33.9480   38.3280   10.7980 C.ar  120  A120        0.1816
   2595  N9        33.9590   38.1840    9.4370 N.ar  120  A120       -0.2693
   2596  OP1       36.4340   43.3540   12.7220 O.2   120  A120       -0.5172
   2597  OP2       35.1230   41.4150   13.7710 O.co2 120  A120       -0.4373
   2598  P         32.7010   43.3440    8.3830 P.3   121  U121        0.2141
   2599  C5'       31.6690   42.6240    6.0640 C.3   121  U121        0.1812
   2600  O5'       31.6060   42.5870    7.4920 O.3   121  U121       -0.3114
   2601  C4'       30.8320   41.5200    5.4390 C.3   121  U121        0.1773
   2602  O4'       31.2190   40.2290    5.9780 O.3   121  U121       -0.3307
   2603  C3'       29.3350   41.5930    5.7110 C.3   121  U121        0.1860
   2604  O3'       28.6950   42.4990    4.8250 O.3   121  U121       -0.3112
   2605  C2'       28.9110   40.1480    5.4600 C.3   121  U121        0.2309
   2606  O2'       28.7710   39.8380    4.0860 O.3   121  U121       -0.2156
   2607  C1'       30.0830   39.3800    6.0650 C.3   121  U121        0.2420
   2608  N1        29.8450   38.9500    7.4920 N.ar  121  U121       -0.2534
   2609  C2        29.1060   37.8020    7.7510 C.ar  121  U121        0.3546
   2610  O2        28.6230   37.0880    6.8890 O.2   121  U121       -0.2443
   2611  N3        28.9500   37.5060    9.0860 N.ar  121  U121       -0.1530
   2612  C4        29.4430   38.2250   10.1620 C.ar  121  U121        0.2846
   2613  O4        29.2220   37.8390   11.3030 O.2   121  U121       -0.2650
   2614  C5        30.1970   39.4050    9.8220 C.ar  121  U121        0.0814
   2615  C6        30.3610   39.7110    8.5320 C.ar  121  U121        0.0870
   2616  OP1       32.8920   44.7150    7.8580 O.2   121  U121       -0.5172
   2617  OP2       32.3410   43.1580    9.8060 O.co2 121  U121       -0.4373
   2618  P         27.4560   43.3820    5.3250 P.3   122  G122        0.2141
   2619  C5'       25.3580   41.9330    4.6640 C.3   122  G122        0.1812
   2620  O5'       26.3140   42.3050    5.6480 O.3   122  G122       -0.3114
   2621  C4'       24.6860   40.6190    5.0200 C.3   122  G122        0.1773
   2622  O4'       25.6200   39.7100    5.6600 O.3   122  G122       -0.3307
   2623  C3'       23.5700   40.6860    6.0510 C.3   122  G122        0.1860
   2624  O3'       22.3770   41.2530    5.5320 O.3   122  G122       -0.3112
   2625  C2'       23.4170   39.2000    6.3480 C.3   122  G122        0.2309
   2626  O2'       22.7900   38.4870    5.2960 O.3   122  G122       -0.2156
   2627  C1'       24.8880   38.8070    6.4740 C.3   122  G122        0.2408
   2628  N1        24.6050   36.6010   11.0460 N.ar  122  G122       -0.1709
   2629  C2        23.9900   36.2570    9.8630 C.ar  122  G122        0.2606
   2630  N2        23.1870   35.1830    9.8790 N.pl3 122  G122       -0.0859
   2631  N3        24.1540   36.9270    8.7290 N.ar  122  G122       -0.1918
   2632  C4        24.9920   37.9860    8.8640 C.ar  122  G122        0.1723
   2633  C5        25.6520   38.4130    9.9950 C.ar  122  G122        0.1748
   2634  C6        25.4690   37.6860   11.2000 C.ar  122  G122        0.3023
   2635  O6        25.9690   37.9150   12.3090 O.2   122  G122       -0.2633
   2636  N7        26.4170   39.5410    9.7210 N.ar  122  G122       -0.2173
   2637  C8        26.2060   39.7690    8.4510 C.ar  122  G122        0.1817
   2638  N9        25.3520   38.8610    7.8640 N.ar  122  G122       -0.2693
   2639  OP1       27.0500   44.2300    4.1820 O.2   122  G122       -0.5172
   2640  OP2       27.8190   44.0140    6.6140 O.co2 122  G122       -0.4373
   2641  P         21.3350   41.9440    6.5320 P.3   123  G123        0.2141
   2642  C5'       19.6330   39.9270    6.5010 C.3   123  G123        0.1812
   2643  O5'       20.6010   40.6920    7.2110 O.3   123  G123       -0.3114
   2644  C4'       19.0800   38.8150    7.3760 C.3   123  G123        0.1773
   2645  O4'       20.1550   37.9560    7.8410 O.3   123  G123       -0.3307
   2646  C3'       18.4090   39.2430    8.6740 C.3   123  G123        0.1860
   2647  O3'       17.1030   39.7750    8.4690 O.3   123  G123       -0.3112
   2648  C2'       18.4150   37.9160    9.4290 C.3   123  G123        0.2309
   2649  O2'       17.4840   36.9740    8.9340 O.3   123  G123       -0.2156
   2650  C1'       19.8380   37.4540    9.1300 C.3   123  G123        0.2408
   2651  N1        21.4780   37.1530   13.9640 N.ar  123  G123       -0.1709
   2652  C2        20.4610   36.4640   13.3470 C.ar  123  G123        0.2606
   2653  N2        19.7940   35.5830   14.1090 N.pl3 123  G123       -0.0859
   2654  N3        20.1290   36.6260   12.0670 N.ar  123  G123       -0.1918
   2655  C4        20.8980   37.5550   11.4400 C.ar  123  G123        0.1723
   2656  C5        21.9320   38.2950   11.9710 C.ar  123  G123        0.1748
   2657  C6        22.2790   38.1050   13.3340 C.ar  123  G123        0.3023
   2658  O6        23.1680   38.6720   13.9790 O.2   123  G123       -0.2633
   2659  N7        22.4750   39.1400   11.0120 N.ar  123  G123       -0.2173
   2660  C8        21.7740   38.9020    9.9380 C.ar  123  G123        0.1817
   2661  N9        20.7980   37.9490   10.1200 N.ar  123  G123       -0.2693
   2662  OP1       20.3760   42.7050    5.6990 O.2   123  G123       -0.5172
   2663  OP2       22.0770   42.6350    7.6120 O.co2 123  G123       -0.4373
   2664  P         16.5460   40.9400    9.4250 P.3   124  G124        0.2141
   2665  C5'       15.2390   39.2300   10.9140 C.3   124  G124        0.1812
   2666  O5'       16.2950   40.1800   10.8090 O.3   124  G124       -0.3114
   2667  C4'       15.2750   38.5160   12.2500 C.3   124  G124        0.1773
   2668  O4'       16.6000   37.9810   12.5010 O.3   124  G124       -0.3307
   2669  C3'       15.0290   39.4160   13.4480 C.3   124  G124        0.1860
   2670  O3'       13.6390   39.7000   13.6230 O.3   124  G124       -0.3112
   2671  C2'       15.6110   38.5790   14.5770 C.3   124  G124        0.2309
   2672  O2'       14.7410   37.5470   14.9970 O.3   124  G124       -0.2156
   2673  C1'       16.8570   38.0090   13.8980 C.3   124  G124        0.2408
   2674  N1        20.2340   39.3280   17.4700 N.ar  124  G124       -0.1709
   2675  C2        19.1430   38.4900   17.5550 C.ar  124  G124        0.2606
   2676  N2        18.9000   37.9170   18.7460 N.pl3 124  G124       -0.0859
   2677  N3        18.3360   38.2290   16.5340 N.ar  124  G124       -0.1918
   2678  C4        18.7050   38.8780   15.3990 C.ar  124  G124        0.1723
   2679  C5        19.7710   39.7340   15.2120 C.ar  124  G124        0.1748
   2680  C6        20.6290   40.0040   16.3120 C.ar  124  G124        0.3023
   2681  O6        21.6300   40.7340   16.3440 O.2   124  G124       -0.2633
   2682  N7        19.8020   40.1910   13.8990 N.ar  124  G124       -0.2173
   2683  C8        18.7700   39.6160   13.3330 C.ar  124  G124        0.1817
   2684  N9        18.0580   38.8010   14.1850 N.ar  124  G124       -0.2693
   2685  OP1       15.2480   41.3900    8.8800 O.2   124  G124       -0.5172
   2686  OP2       17.6190   41.9380    9.6440 O.co2 124  G124       -0.4373
   2687  P         13.2100   41.1840   14.0390 P.3   125  G125        0.2141
   2688  C5'       13.5710   40.8260   16.6500 C.3   125  G125        0.1812
   2689  O5'       14.0000   41.3910   15.4180 O.3   125  G125       -0.3114
   2690  C4'       14.4710   41.3120   17.7730 C.3   125  G125        0.1773
   2691  O4'       15.8360   40.8730   17.5440 O.3   125  G125       -0.3307
   2692  C3'       14.5690   42.8250   17.8820 C.3   125  G125        0.1860
   2693  O3'       13.4610   43.3460   18.6120 O.3   125  G125       -0.3112
   2694  C2'       15.9190   43.0150   18.5740 C.3   125  G125        0.2309
   2695  O2'       15.8580   42.9450   19.9890 O.3   125  G125       -0.2156
   2696  C1'       16.7440   41.8720   17.9680 C.3   125  G125        0.2408
   2697  N1        21.1790   43.8900   16.4940 N.ar  125  G125       -0.1709
   2698  C2        20.7940   43.4610   17.7450 C.ar  125  G125        0.2606
   2699  N2        21.7020   43.5930   18.7240 N.pl3 125  G125       -0.0859
   2700  N3        19.6000   42.9390   18.0080 N.ar  125  G125       -0.1918
   2701  C4        18.8080   42.8820   16.9020 C.ar  125  G125        0.1723
   2702  C5        19.1040   43.2850   15.6160 C.ar  125  G125        0.1748
   2703  C6        20.3810   43.8370   15.3520 C.ar  125  G125        0.3023
   2704  O6        20.8230   44.2520   14.2760 O.2   125  G125       -0.2633
   2705  N7        18.0320   43.0610   14.7610 N.ar  125  G125       -0.2173
   2706  C8        17.1210   42.5360   15.5350 C.ar  125  G125        0.1817
   2707  N9        17.5220   42.3880   16.8430 N.ar  125  G125       -0.2693
   2708  OP1       11.7490   41.1920   14.2840 O.3   125  G125       -0.4373
   2709  OP2       13.7880   42.1320   13.0630 O.co2 125  G125       -0.5172
   2710  P         12.6570   44.6140   18.0540 P.3   126  A126        0.2141
   2711  C5'       13.4310   47.1000   17.7850 C.3   126  A126        0.1812
   2712  O5'       13.6820   45.8060   18.3200 O.3   126  A126       -0.3114
   2713  C4'       14.4090   48.1000   18.3630 C.3   126  A126        0.1773
   2714  O4'       14.1150   48.2750   19.7680 O.3   126  A126       -0.3307
   2715  C3'       15.8690   47.6670   18.3460 C.3   126  A126        0.1860
   2716  O3'       16.4630   47.9620   17.0860 O.3   126  A126       -0.3112
   2717  C2'       16.4650   48.5000   19.4750 C.3   126  A126        0.2309
   2718  O2'       16.7020   49.8480   19.1000 O.3   126  A126       -0.2156
   2719  C1'       15.3250   48.4500   20.4840 C.3   126  A126        0.2408
   2720  N1        17.7880   46.8560   24.7280 N.ar  126  A126       -0.2040
   2721  C2        18.0410   47.8680   23.8850 C.ar  126  A126        0.2016
   2722  N3        17.3580   48.2210   22.7940 N.ar  126  A126       -0.2048
   2723  C4        16.3080   47.4020   22.5840 C.ar  126  A126        0.1692
   2724  C5        15.9290   46.3200   23.3610 C.ar  126  A126        0.1518
   2725  C6        16.7240   46.0510   24.4950 C.ar  126  A126        0.1919
   2726  N6        16.4730   45.0420   25.3360 N.pl3 126  A126       -0.1054
   2727  N7        14.8000   45.7060   22.8460 N.ar  126  A126       -0.2193
   2728  C8        14.5180   46.4220   21.7830 C.ar  126  A126        0.1816
   2729  N9        15.3900   47.4540   21.5600 N.ar  126  A126       -0.2693
   2730  OP1       11.4980   44.8410   18.9430 O.3   126  A126       -0.4373
   2731  OP2       12.4470   44.4680   16.5940 O.co2 126  A126       -0.5172
   2732  P         17.4890   46.9180   16.4340 P.3   127  A127        0.2141
   2733  C5'       19.4670   48.2510   17.4960 C.3   127  A127        0.1812
   2734  O5'       18.7640   47.0160   17.3920 O.3   127  A127       -0.3114
   2735  C4'       20.4430   48.2060   18.6520 C.3   127  A127        0.1773
   2736  O4'       19.7420   47.9610   19.8940 O.3   127  A127       -0.3307
   2737  C3'       21.4820   47.1020   18.5380 C.3   127  A127        0.1860
   2738  O3'       22.5580   47.6440   17.7660 O.3   127  A127       -0.3112
   2739  C2'       21.8250   46.8500   20.0050 C.3   127  A127        0.2309
   2740  O2'       22.7640   47.7970   20.4750 O.3   127  A127       -0.2156
   2741  C1'       20.5060   47.1090   20.7300 C.3   127  A127        0.2408
   2742  N1        19.1500   43.7220   24.4230 N.ar  127  A127       -0.2040
   2743  C2        20.1010   44.6680   24.3930 C.ar  127  A127        0.2016
   2744  N3        20.4030   45.5100   23.4020 N.ar  127  A127       -0.2048
   2745  C4        19.6110   45.3160   22.3270 C.ar  127  A127        0.1692
   2746  C5        18.5950   44.3790   22.2130 C.ar  127  A127        0.1518
   2747  C6        18.3670   43.5470   23.3330 C.ar  127  A127        0.1919
   2748  N6        17.4190   42.6020   23.3700 N.pl3 127  A127       -0.1054
   2749  N7        17.9880   44.4600   20.9720 N.ar  127  A127       -0.2193
   2750  C8        18.6370   45.4290   20.3700 C.ar  127  A127        0.1816
   2751  N9        19.6400   45.9860   21.1190 N.ar  127  A127       -0.2693
   2752  OP1       17.8480   47.4360   15.0940 O.2   127  A127       -0.5172
   2753  OP2       16.9130   45.5620   16.5590 O.co2 127  A127       -0.4373
   2754  P         23.8250   46.7970   17.2730 P.3   128  U128        0.2141
   2755  C5'       26.0960   46.8810   18.6190 C.3   128  U128        0.1812
   2756  O5'       24.6830   46.6780   18.6150 O.3   128  U128       -0.3114
   2757  C4'       26.6190   46.8730   20.0420 C.3   128  U128        0.1773
   2758  O4'       25.9140   47.8520   20.8410 O.3   128  U128       -0.3307
   2759  C3'       26.3730   45.5900   20.8180 C.3   128  U128        0.1860
   2760  O3'       27.2860   44.5730   20.4130 O.3   128  U128       -0.3112
   2761  C2'       26.5920   46.0680   22.2570 C.3   128  U128        0.2309
   2762  O2'       27.9520   46.0540   22.6430 O.3   128  U128       -0.2156
   2763  C1'       26.0710   47.5080   22.2120 C.3   128  U128        0.2420
   2764  N1        24.7710   47.8050   22.9400 N.ar  128  U128       -0.2534
   2765  C2        23.7120   46.9010   22.9950 C.ar  128  U128        0.3546
   2766  O2        23.7120   45.7990   22.4830 O.2   128  U128       -0.2443
   2767  N3        22.6020   47.3370   23.6810 N.ar  128  U128       -0.1530
   2768  C4        22.4370   48.5560   24.3140 C.ar  128  U128        0.2846
   2769  O4        21.3830   48.7980   24.8920 O.2   128  U128       -0.2650
   2770  C5        23.5700   49.4470   24.2190 C.ar  128  U128        0.0814
   2771  C6        24.6630   49.0450   23.5500 C.ar  128  U128        0.0870
   2772  OP1       24.5570   47.6350   16.2970 O.2   128  U128       -0.5172
   2773  OP2       23.3850   45.4350   16.8930 O.co2 128  U128       -0.4373
   2774  P         26.8120   43.0670   20.1140 P.3   129  A129        0.2141
   2775  C5'       27.2560   42.5420   22.6740 C.3   129  A129        0.1812
   2776  O5'       26.3770   42.5080   21.5510 O.3   129  A129       -0.3114
   2777  C4'       26.4630   42.4060   23.9610 C.3   129  A129        0.1773
   2778  O4'       25.3200   43.3090   23.9580 O.3   129  A129       -0.3307
   2779  C3'       25.8540   41.0260   24.1570 C.3   129  A129        0.1860
   2780  O3'       26.7970   40.1110   24.7330 O.3   129  A129       -0.3112
   2781  C2'       24.6890   41.3400   25.0860 C.3   129  A129        0.2309
   2782  O2'       25.0960   41.5230   26.4260 O.3   129  A129       -0.2156
   2783  C1'       24.1750   42.6510   24.4810 C.3   129  A129        0.2408
   2784  N1        19.5850   40.5790   23.2770 N.ar  129  A129       -0.2040
   2785  C2        20.2890   40.5940   24.4180 C.ar  129  A129        0.2016
   2786  N3        21.4760   41.1570   24.6540 N.ar  129  A129       -0.2048
   2787  C4        21.9650   41.7680   23.5540 C.ar  129  A129        0.1692
   2788  C5        21.3540   41.8370   22.3120 C.ar  129  A129        0.1518
   2789  C6        20.0960   41.1980   22.1840 C.ar  129  A129        0.1919
   2790  N6        19.3820   41.1780   21.0510 N.pl3 129  A129       -0.1054
   2791  N7        22.1430   42.5440   21.4220 N.ar  129  A129       -0.2193
   2792  C8        23.1980   42.8790   22.1330 C.ar  129  A129        0.1816
   2793  N9        23.1600   42.4490   23.4320 N.ar  129  A129       -0.2693
   2794  OP1       28.0080   42.3310   19.6520 O.3   129  A129       -0.4373
   2795  OP2       25.5890   43.0820   19.2860 O.co2 129  A129       -0.5172
   2796  P         27.2230   38.7800   23.9520 P.3   130  C130        0.2141
   2797  C5'       25.2060   37.4760   25.0490 C.3   130  C130        0.1812
   2798  O5'       25.8560   37.9540   23.8740 O.3   130  C130       -0.3114
   2799  C4'       23.8390   36.9500   24.6710 C.3   130  C130        0.1773
   2800  O4'       23.0130   38.0820   24.2810 O.3   130  C130       -0.3307
   2801  C3'       23.8310   36.0480   23.4420 C.3   130  C130        0.1860
   2802  O3'       24.1480   34.6910   23.7490 O.3   130  C130       -0.3112
   2803  C2'       22.4000   36.2330   22.9640 C.3   130  C130        0.2309
   2804  O2'       21.4440   35.5340   23.7440 O.3   130  C130       -0.2156
   2805  C1'       22.2290   37.7370   23.1520 C.3   130  C130        0.2420
   2806  N1        22.5950   38.5420   21.9230 N.ar  130  C130       -0.2535
   2807  C2        21.6890   38.6120   20.8450 C.ar  130  C130        0.3532
   2808  O2        20.5980   38.0220   20.9110 O.2   130  C130       -0.2443
   2809  N3        22.0270   39.3400   19.7450 N.ar  130  C130       -0.1739
   2810  C4        23.2080   39.9700   19.6860 C.ar  130  C130        0.1759
   2811  N4        23.4920   40.6720   18.5820 N.pl3 130  C130       -0.1070
   2812  C5        24.1440   39.9120   20.7640 C.ar  130  C130        0.0566
   2813  C6        23.7980   39.1950   21.8430 C.ar  130  C130        0.0850
   2814  OP1       28.1740   38.0350   24.8040 O.3   130  C130       -0.4373
   2815  OP2       27.5890   39.1310   22.5610 O.co2 130  C130       -0.5172
   2816  P         24.7850   33.7380   22.6290 P.3   131  C131        0.2141
   2817  C5'       22.4350   32.7070   22.0380 C.3   131  C131        0.1812
   2818  O5'       23.5730   33.4550   21.6270 O.3   131  C131       -0.3114
   2819  C4'       21.4130   32.7000   20.9230 C.3   131  C131        0.1773
   2820  O4'       20.9960   34.0610   20.6330 O.3   131  C131       -0.3307
   2821  C3'       21.9480   32.2210   19.5810 C.3   131  C131        0.1860
   2822  O3'       22.0850   30.8110   19.5220 O.3   131  C131       -0.3112
   2823  C2'       20.8880   32.7770   18.6390 C.3   131  C131        0.2309
   2824  O2'       19.6680   32.0490   18.6250 O.3   131  C131       -0.2156
   2825  C1'       20.7030   34.1680   19.2470 C.3   131  C131        0.2420
   2826  N1        21.5770   35.2100   18.6010 N.ar  131  C131       -0.2535
   2827  C2        21.1920   35.7390   17.3550 C.ar  131  C131        0.3532
   2828  O2        20.1430   35.3440   16.8230 O.2   131  C131       -0.2443
   2829  N3        21.9820   36.6770   16.7660 N.ar  131  C131       -0.1739
   2830  C4        23.1070   37.0870   17.3650 C.ar  131  C131        0.1759
   2831  N4        23.8440   38.0110   16.7430 N.pl3 131  C131       -0.1070
   2832  C5        23.5240   36.5580   18.6280 C.ar  131  C131        0.0566
   2833  C6        22.7390   35.6330   19.2010 C.ar  131  C131        0.0850
   2834  OP1       25.1870   32.4800   23.2920 O.3   131  C131       -0.4373
   2835  OP2       25.8030   34.5170   21.8800 O.co2 131  C131       -0.5172
   2836  P         23.2740   30.1650   18.6640 P.3   132  C132        0.2141
   2837  C5'       21.5870   29.8210   16.6810 C.3   132  C132        0.1812
   2838  O5'       22.7970   30.4080   17.1610 O.3   132  C132       -0.3114
   2839  C4'       21.2460   30.3690   15.3110 C.3   132  C132        0.1773
   2840  O4'       21.0840   31.8100   15.3630 O.3   132  C132       -0.3307
   2841  C3'       22.3300   30.1900   14.2630 C.3   132  C132        0.1860
   2842  O3'       22.3850   28.8530   13.7970 O.3   132  C132       -0.3112
   2843  C2'       21.8340   31.1770   13.2130 C.3   132  C132        0.2309
   2844  O2'       20.7080   30.7010   12.5000 O.3   132  C132       -0.2156
   2845  C1'       21.4670   32.3610   14.1140 C.3   132  C132        0.2420
   2846  N1        22.6030   33.3420   14.2930 N.ar  132  C132       -0.2535
   2847  C2        22.9560   34.1830   13.2210 C.ar  132  C132        0.3532
   2848  O2        22.3350   34.1170   12.1520 O.2   132  C132       -0.2443
   2849  N3        23.9800   35.0610   13.3790 N.ar  132  C132       -0.1739
   2850  C4        24.6410   35.1290   14.5360 C.ar  132  C132        0.1759
   2851  N4        25.6390   36.0160   14.6180 N.pl3 132  C132       -0.1070
   2852  C5        24.3080   34.2840   15.6430 C.ar  132  C132        0.0566
   2853  C6        23.2950   33.4180   15.4780 C.ar  132  C132        0.0850
   2854  OP1       23.2570   28.7140   18.9480 O.3   132  C132       -0.4373
   2855  OP2       24.5160   30.9520   18.8640 O.co2 132  C132       -0.5172
   2856  P         23.7920   28.1990   13.4080 P.3   133  A133        0.2141
   2857  C5'       23.0460   28.4030   10.9130 C.3   133  A133        0.1812
   2858  O5'       24.0080   28.7170   11.9110 O.3   133  A133       -0.3114
   2859  C4'       23.2920   29.1910    9.6420 C.3   133  A133        0.1773
   2860  O4'       23.1740   30.6120    9.9050 O.3   133  A133       -0.3307
   2861  C3'       24.6800   29.0210    9.0450 C.3   133  A133        0.1860
   2862  O3'       24.7200   27.8300    8.2650 O.3   133  A133       -0.3112
   2863  C2'       24.7890   30.2890    8.2060 C.3   133  A133        0.2309
   2864  O2'       24.0740   30.2040    6.9860 O.3   133  A133       -0.2156
   2865  C1'       24.1200   31.3140    9.1180 C.3   133  A133        0.2408
   2866  N1        27.4470   35.2440    9.5640 N.ar  133  A133       -0.2040
   2867  C2        26.7580   34.7760    8.5090 C.ar  133  A133        0.2016
   2868  N3        25.9080   33.7450    8.4650 N.ar  133  A133       -0.2048
   2869  C4        25.7920   33.1550    9.6730 C.ar  133  A133        0.1692
   2870  C5        26.4380   33.5240   10.8430 C.ar  133  A133        0.1518
   2871  C6        27.3100   34.6340   10.7640 C.ar  133  A133        0.1919
   2872  N6        27.9990   35.1000   11.8130 N.pl3 133  A133       -0.1054
   2873  N7        26.0780   32.6920   11.8910 N.ar  133  A133       -0.2193
   2874  C8        25.2310   31.8510   11.3430 C.ar  133  A133        0.1816
   2875  N9        25.0140   32.0660   10.0080 N.ar  133  A133       -0.2693
   2876  OP1       23.6010   26.7340   13.4090 O.2   133  A133       -0.5172
   2877  OP2       24.8680   28.7990   14.2290 O.co2 133  A133       -0.4373
   2878  P         26.0370   26.9240    8.1840 P.3   134  U134        0.2141
   2879  C5'       26.6320   27.9130    5.8220 C.3   134  U134        0.1812
   2880  O5'       26.9870   27.7510    7.2010 O.3   134  U134       -0.3114
   2881  C4'       27.4290   29.0390    5.1950 C.3   134  U134        0.1773
   2882  O4'       27.1200   30.2900    5.8650 O.3   134  U134       -0.3307
   2883  C3'       28.9420   28.9270    5.3430 C.3   134  U134        0.1860
   2884  O3'       29.5090   28.0050    4.4090 O.3   134  U134       -0.3112
   2885  C2'       29.3550   30.3760    5.0990 C.3   134  U134        0.2309
   2886  O2'       29.3050   30.7450    3.7350 O.3   134  U134       -0.2156
   2887  C1'       28.2730   31.1220    5.8770 C.3   134  U134        0.2420
   2888  N1        28.6780   31.4850    7.2880 N.ar  134  U134       -0.2534
   2889  C2        29.4190   32.6410    7.5170 C.ar  134  U134        0.3546
   2890  O2        29.7770   33.4120    6.6420 O.2   134  U134       -0.2443
   2891  N3        29.7350   32.8750    8.8370 N.ar  134  U134       -0.1530
   2892  C4        29.4000   32.0920    9.9320 C.ar  134  U134        0.2846
   2893  O4        29.7510   32.4310   11.0570 O.2   134  U134       -0.2650
   2894  C5        28.6330   30.9100    9.6230 C.ar  134  U134        0.0814
   2895  C6        28.3140   30.6600    8.3450 C.ar  134  U134        0.0870
   2896  OP1       25.6540   25.6600    7.5100 O.2   134  U134       -0.5172
   2897  OP2       26.6670   26.8850    9.5220 O.co2 134  U134       -0.4373
   2898  P         30.8800   27.2450    4.7490 P.3   135  A135        0.2141
   2899  C5'       32.2280   28.8940    3.2030 C.3   135  A135        0.1812
   2900  O5'       31.9720   28.3890    4.5110 O.3   135  A135       -0.3114
   2901  C4'       33.1760   30.0750    3.2660 C.3   135  A135        0.1773
   2902  O4'       32.5820   31.1490    4.0390 O.3   135  A135       -0.3307
   2903  C3'       34.5020   29.7980    3.9610 C.3   135  A135        0.1860
   2904  O3'       35.4160   29.1810    3.0640 O.3   135  A135       -0.3112
   2905  C2'       34.9290   31.2050    4.3630 C.3   135  A135        0.2309
   2906  O2'       35.4870   31.9520    3.2980 O.3   135  A135       -0.2156
   2907  C1'       33.5920   31.8060    4.7900 C.3   135  A135        0.2408
   2908  N1        34.4550   33.6450    9.5460 N.ar  135  A135       -0.2040
   2909  C2        34.9070   34.0390    8.3450 C.ar  135  A135        0.2016
   2910  N3        34.6410   33.5140    7.1460 N.ar  135  A135       -0.2048
   2911  C4        33.8090   32.4560    7.2450 C.ar  135  A135        0.1692
   2912  C5        33.2680   31.9360    8.4120 C.ar  135  A135        0.1518
   2913  C6        33.6220   32.5800    9.6180 C.ar  135  A135        0.1919
   2914  N6        33.1720   32.1870   10.8150 N.pl3 135  A135       -0.1054
   2915  N7        32.4570   30.8480    8.1370 N.ar  135  A135       -0.2193
   2916  C8        32.5240   30.7310    6.8310 C.ar  135  A135        0.1816
   2917  N9        33.3180   31.6670    6.2240 N.ar  135  A135       -0.2693
   2918  OP1       31.0800   26.1730    3.7460 O.2   135  A135       -0.5172
   2919  OP2       30.9110   26.9000    6.1870 O.co2 135  A135       -0.4373
   2920  P         36.5030   28.1180    3.5760 P.3   136  C136        0.2141
   2921  C5'       38.4280   29.9020    3.4530 C.3   136  C136        0.1812
   2922  O5'       37.6170   29.0450    4.2590 O.3   136  C136       -0.3114
   2923  C4'       39.1320   30.9470    4.2970 C.3   136  C136        0.1773
   2924  O4'       38.1550   31.7300    5.0310 O.3   136  C136       -0.3307
   2925  C3'       40.0220   30.3940    5.4000 C.3   136  C136        0.1860
   2926  O3'       41.2790   29.9720    4.9020 O.3   136  C136       -0.3112
   2927  C2'       40.1300   31.6010    6.3190 C.3   136  C136        0.2309
   2928  O2'       40.9800   32.6140    5.8160 O.3   136  C136       -0.2156
   2929  C1'       38.6790   32.0700    6.3060 C.3   136  C136        0.2420
   2930  N1        37.8320   31.4900    7.4210 N.ar  136  C136       -0.2535
   2931  C2        37.8950   32.0670    8.7030 C.ar  136  C136        0.3532
   2932  O2        38.6440   33.0340    8.9050 O.2   136  C136       -0.2443
   2933  N3        37.1270   31.5430    9.6980 N.ar  136  C136       -0.1739
   2934  C4        36.3250   30.4990    9.4580 C.ar  136  C136        0.1759
   2935  N4        35.5890   30.0240   10.4680 N.pl3 136  C136       -0.1070
   2936  C5        36.2450   29.8960    8.1650 C.ar  136  C136        0.0566
   2937  C6        37.0050   30.4190    7.1930 C.ar  136  C136        0.0850
   2938  OP1       37.0790   27.4910    2.3650 O.2   136  C136       -0.5172
   2939  OP2       35.8980   27.2700    4.6240 O.co2 136  C136       -0.4373
   2940  P         42.0040   28.7090    5.5660 P.3   137  C137        0.2141
   2941  C5'       43.4650   30.2560    7.1050 C.3   137  C137        0.1812
   2942  O5'       42.4550   29.2580    6.9990 O.3   137  C137       -0.3114
   2943  C4'       43.5710   30.7590    8.5310 C.3   137  C137        0.1773
   2944  O4'       42.3020   31.3240    8.9640 O.3   137  C137       -0.3307
   2945  C3'       43.8470   29.6890    9.5770 C.3   137  C137        0.1860
   2946  O3'       45.2110   29.2870    9.5840 O.3   137  C137       -0.3112
   2947  C2'       43.4340   30.4460   10.8330 C.3   137  C137        0.2309
   2948  O2'       44.3610   31.4450   11.2170 O.3   137  C137       -0.2156
   2949  C1'       42.1280   31.0780   10.3520 C.3   137  C137        0.2420
   2950  N1        40.9180   30.2040   10.6090 N.ar  137  C137       -0.2535
   2951  C2        40.3570   30.1620   11.9000 C.ar  137  C137        0.3532
   2952  O2        40.8460   30.8440   12.8100 O.2   137  C137       -0.2443
   2953  N3        39.2760   29.3730   12.1230 N.ar  137  C137       -0.1739
   2954  C4        38.7510   28.6430   11.1350 C.ar  137  C137        0.1759
   2955  N4        37.6870   27.8840   11.4220 N.pl3 137  C137       -0.1070
   2956  C5        39.3030   28.6610    9.8160 C.ar  137  C137        0.0566
   2957  C6        40.3690   29.4460    9.6050 C.ar  137  C137        0.0850
   2958  OP1       43.2050   28.4380    4.7460 O.2   137  C137       -0.5172
   2959  OP2       41.0080   27.6380    5.7850 O.co2 137  C137       -0.4373
   2960  P         45.6500   27.8400    9.0460 P.3   138  A138        0.2141
   2961  C5'       46.5340   26.5600   11.1760 C.3   138  A138        0.1812
   2962  O5'       46.8040   27.4360   10.0820 O.3   138  A138       -0.3114
   2963  C4'       46.4890   27.3170   12.4900 C.3   138  A138        0.1773
   2964  O4'       45.4320   28.3120   12.4620 O.3   138  A138       -0.3307
   2965  C3'       46.1580   26.4580   13.7020 C.3   138  A138        0.1860
   2966  O3'       47.3290   25.8290   14.2210 O.3   138  A138       -0.3112
   2967  C2'       45.5800   27.4960   14.6600 C.3   138  A138        0.2309
   2968  O2'       46.5680   28.2830   15.3020 O.3   138  A138       -0.2156
   2969  C1'       44.7330   28.3250   13.6960 C.3   138  A138        0.2408
   2970  N1        40.1510   27.2310   15.8450 N.ar  138  A138       -0.2040
   2971  C2        41.2500   27.8170   16.3420 C.ar  138  A138        0.2016
   2972  N3        42.4070   28.0710   15.7280 N.ar  138  A138       -0.2048
   2973  C4        42.3860   27.6590   14.4430 C.ar  138  A138        0.1692
   2974  C5        41.3290   27.0420   13.7940 C.ar  138  A138        0.1518
   2975  C6        40.1560   26.8250   14.5520 C.ar  138  A138        0.1919
   2976  N6        39.0610   26.2430   14.0560 N.pl3 138  A138       -0.1054
   2977  N7        41.6580   26.7540   12.4810 N.ar  138  A138       -0.2193
   2978  C8        42.8880   27.1940   12.3650 C.ar  138  A138        0.1816
   2979  N9        43.3940   27.7560   13.5070 N.ar  138  A138       -0.2693
   2980  OP1       46.2540   28.0310    7.7120 O.2   138  A138       -0.5172
   2981  OP2       44.5260   26.8850    9.2010 O.co2 138  A138       -0.4373
   2982  P         47.2660   24.3480   14.8380 P.3   139  C139        0.2141
   2983  C5'       46.6300   25.3130   17.2130 C.3   139  C139        0.1812
   2984  O5'       46.2890   24.5040   16.0910 O.3   139  C139       -0.3114
   2985  C4'       45.4770   25.3330   18.1960 C.3   139  C139        0.1773
   2986  O4'       44.2930   25.9130   17.5860 O.3   139  C139       -0.3307
   2987  C3'       44.9960   23.9590   18.6340 C.3   139  C139        0.1860
   2988  O3'       45.8660   23.3970   19.6040 O.3   139  C139       -0.3112
   2989  C2'       43.6200   24.3080   19.1890 C.3   139  C139        0.2309
   2990  O2'       43.6690   24.9350   20.4590 O.3   139  C139       -0.2156
   2991  C1'       43.1330   25.2930   18.1240 C.3   139  C139        0.2420
   2992  N1        42.2970   24.6400   17.0380 N.ar  139  C139       -0.2535
   2993  C2        40.9610   24.2770   17.3110 C.ar  139  C139        0.3532
   2994  O2        40.4750   24.4950   18.4330 O.2   139  C139       -0.2443
   2995  N3        40.2250   23.6890   16.3300 N.ar  139  C139       -0.1739
   2996  C4        40.7630   23.4560   15.1250 C.ar  139  C139        0.1759
   2997  N4        39.9940   22.8750   14.1990 N.pl3 139  C139       -0.1070
   2998  C5        42.1150   23.8120   14.8220 C.ar  139  C139        0.0566
   2999  C6        42.8320   24.3920   15.7980 C.ar  139  C139        0.0850
   3000  OP1       48.6260   24.0100   15.3110 O.3   139  C139       -0.4373
   3001  OP2       46.5860   23.4620   13.8680 O.co2 139  C139       -0.5172
   3002  P         46.1520   21.8230   19.6000 P.3   140  U140        0.2141
   3003  C5'       44.2510   21.4550   21.3890 C.3   140  U140        0.1812
   3004  O5'       44.7570   21.2090   20.0810 O.3   140  U140       -0.3114
   3005  C4'       42.8280   20.9440   21.4850 C.3   140  U140        0.1773
   3006  O4'       41.9820   21.6410   20.5270 O.3   140  U140       -0.3307
   3007  C3'       42.6420   19.4790   21.1130 C.3   140  U140        0.1860
   3008  O3'       43.0630   18.6030   22.1580 O.3   140  U140       -0.3112
   3009  C2'       41.1400   19.4530   20.8520 C.3   140  U140        0.2309
   3010  O2'       40.3630   19.5220   22.0310 O.3   140  U140       -0.2156
   3011  C1'       40.9820   20.7490   20.0540 C.3   140  U140        0.2420
   3012  N1        41.0950   20.5420   18.5620 N.ar  140  U140       -0.2534
   3013  C2        40.0030   20.0420   17.8620 C.ar  140  U140        0.3546
   3014  O2        38.9390   19.7520   18.3810 O.2   140  U140       -0.2443
   3015  N3        40.2000   19.8820   16.5090 N.ar  140  U140       -0.1530
   3016  C4        41.3550   20.1650   15.7960 C.ar  140  U140        0.2846
   3017  O4        41.3860   19.9710   14.5860 O.2   140  U140       -0.2650
   3018  C5        42.4470   20.6820   16.5850 C.ar  140  U140        0.0814
   3019  C6        42.2780   20.8480   17.9040 C.ar  140  U140        0.0870
   3020  OP1       47.1850   21.5590   20.6250 O.3   140  U140       -0.4373
   3021  OP2       46.3670   21.3780   18.2030 O.co2 140  U140       -0.5172
   3022  P         43.8760   17.2600   21.8190 P.3   141  G141        0.2141
   3023  C5'       41.8710   15.8490   22.7190 C.3   141  G141        0.1812
   3024  O5'       42.7090   16.1850   21.6250 O.3   141  G141       -0.3114
   3025  C4'       40.5490   15.2860   22.2370 C.3   141  G141        0.1773
   3026  O4'       39.8840   16.2380   21.3660 O.3   141  G141       -0.3307
   3027  C3'       40.6670   14.0480   21.3680 C.3   141  G141        0.1860
   3028  O3'       40.9240   12.8910   22.1550 O.3   141  G141       -0.3112
   3029  C2'       39.2970   14.0380   20.6960 C.3   141  G141        0.2309
   3030  O2'       38.2610   13.5680   21.5360 O.3   141  G141       -0.2156
   3031  C1'       39.1240   15.5290   20.4030 C.3   141  G141        0.2408
   3032  N1        38.0470   15.3440   15.4290 N.ar  141  G141       -0.1709
   3033  C2        37.3190   14.8790   16.5010 C.ar  141  G141        0.2606
   3034  N2        36.1500   14.2850   16.2250 N.pl3 141  G141       -0.0859
   3035  N3        37.7120   14.9900   17.7660 N.ar  141  G141       -0.1918
   3036  C4        38.9130   15.6140   17.8790 C.ar  141  G141        0.1723
   3037  C5        39.7150   16.1160   16.8750 C.ar  141  G141        0.1748
   3038  C6        39.2830   15.9880   15.5280 C.ar  141  G141        0.3023
   3039  O6        39.8570   16.3700   14.5010 O.2   141  G141       -0.2633
   3040  N7        40.8700   16.6820   17.4060 N.ar  141  G141       -0.2173
   3041  C8        40.7460   16.5140   18.6940 C.ar  141  G141        0.1817
   3042  N9        39.5790   15.8800   19.0560 N.ar  141  G141       -0.2693
   3043  OP1       44.6620   16.9170   23.0250 O.3   141  G141       -0.4373
   3044  OP2       44.5490   17.3890   20.5070 O.co2 141  G141       -0.5172
   3045  P         41.9560   11.7870   21.6250 P.3   142  U142        0.2141
   3046  C5'       39.9490   10.3490   20.7080 C.3   142  U142        0.1812
   3047  O5'       41.1380   11.0890   20.4440 O.3   142  U142       -0.3114
   3048  C4'       39.2720   10.0040   19.3980 C.3   142  U142        0.1773
   3049  O4'       38.9060   11.2220   18.7020 O.3   142  U142       -0.3307
   3050  C3'       40.1480    9.2840   18.3810 C.3   142  U142        0.1860
   3051  O3'       40.2880    7.9100   18.6940 O.3   142  U142       -0.3112
   3052  C2'       39.3480    9.5350   17.1060 C.3   142  U142        0.2309
   3053  O2'       38.1810    8.7420   16.9990 O.3   142  U142       -0.2156
   3054  C1'       38.9750   11.0010   17.3000 C.3   142  U142        0.2420
   3055  N1        39.9380   11.9650   16.6460 N.ar  142  U142       -0.2534
   3056  C2        39.8280   12.2120   15.2820 C.ar  142  U142        0.3546
   3057  O2        38.9950   11.6910   14.5590 O.2   142  U142       -0.2443
   3058  N3        40.7420   13.1090   14.7790 N.ar  142  U142       -0.1530
   3059  C4        41.7390   13.7660   15.4830 C.ar  142  U142        0.2846
   3060  O4        42.4820   14.5400   14.8920 O.2   142  U142       -0.2650
   3061  C5        41.7980   13.4620   16.8940 C.ar  142  U142        0.0814
   3062  C6        40.9120   12.5970   17.4090 C.ar  142  U142        0.0870
   3063  OP1       42.1800   10.8220   22.7230 O.3   142  U142       -0.4373
   3064  OP2       43.1060   12.4700   20.9900 O.co2 142  U142       -0.5172
   3065  P         41.7310    7.2090   18.7210 P.3   143  C143        0.2141
   3066  C5'       40.9170    5.4240   16.9580 C.3   143  C143        0.1812
   3067  O5'       41.8110    6.4780   17.3010 O.3   143  C143       -0.3114
   3068  C4'       40.4260    5.5740   15.5300 C.3   143  C143        0.1773
   3069  O4'       39.9370    6.9240   15.3060 O.3   143  C143       -0.3307
   3070  C3'       41.4850    5.3830   14.4570 C.3   143  C143        0.1860
   3071  O3'       41.6990    4.0010   14.1870 O.3   143  C143       -0.3112
   3072  C2'       40.8420    6.1120   13.2850 C.3   143  C143        0.2309
   3073  O2'       39.8120    5.3590   12.6650 O.3   143  C143       -0.2156
   3074  C1'       40.2630    7.3390   13.9870 C.3   143  C143        0.2420
   3075  N1        41.1970    8.5370   13.9980 N.ar  143  C143       -0.2535
   3076  C2        41.2710    9.3820   12.8710 C.ar  143  C143        0.3532
   3077  O2        40.5790    9.1480   11.8690 O.2   143  C143       -0.2443
   3078  N3        42.1140   10.4520   12.9000 N.ar  143  C143       -0.1739
   3079  C4        42.8640   10.7010   13.9790 C.ar  143  C143        0.1759
   3080  N4        43.6740   11.7670   13.9420 N.pl3 143  C143       -0.1070
   3081  C5        42.8100    9.8600   15.1340 C.ar  143  C143        0.0566
   3082  C6        41.9780    8.8070   15.0950 C.ar  143  C143        0.0850
   3083  OP1       41.6800    6.1810   19.7840 O.3   143  C143       -0.4373
   3084  OP2       42.7890    8.2440   18.7310 O.co2 143  C143       -0.5172
   3085  P         43.1340    3.4920   13.6840 P.3   144  A144        0.2141
   3086  C5'       42.3370    3.4490   11.1640 C.3   144  A144        0.1812
   3087  O5'       43.1930    3.9890   12.1650 O.3   144  A144       -0.3114
   3088  C4'       42.5380    4.1960    9.8580 C.3   144  A144        0.1773
   3089  O4'       42.1070    5.5740   10.0000 O.3   144  A144       -0.3307
   3090  C3'       43.9850    4.3180    9.3990 C.3   144  A144        0.1860
   3091  O3'       44.4290    3.1270    8.7630 O.3   144  A144       -0.3112
   3092  C2'       43.8810    5.4960    8.4380 C.3   144  A144        0.2309
   3093  O2'       43.3060    5.1330    7.1950 O.3   144  A144       -0.2156
   3094  C1'       42.9490    6.4140    9.2210 C.3   144  A144        0.2408
   3095  N1        45.5930   10.8410    9.5830 N.ar  144  A144       -0.2040
   3096  C2        45.0570   10.2090    8.5290 C.ar  144  A144        0.2016
   3097  N3        44.3790    9.0590    8.5060 N.ar  144  A144       -0.2048
   3098  C4        44.2730    8.5310    9.7420 C.ar  144  A144        0.1692
   3099  C5        44.7800    9.0630   10.9170 C.ar  144  A144        0.1518
   3100  C6        45.4740   10.2900   10.8120 C.ar  144  A144        0.1919
   3101  N6        46.0160   10.9230   11.8580 N.pl3 144  A144       -0.1054
   3102  N7        44.4830    8.2470   11.9950 N.ar  144  A144       -0.2193
   3103  C8        43.8140    7.2540   11.4610 C.ar  144  A144        0.1816
   3104  N9        43.6470    7.3570   10.1050 N.ar  144  A144       -0.2693
   3105  OP1       43.1100    2.0130   13.7260 O.2   144  A144       -0.5172
   3106  OP2       44.1890    4.2360   14.4100 O.co2 144  A144       -0.4373
   3107  P         45.9570    2.6570    8.9010 P.3   145  C145        0.2141
   3108  C5'       46.4820    3.6400    6.5140 C.3   145  C145        0.1812
   3109  O5'       46.7200    3.6620    7.9200 O.3   145  C145       -0.3114
   3110  C4'       47.1470    4.8280    5.8450 C.3   145  C145        0.1773
   3111  O4'       46.5580    6.0690    6.3160 O.3   145  C145       -0.3307
   3112  C3'       48.6220    5.0100    6.1720 C.3   145  C145        0.1860
   3113  O3'       49.4600    4.0990    5.4720 O.3   145  C145       -0.3112
   3114  C2'       48.8180    6.4660    5.7620 C.3   145  C145        0.2309
   3115  O2'       48.8290    6.6530    4.3580 O.3   145  C145       -0.2156
   3116  C1'       47.5630    7.0740    6.3870 C.3   145  C145        0.2420
   3117  N1        47.7870    7.5390    7.8160 N.ar  145  C145       -0.2535
   3118  C2        48.3800    8.7950    8.0610 C.ar  145  C145        0.3532
   3119  O2        48.7090    9.5200    7.1140 O.2   145  C145       -0.2443
   3120  N3        48.5780    9.1940    9.3470 N.ar  145  C145       -0.1739
   3121  C4        48.2180    8.4000   10.3630 C.ar  145  C145        0.1759
   3122  N4        48.4310    8.8370   11.6070 N.pl3 145  C145       -0.1070
   3123  C5        47.6190    7.1240   10.1430 C.ar  145  C145        0.0566
   3124  C6        47.4270    6.7420    8.8730 C.ar  145  C145        0.0850
   3125  OP1       46.0480    1.2820    8.3660 O.2   145  C145       -0.5172
   3126  OP2       46.4350    2.9440   10.2720 O.co2 145  C145       -0.4373
   3127  P         50.7520    3.5260    6.2260 P.3   146  G146        0.2141
   3128  C5'       52.3430    5.1410    4.9000 C.3   146  G146        0.1812
   3129  O5'       51.7680    4.7580    6.1450 O.3   146  G146       -0.3114
   3130  C4'       53.1480    6.4190    5.0390 C.3   146  G146        0.1773
   3131  O4'       52.3030    7.5020    5.5130 O.3   146  G146       -0.3307
   3132  C3'       54.2670    6.3920    6.0700 C.3   146  G146        0.1860
   3133  O3'       55.4110    5.6690    5.6190 O.3   146  G146       -0.3112
   3134  C2'       54.5250    7.8880    6.2260 C.3   146  G146        0.2309
   3135  O2'       55.2520    8.4590    5.1520 O.3   146  G146       -0.2156
   3136  C1'       53.0890    8.4090    6.2740 C.3   146  G146        0.2408
   3137  N1        53.3120   10.8680   10.7490 N.ar  146  G146       -0.1709
   3138  C2        53.9740   11.1410    9.5730 C.ar  146  G146        0.2606
   3139  N2        54.8010   12.1950    9.5830 N.pl3 146  G146       -0.0859
   3140  N3        53.8310   10.4240    8.4630 N.ar  146  G146       -0.1918
   3141  C4        52.9570    9.3920    8.6170 C.ar  146  G146        0.1723
   3142  C5        52.2500    9.0410    9.7490 C.ar  146  G146        0.1748
   3143  C6        52.4130    9.8170   10.9290 C.ar  146  G146        0.3023
   3144  O6        51.8690    9.6620   12.0320 O.2   146  G146       -0.2633
   3145  N7        51.4620    7.9230    9.5090 N.ar  146  G146       -0.2173
   3146  C8        51.7000    7.6230    8.2610 C.ar  146  G146        0.1817
   3147  N9        52.5950    8.4740    7.6510 N.ar  146  G146       -0.2693
   3148  OP1       51.2770    2.3910    5.4360 O.2   146  G146       -0.5172
   3149  OP2       50.4210    3.3240    7.6550 O.co2 146  G146       -0.4373
   3150  P         56.2370    4.7710    6.6620 P.3   147  G147        0.2141
   3151  C5'       57.9210    6.7410    7.0920 C.3   147  G147        0.1812
   3152  O5'       56.9220    5.8660    7.6080 O.3   147  G147       -0.3114
   3153  C4'       58.2070    7.8850    8.0490 C.3   147  G147        0.1773
   3154  O4'       56.9850    8.5700    8.4370 O.3   147  G147       -0.3307
   3155  C3'       58.8100    7.4960    9.3880 C.3   147  G147        0.1860
   3156  O3'       60.1870    7.1480    9.2670 O.3   147  G147       -0.3112
   3157  C2'       58.5870    8.7940   10.1560 C.3   147  G147        0.2309
   3158  O2'       59.4790    9.8280    9.7840 O.3   147  G147       -0.2156
   3159  C1'       57.1580    9.1310    9.7300 C.3   147  G147        0.2408
   3160  N1        55.0560    9.5020   14.3720 N.ar  147  G147       -0.1709
   3161  C2        56.0360   10.2780   13.7910 C.ar  147  G147        0.2606
   3162  N2        56.5290   11.2790   14.5310 N.pl3 147  G147       -0.0859
   3163  N3        56.5020   10.0820   12.5630 N.ar  147  G147       -0.1918
   3164  C4        55.9060    9.0310   11.9410 C.ar  147  G147        0.1723
   3165  C5        54.9240    8.1980   12.4350 C.ar  147  G147        0.1748
   3166  C6        54.4320    8.4190   13.7490 C.ar  147  G147        0.3023
   3167  O6        53.5600    7.7820   14.3560 O.2   147  G147       -0.2633
   3168  N7        54.5770    7.2390   11.4930 N.ar  147  G147       -0.2173
   3169  C8        55.3390    7.5030   10.4680 C.ar  147  G147        0.1817
   3170  N9        56.1720    8.5800   10.6640 N.ar  147  G147       -0.2693
   3171  OP1       57.2810    4.0450    5.9050 O.2   147  G147       -0.5172
   3172  OP2       55.2750    3.9990    7.4820 O.co2 147  G147       -0.4373
   3173  P         60.8750    6.1660   10.3330 P.3   148  A148        0.2141
   3174  C5'       62.2360    8.1130   11.4390 C.3   148  A148        0.1812
   3175  O5'       61.2010    7.1450   11.5530 O.3   148  A148       -0.3114
   3176  C4'       62.3400    8.9490   12.6990 C.3   148  A148        0.1773
   3177  O4'       61.1080    9.6920   12.9130 O.3   148  A148       -0.3307
   3178  C3'       62.5140    8.1680   13.9930 C.3   148  A148        0.1860
   3179  O3'       63.8550    7.7270   14.1800 O.3   148  A148       -0.3112
   3180  C2'       62.0930    9.2300   14.9990 C.3   148  A148        0.2309
   3181  O2'       63.0770   10.2330   15.1620 O.3   148  A148       -0.2156
   3182  C1'       60.8440    9.7730   14.3070 C.3   148  A148        0.2408
   3183  N1        57.2430    8.7020   17.8640 N.ar  148  A148       -0.2040
   3184  C2        58.2940    9.5350   17.8820 C.ar  148  A148        0.2016
   3185  N3        59.1910    9.7660   16.9190 N.ar  148  A148       -0.2048
   3186  C4        58.9340    9.0260   15.8220 C.ar  148  A148        0.1692
   3187  C5        57.8940    8.1250   15.6590 C.ar  148  A148        0.1518
   3188  C6        57.0090    7.9700   16.7500 C.ar  148  A148        0.1919
   3189  N6        55.9630    7.1390   16.7340 N.pl3 148  A148       -0.1054
   3190  N7        57.9390    7.5450   14.4030 N.ar  148  A148       -0.2193
   3191  C8        58.9900    8.0940   13.8420 C.ar  148  A148        0.1816
   3192  N9        59.6400    9.0020   14.6370 N.ar  148  A148       -0.2693
   3193  OP1       62.1410    5.6890    9.7380 O.2   148  A148       -0.5172
   3194  OP2       59.8780    5.1780   10.8040 O.co2 148  A148       -0.4373
   3195  P         64.1500    6.3660   14.9780 P.3   149  G149        0.2141
   3196  C5'       64.5870    7.6660   17.2380 C.3   149  G149        0.1812
   3197  O5'       63.7940    6.7350   16.4980 O.3   149  G149       -0.3114
   3198  C4'       63.9310    8.0390   18.5570 C.3   149  G149        0.1773
   3199  O4'       62.5790    8.5190   18.3290 O.3   149  G149       -0.3307
   3200  C3'       63.7530    6.9040   19.5580 C.3   149  G149        0.1860
   3201  O3'       64.9510    6.6490   20.2850 O.3   149  G149       -0.3112
   3202  C2'       62.6440    7.4600   20.4460 C.3   149  G149        0.2309
   3203  O2'       63.0900    8.4120   21.3940 O.3   149  G149       -0.2156
   3204  C1'       61.7430    8.1210   19.4040 C.3   149  G149        0.2408
   3205  N1        57.3450    5.7710   20.5020 N.ar  149  G149       -0.1709
   3206  C2        58.0980    6.6190   21.2840 C.ar  149  G149        0.2606
   3207  N2        57.6300    6.8780   22.5140 N.pl3 149  G149       -0.0859
   3208  N3        59.2370    7.1740   20.8830 N.ar  149  G149       -0.1918
   3209  C4        59.5740    6.8110   19.6160 C.ar  149  G149        0.1723
   3210  C5        58.8890    5.9730   18.7590 C.ar  149  G149        0.1748
   3211  C6        57.6730    5.3880   19.1990 C.ar  149  G149        0.3023
   3212  O6        56.9250    4.6170   18.5790 O.2   149  G149       -0.2633
   3213  N7        59.5590    5.8530   17.5470 N.ar  149  G149       -0.2173
   3214  C8        60.6150    6.6050   17.6910 C.ar  149  G149        0.1817
   3215  N9        60.6920    7.2220   18.9200 N.ar  149  G149       -0.2693
   3216  OP1       65.5990    6.0940   14.8650 O.3   149  G149       -0.4373
   3217  OP2       63.1780    5.3440   14.5270 O.co2 149  G149       -0.5172
   3218  P         65.3890    5.1450   20.6270 P.3   150  G150        0.2141
   3219  C5'       64.2890    5.0180   23.0270 C.3   150  G150        0.1812
   3220  O5'       64.2560    4.6520   21.6480 O.3   150  G150       -0.3114
   3221  C4'       62.9520    4.7580   23.7010 C.3   150  G150        0.1773
   3222  O4'       61.8760    5.2750   22.8760 O.3   150  G150       -0.3307
   3223  C3'       62.6080    3.2910   23.9310 C.3   150  G150        0.1860
   3224  O3'       63.1320    2.8420   25.1820 O.3   150  G150       -0.3112
   3225  C2'       61.0810    3.3180   23.9270 C.3   150  G150        0.2309
   3226  O2'       60.5250    3.6830   25.1780 O.3   150  G150       -0.2156
   3227  C1'       60.7770    4.3820   22.8750 C.3   150  G150        0.2408
   3228  N1        57.7130    1.7650   19.7050 N.ar  150  G150       -0.1709
   3229  C2        57.5140    2.0990   21.0270 C.ar  150  G150        0.2606
   3230  N2        56.3640    1.6880   21.5770 N.pl3 150  G150       -0.0859
   3231  N3        58.3860    2.7870   21.7600 N.ar  150  G150       -0.1918
   3232  C4        59.4990    3.1270   21.0560 C.ar  150  G150        0.1723
   3233  C5        59.7870    2.8380   19.7360 C.ar  150  G150        0.1748
   3234  C6        58.8470    2.1060   18.9650 C.ar  150  G150        0.3023
   3235  O6        58.9380    1.7600   17.7780 O.2   150  G150       -0.2633
   3236  N7        61.0220    3.3560   19.3760 N.ar  150  G150       -0.2173
   3237  C8        61.4500    3.9340   20.4630 C.ar  150  G150        0.1817
   3238  N9        60.5830    3.8390   21.5260 N.ar  150  G150       -0.2693
   3239  OP1       66.6900    5.2130   21.3280 O.3   150  G150       -0.4373
   3240  OP2       65.2680    4.3290   19.3970 O.co2 150  G150       -0.5172
   3241  P         63.6720    1.3430   25.3760 P.3   151  U151        0.2141
   3242  C5'       61.3080    0.3070   25.9990 C.3   151  U151        0.1812
   3243  O5'       62.3920    0.4260   25.0740 O.3   151  U151       -0.3114
   3244  C4'       60.0730   -0.2890   25.3320 C.3   151  U151        0.1773
   3245  O4'       59.9660    0.1550   23.9520 O.3   151  U151       -0.3307
   3246  C3'       60.0150   -1.8170   25.2860 C.3   151  U151        0.1860
   3247  O3'       58.6660   -2.2700   25.4590 O.3   151  U151       -0.3112
   3248  C2'       60.5270   -2.1280   23.8780 C.3   151  U151        0.2309
   3249  O2'       60.0560   -3.3630   23.3740 O.3   151  U151       -0.2156
   3250  C1'       59.9380   -0.9620   23.0820 C.3   151  U151        0.2420
   3251  N1        60.6670   -0.6150   21.8090 N.ar  151  U151       -0.2534
   3252  C2        60.0010   -0.7010   20.5940 C.ar  151  U151        0.3546
   3253  O2        58.8370   -1.0500   20.4770 O.2   151  U151       -0.2443
   3254  N3        60.7580   -0.3600   19.4950 N.ar  151  U151       -0.1530
   3255  C4        62.0820    0.0520   19.4850 C.ar  151  U151        0.2846
   3256  O4        62.6270    0.3250   18.4190 O.2   151  U151       -0.2650
   3257  C5        62.7090    0.1190   20.7830 C.ar  151  U151        0.0814
   3258  C6        61.9930   -0.2080   21.8690 C.ar  151  U151        0.0870
   3259  OP1       64.0600    1.1950   26.7970 O.3   151  U151       -0.4373
   3260  OP2       64.6730    1.0740   24.3200 O.co2 151  U151       -0.5172
   3261  P         57.9530   -2.4480   26.8870 P.3   152  C152        0.2141
   3262  C5'       55.4190   -1.9420   27.4620 C.3   152  C152        0.1812
   3263  O5'       56.5350   -1.7590   26.5930 O.3   152  C152       -0.3114
   3264  C4'       54.2170   -2.5410   26.7390 C.3   152  C152        0.1773
   3265  O4'       54.5670   -2.9550   25.3880 O.3   152  C152       -0.3307
   3266  C3'       53.6110   -3.7750   27.4150 C.3   152  C152        0.1860
   3267  O3'       52.1760   -3.8190   27.3000 O.3   152  C152       -0.3112
   3268  C2'       54.2540   -4.9160   26.6280 C.3   152  C152        0.2309
   3269  O2'       53.5080   -6.1170   26.6750 O.3   152  C152       -0.2156
   3270  C1'       54.2260   -4.3200   25.2220 C.3   152  C152        0.2420
   3271  N1        55.1500   -4.9860   24.2360 N.ar  152  C152       -0.2535
   3272  C2        54.6230   -5.8690   23.2730 C.ar  152  C152        0.3532
   3273  O2        53.4050   -6.0930   23.2360 O.2   152  C152       -0.2443
   3274  N3        55.4740   -6.4590   22.3920 N.ar  152  C152       -0.1739
   3275  C4        56.7860   -6.2050   22.4450 C.ar  152  C152        0.1759
   3276  N4        57.5760   -6.8120   21.5550 N.pl3 152  C152       -0.1070
   3277  C5        57.3430   -5.3150   23.4150 C.ar  152  C152        0.0566
   3278  C6        56.4970   -4.7350   24.2780 C.ar  152  C152        0.0850
   3279  OP1       58.6520   -1.6380   27.9120 O.3   152  C152       -0.4373
   3280  OP2       57.7670   -3.8980   27.1170 O.co2 152  C152       -0.5172
   3281  P         51.1760   -2.6890   27.8500 P.3   153  U153        0.2141
   3282  C5'       50.6060   -0.4230   26.6010 C.3   153  U153        0.1812
   3283  O5'       50.9160   -1.8130   26.5340 O.3   153  U153       -0.3114
   3284  C4'       51.1140    0.3050   25.3660 C.3   153  U153        0.1773
   3285  O4'       52.3350   -0.3120   24.8700 O.3   153  U153       -0.3307
   3286  C3'       50.1510    0.3500   24.1780 C.3   153  U153        0.1860
   3287  O3'       50.0560    1.6970   23.7150 O.3   153  U153       -0.3112
   3288  C2'       50.8360   -0.5280   23.1350 C.3   153  U153        0.2309
   3289  O2'       50.5270   -0.1460   21.8080 O.3   153  U153       -0.2156
   3290  C1'       52.2920   -0.2090   23.4620 C.3   153  U153        0.2420
   3291  N1        53.3610   -1.0680   22.8320 N.ar  153  U153       -0.2534
   3292  C2        54.6920   -0.7020   22.9840 C.ar  153  U153        0.3546
   3293  O2        55.0620    0.2790   23.6090 O.2   153  U153       -0.2443
   3294  N3        55.6000   -1.5360   22.3710 N.ar  153  U153       -0.1530
   3295  C4        55.3200   -2.6760   21.6350 C.ar  153  U153        0.2846
   3296  O4        56.2370   -3.3260   21.1440 O.2   153  U153       -0.2650
   3297  C5        53.9180   -2.9920   21.5180 C.ar  153  U153        0.0814
   3298  C6        53.0130   -2.1960   22.1050 C.ar  153  U153        0.0870
   3299  OP1       51.8650   -1.8800   28.8850 O.3   153  U153       -0.4373
   3300  OP2       49.9010   -3.3630   28.1870 O.co2 153  U153       -0.5172
   3301  P         48.6810    2.5160   23.6550 P.3   154  C154        0.2141
   3302  C5'       49.5630    4.0440   25.6090 C.3   154  C154        0.1812
   3303  O5'       49.1260    3.9350   24.2510 O.3   154  C154       -0.3114
   3304  C4'       50.9400    4.6790   25.7370 C.3   154  C154        0.1773
   3305  O4'       51.9750    3.8030   25.2180 O.3   154  C154       -0.3307
   3306  C3'       51.1690    5.9640   24.9540 C.3   154  C154        0.1860
   3307  O3'       50.5230    7.0770   25.5630 O.3   154  C154       -0.3112
   3308  C2'       52.6900    6.0520   25.0150 C.3   154  C154        0.2309
   3309  O2'       53.1780    6.5040   26.2660 O.3   154  C154       -0.2156
   3310  C1'       53.0770    4.5900   24.7810 C.3   154  C154        0.2420
   3311  N1        53.4180    4.2870   23.3370 N.ar  154  C154       -0.2535
   3312  C2        54.6350    4.7340   22.7760 C.ar  154  C154        0.3532
   3313  O2        55.4430    5.3780   23.4590 O.2   154  C154       -0.2443
   3314  N3        54.9040    4.4460   21.4730 N.ar  154  C154       -0.1739
   3315  C4        54.0280    3.7510   20.7390 C.ar  154  C154        0.1759
   3316  N4        54.3430    3.4930   19.4650 N.pl3 154  C154       -0.1070
   3317  C5        52.7910    3.2870   21.2830 C.ar  154  C154        0.0566
   3318  C6        52.5340    3.5760   22.5660 C.ar  154  C154        0.0850
   3319  OP1       47.6960    1.8880   24.5680 O.3   154  C154       -0.4373
   3320  OP2       48.3420    2.7110   22.2270 O.co2 154  C154       -0.5172
   3321  P         50.0280    8.3050   24.6600 P.3   155  U155        0.2141
   3322  C5'       52.0420    9.8050   25.4420 C.3   155  U155        0.1812
   3323  O5'       51.3820    9.1130   24.3860 O.3   155  U155       -0.3114
   3324  C4'       53.3690   10.3710   24.9730 C.3   155  U155        0.1773
   3325  O4'       54.2230    9.3020   24.4880 O.3   155  U155       -0.3307
   3326  C3'       53.2920   11.3280   23.7910 C.3   155  U155        0.1860
   3327  O3'       52.9090   12.6360   24.1970 O.3   155  U155       -0.3112
   3328  C2'       54.7290   11.2750   23.2890 C.3   155  U155        0.2309
   3329  O2'       55.6200   12.0370   24.0820 O.3   155  U155       -0.2156
   3330  C1'       55.0280    9.7820   23.4190 C.3   155  U155        0.2420
   3331  N1        54.7700    8.9920   22.1510 N.ar  155  U155       -0.2534
   3332  C2        55.6640    9.0800   21.0890 C.ar  155  U155        0.3546
   3333  O2        56.6740    9.7640   21.0960 O.2   155  U155       -0.2443
   3334  N3        55.3370    8.3220   19.9880 N.ar  155  U155       -0.1530
   3335  C4        54.2300    7.5030   19.8360 C.ar  155  U155        0.2846
   3336  O4        54.0690    6.8860   18.7870 O.2   155  U155       -0.2650
   3337  C5        53.3430    7.4620   20.9730 C.ar  155  U155        0.0814
   3338  C6        53.6430    8.1890   22.0590 C.ar  155  U155        0.0870
   3339  OP1       49.1190    9.1300   25.4900 O.3   155  U155       -0.4373
   3340  OP2       49.5480    7.7820   23.3600 O.co2 155  U155       -0.5172
   3341  P         51.9450   13.5150   23.2680 P.3   156  C156        0.2141
   3342  C5'       53.9610   14.7950   22.1620 C.3   156  C156        0.1812
   3343  O5'       52.8670   13.8940   22.0140 O.3   156  C156       -0.3114
   3344  C4'       54.9530   14.6610   21.0200 C.3   156  C156        0.1773
   3345  O4'       55.3240   13.2710   20.8260 O.3   156  C156       -0.3307
   3346  C3'       54.4460   15.0790   19.6480 C.3   156  C156        0.1860
   3347  O3'       54.4410   16.4930   19.4970 O.3   156  C156       -0.3112
   3348  C2'       55.4880   14.4060   18.7620 C.3   156  C156        0.2309
   3349  O2'       56.7250   15.0950   18.7330 O.3   156  C156       -0.2156
   3350  C1'       55.6380   13.0530   19.4600 C.3   156  C156        0.2420
   3351  N1        54.7620   11.9780   18.8530 N.ar  156  C156       -0.2535
   3352  C2        55.1380   11.3850   17.6310 C.ar  156  C156        0.3532
   3353  O2        56.1810   11.7420   17.0680 O.2   156  C156       -0.2443
   3354  N3        54.3420   10.4260   17.0870 N.ar  156  C156       -0.1739
   3355  C4        53.2180   10.0530   17.7060 C.ar  156  C156        0.1759
   3356  N4        52.4760    9.1040   17.1260 N.pl3 156  C156       -0.1070
   3357  C5        52.8100   10.6400   18.9450 C.ar  156  C156        0.0566
   3358  C6        53.6020   11.5860   19.4730 C.ar  156  C156        0.0850
   3359  OP1       51.6150   14.7440   24.0270 O.3   156  C156       -0.4373
   3360  OP2       50.8580   12.6460   22.7630 O.co2 156  C156       -0.5172
   3361  P         53.4980   17.2000   18.4100 P.3   157  C157        0.2141
   3362  C5'       55.4560   17.6270   16.7120 C.3   157  C157        0.1812
   3363  O5'       54.2620   16.9300   17.0340 O.3   157  C157       -0.3114
   3364  C4'       55.9300   17.2760   15.3160 C.3   157  C157        0.1773
   3365  O4'       56.2720   15.8660   15.2420 O.3   157  C157       -0.3307
   3366  C3'       54.8940   17.4400   14.2140 C.3   157  C157        0.1860
   3367  O3'       54.7180   18.8030   13.8410 O.3   157  C157       -0.3112
   3368  C2'       55.5280   16.5860   13.1230 C.3   157  C157        0.2309
   3369  O2'       56.6560   17.1930   12.5170 O.3   157  C157       -0.2156
   3370  C1'       55.9500   15.3700   13.9520 C.3   157  C157        0.2420
   3371  N1        54.8860   14.2970   14.0390 N.ar  157  C157       -0.2535
   3372  C2        54.6670   13.4320   12.9480 C.ar  157  C157        0.3532
   3373  O2        55.3470   13.5430   11.9190 O.2   157  C157       -0.2443
   3374  N3        53.7020   12.4790   13.0500 N.ar  157  C157       -0.1739
   3375  C4        52.9740   12.3660   14.1650 C.ar  157  C157        0.1759
   3376  N4        52.0410   11.4120   14.2070 N.pl3 157  C157       -0.1070
   3377  C5        53.1730   13.2300   15.2850 C.ar  157  C157        0.0566
   3378  C6        54.1250   14.1670   15.1750 C.ar  157  C157        0.0850
   3379  OP1       53.5100   18.6500   18.7020 O.3   157  C157       -0.4373
   3380  OP2       52.2090   16.4730   18.3420 O.co2 157  C157       -0.5172
   3381  P         53.2580   19.3510   13.4700 P.3   158  G158        0.2141
   3382  C5'       53.7070   19.0190   10.9090 C.3   158  G158        0.1812
   3383  O5'       52.9540   18.6620   12.0580 O.3   158  G158       -0.3114
   3384  C4'       53.5400   18.0140    9.7840 C.3   158  G158        0.1773
   3385  O4'       53.8230   16.6640   10.2390 O.3   158  G158       -0.3307
   3386  C3'       52.1400   17.8970    9.2040 C.3   158  G158        0.1860
   3387  O3'       51.8040   19.0160    8.3730 O.3   158  G158       -0.3112
   3388  C2'       52.2980   16.5910    8.4330 C.3   158  G158        0.2309
   3389  O2'       53.0220   16.7390    7.2260 O.3   158  G158       -0.2156
   3390  C1'       53.0940   15.7490    9.4340 C.3   158  G158        0.2408
   3391  N1        50.0180   11.6680    9.6750 N.ar  158  G158       -0.1709
   3392  C2        50.7210   12.1630    8.5970 C.ar  158  G158        0.2606
   3393  N2        50.5920   11.4980    7.4400 N.pl3 158  G158       -0.0859
   3394  N3        51.4970   13.2420    8.6540 N.ar  158  G158       -0.1918
   3395  C4        51.5200   13.8010    9.8970 C.ar  158  G158        0.1723
   3396  C5        50.8580   13.3790   11.0310 C.ar  158  G158        0.1748
   3397  C6        50.0320   12.2270   10.9560 C.ar  158  G158        0.3023
   3398  O6        49.3650   11.7040   11.8580 O.2   158  G158       -0.2633
   3399  N7        51.1370   14.2150   12.1050 N.ar  158  G158       -0.2173
   3400  C8        51.9480   15.1080   11.6130 C.ar  158  G158        0.1817
   3401  N9        52.2310   14.9210   10.2800 N.ar  158  G158       -0.2693
   3402  OP1       53.3880   20.8170   13.3040 O.2   158  G158       -0.5172
   3403  OP2       52.2700   18.8250   14.4370 O.co2 158  G158       -0.4373
   3404  P         50.2700   19.4520    8.1810 P.3   159  U159        0.2141
   3405  C5'       49.9050   18.0910    5.9540 C.3   159  U159        0.1812
   3406  O5'       49.6550   18.2270    7.3530 O.3   159  U159       -0.3114
   3407  C4'       49.2330   16.8480    5.4040 C.3   159  U159        0.1773
   3408  O4'       49.6760   15.6670    6.1270 O.3   159  U159       -0.3307
   3409  C3'       47.7190   16.7960    5.5550 C.3   159  U159        0.1860
   3410  O3'       47.0550   17.6290    4.6120 O.3   159  U159       -0.3112
   3411  C2'       47.4940   15.3100    5.3000 C.3   159  U159        0.2309
   3412  O2'       47.6370   14.9470    3.9390 O.3   159  U159       -0.2156
   3413  C1'       48.6190   14.7180    6.1480 C.3   159  U159        0.2420
   3414  N1        48.1600   14.4290    7.5570 N.ar  159  U159       -0.2534
   3415  C2        47.3810   13.3030    7.7950 C.ar  159  U159        0.3546
   3416  O2        47.0460   12.5060    6.9320 O.2   159  U159       -0.2443
   3417  N3        47.0030   13.1300    9.1060 N.ar  159  U159       -0.1530
   3418  C4        47.3050   13.9490   10.1800 C.ar  159  U159        0.2846
   3419  O4        46.8900   13.6550   11.2950 O.2   159  U159       -0.2650
   3420  C5        48.1090   15.1040    9.8620 C.ar  159  U159        0.0814
   3421  C6        48.4960   15.2920    8.5920 C.ar  159  U159        0.0870
   3422  OP1       50.2450   20.6750    7.3490 O.2   159  U159       -0.5172
   3423  OP2       49.6000   19.4580    9.5010 O.co2 159  U159       -0.4373
   3424  P         45.6440   18.3080    4.9600 P.3   160  G160        0.2141
   3425  C5'       44.3180   16.4040    3.7380 C.3   160  G160        0.1812
   3426  O5'       44.6110   17.0860    4.9510 O.3   160  G160       -0.3114
   3427  C4'       43.5740   15.1120    4.0110 C.3   160  G160        0.1773
   3428  O4'       44.3150   14.2810    4.9400 O.3   160  G160       -0.3307
   3429  C3'       42.2230   15.2660    4.6890 C.3   160  G160        0.1860
   3430  O3'       41.2420   15.6920    3.7540 O.3   160  G160       -0.3112
   3431  C2'       42.0070   13.8400    5.1830 C.3   160  G160        0.2309
   3432  O2'       41.6460   12.9430    4.1450 O.3   160  G160       -0.2156
   3433  C1'       43.4030   13.5090    5.7030 C.3   160  G160        0.2408
   3434  N1        42.4570   11.9920   10.4910 N.ar  160  G160       -0.1709
   3435  C2        42.0900   11.4000    9.3030 C.ar  160  G160        0.2606
   3436  N2        41.3850   10.2630    9.3910 N.pl3 160  G160       -0.0859
   3437  N3        42.3970   11.8970    8.1070 N.ar  160  G160       -0.1918
   3438  C4        43.1140   13.0490    8.1890 C.ar  160  G160        0.1723
   3439  C5        43.5270   13.7150    9.3240 C.ar  160  G160        0.1748
   3440  C6        43.1930   13.1760   10.5930 C.ar  160  G160        0.3023
   3441  O6        43.4750   13.6260   11.7100 O.2   160  G160       -0.2633
   3442  N7        44.2390   14.8620    8.9920 N.ar  160  G160       -0.2173
   3443  C8        44.2430   14.8690    7.6870 C.ar  160  G160        0.1817
   3444  N9        43.5820   13.7990    7.1280 N.ar  160  G160       -0.2693
   3445  OP1       45.3340   19.2250    3.8400 O.2   160  G160       -0.5172
   3446  OP2       45.6820   18.8280    6.3460 O.co2 160  G160       -0.4373
   3447  P         39.9410   16.4950    4.2350 P.3   161  G161        0.2141
   3448  C5'       38.5480   14.2920    3.8520 C.3   161  G161        0.1812
   3449  O5'       38.9660   15.3320    4.7350 O.3   161  G161       -0.3114
   3450  C4'       37.9000   13.1610    4.6310 C.3   161  G161        0.1773
   3451  O4'       38.8340   12.5900    5.5810 O.3   161  G161       -0.3307
   3452  C3'       36.7170   13.5630    5.4960 C.3   161  G161        0.1860
   3453  O3'       35.5500   13.6670    4.6940 O.3   161  G161       -0.3112
   3454  C2'       36.6510   12.3950    6.4750 C.3   161  G161        0.2309
   3455  O2'       36.0370   11.2490    5.9120 O.3   161  G161       -0.2156
   3456  C1'       38.1290   12.1120    6.7160 C.3   161  G161        0.2408
   3457  N1        38.7830   11.9060   11.8100 N.ar  161  G161       -0.1709
   3458  C2        38.0910   11.0360   10.9990 C.ar  161  G161        0.2606
   3459  N2        37.5170    9.9960   11.6160 N.pl3 161  G161       -0.0859
   3460  N3        37.9800   11.1820    9.6780 N.ar  161  G161       -0.1918
   3461  C4        38.6230   12.2920    9.2200 C.ar  161  G161        0.1723
   3462  C5        39.3330   13.2180    9.9560 C.ar  161  G161        0.1748
   3463  C6        39.4460   13.0460   11.3580 C.ar  161  G161        0.3023
   3464  O6        40.0360   13.7680   12.1650 O.2   161  G161       -0.2633
   3465  N7        39.8480   14.2140    9.1410 N.ar  161  G161       -0.2173
   3466  C8        39.4480   13.8860    7.9470 C.ar  161  G161        0.1817
   3467  N9        38.6980   12.7340    7.9110 N.ar  161  G161       -0.2693
   3468  OP1       39.3670   17.1440    3.0350 O.2   161  G161       -0.5172
   3469  OP2       40.2810   17.3230    5.4130 O.co2 161  G161       -0.4373
   3470  P         34.3880   14.7020    5.0650 P.3   162  A162        0.2141
   3471  C5'       33.0250   12.6720    6.0790 C.3   162  A162        0.1812
   3472  O5'       33.6010   13.9710    6.2500 O.3   162  A162       -0.3114
   3473  C4'       32.7830   12.0180    7.4340 C.3   162  A162        0.1773
   3474  O4'       33.9190   12.2180    8.3210 O.3   162  A162       -0.3307
   3475  C3'       31.5830   12.5430    8.2130 C.3   162  A162        0.1860
   3476  O3'       31.0700   11.4910    9.0160 O.3   162  A162       -0.3112
   3477  C2'       32.2130   13.6340    9.0770 C.3   162  A162        0.2309
   3478  O2'       31.4490   13.9690   10.2180 O.3   162  A162       -0.2156
   3479  C1'       33.5160   12.9410    9.4690 C.3   162  A162        0.2408
   3480  N1        36.9510   14.3730   13.0540 N.ar  162  A162       -0.2040
   3481  C2        36.0490   13.3770   13.0390 C.ar  162  A162        0.2016
   3482  N3        35.1840   13.0560   12.0720 N.ar  162  A162       -0.2048
   3483  C4        35.2970   13.8880   11.0180 C.ar  162  A162        0.1692
   3484  C5        36.1780   14.9510   10.8930 C.ar  162  A162        0.1518
   3485  C6        37.0450   15.1950   11.9790 C.ar  162  A162        0.1919
   3486  N6        37.9420   16.1880   11.9890 N.pl3 162  A162       -0.1054
   3487  N7        36.0170   15.5820    9.6730 N.ar  162  A162       -0.2193
   3488  C8        35.0590   14.9030    9.0900 C.ar  162  A162        0.1816
   3489  N9        34.5800   13.8680    9.8420 N.ar  162  A162       -0.2693
   3490  OP1       33.5080   14.7940    3.8830 O.2   162  A162       -0.5172
   3491  OP2       34.9870   15.9300    5.6350 O.co2 162  A162       -0.4373
   3492  P         29.5150   11.1110    9.0030 P.3   163  G163        0.2141
   3493  C5'       30.0530   11.0960   11.5810 C.3   163  G163        0.1812
   3494  O5'       29.1680   10.7840   10.5240 O.3   163  G163       -0.3114
   3495  C4'       29.3510   10.8580   12.9040 C.3   163  G163        0.1773
   3496  O4'       30.3370   10.8360   13.9610 O.3   163  G163       -0.3307
   3497  C3'       28.3410   11.9250   13.3130 C.3   163  G163        0.1860
   3498  O3'       27.2630   11.3290   14.0440 O.3   163  G163       -0.3112
   3499  C2'       29.1820   12.8490   14.1950 C.3   163  G163        0.2309
   3500  O2'       28.3990   13.6010   15.0970 O.3   163  G163       -0.2156
   3501  C1'       30.0030   11.8020   14.9360 C.3   163  G163        0.2408
   3502  N1        32.4200   12.8650   19.2870 N.ar  163  G163       -0.1709
   3503  C2        31.1210   12.4400   19.0940 C.ar  163  G163        0.2606
   3504  N2        30.3680   12.2740   20.1930 N.pl3 163  G163       -0.0859
   3505  N3        30.5980   12.1960   17.8960 N.ar  163  G163       -0.1918
   3506  C4        31.4870   12.4120   16.8910 C.ar  163  G163        0.1723
   3507  C5        32.7990   12.8320   16.9830 C.ar  163  G163        0.1748
   3508  C6        33.3430   13.0970   18.2640 C.ar  163  G163        0.3023
   3509  O6        34.4930   13.4770   18.5350 O.2   163  G163       -0.2633
   3510  N7        33.3770   12.9330   15.7230 N.ar  163  G163       -0.2173
   3511  C8        32.4240   12.5760   14.9070 C.ar  163  G163        0.1817
   3512  N9        31.2500   12.2540   15.5450 N.ar  163  G163       -0.2693
   3513  OP1       29.3910    9.8420    8.2590 O.2   163  G163       -0.5172
   3514  OP2       28.7290   12.2970    8.5860 O.co2 163  G163       -0.4373
   3515  P         25.8660   10.9130   13.3710 P.3   164  A164        0.2141
   3516  C5'       25.9090    8.2500   13.2940 C.3   164  A164        0.1812
   3517  O5'       26.2330    9.5090   12.7010 O.3   164  A164       -0.3114
   3518  C4'       26.1090    7.1430   12.2680 C.3   164  A164        0.1773
   3519  O4'       25.2700    7.3820   11.1040 O.3   164  A164       -0.3307
   3520  C3'       27.5340    7.0160   11.7320 C.3   164  A164        0.1860
   3521  O3'       27.8710    5.6450   11.5070 O.3   164  A164       -0.3112
   3522  C2'       27.4850    7.8170   10.4320 C.3   164  A164        0.2309
   3523  O2'       28.4440    7.4220    9.4700 O.3   164  A164       -0.2156
   3524  C1'       26.0650    7.5400    9.9410 C.3   164  A164        0.2408
   3525  N1        24.4630    9.1230    5.2800 N.ar  164  A164       -0.2040
   3526  C2        24.8990    7.9280    5.7110 C.ar  164  A164        0.2016
   3527  N3        25.2980    7.5790    6.9380 N.ar  164  A164       -0.2048
   3528  C4        25.2250    8.6220    7.7920 C.ar  164  A164        0.1692
   3529  C5        24.7970    9.9070    7.4920 C.ar  164  A164        0.1518
   3530  C6        24.3980   10.1510    6.1590 C.ar  164  A164        0.1919
   3531  N6        23.9650   11.3400    5.7290 N.pl3 164  A164       -0.1054
   3532  N7        24.8500   10.7200    8.6110 N.ar  164  A164       -0.2193
   3533  C8        25.3000    9.9240    9.5500 C.ar  164  A164        0.1816
   3534  N9        25.5460    8.6430    9.1310 N.ar  164  A164       -0.2693
   3535  OP1       25.5390   11.8620   12.2890 O.2   164  A164       -0.5172
   3536  OP2       24.9010   10.6820   14.4680 O.co2 164  A164       -0.4373
   3537  P         28.7880    4.8160   12.5260 P.3   165  G165        0.2141
   3538  C5'       30.9380    6.0400   11.6060 C.3   165  G165        0.1812
   3539  O5'       30.0990    5.7130   12.7050 O.3   165  G165       -0.3114
   3540  C4'       32.0610    6.9270   12.1020 C.3   165  G165        0.1773
   3541  O4'       31.5030    8.1000   12.7470 O.3   165  G165       -0.3307
   3542  C3'       32.9110    6.2910   13.1910 C.3   165  G165        0.1860
   3543  O3'       33.8930    5.4170   12.6430 O.3   165  G165       -0.3112
   3544  C2'       33.5100    7.5160   13.8720 C.3   165  G165        0.2309
   3545  O2'       34.5830    8.1070   13.1650 O.3   165  G165       -0.2156
   3546  C1'       32.3020    8.4460   13.8700 C.3   165  G165        0.2408
   3547  N1        32.3230    9.4190   18.8780 N.ar  165  G165       -0.1709
   3548  C2        33.3250    9.5820   17.9470 C.ar  165  G165        0.2606
   3549  N2        34.4930   10.0690   18.3920 N.pl3 165  G165       -0.0859
   3550  N3        33.1910    9.2860   16.6590 N.ar  165  G165       -0.1918
   3551  C4        31.9540    8.8030   16.3600 C.ar  165  G165        0.1723
   3552  C5        30.8900    8.6040   17.2130 C.ar  165  G165        0.1748
   3553  C6        31.0470    8.9260   18.5900 C.ar  165  G165        0.3023
   3554  O6        30.2160    8.8170   19.5010 O.2   165  G165       -0.2633
   3555  N7        29.8000    8.0900   16.5220 N.ar  165  G165       -0.2173
   3556  C8        30.2150    7.9930   15.2870 C.ar  165  G165        0.1817
   3557  N9        31.5180    8.4060   15.1120 N.ar  165  G165       -0.2693
   3558  OP1       29.1610    3.5570   11.8450 O.2   165  G165       -0.5172
   3559  OP2       28.1170    4.7740   13.8440 O.co2 165  G165       -0.4373
   3560  P         34.2870    4.0710   13.4220 P.3   166  C166        0.2141
   3561  C5'       36.2720    5.3410   14.6370 C.3   166  C166        0.1812
   3562  O5'       35.0510    4.6030   14.7240 O.3   166  C166       -0.3114
   3563  C4'       36.6730    5.8450   16.0130 C.3   166  C166        0.1773
   3564  O4'       35.7030    6.7960   16.5330 O.3   166  C166       -0.3307
   3565  C3'       36.7210    4.7770   17.0960 C.3   166  C166        0.1860
   3566  O3'       37.9000    3.9910   16.9830 O.3   166  C166       -0.3112
   3567  C2'       36.6930    5.6500   18.3460 C.3   166  C166        0.2309
   3568  O2'       37.9300    6.2950   18.5980 O.3   166  C166       -0.2156
   3569  C1'       35.6310    6.6740   17.9460 C.3   166  C166        0.2420
   3570  N1        34.2220    6.3180   18.3880 N.ar  166  C166       -0.2535
   3571  C2        33.8340    6.5250   19.7250 C.ar  166  C166        0.3532
   3572  O2        34.6400    6.9950   20.5410 O.2   166  C166       -0.2443
   3573  N3        32.5670    6.2000   20.0990 N.ar  166  C166       -0.1739
   3574  C4        31.7040    5.6900   19.2090 C.ar  166  C166        0.1759
   3575  N4        30.4710    5.3920   19.6340 N.pl3 166  C166       -0.1070
   3576  C5        32.0730    5.4670   17.8460 C.ar  166  C166        0.0566
   3577  C6        33.3250    5.7930   17.4880 C.ar  166  C166        0.0850
   3578  OP1       35.2290    3.3290   12.5620 O.2   166  C166       -0.5172
   3579  OP2       33.0460    3.4210   13.9080 O.co2 166  C166       -0.4373
   3580  P         37.9160    2.4670   17.4760 P.3   167  C167        0.2141
   3581  C5'       39.0050    3.2460   19.7470 C.3   167  C167        0.1812
   3582  O5'       37.9160    2.6250   19.0670 O.3   167  C167       -0.3114
   3583  C4'       38.7320    3.2990   21.2370 C.3   167  C167        0.1773
   3584  O4'       37.6210    4.1910   21.5120 O.3   167  C167       -0.3307
   3585  C3'       38.2840    1.9820   21.8520 C.3   167  C167        0.1860
   3586  O3'       39.3850    1.1500   22.1420 O.3   167  C167       -0.3112
   3587  C2'       37.6010    2.4540   23.1240 C.3   167  C167        0.2309
   3588  O2'       38.5220    2.8270   24.1330 O.3   167  C167       -0.2156
   3589  C1'       36.8620    3.6770   22.5950 C.3   167  C167        0.2420
   3590  N1        35.4320    3.4080   22.1770 N.ar  167  C167       -0.2535
   3591  C2        34.4410    3.2920   23.1700 C.ar  167  C167        0.3532
   3592  O2        34.7560    3.4100   24.3630 O.2   167  C167       -0.2443
   3593  N3        33.1520    3.0640   22.7950 N.ar  167  C167       -0.1739
   3594  C4        32.8390    2.9420   21.5010 C.ar  167  C167        0.1759
   3595  N4        31.5590    2.7140   21.1870 N.pl3 167  C167       -0.1070
   3596  C5        33.8290    3.0520   20.4740 C.ar  167  C167        0.0566
   3597  C6        35.0960    3.2790   20.8530 C.ar  167  C167        0.0850
   3598  OP1       39.1930    1.8640   17.0470 O.2   167  C167       -0.5172
   3599  OP2       36.6330    1.8220   17.1150 O.co2 167  C167       -0.4373
   3600  P         39.2530   -0.4290   21.9390 P.3   168  G168        0.2141
   3601  C5'       38.3360   -1.1880   24.2930 C.3   168  G168        0.1812
   3602  O5'       38.0840   -0.8680   22.9490 O.3   168  G168       -0.3114
   3603  C4'       37.0710   -1.1510   25.1380 C.3   168  G168        0.1773
   3604  O4'       36.1160   -0.1560   24.6840 O.3   168  G168       -0.3307
   3605  C3'       36.2200   -2.4070   25.1990 C.3   168  G168        0.1860
   3606  O3'       36.8690   -3.3980   25.9640 O.3   168  G168       -0.3112
   3607  C2'       35.0080   -1.8400   25.9260 C.3   168  G168        0.2309
   3608  O2'       35.2550   -1.5930   27.2990 O.3   168  G168       -0.2156
   3609  C1'       34.8450   -0.5010   25.2110 C.3   168  G168        0.2408
   3610  N1        29.8670   -0.9710   24.0810 N.ar  168  G168       -0.1709
   3611  C2        30.4940   -1.0950   25.3020 C.ar  168  G168        0.2606
   3612  N2        29.7070   -1.3780   26.3520 N.pl3 168  G168       -0.0859
   3613  N3        31.8070   -0.9520   25.4760 N.ar  168  G168       -0.1918
   3614  C4        32.4620   -0.6690   24.3160 C.ar  168  G168        0.1723
   3615  C5        31.9190   -0.5260   23.0550 C.ar  168  G168        0.1748
   3616  C6        30.5160   -0.6810   22.8820 C.ar  168  G168        0.3023
   3617  O6        29.8550   -0.5910   21.8350 O.2   168  G168       -0.2633
   3618  N7        32.9120   -0.2450   22.1260 N.ar  168  G168       -0.2173
   3619  C8        34.0140   -0.2190   22.8250 C.ar  168  G168        0.1817
   3620  N9        33.8230   -0.4710   24.1620 N.ar  168  G168       -0.2693
   3621  OP1       40.5680   -0.9910   22.3250 O.3   168  G168       -0.4373
   3622  OP2       38.7120   -0.7030   20.5930 O.co2 168  G168       -0.5172
   3623  P         36.6820   -4.9480   25.6210 P.3   169  U169        0.2141
   3624  C5'       35.0070   -5.1990   27.6270 C.3   169  U169        0.1812
   3625  O5'       35.2410   -5.2740   26.2260 O.3   169  U169       -0.3114
   3626  C4'       33.5400   -5.4420   27.9220 C.3   169  U169        0.1773
   3627  O4'       32.7320   -4.3410   27.4300 O.3   169  U169       -0.3307
   3628  C3'       32.9210   -6.6390   27.2200 C.3   169  U169        0.1860
   3629  O3'       33.3450   -7.8630   27.8090 O.3   169  U169       -0.3112
   3630  C2'       31.4440   -6.3140   27.4210 C.3   169  U169        0.2309
   3631  O2'       31.0140   -6.4460   28.7620 O.3   169  U169       -0.2156
   3632  C1'       31.4540   -4.8340   27.0500 C.3   169  U169        0.2420
   3633  N1        31.1780   -4.5480   25.5880 N.ar  169  U169       -0.2534
   3634  C2        29.8710   -4.5910   25.1190 C.ar  169  U169        0.3546
   3635  O2        28.9090   -4.8560   25.8170 O.2   169  U169       -0.2443
   3636  N3        29.7220   -4.3120   23.7790 N.ar  169  U169       -0.1530
   3637  C4        30.7250   -3.9980   22.8770 C.ar  169  U169        0.2846
   3638  O4        30.4370   -3.7720   21.7050 O.2   169  U169       -0.2650
   3639  C5        32.0570   -3.9740   23.4280 C.ar  169  U169        0.0814
   3640  C6        32.2280   -4.2390   24.7330 C.ar  169  U169        0.0870
   3641  OP1       37.7190   -5.6730   26.3860 O.3   169  U169       -0.4373
   3642  OP2       36.5870   -5.1070   24.1490 O.co2 169  U169       -0.5172
   3643  P         33.4230   -9.2040   26.9350 P.3   170  C170        0.2141
   3644  C5'       31.2860  -10.1570   25.6790 C.3   170  C170        0.1812
   3645  O5'       31.8780   -9.6070   26.8480 O.3   170  C170       -0.3114
   3646  C4'       29.7960   -9.9010   25.7620 C.3   170  C170        0.1773
   3647  O4'       29.5290   -8.4870   25.5550 O.3   170  C170       -0.3307
   3648  C3'       28.9380  -10.5970   24.7200 C.3   170  C170        0.1860
   3649  O3'       28.6910  -11.9580   25.0710 O.3   170  C170       -0.3112
   3650  C2'       27.6910   -9.7210   24.7850 C.3   170  C170        0.2309
   3651  O2'       26.9270   -9.9180   25.9600 O.3   170  C170       -0.2156
   3652  C1'       28.3350   -8.3350   24.8080 C.3   170  C170        0.2420
   3653  N1        28.6480   -7.7670   23.4390 N.ar  170  C170       -0.2535
   3654  C2        27.6080   -7.3630   22.5740 C.ar  170  C170        0.3532
   3655  O2        26.4240   -7.4690   22.9290 O.2   170  C170       -0.2443
   3656  N3        27.9300   -6.8590   21.3500 N.ar  170  C170       -0.1739
   3657  C4        29.2090   -6.7490   20.9710 C.ar  170  C170        0.1759
   3658  N4        29.4710   -6.2450   19.7570 N.pl3 170  C170       -0.1070
   3659  C5        30.2780   -7.1540   21.8270 C.ar  170  C170        0.0566
   3660  C6        29.9540   -7.6440   23.0330 C.ar  170  C170        0.0850
   3661  OP1       34.1310  -10.2140   27.7460 O.3   170  C170       -0.4373
   3662  OP2       33.9250   -8.8890   25.5760 O.co2 170  C170       -0.5172
   3663  P         28.5890  -13.0810   23.9320 P.3   171  G171        0.2141
   3664  C5'       25.9730  -13.1060   24.2000 C.3   171  G171        0.1812
   3665  O5'       27.1090  -12.8620   23.3750 O.3   171  G171       -0.3114
   3666  C4'       24.7000  -12.7310   23.4660 C.3   171  G171        0.1773
   3667  O4'       24.7020  -11.3050   23.2030 O.3   171  G171       -0.3307
   3668  C3'       24.5420  -13.3650   22.0910 C.3   171  G171        0.1860
   3669  O3'       23.9990  -14.6760   22.1860 O.3   171  G171       -0.3112
   3670  C2'       23.5980  -12.3790   21.4110 C.3   171  G171        0.2309
   3671  O2'       22.2480  -12.5230   21.8090 O.3   171  G171       -0.2156
   3672  C1'       24.1570  -11.0560   21.9180 C.3   171  G171        0.2408
   3673  N1        25.0610   -8.6510   17.5140 N.ar  171  G171       -0.1709
   3674  C2        23.8650   -9.0720   18.0470 C.ar  171  G171        0.2606
   3675  N2        22.7650   -8.8220   17.3230 N.pl3 171  G171       -0.0859
   3676  N3        23.7580   -9.6950   19.2180 N.ar  171  G171       -0.1918
   3677  C4        24.9630   -9.8720   19.8220 C.ar  171  G171        0.1723
   3678  C5        26.2080   -9.4910   19.3700 C.ar  171  G171        0.1748
   3679  C6        26.3080   -8.8240   18.1190 C.ar  171  G171        0.3023
   3680  O6        27.3280   -8.4100   17.5520 O.2   171  G171       -0.2633
   3681  N7        27.1940   -9.8540   20.2780 N.ar  171  G171       -0.2173
   3682  C8        26.5390  -10.4350   21.2480 C.ar  171  G171        0.1817
   3683  N9        25.1800  -10.4810   21.0410 N.ar  171  G171       -0.2693
   3684  OP1       28.6700  -14.4060   24.5880 O.3   171  G171       -0.4373
   3685  OP2       29.5340  -12.7460   22.8420 O.co2 171  G171       -0.5172
   3686  P         24.4820  -15.8240   21.1760 P.3   172  G172        0.2141
   3687  C5'       22.3050  -15.4390   19.7410 C.3   172  G172        0.1812
   3688  O5'       23.7290  -15.4510   19.8140 O.3   172  G172       -0.3114
   3689  C4'       21.8320  -14.6970   18.5030 C.3   172  G172        0.1773
   3690  O4'       22.2700  -13.3120   18.5460 O.3   172  G172       -0.3307
   3691  C3'       22.3930  -15.2000   17.1800 C.3   172  G172        0.1860
   3692  O3'       21.7320  -16.3800   16.7300 O.3   172  G172       -0.3112
   3693  C2'       22.1150  -13.9970   16.2850 C.3   172  G172        0.2309
   3694  O2'       20.7600  -13.8840   15.8820 O.3   172  G172       -0.2156
   3695  C1'       22.5090  -12.8580   17.2220 C.3   172  G172        0.2408
   3696  N1        25.9360  -10.4710   14.2830 N.ar  172  G172       -0.1709
   3697  C2        24.5820  -10.6350   14.0910 C.ar  172  G172        0.2606
   3698  N2        24.0670  -10.0990   12.9770 N.pl3 172  G172       -0.0859
   3699  N3        23.7870  -11.2840   14.9370 N.ar  172  G172       -0.1918
   3700  C4        24.4590  -11.7660   16.0150 C.ar  172  G172        0.1723
   3701  C5        25.8040  -11.6560   16.2970 C.ar  172  G172        0.1748
   3702  C6        26.6390  -10.9610   15.3880 C.ar  172  G172        0.3023
   3703  O6        27.8600  -10.7690   15.4740 O.2   172  G172       -0.2633
   3704  N7        26.1100  -12.2870   17.4960 N.ar  172  G172       -0.2173
   3705  C8        24.9650  -12.7560   17.9100 C.ar  172  G172        0.1817
   3706  N9        23.9150  -12.4760   17.0640 N.ar  172  G172       -0.2693
   3707  OP1       23.9620  -17.1110   21.6870 O.3   172  G172       -0.4373
   3708  OP2       25.9350  -15.6660   20.9340 O.co2 172  G172       -0.5172
   3709  P         22.5560  -17.5190   15.9600 P.3   173  U173        0.2141
   3710  C5'       21.9500  -16.5580   13.5750 C.3   173  U173        0.1813
   3711  O5'       22.9430  -16.8370   14.5630 O.3   173  U173       -0.3114
   3712  C4'       22.4630  -15.5900   12.5210 C.3   173  U173        0.1801
   3713  O4'       23.0610  -14.4290   13.1520 O.3   173  U173       -0.3306
   3714  C3'       23.5690  -16.1230   11.6210 C.3   173  U173        0.2161
   3715  O3'       23.0350  -16.9150   10.5670 O.3   173  U173       -0.2175
   3716  C2'       24.2050  -14.8300   11.1180 C.3   173  U173        0.2338
   3717  O2'       23.4800  -14.2090   10.0720 O.3   173  U173       -0.2155
   3718  C1'       24.1550  -13.9640   12.3760 C.3   173  U173        0.2421
   3719  N1        25.4310  -13.9940   13.1790 N.ar  173  U173       -0.2534
   3720  C2        26.5260  -13.2530   12.7520 C.ar  173  U173        0.3546
   3721  O2        26.5320  -12.5580   11.7490 O.2   173  U173       -0.2443
   3722  N3        27.6420  -13.3490   13.5540 N.ar  173  U173       -0.1530
   3723  C4        27.7720  -14.0960   14.7150 C.ar  173  U173        0.2846
   3724  O4        28.8350  -14.0820   15.3270 O.2   173  U173       -0.2650
   3725  C5        26.5980  -14.8410   15.1000 C.ar  173  U173        0.0814
   3726  C6        25.5000  -14.7620   14.3350 C.ar  173  U173        0.0870
   3727  OP1       21.6210  -18.6410   15.7170 O.2   173  U173       -0.5172
   3728  OP2       23.8150  -17.7680   16.6970 O.co2 173  U173       -0.4373
@<TRIPOS>BOND
     1  1040  1019    2
     2  1003  1019    1
     3  1003  1002    1
     4  1017   997    2
     5  1019  1041    1
     6  1019  1021    1
     7   998  1000    1
     8   998   999    1
     9  1063  1042    2
    10  1020  1021    1
    11  1020  1022    1
    12  1000  1002    1
    13  1000  1001    1
    14  1005  1004    1
    15  1002  1004    1
    16   982   981    1
    17   862   843    2
    18   861   843    1
    19   980   997    1
    20   980   979    1
    21   997   999    1
    22   997  1018    1
    23  1025  1042    1
    24  1025  1024    1
    25  1042  1064    1
    26  1042  1044    1
    27  1022  1024    1
    28  1022  1023    1
    29   881   863    2
    30  1001  1006    1
    31  1004  1006    1
    32   843   845    1
    33   843   827    1
    34   845   844    1
    35  1024  1026    1
    36   977   979    1
    37   977   975    1
    38   977   978    1
    39   979   981    1
    40   981   983    1
    41  1006  1016    1
    42   975   976    1
    43   844   846    1
    44   841   821    2
    45  1023  1028    1
    46   882   863    1
    47   863   849    1
    48   863   865    1
    49  1044  1043    1
    50   848   846    1
    51   848   849    1
    52   848   850    1
    53   995   974    2
    54   827   826    1
    55   978   983    1
    56  1027  1026    1
    57   983   994    1
    58  1026  1028    1
    59   846   847    1
    60   826   824    1
    61   826   828    1
    62   865   864    1
    63   976   974    1
    64  1016  1015   ar
    65  1016  1010   ar
    66   821   823    1
    67   821   842    1
    68   821   807    1
    69   822   823    1
    70   822   824    1
    71  1028  1039    1
    72   850   851    1
    73   850   852    1
    74  1043  1045    1
    75   959   958    1
    76  1015  1014   ar
    77  2138  2137    1
    78   974   957    1
    79   974   996    1
    80   824   825    1
    81  1038  1039   ar
    82  1038  1037   ar
    83   957   956    1
    84   829   828    1
    85   828   830    1
    86   987   988   ar
    87   987   985   ar
    88   847   852    1
    89  1039  1033   ar
    90   994   988   ar
    91   994   993   ar
    92  1010  1009   ar
    93  1010  1011   ar
    94   986   985    1
    95  1009  1008   ar
    96   958   956    1
    97   958   960    1
    98   807   806    1
    99   864   866    1
   100   963   962    1
   101   852   853    1
   102  1045  1046    1
   103  1045  1047    1
   104   988   989   ar
   105  1085  1065    2
   106  1014  1011   ar
   107   985   984   ar
   108  1037  1034   ar
   109  2139  2137    1
   110  2139  2134    1
   111  2139  2140    1
   112  2142  2141    2
   113   956   954    1
   114  2137  2135    1
   115  1086  1065    1
   116  2134  2133    1
   117   860   853   ar
   118   860   859   ar
   119   993   992   ar
   120  2158  2157    1
   121   825   830    1
   122  1048  1065    1
   123  1048  1047    1
   124  2133  2135    1
   125  2133  2131    1
   126  1011  1012   ar
   127  1046  1051    1
   128  2153  2154    1
   129  2153  2151    1
   130  2153  2155    1
   131   866   867    1
   132   866   868    1
   133   830   840    1
   134  2154  2159    1
   135   853   854   ar
   136   964   962   ar
   137   964   965   ar
   138  1065  1067    1
   139  2151  2152    1
   140  1033  1034   ar
   141  1033  1032   ar
   142   962   961   ar
   143  1047  1049    1
   144   867   872    1
   145  1008  1007   ar
   146   819   801    2
   147  2118  2117    1
   148  2122  2121    2
   149   954   955    1
   150   954   952    1
   151   960   955    1
   152   960   971    1
   153  2136  2135    1
   154  2136  2150    1
   155   806   804    1
   156   806   808    1
   157   859   857   ar
   158  2141  2140   ar
   159  2141  2143   ar
   160   989   992   ar
   161   989   990   ar
   162  1034  1035   ar
   163  2159  2157    1
   164  2159  2160    1
   165  1898  1877    2
   166  2140  2147   ar
   167   984   990   ar
   168  1061  1060   ar
   169  1061  1062   ar
   170  2131  2132    1
   171   809   808    1
   172  2157  2155    1
   173  1032  1030   ar
   174   839   840   ar
   175   839   838   ar
   176   840   834   ar
   177  2156  2155    1
   178  2156  2170    1
   179   802   804    1
   180   802   803    1
   181   854   855    2
   182   854   856   ar
   183  1918  1900    2
   184   965   971   ar
   185   965   966   ar
   186  1012  1007   ar
   187  1012  1013    1
   188  2168  2150    2
   189   804   805    1
   190  1878  1880    1
   191  1878  1879    1
   192   872   873    1
   193   872   870    1
   194   971   970   ar
   195   961   967   ar
   196   808   810    1
   197  2152  2150    1
   198  1060  1057   ar
   199  1051  1049    1
   200  1051  1062    1
   201   869   868    1
   202   869   883    1
   203   952   953    1
   204   990   991    2
   205   868   870    1
   206   803   801    1
   207  2117  2119    1
   208  2117  2115    1
   209   857   856   ar
   210   857   858    2
   211  2150  2169    1
   212  2121  2123   ar
   213  2121  2120   ar
   214  1863  1877    1
   215  1863  1862    1
   216  1049  1050    1
   217  2143  2144   ar
   218   801   820    1
   219   801   787    1
   220  1124  1123    2
   221  2119  2120    1
   222  2119  2114    1
   223  1062  1056   ar
   224  1865  1864    1
   225  1067  1066    1
   226   880   873   ar
   227   880   879   ar
   228  2147  2146   ar
   229   904   883    2
   230  1883  1900    1
   231  1883  1882    1
   232  1877  1879    1
   233  1877  1899    1
   234  2160  2161   ar
   235  2160  2167   ar
   236   873   874   ar
   237  1880  1882    1
   238  1880  1881    1
   239   903   883    1
   240  2191  2170    2
   241  2162  2161    2
   242   838   835   ar
   243  1035  1036    2
   244  1035  1029   ar
   245  2938  2920    2
   246  2384  2382    1
   247  2384  2385    1
   248  2384  2386    1
   249  2132  2130    1
   250  2171  2173    1
   251  2171  2172    1
   252  2382  2383    1
   253  2123  2124   ar
   254  2389  2388    1
   255   883   885    1
   256  1030  1029   ar
   257  1030  1031    1
   258   834   833   ar
   259   834   835   ar
   260   870   871    1
   261   966   967   ar
   262   966   969   ar
   263  1900  1919    1
   264  1900  1902    1
   265  1860  1858    1
   266  1860  1862    1
   267  1860  1861    1
   268  2120  2127   ar
   269   953   951    1
   270   879   877   ar
   271  2170  2172    1
   272  2170  2192    1
   273  1066  1068    1
   274   967   968    2
   275  1123  1122   ar
   276  1123  1125   ar
   277  2114  2113    1
   278  2387  2386    1
   279  2387  2401    1
   280  1858  1859    1
   281  2419  2401    2
   282   970   969   ar
   283  2161  2163   ar
   284  2167  2166   ar
   285   874   875    2
   286   874   876   ar
   287  2385  2390    1
   288  1122  1120   ar
   289   805   810    1
   290  1862  1864    1
   291  2144  2146   ar
   292  2144  2145    1
   293  1057  1056   ar
   294  1057  1058   ar
   295   810   811    1
   296  1882  1884    1
   297   787   786    1
   298  2102  2101    2
   299   833   832   ar
   300  3468  3447    2
   301  2116  2115    1
   302  2116  2130    1
   303  2173  2174    1
   304  2173  2175    1
   305   835   836   ar
   306  2904  2920    1
   307  2904  2903    1
   308   972   951    2
   309  2115  2113    1
   310  1108  1087    2
   311  2174  2179    1
   312  2113  2111    1
   313  1864  1866    1
   314  1881  1886    1
   315  1103  1102    1
   316  1056  1055   ar
   317  2899  2901    1
   318  2899  2900    1
   319  1885  1884    1
   320  2901  2903    1
   321  2901  2902    1
   322   877   876   ar
   323   877   878    1
   324  2906  2905    1
   325  2386  2388    1
   326  1125  1126   ar
   327  1901  1902    1
   328  1901  1903    1
   329  2921  2922    1
   330  2921  2923    1
   331   940   939    1
   332  1875  1857    2
   333  2388  2390    1
   334  2148  2130    2
   335  1861  1866    1
   336  2130  2149    1
   337  2920  2922    1
   338  2920  2939    1
   339  2400  2381    2
   340   922   921    2
   341  2401  2403    1
   342  2401  2420    1
   343  2390  2391    1
   344  2383  2381    1
   345  1120  1121    2
   346  1120  1119   ar
   347   951   973    1
   348   951   934    1
   349  2124  2125    1
   350  2124  2126   ar
   351  2886  2885    1
   352  3425  3427    1
   353  3425  3426    1
   354  2402  2403    1
   355  2402  2404    1
   356  2918  2898    2
   357  3430  3447    1
   358  3430  3429    1
   359  3445  3424    2
   360  3448  3450    1
   361  3448  3449    1
   362  1884  1886    1
   363  2166  2164   ar
   364  3490  3470    2
   365  2163  2164   ar
   366  2127  2126   ar
   367  3412  3411    1
   368  2903  2905    1
   369   811   818   ar
   370   811   812   ar
   371  1866  1867    1
   372   885   884    1
   373  3427  3429    1
   374  3427  3428    1
   375  1842  1841    1
   376  2902  2907    1
   377  1859  1857    1
   378  1082  1083   ar
   379  1082  1079   ar
   380  1083  1084   ar
   381  1117  1116    1
   382  2101  2103   ar
   383  2101  2100   ar
   384  1059  1058    2
   385  2606  2605    1
   386  1058  1052   ar
   387  1126  1119   ar
   388  2103  2104   ar
   389  1068  1069    1
   390  1068  1070    1
   391  3432  3431    1
   392  2639  2618    2
   393   832   831   ar
   394   813   812    2
   395  1104  1101   ar
   396  1104  1105   ar
   397  1886  1897    1
   398  3447  3449    1
   399  3447  3469    1
   400  2923  2924    1
   401  2923  2925    1
   402   836   831   ar
   403   836   837    1
   404  1119  1118    1
   405  2179  2177    1
   406  2179  2190    1
   407   818   817   ar
   408   789   788    1
   409  2381  2399    1
   410  2381  2364    1
   411  3115  3114    1
   412  2905  2907    1
   413   786   788    1
   414   786   784    1
   415  1055  1053   ar
   416  2098  2097    1
   417  2884  2898    1
   418  2884  2883    1
   419  1087  1107    1
   420  1087  1071    1
   421  1087  1089    1
   422  2164  2165    1
   423  1102  1101   ar
   424  1102  1097   ar
   425  2111  2112    1
   426  2175  2176    1
   427  2175  2177    1
   428  2900  2898    1
   429   921   915   ar
   430   921   920   ar
   431   812   814   ar
   432  1069  1074    1
   433  2176  2193    1
   434   939   941   ar
   435   939   938   ar
   436  1116  1118    1
   437  1116  1114    1
   438  1857  1840    1
   439  1857  1876    1
   440  3410  3424    1
   441  3410  3409    1
   442  2178  2177    1
   443  3450  3452    1
   444  3450  3451    1
   445   927   905    2
   446  1940  1920    2
   447  1070  1071    1
   448  1070  1072    1
   449  2619  2621    1
   450  2619  2620    1
   451  2404  2405    1
   452  2404  2406    1
   453   936   935    1
   454  3429  3431    1
   455  1903  1904    1
   456  1903  1905    1
   457  3453  3470    1
   458  3453  3452    1
   459  2958  2940    2
   460  2898  2919    1
   461   884   886    1
   462  1840  1839    1
   463   915   916   ar
   464  2907  2917    1
   465   934   933    1
   466  2604  2618    1
   467  2604  2603    1
   468   788   790    1
   469  1101  1100   ar
   470  3128  3130    1
   471  3128  3129    1
   472  2926  2925    1
   473  2926  2940    1
   474  2189  2190   ar
   475  2189  2188   ar
   476  3428  3433    1
   477  1161  1160    1
   478  3426  3424    1
   479  3424  3446    1
   480  2621  2622    1
   481  2621  2623    1
   482   941   942   ar
   483  2924  2929    1
   484  3130  3131    1
   485  3130  3132    1
   486  2391  2398   ar
   487  2391  2392   ar
   488   938   944   ar
   489  3470  3491    1
   490  3470  3472    1
   491  1941  1920    1
   492  2885  2883    1
   493  2885  2887    1
   494  1846  1845    1
   495  2190  2184   ar
   496  3135  3134    1
   497  2105  2104    2
   498  1105  1106   ar
   499  2097  2099    1
   500  2097  2095    1
   501  1906  1920    1
   502  1906  1905    1
   503  3431  3433    1
   504  2405  2410    1
   505  2881  2883    1
   506  2881  2879    1
   507  2881  2882    1
   508   817   815   ar
   509  1118  1113    1
   510  1841  1839    1
   511  1841  1843    1
   512   935   933    1
   513   935   937    1
   514  2211  2193    2
   515   784   782    1
   516   784   785    1
   517  2104  2106   ar
   518  1184  1183    1
   519  3525  3526   ar
   520  3525  3530   ar
   521  1084  1074    1
   522  1084  1078   ar
   523  1052  1053   ar
   524  2626  2625    1
   525  3411  3409    1
   526  3411  3413    1
   527  2100  2099    1
   528  2100  2107   ar
   529  2618  2620    1
   530  2618  2640    1
   531  2099  2094    1
   532   782   783    1
   533  1159  1160   ar
   534  1159  1165   ar
   535   799   781    2
   536  1079  1080   ar
   537  1079  1078   ar
   538  1097  1098   ar
   539   920   923   ar
   540   920   919   ar
   541  1920  1922    1
   542  2925  2927    1
   543  3407  3409    1
   544  3407  3405    1
   545  3407  3408    1
   546  1081  1080    1
   547  1053  1054    1
   548   814   815   ar
   549  3148  3127    2
   550  2601  2603    1
   551  2601  2602    1
   552  2601  2599    1
   553   923   924   ar
   554  2605  2603    1
   555  2605  2607    1
   556  1867  1868   ar
   557  1867  1874   ar
   558  3113  3112    1
   559  3113  3127    1
   560  2398  2397   ar
   561  1897  1896   ar
   562  1897  1891   ar
   563  3452  3454    1
   564  2112  2110    1
   565  1089  1088    1
   566  3131  3136    1
   567  1904  1909    1
   568  2624  2623    1
   569  2624  2641    1
   570  2940  2959    1
   571  2940  2942    1
   572  3451  3456    1
   573  2393  2392    2
   574  2193  2212    1
   575  2193  2195    1
   576  1869  1868    2
   577  3133  3132    1
   578  3133  3150    1
   579  1160  1162   ar
   580  1074  1072    1
   581  1905  1907    1
   582  1128  1109    2
   583  2346  2345    1
   584  1166  1165    2
   585  1896  1895   ar
   586  1114  1115    1
   587  1114  1112    1
   588  2622  2627    1
   589  2407  2406    1
   590  2407  2421    1
   591  2662  2641    2
   592  3433  3444    1
   593  3526  3527   ar
   594   933   931    1
   595  3531  3530    1
   596  2085  2084    1
   597   888   886    1
   598   888   890    1
   599   888   889    1
   600   916   917    1
   601   916   918   ar
   602   815   816    1
   603  3114  3112    1
   604  3114  3116    1
   605  1839  1837    1
   606  2364  2363    1
   607  2188  2185   ar
   608  2439  2421    2
   609  2928  2927    1
   610  2879  2880    1
   611  2370  2369    1
   612  2083  2084   ar
   613  2083  2081   ar
   614  3110  3112    1
   615  3110  3111    1
   616  3110  3108    1
   617  2882  2887    1
   618  2887  2888    1
   619  3171  3150    2
   620  3455  3454    1
   621  2406  2408    1
   622  1115  1129    1
   623  3405  3406    1
   624  2392  2394   ar
   625  2082  2081    2
   626  1165  1164   ar
   627  2602  2607    1
   628   783   781    1
   629  1072  1073    1
   630   886   887    1
   631   905   926    1
   632   905   889    1
   633   905   907    1
   634  1847  1845   ar
   635  1847  1848   ar
   636  1080  1075   ar
   637  2623  2625    1
   638  2599  2600    1
   639  2607  2608    1
   640  3132  3134    1
   641  3471  3472    1
   642  3471  3473    1
   643   942   943   ar
   644   942   948   ar
   645   890   891    1
   646   890   892    1
   647  3408  3413    1
   648  1868  1870   ar
   649  1874  1873   ar
   650  3129  3127    1
   651  3413  3414    1
   652   944   945    2
   653   944   943   ar
   654  1183  1182   ar
   655  1183  1185   ar
   656  3530  3529   ar
   657  1078  1077   ar
   658  1845  1844   ar
   659  2917  2916   ar
   660  2917  2911   ar
   661  3127  3149    1
   662  3134  3136    1
   663  2184  2185   ar
   664  2184  2183   ar
   665  1100  1106   ar
   666  1100  1099   ar
   667  3136  3147    1
   668    32    31    1
   669  2929  2927    1
   670  2929  2930    1
   671  3111  3116    1
   672  1147  1129    2
   673  2065  2064    1
   674   919   918   ar
   675   919   925   ar
   676  2625  2627    1
   677  1843  1838    1
   678  1843  1854    1
   679  3116  3117    1
   680   790   785    1
   681   790   791    1
   682  1113  1112    1
   683  1106  1096    1
   684  1837  1838    1
   685  1837  1835    1
   686   924   925   ar
   687   781   800    1
   688   781   767    1
   689  2584  2583    1
   690  1182  1188   ar
   691  2421  2440    1
   692  2421  2423    1
   693  2627  2638    1
   694  3454  3456    1
   695  2084  2086   ar
   696  2409  2408    1
   697  2107  2106   ar
   698  2410  2408    1
   699  2410  2411    1
   700  2642  2643    1
   701  2642  2644    1
   702  1162  1163   ar
   703  3108  3109    1
   704  2641  2643    1
   705  2641  2663    1
   706  2379  2358    2
   707   937   948    1
   708   937   932    1
   709  2081  2080   ar
   710  2094  2093    1
   711  1111  1109    1
   712  1111  1110    1
   713  2185  2186   ar
   714  2095  2096    1
   715  2095  2093    1
   716  2890  2889    2
   717  1098  1099   ar
   718  3150  3172    1
   719  3150  3152    1
   720   901   900   ar
   721   901   902   ar
   722  1207  1206    1
   723  1185  1186   ar
   724   943   946   ar
   725  3456  3467    1
   726  2363  2365    1
   727  2363  2361    1
   728  2397  2395   ar
   729  1891  1890   ar
   730  1891  1892   ar
   731   887   892    1
   732  2183  2181   ar
   733  2096  2110    1
   734   948   947   ar
   735  2344  2343    1
   736  2344  2358    1
   737  1129  1148    1
   738  1129  1131    1
   739  2916  2915   ar
   740  2045  2044    2
   741  1112  1110    1
   742  1917  1916   ar
   743  1917  1910   ar
   744  2610  2609    2
   745  1909  1907    1
   746  1909  1910    1
   747  1088  1090    1
   748  1908  1907    1
   749  1895  1892   ar
   750  1164  1163   ar
   751  1164  1167   ar
   752  1109  1127    1
   753  1109  1093    1
   754  3416  3415    2
   755  3527  3528   ar
   756   907   906    1
   757  1922  1921    1
   758  2110  2128    2
   759  2110  2129    1
   760  2195  2194    1
   761  2864  2863    1
   762   931   932    1
   763   931   929    1
   764  2942  2941    1
   765   925   914    1
   766  2345  2347    1
   767  2345  2343    1
   768   793   792    2
   769  2369  2371   ar
   770  2369  2368   ar
   771  1890  1888   ar
   772  3151  3152    1
   773  3151  3153    1
   774  2941  2943    1
   775  1163  1169   ar
   776  3119  3118    2
   777  3444  3443   ar
   778  3444  3438   ar
   779  2910  2911   ar
   780  2910  2909   ar
   781  2043  2044   ar
   782  2043  2041   ar
   783  2418  2411   ar
   784  2418  2417   ar
   785  1848  1854   ar
   786  1848  1849   ar
   787  2937  2930   ar
   788  2937  2936   ar
   789  3093  3092    1
   790   791   792   ar
   791   791   798   ar
   792  2880  2878    1
   793  2194  2196    1
   794  2093  2091    1
   795  3389  3388    1
   796   900   897   ar
   797  2394  2395   ar
   798   892   902    1
   799  2911  2912   ar
   800  1823  1822    1
   801  2888  2889   ar
   802  2888  2895   ar
   803  1092  1090    1
   804  1092  1093    1
   805  1092  1094    1
   806  2359  2361    1
   807  2359  2360    1
   808  1844  1850   ar
   809  1854  1853   ar
   810  3422  3404    2
   811  3406  3404    1
   812  1188  1189    2
   813  1188  1187   ar
   814   913   912    1
   815  2341  2343    1
   816  2341  2342    1
   817  2341  2339    1
   818  2644  2645    1
   819  2644  2646    1
   820  1075  1076   ar
   821    48    50    1
   822    48    49    1
   823  2042  2041    2
   824  2930  2931   ar
   825  1203  1202    1
   826  3473  3475    1
   827  3473  3474    1
   828  3393  3392    1
   829  1873  1871   ar
   830  1206  1208   ar
   831  1206  1205   ar
   832  2371  2372   ar
   833  1208  1209   ar
   834   792   794   ar
   835  1870  1871   ar
   836  1916  1914   ar
   837  2411  2412   ar
   838  2347  2342    1
   839  2347  2348    1
   840  2608  2609   ar
   841  2608  2615   ar
   842  3529  3528   ar
   843  3529  3532   ar
   844  2600  2598    1
   845  1077  1076   ar
   846  2896  2878    2
   847  2064  2063   ar
   848  2064  2066   ar
   849  2889  2891   ar
   850  1835  1836    1
   851  2044  2046   ar
   852  2063  2061   ar
   853  1921  1923    1
   854   912   914    1
   855   912   910    1
   856  1186  1187   ar
   857  1186  1192   ar
   858   902   896   ar
   859  3414  3415   ar
   860  3414  3421   ar
   861  2358  2360    1
   862  2358  2380    1
   863  1910  1911   ar
   864  1091  1096    1
   865  1091  1090    1
   866  1892  1893   ar
   867  2350  2349    2
   868  2395  2396    1
   869    50    51    1
   870    50    52    1
   871   767   766    1
   872  1096  1094    1
   873  3147  3146   ar
   874  3147  3141   ar
   875  2365  2366    1
   876  2365  2367    1
   877  2361  2362    1
   878   798   797   ar
   879    31    33    1
   880    31    29    1
   881  3443  3442   ar
   882  1167  1168   ar
   883  2980  2960    2
   884   946   947   ar
   885    65    47    2
   886  2609  2611   ar
   887  2186  2187    2
   888  2186  2180   ar
   889    30    29    1
   890    30    47    1
   891  2583  2585    1
   892  2583  2581    1
   893  3528  3534   ar
   894  3415  3417   ar
   895  2041  2040   ar
   896  3117  3118   ar
   897  3117  3124   ar
   898  2645  2650    1
   899  2181  2180   ar
   900  2181  2182    1
   901  2616  2598    2
   902  2638  2637   ar
   903  2638  2632   ar
   904  1094  1095    1
   905  2368  2374   ar
   906  2086  2087   ar
   907  3467  3466   ar
   908  3467  3461   ar
   909  2423  2422    1
   910  1187  1190   ar
   911  3109  3107    1
   912    27    28    1
   913    27    29    1
   914    27    25    1
   915  3466  3465   ar
   916  1204  1199    1
   917  1204  1202    1
   918  1204  1215    1
   919  2080  2087   ar
   920  2080  2079    1
   921  2588  2587   ar
   922  2588  2589   ar
   923    33    28    1
   924    33    44    1
   925   929   930    1
   926  2417  2415   ar
   927  3153  3154    1
   928  3153  3155    1
   929    51    56    1
   930  3118  3120   ar
   931  1169  1168   ar
   932  1169  1158    1
   933  2582  2598    1
   934  2582  2581    1
   935  2587  2586   ar
   936  3437  3438   ar
   937  3437  3435   ar
   938   914   909    1
   939  2327  2328   ar
   940  2327  2326   ar
   941  2422  2424    1
   942  2197  2196    1
   943  2197  2202    1
   944  2915  2912   ar
   945  2209  2210   ar
   946  2209  2207   ar
   947  2936  2934   ar
   948  1180  1179    1
   949  3404  3387    1
   950  3404  3423    1
   951  2878  2862    1
   952  2878  2897    1
   953  3438  3439   ar
   954    55    54    1
   955   794   795   ar
   956  1181  1192    1
   957  1181  1179    1
   958  1181  1176    1
   959  2863  2861    1
   960  2863  2865    1
   961  1871  1872    2
   962  3475  3476    1
   963  3475  3477    1
   964  1205  1211   ar
   965  1192  1191   ar
   966  1226  1225    1
   967  3513  3492    2
   968  3146  3145   ar
   969  1131  1130    1
   970  2862  2861    1
   971  2339  2340    1
   972  2210  2203   ar
   973    53    52    1
   974    53    67    1
   975  1199  1198    1
   976  3474  3479    1
   977  1209  1215   ar
   978  1209  1210   ar
   979  2895  2894   ar
   980  2909  2908   ar
   981   906   908    1
   982  3125  3107    2
   983  3387  3386    1
   984  1849  1850   ar
   985  1849  1852   ar
   986  2598  2617    1
   987  1888  1889    1
   988  1888  1887   ar
   989   797   795   ar
   990  2196  2198    1
   991   930   928    1
   992  2912  2913   ar
   993  1202  1200    1
   994  3388  3386    1
   995  3388  3390    1
   996    36    35    1
   997  3154  3159    1
   998  3092  3094    1
   999  3092  3090    1
  1000  2637  2636   ar
  1001    85    67    2
  1002  3140  3141   ar
  1003  3140  3138   ar
  1004  2868  2867   ar
  1005  2868  2869   ar
  1006  2585  2580    1
  1007  2585  2595    1
  1008  2647  2646    1
  1009  2647  2664    1
  1010  1822  1821   ar
  1011  1822  1824   ar
  1012  2328  2329   ar
  1013  3097  3096   ar
  1014  3097  3098   ar
  1015  2867  2866   ar
  1016  1850  1851    2
  1017  2324  2323    1
  1018  3096  3095   ar
  1019  2943  2944    1
  1020  2943  2945    1
  1021  2615  2614   ar
  1022  1836  1834    1
  1023   769   768    1
  1024  1215  1214   ar
  1025    47    49    1
  1026    47    66    1
  1027   897   896   ar
  1028   897   898   ar
  1029  3514  3492    1
  1030  3421  3420   ar
  1031   910   908    1
  1032   910   911    1
  1033  3392  3394   ar
  1034  3392  3391   ar
  1035  3532  3533   ar
  1036  3141  3142   ar
  1037  1222  1227    1
  1038  1222  1221    1
  1039    37    35   ar
  1040    37    38   ar
  1041  1158  1153    1
  1042  1158  1156    1
  1043  1853  1852   ar
  1044   795   796    1
  1045  3394  3395   ar
  1046  2349  2348   ar
  1047  2349  2351   ar
  1048  2646  2648    1
  1049  2581  2579    1
  1050  2061  2062    2
  1051  2061  2060   ar
  1052  2931  2932    2
  1053  2931  2933   ar
  1054  2046  2047   ar
  1055  2091  2092    1
  1056  2066  2067   ar
  1057  2631  2632   ar
  1058  2631  2629   ar
  1059    52    54    1
  1060  2372  2378   ar
  1061  2372  2373   ar
  1062    13    12    1
  1063  2348  2355   ar
  1064  2412  2413    2
  1065  2412  2414   ar
  1066  3091  3107    1
  1067  3091  3090    1
  1068  2079  2077    1
  1069  2079  2074    1
  1070  1145  1146   ar
  1071  1145  1143   ar
  1072    25    26    1
  1073  1227  1225    1
  1074  1227  1238    1
  1075   896   895   ar
  1076  2078  2077    1
  1077  1179  1177    1
  1078  1190  1191   ar
  1079  2891  2892   ar
  1080  2077  2075    1
  1081   909   908    1
  1082  2632  2633   ar
  1083  2326  2331   ar
  1084  3124  3123   ar
  1085  2685  2664    2
  1086  3107  3126    1
  1087   766   768    1
  1088   766   764    1
  1089  1914  1915    1
  1090  1914  1913   ar
  1091  2649  2648    1
  1092  1176  1175    1
  1093  2579  2580    1
  1094  2579  2577    1
  1095  2040  2047   ar
  1096  2040  2039    1
  1097  2944  2949    1
  1098  2208  2207    1
  1099  1821  1827   ar
  1100  3442  3439   ar
  1101    56    54    1
  1102    56    57    1
  1103  2362  2367    1
  1104  3492  3476    1
  1105  3492  3494    1
  1106  1911  1913   ar
  1107  1911  1912    2
  1108  2367  2378    1
  1109  1893  1887   ar
  1110  1893  1894    2
  1111  2207  2206   ar
  1112     9     8    1
  1113  2861  2859    1
  1114  2960  2981    1
  1115  2960  2946    1
  1116  2960  2962    1
  1117  1923  1924    1
  1118  1923  1925    1
  1119  1964  1942    2
  1120   768   770    1
  1121  1221  1219    1
  1122  1221  1223    1
  1123  3477  3479    1
  1124  3477  3478    1
  1125  2611  2612   ar
  1126  3488  3487   ar
  1127  3488  3489   ar
  1128  3417  3418   ar
  1129  1211  1210   ar
  1130  1211  1212    2
  1131  2092  2090    1
  1132  2865  2860    1
  1133  2865  2875    1
  1134  1198  1200    1
  1135  1198  1196    1
  1136  2650  2648    1
  1137  2650  2661    1
  1138  1210  1213   ar
  1139  3534  3533   ar
  1140  3534  3524    1
  1141  3465  3462   ar
  1142    35    34   ar
  1143  2589  2595   ar
  1144  2589  2590   ar
  1145  1824  1825   ar
  1146  2586  2591   ar
  1147  2374  2373   ar
  1148  2374  2375    2
  1149  3386  3384    1
  1150  2203  2202    1
  1151  2203  2204   ar
  1152  3461  3460   ar
  1153  3461  3462   ar
  1154  3094  3089    1
  1155  3094  3104    1
  1156    44    38   ar
  1157    44    43   ar
  1158  1144  1143    1
  1159  3156  3155    1
  1160  3156  3173    1
  1161    67    86    1
  1162    67    69    1
  1163  3435  3436    1
  1164  3435  3434   ar
  1165  1146  1139   ar
  1166  1225  1223    1
  1167  3439  3440   ar
  1168  2415  2414   ar
  1169  2415  2416    1
  1170  2202  2200    1
  1171  3120  3121   ar
  1172  3155  3157    1
  1173  1938  1937   ar
  1174  1938  1939   ar
  1175  1130  1132    1
  1176  3090  3088    1
  1177  2664  2686    1
  1178  2664  2666    1
  1179  3390  3385    1
  1180  3390  3401    1
  1181  2595  2594   ar
  1182  2378  2377   ar
  1183  1153  1152    1
  1184  2934  2933   ar
  1185  2934  2935    1
  1186  3479  3489    1
  1187  3523  3522    1
  1188  1214  1213   ar
  1189    38    39   ar
  1190  1855  1834    2
  1191  3145  3142   ar
  1192  2424  2425    1
  1193  2424  2426    1
  1194  1924  1929    1
  1195  1231  1229   ar
  1196  1231  1232   ar
  1197  1819  1818    1
  1198  1157  1156    1
  1199  1156  1154    1
  1200  2908  2913   ar
  1201  1937  1934   ar
  1202  2866  2871   ar
  1203  3138  3139    1
  1204  3138  3137   ar
  1205  2945  2946    1
  1206  2945  2947    1
  1207  3095  3100   ar
  1208  2957  2956   ar
  1209  2957  2950   ar
  1210  1230  1229    1
  1211  1963  1942    1
  1212  2913  2914    1
  1213  2894  2892   ar
  1214  2373  2376   ar
  1215  2323  2325    1
  1216  2323  2321    1
  1217  2859  2860    1
  1218  2859  2857    1
  1219  2340  2338    1
  1220  1200  1201    1
  1221   899   898    1
  1222    68    69    1
  1223    68    70    1
  1224  3487  3484   ar
  1225  2869  2875   ar
  1226  2869  2870   ar
  1227  3391  3397   ar
  1228  3460  3458   ar
  1229  2198  2199    1
  1230  2198  2200    1
  1231   911   928    1
  1232  1219  1220    1
  1233  1926  1925    1
  1234  1926  1942    1
  1235  1143  1142   ar
  1236  1238  1232   ar
  1237  1238  1237   ar
  1238  1925  1927    1
  1239  2425  2430    1
  1240  2636  2633   ar
  1241   898   893   ar
  1242  3159  3157    1
  1243  3159  3170    1
  1244  3193  3173    2
  1245  3098  3104   ar
  1246  3098  3099   ar
  1247  3142  3143   ar
  1248  2039  2034    1
  1249  2039  2037    1
  1250  3384  3385    1
  1251  3384  3382    1
  1252  3158  3157    1
  1253  2956  2954   ar
  1254  2614  2612   ar
  1255  3489  3483   ar
  1256  1942  1944    1
  1257  2329  2335   ar
  1258  2329  2330   ar
  1259  3088  3089    1
  1260  3088  3086    1
  1261  3420  3418   ar
  1262  2463  2441    2
  1263  2629  2630    1
  1264  2629  2628   ar
  1265   928   950    2
  1266   928   949    1
  1267  2351  2352   ar
  1268  2067  2060   ar
  1269  1834  1817    1
  1270  1834  1856    1
  1271  3395  3401   ar
  1272  3395  3396   ar
  1273  2060  2059    1
  1274    12    14   ar
  1275    12    11   ar
  1276  2892  2893    2
  1277  2660  2661   ar
  1278  2660  2659   ar
  1279  3524  3522    1
  1280  3524  3519    1
  1281  2206  2204   ar
  1282  3462  3463   ar
  1283    14    15   ar
  1284  1245  1244    1
  1285  1245  1250    1
  1286  2355  2354   ar
  1287  1229  1228   ar
  1288   895   894   ar
  1289  2633  2634   ar
  1290  1175  1177    1
  1291  1175  1173    1
  1292  1232  1233   ar
  1293  2875  2874   ar
  1294  1223  1224    1
  1295   764   762    1
  1296   764   765    1
  1297  2034  2033    1
  1298  2204  2205    2
  1299  3717  3716    1
  1300  2025  2024    2
  1301  2962  2961    1
  1302  1201  1218    1
  1303  2325  2335    1
  1304  2325  2320    1
  1305  2074  2073    1
  1306  3104  3103   ar
  1307  2661  2655   ar
  1308  1224  1241    1
  1309  3123  3121   ar
  1310  2577  2578    1
  1311    26    24    1
  1312  2612  2613    2
  1313  3418  3419    2
  1314  1196  1197    1
  1315  2075  2076    1
  1316  2075  2073    1
  1317  2331  2330   ar
  1318  2331  2332    1
  1319  1818  1816    1
  1320  1818  1820    1
  1321  1827  1828    2
  1322  1827  1826   ar
  1323  1177  1178    1
  1324     8    10    1
  1325     8     6    1
  1326  3401  3400   ar
  1327  1242  1244    1
  1328  1242  1243    1
  1329    57    64   ar
  1330    57    58   ar
  1331  3173  3194    1
  1332  3173  3175    1
  1333  1244  1246    1
  1334  2199  2213    1
  1335  2949  2950    1
  1336  2949  2947    1
  1337  3121  3122    1
  1338  2591  2590   ar
  1339  2591  2592    1
  1340  2590  2593   ar
  1341    43    42   ar
  1342  1825  1826   ar
  1343  1825  1831   ar
  1344  1237  1236   ar
  1345   773   772    2
  1346  3522  3520    1
  1347  2200  2201    1
  1348  2023  2024   ar
  1349  2023  2021   ar
  1350    34    40   ar
  1351  3169  3170   ar
  1352  3169  3168   ar
  1353  2232  2213    2
  1354  2438  2437   ar
  1355  2438  2431   ar
  1356  2568  2567    2
  1357  3434  3440   ar
  1358   762   763    1
  1359  2462  2441    1
  1360  3494  3493    1
  1361  2356  2338    2
  1362  3715  3714    1
  1363  1939  1929    1
  1364  1939  1933   ar
  1365   770   771    1
  1366   770   765    1
  1367  2322  2338    1
  1368  2322  2321    1
  1369  3440  3441    2
  1370  1817  1816    1
  1371  2335  2334   ar
  1372  2950  2951   ar
  1373  2090  2109    2
  1374  2090  2076    1
  1375  2090  2108    1
  1376    64    63   ar
  1377  1139  1138    1
  1378  1139  1140   ar
  1379  2426  2427    1
  1380  2426  2428    1
  1381  3170  3164   ar
  1382  1132  1133    1
  1383  1132  1134    1
  1384    70    71    1
  1385    70    72    1
  1386  2377  2376   ar
  1387  1133  1138    1
  1388  2437  2435   ar
  1389  1929  1927    1
  1390  1250  1248    1
  1391  1250  1260    1
  1392  3137  3143   ar
  1393  1220  1218    1
  1394  2330  2333   ar
  1395  2004  2003    2
  1396  2022  2021    2
  1397  2871  2870   ar
  1398  2871  2872    1
  1399    10     5    1
  1400    10    21    1
  1401  2441  2427    1
  1402  2441  2443    1
  1403  1136  1134    1
  1404  1136  1138    1
  1405  1136  1137    1
  1406  2024  2026   ar
  1407  2594  2593   ar
  1408  2338  2357    1
  1409    39    42   ar
  1410    39    40   ar
  1411  2666  2665    1
  1412  3100  3099   ar
  1413  3100  3101    1
  1414  2947  2948    1
  1415  1249  1248    1
  1416  1152  1154    1
  1417  1152  1150    1
  1418  2870  2873   ar
  1419  1228  1234   ar
  1420  2321  2319    1
  1421  1233  1236   ar
  1422  1233  1234   ar
  1423  1134  1135    1
  1424  1154  1155    1
  1425  3484  3483   ar
  1426  3484  3485   ar
  1427  3382  3383    1
  1428  2857  2858    1
  1429  2665  2667    1
  1430  3099  3102   ar
  1431  1934  1933   ar
  1432  1934  1935   ar
  1433  3143  3144    2
  1434   893   894   ar
  1435   772   771   ar
  1436   772   774   ar
  1437  3397  3396   ar
  1438  3397  3398    2
  1439    71    76    1
  1440  1826  1829   ar
  1441    59    58    2
  1442  1178  1195    1
  1443    11    17   ar
  1444  3458  3459    1
  1445  3458  3457   ar
  1446  1142  1140   ar
  1447  2659  2656   ar
  1448  2038  2037    1
  1449  3483  3482   ar
  1450  2073  2071    1
  1451  1197  1195    1
  1452  3396  3399   ar
  1453     7    24    1
  1454     7     6    1
  1455  2628  2634   ar
  1456    45    24    2
  1457   771   778   ar
  1458  1927  1928    1
  1459  2430  2431    1
  1460  2430  2428    1
  1461  3519  3518    1
  1462  2320  2319    1
  1463   763   761    1
  1464  2037  2035    1
  1465  3716  3714    1
  1466  3716  3718    1
  1467  2352  2354   ar
  1468  2352  2353    2
  1469  2954  2955    1
  1470  2954  2953   ar
  1471  2564  2563    1
  1472  2021  2020   ar
  1473  3086  3087    1
  1474  1816  1814    1
  1475  2961  2963    1
  1476  1173  1174    1
  1477  2634  2635    2
  1478  1820  1831    1
  1479  1820  1815    1
  1480  2213  2231    1
  1481  2213  2215    1
  1482    15    21   ar
  1483    15    16   ar
  1484  2059  2057    1
  1485  2059  2054    1
  1486  2228  2227    2
  1487    58    60   ar
  1488  1936  1935    1
  1489    24    46    1
  1490  2578  2576    1
  1491  2874  2873   ar
  1492  1831  1830   ar
  1493  3463  3457   ar
  1494  3463  3464    2
  1495  1218  1239    2
  1496  1218  1240    1
  1497  1243  1241    1
  1498    40    41    2
  1499  2033  2035    1
  1500  2033  2031    1
  1501  2319  2317    1
  1502  1234  1235    2
  1503  1944  1943    1
  1504  2431  2432   ar
  1505   774   775   ar
  1506     6     4    1
  1507  1151  1150    1
  1508  1151  1149    1
  1509  3174  3175    1
  1510  3174  3176    1
  1511  2655  2656   ar
  1512  2655  2654   ar
  1513   779   761    2
  1514  3103  3102   ar
  1515  1800  1799    1
  1516  1261  1241    2
  1517  3168  3165   ar
  1518  1241  1262    1
  1519  3521  3520    1
  1520  3521  3537    1
  1521  2308  2307    2
  1522  1140  1141    2
  1523  1248  1246    1
  1524     5     4    1
  1525  2545  2544    1
  1526  1933  1932   ar
  1527  1260  1259   ar
  1528  1260  1254   ar
  1529  3493  3495    1
  1530  1171  1149    2
  1531  2567  2569   ar
  1532  2567  2566   ar
  1533  3538  3540    1
  1534  3538  3539    1
  1535    21    20   ar
  1536  3400  3399   ar
  1537  3714  3712    1
  1538  2229  2227   ar
  1539  2229  2230   ar
  1540  2057  2058    1
  1541  2057  2055    1
  1542   778   777   ar
  1543  1174  1172    1
  1544  1246  1247    1
  1545     4     2    1
  1546  3520  3518    1
  1547  1935  1930   ar
  1548  3721  3720    2
  1549  2428  2429    1
  1550    63    61   ar
  1551  2569  2570   ar
  1552  3558  3537    2
  1553  2003  1997   ar
  1554  2003  2002   ar
  1555  3077  3076    2
  1556  1981  1980    1
  1557  1259  1258   ar
  1558  2951  2953   ar
  1559  2951  2952    2
  1560  1247  1263    1
  1561  2334  2333   ar
  1562  2858  2856    1
  1563  3373  3372    2
  1564  2563  2565    1
  1565  2563  2561    1
  1566  3164  3165   ar
  1567  3164  3163   ar
  1568  2435  2436    2
  1569  2435  2434   ar
  1570  2227  2226   ar
  1571  2072  2071    1
  1572  2072  2070    1
  1573  2656  2657   ar
  1574  3485  3486    1
  1575  3485  3480   ar
  1576   775   777   ar
  1577   775   776    1
  1578  2036  2035    1
  1579  2036  2050    1
  1580  1155  1172    1
  1581  1195  1217    2
  1582  1195  1216    1
  1583  2026  2027   ar
  1584   761   780    1
  1585   761   747    1
  1586  3383  3381    1
  1587    72    73    1
  1588    72    74    1
  1589  2654  2652   ar
  1590  3482  3481   ar
  1591  1960  1961   ar
  1592  1960  1957   ar
  1593  1997  1998   ar
  1594    73    87    1
  1595  3540  3541    1
  1596  3540  3542    1
  1597  2848  2847    2
  1598  2031  2032    1
  1599  1135  1149    1
  1600  3087  3085    1
  1601  1253  1254   ar
  1602  1253  1252   ar
  1603  2309  2307   ar
  1604  2309  2310   ar
  1605  1254  1255   ar
  1606  1798  1799   ar
  1607  1798  1804   ar
  1608  1829  1830   ar
  1609  2667  2668    1
  1610  2667  2669    1
  1611  2443  2442    1
  1612  3518  3516    1
  1613  2054  2053    1
  1614    17    16   ar
  1615    17    18    2
  1616  1149  1170    1
  1617  2032  2030    1
  1618  3535  3515    2
  1619  1814  1815    1
  1620  1814  1812    1
  1621  2020  2027   ar
  1622  2020  2019    1
  1623  2290  2289    2
  1624  2543  2544   ar
  1625  2543  2549   ar
  1626    76    74    1
  1627    76    77    1
  1628    16    19   ar
  1629  2978  2977   ar
  1630  2978  2979   ar
  1631  3718  3713    1
  1632  3718  3719    1
  1633  2285  2284    1
  1634  1986  1965    2
  1635  1943  1945    1
  1636  2307  2306   ar
  1637    60    61   ar
  1638  3165  3166   ar
  1639  2283  2289   ar
  1640  2283  2284   ar
  1641  1799  1801   ar
  1642  2964  2963    1
  1643  2964  2969    1
  1644  2977  2974   ar
  1645  2963  2965    1
  1646  1959  1958    2
  1647  2089  2070    2
  1648  2844  2843    1
  1649  2668  2673    1
  1650  2215  2214    1
  1651  3369  3368    1
  1652  1961  1962   ar
  1653  3712  3713    1
  1654  3712  3710    1
  1655  3537  3539    1
  1656  3537  3559    1
  1657  2230  2223   ar
  1658  3578  3560    2
  1659  3163  3161   ar
  1660  2565  2566    1
  1661  2565  2560    1
  1662  2055  2053    1
  1663  2055  2056    1
  1664  2544  2546   ar
  1665  2432  2434   ar
  1666  2432  2433    2
  1667  3543  3542    1
  1668  3543  3560    1
  1669  1258  1255   ar
  1670    84    77   ar
  1671    84    83   ar
  1672  3073  3072    1
  1673    75    74    1
  1674  2017  2018    1
  1675  2017  2019    1
  1676  2017  2015    1
  1677  3176  3177    1
  1678  3176  3178    1
  1679  3517  3516    1
  1680  3517  3515    1
  1681  2566  2573   ar
  1682    61    62    1
  1683  2596  2576    2
  1684  2442  2444    1
  1685   108    87    2
  1686  3541  3546    1
  1687  3720  3719   ar
  1688  3720  3722   ar
  1689  2576  2562    1
  1690  2576  2597    1
  1691  1172  1194    2
  1692  1172  1193    1
  1693  2317  2318    1
  1694  2311  2310    1
  1695  1805  1804    2
  1696  1255  1256   ar
  1697  3076  3078   ar
  1698  3076  3075   ar
  1699  1252  1251   ar
  1700  3078  3079   ar
  1701  1932  1931   ar
  1702  3495  3497    1
  1703  3495  3496    1
  1704  3177  3182    1
  1705  2052  2050    1
  1706  2052  2051    1
  1707  2562  2561    1
  1708    20    19   ar
  1709  3372  3374   ar
  1710  3372  3371   ar
  1711  2550  2549    2
  1712   109    87    1
  1713  3698  3697    1
  1714  2248  2247    1
  1715  2002  2005   ar
  1716  2002  2001   ar
  1717  2570  2571    2
  1718  2570  2572   ar
  1719  2289  2288   ar
  1720  3481  3480   ar
  1721    87    89    1
  1722  3374  3375   ar
  1723     2     3    1
  1724  2709  2687    2
  1725  1930  1931   ar
  1726  2070  2056    1
  1727  2070  2088    1
  1728  3368  3370    1
  1729  3368  3366    1
  1730    77    78   ar
  1731  2284  2286   ar
  1732  1804  1803   ar
  1733  2019  2014    1
  1734  3545  3544    1
  1735  2310  2312   ar
  1736  1980  1979   ar
  1737  1980  1975   ar
  1738  3719  3726   ar
  1739  2561  2559    1
  1740  3542  3544    1
  1741  2068  2050    2
  1742  2005  2006   ar
  1743  1281  1263    2
  1744  2843  2845    1
  1745  2843  2841    1
  1746  1982  1979   ar
  1747  1982  1983   ar
  1748  1957  1958   ar
  1749  1957  1956   ar
  1750  2847  2849   ar
  1751  2847  2846   ar
  1752  2226  2224   ar
  1753  2050  2069    1
  1754  1998  1999    1
  1755  1998  2000   ar
  1756  3072  3074    1
  1757  3072  3070    1
  1758  2549  2548   ar
  1759  3402  3381    2
  1760  2053  2051    1
  1761  3497  3498    1
  1762  3497  3499    1
  1763  2683  2682   ar
  1764  2683  2684   ar
  1765  2657  2651   ar
  1766  2657  2658    2
  1767    83    81   ar
  1768  2652  2651   ar
  1769  2652  2653    1
  1770  1263  1282    1
  1771  1263  1265    1
  1772  2304  2303    1
  1773  1958  1952   ar
  1774  3515  3498    1
  1775  3515  3536    1
  1776  2849  2850   ar
  1777   747   746    1
  1778  2856  2876    2
  1779  2856  2842    1
  1780  2856  2877    1
  1781  3560  3579    1
  1782  3560  3562    1
  1783  2268  2267    2
  1784  2669  2670    1
  1785  2669  2671    1
  1786  3381  3367    1
  1787  3381  3403    1
  1788  2214  2216    1
  1789  1738  1737    2
  1790  2979  2969    1
  1791  2979  2973   ar
  1792  1801  1802   ar
  1793  3722  3723   ar
  1794  3710  3711    1
  1795  1251  1256   ar
  1796  1256  1257    1
  1797  1812  1813    1
  1798  2049  2030    2
  1799  2670  2687    1
  1800  2318  2316    1
  1801  2015  2016    1
  1802  2015  2013    1
  1803  3085  3105    2
  1804  3085  3071    1
  1805  3085  3106    1
  1806  2969  2967    1
  1807  2030  2016    1
  1808  2030  2048    1
  1809  2965  2966    1
  1810  2965  2967    1
  1811  1965  1985    1
  1812  1965  1948    1
  1813  1965  1967    1
  1814  1979  1978   ar
  1815  3166  3167    2
  1816  3166  3160   ar
  1817  1945  1947    1
  1818  1945  1946    1
  1819  2306  2305    1
  1820  2306  2313   ar
  1821  2223  2224   ar
  1822  2223  2222    1
  1823  3161  3160   ar
  1824  3161  3162    1
  1825  2974  2973   ar
  1826  2974  2975   ar
  1827  2842  2841    1
  1828  2546  2547   ar
  1829  2459  2460   ar
  1830  2459  2456   ar
  1831  2560  2559    1
  1832  2303  2305    1
  1833  2303  2301    1
  1834  3367  3366    1
  1835  3191  3190   ar
  1836  3191  3192   ar
  1837  3001  2982    2
  1838  3546  3544    1
  1839  3546  3557    1
  1840  2460  2461   ar
  1841  1264  1265    1
  1842  1264  1266    1
  1843  1962  1956   ar
  1844  1962  1951    1
  1845  2673  2684    1
  1846  2673  2671    1
  1847  2682  2679   ar
  1848  1267  1266    1
  1849  1267  1272    1
  1850  1947  1948    1
  1851  1947  1949    1
  1852  2573  2572   ar
  1853  2527  2526    2
  1854  3080  3079    1
  1855  3370  3371    1
  1856  3370  3365    1
  1857  1946  1951    1
  1858  3496  3501    1
  1859  3079  3081   ar
  1860  3074  3075    1
  1861  3074  3069    1
  1862  1975  1976   ar
  1863   749   748    1
  1864  3178  3179    1
  1865  3178  3180    1
  1866  3075  3082   ar
  1867  3371  3378   ar
  1868  2687  2708    1
  1869  2687  2689    1
  1870  2559  2557    1
  1871  2976  2975    1
  1872  2305  2300    1
  1873  2217  2216    1
  1874  2217  2222    1
  1875  3697  3696   ar
  1876  3697  3699   ar
  1877     3     1    1
  1878  2845  2846    1
  1879  2845  2840    1
  1880   748   746    1
  1881   748   750    1
  1882  1813  1811    1
  1883  2001  2000   ar
  1884  2001  2007   ar
  1885  3375  3376    1
  1886  3375  3377   ar
  1887  2224  2225    2
  1888  3179  3195    1
  1889  2684  2678   ar
  1890  3071  3070    1
  1891  3499  3501    1
  1892  3499  3500    1
  1893  2997  2996    1
  1894  3366  3364    1
  1895  2966  2982    1
  1896  2444  2445    1
  1897  2444  2446    1
  1898  2247  2249   ar
  1899  2247  2246   ar
  1900  1739  1736   ar
  1901  1739  1740   ar
  1902  1983  1984   ar
  1903  2841  2839    1
  1904   746   744    1
  1905  2704  2703    2
  1906  3696  3702   ar
  1907  2846  2853   ar
  1908  3182  3192    1
  1909  3182  3180    1
  1910  1803  1802   ar
  1911  1803  1806   ar
  1912  3726  3725   ar
  1913  1956  1955   ar
  1914    78    79    2
  1915    78    80   ar
  1916  3190  3187   ar
  1917  1266  1268    1
  1918  1802  1808   ar
  1919  2973  2972   ar
  1920  2006  2007   ar
  1921  2288  2287   ar
  1922  2288  2291   ar
  1923  2445  2450    1
  1924  3070  3068    1
  1925  2486  2464    2
  1926  2286  2287   ar
  1927  3039  3038    2
  1928    89    88    1
  1929  2014  2013    1
  1930  3217  3195    2
  1931  2850  2851    1
  1932  2850  2852   ar
  1933  2312  2313   ar
  1934  2975  2970   ar
  1935  3057  3056    2
  1936  1737  1736   ar
  1937  1737  1731   ar
  1938  3711  3709    1
  1939  2249  2250   ar
  1940    81    80   ar
  1941    81    82    1
  1942  2671  2672    1
  1943  2548  2547   ar
  1944  2548  2551   ar
  1945  3017  3016    2
  1946  2216  2218    1
  1947  2267  2266   ar
  1948  2267  2269   ar
  1949   753   752    2
  1950  3192  3186   ar
  1951  3561  3562    1
  1952  3561  3563    1
  1953  2967  2968    1
  1954  1951  1949    1
  1955  1952  1953   ar
  1956  3723  3725   ar
  1957  3723  3724    2
  1958  2547  2553   ar
  1959  2520  2526   ar
  1960  2520  2521   ar
  1961  2222  2220    1
  1962  2705  2706   ar
  1963  2705  2702   ar
  1964  1967  1966    1
  1965  3058  3056   ar
  1966  3058  3059   ar
  1967  2998  2996   ar
  1968  2998  2999   ar
  1969  2009  1987    2
  1970  2982  3000    1
  1971  2982  2984    1
  1972  3216  3195    1
  1973  3060  3059    2
  1974  1272  1273    1
  1975  1272  1270    1
  1976  3511  3512   ar
  1977  3511  3510   ar
  1978  2526  2525   ar
  1979    88    90    1
  1980  3501  3512    1
  1981  3699  3700   ar
  1982   754   752   ar
  1983   754   755   ar
  1984  2481  2480    2
  1985  1736  1735   ar
  1986  2013  2011    1
  1987   752   751   ar
  1988  3195  3197    1
  1989  3180  3181    1
  1990  2266  2264   ar
  1991  1782  1781    1
  1992  2446  2447    1
  1993  2446  2448    1
  1994  2287  2293   ar
  1995  1740  1741   ar
  1996  2252  2233    2
  1997  2007  1996    1
  1998  2752  2732    2
  1999  3082  3081   ar
  2000  1978  1984   ar
  2001  1978  1977   ar
  2002  1949  1950    1
  2003  3557  3556   ar
  2004  3557  3551   ar
  2005  2996  2995   ar
  2006  2246  2244   ar
  2007  2456  2457   ar
  2008  2456  2455   ar
  2009  2458  2457    2
  2010  2461  2450    1
  2011  2461  2455   ar
  2012  1280  1273   ar
  2013  1280  1279   ar
  2014  3378  3377   ar
  2015   756   755    2
  2016  2301  2302    1
  2017  2301  2299    1
  2018  2679  2678   ar
  2019  2679  2680   ar
  2020  2316  2302    1
  2021  2316  2337    2
  2022  2316  2336    1
  2023  3365  3364    1
  2024  2218  2220    1
  2025  2218  2219    1
  2026  1776  1781   ar
  2027  1776  1777   ar
  2028  3056  3055   ar
  2029  3556  3555   ar
  2030   755   757   ar
  2031  1976  1977   ar
  2032  3069  3068    1
  2033  2839  2840    1
  2034  2839  2837    1
  2035  3364  3362    1
  2036  1273  1274   ar
  2037  2703  2702   ar
  2038  2703  2697   ar
  2039  2447  2464    1
  2040  3702  3703    2
  2041  3702  3701   ar
  2042  2678  2677   ar
  2043  2291  2292   ar
  2044   751   750    1
  2045   751   758   ar
  2046  2689  2688    1
  2047  1984  1974    1
  2048  3032  3038   ar
  2049  3032  3033   ar
  2050  2300  2299    1
  2051  2522  2521    1
  2052  1806  1807   ar
  2053  2012  2011    1
  2054  2012  2010    1
  2055   750   745    1
  2056  2853  2852   ar
  2057  3059  3061   ar
  2058  1796  1795    1
  2059  1279  1277   ar
  2060  3038  3037   ar
  2061  2557  2558    1
  2062  3068  3066    1
  2063  2706  2707   ar
  2064  3512  3506   ar
  2065  2029  2010    2
  2066  1795  1797    1
  2067  1795  1793    1
  2068  2450  2448    1
  2069  1731  1732   ar
  2070  2464  2485    1
  2071  2464  2466    1
  2072  2702  2701   ar
  2073  1955  1953   ar
  2074     1    22    1
  2075     1    23    1
  2076  1808  1797    1
  2077  1808  1807   ar
  2078  3187  3186   ar
  2079  3187  3188   ar
  2080  2269  2270   ar
  2081  1811  1833    2
  2082  1811  1832    1
  2083  1811  1794    1
  2084  3727  3709    2
  2085  2457  2451   ar
  2086  2504  2503    2
  2087  3510  3507   ar
  2088  2972  2971   ar
  2089   757   758   ar
  2090   744   742    1
  2091   744   745    1
  2092  1953  1954    1
  2093  2521  2523   ar
  2094  1781  1780   ar
  2095  2551  2552   ar
  2096  3016  3015   ar
  2097  3016  3018   ar
  2098  2999  2992   ar
  2099  2482  2479   ar
  2100  2482  2483   ar
  2101  3186  3185   ar
  2102  2250  2243   ar
  2103  2970  2971   ar
  2104  2220  2221    1
  2105  3694  3693    1
  2106  1274  1275    2
  2107  1274  1276   ar
  2108  1271  1270    1
  2109  1268  1270    1
  2110  1268  1269    1
  2111  3709  3728    1
  2112  3709  3692    1
  2113  2455  2454   ar
  2114  3563  3564    1
  2115  3563  3565    1
  2116  3700  3701   ar
  2117  3700  3706   ar
  2118  1777  1778   ar
  2119    91    90    1
  2120    91    96    1
  2121  2299  2297    1
  2122  1277  1276   ar
  2123  1277  1278    1
  2124  2984  2983    1
  2125  2553  2552   ar
  2126  2553  2542    1
  2127  2558  2556    1
  2128  2480  2479   ar
  2129  2480  2474   ar
  2130  1966  1968    1
  2131    90    92    1
  2132  2219  2233    1
  2133  1797  1792    1
  2134  1735  1741   ar
  2135  1735  1734   ar
  2136  3034  3033    1
  2137  2448  2449    1
  2138  2525  2528   ar
  2139  2525  2524   ar
  2140  1987  1989    1
  2141  1987  2008    1
  2142  1987  1971    1
  2143  1741  1730    1
  2144  3693  3691    1
  2145  3693  3695    1
  2146  2264  2265    2
  2147  2264  2263   ar
  2148  2772  2754    2
  2149  3701  3704   ar
  2150  2680  2681    2
  2151  2680  2674   ar
  2152  2995  2993   ar
  2153  3551  3550   ar
  2154  3551  3552   ar
  2155   106   105   ar
  2156   106   107   ar
  2157   742   743    1
  2158  2233  2251    1
  2159  2233  2235    1
  2160  1729  1728    1
  2161  2293  2292   ar
  2162  2293  2282    1
  2163  2010  2028    1
  2164  2010  1993    1
  2165  2244  2243   ar
  2166  2244  2245    2
  2167  2732  2753    1
  2168  2732  2716    1
  2169  2732  2734    1
  2170  1794  1793    1
  2171  1996  1994    1
  2172  1996  1991    1
  2173  1989  1988    1
  2174  2697  2698   ar
  2175  3197  3196    1
  2176  3033  3035   ar
  2177  3015  3013   ar
  2178  3555  3552   ar
  2179  1970  1968    1
  2180  1970  1971    1
  2181  1970  1972    1
  2182  3564  3569    1
  2183  2677  2675   ar
  2184  1793  1791    1
  2185  2479  2478   ar
  2186  1994  1992    1
  2187  1994  1995    1
  2188  1269  1283    1
  2189   743   741    1
  2190  3018  3019   ar
  2191  2540  2541    1
  2192  2540  2542    1
  2193  2540  2538    1
  2194  2731  2710    2
  2195   105   102   ar
  2196  3055  3054    1
  2197  3055  3062   ar
  2198  2688  2690    1
  2199  3550  3548   ar
  2200  2837  2838    1
  2201  3362  3363    1
  2202  2483  2484   ar
  2203  3692  3691    1
  2204  3189  3188    1
  2205  1974  1969    1
  2206  1974  1972    1
  2207  1969  1968    1
  2208  2831  2830    1
  2209  1992  1993    1
  2210  1992  1990    1
  2211  3188  3183   ar
  2212  2829  2827   ar
  2213  2829  2830   ar
  2214  2243  2242    1
  2215  2542  2537    1
  2216  2828  2827    2
  2217  1732  1734   ar
  2218  1732  1733    1
  2219  2528  2529   ar
  2220  2707  2701   ar
  2221  2707  2696    1
  2222  3037  3040   ar
  2223  3037  3036   ar
  2224  2466  2465    1
  2225  3506  3507   ar
  2226  3506  3505   ar
  2227  2773  2754    1
  2228  3061  3062   ar
  2229  2701  2700   ar
  2230  3185  3184   ar
  2231  2503  2497   ar
  2232  2503  2502   ar
  2233  3066  3067    1
  2234  2270  2263   ar
  2235  3566  3565    1
  2236  3566  3580    1
  2237  3507  3508   ar
  2238  3053  3052    1
  2239  3363  3361    1
  2240  2992  2993   ar
  2241  2992  2991    1
  2242  2523  2524   ar
  2243  3598  3580    2
  2244  3706  3695    1
  2245  3706  3705   ar
  2246  3353  3352    2
  2247  2716  2715    1
  2248  3354  3352   ar
  2249  3354  3355   ar
  2250  3565  3567    1
  2251  1780  1779   ar
  2252  1780  1783   ar
  2253  3052  3054    1
  2254  3052  3050    1
  2255  1728  1730    1
  2256  1728  1726    1
  2257  3599  3580    1
  2258  2451  2452   ar
  2259  3356  3355    1
  2260  1972  1973    1
  2261  2838  2836    1
  2262  2474  2475   ar
  2263  3691  3689    1
  2264  1991  1990    1
  2265  3552  3553   ar
  2266  2983  2985    1
  2267  3695  3690    1
  2268  2524  2530   ar
  2269  3196  3198    1
  2270  2754  2738    1
  2271  2754  2756    1
  2272  2235  2234    1
  2273  2263  2262    1
  2274  3054  3049    1
  2275  3067  3065    1
  2276  1778  1779   ar
  2277  2993  2994    2
  2278   107    96    1
  2279   107   101   ar
  2280   760   741    2
  2281  3675  3674    1
  2282    96    94    1
  2283  2454  2452   ar
  2284  2827  2826   ar
  2285  2830  2832   ar
  2286  2734  2733    1
  2287  3040  3041   ar
  2288  1730  1725    1
  2289    92    93    1
  2290    92    94    1
  2291   735   734    2
  2292  2674  2675   ar
  2293  3580  3582    1
  2294  3577  3576   ar
  2295  3577  3570   ar
  2296  2733  2735    1
  2297  3704  3705   ar
  2298  2282  2280    1
  2299  2282  2277    1
  2300  3673  3674   ar
  2301  3673  3679   ar
  2302  2297  2298    1
  2303  2691  2690    1
  2304  2691  2696    1
  2305  3213  3214   ar
  2306  3213  3210   ar
  2307  3680  3679    2
  2308  2675  2676    1
  2309  2497  2498   ar
  2310  2986  2991    1
  2311  2986  2985    1
  2312   728   734   ar
  2313   728   729   ar
  2314   741   759    1
  2315   741   724    1
  2316  1792  1791    1
  2317  3352  3351   ar
  2318  2505  2502   ar
  2319  2505  2506   ar
  2320  2298  2296    1
  2321   730   729    1
  2322  2556  2575    2
  2323  2556  2539    1
  2324  2556  2574    1
  2325  3214  3215   ar
  2326  1990  1988    1
  2327  3355  3357   ar
  2328  2280  2281    1
  2329  2280  2278    1
  2330  2698  2700   ar
  2331  2698  2699    1
  2332  2538  2539    1
  2333  2538  2536    1
  2334  3035  3036   ar
  2335  2738  2737    1
  2336  2690  2692    1
  2337  1779  1785   ar
  2338  3235  3234    2
  2339  2711  2712    1
  2340  2711  2713    1
  2341  1305  1283    2
  2342   102   101   ar
  2343   102   103   ar
  2344  3576  3574   ar
  2345   734   733   ar
  2346  2502  2501   ar
  2347  3013  3014    2
  2348  3013  3012   ar
  2349  3183  3184   ar
  2350  2452  2453    1
  2351  1791  1789    1
  2352  3036  3042   ar
  2353  2692  2694    1
  2354  2692  2693    1
  2355  3505  3503   ar
  2356   653   632    2
  2357  3019  3012   ar
  2358  2478  2484   ar
  2359  2478  2477   ar
  2360  1783  1784   ar
  2361  3569  3567    1
  2362  3569  3570    1
  2363  3548  3549    1
  2364  3548  3547   ar
  2365  2696  2694    1
  2366   729   731   ar
  2367  1283  1304    1
  2368  1283  1285    1
  2369    93   110    1
  2370  2484  2473    1
  2371  3674  3676   ar
  2372  2710  2712    1
  2373  2710  2693    1
  2374  2710  2730    1
  2375  2509  2487    2
  2376  2529  2530   ar
  2377  3679  3678   ar
  2378  2991  2989    1
  2379  2465  2467    1
  2380  2537  2536    1
  2381  2985  2987    1
  2382  3021  3002    2
  2383  2242  2237    1
  2384  2242  2240    1
  2385  3508  3509    2
  2386  3508  3502   ar
  2387   101   100   ar
  2388   131   110    2
  2389  2237  2236    1
  2390  3199  3198    1
  2391  3199  3204    1
  2392    94    95    1
  2393  3380  3361    2
  2394  2715  2713    1
  2395  2715  2717    1
  2396  3567  3568    1
  2397  2713  2714    1
  2398  3050  3051    1
  2399  3050  3048    1
  2400  3570  3571   ar
  2401   104   103    2
  2402  3361  3379    1
  2403  3361  3347    1
  2404  2530  2519    1
  2405  1725  1724    1
  2406  3256  3255    2
  2407  3689  3690    1
  2408  3689  3687    1
  2409  2475  2477   ar
  2410  2475  2476    1
  2411  1726  1727    1
  2412  1726  1724    1
  2413  2272  2253    2
  2414  2737  2735    1
  2415  2737  2739    1
  2416  3198  3200    1
  2417  3012  3011    1
  2418  2694  2695    1
  2419   733   732   ar
  2420   733   736   ar
  2421  3212  3211    2
  2422  2811  2810    1
  2423  3553  3547   ar
  2424  3553  3554    2
  2425  2826  2833   ar
  2426  2826  2825    1
  2427  2234  2236    1
  2428  2756  2755    1
  2429  2755  2757    1
  2430  2824  2823    1
  2431  2832  2833   ar
  2432  2987  2989    1
  2433  2987  2988    1
  2434   103    97   ar
  2435  2823  2825    1
  2436  2823  2821    1
  2437  2735  2736    1
  2438  2836  2855    2
  2439  2836  2854    1
  2440  2836  2822    1
  2441   731   732   ar
  2442  3051  3065    1
  2443  3041  3042   ar
  2444  3049  3048    1
  2445  2277  2276    1
  2446  3065  3084    2
  2447  3065  3083    1
  2448  3349  3348    1
  2449  2262  2260    1
  2450  2262  2257    1
  2451  1790  1789    1
  2452  1790  1788    1
  2453  1285  1284    1
  2454  2278  2279    1
  2455  2278  2276    1
  2456  3210  3211   ar
  2457  3210  3209   ar
  2458  3348  3350    1
  2459  3348  3346    1
  2460  3336  3335    2
  2461  2506  2507   ar
  2462   110   130    1
  2463   110   112    1
  2464  3351  3350    1
  2465  3351  3358   ar
  2466  2536  2534    1
  2467  2315  2296    2
  2468  3215  3204    1
  2469  3215  3209   ar
  2470  2468  2467    1
  2471  2468  2473    1
  2472   732   738   ar
  2473  2498  2499    1
  2474  2498  2500   ar
  2475  3357  3358   ar
  2476   630   610    2
  2477  3234  3228   ar
  2478  3234  3233   ar
  2479   736   737   ar
  2480   724   723    1
  2481  1785  1784   ar
  2482  1785  1775    1
  2483  2238  2236    1
  2484  2238  2240    1
  2485  2238  2239    1
  2486  3042  3031    1
  2487  3582  3581    1
  2488  2296  2279    1
  2489  2296  2314    1
  2490  1727  1744    1
  2491  3503  3502   ar
  2492  3503  3504    1
  2493  2718  2717    1
  2494   725   726    1
  2495   725   723    1
  2496   725   727    1
  2497   632   616    1
  2498   632   654    1
  2499   632   634    1
  2500  2240  2241    1
  2501  2989  2990    1
  2502  2501  2500   ar
  2503  2501  2507   ar
  2504  3211  3205   ar
  2505  3574  3575    1
  2506  3574  3573   ar
  2507  1810  1788    2
  2508  3676  3677   ar
  2509  2467  2469    1
  2510  2473  2471    1
  2511  2825  2820    1
  2512  2469  2471    1
  2513  2469  2470    1
  2514  1302  1301   ar
  2515  1302  1303   ar
  2516  2295  2273    2
  2517  2795  2774    2
  2518  1724  1722    1
  2519  2260  2258    1
  2520  2260  2261    1
  2521   616   615    1
  2522  1301  1298   ar
  2523  3678  3677   ar
  2524  3678  3681   ar
  2525  3236  3233   ar
  2526  3236  3237   ar
  2527  1287  1292    1
  2528  1287  1286    1
  2529  3240  3218    2
  2530   723   721    1
  2531  3048  3046    1
  2532  3204  3202    1
  2533   100    98   ar
  2534  3350  3345    1
  2535  3316  3315    1
  2536  2717  2719    1
  2537  3255  3254   ar
  2538  3255  3257   ar
  2539  3254  3252   ar
  2540  3347  3346    1
  2541  2535  2534    1
  2542  2535  2533    1
  2543  2822  2821    1
  2544  2257  2256    1
  2545  3200  3201    1
  2546  3200  3202    1
  2547  2487  2470    1
  2548  2487  2508    1
  2549  2487  2489    1
  2550  2555  2533    2
  2551  2821  2819    1
  2552  3002  2988    1
  2553  3002  3004    1
  2554  3002  3020    1
  2555   738   737   ar
  2556   738   727    1
  2557  3209  3208   ar
  2558  3346  3344    1
  2559  2532  2510    2
  2560  2794  2774    1
  2561  2276  2274    1
  2562  2810  2809   ar
  2563  2810  2812   ar
  2564   611   613    1
  2565   611   612    1
  2566  3228  3229   ar
  2567   713   712    2
  2568  2255  2253    1
  2569  2255  2254    1
  2570  2275  2273    1
  2571  2275  2274    1
  2572  3571  3573   ar
  2573  3571  3572    2
  2574  3233  3232   ar
  2575  3687  3688    1
  2576  2519  2517    1
  2577  2519  2514    1
  2578  2809  2807   ar
  2579  3581  3583    1
  2580  3658  3657    1
  2581  1722  1723    1
  2582  2714  2719    1
  2583    97    98   ar
  2584  3688  3686    1
  2585  3677  3683   ar
  2586  1743  1721    2
  2587  2507  2496    1
  2588  2253  2239    1
  2589  2253  2271    1
  2590  3335  3334   ar
  2591  3335  3337   ar
  2592  1788  1809    1
  2593  1788  1772    1
  2594  1303  1292    1
  2595  1303  1297   ar
  2596  2258  2256    1
  2597  2258  2259    1
  2598  2517  2515    1
  2599  2517  2518    1
  2600  2736  2741    1
  2601  2471  2472    1
  2602  1773  1775    1
  2603  1773  1771    1
  2604  1773  1774    1
  2605  1292  1290    1
  2606  1298  1299   ar
  2607  1298  1297   ar
  2608  3334  3332   ar
  2609  2739  2740    1
  2610  2739  2741    1
  2611  2757  2759    1
  2612  2757  2758    1
  2613  3011  3006    1
  2614  3011  3009    1
  2615  1300  1299    2
  2616  3004  3003    1
  2617  2774  2760    1
  2618  2774  2776    1
  2619  1775  1770    1
  2620   740   718    2
  2621  1284  1286    1
  2622    98    99    1
  2623   727   722    1
  2624   613   615    1
  2625   613   614    1
  2626  1760  1759    1
  2627  2489  2488    1
  2628  3681  3682   ar
  2629   112   111    1
  2630  3201  3218    1
  2631  1299  1293   ar
  2632  1297  1296   ar
  2633  1761  1762   ar
  2634  1761  1758   ar
  2635  2273  2259    1
  2636  2273  2294    1
  2637  2750  2749   ar
  2638  2750  2751   ar
  2639   610   612    1
  2640   610   596    1
  2641   610   631    1
  2642  3031  3029    1
  2643  3031  3026    1
  2644  1286  1288    1
  2645   634   633    1
  2646  2760  2759    1
  2647  1765  1744    2
  2648  3047  3046    1
  2649  3047  3045    1
  2650  3202  3203    1
  2651   633   635    1
  2652  1744  1764    1
  2653  1744  1746    1
  2654  2533  2516    1
  2655  2533  2554    1
  2656  2515  2516    1
  2657  2515  2513    1
  2658  3237  3238   ar
  2659  3596  3597   ar
  2660  3596  3594   ar
  2661  3253  3252    2
  2662  2719  2729    1
  2663  3205  3206   ar
  2664   615   617    1
  2665  3044  3022    2
  2666   712   711   ar
  2667   712   714   ar
  2668  3006  3005    1
  2669  2256  2254    1
  2670   677   655    2
  2671   676   655    1
  2672  1771  1772    1
  2673  1771  1769    1
  2674   127   128   ar
  2675   127   124   ar
  2676  3622  3600    2
  2677  3252  3251   ar
  2678  3218  3239    1
  2679  3218  3220    1
  2680  2820  2819    1
  2681  1723  1721    1
  2682   720   718    1
  2683   720   719    1
  2684   596   595    1
  2685  3029  3027    1
  2686  3029  3030    1
  2687  2512  2510    1
  2688  2512  2511    1
  2689  2514  2513    1
  2690  2741  2751    1
  2691  3315  3317   ar
  2692  3315  3314   ar
  2693  2812  2813   ar
  2694   618   617    1
  2695  3257  3258   ar
  2696  2759  2761    1
  2697  3345  3344    1
  2698  2758  2763    1
  2699  2807  2808    2
  2700  2807  2806   ar
  2701  3009  3007    1
  2702  3009  3010    1
  2703  3597  3590   ar
  2704   128   129   ar
  2705  3208  3206   ar
  2706   721   722    1
  2707   721   719    1
  2708  1721  1742    1
  2709  1721  1707    1
  2710  2819  2817    1
  2711  1762  1763   ar
  2712  3708  3686    2
  2713  2510  2531    1
  2714  2510  2493    1
  2715  1296  1294   ar
  2716  1293  1294   ar
  2717   711   709   ar
  2718  3657  3656   ar
  2719  3657  3659   ar
  2720  2749  2746   ar
  2721  3337  3338   ar
  2722  3064  3045    2
  2723  3344  3342    1
  2724  3229  3230    1
  2725  3229  3231   ar
  2726  3683  3682   ar
  2727  3683  3672    1
  2728  2790  2789    1
  2729   714   715   ar
  2730  3232  3238   ar
  2731  3232  3231   ar
  2732   111   113    1
  2733  3332  3333    2
  2734  3332  3331   ar
  2735   718   739    1
  2736   718   704    1
  2737  3007  3005    1
  2738  3007  3008    1
  2739  2751  2745   ar
  2740   126   125    1
  2741  3296  3295    2
  2742  3686  3707    1
  2743  3686  3669    1
  2744  3595  3594    1
  2745  1759  1758   ar
  2746  1759  1754   ar
  2747  1758  1757   ar
  2748   655   638    1
  2749   655   657    1
  2750  3583  3584    1
  2751  3583  3585    1
  2752  2496  2491    1
  2753  2496  2494    1
  2754  1294  1295    1
  2755  3317  3318   ar
  2756  3206  3207    1
  2757   598   597    1
  2758  1770  1769    1
  2759  2492  2494    1
  2760  2492  2493    1
  2761  2492  2490    1
  2762  3656  3654   ar
  2763  3026  3025    1
  2764  3027  3028    1
  2765  3027  3025    1
  2766  3003  3005    1
  2767  1290  1291    1
  2768  1290  1288    1
  2769  3670  3671    1
  2770  3670  3672    1
  2771  3670  3668    1
  2772  2513  2511    1
  2773  2791  2792   ar
  2774  2791  2788   ar
  2775  1470  1469    1
  2776   617   619    1
  2777  3314  3312   ar
  2778   614   619    1
  2779  3594  3593   ar
  2780  3584  3589    1
  2781  3297  3295   ar
  2782  3297  3298   ar
  2783  3238  3227    1
  2784  2776  2775    1
  2785  3276  3275    1
  2786  2729  2728   ar
  2787  2729  2723   ar
  2788  1746  1745    1
  2789  2491  2490    1
  2790   208   209   ar
  2791   208   213   ar
  2792  3045  3028    1
  2793  3045  3063    1
  2794  3024  3022    1
  2795  3024  3023    1
  2796  2818  2817    1
  2797  2818  2816    1
  2798  2494  2495    1
  2799  2488  2490    1
  2800  3295  3294   ar
  2801  3220  3219    1
  2802   124   125   ar
  2803   124   123   ar
  2804   638   637    1
  2805  3638  3637    2
  2806  1288  1289    1
  2807   114   113    1
  2808   114   119    1
  2809  2728  2727   ar
  2810   566   545    2
  2811  1745  1747    1
  2812  3289  3288    1
  2813  3251  3258   ar
  2814  3251  3250    1
  2815  1769  1767    1
  2816   635   637    1
  2817   635   636    1
  2818  3022  3008    1
  2819  3022  3043    1
  2820  3659  3660   ar
  2821  3617  3616    2
  2822  2813  2806   ar
  2823  3585  3586    1
  2824  3585  3587    1
  2825   238   239   ar
  2826   238   235   ar
  2827   709   710    2
  2828   709   708   ar
  2829  2835  2816    2
  2830  3672  3667    1
  2831   715   708   ar
  2832  2806  2805    1
  2833  3600  3586    1
  2834  3600  3621    1
  2835  3600  3602    1
  2836   125   120   ar
  2837   209   210   ar
  2838   239   240   ar
  2839   697   678    2
  2840  3343  3342    1
  2841  3343  3341    1
  2842   595   593    1
  2843   595   597    1
  2844  3338  3331   ar
  2845   129   123   ar
  2846   129   119    1
  2847  3668  3669    1
  2848  3668  3666    1
  2849  1763  1757   ar
  2850  1763  1753    1
  2851  3298  3291   ar
  2852  3618  3619   ar
  2853  3618  3615   ar
  2854  2792  2793   ar
  2855   147   146    1
  2856  3331  3330    1
  2857  3590  3589    1
  2858  3590  3591   ar
  2859  2789  2788   ar
  2860  2789  2784   ar
  2861  2763  2761    1
  2862  2763  2764    1
  2863  1754  1755   ar
  2864  2746  2745   ar
  2865  2746  2747   ar
  2866  1707  1706    1
  2867   717   698    2
  2868  3320  3301    2
  2869   113   115    1
  2870   637   639    1
  2871  3025  3023    1
  2872  2761  2762    1
  2873   593   591    1
  2874   593   594    1
  2875   214   213    1
  2876  1748  1747    1
  2877  1748  1753    1
  2878   619   629    1
  2879  1757  1756   ar
  2880  2788  2787   ar
  2881  2745  2744   ar
  2882   708   707    1
  2883   597   599    1
  2884  1466  1465    1
  2885  3294  3292   ar
  2886   350   329    2
  2887  3274  3275   ar
  2888  3274  3272   ar
  2889   192   191    2
  2890  3275  3277   ar
  2891  2766  2765    2
  2892  1767  1768    1
  2893   704   703    1
  2894  2815  2796    2
  2895  3318  3311   ar
  2896  3654  3655    2
  2897  3654  3653   ar
  2898  2723  2722   ar
  2899  2723  2724   ar
  2900   123   122   ar
  2901  3589  3587    1
  2902   213   212   ar
  2903   703   705    1
  2904   703   701    1
  2905   591   592    1
  2906   657   656    1
  2907  2816  2834    1
  2908  2816  2802    1
  2909   693   692    1
  2910   705   707    1
  2911   705   706    1
  2912  1469  1471   ar
  2913  1469  1468   ar
  2914  2775  2777    1
  2915   119   117    1
  2916  3360  3341    2
  2917  3312  3311   ar
  2918  3312  3313    2
  2919  2722  2721   ar
  2920  1289  1306    1
  2921  3593  3591   ar
  2922   317   316    1
  2923  3619  3620   ar
  2924  3291  3292   ar
  2925  3291  3290    1
  2926  1471  1472   ar
  2927  3685  3663    2
  2928  2727  2724   ar
  2929   636   641    1
  2930  1747  1749    1
  2931  3227  3222    1
  2932  3227  3225    1
  2933  3222  3221    1
  2934  3637  3639   ar
  2935  3637  3636   ar
  2936  3616  3615   ar
  2937  3616  3610   ar
  2938  2764  2765   ar
  2939  2764  2771   ar
  2940   185   191   ar
  2941   185   186   ar
  2942  3602  3601    1
  2943  2803  2805    1
  2944  2803  2801    1
  2945  2803  2804    1
  2946   237   236    2
  2947  3292  3293    2
  2948  1753  1751    1
  2949  2765  2767   ar
  2950   315   329    1
  2951   315   314    1
  2952   696   678    1
  2953  3219  3221    1
  2954  3660  3653   ar
  2955  3615  3614   ar
  2956  3250  3248    1
  2957  3250  3245    1
  2958   120   121   ar
  2959   228   227    1
  2960  3587  3588    1
  2961  3288  3290    1
  2962  3288  3286    1
  2963  2805  2800    1
  2964   235   236   ar
  2965   235   234   ar
  2966   210   211   ar
  2967  3591  3592    2
  2968   678   680    1
  2969   678   661    1
  2970   700   698    1
  2971   700   699    1
  2972   312   310    1
  2973   312   314    1
  2974   312   313    1
  2975   115   117    1
  2976   115   116    1
  2977   294   293    1
  2978  1755  1756   ar
  2979  1447  1446   ar
  2980  1447  1448   ar
  2981  3667  3666    1
  2982   146   148   ar
  2983   146   145   ar
  2984   330   332    1
  2985   330   331    1
  2986   545   528    1
  2987   545   565    1
  2988   545   547    1
  2989  3273  3272    2
  2990   310   311    1
  2991  3341  3359    1
  2992  3341  3327    1
  2993  3272  3271   ar
  2994  2784  2785   ar
  2995   191   190   ar
  2996   240   229    1
  2997   240   234   ar
  2998  3328  3330    1
  2999  3328  3326    1
  3000  3328  3329    1
  3001  1323  1322    2
  3002   169   168    2
  3003   694   692   ar
  3004   694   695   ar
  3005   698   716    1
  3006   698   684    1
  3007   707   702    1
  3008  2747  2748    1
  3009  2747  2742   ar
  3010  3311  3310    1
  3011   187   186    1
  3012   651   650   ar
  3013   651   652   ar
  3014   148   149   ar
  3015  3340  3321    2
  3016  2724  2725   ar
  3017   594   599    1
  3018  3249  3248    1
  3019  3665  3663    1
  3020  3665  3664    1
  3021  2744  2743   ar
  3022  1749  1751    1
  3023  1749  1750    1
  3024  3277  3278   ar
  3025  3330  3325    1
  3026  3639  3640   ar
  3027  2793  2787   ar
  3028  2793  2783    1
  3029  1787  1766    2
  3030  3653  3652    1
  3031  2801  2802    1
  3032  2801  2799    1
  3033   151   132    2
  3034   692   691   ar
  3035  3290  3285    1
  3036  3666  3664    1
  3037   592   590    1
  3038  1324  1325   ar
  3039  1324  1321   ar
  3040  1706  1704    1
  3041  1706  1708    1
  3042   656   658    1
  3043   629   628   ar
  3044   629   623   ar
  3045   599   600    1
  3046  1489  1488    1
  3047  2771  2770   ar
  3048  2787  2786   ar
  3049   329   331    1
  3050   329   351    1
  3051  1446  1451   ar
  3052  1465  1467    1
  3053  1465  1463    1
  3054   236   230   ar
  3055   528   527    1
  3056  3301  3287    1
  3057  3301  3303    1
  3058  3301  3319    1
  3059  1704  1702    1
  3060  1704  1705    1
  3061  1468  1474   ar
  3062  2767  2768   ar
  3063  1485  1484    1
  3064  1485  1490    1
  3065  3221  3223    1
  3066   229   227    1
  3067   229   224    1
  3068  3287  3286    1
  3069   639   641    1
  3070   639   640    1
  3071   122   121   ar
  3072   628   627   ar
  3073  3636  3634   ar
  3074  1768  1766    1
  3075  3326  3327    1
  3076  3326  3324    1
  3077   608   590    2
  3078   650   647   ar
  3079   680   679    1
  3080   314   316    1
  3081   186   188   ar
  3082  1467  1462    1
  3083  1467  1478    1
  3084  1484  1482    1
  3085  1484  1486    1
  3086  2798  2796    1
  3087  2798  2797    1
  3088  3248  3246    1
  3089   117   118    1
  3090  2721  2720   ar
  3091   332   333    1
  3092   332   334    1
  3093   313   318    1
  3094  1448  1449   ar
  3095  1325  1326   ar
  3096   546   547    1
  3097   546   548    1
  3098  3225  3223    1
  3099  3225  3226    1
  3100  3223  3224    1
  3101  3663  3684    1
  3102  3663  3649    1
  3103   701   699    1
  3104   701   702    1
  3105   212   211   ar
  3106   212   215   ar
  3107  3245  3244    1
  3108  2796  2780    1
  3109  2796  2814    1
  3110  1751  1752    1
  3111  2778  2777    1
  3112  2778  2783    1
  3113  2777  2779    1
  3114  1322  1321   ar
  3115  1322  1316   ar
  3116   641   652    1
  3117   316   318    1
  3118  1482  1483    1
  3119   234   233   ar
  3120   116   132    1
  3121  1328  1306    2
  3122  1321  1320   ar
  3123  3610  3611   ar
  3124   211   217   ar
  3125  1472  1478   ar
  3126  1472  1473   ar
  3127   145   143   ar
  3128  3642  3623    2
  3129  2779  2780    1
  3130  2779  2781    1
  3131  3620  3614   ar
  3132  3620  3609    1
  3133   695   688   ar
  3134   370   352    2
  3135  3286  3284    1
  3136   227   225    1
  3137   673   674   ar
  3138   673   670   ar
  3139   327   309    2
  3140   652   646   ar
  3141  2770  2768   ar
  3142  3271  3278   ar
  3143  3271  3270    1
  3144  1306  1308    1
  3145  1306  1327    1
  3146   264   243    2
  3147  3303  3302    1
  3148  2800  2799    1
  3149  3601  3603    1
  3150  2768  2769    2
  3151  3614  3613   ar
  3152   661   660    1
  3153  1490  1488    1
  3154  1490  1501    1
  3155  3260  3241    2
  3156  1702  1703    1
  3157   530   529    1
  3158   284   266    2
  3159  1709  1708    1
  3160  1766  1750    1
  3161  1766  1786    1
  3162  3323  3321    1
  3163  3323  3322    1
  3164  1705  1710    1
  3165  2743  2742   ar
  3166   691   689   ar
  3167  2785  2786   ar
  3168   226   225    1
  3169   226   243    1
  3170   335   334    1
  3171   335   352    1
  3172   674   675   ar
  3173   168   162   ar
  3174   168   167   ar
  3175   149   142   ar
  3176  2783  2781    1
  3177   292   309    1
  3178   292   291    1
  3179  3325  3324    1
  3180   590   609    1
  3181   590   573    1
  3182  2725  2720   ar
  3183  2725  2726    1
  3184   318   319    1
  3185  1462  1461    1
  3186   660   658    1
  3187   660   662    1
  3188   132   150    1
  3189   132   134    1
  3190   333   338    1
  3191   293   291    1
  3192   293   295    1
  3193   311   309    1
  3194  1708  1710    1
  3195  1464  1463    1
  3196  1464  1481    1
  3197   623   622   ar
  3198   623   624   ar
  3199  1478  1477   ar
  3200  1488  1486    1
  3201   281   280    1
  3202  1710  1711    1
  3203   190   193   ar
  3204   190   189   ar
  3205  3321  3339    1
  3206  3321  3307    1
  3207   602   601    2
  3208  2799  2797    1
  3209   244   246    1
  3210   244   245    1
  3211  3604  3603    1
  3212  3604  3609    1
  3213   684   683    1
  3214  3648  3650    1
  3215  3648  3649    1
  3216  3648  3646    1
  3217  1408  1407    1
  3218  1316  1317   ar
  3219  3640  3633   ar
  3220  1308  1307    1
  3221   658   659    1
  3222  1326  1320   ar
  3223  1326  1315    1
  3224  3310  3308    1
  3225  3310  3305    1
  3226   672   671    2
  3227  3650  3652    1
  3228  3650  3651    1
  3229  3652  3647    1
  3230  1463  1461    1
  3231   162   163   ar
  3232   224   223    1
  3233  1461  1459    1
  3234  1310  1315    1
  3235  1310  1309    1
  3236   683   681    1
  3237   683   685    1
  3238   622   621   ar
  3239  3285  3284    1
  3240  1320  1319   ar
  3241  1424  1425   ar
  3242  1424  1429   ar
  3243   600   601   ar
  3244   600   607   ar
  3245   679   681    1
  3246  1451  1452    1
  3247  1451  1450   ar
  3248   627   624   ar
  3249  3306  3308    1
  3250  3306  3307    1
  3251  3306  3304    1
  3252  3324  3322    1
  3253   309   328    1
  3254   334   336    1
  3255  1425  1426   ar
  3256  3308  3309    1
  3257  1486  1487    1
  3258  1474  1473   ar
  3259  1474  1475    2
  3260   527   525    1
  3261   527   529    1
  3262   230   231   ar
  3263  1713  1712    2
  3264   255   254    1
  3265  1487  1504    1
  3266   647   646   ar
  3267   647   648   ar
  3268   337   336    1
  3269  3243  3241    1
  3270  3243  3242    1
  3271   289   291    1
  3272   289   290    1
  3273   289   287    1
  3274  2781  2782    1
  3275   225   223    1
  3276  3634  3633   ar
  3277  3634  3635    2
  3278  3603  3605    1
  3279   188   189   ar
  3280   688   689   ar
  3281   688   687    1
  3282   215   216   ar
  3283   352   371    1
  3284   352   354    1
  3285  3224  3241    1
  3286   282   280   ar
  3287   282   283   ar
  3288   243   245    1
  3289   243   265    1
  3290  3605  3607    1
  3291  3605  3606    1
  3292   670   671   ar
  3293   670   669   ar
  3294  3609  3607    1
  3295  1307  1309    1
  3296   588   567    2
  3297  3305  3304    1
  3298  3270  3265    1
  3299  3270  3268    1
  3300  1449  1450   ar
  3301  1449  1455   ar
  3302  1473  1476   ar
  3303  1502  1481    2
  3304   525   523    1
  3305   525   526    1
  3306   548   549    1
  3307   548   550    1
  3308   143   142   ar
  3309   143   144    2
  3310   689   690    2
  3311  1483  1481    1
  3312  3246  3244    1
  3313  3246  3247    1
  3314   246   247    1
  3315   246   248    1
  3316  3611  3613   ar
  3317  3611  3612    1
  3318   295   290    1
  3319   295   306    1
  3320   646   645   ar
  3321  3244  3242    1
  3322   601   603   ar
  3323   280   279   ar
  3324   193   194   ar
  3325  3284  3282    1
  3326  3241  3259    1
  3327  3265  3264    1
  3328  1719  1701    2
  3329   529   531    1
  3330   233   231   ar
  3331  1315  1313    1
  3332   142   141    1
  3333   671   665   ar
  3334  3247  3261    1
  3335   523   524    1
  3336   189   195   ar
  3337   217   216   ar
  3338   217   207    1
  3339   624   625   ar
  3340  1317  1319   ar
  3341  1317  1318    1
  3342   659   664    1
  3343  1344  1343    1
  3344  3647  3646    1
  3345   167   170   ar
  3346   167   166   ar
  3347  1501  1500   ar
  3348  1501  1495   ar
  3349   675   669   ar
  3350   675   664    1
  3351  3662  3643    2
  3352  1402  1407   ar
  3353  1402  1403   ar
  3354  3633  3632    1
  3355   573   572    1
  3356  1444  1443    1
  3357  3302  3304    1
  3358   170   171   ar
  3359  3623  3606    1
  3360  3623  3625    1
  3361  3623  3641    1
  3362  1481  1503    1
  3363   681   682    1
  3364  1703  1701    1
  3365   134   133    1
  3366  3644  3646    1
  3367  3644  3645    1
  3368   685   687    1
  3369   685   686    1
  3370  1407  1406   ar
  3371   607   606   ar
  3372   336   338    1
  3373   338   349    1
  3374   247   252    1
  3375   266   285    1
  3376   266   249    1
  3377   266   268    1
  3378   549   554    1
  3379   223   221    1
  3380  1450  1453   ar
  3381  1309  1311    1
  3382  1430  1429    1
  3383   231   232    1
  3384   662   664    1
  3385   662   663    1
  3386  1381  1380    1
  3387  3607  3608    1
  3388   283   276   ar
  3389   649   648    2
  3390  1429  1428   ar
  3391  1711  1712   ar
  3392  1711  1718   ar
  3393  1477  1476   ar
  3394   648   642   ar
  3395   319   326   ar
  3396   319   320   ar
  3397   287   288    1
  3398   621   620   ar
  3399   669   668   ar
  3400  1712  1714   ar
  3401   353   354    1
  3402   353   355    1
  3403   163   164    1
  3404   163   165   ar
  3405  1426  1427   ar
  3406   682   687    1
  3407  1522  1504    2
  3408  1459  1460    1
  3409  1500  1499   ar
  3410   207   205    1
  3411   207   202    1
  3412   254   256   ar
  3413   254   253   ar
  3414  1445  1443    1
  3415  1445  1455    1
  3416  1445  1440    1
  3417   543   522    2
  3418  1494  1495   ar
  3419  1494  1492   ar
  3420  3625  3624    1
  3421   256   257   ar
  3422   279   277   ar
  3423  1443  1441    1
  3424  1455  1454   ar
  3425   321   320    2
  3426   572   570    1
  3427   572   574    1
  3428  1689  1688    1
  3429   299   297   ar
  3430   299   300   ar
  3431   298   297    1
  3432   249   248    1
  3433   550   551    1
  3434   550   552    1
  3435  1701  1687    1
  3436  1701  1720    1
  3437   526   531    1
  3438  1495  1496   ar
  3439  1505  1506    1
  3440  1505  1507    1
  3441   645   643   ar
  3442  1504  1506    1
  3443  1504  1523    1
  3444   274   273    1
  3445   248   250    1
  3446   206   205    1
  3447  1343  1345   ar
  3448  1343  1342   ar
  3449   136   141    1
  3450   136   135    1
  3451  3283  3282    1
  3452  3283  3281    1
  3453   531   542    1
  3454   194   195   ar
  3455  1403  1404   ar
  3456  3263  3261    1
  3457  3263  3262    1
  3458   665   666   ar
  3459   603   604   ar
  3460   205   203    1
  3461  3268  3269    1
  3462  3268  3266    1
  3463   268   267    1
  3464   326   325   ar
  3465   567   551    1
  3466   567   589    1
  3467   567   569    1
  3468   306   300   ar
  3469   306   305   ar
  3470   524   522    1
  3471   141   139    1
  3472   625   620   ar
  3473   625   626    1
  3474  3264  3266    1
  3475  3264  3262    1
  3476   195   184    1
  3477   166   165   ar
  3478   166   172   ar
  3479   133   135    1
  3480   273   275    1
  3481   273   271    1
  3482   320   322   ar
  3483   276   277   ar
  3484   276   275    1
  3485  3645  3643    1
  3486   171   172   ar
  3487   568   570    1
  3488   568   569    1
  3489  3261  3280    2
  3490  3261  3279    1
  3491   563   562   ar
  3492   563   564   ar
  3493  3643  3661    1
  3494  3643  3629    1
  3495  1313  1311    1
  3496  1313  1314    1
  3497   349   348   ar
  3498   349   343   ar
  3499  1406  1409   ar
  3500  1406  1405   ar
  3501  1687  1686    1
  3502  1311  1312    1
  3503   570   571    1
  3504  1364  1363    2
  3505   606   604   ar
  3506   297   296   ar
  3507   277   278    2
  3508  1345  1346   ar
  3509  1342  1340   ar
  3510   510   509    1
  3511   348   347   ar
  3512   252   250    1
  3513   252   263    1
  3514  3632  3630    1
  3515  3632  3627    1
  3516  1380  1379   ar
  3517  1380  1382   ar
  3518   221   222    1
  3519   300   301   ar
  3520  1718  1717   ar
  3521  1427  1428   ar
  3522  1427  1433   ar
  3523  1453  1454   ar
  3524   554   552    1
  3525   554   564    1
  3526   642   643   ar
  3527  1428  1431   ar
  3528  1493  1492    1
  3529   668   666   ar
  3530  1460  1458    1
  3531  1492  1491   ar
  3532  3628  3630    1
  3533  3628  3629    1
  3534  3628  3626    1
  3535   575   574    1
  3536  1507  1508    1
  3537  1507  1509    1
  3538   552   553    1
  3539  1379  1385   ar
  3540   522   508    1
  3541   522   544    1
  3542   253   259   ar
  3543  3267  3266    1
  3544  3267  3281    1
  3545  1714  1715   ar
  3546   288   286    1
  3547  1440  1439    1
  3548  1499  1496   ar
  3549   643   644    1
  3550   202   201    1
  3551   355   356    1
  3552   355   357    1
  3553   666   667    1
  3554  1409  1410   ar
  3555  3630  3631    1
  3556  3627  3626    1
  3557  1508  1513    1
  3558   135   137    1
  3559  1688  1686    1
  3560  1688  1690    1
  3561   257   263   ar
  3562   257   258   ar
  3563  1496  1497   ar
  3564   574   576    1
  3565   604   605    2
  3566   562   559   ar
  3567   564   558   ar
  3568   172   161    1
  3569  3624  3626    1
  3570   508   507    1
  3571   222   220    1
  3572  1670  1669    1
  3573   275   270    1
  3574   250   251    1
  3575  1441  1442    1
  3576  1441  1439    1
  3577   271   269    1
  3578   271   272    1
  3579  1404  1405   ar
  3580   137   139    1
  3581   137   138    1
  3582  1362  1363   ar
  3583  1362  1360   ar
  3584  1693  1692    2
  3585   263   262   ar
  3586   305   304   ar
  3587  3281  3300    2
  3588  3281  3299    1
  3589  1363  1365   ar
  3590   174   152    2
  3591   139   140    1
  3592  1405  1411   ar
  3593   542   541   ar
  3594   542   536   ar
  3595   356   361    1
  3596   509   507    1
  3597   509   511    1
  3598  1346  1339   ar
  3599  1382  1383   ar
  3600  1340  1341    2
  3601  1340  1339   ar
  3602   184   182    1
  3603   184   179    1
  3604  1686  1684    1
  3605   325   323   ar
  3606   267   269    1
  3607   203   201    1
  3608   203   204    1
  3609  1442  1458    1
  3610  1439  1437    1
  3611   322   323   ar
  3612  1312  1329    1
  3613   347   344   ar
  3614   343   342   ar
  3615   343   344   ar
  3616   514   513    2
  3617  1491  1497   ar
  3618   358   357    1
  3619   358   372    1
  3620   270   269    1
  3621  1717  1715   ar
  3622   390   372    2
  3623   571   576    1
  3624   296   302   ar
  3625  1715  1716    1
  3626   391   372    1
  3627   576   587    1
  3628  1433  1423    1
  3629  1433  1432   ar
  3630  1431  1432   ar
  3631  1385  1386    2
  3632  1385  1384   ar
  3633  1348  1329    2
  3634  1339  1338    1
  3635   301   304   ar
  3636   301   302   ar
  3637   357   359    1
  3638   182   183    1
  3639   182   180    1
  3640   535   536   ar
  3641   535   533   ar
  3642   201   199    1
  3643  1497  1498    2
  3644   259   258   ar
  3645   259   260    2
  3646  1458  1479    2
  3647  1458  1480    1
  3648  1361  1360    2
  3649   507   505    1
  3650   541   540   ar
  3651  1410  1411   ar
  3652   258   261   ar
  3653  1690  1685    1
  3654  1690  1691    1
  3655  1509  1510    1
  3656  1509  1511    1
  3657  1510  1524    1
  3658   342   340   ar
  3659   272   286    1
  3660   286   308    2
  3661   286   307    1
  3662  1684  1685    1
  3663  1684  1682    1
  3664  1513  1511    1
  3665  1513  1514    1
  3666  1360  1359   ar
  3667   536   537   ar
  3668   323   324    1
  3669   372   374    1
  3670   559   558   ar
  3671   559   560   ar
  3672   558   557   ar
  3673  1423  1421    1
  3674  1423  1418    1
  3675   204   220    1
  3676   242   220    2
  3677  1669  1671   ar
  3678  1669  1668   ar
  3679   138   152    1
  3680  1411  1401    1
  3681   369   368   ar
  3682   369   362   ar
  3683   220   241    1
  3684  1512  1511    1
  3685  1365  1366   ar
  3686   179   178    1
  3687   344   345   ar
  3688  1692  1691   ar
  3689  1692  1694   ar
  3690   161   156    1
  3691   161   159    1
  3692  1422  1421    1
  3693  1383  1384   ar
  3694  1383  1389   ar
  3695  1521  1514   ar
  3696  1521  1520   ar
  3697   152   154    1
  3698   152   173    1
  3699   511   512    1
  3700   511   506    1
  3701   262   261   ar
  3702   302   303    2
  3703  1421  1419    1
  3704  1329  1331    1
  3705  1329  1347    1
  3706   513   512   ar
  3707   513   515   ar
  3708  1545  1524    2
  3709   361   359    1
  3710   361   362    1
  3711   200   199    1
  3712   200   198    1
  3713   154   153    1
  3714   368   366   ar
  3715  1384  1387   ar
  3716   156   155    1
  3717   180   178    1
  3718   180   181    1
  3719   534   533    1
  3720  1691  1698   ar
  3721   533   532   ar
  3722   505   506    1
  3723   505   503    1
  3724  1514  1515   ar
  3725  1671  1672   ar
  3726  1338  1333    1
  3727  1338  1336    1
  3728  1333  1332    1
  3729  1437  1438    1
  3730  1546  1524    1
  3731  1668  1674   ar
  3732  1524  1526    1
  3733   359   360    1
  3734  1682  1683    1
  3735   540   537   ar
  3736   587   586   ar
  3737   587   581   ar
  3738  1331  1330    1
  3739  1359  1366   ar
  3740  1359  1358    1
  3741   219   198    2
  3742   512   519   ar
  3743  1694  1695   ar
  3744   362   363   ar
  3745  1520  1518   ar
  3746   537   538   ar
  3747   515   516   ar
  3748   557   556   ar
  3749  1666  1665    1
  3750   340   341    1
  3751   340   339   ar
  3752  1438  1436    1
  3753   159   157    1
  3754   159   160    1
  3755   560   561    1
  3756   560   555   ar
  3757   178   176    1
  3758  1683  1681    1
  3759  1418  1417    1
  3760   580   581   ar
  3761   580   578   ar
  3762  1389  1378    1
  3763  1389  1388   ar
  3764  1401  1396    1
  3765  1401  1399    1
  3766   374   373    1
  3767   345   339   ar
  3768   345   346    2
  3769   198   181    1
  3770   198   218    1
  3771  1378  1376    1
  3772  1378  1373    1
  3773   157   155    1
  3774   157   158    1
  3775   176   177    1
  3776   586   585   ar
  3777   153   155    1
  3778   581   582   ar
  3779  1377  1376    1
  3780   503   504    1
  3781   532   538   ar
  3782  1419  1417    1
  3783  1419  1420    1
  3784  1387  1388   ar
  3785  1330  1332    1
  3786   491   490   ar
  3787   491   492   ar
  3788   366   367    1
  3789   366   365   ar
  3790   490   495   ar
  3791  1515  1516    2
  3792  1515  1517   ar
  3793  1698  1697   ar
  3794   197   175    2
  3795  1665  1667    1
  3796  1665  1663    1
  3797  1358  1353    1
  3798  1358  1356    1
  3799  1332  1334    1
  3800  1672  1673   ar
  3801  1672  1678   ar
  3802   538   539    2
  3803   519   518   ar
  3804   556   555   ar
  3805  1336  1334    1
  3806  1336  1337    1
  3807  1376  1374    1
  3808   579   578    1
  3809  1674  1675    2
  3810  1674  1673   ar
  3811   516   517    2
  3812   516   518   ar
  3813  1396  1395    1
  3814  1399  1400    1
  3815  1399  1397    1
  3816   373   375    1
  3817  1526  1525    1
  3818  1518  1517   ar
  3819  1518  1519    1
  3820  1695  1697   ar
  3821  1695  1696    1
  3822   578   577   ar
  3823  1417  1415    1
  3824   363   365   ar
  3825   363   364    2
  3826  1699  1681    2
  3827   177   175    1
  3828  1373  1372    1
  3829  1420  1436    1
  3830  1436  1457    2
  3831  1436  1456    1
  3832  1334  1335    1
  3833  1681  1664    1
  3834  1681  1700    1
  3835   504   502    1
  3836  1667  1678    1
  3837  1667  1662    1
  3838  1525  1527    1
  3839  1353  1352    1
  3840   492   493   ar
  3841  1673  1676   ar
  3842   158   175    1
  3843   585   582   ar
  3844   582   583   ar
  3845  1664  1663    1
  3846   388   389   ar
  3847   388   386   ar
  3848  1678  1677   ar
  3849   175   196    1
  3850   495   496    1
  3851   495   494   ar
  3852  1397  1395    1
  3853  1397  1398    1
  3854  1356  1357    1
  3855  1356  1354    1
  3856  1542  1543   ar
  3857  1542  1539   ar
  3858  1663  1661    1
  3859  1543  1544   ar
  3860   389   382   ar
  3861  1395  1393    1
  3862  1416  1415    1
  3863  1416  1414    1
  3864   577   583   ar
  3865  1374  1372    1
  3866  1374  1375    1
  3867   387   386    1
  3868  1393  1394    1
  3869   375   376    1
  3870   375   377    1
  3871  1394  1392    1
  3872  1528  1527    1
  3873  1528  1533    1
  3874  1372  1370    1
  3875  1662  1661    1
  3876   376   381    1
  3877   493   494   ar
  3878   493   499   ar
  3879  1435  1414    2
  3880  1541  1540    2
  3881   583   584    2
  3882   520   502    2
  3883   386   385   ar
  3884  1527  1529    1
  3885   411   392    2
  3886  1661  1659    1
  3887  1335  1349    1
  3888   494   497   ar
  3889   502   521    1
  3890   502   486    1
  3891  1368  1349    2
  3892  1676  1677   ar
  3893   488   487    1
  3894  1352  1354    1
  3895  1352  1350    1
  3896  1539  1540   ar
  3897  1539  1538   ar
  3898  1354  1355    1
  3899  1398  1414    1
  3900   429   428    2
  3901  1351  1349    1
  3902  1351  1350    1
  3903   487   489    1
  3904   487   485    1
  3905  1544  1533    1
  3906  1544  1538   ar
  3907  1414  1434    1
  3908   377   378    1
  3909   377   379    1
  3910  1375  1392    1
  3911  1650  1649    2
  3912  1540  1534   ar
  3913   382   381    1
  3914   382   383   ar
  3915   378   392    1
  3916  1349  1367    1
  3917  1568  1547    2
  3918  1651  1649   ar
  3919  1651  1652   ar
  3920  1567  1547    1
  3921  1533  1531    1
  3922   486   485    1
  3923   469   468    1
  3924   392   410    1
  3925   392   394    1
  3926   499   489    1
  3927   499   498   ar
  3928   381   379    1
  3929  1392  1413    2
  3930  1392  1412    1
  3931  1370  1371    1
  3932  1538  1537   ar
  3933  1529  1530    1
  3934  1529  1531    1
  3935  1371  1369    1
  3936  1653  1652    1
  3937  1632  1631    2
  3938   497   498   ar
  3939   385   383   ar
  3940   489   484    1
  3941  1649  1648   ar
  3942   485   483    1
  3943   407   406    1
  3944   467   468   ar
  3945   467   473   ar
  3946   428   422   ar
  3947   428   427   ar
  3948  1355  1369    1
  3949  1659  1660    1
  3950  1547  1530    1
  3951  1547  1549    1
  3952   383   384    2
  3953   474   473    2
  3954  1625  1631   ar
  3955  1625  1626   ar
  3956  1652  1654   ar
  3957   379   380    1
  3958   422   423   ar
  3959  1534  1535   ar
  3960   408   406   ar
  3961   408   409   ar
  3962   468   470   ar
  3963  1609  1608    2
  3964  1627  1626    1
  3965  1531  1532    1
  3966  1391  1369    2
  3967  1631  1630   ar
  3968   473   472   ar
  3969  1369  1390    1
  3970  1660  1658    1
  3971  1586  1585    2
  3972  1537  1535   ar
  3973   406   405   ar
  3974   394   393    1
  3975  1535  1536    1
  3976  1626  1628   ar
  3977   427   430   ar
  3978   427   426   ar
  3979  1646  1645    1
  3980   484   483    1
  3981  1648  1647    1
  3982  1648  1655   ar
  3983   483   481    1
  3984   430   431   ar
  3985   409   402   ar
  3986  1645  1647    1
  3987  1645  1643    1
  3988  1549  1548    1
  3989   423   424    1
  3990   423   425   ar
  3991   470   471   ar
  3992  1608  1602   ar
  3993  1608  1607   ar
  3994  1654  1655   ar
  3995  1647  1642    1
  3996  1587  1584   ar
  3997  1587  1588   ar
  3998  1585  1584   ar
  3999  1585  1579   ar
  4000   472   471   ar
  4001   472   475   ar
  4002  1602  1603   ar
  4003  1548  1550    1
  4004  1630  1633   ar
  4005  1630  1629   ar
  4006   405   403   ar
  4007   393   395    1
  4008  1591  1569    2
  4009   482   481    1
  4010   482   480    1
  4011   471   477   ar
  4012  1658  1680    2
  4013  1658  1644    1
  4014  1658  1679    1
  4015   426   425   ar
  4016   426   432   ar
  4017  1628  1629   ar
  4018  1584  1583   ar
  4019   431   432   ar
  4020  1643  1644    1
  4021  1643  1641    1
  4022   402   403   ar
  4023   402   401    1
  4024  1607  1610   ar
  4025  1607  1606   ar
  4026   451   450    1
  4027  1588  1589   ar
  4028  1610  1611   ar
  4029  1633  1634   ar
  4030  1629  1635   ar
  4031   475   476   ar
  4032  1579  1580   ar
  4033   434   412    2
  4034  1590  1569    1
  4035   501   480    2
  4036   403   404    2
  4037   396   395    1
  4038   396   401    1
  4039  1642  1641    1
  4040   432   421    1
  4041  1603  1604    1
  4042  1603  1605   ar
  4043  1569  1571    1
  4044  1569  1553    1
  4045   395   397    1
  4046   480   500    1
  4047   480   463    1
  4048  1550  1551    1
  4049  1550  1552    1
  4050   477   476   ar
  4051   477   466    1
  4052   401   399    1
  4053  1641  1639    1
  4054   397   399    1
  4055   397   398    1
  4056  1583  1589   ar
  4057  1583  1582   ar
  4058   464   465    1
  4059   464   466    1
  4060   464   462    1
  4061  1564  1565   ar
  4062  1564  1561   ar
  4063  1565  1566   ar
  4064   450   445   ar
  4065   450   449   ar
  4066  1606  1605   ar
  4067  1606  1612   ar
  4068  1589  1578    1
  4069  1634  1635   ar
  4070  1611  1612   ar
  4071  1551  1556    1
  4072  1552  1553    1
  4073  1552  1554    1
  4074  1635  1624    1
  4075  1570  1571    1
  4076  1570  1572    1
  4077  1614  1592    2
  4078  1580  1582   ar
  4079  1580  1581    1
  4080   466   461    1
  4081   412   398    1
  4082   412   414    1
  4083   412   433    1
  4084   399   400    1
  4085   452   449   ar
  4086   452   453   ar
  4087   462   463    1
  4088   462   460    1
  4089   445   446   ar
  4090   421   419    1
  4091   421   416    1
  4092   456   435    2
  4093   449   448   ar
  4094  1612  1601    1
  4095   414   413    1
  4096  1640  1639    1
  4097  1640  1638    1
  4098  1566  1556    1
  4099  1566  1560   ar
  4100  1563  1562    1
  4101  1561  1562   ar
  4102  1561  1560   ar
  4103   419   417    1
  4104   419   420    1
  4105  1573  1578    1
  4106  1573  1572    1
  4107  1556  1554    1
  4108  1578  1576    1
  4109  1572  1574    1
  4110  1624  1622    1
  4111  1624  1619    1
  4112  1554  1555    1
  4113  1574  1576    1
  4114  1574  1575    1
  4115   416   415    1
  4116  1622  1623    1
  4117  1622  1620    1
  4118  1562  1557   ar
  4119   417   415    1
  4120   417   418    1
  4121  1560  1559   ar
  4122   453   454   ar
  4123  1637  1615    2
  4124  1657  1638    2
  4125   461   460    1
  4126  1592  1594    1
  4127  1592  1575    1
  4128  1592  1613    1
  4129   446   447   ar
  4130   460   458    1
  4131  1594  1593    1
  4132   448   454   ar
  4133   448   447   ar
  4134  1576  1577    1
  4135  1638  1621    1
  4136  1638  1656    1
  4137  1620  1621    1
  4138  1620  1618    1
  4139   415   413    1
  4140   435   418    1
  4141   435   437    1
  4142   435   455    1
  4143   459   458    1
  4144   459   457    1
  4145   479   457    2
  4146  1601  1599    1
  4147  1601  1596    1
  4148  1619  1618    1
  4149  1557  1558   ar
  4150   454   444    1
  4151  1559  1558   ar
  4152  1617  1615    1
  4153  1617  1616    1
  4154   437   436    1
  4155  1599  1597    1
  4156  1599  1600    1
  4157  1597  1595    1
  4158  1597  1598    1
  4159  1596  1595    1
  4160  1615  1598    1
  4161  1615  1636    1
  4162   457   478    1
  4163   457   441    1
  4164  1618  1616    1
  4165  1593  1595    1
  4166   440   442    1
  4167   440   441    1
  4168   440   438    1
  4169   444   442    1
  4170   444   439    1
  4171   442   443    1
  4172   436   438    1
  4173   439   438    1
