ligand
 OpenBabel02271912133D
libRbt.so/2013.1/901 2013/11/27
 42 45  0  0  0  0  0  0  0  0999 V2000
    6.8457    0.0666    3.2932 C   0  0  2  0  0  0  0  0  0  0  0  0
    7.1836    0.1290    4.6894 O   0  0  0  0  0  0  0  0  0  0  0  0
   10.1290    2.2882    7.0258 C   0  0  2  0  0  0  0  0  0  0  0  0
   11.4051    2.9076    7.4930 N   0  0  0  0  0  0  0  0  0  0  0  0
    7.8848    3.8764    3.2180 C   0  0  1  0  0  0  0  0  0  0  0  0
    6.5806    7.3548    0.7538 C   0  0  1  0  0  0  0  0  0  0  0  0
    5.4123   -0.5373    3.1986 C   0  0  2  0  0  0  0  0  0  0  0  0
    4.4566    0.1356    4.0955 N   0  0  0  0  0  0  0  0  0  0  0  0
   10.2398    0.7110    6.9793 C   0  0  0  0  0  0  0  0  0  0  0  0
    8.3361    4.1646    1.7538 C   0  0  2  0  0  0  0  0  0  0  0  0
    9.6501    4.7658    1.6496 O   0  0  0  0  0  0  0  0  0  0  0  0
    6.7854    8.8685    1.1220 C   0  0  2  0  0  0  0  0  0  0  0  0
    6.5996    9.0909    2.5873 N   0  0  0  0  0  0  0  0  0  0  0  0
    5.3837   -2.0337    3.5602 C   0  0  1  0  0  0  0  0  0  0  0  0
    4.0603   -2.5537    3.4217 O   0  0  0  0  0  0  0  0  0  0  0  0
    8.8608    0.1164    6.5026 C   0  0  2  0  0  0  0  0  0  0  0  0
    8.9247   -1.3695    6.4610 N   0  0  0  0  0  0  0  0  0  0  0  0
    7.1740    5.0208    1.2479 C   0  0  2  0  0  0  0  0  0  0  0  0
    7.4122    6.4449    1.4847 O   0  0  0  0  0  0  0  0  0  0  0  0
    5.7646    9.7626    0.2703 C   0  0  1  0  0  0  0  0  0  0  0  0
    6.2191    9.8127   -1.1008 O   0  0  0  0  0  0  0  0  0  0  0  0
    6.3871   -2.7991    2.6678 C   0  0  2  0  0  0  0  0  0  0  0  0
    6.3608   -4.1737    2.9751 O   0  0  0  0  0  0  0  0  0  0  0  0
    8.4796    0.6708    5.0731 C   0  0  2  0  0  0  0  0  0  0  0  0
    5.9263    4.5316    2.0024 C   0  0  2  0  0  0  0  0  0  0  0  0
    6.4565    4.0994    3.2533 O   0  0  0  0  0  0  0  0  0  0  0  0
    4.2625    9.2067    0.3170 C   0  0  2  0  0  0  0  0  0  0  0  0
    3.7688    9.4096    1.6404 O   0  0  0  0  0  0  0  0  0  0  0  0
    7.8201   -2.2101    2.8896 C   0  0  2  0  0  0  0  0  0  0  0  0
    7.8192   -0.7819    2.5736 O   0  0  0  0  0  0  0  0  0  0  0  0
    8.4080    2.2129    5.0284 C   0  0  2  0  0  0  0  0  0  0  0  0
    8.2342    2.5466    3.6238 O   0  0  0  0  0  0  0  0  0  0  0  0
    5.1403    3.3821    1.2987 C   0  0  0  0  0  0  0  0  0  0  0  0
    3.9847    3.0630    2.0678 O   0  0  0  0  0  0  0  0  0  0  0  0
    4.2250    7.6750   -0.0501 C   0  0  1  0  0  0  0  0  0  0  0  0
    5.1164    7.0021    0.9106 O   0  0  0  0  0  0  0  0  0  0  0  0
    8.8687   -2.8989    2.0471 C   0  0  0  0  0  0  0  0  0  0  0  0
    9.0452   -4.2253    2.4814 O   0  0  0  0  0  0  0  0  0  0  0  0
    9.7501    2.8414    5.5937 C   0  0  1  0  0  0  0  0  0  0  0  0
    9.6255    4.2627    5.6936 O   0  0  0  0  0  0  0  0  0  0  0  0
    2.7720    7.0313    0.0045 C   0  0  0  0  0  0  0  0  0  0  0  0
    2.1081    7.0562    1.3368 N   0  0  0  0  0  0  0  0  0  0  0  0
  1  2  1  1  0  0  0
  1  7  1  0  0  0  0
  1 30  1  0  0  0  0
  3  4  1  6  0  0  0
  3  9  1  0  0  0  0
  3 39  1  0  0  0  0
  5 10  1  0  0  0  0
  5 26  1  0  0  0  0
  5 32  1  6  0  0  0
  6 12  1  0  0  0  0
  6 36  1  0  0  0  0
  6 19  1  1  0  0  0
  7  8  1  1  0  0  0
  7 14  1  0  0  0  0
  9 16  1  0  0  0  0
 10 11  1  1  0  0  0
 10 18  1  0  0  0  0
 12 13  1  1  0  0  0
 12 20  1  0  0  0  0
 14 15  1  6  0  0  0
 14 22  1  0  0  0  0
 16 17  1  6  0  0  0
 16 24  1  0  0  0  0
 18 19  1  1  0  0  0
 18 25  1  0  0  0  0
 20 21  1  6  0  0  0
 20 27  1  0  0  0  0
 22 23  1  1  0  0  0
 22 29  1  0  0  0  0
 24  2  1  1  0  0  0
 24 31  1  0  0  0  0
 25 26  1  0  0  0  0
 25 33  1  6  0  0  0
 27 28  1  1  0  0  0
 27 35  1  0  0  0  0
 29 30  1  0  0  0  0
 29 37  1  6  0  0  0
 31 32  1  6  0  0  0
 31 39  1  0  0  0  0
 33 34  1  0  0  0  0
 35 36  1  0  0  0  0
 35 41  1  1  0  0  0
 37 38  1  0  0  0  0
 39 40  1  1  0  0  0
 41 42  1  0  0  0  0
M  END
>  <CHROM.1>
-179.46046532,-157.18349555,164.13611588,175.21635167,-177.57887292,-67.69961967
168.53637606,155.59481052,-61.76088766,6.89052664,3.00747505,2.91318616,1.26052645
0.65282894,2.99418533

>  <Name>
ligand

>  <RI>
0

>  <Rbt.Current_Directory>
/home/itssahil/PROJECTS/Mol_Feturizer/Test_systems_manuscript/rnas/2o3w

>  <Rbt.Executable>
rbdock ($Id: //depot/dev/client3/rdock/2013.1/src/exe/rbdock.cxx#4 $)

>  <Rbt.Library>
libRbt.so (2013.1, Build901 2013/11/27)

>  <Rbt.Parameter_File>
/export/apps/rDock/src/rDock_2013.1_src/data/scripts/dock_solv.prm

>  <Rbt.Receptor>
prm/pocket_docking_2.prm

>  <SCORE>
-5.93375

>  <SCORE.INTER>
4.75118

>  <SCORE.INTER.CONST>
1

>  <SCORE.INTER.POLAR>
0

>  <SCORE.INTER.ROT>
9

>  <SCORE.INTER.SOLV>
13.4726

>  <SCORE.INTER.VDW>
-10.9234

>  <SCORE.INTER.norm>
0.113123

>  <SCORE.INTRA>
-10.6849

>  <SCORE.INTRA.DIHEDRAL>
-20.7914

>  <SCORE.INTRA.DIHEDRAL.0>
27.8999

>  <SCORE.INTRA.POLAR>
0

>  <SCORE.INTRA.POLAR.0>
0

>  <SCORE.INTRA.REPUL>
0

>  <SCORE.INTRA.REPUL.0>
0

>  <SCORE.INTRA.SOLV>
-3.33757

>  <SCORE.INTRA.SOLV.lig_0>
-104.479

>  <SCORE.INTRA.VDW>
1.37954

>  <SCORE.INTRA.VDW.0>
-6.17816

>  <SCORE.INTRA.norm>
-0.254403

>  <SCORE.RESTR>
0

>  <SCORE.RESTR.CAVITY>
0

>  <SCORE.RESTR.norm>
0

>  <SCORE.SYSTEM>
0

>  <SCORE.SYSTEM.CONST>
0

>  <SCORE.SYSTEM.DIHEDRAL>
0

>  <SCORE.SYSTEM.SOLV>
0

>  <SCORE.SYSTEM.norm>
0

>  <SCORE.heavy>
42

>  <SCORE.norm>
-0.14128

>  <RMSD>
1.002

$$$$
ligand
 OpenBabel02271912133D
libRbt.so/2013.1/901 2013/11/27
 42 45  0  0  0  0  0  0  0  0999 V2000
    6.8770    0.0756    3.1736 C   0  0  2  0  0  0  0  0  0  0  0  0
    7.2093    0.1275    4.5716 O   0  0  0  0  0  0  0  0  0  0  0  0
   10.0958    2.3354    6.9356 C   0  0  2  0  0  0  0  0  0  0  0  0
   11.3565    2.9775    7.4140 N   0  0  0  0  0  0  0  0  0  0  0  0
    7.8669    3.8952    3.1138 C   0  0  1  0  0  0  0  0  0  0  0  0
    6.5084    7.3584    0.6509 C   0  0  1  0  0  0  0  0  0  0  0  0
    5.4012   -0.4145    3.0746 C   0  0  2  0  0  0  0  0  0  0  0  0
    4.4955    0.3421    3.9565 N   0  0  0  0  0  0  0  0  0  0  0  0
   10.2366    0.7608    6.8861 C   0  0  0  0  0  0  0  0  0  0  0  0
    8.2680    4.1666    1.6318 C   0  0  2  0  0  0  0  0  0  0  0  0
    9.5812    4.7583    1.4756 O   0  0  0  0  0  0  0  0  0  0  0  0
    6.7254    8.8737    1.0052 C   0  0  2  0  0  0  0  0  0  0  0  0
    6.5662    9.1067    2.4719 N   0  0  0  0  0  0  0  0  0  0  0  0
    5.2520   -1.8997    3.4527 C   0  0  1  0  0  0  0  0  0  0  0  0
    3.8927   -2.3153    3.3097 O   0  0  0  0  0  0  0  0  0  0  0  0
    8.8727    0.1416    6.3974 C   0  0  2  0  0  0  0  0  0  0  0  0
    8.9648   -1.3427    6.3527 N   0  0  0  0  0  0  0  0  0  0  0  0
    7.0941    5.0254    1.1590 C   0  0  2  0  0  0  0  0  0  0  0  0
    7.3491    6.4501    1.3733 O   0  0  0  0  0  0  0  0  0  0  0  0
    5.6933    9.7661    0.1653 C   0  0  1  0  0  0  0  0  0  0  0  0
    6.1239    9.8051   -1.2137 O   0  0  0  0  0  0  0  0  0  0  0  0
    6.1980   -2.7522    2.5766 C   0  0  2  0  0  0  0  0  0  0  0  0
    6.0612   -4.1167    2.8990 O   0  0  0  0  0  0  0  0  0  0  0  0
    8.4919    0.6924    4.9665 C   0  0  2  0  0  0  0  0  0  0  0  0
    5.8708    4.5514    1.9617 C   0  0  2  0  0  0  0  0  0  0  0  0
    6.4421    4.1277    3.1972 O   0  0  0  0  0  0  0  0  0  0  0  0
    4.1901    9.2164    0.2421 C   0  0  2  0  0  0  0  0  0  0  0  0
    3.7205    9.4303    1.5725 O   0  0  0  0  0  0  0  0  0  0  0  0
    7.6715   -2.2755    2.8029 C   0  0  2  0  0  0  0  0  0  0  0  0
    7.7855   -0.8554    2.4710 O   0  0  0  0  0  0  0  0  0  0  0  0
    8.3917    2.2330    4.9250 C   0  0  2  0  0  0  0  0  0  0  0  0
    8.2223    2.5671    3.5199 O   0  0  0  0  0  0  0  0  0  0  0  0
    5.0535    3.4004    1.2973 C   0  0  0  0  0  0  0  0  0  0  0  0
    3.8790    3.1538    2.0646 O   0  0  0  0  0  0  0  0  0  0  0  0
    4.1403    7.6825   -0.1138 C   0  0  1  0  0  0  0  0  0  0  0  0
    5.0458    7.0125    0.8357 O   0  0  0  0  0  0  0  0  0  0  0  0
    8.6682   -3.0546    1.9763 C   0  0  0  0  0  0  0  0  0  0  0  0
    8.7370   -4.3855    2.4271 O   0  0  0  0  0  0  0  0  0  0  0  0
    9.7174    2.8851    5.5020 C   0  0  1  0  0  0  0  0  0  0  0  0
    9.5655    4.3036    5.6044 O   0  0  0  0  0  0  0  0  0  0  0  0
    2.6860    7.0450   -0.0294 C   0  0  0  0  0  0  0  0  0  0  0  0
    2.0602    7.0493    1.3215 N   0  0  0  0  0  0  0  0  0  0  0  0
  1  2  1  1  0  0  0
  1  7  1  0  0  0  0
  1 30  1  0  0  0  0
  3  4  1  6  0  0  0
  3  9  1  0  0  0  0
  3 39  1  0  0  0  0
  5 10  1  0  0  0  0
  5 26  1  0  0  0  0
  5 32  1  6  0  0  0
  6 12  1  0  0  0  0
  6 36  1  0  0  0  0
  6 19  1  1  0  0  0
  7  8  1  1  0  0  0
  7 14  1  0  0  0  0
  9 16  1  0  0  0  0
 10 11  1  1  0  0  0
 10 18  1  0  0  0  0
 12 13  1  1  0  0  0
 12 20  1  0  0  0  0
 14 15  1  6  0  0  0
 14 22  1  0  0  0  0
 16 17  1  6  0  0  0
 16 24  1  0  0  0  0
 18 19  1  1  0  0  0
 18 25  1  0  0  0  0
 20 21  1  6  0  0  0
 20 27  1  0  0  0  0
 22 23  1  1  0  0  0
 22 29  1  0  0  0  0
 24  2  1  1  0  0  0
 24 31  1  0  0  0  0
 25 26  1  0  0  0  0
 25 33  1  6  0  0  0
 27 28  1  1  0  0  0
 27 35  1  0  0  0  0
 29 30  1  0  0  0  0
 29 37  1  6  0  0  0
 31 32  1  6  0  0  0
 31 39  1  0  0  0  0
 33 34  1  0  0  0  0
 35 36  1  0  0  0  0
 35 41  1  1  0  0  0
 37 38  1  0  0  0  0
 39 40  1  1  0  0  0
 41 42  1  0  0  0  0
M  END
>  <CHROM.1>
-173.51529792,-157.84561337,163.40751378,174.72983549,-173.92035313,-67.72679928
169.29991424,158.05408829,-63.30455187,6.82136742,3.03052053,2.82395358,1.26325596
0.64883554,2.99336448

>  <Name>
ligand

>  <RI>
0

>  <Rbt.Current_Directory>
/home/itssahil/PROJECTS/Mol_Feturizer/Test_systems_manuscript/rnas/2o3w

>  <Rbt.Executable>
rbdock ($Id: //depot/dev/client3/rdock/2013.1/src/exe/rbdock.cxx#4 $)

>  <Rbt.Library>
libRbt.so (2013.1, Build901 2013/11/27)

>  <Rbt.Parameter_File>
/export/apps/rDock/src/rDock_2013.1_src/data/scripts/dock_solv.prm

>  <Rbt.Receptor>
prm/pocket_docking_2.prm

>  <SCORE>
-6.12584

>  <SCORE.INTER>
4.59012

>  <SCORE.INTER.CONST>
1

>  <SCORE.INTER.POLAR>
0

>  <SCORE.INTER.ROT>
9

>  <SCORE.INTER.SOLV>
12.2732

>  <SCORE.INTER.VDW>
-10.631

>  <SCORE.INTER.norm>
0.109289

>  <SCORE.INTRA>
-10.717

>  <SCORE.INTRA.DIHEDRAL>
-20.9523

>  <SCORE.INTRA.DIHEDRAL.0>
27.8999

>  <SCORE.INTRA.POLAR>
0

>  <SCORE.INTRA.POLAR.0>
0

>  <SCORE.INTRA.REPUL>
0

>  <SCORE.INTRA.REPUL.0>
0

>  <SCORE.INTRA.SOLV>
-3.12045

>  <SCORE.INTRA.SOLV.lig_0>
-104.479

>  <SCORE.INTRA.VDW>
1.31936

>  <SCORE.INTRA.VDW.0>
-6.17816

>  <SCORE.INTRA.norm>
-0.255167

>  <SCORE.RESTR>
0.00104475

>  <SCORE.RESTR.CAVITY>
0.00104475

>  <SCORE.RESTR.norm>
2.4875e-05

>  <SCORE.SYSTEM>
0

>  <SCORE.SYSTEM.CONST>
0

>  <SCORE.SYSTEM.DIHEDRAL>
0

>  <SCORE.SYSTEM.SOLV>
0

>  <SCORE.SYSTEM.norm>
0

>  <SCORE.heavy>
42

>  <SCORE.norm>
-0.145853

>  <RMSD>
1.040

$$$$
ligand
 OpenBabel02271912133D
libRbt.so/2013.1/901 2013/11/27
 42 45  0  0  0  0  0  0  0  0999 V2000
    6.8390    0.0464    3.4680 C   0  0  2  0  0  0  0  0  0  0  0  0
    7.2593    0.0605    4.8429 O   0  0  0  0  0  0  0  0  0  0  0  0
   10.3926    2.1988    6.9420 C   0  0  2  0  0  0  0  0  0  0  0  0
   11.7179    2.7626    7.3371 N   0  0  0  0  0  0  0  0  0  0  0  0
    8.1708    3.5945    3.0339 C   0  0  1  0  0  0  0  0  0  0  0  0
    6.6023    6.9048    0.5321 C   0  0  1  0  0  0  0  0  0  0  0  0
    5.3742   -0.4844    3.4453 C   0  0  2  0  0  0  0  0  0  0  0  0
    4.5065    0.2139    4.4098 N   0  0  0  0  0  0  0  0  0  0  0  0
   10.3890    0.6200    7.0372 C   0  0  0  0  0  0  0  0  0  0  0  0
    8.2164    3.6147    1.4756 C   0  0  2  0  0  0  0  0  0  0  0  0
    9.5075    3.9790    0.9284 O   0  0  0  0  0  0  0  0  0  0  0  0
    7.0932    8.3971    0.5641 C   0  0  2  0  0  0  0  0  0  0  0  0
    7.4631    8.8073    1.9519 N   0  0  0  0  0  0  0  0  0  0  0  0
    5.2914   -1.9855    3.7782 C   0  0  1  0  0  0  0  0  0  0  0  0
    3.9378   -2.4368    3.7070 O   0  0  0  0  0  0  0  0  0  0  0  0
    8.9628    0.0875    6.6313 C   0  0  2  0  0  0  0  0  0  0  0  0
    8.9190   -1.3968    6.7237 N   0  0  0  0  0  0  0  0  0  0  0  0
    7.0678    4.5733    1.1573 C   0  0  2  0  0  0  0  0  0  0  0  0
    7.5299    5.9593    1.0789 O   0  0  0  0  0  0  0  0  0  0  0  0
    5.9453    9.3442   -0.0294 C   0  0  1  0  0  0  0  0  0  0  0  0
    5.8892    9.1682   -1.4628 O   0  0  0  0  0  0  0  0  0  0  0  0
    6.2023   -2.7785    2.8136 C   0  0  2  0  0  0  0  0  0  0  0  0
    6.1248   -4.1568    3.0945 O   0  0  0  0  0  0  0  0  0  0  0  0
    8.5974    0.5382    5.1619 C   0  0  2  0  0  0  0  0  0  0  0  0
    6.0386    4.3920    2.2857 C   0  0  2  0  0  0  0  0  0  0  0  0
    6.8486    4.0461    3.4066 O   0  0  0  0  0  0  0  0  0  0  0  0
    4.5039    9.0463    0.6041 C   0  0  2  0  0  0  0  0  0  0  0  0
    4.5355    9.4714    1.9659 O   0  0  0  0  0  0  0  0  0  0  0  0
    7.6734   -2.2655    2.9629 C   0  0  2  0  0  0  0  0  0  0  0  0
    7.7259   -0.8321    2.6759 O   0  0  0  0  0  0  0  0  0  0  0  0
    8.6359    2.0712    4.9786 C   0  0  2  0  0  0  0  0  0  0  0  0
    8.4620    2.2897    3.5515 O   0  0  0  0  0  0  0  0  0  0  0  0
    4.9546    3.3021    2.0188 C   0  0  0  0  0  0  0  0  0  0  0  0
    4.2395    3.6305    0.8315 O   0  0  0  0  0  0  0  0  0  0  0  0
    4.1667    7.5096    0.5202 C   0  0  1  0  0  0  0  0  0  0  0  0
    5.2578    6.8123    1.2227 O   0  0  0  0  0  0  0  0  0  0  0  0
    8.6360   -2.9853    2.0470 C   0  0  0  0  0  0  0  0  0  0  0  0
    8.7536   -4.3338    2.4303 O   0  0  0  0  0  0  0  0  0  0  0  0
   10.0294    2.6479    5.4699 C   0  0  1  0  0  0  0  0  0  0  0  0
   10.0090    4.0777    5.4421 O   0  0  0  0  0  0  0  0  0  0  0  0
    2.7638    7.1187    1.1586 C   0  0  0  0  0  0  0  0  0  0  0  0
    2.5859    7.4837    2.5909 N   0  0  0  0  0  0  0  0  0  0  0  0
  1  2  1  1  0  0  0
  1  7  1  0  0  0  0
  1 30  1  0  0  0  0
  3  4  1  6  0  0  0
  3  9  1  0  0  0  0
  3 39  1  0  0  0  0
  5 10  1  0  0  0  0
  5 26  1  0  0  0  0
  5 32  1  6  0  0  0
  6 12  1  0  0  0  0
  6 36  1  0  0  0  0
  6 19  1  1  0  0  0
  7  8  1  1  0  0  0
  7 14  1  0  0  0  0
  9 16  1  0  0  0  0
 10 11  1  1  0  0  0
 10 18  1  0  0  0  0
 12 13  1  1  0  0  0
 12 20  1  0  0  0  0
 14 15  1  6  0  0  0
 14 22  1  0  0  0  0
 16 17  1  6  0  0  0
 16 24  1  0  0  0  0
 18 19  1  1  0  0  0
 18 25  1  0  0  0  0
 20 21  1  6  0  0  0
 20 27  1  0  0  0  0
 22 23  1  1  0  0  0
 22 29  1  0  0  0  0
 24  2  1  1  0  0  0
 24 31  1  0  0  0  0
 25 26  1  0  0  0  0
 25 33  1  6  0  0  0
 27 28  1  1  0  0  0
 27 35  1  0  0  0  0
 29 30  1  0  0  0  0
 29 37  1  6  0  0  0
 31 32  1  6  0  0  0
 31 39  1  0  0  0  0
 33 34  1  0  0  0  0
 35 36  1  0  0  0  0
 35 41  1  1  0  0  0
 37 38  1  0  0  0  0
 39 40  1  1  0  0  0
 41 42  1  0  0  0  0
M  END
>  <CHROM.1>
-179.03499493,-164.36591341,168.16169748,175.62565084,-58.90108360,-66.73089917
167.05554305,172.44464821,-57.68547442,6.98469437,2.87035527,2.94590830,1.28358855
0.62378760,2.96016427

>  <Name>
ligand

>  <RI>
0

>  <Rbt.Current_Directory>
/home/itssahil/PROJECTS/Mol_Feturizer/Test_systems_manuscript/rnas/2o3w

>  <Rbt.Executable>
rbdock ($Id: //depot/dev/client3/rdock/2013.1/src/exe/rbdock.cxx#4 $)

>  <Rbt.Library>
libRbt.so (2013.1, Build901 2013/11/27)

>  <Rbt.Parameter_File>
/export/apps/rDock/src/rDock_2013.1_src/data/scripts/dock_solv.prm

>  <Rbt.Receptor>
prm/pocket_docking_2.prm

>  <SCORE>
-7.35363

>  <SCORE.INTER>
5.01087

>  <SCORE.INTER.CONST>
1

>  <SCORE.INTER.POLAR>
0

>  <SCORE.INTER.ROT>
9

>  <SCORE.INTER.SOLV>
15.567

>  <SCORE.INTER.VDW>
-11.4484

>  <SCORE.INTER.norm>
0.119306

>  <SCORE.INTRA>
-12.3645

>  <SCORE.INTRA.DIHEDRAL>
-24.6019

>  <SCORE.INTRA.DIHEDRAL.0>
27.8999

>  <SCORE.INTRA.POLAR>
0

>  <SCORE.INTRA.POLAR.0>
0

>  <SCORE.INTRA.REPUL>
0

>  <SCORE.INTRA.REPUL.0>
0

>  <SCORE.INTRA.SOLV>
-3.45971

>  <SCORE.INTRA.SOLV.lig_0>
-104.479

>  <SCORE.INTRA.VDW>
1.66633

>  <SCORE.INTRA.VDW.0>
-6.17816

>  <SCORE.INTRA.norm>
-0.294393

>  <SCORE.RESTR>
0

>  <SCORE.RESTR.CAVITY>
0

>  <SCORE.RESTR.norm>
0

>  <SCORE.SYSTEM>
0

>  <SCORE.SYSTEM.CONST>
0

>  <SCORE.SYSTEM.DIHEDRAL>
0

>  <SCORE.SYSTEM.SOLV>
0

>  <SCORE.SYSTEM.norm>
0

>  <SCORE.heavy>
42

>  <SCORE.norm>
-0.175086

>  <RMSD>
1.080

$$$$
ligand
 OpenBabel02271912133D
libRbt.so/2013.1/901 2013/11/27
 42 45  0  0  0  0  0  0  0  0999 V2000
    6.9430    0.0496    3.3253 C   0  0  2  0  0  0  0  0  0  0  0  0
    7.3462    0.0281    4.7053 O   0  0  0  0  0  0  0  0  0  0  0  0
   10.2881    2.3239    6.9122 C   0  0  2  0  0  0  0  0  0  0  0  0
   11.5658    2.9621    7.3488 N   0  0  0  0  0  0  0  0  0  0  0  0
    8.1493    3.6515    2.9612 C   0  0  1  0  0  0  0  0  0  0  0  0
    6.5981    6.9784    0.5047 C   0  0  1  0  0  0  0  0  0  0  0  0
    5.4522   -0.4016    3.2797 C   0  0  2  0  0  0  0  0  0  0  0  0
    4.6112    0.3332    4.2406 N   0  0  0  0  0  0  0  0  0  0  0  0
   10.3793    0.7466    6.9870 C   0  0  0  0  0  0  0  0  0  0  0  0
    8.2543    3.6920    1.4062 C   0  0  2  0  0  0  0  0  0  0  0  0
    9.5595    4.0834    0.9137 O   0  0  0  0  0  0  0  0  0  0  0  0
    7.0587    8.4777    0.5974 C   0  0  2  0  0  0  0  0  0  0  0  0
    7.4228    8.8381    2.0005 N   0  0  0  0  0  0  0  0  0  0  0  0
    5.2849   -1.8991    3.5965 C   0  0  1  0  0  0  0  0  0  0  0  0
    3.9101   -2.2764    3.5045 O   0  0  0  0  0  0  0  0  0  0  0  0
    8.9992    0.1337    6.5375 C   0  0  2  0  0  0  0  0  0  0  0  0
    9.0446   -1.3517    6.6097 N   0  0  0  0  0  0  0  0  0  0  0  0
    7.1035    4.6363    1.0552 C   0  0  2  0  0  0  0  0  0  0  0  0
    7.5458    6.0303    1.0113 O   0  0  0  0  0  0  0  0  0  0  0  0
    5.8907    9.4248    0.0446 C   0  0  1  0  0  0  0  0  0  0  0  0
    5.8354    9.3067   -1.3948 O   0  0  0  0  0  0  0  0  0  0  0  0
    6.1641   -2.7309    2.6350 C   0  0  2  0  0  0  0  0  0  0  0  0
    6.0094   -4.1056    2.9011 O   0  0  0  0  0  0  0  0  0  0  0  0
    8.6438    0.5822    5.0649 C   0  0  2  0  0  0  0  0  0  0  0  0
    6.0347    4.4248    2.1407 C   0  0  2  0  0  0  0  0  0  0  0  0
    6.8065    4.0776    3.2879 O   0  0  0  0  0  0  0  0  0  0  0  0
    4.4568    9.0719    0.6668 C   0  0  2  0  0  0  0  0  0  0  0  0
    4.4824    9.4413    2.0449 O   0  0  0  0  0  0  0  0  0  0  0  0
    7.6585   -2.2990    2.8071 C   0  0  2  0  0  0  0  0  0  0  0  0
    7.7914   -0.8679    2.5352 O   0  0  0  0  0  0  0  0  0  0  0  0
    8.5925    2.1172    4.9023 C   0  0  2  0  0  0  0  0  0  0  0  0
    8.4414    2.3451    3.4741 O   0  0  0  0  0  0  0  0  0  0  0  0
    4.9796    3.3213    1.8191 C   0  0  0  0  0  0  0  0  0  0  0  0
    5.6503    2.0959    1.5407 O   0  0  0  0  0  0  0  0  0  0  0  0
    4.1508    7.5334    0.5203 C   0  0  1  0  0  0  0  0  0  0  0  0
    5.2571    6.8302    1.1924 O   0  0  0  0  0  0  0  0  0  0  0  0
    8.5926   -3.0609    1.8957 C   0  0  0  0  0  0  0  0  0  0  0  0
    8.5964   -4.4259    2.2365 O   0  0  0  0  0  0  0  0  0  0  0  0
    9.9350    2.7710    5.4370 C   0  0  1  0  0  0  0  0  0  0  0  0
    9.8274    4.1972    5.4270 O   0  0  0  0  0  0  0  0  0  0  0  0
    2.7573    7.0881    1.1435 C   0  0  0  0  0  0  0  0  0  0  0  0
    2.5970    7.3382    2.6024 N   0  0  0  0  0  0  0  0  0  0  0  0
  1  2  1  1  0  0  0
  1  7  1  0  0  0  0
  1 30  1  0  0  0  0
  3  4  1  6  0  0  0
  3  9  1  0  0  0  0
  3 39  1  0  0  0  0
  5 10  1  0  0  0  0
  5 26  1  0  0  0  0
  5 32  1  6  0  0  0
  6 12  1  0  0  0  0
  6 36  1  0  0  0  0
  6 19  1  1  0  0  0
  7  8  1  1  0  0  0
  7 14  1  0  0  0  0
  9 16  1  0  0  0  0
 10 11  1  1  0  0  0
 10 18  1  0  0  0  0
 12 13  1  1  0  0  0
 12 20  1  0  0  0  0
 14 15  1  6  0  0  0
 14 22  1  0  0  0  0
 16 17  1  6  0  0  0
 16 24  1  0  0  0  0
 18 19  1  1  0  0  0
 18 25  1  0  0  0  0
 20 21  1  6  0  0  0
 20 27  1  0  0  0  0
 22 23  1  1  0  0  0
 22 29  1  0  0  0  0
 24  2  1  1  0  0  0
 24 31  1  0  0  0  0
 25 26  1  0  0  0  0
 25 33  1  6  0  0  0
 27 28  1  1  0  0  0
 27 35  1  0  0  0  0
 29 30  1  0  0  0  0
 29 37  1  6  0  0  0
 31 32  1  6  0  0  0
 31 39  1  0  0  0  0
 33 34  1  0  0  0  0
 35 36  1  0  0  0  0
 35 41  1  1  0  0  0
 37 38  1  0  0  0  0
 39 40  1  1  0  0  0
 41 42  1  0  0  0  0
M  END
>  <CHROM.1>
-171.64337306,-166.45701096,171.30153699,174.58533298,55.38308399,-64.63423596
170.20287209,171.09639868,-60.16421333,7.00807462,2.87466029,2.89167077,1.29040651
0.65936502,2.99048574

>  <Name>
ligand

>  <RI>
0

>  <Rbt.Current_Directory>
/home/itssahil/PROJECTS/Mol_Feturizer/Test_systems_manuscript/rnas/2o3w

>  <Rbt.Executable>
rbdock ($Id: //depot/dev/client3/rdock/2013.1/src/exe/rbdock.cxx#4 $)

>  <Rbt.Library>
libRbt.so (2013.1, Build901 2013/11/27)

>  <Rbt.Parameter_File>
/export/apps/rDock/src/rDock_2013.1_src/data/scripts/dock_solv.prm

>  <Rbt.Receptor>
prm/pocket_docking_2.prm

>  <SCORE>
-7.24807

>  <SCORE.INTER>
4.50127

>  <SCORE.INTER.CONST>
1

>  <SCORE.INTER.POLAR>
0

>  <SCORE.INTER.ROT>
9

>  <SCORE.INTER.SOLV>
14.0891

>  <SCORE.INTER.VDW>
-11.2955

>  <SCORE.INTER.norm>
0.107173

>  <SCORE.INTRA>
-11.7561

>  <SCORE.INTRA.DIHEDRAL>
-25.0414

>  <SCORE.INTRA.DIHEDRAL.0>
27.8999

>  <SCORE.INTRA.POLAR>
0

>  <SCORE.INTRA.POLAR.0>
0

>  <SCORE.INTRA.REPUL>
0

>  <SCORE.INTRA.REPUL.0>
0

>  <SCORE.INTRA.SOLV>
-2.07525

>  <SCORE.INTRA.SOLV.lig_0>
-104.479

>  <SCORE.INTRA.VDW>
1.80221

>  <SCORE.INTRA.VDW.0>
-6.17816

>  <SCORE.INTRA.norm>
-0.279907

>  <SCORE.RESTR>
0.0067481

>  <SCORE.RESTR.CAVITY>
0.0067481

>  <SCORE.RESTR.norm>
0.000160669

>  <SCORE.SYSTEM>
0

>  <SCORE.SYSTEM.CONST>
0

>  <SCORE.SYSTEM.DIHEDRAL>
0

>  <SCORE.SYSTEM.SOLV>
0

>  <SCORE.SYSTEM.norm>
0

>  <SCORE.heavy>
42

>  <SCORE.norm>
-0.172573

>  <RMSD>
1.084

$$$$
ligand
 OpenBabel02271912133D
libRbt.so/2013.1/901 2013/11/27
 42 45  0  0  0  0  0  0  0  0999 V2000
    7.0741   -0.4492    3.3871 C   0  0  2  0  0  0  0  0  0  0  0  0
    7.3341   -0.1412    4.7672 O   0  0  0  0  0  0  0  0  0  0  0  0
   10.2247    2.2192    6.9738 C   0  0  2  0  0  0  0  0  0  0  0  0
   11.4873    2.8878    7.4087 N   0  0  0  0  0  0  0  0  0  0  0  0
    8.1107    3.5231    3.0308 C   0  0  1  0  0  0  0  0  0  0  0  0
    6.7078    6.8896    0.5316 C   0  0  1  0  0  0  0  0  0  0  0  0
    5.5798   -0.8801    3.2907 C   0  0  2  0  0  0  0  0  0  0  0  0
    4.6737    0.0751    3.9519 N   0  0  0  0  0  0  0  0  0  0  0  0
   10.3565    0.6444    7.0412 C   0  0  0  0  0  0  0  0  0  0  0  0
    8.2778    3.5757    1.4815 C   0  0  2  0  0  0  0  0  0  0  0  0
    9.6064    3.9538    1.0445 O   0  0  0  0  0  0  0  0  0  0  0  0
    7.2171    8.3750    0.5859 C   0  0  2  0  0  0  0  0  0  0  0  0
    7.5735    8.7660    1.9826 N   0  0  0  0  0  0  0  0  0  0  0  0
    5.3252   -2.2546    3.9365 C   0  0  1  0  0  0  0  0  0  0  0  0
    3.9536   -2.6265    3.7902 O   0  0  0  0  0  0  0  0  0  0  0  0
    8.9908   -0.0016    6.5939 C   0  0  2  0  0  0  0  0  0  0  0  0
    9.0744   -1.4856    6.6592 N   0  0  0  0  0  0  0  0  0  0  0  0
    7.1542    4.5384    1.0942 C   0  0  2  0  0  0  0  0  0  0  0  0
    7.6161    5.9267    1.0806 O   0  0  0  0  0  0  0  0  0  0  0  0
    6.0892    9.3428   -0.0126 C   0  0  1  0  0  0  0  0  0  0  0  0
    6.0499    9.1826   -1.4484 O   0  0  0  0  0  0  0  0  0  0  0  0
    6.2655   -3.3045    3.3020 C   0  0  2  0  0  0  0  0  0  0  0  0
    6.0331   -4.5721    3.8709 O   0  0  0  0  0  0  0  0  0  0  0  0
    8.6186    0.4442    5.1247 C   0  0  2  0  0  0  0  0  0  0  0  0
    6.0406    4.3318    2.1346 C   0  0  2  0  0  0  0  0  0  0  0  0
    6.7618    3.9643    3.3082 O   0  0  0  0  0  0  0  0  0  0  0  0
    4.6359    9.0568    0.5986 C   0  0  2  0  0  0  0  0  0  0  0  0
    4.6547    9.4673    1.9652 O   0  0  0  0  0  0  0  0  0  0  0  0
    7.7499   -2.8617    3.5255 C   0  0  2  0  0  0  0  0  0  0  0  0
    7.9633   -1.5405    2.9351 O   0  0  0  0  0  0  0  0  0  0  0  0
    8.5275    1.9781    4.9693 C   0  0  2  0  0  0  0  0  0  0  0  0
    8.3652    2.2085    3.5427 O   0  0  0  0  0  0  0  0  0  0  0  0
    4.9847    3.2455    1.7615 C   0  0  0  0  0  0  0  0  0  0  0  0
    5.6380    1.9901    1.6006 O   0  0  0  0  0  0  0  0  0  0  0  0
    4.2804    7.5255    0.4940 C   0  0  1  0  0  0  0  0  0  0  0  0
    5.3532    6.8071    1.2034 O   0  0  0  0  0  0  0  0  0  0  0  0
    8.7424   -3.8324    2.9285 C   0  0  0  0  0  0  0  0  0  0  0  0
    8.5363   -3.9449    1.5414 O   0  0  0  0  0  0  0  0  0  0  0  0
    9.8548    2.6636    5.5020 C   0  0  1  0  0  0  0  0  0  0  0  0
    9.7108    4.0866    5.4989 O   0  0  0  0  0  0  0  0  0  0  0  0
    2.8643    7.1459    1.1097 C   0  0  0  0  0  0  0  0  0  0  0  0
    2.7041    7.4140    2.5654 N   0  0  0  0  0  0  0  0  0  0  0  0
  1  2  1  1  0  0  0
  1  7  1  0  0  0  0
  1 30  1  0  0  0  0
  3  4  1  6  0  0  0
  3  9  1  0  0  0  0
  3 39  1  0  0  0  0
  5 10  1  0  0  0  0
  5 26  1  0  0  0  0
  5 32  1  6  0  0  0
  6 12  1  0  0  0  0
  6 36  1  0  0  0  0
  6 19  1  1  0  0  0
  7  8  1  1  0  0  0
  7 14  1  0  0  0  0
  9 16  1  0  0  0  0
 10 11  1  1  0  0  0
 10 18  1  0  0  0  0
 12 13  1  1  0  0  0
 12 20  1  0  0  0  0
 14 15  1  6  0  0  0
 14 22  1  0  0  0  0
 16 17  1  6  0  0  0
 16 24  1  0  0  0  0
 18 19  1  1  0  0  0
 18 25  1  0  0  0  0
 20 21  1  6  0  0  0
 20 27  1  0  0  0  0
 22 23  1  1  0  0  0
 22 29  1  0  0  0  0
 24  2  1  1  0  0  0
 24 31  1  0  0  0  0
 25 26  1  0  0  0  0
 25 33  1  6  0  0  0
 27 28  1  1  0  0  0
 27 35  1  0  0  0  0
 29 30  1  0  0  0  0
 29 37  1  6  0  0  0
 31 32  1  6  0  0  0
 31 39  1  0  0  0  0
 33 34  1  0  0  0  0
 35 36  1  0  0  0  0
 35 41  1  1  0  0  0
 37 38  1  0  0  0  0
 39 40  1  1  0  0  0
 41 42  1  0  0  0  0
M  END
>  <CHROM.1>
-172.80601895,-150.14362476,170.60601604,177.73758425,59.87894922,59.86710821
173.67336135,167.79018016,-61.64140777,7.05714552,2.70600714,2.99174467,1.32533664
0.65091514,2.95476156

>  <Name>
ligand

>  <RI>
0

>  <Rbt.Current_Directory>
/home/itssahil/PROJECTS/Mol_Feturizer/Test_systems_manuscript/rnas/2o3w

>  <Rbt.Executable>
rbdock ($Id: //depot/dev/client3/rdock/2013.1/src/exe/rbdock.cxx#4 $)

>  <Rbt.Library>
libRbt.so (2013.1, Build901 2013/11/27)

>  <Rbt.Parameter_File>
/export/apps/rDock/src/rDock_2013.1_src/data/scripts/dock_solv.prm

>  <Rbt.Receptor>
prm/pocket_docking_2.prm

>  <SCORE>
-5.69514

>  <SCORE.INTER>
5.11479

>  <SCORE.INTER.CONST>
1

>  <SCORE.INTER.POLAR>
0

>  <SCORE.INTER.ROT>
9

>  <SCORE.INTER.SOLV>
13.3526

>  <SCORE.INTER.VDW>
-10.641

>  <SCORE.INTER.norm>
0.121781

>  <SCORE.INTRA>
-10.8099

>  <SCORE.INTRA.DIHEDRAL>
-22.5937

>  <SCORE.INTRA.DIHEDRAL.0>
27.8999

>  <SCORE.INTRA.POLAR>
0

>  <SCORE.INTRA.POLAR.0>
0

>  <SCORE.INTRA.REPUL>
0

>  <SCORE.INTRA.REPUL.0>
0

>  <SCORE.INTRA.SOLV>
-1.35162

>  <SCORE.INTRA.SOLV.lig_0>
-104.479

>  <SCORE.INTRA.VDW>
1.16271

>  <SCORE.INTRA.VDW.0>
-6.17816

>  <SCORE.INTRA.norm>
-0.257379

>  <SCORE.RESTR>
0

>  <SCORE.RESTR.CAVITY>
0

>  <SCORE.RESTR.norm>
0

>  <SCORE.SYSTEM>
0

>  <SCORE.SYSTEM.CONST>
0

>  <SCORE.SYSTEM.DIHEDRAL>
0

>  <SCORE.SYSTEM.SOLV>
0

>  <SCORE.SYSTEM.norm>
0

>  <SCORE.heavy>
42

>  <SCORE.norm>
-0.135599

>  <RMSD>
1.086

$$$$
ligand
 OpenBabel02271912133D
libRbt.so/2013.1/901 2013/11/27
 42 45  0  0  0  0  0  0  0  0999 V2000
    6.8589   -0.0430    3.3594 C   0  0  2  0  0  0  0  0  0  0  0  0
    7.2966   -0.0798    4.7284 O   0  0  0  0  0  0  0  0  0  0  0  0
   10.3426    2.1386    6.8725 C   0  0  2  0  0  0  0  0  0  0  0  0
   11.6442    2.7474    7.2793 N   0  0  0  0  0  0  0  0  0  0  0  0
    8.1065    3.5373    2.9928 C   0  0  1  0  0  0  0  0  0  0  0  0
    6.5392    6.8850    0.5424 C   0  0  1  0  0  0  0  0  0  0  0  0
    5.3521   -0.4399    3.3526 C   0  0  2  0  0  0  0  0  0  0  0  0
    4.5634    0.3242    4.3347 N   0  0  0  0  0  0  0  0  0  0  0  0
   10.4039    0.5592    6.9329 C   0  0  0  0  0  0  0  0  0  0  0  0
    8.1804    3.5940    1.4365 C   0  0  2  0  0  0  0  0  0  0  0  0
    9.4765    3.9873    0.9220 O   0  0  0  0  0  0  0  0  0  0  0  0
    7.0123    8.3816    0.6135 C   0  0  2  0  0  0  0  0  0  0  0  0
    7.3593    8.7654    2.0147 N   0  0  0  0  0  0  0  0  0  0  0  0
    5.1390   -1.9306    3.6742 C   0  0  1  0  0  0  0  0  0  0  0  0
    3.7496   -2.2579    3.6181 O   0  0  0  0  0  0  0  0  0  0  0  0
    9.0000   -0.0222    6.5162 C   0  0  2  0  0  0  0  0  0  0  0  0
    9.0173   -1.5088    6.5759 N   0  0  0  0  0  0  0  0  0  0  0  0
    7.0255    4.5451    1.1188 C   0  0  2  0  0  0  0  0  0  0  0  0
    7.4707    5.9383    1.0808 O   0  0  0  0  0  0  0  0  0  0  0  0
    5.8612    9.3285    0.0258 C   0  0  1  0  0  0  0  0  0  0  0  0
    5.8257    9.1834   -1.4118 O   0  0  0  0  0  0  0  0  0  0  0  0
    5.9623   -2.7931    2.6906 C   0  0  2  0  0  0  0  0  0  0  0  0
    5.7649   -4.1614    2.9612 O   0  0  0  0  0  0  0  0  0  0  0  0
    8.6145    0.4452    5.0572 C   0  0  2  0  0  0  0  0  0  0  0  0
    5.9781    4.3247    2.2232 C   0  0  2  0  0  0  0  0  0  0  0  0
    6.7718    3.9633    3.3510 O   0  0  0  0  0  0  0  0  0  0  0  0
    4.4153    9.0004    0.6334 C   0  0  2  0  0  0  0  0  0  0  0  0
    4.4243    9.3958    2.0045 O   0  0  0  0  0  0  0  0  0  0  0  0
    7.4753   -2.4157    2.8238 C   0  0  2  0  0  0  0  0  0  0  0  0
    7.6528   -0.9901    2.5479 O   0  0  0  0  0  0  0  0  0  0  0  0
    8.5899    1.9822    4.9076 C   0  0  2  0  0  0  0  0  0  0  0  0
    8.4052    2.2247    3.4858 O   0  0  0  0  0  0  0  0  0  0  0  0
    4.9136    3.2275    1.9113 C   0  0  0  0  0  0  0  0  0  0  0  0
    4.1501    3.6222    0.7754 O   0  0  0  0  0  0  0  0  0  0  0  0
    4.0972    7.4622    0.5116 C   0  0  1  0  0  0  0  0  0  0  0  0
    5.1871    6.7621    1.2131 O   0  0  0  0  0  0  0  0  0  0  0  0
    8.3573   -3.2103    1.8887 C   0  0  0  0  0  0  0  0  0  0  0  0
    8.3742   -4.5640    2.2714 O   0  0  0  0  0  0  0  0  0  0  0  0
    9.9592    2.6046    5.4108 C   0  0  1  0  0  0  0  0  0  0  0  0
    9.8802    4.0327    5.4145 O   0  0  0  0  0  0  0  0  0  0  0  0
    2.6907    7.0413    1.1227 C   0  0  0  0  0  0  0  0  0  0  0  0
    2.5308    7.2721    2.5848 N   0  0  0  0  0  0  0  0  0  0  0  0
  1  2  1  1  0  0  0
  1  7  1  0  0  0  0
  1 30  1  0  0  0  0
  3  4  1  6  0  0  0
  3  9  1  0  0  0  0
  3 39  1  0  0  0  0
  5 10  1  0  0  0  0
  5 26  1  0  0  0  0
  5 32  1  6  0  0  0
  6 12  1  0  0  0  0
  6 36  1  0  0  0  0
  6 19  1  1  0  0  0
  7  8  1  1  0  0  0
  7 14  1  0  0  0  0
  9 16  1  0  0  0  0
 10 11  1  1  0  0  0
 10 18  1  0  0  0  0
 12 13  1  1  0  0  0
 12 20  1  0  0  0  0
 14 15  1  6  0  0  0
 14 22  1  0  0  0  0
 16 17  1  6  0  0  0
 16 24  1  0  0  0  0
 18 19  1  1  0  0  0
 18 25  1  0  0  0  0
 20 21  1  6  0  0  0
 20 27  1  0  0  0  0
 22 23  1  1  0  0  0
 22 29  1  0  0  0  0
 24  2  1  1  0  0  0
 24 31  1  0  0  0  0
 25 26  1  0  0  0  0
 25 33  1  6  0  0  0
 27 28  1  1  0  0  0
 27 35  1  0  0  0  0
 29 30  1  0  0  0  0
 29 37  1  6  0  0  0
 31 32  1  6  0  0  0
 31 39  1  0  0  0  0
 33 34  1  0  0  0  0
 35 36  1  0  0  0  0
 35 41  1  1  0  0  0
 37 38  1  0  0  0  0
 39 40  1  1  0  0  0
 41 42  1  0  0  0  0
M  END
>  <CHROM.1>
-170.73163797,-166.25873460,168.35939505,175.81562386,-63.14242819,-67.61659779
169.27763776,170.83498432,-62.43610711,6.90160598,2.81665935,2.88845553,1.28967090
0.62303909,2.97138363

>  <Name>
ligand

>  <RI>
0

>  <Rbt.Current_Directory>
/home/itssahil/PROJECTS/Mol_Feturizer/Test_systems_manuscript/rnas/2o3w

>  <Rbt.Executable>
rbdock ($Id: //depot/dev/client3/rdock/2013.1/src/exe/rbdock.cxx#4 $)

>  <Rbt.Library>
libRbt.so (2013.1, Build901 2013/11/27)

>  <Rbt.Parameter_File>
/export/apps/rDock/src/rDock_2013.1_src/data/scripts/dock_solv.prm

>  <Rbt.Receptor>
prm/pocket_docking_2.prm

>  <SCORE>
-7.54491

>  <SCORE.INTER>
4.70487

>  <SCORE.INTER.CONST>
1

>  <SCORE.INTER.POLAR>
0

>  <SCORE.INTER.ROT>
9

>  <SCORE.INTER.SOLV>
13.9737

>  <SCORE.INTER.VDW>
-11.1213

>  <SCORE.INTER.norm>
0.112021

>  <SCORE.INTRA>
-12.2631

>  <SCORE.INTRA.DIHEDRAL>
-24.4993

>  <SCORE.INTRA.DIHEDRAL.0>
27.8999

>  <SCORE.INTRA.POLAR>
0

>  <SCORE.INTRA.POLAR.0>
0

>  <SCORE.INTRA.REPUL>
0

>  <SCORE.INTRA.REPUL.0>
0

>  <SCORE.INTRA.SOLV>
-3.34656

>  <SCORE.INTRA.SOLV.lig_0>
-104.479

>  <SCORE.INTRA.VDW>
1.65979

>  <SCORE.INTRA.VDW.0>
-6.17816

>  <SCORE.INTRA.norm>
-0.291979

>  <SCORE.RESTR>
0.0133294

>  <SCORE.RESTR.CAVITY>
0.0133294

>  <SCORE.RESTR.norm>
0.000317366

>  <SCORE.SYSTEM>
0

>  <SCORE.SYSTEM.CONST>
0

>  <SCORE.SYSTEM.DIHEDRAL>
0

>  <SCORE.SYSTEM.SOLV>
0

>  <SCORE.SYSTEM.norm>
0

>  <SCORE.heavy>
42

>  <SCORE.norm>
-0.179641

>  <RMSD>
1.106

$$$$
ligand
 OpenBabel02271912133D
libRbt.so/2013.1/901 2013/11/27
 42 45  0  0  0  0  0  0  0  0999 V2000
    6.9175   -0.0221    3.4039 C   0  0  2  0  0  0  0  0  0  0  0  0
    7.3885   -0.0545    4.7620 O   0  0  0  0  0  0  0  0  0  0  0  0
   10.6915    1.8761    6.8014 C   0  0  2  0  0  0  0  0  0  0  0  0
   12.0538    2.3728    7.1587 N   0  0  0  0  0  0  0  0  0  0  0  0
    8.3430    3.5119    3.0574 C   0  0  1  0  0  0  0  0  0  0  0  0
    6.7467    6.9769    0.8567 C   0  0  1  0  0  0  0  0  0  0  0  0
    5.4215   -0.4572    3.4306 C   0  0  2  0  0  0  0  0  0  0  0  0
    4.6372    0.2818    4.4353 N   0  0  0  0  0  0  0  0  0  0  0  0
   10.6299    0.2959    6.8340 C   0  0  0  0  0  0  0  0  0  0  0  0
    8.3524    3.6036    1.5010 C   0  0  2  0  0  0  0  0  0  0  0  0
    9.6371    3.9693    0.9400 O   0  0  0  0  0  0  0  0  0  0  0  0
    7.3236    8.4363    0.7790 C   0  0  2  0  0  0  0  0  0  0  0  0
    7.9728    8.8226    2.0675 N   0  0  0  0  0  0  0  0  0  0  0  0
    5.2539   -1.9544    3.7489 C   0  0  1  0  0  0  0  0  0  0  0  0
    3.8723   -2.3167    3.7238 O   0  0  0  0  0  0  0  0  0  0  0  0
    9.1675   -0.1654    6.4718 C   0  0  2  0  0  0  0  0  0  0  0  0
    9.0694   -1.6496    6.5073 N   0  0  0  0  0  0  0  0  0  0  0  0
    7.2155    4.5968    1.2552 C   0  0  2  0  0  0  0  0  0  0  0  0
    7.7024    5.9763    1.2294 O   0  0  0  0  0  0  0  0  0  0  0  0
    6.1433    9.4521    0.4021 C   0  0  1  0  0  0  0  0  0  0  0  0
    5.8071    9.2805   -0.9931 O   0  0  0  0  0  0  0  0  0  0  0  0
    6.0752   -2.7908    2.7414 C   0  0  2  0  0  0  0  0  0  0  0  0
    5.9190   -4.1650    3.0090 O   0  0  0  0  0  0  0  0  0  0  0  0
    8.7569    0.3590    5.0393 C   0  0  2  0  0  0  0  0  0  0  0  0
    6.2096    4.3821    2.3987 C   0  0  2  0  0  0  0  0  0  0  0  0
    7.0389    3.9698    3.4825 O   0  0  0  0  0  0  0  0  0  0  0  0
    4.8322    9.2426    1.2991 C   0  0  2  0  0  0  0  0  0  0  0  0
    5.1459    9.6644    2.6258 O   0  0  0  0  0  0  0  0  0  0  0  0
    7.5809   -2.3756    2.8408 C   0  0  2  0  0  0  0  0  0  0  0  0
    7.7157   -0.9447    2.5687 O   0  0  0  0  0  0  0  0  0  0  0  0
    8.8478    1.8957    4.9153 C   0  0  2  0  0  0  0  0  0  0  0  0
    8.6209    2.1794    3.5073 O   0  0  0  0  0  0  0  0  0  0  0  0
    5.0988    3.3257    2.1084 C   0  0  0  0  0  0  0  0  0  0  0  0
    5.7077    2.0920    1.7396 O   0  0  0  0  0  0  0  0  0  0  0  0
    4.3935    7.7294    1.2974 C   0  0  1  0  0  0  0  0  0  0  0  0
    5.5538    6.9665    1.7894 O   0  0  0  0  0  0  0  0  0  0  0  0
    8.4603   -3.1430    1.8808 C   0  0  0  0  0  0  0  0  0  0  0  0
    8.4905   -4.5046    2.2335 O   0  0  0  0  0  0  0  0  0  0  0  0
   10.2828    2.3989    5.3661 C   0  0  1  0  0  0  0  0  0  0  0  0
   10.3176    3.8284    5.3959 O   0  0  0  0  0  0  0  0  0  0  0  0
    3.1154    7.4247    2.1931 C   0  0  0  0  0  0  0  0  0  0  0  0
    2.5384    6.0602    2.0456 N   0  0  0  0  0  0  0  0  0  0  0  0
  1  2  1  1  0  0  0
  1  7  1  0  0  0  0
  1 30  1  0  0  0  0
  3  4  1  6  0  0  0
  3  9  1  0  0  0  0
  3 39  1  0  0  0  0
  5 10  1  0  0  0  0
  5 26  1  0  0  0  0
  5 32  1  6  0  0  0
  6 12  1  0  0  0  0
  6 36  1  0  0  0  0
  6 19  1  1  0  0  0
  7  8  1  1  0  0  0
  7 14  1  0  0  0  0
  9 16  1  0  0  0  0
 10 11  1  1  0  0  0
 10 18  1  0  0  0  0
 12 13  1  1  0  0  0
 12 20  1  0  0  0  0
 14 15  1  6  0  0  0
 14 22  1  0  0  0  0
 16 17  1  6  0  0  0
 16 24  1  0  0  0  0
 18 19  1  1  0  0  0
 18 25  1  0  0  0  0
 20 21  1  6  0  0  0
 20 27  1  0  0  0  0
 22 23  1  1  0  0  0
 22 29  1  0  0  0  0
 24  2  1  1  0  0  0
 24 31  1  0  0  0  0
 25 26  1  0  0  0  0
 25 33  1  6  0  0  0
 27 28  1  1  0  0  0
 27 35  1  0  0  0  0
 29 30  1  0  0  0  0
 29 37  1  6  0  0  0
 31 32  1  6  0  0  0
 31 39  1  0  0  0  0
 33 34  1  0  0  0  0
 35 36  1  0  0  0  0
 35 41  1  1  0  0  0
 37 38  1  0  0  0  0
 39 40  1  1  0  0  0
 41 42  1  0  0  0  0
M  END
>  <CHROM.1>
-177.73369983,-163.09622289,173.22103925,-177.41598383,55.02324969,-65.97250843
166.28543877,171.32863891,170.47070255,7.15908633,2.75576213,3.04588240,1.34309797
0.55997467,2.97586676

>  <Name>
ligand

>  <RI>
0

>  <Rbt.Current_Directory>
/home/itssahil/PROJECTS/Mol_Feturizer/Test_systems_manuscript/rnas/2o3w

>  <Rbt.Executable>
rbdock ($Id: //depot/dev/client3/rdock/2013.1/src/exe/rbdock.cxx#4 $)

>  <Rbt.Library>
libRbt.so (2013.1, Build901 2013/11/27)

>  <Rbt.Parameter_File>
/export/apps/rDock/src/rDock_2013.1_src/data/scripts/dock_solv.prm

>  <Rbt.Receptor>
prm/pocket_docking_2.prm

>  <SCORE>
-9.01762

>  <SCORE.INTER>
3.08532

>  <SCORE.INTER.CONST>
1

>  <SCORE.INTER.POLAR>
0

>  <SCORE.INTER.ROT>
9

>  <SCORE.INTER.SOLV>
13.997

>  <SCORE.INTER.VDW>
-12.2088

>  <SCORE.INTER.norm>
0.07346

>  <SCORE.INTRA>
-12.1265

>  <SCORE.INTRA.DIHEDRAL>
-24.3707

>  <SCORE.INTRA.DIHEDRAL.0>
27.8999

>  <SCORE.INTRA.POLAR>
0

>  <SCORE.INTRA.POLAR.0>
0

>  <SCORE.INTRA.REPUL>
0

>  <SCORE.INTRA.REPUL.0>
0

>  <SCORE.INTRA.SOLV>
-2.77808

>  <SCORE.INTRA.SOLV.lig_0>
-104.479

>  <SCORE.INTRA.VDW>
1.44789

>  <SCORE.INTRA.VDW.0>
-6.17816

>  <SCORE.INTRA.norm>
-0.288726

>  <SCORE.RESTR>
0.0235694

>  <SCORE.RESTR.CAVITY>
0.0235694

>  <SCORE.RESTR.norm>
0.000561177

>  <SCORE.SYSTEM>
0

>  <SCORE.SYSTEM.CONST>
0

>  <SCORE.SYSTEM.DIHEDRAL>
0

>  <SCORE.SYSTEM.SOLV>
0

>  <SCORE.SYSTEM.norm>
0

>  <SCORE.heavy>
42

>  <SCORE.norm>
-0.214705

>  <RMSD>
1.106

$$$$
ligand
 OpenBabel02271912133D
libRbt.so/2013.1/901 2013/11/27
 42 45  0  0  0  0  0  0  0  0999 V2000
    7.1043   -0.2422    3.2862 C   0  0  2  0  0  0  0  0  0  0  0  0
    7.4744   -0.2229    4.6754 O   0  0  0  0  0  0  0  0  0  0  0  0
   10.4834    1.9141    6.9503 C   0  0  2  0  0  0  0  0  0  0  0  0
   11.7776    2.5084    7.4001 N   0  0  0  0  0  0  0  0  0  0  0  0
    8.3184    3.4639    3.0944 C   0  0  1  0  0  0  0  0  0  0  0  0
    6.7154    6.9349    0.9105 C   0  0  1  0  0  0  0  0  0  0  0  0
    5.6254   -0.7281    3.2159 C   0  0  2  0  0  0  0  0  0  0  0  0
    4.7453    0.0091    4.1393 N   0  0  0  0  0  0  0  0  0  0  0  0
   10.5471    0.3337    6.9495 C   0  0  0  0  0  0  0  0  0  0  0  0
    8.3200    3.5577    1.5381 C   0  0  2  0  0  0  0  0  0  0  0  0
    9.6024    3.9220    0.9710 O   0  0  0  0  0  0  0  0  0  0  0  0
    7.3009    8.3889    0.8011 C   0  0  2  0  0  0  0  0  0  0  0  0
    7.9832    8.7860    2.0690 N   0  0  0  0  0  0  0  0  0  0  0  0
    5.4839   -2.2214    3.5637 C   0  0  1  0  0  0  0  0  0  0  0  0
    4.1204   -2.6319    3.4480 O   0  0  0  0  0  0  0  0  0  0  0  0
    9.1509   -0.2331    6.4893 C   0  0  2  0  0  0  0  0  0  0  0  0
    9.1703   -1.7208    6.4909 N   0  0  0  0  0  0  0  0  0  0  0  0
    7.1835    4.5530    1.2993 C   0  0  2  0  0  0  0  0  0  0  0  0
    7.6725    5.9318    1.2729 O   0  0  0  0  0  0  0  0  0  0  0  0
    6.1194    9.4088    0.4396 C   0  0  1  0  0  0  0  0  0  0  0  0
    5.7489    9.2227   -0.9450 O   0  0  0  0  0  0  0  0  0  0  0  0
    6.4042   -3.0547    2.6430 C   0  0  2  0  0  0  0  0  0  0  0  0
    6.2737   -4.4261    2.9374 O   0  0  0  0  0  0  0  0  0  0  0  0
    8.7860    0.2908    5.0442 C   0  0  2  0  0  0  0  0  0  0  0  0
    6.1831    4.3385    2.4477 C   0  0  2  0  0  0  0  0  0  0  0  0
    7.0172    3.9234    3.5267 O   0  0  0  0  0  0  0  0  0  0  0  0
    4.8284    9.2201    1.3698 C   0  0  2  0  0  0  0  0  0  0  0  0
    5.1765    9.6558    2.6834 O   0  0  0  0  0  0  0  0  0  0  0  0
    7.8841   -2.5850    2.8402 C   0  0  2  0  0  0  0  0  0  0  0  0
    7.9917   -1.1578    2.5381 O   0  0  0  0  0  0  0  0  0  0  0  0
    8.7605    1.8324    4.9548 C   0  0  2  0  0  0  0  0  0  0  0  0
    8.5964    2.1304    3.5410 O   0  0  0  0  0  0  0  0  0  0  0  0
    5.0691    3.2843    2.1617 C   0  0  0  0  0  0  0  0  0  0  0  0
    4.3243    3.6859    1.0159 O   0  0  0  0  0  0  0  0  0  0  0  0
    4.3789    7.7104    1.3973 C   0  0  1  0  0  0  0  0  0  0  0  0
    5.5449    6.9448    1.8711 O   0  0  0  0  0  0  0  0  0  0  0  0
    8.8567   -3.3461    1.9692 C   0  0  0  0  0  0  0  0  0  0  0  0
    8.9444   -4.6841    2.3949 O   0  0  0  0  0  0  0  0  0  0  0  0
   10.1209    2.4367    5.5025 C   0  0  1  0  0  0  0  0  0  0  0  0
   10.0389    3.8634    5.5611 O   0  0  0  0  0  0  0  0  0  0  0  0
    3.1203    7.4262    2.3266 C   0  0  0  0  0  0  0  0  0  0  0  0
    1.8517    8.0837    1.9084 N   0  0  0  0  0  0  0  0  0  0  0  0
  1  2  1  1  0  0  0
  1  7  1  0  0  0  0
  1 30  1  0  0  0  0
  3  4  1  6  0  0  0
  3  9  1  0  0  0  0
  3 39  1  0  0  0  0
  5 10  1  0  0  0  0
  5 26  1  0  0  0  0
  5 32  1  6  0  0  0
  6 12  1  0  0  0  0
  6 36  1  0  0  0  0
  6 19  1  1  0  0  0
  7  8  1  1  0  0  0
  7 14  1  0  0  0  0
  9 16  1  0  0  0  0
 10 11  1  1  0  0  0
 10 18  1  0  0  0  0
 12 13  1  1  0  0  0
 12 20  1  0  0  0  0
 14 15  1  6  0  0  0
 14 22  1  0  0  0  0
 16 17  1  6  0  0  0
 16 24  1  0  0  0  0
 18 19  1  1  0  0  0
 18 25  1  0  0  0  0
 20 21  1  6  0  0  0
 20 27  1  0  0  0  0
 22 23  1  1  0  0  0
 22 29  1  0  0  0  0
 24  2  1  1  0  0  0
 24 31  1  0  0  0  0
 25 26  1  0  0  0  0
 25 33  1  6  0  0  0
 27 28  1  1  0  0  0
 27 35  1  0  0  0  0
 29 30  1  0  0  0  0
 29 37  1  6  0  0  0
 31 32  1  6  0  0  0
 31 39  1  0  0  0  0
 33 34  1  0  0  0  0
 35 36  1  0  0  0  0
 35 41  1  1  0  0  0
 37 38  1  0  0  0  0
 39 40  1  1  0  0  0
 41 42  1  0  0  0  0
M  END
>  <CHROM.1>
-175.50875228,-160.79505737,173.41080824,-176.14973300,-59.12890693,-68.25771968
170.04256017,174.58870641,64.04114327,7.15097086,2.76117293,3.04020534,1.29169611
0.60360200,3.02949366

>  <Name>
ligand

>  <RI>
0

>  <Rbt.Current_Directory>
/home/itssahil/PROJECTS/Mol_Feturizer/Test_systems_manuscript/rnas/2o3w

>  <Rbt.Executable>
rbdock ($Id: //depot/dev/client3/rdock/2013.1/src/exe/rbdock.cxx#4 $)

>  <Rbt.Library>
libRbt.so (2013.1, Build901 2013/11/27)

>  <Rbt.Parameter_File>
/export/apps/rDock/src/rDock_2013.1_src/data/scripts/dock_solv.prm

>  <Rbt.Receptor>
prm/pocket_docking_2.prm

>  <SCORE>
-9.01553

>  <SCORE.INTER>
3.8704

>  <SCORE.INTER.CONST>
1

>  <SCORE.INTER.POLAR>
0

>  <SCORE.INTER.ROT>
9

>  <SCORE.INTER.SOLV>
16.6843

>  <SCORE.INTER.VDW>
-12.5812

>  <SCORE.INTER.norm>
0.0921525

>  <SCORE.INTRA>
-12.8905

>  <SCORE.INTRA.DIHEDRAL>
-24.7917

>  <SCORE.INTRA.DIHEDRAL.0>
27.8999

>  <SCORE.INTRA.POLAR>
0

>  <SCORE.INTRA.POLAR.0>
0

>  <SCORE.INTRA.REPUL>
0

>  <SCORE.INTRA.REPUL.0>
0

>  <SCORE.INTRA.SOLV>
-4.74715

>  <SCORE.INTRA.SOLV.lig_0>
-104.479

>  <SCORE.INTRA.VDW>
1.87893

>  <SCORE.INTRA.VDW.0>
-6.17816

>  <SCORE.INTRA.norm>
-0.306916

>  <SCORE.RESTR>
0.00454189

>  <SCORE.RESTR.CAVITY>
0.00454189

>  <SCORE.RESTR.norm>
0.00010814

>  <SCORE.SYSTEM>
0

>  <SCORE.SYSTEM.CONST>
0

>  <SCORE.SYSTEM.DIHEDRAL>
0

>  <SCORE.SYSTEM.SOLV>
0

>  <SCORE.SYSTEM.norm>
0

>  <SCORE.heavy>
42

>  <SCORE.norm>
-0.214655

>  <RMSD>
1.112

$$$$
ligand
 OpenBabel02271912133D
libRbt.so/2013.1/901 2013/11/27
 42 45  0  0  0  0  0  0  0  0999 V2000
    6.7924   -0.0611    3.3794 C   0  0  2  0  0  0  0  0  0  0  0  0
    7.2294   -0.0501    4.7491 O   0  0  0  0  0  0  0  0  0  0  0  0
   10.3211    2.1551    6.8405 C   0  0  2  0  0  0  0  0  0  0  0  0
   11.6329    2.7557    7.2267 N   0  0  0  0  0  0  0  0  0  0  0  0
    8.0949    3.5593    2.9777 C   0  0  1  0  0  0  0  0  0  0  0  0
    6.7007    6.9573    0.5203 C   0  0  1  0  0  0  0  0  0  0  0  0
    5.3254   -0.5866    3.3740 C   0  0  2  0  0  0  0  0  0  0  0  0
    4.4721    0.1137    4.3497 N   0  0  0  0  0  0  0  0  0  0  0  0
   10.3707    0.5756    6.9086 C   0  0  0  0  0  0  0  0  0  0  0  0
    8.2443    3.6184    1.4269 C   0  0  2  0  0  0  0  0  0  0  0  0
    9.5722    3.9829    0.9762 O   0  0  0  0  0  0  0  0  0  0  0  0
    7.2270    8.4366    0.5808 C   0  0  2  0  0  0  0  0  0  0  0  0
    7.6086    8.8103    1.9757 N   0  0  0  0  0  0  0  0  0  0  0  0
    5.2413   -2.0877    3.7062 C   0  0  1  0  0  0  0  0  0  0  0  0
    3.8853   -2.5341    3.6510 O   0  0  0  0  0  0  0  0  0  0  0  0
    8.9569    0.0032    6.5137 C   0  0  2  0  0  0  0  0  0  0  0  0
    8.9632   -1.4831    6.5811 N   0  0  0  0  0  0  0  0  0  0  0  0
    7.1281    4.5968    1.0581 C   0  0  2  0  0  0  0  0  0  0  0  0
    7.6066    5.9795    1.0465 O   0  0  0  0  0  0  0  0  0  0  0  0
    6.1010    9.4222    0.0085 C   0  0  1  0  0  0  0  0  0  0  0  0
    6.0385    9.2761   -1.4280 O   0  0  0  0  0  0  0  0  0  0  0  0
    6.1375   -2.8830    2.7297 C   0  0  2  0  0  0  0  0  0  0  0  0
    6.0585   -4.2612    3.0099 O   0  0  0  0  0  0  0  0  0  0  0  0
    8.5556    0.4661    5.0574 C   0  0  2  0  0  0  0  0  0  0  0  0
    6.0244    4.3979    2.1105 C   0  0  2  0  0  0  0  0  0  0  0  0
    6.7549    4.0153    3.2734 O   0  0  0  0  0  0  0  0  0  0  0  0
    4.6539    9.1460    0.6388 C   0  0  2  0  0  0  0  0  0  0  0  0
    4.6977    9.5432    2.0087 O   0  0  0  0  0  0  0  0  0  0  0  0
    7.6121   -2.3754    2.8616 C   0  0  2  0  0  0  0  0  0  0  0  0
    7.6664   -0.9418    2.5756 O   0  0  0  0  0  0  0  0  0  0  0  0
    8.5412    2.0024    4.9000 C   0  0  2  0  0  0  0  0  0  0  0  0
    8.3394    2.2389    3.4795 O   0  0  0  0  0  0  0  0  0  0  0  0
    4.9510    3.3265    1.7442 C   0  0  0  0  0  0  0  0  0  0  0  0
    5.5836    2.0592    1.5935 O   0  0  0  0  0  0  0  0  0  0  0  0
    4.2802    7.6197    0.5252 C   0  0  1  0  0  0  0  0  0  0  0  0
    5.3556    6.8830    1.2116 O   0  0  0  0  0  0  0  0  0  0  0  0
    8.5609   -3.0976    1.9332 C   0  0  0  0  0  0  0  0  0  0  0  0
    8.7017   -4.4395    2.3317 O   0  0  0  0  0  0  0  0  0  0  0  0
    9.9220    2.6165    5.3816 C   0  0  1  0  0  0  0  0  0  0  0  0
    9.8544    4.0452    5.3787 O   0  0  0  0  0  0  0  0  0  0  0  0
    2.8694    7.2495    1.1585 C   0  0  0  0  0  0  0  0  0  0  0  0
    2.7193    7.5457    2.6098 N   0  0  0  0  0  0  0  0  0  0  0  0
  1  2  1  1  0  0  0
  1  7  1  0  0  0  0
  1 30  1  0  0  0  0
  3  4  1  6  0  0  0
  3  9  1  0  0  0  0
  3 39  1  0  0  0  0
  5 10  1  0  0  0  0
  5 26  1  0  0  0  0
  5 32  1  6  0  0  0
  6 12  1  0  0  0  0
  6 36  1  0  0  0  0
  6 19  1  1  0  0  0
  7  8  1  1  0  0  0
  7 14  1  0  0  0  0
  9 16  1  0  0  0  0
 10 11  1  1  0  0  0
 10 18  1  0  0  0  0
 12 13  1  1  0  0  0
 12 20  1  0  0  0  0
 14 15  1  6  0  0  0
 14 22  1  0  0  0  0
 16 17  1  6  0  0  0
 16 24  1  0  0  0  0
 18 19  1  1  0  0  0
 18 25  1  0  0  0  0
 20 21  1  6  0  0  0
 20 27  1  0  0  0  0
 22 23  1  1  0  0  0
 22 29  1  0  0  0  0
 24  2  1  1  0  0  0
 24 31  1  0  0  0  0
 25 26  1  0  0  0  0
 25 33  1  6  0  0  0
 27 28  1  1  0  0  0
 27 35  1  0  0  0  0
 29 30  1  0  0  0  0
 29 37  1  6  0  0  0
 31 32  1  6  0  0  0
 31 39  1  0  0  0  0
 33 34  1  0  0  0  0
 35 36  1  0  0  0  0
 35 41  1  1  0  0  0
 37 38  1  0  0  0  0
 39 40  1  1  0  0  0
 41 42  1  0  0  0  0
M  END
>  <CHROM.1>
-176.91118241,-164.06695137,170.93780401,177.54205074,60.96586497,-68.05676241
171.67103023,166.59849024,-59.77457620,7.02474818,2.80561381,2.90497972,1.32676725
0.63134099,2.96344776

>  <Name>
ligand

>  <RI>
0

>  <Rbt.Current_Directory>
/home/itssahil/PROJECTS/Mol_Feturizer/Test_systems_manuscript/rnas/2o3w

>  <Rbt.Executable>
rbdock ($Id: //depot/dev/client3/rdock/2013.1/src/exe/rbdock.cxx#4 $)

>  <Rbt.Library>
libRbt.so (2013.1, Build901 2013/11/27)

>  <Rbt.Parameter_File>
/export/apps/rDock/src/rDock_2013.1_src/data/scripts/dock_solv.prm

>  <Rbt.Receptor>
prm/pocket_docking_2.prm

>  <SCORE>
-7.22861

>  <SCORE.INTER>
4.7249

>  <SCORE.INTER.CONST>
1

>  <SCORE.INTER.POLAR>
0

>  <SCORE.INTER.ROT>
9

>  <SCORE.INTER.SOLV>
14.8016

>  <SCORE.INTER.VDW>
-11.3839

>  <SCORE.INTER.norm>
0.112498

>  <SCORE.INTRA>
-11.9589

>  <SCORE.INTRA.DIHEDRAL>
-24.6917

>  <SCORE.INTRA.DIHEDRAL.0>
27.8999

>  <SCORE.INTRA.POLAR>
0

>  <SCORE.INTRA.POLAR.0>
0

>  <SCORE.INTRA.REPUL>
0

>  <SCORE.INTRA.REPUL.0>
0

>  <SCORE.INTRA.SOLV>
-2.43825

>  <SCORE.INTRA.SOLV.lig_0>
-104.479

>  <SCORE.INTRA.VDW>
1.60606

>  <SCORE.INTRA.VDW.0>
-6.17816

>  <SCORE.INTRA.norm>
-0.284736

>  <SCORE.RESTR>
0.00540589

>  <SCORE.RESTR.CAVITY>
0.00540589

>  <SCORE.RESTR.norm>
0.000128712

>  <SCORE.SYSTEM>
0

>  <SCORE.SYSTEM.CONST>
0

>  <SCORE.SYSTEM.DIHEDRAL>
0

>  <SCORE.SYSTEM.SOLV>
0

>  <SCORE.SYSTEM.norm>
0

>  <SCORE.heavy>
42

>  <SCORE.norm>
-0.17211

>  <RMSD>
1.112

$$$$
ligand
 OpenBabel02271912133D
libRbt.so/2013.1/901 2013/11/27
 42 45  0  0  0  0  0  0  0  0999 V2000
    7.0293   -0.4779    3.4766 C   0  0  2  0  0  0  0  0  0  0  0  0
    7.3218   -0.1745    4.8513 O   0  0  0  0  0  0  0  0  0  0  0  0
   10.2030    2.2733    6.9732 C   0  0  2  0  0  0  0  0  0  0  0  0
   11.4589    2.9747    7.3749 N   0  0  0  0  0  0  0  0  0  0  0  0
    8.0099    3.4934    3.0590 C   0  0  1  0  0  0  0  0  0  0  0  0
    6.5565    6.8313    0.5544 C   0  0  1  0  0  0  0  0  0  0  0  0
    5.5295   -0.8960    3.4121 C   0  0  2  0  0  0  0  0  0  0  0  0
    4.6463    0.0659    4.0942 N   0  0  0  0  0  0  0  0  0  0  0  0
   10.3720    0.7027    7.0535 C   0  0  0  0  0  0  0  0  0  0  0  0
    8.1455    3.5264    1.5062 C   0  0  2  0  0  0  0  0  0  0  0  0
    9.4653    3.8975    1.0376 O   0  0  0  0  0  0  0  0  0  0  0  0
    7.0509    8.3214    0.6188 C   0  0  2  0  0  0  0  0  0  0  0  0
    7.4118    8.7037    2.0169 N   0  0  0  0  0  0  0  0  0  0  0  0
    5.2772   -2.2692    4.0613 C   0  0  1  0  0  0  0  0  0  0  0  0
    3.8997   -2.6292    3.9442 O   0  0  0  0  0  0  0  0  0  0  0  0
    9.0123    0.0215    6.6413 C   0  0  2  0  0  0  0  0  0  0  0  0
    9.1310   -1.4595    6.7197 N   0  0  0  0  0  0  0  0  0  0  0  0
    7.0152    4.4856    1.1297 C   0  0  2  0  0  0  0  0  0  0  0  0
    7.4780    5.8730    1.0893 O   0  0  0  0  0  0  0  0  0  0  0  0
    5.9095    9.2828    0.0358 C   0  0  1  0  0  0  0  0  0  0  0  0
    5.8632    9.1348   -1.4012 O   0  0  0  0  0  0  0  0  0  0  0  0
    6.1945   -3.3261    3.4050 C   0  0  2  0  0  0  0  0  0  0  0  0
    5.9637   -4.5926    3.9769 O   0  0  0  0  0  0  0  0  0  0  0  0
    8.5997    0.4434    5.1759 C   0  0  2  0  0  0  0  0  0  0  0  0
    5.9228    4.2933    2.1950 C   0  0  2  0  0  0  0  0  0  0  0  0
    6.6674    3.9396    3.3582 O   0  0  0  0  0  0  0  0  0  0  0  0
    4.4630    8.9764    0.6531 C   0  0  2  0  0  0  0  0  0  0  0  0
    4.4859    9.3749    2.0231 O   0  0  0  0  0  0  0  0  0  0  0  0
    7.6872   -2.8964    3.5968 C   0  0  2  0  0  0  0  0  0  0  0  0
    7.8990   -1.5760    3.0039 O   0  0  0  0  0  0  0  0  0  0  0  0
    8.4705    1.9732    5.0072 C   0  0  2  0  0  0  0  0  0  0  0  0
    8.2735    2.1850    3.5821 O   0  0  0  0  0  0  0  0  0  0  0  0
    4.8585    3.2037    1.8571 C   0  0  0  0  0  0  0  0  0  0  0  0
    4.2307    3.5269    0.6200 O   0  0  0  0  0  0  0  0  0  0  0  0
    4.1226    7.4424    0.5370 C   0  0  1  0  0  0  0  0  0  0  0  0
    5.2070    6.7289    1.2336 O   0  0  0  0  0  0  0  0  0  0  0  0
    8.6581   -3.8746    2.9770 C   0  0  0  0  0  0  0  0  0  0  0  0
    8.4088   -3.9973    1.5978 O   0  0  0  0  0  0  0  0  0  0  0  0
    9.7927    2.6940    5.5052 C   0  0  1  0  0  0  0  0  0  0  0  0
    9.6163    4.1132    5.4909 O   0  0  0  0  0  0  0  0  0  0  0  0
    2.7142    7.0428    1.1577 C   0  0  0  0  0  0  0  0  0  0  0  0
    2.5372    7.3555    2.6025 N   0  0  0  0  0  0  0  0  0  0  0  0
  1  2  1  1  0  0  0
  1  7  1  0  0  0  0
  1 30  1  0  0  0  0
  3  4  1  6  0  0  0
  3  9  1  0  0  0  0
  3 39  1  0  0  0  0
  5 10  1  0  0  0  0
  5 26  1  0  0  0  0
  5 32  1  6  0  0  0
  6 12  1  0  0  0  0
  6 36  1  0  0  0  0
  6 19  1  1  0  0  0
  7  8  1  1  0  0  0
  7 14  1  0  0  0  0
  9 16  1  0  0  0  0
 10 11  1  1  0  0  0
 10 18  1  0  0  0  0
 12 13  1  1  0  0  0
 12 20  1  0  0  0  0
 14 15  1  6  0  0  0
 14 22  1  0  0  0  0
 16 17  1  6  0  0  0
 16 24  1  0  0  0  0
 18 19  1  1  0  0  0
 18 25  1  0  0  0  0
 20 21  1  6  0  0  0
 20 27  1  0  0  0  0
 22 23  1  1  0  0  0
 22 29  1  0  0  0  0
 24  2  1  1  0  0  0
 24 31  1  0  0  0  0
 25 26  1  0  0  0  0
 25 33  1  6  0  0  0
 27 28  1  1  0  0  0
 27 35  1  0  0  0  0
 29 30  1  0  0  0  0
 29 37  1  6  0  0  0
 31 32  1  6  0  0  0
 31 39  1  0  0  0  0
 33 34  1  0  0  0  0
 35 36  1  0  0  0  0
 35 41  1  1  0  0  0
 37 38  1  0  0  0  0
 39 40  1  1  0  0  0
 41 42  1  0  0  0  0
M  END
>  <CHROM.1>
-170.63676020,-151.38056185,170.97107133,176.00092750,-57.78514464,59.04239039
175.16128533,167.50916106,-58.87099171,6.92872085,2.71918532,3.01611673,1.30173150
0.63687506,2.95448657

>  <Name>
ligand

>  <RI>
0

>  <Rbt.Current_Directory>
/home/itssahil/PROJECTS/Mol_Feturizer/Test_systems_manuscript/rnas/2o3w

>  <Rbt.Executable>
rbdock ($Id: //depot/dev/client3/rdock/2013.1/src/exe/rbdock.cxx#4 $)

>  <Rbt.Library>
libRbt.so (2013.1, Build901 2013/11/27)

>  <Rbt.Parameter_File>
/export/apps/rDock/src/rDock_2013.1_src/data/scripts/dock_solv.prm

>  <Rbt.Receptor>
prm/pocket_docking_2.prm

>  <SCORE>
-5.89472

>  <SCORE.INTER>
5.08081

>  <SCORE.INTER.CONST>
1

>  <SCORE.INTER.POLAR>
0

>  <SCORE.INTER.ROT>
9

>  <SCORE.INTER.SOLV>
13.7274

>  <SCORE.INTER.VDW>
-10.7886

>  <SCORE.INTER.norm>
0.120972

>  <SCORE.INTRA>
-10.9806

>  <SCORE.INTRA.DIHEDRAL>
-22.6677

>  <SCORE.INTRA.DIHEDRAL.0>
27.8999

>  <SCORE.INTRA.POLAR>
0

>  <SCORE.INTRA.POLAR.0>
0

>  <SCORE.INTRA.REPUL>
0

>  <SCORE.INTRA.REPUL.0>
0

>  <SCORE.INTRA.SOLV>
-2.63004

>  <SCORE.INTRA.SOLV.lig_0>
-104.479

>  <SCORE.INTRA.VDW>
1.6683

>  <SCORE.INTRA.VDW.0>
-6.17816

>  <SCORE.INTRA.norm>
-0.261442

>  <SCORE.RESTR>
0.0050356

>  <SCORE.RESTR.CAVITY>
0.0050356

>  <SCORE.RESTR.norm>
0.000119895

>  <SCORE.SYSTEM>
0

>  <SCORE.SYSTEM.CONST>
0

>  <SCORE.SYSTEM.DIHEDRAL>
0

>  <SCORE.SYSTEM.SOLV>
0

>  <SCORE.SYSTEM.norm>
0

>  <SCORE.heavy>
42

>  <SCORE.norm>
-0.14035

>  <RMSD>
1.114

$$$$
ligand
 OpenBabel02271912133D
libRbt.so/2013.1/901 2013/11/27
 42 45  0  0  0  0  0  0  0  0999 V2000
    7.1367   -0.4298    3.3443 C   0  0  2  0  0  0  0  0  0  0  0  0
    7.3957   -0.1432    4.7293 O   0  0  0  0  0  0  0  0  0  0  0  0
   10.3870    2.0140    7.0084 C   0  0  2  0  0  0  0  0  0  0  0  0
   11.6782    2.6101    7.4645 N   0  0  0  0  0  0  0  0  0  0  0  0
    8.2751    3.5204    3.1083 C   0  0  1  0  0  0  0  0  0  0  0  0
    6.7112    6.9715    0.8505 C   0  0  1  0  0  0  0  0  0  0  0  0
    5.6188   -0.7607    3.2242 C   0  0  2  0  0  0  0  0  0  0  0  0
    4.7680    0.2507    3.8753 N   0  0  0  0  0  0  0  0  0  0  0  0
   10.4453    0.4335    7.0293 C   0  0  0  0  0  0  0  0  0  0  0  0
    8.2681    3.5876    1.5507 C   0  0  2  0  0  0  0  0  0  0  0  0
    9.5517    3.9249    0.9696 O   0  0  0  0  0  0  0  0  0  0  0  0
    7.3029    8.4250    0.7723 C   0  0  2  0  0  0  0  0  0  0  0  0
    7.9315    8.8156    2.0697 N   0  0  0  0  0  0  0  0  0  0  0  0
    5.2642   -2.1169    3.8614 C   0  0  1  0  0  0  0  0  0  0  0  0
    3.8734   -2.3970    3.6934 O   0  0  0  0  0  0  0  0  0  0  0  0
    9.0522   -0.1347    6.5614 C   0  0  2  0  0  0  0  0  0  0  0  0
    9.0666   -1.6223    6.5829 N   0  0  0  0  0  0  0  0  0  0  0  0
    7.1435    4.5939    1.3018 C   0  0  2  0  0  0  0  0  0  0  0  0
    7.6506    5.9653    1.2488 O   0  0  0  0  0  0  0  0  0  0  0  0
    6.1392    9.4483    0.3655 C   0  0  1  0  0  0  0  0  0  0  0  0
    5.8274    9.2687   -1.0343 O   0  0  0  0  0  0  0  0  0  0  0  0
    6.1425   -3.2252    3.2373 C   0  0  2  0  0  0  0  0  0  0  0  0
    5.8183   -4.4761    3.7982 O   0  0  0  0  0  0  0  0  0  0  0  0
    8.7050    0.3710    5.1055 C   0  0  2  0  0  0  0  0  0  0  0  0
    6.1476    4.4124    2.4597 C   0  0  2  0  0  0  0  0  0  0  0  0
    6.9829    4.0046    3.5406 O   0  0  0  0  0  0  0  0  0  0  0  0
    4.8098    9.2579    1.2395 C   0  0  2  0  0  0  0  0  0  0  0  0
    5.1026    9.6873    2.5685 O   0  0  0  0  0  0  0  0  0  0  0  0
    7.6494   -2.8821    3.4843 C   0  0  2  0  0  0  0  0  0  0  0  0
    7.9585   -1.5764    2.9018 O   0  0  0  0  0  0  0  0  0  0  0  0
    8.6857    1.9114    4.9954 C   0  0  2  0  0  0  0  0  0  0  0  0
    8.5381    2.1911    3.5761 O   0  0  0  0  0  0  0  0  0  0  0  0
    5.0179    3.3685    2.1986 C   0  0  0  0  0  0  0  0  0  0  0  0
    4.3296    3.7102    0.9993 O   0  0  0  0  0  0  0  0  0  0  0  0
    4.3573    7.7487    1.2414 C   0  0  1  0  0  0  0  0  0  0  0  0
    5.5011    6.9793    1.7608 O   0  0  0  0  0  0  0  0  0  0  0  0
    8.5844   -3.9148    2.8987 C   0  0  0  0  0  0  0  0  0  0  0  0
    8.4369   -3.9651    1.5005 O   0  0  0  0  0  0  0  0  0  0  0  0
   10.0421    2.5184    5.5499 C   0  0  1  0  0  0  0  0  0  0  0  0
    9.9643    3.9461    5.5887 O   0  0  0  0  0  0  0  0  0  0  0  0
    3.0601    7.4627    2.1154 C   0  0  0  0  0  0  0  0  0  0  0  0
    2.5489    6.0651    2.0678 N   0  0  0  0  0  0  0  0  0  0  0  0
  1  2  1  1  0  0  0
  1  7  1  0  0  0  0
  1 30  1  0  0  0  0
  3  4  1  6  0  0  0
  3  9  1  0  0  0  0
  3 39  1  0  0  0  0
  5 10  1  0  0  0  0
  5 26  1  0  0  0  0
  5 32  1  6  0  0  0
  6 12  1  0  0  0  0
  6 36  1  0  0  0  0
  6 19  1  1  0  0  0
  7  8  1  1  0  0  0
  7 14  1  0  0  0  0
  9 16  1  0  0  0  0
 10 11  1  1  0  0  0
 10 18  1  0  0  0  0
 12 13  1  1  0  0  0
 12 20  1  0  0  0  0
 14 15  1  6  0  0  0
 14 22  1  0  0  0  0
 16 17  1  6  0  0  0
 16 24  1  0  0  0  0
 18 19  1  1  0  0  0
 18 25  1  0  0  0  0
 20 21  1  6  0  0  0
 20 27  1  0  0  0  0
 22 23  1  1  0  0  0
 22 29  1  0  0  0  0
 24  2  1  1  0  0  0
 24 31  1  0  0  0  0
 25 26  1  0  0  0  0
 25 33  1  6  0  0  0
 27 28  1  1  0  0  0
 27 35  1  0  0  0  0
 29 30  1  0  0  0  0
 29 37  1  6  0  0  0
 31 32  1  6  0  0  0
 31 39  1  0  0  0  0
 33 34  1  0  0  0  0
 35 36  1  0  0  0  0
 35 41  1  1  0  0  0
 37 38  1  0  0  0  0
 39 40  1  1  0  0  0
 41 42  1  0  0  0  0
M  END
>  <CHROM.1>
-172.04174906,-148.59186088,172.27089621,-178.58585771,-55.18319414,62.63502286
170.30449426,175.58975392,176.05225356,7.07914084,2.74784093,3.10250205,1.33803751
0.60312132,2.97300932

>  <Name>
ligand

>  <RI>
0

>  <Rbt.Current_Directory>
/home/itssahil/PROJECTS/Mol_Feturizer/Test_systems_manuscript/rnas/2o3w

>  <Rbt.Executable>
rbdock ($Id: //depot/dev/client3/rdock/2013.1/src/exe/rbdock.cxx#4 $)

>  <Rbt.Library>
libRbt.so (2013.1, Build901 2013/11/27)

>  <Rbt.Parameter_File>
/export/apps/rDock/src/rDock_2013.1_src/data/scripts/dock_solv.prm

>  <Rbt.Receptor>
prm/pocket_docking_2.prm

>  <SCORE>
-7.22948

>  <SCORE.INTER>
3.77303

>  <SCORE.INTER.CONST>
1

>  <SCORE.INTER.POLAR>
0

>  <SCORE.INTER.ROT>
9

>  <SCORE.INTER.SOLV>
12.8013

>  <SCORE.INTER.VDW>
-11.3517

>  <SCORE.INTER.norm>
0.0898341

>  <SCORE.INTRA>
-11.009

>  <SCORE.INTRA.DIHEDRAL>
-22.6068

>  <SCORE.INTRA.DIHEDRAL.0>
27.8999

>  <SCORE.INTRA.POLAR>
0

>  <SCORE.INTRA.POLAR.0>
0

>  <SCORE.INTRA.REPUL>
0

>  <SCORE.INTRA.REPUL.0>
0

>  <SCORE.INTRA.SOLV>
-1.95675

>  <SCORE.INTRA.SOLV.lig_0>
-104.479

>  <SCORE.INTRA.VDW>
1.27272

>  <SCORE.INTRA.VDW.0>
-6.17816

>  <SCORE.INTRA.norm>
-0.26212

>  <SCORE.RESTR>
0.00653352

>  <SCORE.RESTR.CAVITY>
0.00653352

>  <SCORE.RESTR.norm>
0.00015556

>  <SCORE.SYSTEM>
0

>  <SCORE.SYSTEM.CONST>
0

>  <SCORE.SYSTEM.DIHEDRAL>
0

>  <SCORE.SYSTEM.SOLV>
0

>  <SCORE.SYSTEM.norm>
0

>  <SCORE.heavy>
42

>  <SCORE.norm>
-0.172131

>  <RMSD>
1.115

$$$$
ligand
 OpenBabel02271912133D
libRbt.so/2013.1/901 2013/11/27
 42 45  0  0  0  0  0  0  0  0999 V2000
    6.8585    0.0678    3.4854 C   0  0  2  0  0  0  0  0  0  0  0  0
    7.3439    0.0242    4.8381 O   0  0  0  0  0  0  0  0  0  0  0  0
   10.6663    1.9732    6.8279 C   0  0  2  0  0  0  0  0  0  0  0  0
   12.0333    2.4667    7.1717 N   0  0  0  0  0  0  0  0  0  0  0  0
    8.3082    3.5403    3.0536 C   0  0  1  0  0  0  0  0  0  0  0  0
    6.6899    6.9552    0.8120 C   0  0  1  0  0  0  0  0  0  0  0  0
    5.3619   -0.3643    3.5249 C   0  0  2  0  0  0  0  0  0  0  0  0
    4.5901    0.3687    4.5435 N   0  0  0  0  0  0  0  0  0  0  0  0
   10.5918    0.3947    6.8965 C   0  0  0  0  0  0  0  0  0  0  0  0
    8.3219    3.6008    1.4958 C   0  0  2  0  0  0  0  0  0  0  0  0
    9.6063    3.9627    0.9313 O   0  0  0  0  0  0  0  0  0  0  0  0
    7.2596    8.4148    0.6943 C   0  0  2  0  0  0  0  0  0  0  0  0
    7.9428    8.8242    1.9578 N   0  0  0  0  0  0  0  0  0  0  0  0
    5.1946   -1.8635    3.8337 C   0  0  1  0  0  0  0  0  0  0  0  0
    3.8119   -2.2227    3.8207 O   0  0  0  0  0  0  0  0  0  0  0  0
    9.1250   -0.0626    6.5472 C   0  0  2  0  0  0  0  0  0  0  0  0
    9.0148   -1.5447    6.6165 N   0  0  0  0  0  0  0  0  0  0  0  0
    7.1801    4.5820    1.2266 C   0  0  2  0  0  0  0  0  0  0  0  0
    7.6589    5.9636    1.1745 O   0  0  0  0  0  0  0  0  0  0  0  0
    6.0659    9.4207    0.3335 C   0  0  1  0  0  0  0  0  0  0  0  0
    5.6918    9.2250   -1.0488 O   0  0  0  0  0  0  0  0  0  0  0  0
    6.0031   -2.6940    2.8111 C   0  0  2  0  0  0  0  0  0  0  0  0
    5.8468   -4.0699    3.0700 O   0  0  0  0  0  0  0  0  0  0  0  0
    8.7162    0.4325    5.1038 C   0  0  2  0  0  0  0  0  0  0  0  0
    6.1719    4.3845    2.3711 C   0  0  2  0  0  0  0  0  0  0  0  0
    7.0001    3.9989    3.4655 O   0  0  0  0  0  0  0  0  0  0  0  0
    4.7808    9.2222    1.2698 C   0  0  2  0  0  0  0  0  0  0  0  0
    5.1295    9.6669    2.5801 O   0  0  0  0  0  0  0  0  0  0  0  0
    7.5107   -2.2828    2.8975 C   0  0  2  0  0  0  0  0  0  0  0  0
    7.6457   -0.8501    2.6348 O   0  0  0  0  0  0  0  0  0  0  0  0
    8.8195    1.9653    4.9448 C   0  0  2  0  0  0  0  0  0  0  0  0
    8.5925    2.2188    3.5310 O   0  0  0  0  0  0  0  0  0  0  0  0
    5.0682    3.3159    2.0988 C   0  0  0  0  0  0  0  0  0  0  0  0
    4.2892    3.7195    0.9766 O   0  0  0  0  0  0  0  0  0  0  0  0
    4.3473    7.7080    1.3051 C   0  0  1  0  0  0  0  0  0  0  0  0
    5.5232    6.9567    1.7773 O   0  0  0  0  0  0  0  0  0  0  0  0
    8.3781   -3.0447    1.9223 C   0  0  0  0  0  0  0  0  0  0  0  0
    8.4314   -4.4041    2.2804 O   0  0  0  0  0  0  0  0  0  0  0  0
   10.2594    2.4667    5.3817 C   0  0  1  0  0  0  0  0  0  0  0  0
   10.3060    3.8961    5.3790 O   0  0  0  0  0  0  0  0  0  0  0  0
    3.0955    7.4143    2.2407 C   0  0  0  0  0  0  0  0  0  0  0  0
    1.8201    8.0632    1.8295 N   0  0  0  0  0  0  0  0  0  0  0  0
  1  2  1  1  0  0  0
  1  7  1  0  0  0  0
  1 30  1  0  0  0  0
  3  4  1  6  0  0  0
  3  9  1  0  0  0  0
  3 39  1  0  0  0  0
  5 10  1  0  0  0  0
  5 26  1  0  0  0  0
  5 32  1  6  0  0  0
  6 12  1  0  0  0  0
  6 36  1  0  0  0  0
  6 19  1  1  0  0  0
  7  8  1  1  0  0  0
  7 14  1  0  0  0  0
  9 16  1  0  0  0  0
 10 11  1  1  0  0  0
 10 18  1  0  0  0  0
 12 13  1  1  0  0  0
 12 20  1  0  0  0  0
 14 15  1  6  0  0  0
 14 22  1  0  0  0  0
 16 17  1  6  0  0  0
 16 24  1  0  0  0  0
 18 19  1  1  0  0  0
 18 25  1  0  0  0  0
 20 21  1  6  0  0  0
 20 27  1  0  0  0  0
 22 23  1  1  0  0  0
 22 29  1  0  0  0  0
 24  2  1  1  0  0  0
 24 31  1  0  0  0  0
 25 26  1  0  0  0  0
 25 33  1  6  0  0  0
 27 28  1  1  0  0  0
 27 35  1  0  0  0  0
 29 30  1  0  0  0  0
 29 37  1  6  0  0  0
 31 32  1  6  0  0  0
 31 39  1  0  0  0  0
 33 34  1  0  0  0  0
 35 36  1  0  0  0  0
 35 41  1  1  0  0  0
 37 38  1  0  0  0  0
 39 40  1  1  0  0  0
 41 42  1  0  0  0  0
M  END
>  <CHROM.1>
-177.74182996,-164.93626210,174.75584384,-176.96587940,-61.86860326,-67.18147711
165.49688766,171.19118976,63.70079701,7.06011678,2.88782753,3.03767352,1.31299571
0.54319012,2.96881260

>  <Name>
ligand

>  <RI>
0

>  <Rbt.Current_Directory>
/home/itssahil/PROJECTS/Mol_Feturizer/Test_systems_manuscript/rnas/2o3w

>  <Rbt.Executable>
rbdock ($Id: //depot/dev/client3/rdock/2013.1/src/exe/rbdock.cxx#4 $)

>  <Rbt.Library>
libRbt.so (2013.1, Build901 2013/11/27)

>  <Rbt.Parameter_File>
/export/apps/rDock/src/rDock_2013.1_src/data/scripts/dock_solv.prm

>  <Rbt.Receptor>
prm/pocket_docking_2.prm

>  <SCORE>
-9.14389

>  <SCORE.INTER>
3.78711

>  <SCORE.INTER.CONST>
1

>  <SCORE.INTER.POLAR>
0

>  <SCORE.INTER.ROT>
9

>  <SCORE.INTER.SOLV>
18.1862

>  <SCORE.INTER.VDW>
-13.1373

>  <SCORE.INTER.norm>
0.0901692

>  <SCORE.INTRA>
-12.934

>  <SCORE.INTRA.DIHEDRAL>
-24.8841

>  <SCORE.INTRA.DIHEDRAL.0>
27.8999

>  <SCORE.INTRA.POLAR>
0

>  <SCORE.INTRA.POLAR.0>
0

>  <SCORE.INTRA.REPUL>
0

>  <SCORE.INTRA.REPUL.0>
0

>  <SCORE.INTRA.SOLV>
-4.90794

>  <SCORE.INTRA.SOLV.lig_0>
-104.479

>  <SCORE.INTRA.VDW>
1.96205

>  <SCORE.INTRA.VDW.0>
-6.17816

>  <SCORE.INTRA.norm>
-0.307951

>  <SCORE.RESTR>
0.00295116

>  <SCORE.RESTR.CAVITY>
0.00295116

>  <SCORE.RESTR.norm>
7.02658e-05

>  <SCORE.SYSTEM>
0

>  <SCORE.SYSTEM.CONST>
0

>  <SCORE.SYSTEM.DIHEDRAL>
0

>  <SCORE.SYSTEM.SOLV>
0

>  <SCORE.SYSTEM.norm>
0

>  <SCORE.heavy>
42

>  <SCORE.norm>
-0.217712

>  <RMSD>
1.119

$$$$
ligand
 OpenBabel02271912133D
libRbt.so/2013.1/901 2013/11/27
 42 45  0  0  0  0  0  0  0  0999 V2000
    6.8410    0.0026    3.4020 C   0  0  2  0  0  0  0  0  0  0  0  0
    7.3054   -0.0249    4.7625 O   0  0  0  0  0  0  0  0  0  0  0  0
   10.6595    1.8202    6.7976 C   0  0  2  0  0  0  0  0  0  0  0  0
   12.0350    2.2794    7.1546 N   0  0  0  0  0  0  0  0  0  0  0  0
    8.3319    3.4992    3.0458 C   0  0  1  0  0  0  0  0  0  0  0  0
    6.7432    6.9660    0.8321 C   0  0  1  0  0  0  0  0  0  0  0  0
    5.3279   -0.3688    3.4301 C   0  0  2  0  0  0  0  0  0  0  0  0
    4.5719    0.4205    4.4180 N   0  0  0  0  0  0  0  0  0  0  0  0
   10.5525    0.2426    6.8380 C   0  0  0  0  0  0  0  0  0  0  0  0
    8.3218    3.5832    1.4890 C   0  0  2  0  0  0  0  0  0  0  0  0
    9.6024    3.9342    0.9094 O   0  0  0  0  0  0  0  0  0  0  0  0
    7.3283    8.4225    0.7606 C   0  0  2  0  0  0  0  0  0  0  0  0
    7.9667    8.8051    2.0556 N   0  0  0  0  0  0  0  0  0  0  0  0
    5.0966   -1.8516    3.7745 C   0  0  1  0  0  0  0  0  0  0  0  0
    3.7010   -2.1561    3.7499 O   0  0  0  0  0  0  0  0  0  0  0  0
    9.0780   -0.1783    6.4757 C   0  0  2  0  0  0  0  0  0  0  0  0
    8.9373   -1.6588    6.5184 N   0  0  0  0  0  0  0  0  0  0  0  0
    7.1910    4.5856    1.2529 C   0  0  2  0  0  0  0  0  0  0  0  0
    7.6902    5.9604    1.2139 O   0  0  0  0  0  0  0  0  0  0  0  0
    6.1569    9.4443    0.3724 C   0  0  1  0  0  0  0  0  0  0  0  0
    5.8335    9.2748   -1.0260 O   0  0  0  0  0  0  0  0  0  0  0  0
    5.8855   -2.7398    2.7856 C   0  0  2  0  0  0  0  0  0  0  0  0
    5.6708   -4.1012    3.0771 O   0  0  0  0  0  0  0  0  0  0  0  0
    8.6847    0.3505    5.0399 C   0  0  2  0  0  0  0  0  0  0  0  0
    6.1982    4.3859    2.4105 C   0  0  2  0  0  0  0  0  0  0  0  0
    7.0377    3.9712    3.4855 O   0  0  0  0  0  0  0  0  0  0  0  0
    4.8360    9.2412    1.2564 C   0  0  2  0  0  0  0  0  0  0  0  0
    5.1387    9.6610    2.5862 O   0  0  0  0  0  0  0  0  0  0  0  0
    7.4070   -2.3864    2.8840 C   0  0  2  0  0  0  0  0  0  0  0  0
    7.6027   -0.9675    2.5869 O   0  0  0  0  0  0  0  0  0  0  0  0
    8.8199    1.8834    4.9084 C   0  0  2  0  0  0  0  0  0  0  0  0
    8.6034    2.1664    3.4986 O   0  0  0  0  0  0  0  0  0  0  0  0
    5.0740    3.3384    2.1400 C   0  0  0  0  0  0  0  0  0  0  0  0
    4.3622    3.7057    0.9622 O   0  0  0  0  0  0  0  0  0  0  0  0
    4.3897    7.7302    1.2499 C   0  0  1  0  0  0  0  0  0  0  0  0
    5.5411    6.9613    1.7530 O   0  0  0  0  0  0  0  0  0  0  0  0
    8.2568   -3.2072    1.9417 C   0  0  0  0  0  0  0  0  0  0  0  0
    8.1169   -4.5769    2.2310 O   0  0  0  0  0  0  0  0  0  0  0  0
   10.2682    2.3474    5.3590 C   0  0  1  0  0  0  0  0  0  0  0  0
   10.3440    3.7754    5.3818 O   0  0  0  0  0  0  0  0  0  0  0  0
    3.1013    7.4317    2.1329 C   0  0  0  0  0  0  0  0  0  0  0  0
    1.8428    8.0804    1.6725 N   0  0  0  0  0  0  0  0  0  0  0  0
  1  2  1  1  0  0  0
  1  7  1  0  0  0  0
  1 30  1  0  0  0  0
  3  4  1  6  0  0  0
  3  9  1  0  0  0  0
  3 39  1  0  0  0  0
  5 10  1  0  0  0  0
  5 26  1  0  0  0  0
  5 32  1  6  0  0  0
  6 12  1  0  0  0  0
  6 36  1  0  0  0  0
  6 19  1  1  0  0  0
  7  8  1  1  0  0  0
  7 14  1  0  0  0  0
  9 16  1  0  0  0  0
 10 11  1  1  0  0  0
 10 18  1  0  0  0  0
 12 13  1  1  0  0  0
 12 20  1  0  0  0  0
 14 15  1  6  0  0  0
 14 22  1  0  0  0  0
 16 17  1  6  0  0  0
 16 24  1  0  0  0  0
 18 19  1  1  0  0  0
 18 25  1  0  0  0  0
 20 21  1  6  0  0  0
 20 27  1  0  0  0  0
 22 23  1  1  0  0  0
 22 29  1  0  0  0  0
 24  2  1  1  0  0  0
 24 31  1  0  0  0  0
 25 26  1  0  0  0  0
 25 33  1  6  0  0  0
 27 28  1  1  0  0  0
 27 35  1  0  0  0  0
 29 30  1  0  0  0  0
 29 37  1  6  0  0  0
 31 32  1  6  0  0  0
 31 39  1  0  0  0  0
 33 34  1  0  0  0  0
 35 36  1  0  0  0  0
 35 41  1  1  0  0  0
 37 38  1  0  0  0  0
 39 40  1  1  0  0  0
 41 42  1  0  0  0  0
M  END
>  <CHROM.1>
-177.04349593,-162.54362907,172.45528619,-178.25737487,-56.48222142,-59.77400641
164.73371298,172.55147711,64.64650440,7.04510087,2.84615621,3.01319073,1.33106077
0.53770825,2.96548511

>  <Name>
ligand

>  <RI>
0

>  <Rbt.Current_Directory>
/home/itssahil/PROJECTS/Mol_Feturizer/Test_systems_manuscript/rnas/2o3w

>  <Rbt.Executable>
rbdock ($Id: //depot/dev/client3/rdock/2013.1/src/exe/rbdock.cxx#4 $)

>  <Rbt.Library>
libRbt.so (2013.1, Build901 2013/11/27)

>  <Rbt.Parameter_File>
/export/apps/rDock/src/rDock_2013.1_src/data/scripts/dock_solv.prm

>  <Rbt.Receptor>
prm/pocket_docking_2.prm

>  <SCORE>
-9.15393

>  <SCORE.INTER>
3.49814

>  <SCORE.INTER.CONST>
1

>  <SCORE.INTER.POLAR>
0

>  <SCORE.INTER.ROT>
9

>  <SCORE.INTER.SOLV>
17.2034

>  <SCORE.INTER.VDW>
-13.0024

>  <SCORE.INTER.norm>
0.0832892

>  <SCORE.INTRA>
-12.7017

>  <SCORE.INTRA.DIHEDRAL>
-24.5483

>  <SCORE.INTRA.DIHEDRAL.0>
27.8999

>  <SCORE.INTRA.POLAR>
0

>  <SCORE.INTRA.POLAR.0>
0

>  <SCORE.INTRA.REPUL>
0

>  <SCORE.INTRA.REPUL.0>
0

>  <SCORE.INTRA.SOLV>
-4.69706

>  <SCORE.INTRA.SOLV.lig_0>
-104.479

>  <SCORE.INTRA.VDW>
1.92098

>  <SCORE.INTRA.VDW.0>
-6.17816

>  <SCORE.INTRA.norm>
-0.302421

>  <SCORE.RESTR>
0.0496056

>  <SCORE.RESTR.CAVITY>
0.0496056

>  <SCORE.RESTR.norm>
0.00118109

>  <SCORE.SYSTEM>
0

>  <SCORE.SYSTEM.CONST>
0

>  <SCORE.SYSTEM.DIHEDRAL>
0

>  <SCORE.SYSTEM.SOLV>
0

>  <SCORE.SYSTEM.norm>
0

>  <SCORE.heavy>
42

>  <SCORE.norm>
-0.217951

>  <RMSD>
1.131

$$$$
ligand
 OpenBabel02271912133D
libRbt.so/2013.1/901 2013/11/27
 42 45  0  0  0  0  0  0  0  0999 V2000
    6.7970    0.0203    3.2744 C   0  0  2  0  0  0  0  0  0  0  0  0
    7.1738    0.0304    4.6619 O   0  0  0  0  0  0  0  0  0  0  0  0
   10.2638    2.1080    6.8826 C   0  0  2  0  0  0  0  0  0  0  0  0
   11.5813    2.6576    7.3216 N   0  0  0  0  0  0  0  0  0  0  0  0
    8.1102    3.5960    2.9587 C   0  0  1  0  0  0  0  0  0  0  0  0
    6.5427    6.9393    0.5029 C   0  0  1  0  0  0  0  0  0  0  0  0
    5.3112   -0.4449    3.2097 C   0  0  2  0  0  0  0  0  0  0  0  0
    4.4457    0.3016    4.1393 N   0  0  0  0  0  0  0  0  0  0  0  0
   10.2529    0.5274    6.9412 C   0  0  0  0  0  0  0  0  0  0  0  0
    8.1997    3.6580    1.4034 C   0  0  2  0  0  0  0  0  0  0  0  0
    9.4980    4.0625    0.9035 O   0  0  0  0  0  0  0  0  0  0  0  0
    7.0227    8.4349    0.5432 C   0  0  2  0  0  0  0  0  0  0  0  0
    7.3865    8.8410    1.9337 N   0  0  0  0  0  0  0  0  0  0  0  0
    5.1507   -1.9372    3.5538 C   0  0  1  0  0  0  0  0  0  0  0  0
    3.7812   -2.3285    3.4434 O   0  0  0  0  0  0  0  0  0  0  0  0
    8.8348    0.0098    6.4898 C   0  0  2  0  0  0  0  0  0  0  0  0
    8.7842   -1.4761    6.5469 N   0  0  0  0  0  0  0  0  0  0  0  0
    7.0409    4.6013    1.0766 C   0  0  2  0  0  0  0  0  0  0  0  0
    7.4760    5.9979    1.0473 O   0  0  0  0  0  0  0  0  0  0  0  0
    5.8693    9.3765   -0.0483 C   0  0  1  0  0  0  0  0  0  0  0  0
    5.8176    9.2071   -1.4827 O   0  0  0  0  0  0  0  0  0  0  0  0
    6.0551   -2.7804    2.6263 C   0  0  2  0  0  0  0  0  0  0  0  0
    5.9070   -4.1507    2.9175 O   0  0  0  0  0  0  0  0  0  0  0  0
    8.5056    0.4955    5.0230 C   0  0  2  0  0  0  0  0  0  0  0  0
    5.9839    4.3697    2.1695 C   0  0  2  0  0  0  0  0  0  0  0  0
    6.7687    4.0109    3.3043 O   0  0  0  0  0  0  0  0  0  0  0  0
    4.4287    9.0651    0.5804 C   0  0  2  0  0  0  0  0  0  0  0  0
    4.4541    9.4838    1.9444 O   0  0  0  0  0  0  0  0  0  0  0  0
    7.5423   -2.3318    2.8179 C   0  0  2  0  0  0  0  0  0  0  0  0
    7.6682   -0.9053    2.5194 O   0  0  0  0  0  0  0  0  0  0  0  0
    8.5534    2.0322    4.8762 C   0  0  2  0  0  0  0  0  0  0  0  0
    8.4137    2.2842    3.4508 O   0  0  0  0  0  0  0  0  0  0  0  0
    4.9310    3.2655    1.8434 C   0  0  0  0  0  0  0  0  0  0  0  0
    4.2589    3.5992    0.6327 O   0  0  0  0  0  0  0  0  0  0  0  0
    4.1028    7.5264    0.4884 C   0  0  1  0  0  0  0  0  0  0  0  0
    5.1974    6.8337    1.1900 O   0  0  0  0  0  0  0  0  0  0  0  0
    8.5001   -3.1036    1.9401 C   0  0  0  0  0  0  0  0  0  0  0  0
    8.5575   -4.4482    2.3502 O   0  0  0  0  0  0  0  0  0  0  0  0
    9.9367    2.5922    5.4132 C   0  0  1  0  0  0  0  0  0  0  0  0
    9.9217    4.0224    5.4180 O   0  0  0  0  0  0  0  0  0  0  0  0
    2.7014    7.1222    1.1217 C   0  0  0  0  0  0  0  0  0  0  0  0
    2.5860    7.3039    2.5949 N   0  0  0  0  0  0  0  0  0  0  0  0
  1  2  1  1  0  0  0
  1  7  1  0  0  0  0
  1 30  1  0  0  0  0
  3  4  1  6  0  0  0
  3  9  1  0  0  0  0
  3 39  1  0  0  0  0
  5 10  1  0  0  0  0
  5 26  1  0  0  0  0
  5 32  1  6  0  0  0
  6 12  1  0  0  0  0
  6 36  1  0  0  0  0
  6 19  1  1  0  0  0
  7  8  1  1  0  0  0
  7 14  1  0  0  0  0
  9 16  1  0  0  0  0
 10 11  1  1  0  0  0
 10 18  1  0  0  0  0
 12 13  1  1  0  0  0
 12 20  1  0  0  0  0
 14 15  1  6  0  0  0
 14 22  1  0  0  0  0
 16 17  1  6  0  0  0
 16 24  1  0  0  0  0
 18 19  1  1  0  0  0
 18 25  1  0  0  0  0
 20 21  1  6  0  0  0
 20 27  1  0  0  0  0
 22 23  1  1  0  0  0
 22 29  1  0  0  0  0
 24  2  1  1  0  0  0
 24 31  1  0  0  0  0
 25 26  1  0  0  0  0
 25 33  1  6  0  0  0
 27 28  1  1  0  0  0
 27 35  1  0  0  0  0
 29 30  1  0  0  0  0
 29 37  1  6  0  0  0
 31 32  1  6  0  0  0
 31 39  1  0  0  0  0
 33 34  1  0  0  0  0
 35 36  1  0  0  0  0
 35 41  1  1  0  0  0
 37 38  1  0  0  0  0
 39 40  1  1  0  0  0
 41 42  1  0  0  0  0
M  END
>  <CHROM.1>
-176.92355765,-162.93554576,168.39395619,177.60208342,-57.93482319,-67.46629460
165.68321319,172.35287692,-65.88571655,6.90111704,2.85533092,2.84451639,1.29012349
0.63464449,2.97217401

>  <Name>
ligand

>  <RI>
0

>  <Rbt.Current_Directory>
/home/itssahil/PROJECTS/Mol_Feturizer/Test_systems_manuscript/rnas/2o3w

>  <Rbt.Executable>
rbdock ($Id: //depot/dev/client3/rdock/2013.1/src/exe/rbdock.cxx#4 $)

>  <Rbt.Library>
libRbt.so (2013.1, Build901 2013/11/27)

>  <Rbt.Parameter_File>
/export/apps/rDock/src/rDock_2013.1_src/data/scripts/dock_solv.prm

>  <Rbt.Receptor>
prm/pocket_docking_2.prm

>  <SCORE>
-7.45591

>  <SCORE.INTER>
4.81696

>  <SCORE.INTER.CONST>
1

>  <SCORE.INTER.POLAR>
0

>  <SCORE.INTER.ROT>
9

>  <SCORE.INTER.SOLV>
13.9625

>  <SCORE.INTER.VDW>
-11.0428

>  <SCORE.INTER.norm>
0.11469

>  <SCORE.INTRA>
-12.2761

>  <SCORE.INTRA.DIHEDRAL>
-24.1232

>  <SCORE.INTRA.DIHEDRAL.0>
27.8999

>  <SCORE.INTRA.POLAR>
0

>  <SCORE.INTRA.POLAR.0>
0

>  <SCORE.INTRA.REPUL>
0

>  <SCORE.INTRA.REPUL.0>
0

>  <SCORE.INTRA.SOLV>
-3.30539

>  <SCORE.INTRA.SOLV.lig_0>
-104.479

>  <SCORE.INTRA.VDW>
1.43823

>  <SCORE.INTRA.VDW.0>
-6.17816

>  <SCORE.INTRA.norm>
-0.292287

>  <SCORE.RESTR>
0.0031824

>  <SCORE.RESTR.CAVITY>
0.0031824

>  <SCORE.RESTR.norm>
7.57714e-05

>  <SCORE.SYSTEM>
0

>  <SCORE.SYSTEM.CONST>
0

>  <SCORE.SYSTEM.DIHEDRAL>
0

>  <SCORE.SYSTEM.SOLV>
0

>  <SCORE.SYSTEM.norm>
0

>  <SCORE.heavy>
42

>  <SCORE.norm>
-0.177522

>  <RMSD>
1.133

$$$$
ligand
 OpenBabel02271912133D
libRbt.so/2013.1/901 2013/11/27
 42 45  0  0  0  0  0  0  0  0999 V2000
    6.7895   -0.0448    3.3087 C   0  0  2  0  0  0  0  0  0  0  0  0
    7.2088   -0.0332    4.6840 O   0  0  0  0  0  0  0  0  0  0  0  0
   10.2648    2.1848    6.8142 C   0  0  2  0  0  0  0  0  0  0  0  0
   11.5692    2.7899    7.2174 N   0  0  0  0  0  0  0  0  0  0  0  0
    8.0718    3.5734    2.9202 C   0  0  1  0  0  0  0  0  0  0  0  0
    6.6371    6.9490    0.4498 C   0  0  1  0  0  0  0  0  0  0  0  0
    5.3066   -0.5232    3.2891 C   0  0  2  0  0  0  0  0  0  0  0  0
    4.4636    0.2144    4.2461 N   0  0  0  0  0  0  0  0  0  0  0  0
   10.3181    0.6056    6.8856 C   0  0  0  0  0  0  0  0  0  0  0  0
    8.2065    3.6261    1.3678 C   0  0  2  0  0  0  0  0  0  0  0  0
    9.5278    3.9969    0.9032 O   0  0  0  0  0  0  0  0  0  0  0  0
    7.1573    8.4311    0.4907 C   0  0  2  0  0  0  0  0  0  0  0  0
    7.5447    8.8223    1.8792 N   0  0  0  0  0  0  0  0  0  0  0  0
    5.1700   -2.0172    3.6356 C   0  0  1  0  0  0  0  0  0  0  0  0
    3.8013   -2.4206    3.5668 O   0  0  0  0  0  0  0  0  0  0  0  0
    8.9115    0.0283    6.4722 C   0  0  2  0  0  0  0  0  0  0  0  0
    8.9213   -1.4579    6.5423 N   0  0  0  0  0  0  0  0  0  0  0  0
    7.0806    4.5955    1.0047 C   0  0  2  0  0  0  0  0  0  0  0  0
    7.5500    5.9811    0.9822 O   0  0  0  0  0  0  0  0  0  0  0  0
    6.0240    9.4053   -0.0866 C   0  0  1  0  0  0  0  0  0  0  0  0
    5.9545    9.2426   -1.5211 O   0  0  0  0  0  0  0  0  0  0  0  0
    6.0529   -2.8511    2.6794 C   0  0  2  0  0  0  0  0  0  0  0  0
    5.9260   -4.2231    2.9728 O   0  0  0  0  0  0  0  0  0  0  0  0
    8.5291    0.4875    5.0098 C   0  0  2  0  0  0  0  0  0  0  0  0
    5.9880    4.3945    2.0683 C   0  0  2  0  0  0  0  0  0  0  0  0
    6.7316    4.0221    3.2262 O   0  0  0  0  0  0  0  0  0  0  0  0
    4.5815    9.1302    0.5545 C   0  0  2  0  0  0  0  0  0  0  0  0
    4.6308    9.5431    1.9196 O   0  0  0  0  0  0  0  0  0  0  0  0
    7.5412   -2.3896    2.8258 C   0  0  2  0  0  0  0  0  0  0  0  0
    7.6452   -0.9616    2.5258 O   0  0  0  0  0  0  0  0  0  0  0  0
    8.5123    2.0235    4.8495 C   0  0  2  0  0  0  0  0  0  0  0  0
    8.3295    2.2570    3.4259 O   0  0  0  0  0  0  0  0  0  0  0  0
    4.9182    3.3145    1.7169 C   0  0  0  0  0  0  0  0  0  0  0  0
    5.5693    2.0745    1.4572 O   0  0  0  0  0  0  0  0  0  0  0  0
    4.2138    7.6011    0.4603 C   0  0  1  0  0  0  0  0  0  0  0  0
    5.2960    6.8769    1.1492 O   0  0  0  0  0  0  0  0  0  0  0  0
    8.4784   -3.1517    1.9177 C   0  0  0  0  0  0  0  0  0  0  0  0
    8.5668   -4.4942    2.3287 O   0  0  0  0  0  0  0  0  0  0  0  0
    9.8845    2.6425    5.3491 C   0  0  1  0  0  0  0  0  0  0  0  0
    9.8127    4.0710    5.3428 O   0  0  0  0  0  0  0  0  0  0  0  0
    2.8080    7.2321    1.1053 C   0  0  0  0  0  0  0  0  0  0  0  0
    2.6880    7.4797    2.5685 N   0  0  0  0  0  0  0  0  0  0  0  0
  1  2  1  1  0  0  0
  1  7  1  0  0  0  0
  1 30  1  0  0  0  0
  3  4  1  6  0  0  0
  3  9  1  0  0  0  0
  3 39  1  0  0  0  0
  5 10  1  0  0  0  0
  5 26  1  0  0  0  0
  5 32  1  6  0  0  0
  6 12  1  0  0  0  0
  6 36  1  0  0  0  0
  6 19  1  1  0  0  0
  7  8  1  1  0  0  0
  7 14  1  0  0  0  0
  9 16  1  0  0  0  0
 10 11  1  1  0  0  0
 10 18  1  0  0  0  0
 12 13  1  1  0  0  0
 12 20  1  0  0  0  0
 14 15  1  6  0  0  0
 14 22  1  0  0  0  0
 16 17  1  6  0  0  0
 16 24  1  0  0  0  0
 18 19  1  1  0  0  0
 18 25  1  0  0  0  0
 20 21  1  6  0  0  0
 20 27  1  0  0  0  0
 22 23  1  1  0  0  0
 22 29  1  0  0  0  0
 24  2  1  1  0  0  0
 24 31  1  0  0  0  0
 25 26  1  0  0  0  0
 25 33  1  6  0  0  0
 27 28  1  1  0  0  0
 27 35  1  0  0  0  0
 29 30  1  0  0  0  0
 29 37  1  6  0  0  0
 31 32  1  6  0  0  0
 31 39  1  0  0  0  0
 33 34  1  0  0  0  0
 35 36  1  0  0  0  0
 35 41  1  1  0  0  0
 37 38  1  0  0  0  0
 39 40  1  1  0  0  0
 41 42  1  0  0  0  0
M  END
>  <CHROM.1>
-174.77655649,-164.21169773,170.45165271,177.89275156,56.17554187,-67.83081352
170.90056189,168.17151475,-62.76899824,6.97278535,2.81578699,2.84689009,1.32330221
0.63894890,2.96266241

>  <Name>
ligand

>  <RI>
0

>  <Rbt.Current_Directory>
/home/itssahil/PROJECTS/Mol_Feturizer/Test_systems_manuscript/rnas/2o3w

>  <Rbt.Executable>
rbdock ($Id: //depot/dev/client3/rdock/2013.1/src/exe/rbdock.cxx#4 $)

>  <Rbt.Library>
libRbt.so (2013.1, Build901 2013/11/27)

>  <Rbt.Parameter_File>
/export/apps/rDock/src/rDock_2013.1_src/data/scripts/dock_solv.prm

>  <Rbt.Receptor>
prm/pocket_docking_2.prm

>  <SCORE>
-7.18878

>  <SCORE.INTER>
4.75897

>  <SCORE.INTER.CONST>
1

>  <SCORE.INTER.POLAR>
0

>  <SCORE.INTER.ROT>
9

>  <SCORE.INTER.SOLV>
13.9873

>  <SCORE.INTER.VDW>
-11.0898

>  <SCORE.INTER.norm>
0.113309

>  <SCORE.INTRA>
-11.9478

>  <SCORE.INTRA.DIHEDRAL>
-24.639

>  <SCORE.INTRA.DIHEDRAL.0>
27.8999

>  <SCORE.INTRA.POLAR>
0

>  <SCORE.INTRA.POLAR.0>
0

>  <SCORE.INTRA.REPUL>
0

>  <SCORE.INTRA.REPUL.0>
0

>  <SCORE.INTRA.SOLV>
-2.33813

>  <SCORE.INTRA.SOLV.lig_0>
-104.479

>  <SCORE.INTRA.VDW>
1.5408

>  <SCORE.INTRA.VDW.0>
-6.17816

>  <SCORE.INTRA.norm>
-0.28447

>  <SCORE.RESTR>
0

>  <SCORE.RESTR.CAVITY>
0

>  <SCORE.RESTR.norm>
0

>  <SCORE.SYSTEM>
0

>  <SCORE.SYSTEM.CONST>
0

>  <SCORE.SYSTEM.DIHEDRAL>
0

>  <SCORE.SYSTEM.SOLV>
0

>  <SCORE.SYSTEM.norm>
0

>  <SCORE.heavy>
42

>  <SCORE.norm>
-0.171161

>  <RMSD>
1.137

$$$$
ligand
 OpenBabel02271912133D
libRbt.so/2013.1/901 2013/11/27
 42 45  0  0  0  0  0  0  0  0999 V2000
    6.8420    0.1310    3.5072 C   0  0  2  0  0  0  0  0  0  0  0  0
    7.3477    0.0379    4.8500 O   0  0  0  0  0  0  0  0  0  0  0  0
   10.7138    1.9154    6.8349 C   0  0  2  0  0  0  0  0  0  0  0  0
   12.0903    2.3868    7.1720 N   0  0  0  0  0  0  0  0  0  0  0  0
    8.3426    3.5697    3.1086 C   0  0  1  0  0  0  0  0  0  0  0  0
    6.7391    7.0388    0.9012 C   0  0  1  0  0  0  0  0  0  0  0  0
    5.3139   -0.1661    3.5748 C   0  0  2  0  0  0  0  0  0  0  0  0
    4.6304    0.6281    4.6106 N   0  0  0  0  0  0  0  0  0  0  0  0
   10.6205    0.3371    6.8802 C   0  0  0  0  0  0  0  0  0  0  0  0
    8.2899    3.6428    1.5521 C   0  0  2  0  0  0  0  0  0  0  0  0
    9.5581    3.9735    0.9344 O   0  0  0  0  0  0  0  0  0  0  0  0
    7.3326    8.4922    0.8360 C   0  0  2  0  0  0  0  0  0  0  0  0
    7.9747    8.8648    2.1321 N   0  0  0  0  0  0  0  0  0  0  0  0
    5.0193   -1.6458    3.8824 C   0  0  1  0  0  0  0  0  0  0  0  0
    3.6101   -1.8801    3.8956 O   0  0  0  0  0  0  0  0  0  0  0  0
    9.1448   -0.0968    6.5391 C   0  0  2  0  0  0  0  0  0  0  0  0
    9.0169   -1.5784    6.5869 N   0  0  0  0  0  0  0  0  0  0  0  0
    7.1655    4.6578    1.3403 C   0  0  2  0  0  0  0  0  0  0  0  0
    7.6805    6.0259    1.2771 O   0  0  0  0  0  0  0  0  0  0  0  0
    6.1669    9.5227    0.4539 C   0  0  1  0  0  0  0  0  0  0  0  0
    5.8411    9.3618   -0.9449 O   0  0  0  0  0  0  0  0  0  0  0  0
    5.7305   -2.5403    2.8416 C   0  0  2  0  0  0  0  0  0  0  0  0
    5.4570   -3.8979    3.0995 O   0  0  0  0  0  0  0  0  0  0  0  0
    8.7275    0.4253    5.1076 C   0  0  2  0  0  0  0  0  0  0  0  0
    6.2032    4.4789    2.5265 C   0  0  2  0  0  0  0  0  0  0  0  0
    7.0672    4.0612    3.5808 O   0  0  0  0  0  0  0  0  0  0  0  0
    4.8457    9.3231    1.3384 C   0  0  2  0  0  0  0  0  0  0  0  0
    5.1523    9.7348    2.6699 O   0  0  0  0  0  0  0  0  0  0  0  0
    7.2703   -2.2656    2.8995 C   0  0  2  0  0  0  0  0  0  0  0  0
    7.5274   -0.8494    2.6385 O   0  0  0  0  0  0  0  0  0  0  0  0
    8.8481    1.9589    4.9709 C   0  0  2  0  0  0  0  0  0  0  0  0
    8.6100    2.2369    3.5636 O   0  0  0  0  0  0  0  0  0  0  0  0
    5.0589    3.4438    2.2953 C   0  0  0  0  0  0  0  0  0  0  0  0
    4.4149    3.7234    1.0560 O   0  0  0  0  0  0  0  0  0  0  0  0
    4.3906    7.8149    1.3251 C   0  0  1  0  0  0  0  0  0  0  0  0
    5.5380    7.0368    1.8233 O   0  0  0  0  0  0  0  0  0  0  0  0
    8.0471   -3.0972    1.9052 C   0  0  0  0  0  0  0  0  0  0  0  0
    8.0422   -4.4490    2.2950 O   0  0  0  0  0  0  0  0  0  0  0  0
   10.2985    2.4359    5.4006 C   0  0  1  0  0  0  0  0  0  0  0  0
   10.3627    3.8646    5.4192 O   0  0  0  0  0  0  0  0  0  0  0  0
    3.1014    7.5197    2.2080 C   0  0  0  0  0  0  0  0  0  0  0  0
    2.5468    6.1427    2.0946 N   0  0  0  0  0  0  0  0  0  0  0  0
  1  2  1  1  0  0  0
  1  7  1  0  0  0  0
  1 30  1  0  0  0  0
  3  4  1  6  0  0  0
  3  9  1  0  0  0  0
  3 39  1  0  0  0  0
  5 10  1  0  0  0  0
  5 26  1  0  0  0  0
  5 32  1  6  0  0  0
  6 12  1  0  0  0  0
  6 36  1  0  0  0  0
  6 19  1  1  0  0  0
  7  8  1  1  0  0  0
  7 14  1  0  0  0  0
  9 16  1  0  0  0  0
 10 11  1  1  0  0  0
 10 18  1  0  0  0  0
 12 13  1  1  0  0  0
 12 20  1  0  0  0  0
 14 15  1  6  0  0  0
 14 22  1  0  0  0  0
 16 17  1  6  0  0  0
 16 24  1  0  0  0  0
 18 19  1  1  0  0  0
 18 25  1  0  0  0  0
 20 21  1  6  0  0  0
 20 27  1  0  0  0  0
 22 23  1  1  0  0  0
 22 29  1  0  0  0  0
 24  2  1  1  0  0  0
 24 31  1  0  0  0  0
 25 26  1  0  0  0  0
 25 33  1  6  0  0  0
 27 28  1  1  0  0  0
 27 35  1  0  0  0  0
 29 30  1  0  0  0  0
 29 37  1  6  0  0  0
 31 32  1  6  0  0  0
 31 39  1  0  0  0  0
 33 34  1  0  0  0  0
 35 36  1  0  0  0  0
 35 41  1  1  0  0  0
 37 38  1  0  0  0  0
 39 40  1  1  0  0  0
 41 42  1  0  0  0  0
M  END
>  <CHROM.1>
-172.81776075,-166.04104564,171.83995948,-179.62728708,-49.97355921,-70.13340811
165.74931098,173.22159045,173.10086523,7.04959084,2.90074594,3.09417899,1.35117849
0.53962807,2.95219993

>  <Name>
ligand

>  <RI>
0

>  <Rbt.Current_Directory>
/home/itssahil/PROJECTS/Mol_Feturizer/Test_systems_manuscript/rnas/2o3w

>  <Rbt.Executable>
rbdock ($Id: //depot/dev/client3/rdock/2013.1/src/exe/rbdock.cxx#4 $)

>  <Rbt.Library>
libRbt.so (2013.1, Build901 2013/11/27)

>  <Rbt.Parameter_File>
/export/apps/rDock/src/rDock_2013.1_src/data/scripts/dock_solv.prm

>  <Rbt.Receptor>
prm/pocket_docking_2.prm

>  <SCORE>
-8.9973

>  <SCORE.INTER>
2.97138

>  <SCORE.INTER.CONST>
1

>  <SCORE.INTER.POLAR>
0

>  <SCORE.INTER.ROT>
9

>  <SCORE.INTER.SOLV>
15.0649

>  <SCORE.INTER.VDW>
-12.6407

>  <SCORE.INTER.norm>
0.0707472

>  <SCORE.INTRA>
-12.0199

>  <SCORE.INTRA.DIHEDRAL>
-24.2194

>  <SCORE.INTRA.DIHEDRAL.0>
27.8999

>  <SCORE.INTRA.POLAR>
0

>  <SCORE.INTRA.POLAR.0>
0

>  <SCORE.INTRA.REPUL>
0

>  <SCORE.INTRA.REPUL.0>
0

>  <SCORE.INTRA.SOLV>
-3.13065

>  <SCORE.INTRA.SOLV.lig_0>
-104.479

>  <SCORE.INTRA.VDW>
1.6551

>  <SCORE.INTRA.VDW.0>
-6.17816

>  <SCORE.INTRA.norm>
-0.286189

>  <SCORE.RESTR>
0.0512593

>  <SCORE.RESTR.CAVITY>
0.0512593

>  <SCORE.RESTR.norm>
0.00122046

>  <SCORE.SYSTEM>
0

>  <SCORE.SYSTEM.CONST>
0

>  <SCORE.SYSTEM.DIHEDRAL>
0

>  <SCORE.SYSTEM.SOLV>
0

>  <SCORE.SYSTEM.norm>
0

>  <SCORE.heavy>
42

>  <SCORE.norm>
-0.214221

>  <RMSD>
1.139

$$$$
ligand
 OpenBabel02271912133D
libRbt.so/2013.1/901 2013/11/27
 42 45  0  0  0  0  0  0  0  0999 V2000
    6.8431   -0.0755    3.4458 C   0  0  2  0  0  0  0  0  0  0  0  0
    7.3387   -0.1224    4.7946 O   0  0  0  0  0  0  0  0  0  0  0  0
   10.6695    1.8136    6.7830 C   0  0  2  0  0  0  0  0  0  0  0  0
   12.0366    2.3113    7.1201 N   0  0  0  0  0  0  0  0  0  0  0  0
    8.2865    3.4420    3.0649 C   0  0  1  0  0  0  0  0  0  0  0  0
    6.7347    6.9137    0.8366 C   0  0  1  0  0  0  0  0  0  0  0  0
    5.3099   -0.3452    3.5147 C   0  0  2  0  0  0  0  0  0  0  0  0
    4.6329    0.5009    4.5128 N   0  0  0  0  0  0  0  0  0  0  0  0
   10.6084    0.2335    6.8208 C   0  0  0  0  0  0  0  0  0  0  0  0
    8.3172    3.5354    1.5089 C   0  0  2  0  0  0  0  0  0  0  0  0
    9.6107    3.8974    0.9657 O   0  0  0  0  0  0  0  0  0  0  0  0
    7.3193    8.3703    0.7638 C   0  0  2  0  0  0  0  0  0  0  0  0
    7.9460    8.7592    2.0626 N   0  0  0  0  0  0  0  0  0  0  0  0
    4.9894   -1.8064    3.8796 C   0  0  1  0  0  0  0  0  0  0  0  0
    3.5766   -2.0175    3.8924 O   0  0  0  0  0  0  0  0  0  0  0  0
    9.1411   -0.2287    6.4801 C   0  0  2  0  0  0  0  0  0  0  0  0
    9.0435   -1.7127    6.5209 N   0  0  0  0  0  0  0  0  0  0  0  0
    7.1871    4.5327    1.2488 C   0  0  2  0  0  0  0  0  0  0  0  0
    7.6790    5.9106    1.2312 O   0  0  0  0  0  0  0  0  0  0  0  0
    6.1506    9.3895    0.3607 C   0  0  1  0  0  0  0  0  0  0  0  0
    5.8398    9.2135   -1.0398 O   0  0  0  0  0  0  0  0  0  0  0  0
    5.6926   -2.7534    2.8807 C   0  0  2  0  0  0  0  0  0  0  0  0
    5.3956   -4.0950    3.1912 O   0  0  0  0  0  0  0  0  0  0  0  0
    8.7108    0.2918    5.0519 C   0  0  2  0  0  0  0  0  0  0  0  0
    6.1651    4.3202    2.3783 C   0  0  2  0  0  0  0  0  0  0  0  0
    6.9782    3.9038    3.4728 O   0  0  0  0  0  0  0  0  0  0  0  0
    4.8221    9.1893    1.2339 C   0  0  2  0  0  0  0  0  0  0  0  0
    5.1128    9.6153    2.5645 O   0  0  0  0  0  0  0  0  0  0  0  0
    7.2362   -2.5012    2.9382 C   0  0  2  0  0  0  0  0  0  0  0  0
    7.5180   -1.1010    2.6220 O   0  0  0  0  0  0  0  0  0  0  0  0
    8.8000    1.8282    4.9225 C   0  0  2  0  0  0  0  0  0  0  0  0
    8.5537    2.1081    3.5169 O   0  0  0  0  0  0  0  0  0  0  0  0
    5.0548    3.2679    2.0718 C   0  0  0  0  0  0  0  0  0  0  0  0
    5.6644    2.0354    1.6999 O   0  0  0  0  0  0  0  0  0  0  0  0
    4.3770    7.6780    1.2302 C   0  0  1  0  0  0  0  0  0  0  0  0
    5.5245    6.9122    1.7469 O   0  0  0  0  0  0  0  0  0  0  0  0
    8.0057   -3.3846    1.9836 C   0  0  0  0  0  0  0  0  0  0  0  0
    9.3851   -3.2955    2.2455 O   0  0  0  0  0  0  0  0  0  0  0  0
   10.2411    2.3325    5.3520 C   0  0  1  0  0  0  0  0  0  0  0  0
   10.2763    3.7621    5.3774 O   0  0  0  0  0  0  0  0  0  0  0  0
    3.0811    7.3824    2.1031 C   0  0  0  0  0  0  0  0  0  0  0  0
    2.5614    5.9892    2.0296 N   0  0  0  0  0  0  0  0  0  0  0  0
  1  2  1  1  0  0  0
  1  7  1  0  0  0  0
  1 30  1  0  0  0  0
  3  4  1  6  0  0  0
  3  9  1  0  0  0  0
  3 39  1  0  0  0  0
  5 10  1  0  0  0  0
  5 26  1  0  0  0  0
  5 32  1  6  0  0  0
  6 12  1  0  0  0  0
  6 36  1  0  0  0  0
  6 19  1  1  0  0  0
  7  8  1  1  0  0  0
  7 14  1  0  0  0  0
  9 16  1  0  0  0  0
 10 11  1  1  0  0  0
 10 18  1  0  0  0  0
 12 13  1  1  0  0  0
 12 20  1  0  0  0  0
 14 15  1  6  0  0  0
 14 22  1  0  0  0  0
 16 17  1  6  0  0  0
 16 24  1  0  0  0  0
 18 19  1  1  0  0  0
 18 25  1  0  0  0  0
 20 21  1  6  0  0  0
 20 27  1  0  0  0  0
 22 23  1  1  0  0  0
 22 29  1  0  0  0  0
 24  2  1  1  0  0  0
 24 31  1  0  0  0  0
 25 26  1  0  0  0  0
 25 33  1  6  0  0  0
 27 28  1  1  0  0  0
 27 35  1  0  0  0  0
 29 30  1  0  0  0  0
 29 37  1  6  0  0  0
 31 32  1  6  0  0  0
 31 39  1  0  0  0  0
 33 34  1  0  0  0  0
 35 36  1  0  0  0  0
 35 41  1  1  0  0  0
 37 38  1  0  0  0  0
 39 40  1  1  0  0  0
 41 42  1  0  0  0  0
M  END
>  <CHROM.1>
-170.97978225,-163.97448183,172.74788899,-177.19791912,54.58279109,-169.30994249
167.08603216,169.47689959,174.91577575,7.09841079,2.74962380,3.05877247,1.34895222
0.51356654,2.94073289

>  <Name>
ligand

>  <RI>
0

>  <Rbt.Current_Directory>
/home/itssahil/PROJECTS/Mol_Feturizer/Test_systems_manuscript/rnas/2o3w

>  <Rbt.Executable>
rbdock ($Id: //depot/dev/client3/rdock/2013.1/src/exe/rbdock.cxx#4 $)

>  <Rbt.Library>
libRbt.so (2013.1, Build901 2013/11/27)

>  <Rbt.Parameter_File>
/export/apps/rDock/src/rDock_2013.1_src/data/scripts/dock_solv.prm

>  <Rbt.Receptor>
prm/pocket_docking_2.prm

>  <SCORE>
-8.96282

>  <SCORE.INTER>
3.147

>  <SCORE.INTER.CONST>
1

>  <SCORE.INTER.POLAR>
0

>  <SCORE.INTER.ROT>
9

>  <SCORE.INTER.SOLV>
13.8954

>  <SCORE.INTER.VDW>
-12.1338

>  <SCORE.INTER.norm>
0.0749286

>  <SCORE.INTRA>
-12.1426

>  <SCORE.INTRA.DIHEDRAL>
-23.9448

>  <SCORE.INTRA.DIHEDRAL.0>
27.8999

>  <SCORE.INTRA.POLAR>
0

>  <SCORE.INTRA.POLAR.0>
0

>  <SCORE.INTRA.REPUL>
0

>  <SCORE.INTRA.REPUL.0>
0

>  <SCORE.INTRA.SOLV>
-2.80969

>  <SCORE.INTRA.SOLV.lig_0>
-104.479

>  <SCORE.INTRA.VDW>
1.23461

>  <SCORE.INTRA.VDW.0>
-6.17816

>  <SCORE.INTRA.norm>
-0.28911

>  <SCORE.RESTR>
0.032806

>  <SCORE.RESTR.CAVITY>
0.032806

>  <SCORE.RESTR.norm>
0.000781096

>  <SCORE.SYSTEM>
0

>  <SCORE.SYSTEM.CONST>
0

>  <SCORE.SYSTEM.DIHEDRAL>
0

>  <SCORE.SYSTEM.SOLV>
0

>  <SCORE.SYSTEM.norm>
0

>  <SCORE.heavy>
42

>  <SCORE.norm>
-0.213401

>  <RMSD>
1.143

$$$$
ligand
 OpenBabel02271912133D
libRbt.so/2013.1/901 2013/11/27
 42 45  0  0  0  0  0  0  0  0999 V2000
    6.9100   -0.0775    3.3679 C   0  0  2  0  0  0  0  0  0  0  0  0
    7.3263   -0.0910    4.7440 O   0  0  0  0  0  0  0  0  0  0  0  0
   10.3795    2.0773    6.9287 C   0  0  2  0  0  0  0  0  0  0  0  0
   11.6830    2.6745    7.3465 N   0  0  0  0  0  0  0  0  0  0  0  0
    8.2067    3.5663    3.0715 C   0  0  1  0  0  0  0  0  0  0  0  0
    6.7335    7.0439    0.8260 C   0  0  1  0  0  0  0  0  0  0  0  0
    5.4452   -0.6075    3.3304 C   0  0  2  0  0  0  0  0  0  0  0  0
    4.5748    0.0715    4.3061 N   0  0  0  0  0  0  0  0  0  0  0  0
   10.4363    0.4969    6.9589 C   0  0  0  0  0  0  0  0  0  0  0  0
    8.2458    3.6348    1.5144 C   0  0  2  0  0  0  0  0  0  0  0  0
    9.5495    3.9581    0.9713 O   0  0  0  0  0  0  0  0  0  0  0  0
    7.3377    8.4938    0.7850 C   0  0  2  0  0  0  0  0  0  0  0  0
    7.9703    8.8452    2.0916 N   0  0  0  0  0  0  0  0  0  0  0  0
    5.3612   -2.1149    3.6330 C   0  0  1  0  0  0  0  0  0  0  0  0
    4.0078   -2.5645    3.5489 O   0  0  0  0  0  0  0  0  0  0  0  0
    9.0306   -0.0725    6.5317 C   0  0  2  0  0  0  0  0  0  0  0  0
    9.0437   -1.5599    6.5630 N   0  0  0  0  0  0  0  0  0  0  0  0
    7.1404    4.6540    1.2341 C   0  0  2  0  0  0  0  0  0  0  0  0
    7.6643    6.0196    1.1974 O   0  0  0  0  0  0  0  0  0  0  0  0
    6.1826    9.5373    0.4057 C   0  0  1  0  0  0  0  0  0  0  0  0
    5.8686    9.3967   -0.9980 O   0  0  0  0  0  0  0  0  0  0  0  0
    6.2748   -2.8887    2.6554 C   0  0  2  0  0  0  0  0  0  0  0  0
    6.1964   -4.2723    2.9085 O   0  0  0  0  0  0  0  0  0  0  0  0
    8.6458    0.4239    5.0821 C   0  0  2  0  0  0  0  0  0  0  0  0
    6.1092    4.4829    2.3623 C   0  0  2  0  0  0  0  0  0  0  0  0
    6.9080    4.0647    3.4666 O   0  0  0  0  0  0  0  0  0  0  0  0
    4.8521    9.3357    1.2754 C   0  0  2  0  0  0  0  0  0  0  0  0
    5.1492    9.7281    2.6149 O   0  0  0  0  0  0  0  0  0  0  0  0
    7.7455   -2.3790    2.8191 C   0  0  2  0  0  0  0  0  0  0  0  0
    7.7991   -0.9402    2.5610 O   0  0  0  0  0  0  0  0  0  0  0  0
    8.6256    1.9635    4.9620 C   0  0  2  0  0  0  0  0  0  0  0  0
    8.4409    2.2337    3.5452 O   0  0  0  0  0  0  0  0  0  0  0  0
    4.9758    3.4521    2.0672 C   0  0  0  0  0  0  0  0  0  0  0  0
    5.5494    2.1605    1.8887 O   0  0  0  0  0  0  0  0  0  0  0  0
    4.3866    7.8310    1.2386 C   0  0  1  0  0  0  0  0  0  0  0  0
    5.5240    7.0385    1.7371 O   0  0  0  0  0  0  0  0  0  0  0  0
    8.7107   -3.0806    1.8918 C   0  0  0  0  0  0  0  0  0  0  0  0
    8.8151   -4.4400    2.2388 O   0  0  0  0  0  0  0  0  0  0  0  0
    9.9969    2.5723    5.4764 C   0  0  1  0  0  0  0  0  0  0  0  0
    9.9220    4.0002    5.5075 O   0  0  0  0  0  0  0  0  0  0  0  0
    3.0873    7.5336    2.1058 C   0  0  0  0  0  0  0  0  0  0  0  0
    2.5816    6.1346    2.0460 N   0  0  0  0  0  0  0  0  0  0  0  0
  1  2  1  1  0  0  0
  1  7  1  0  0  0  0
  1 30  1  0  0  0  0
  3  4  1  6  0  0  0
  3  9  1  0  0  0  0
  3 39  1  0  0  0  0
  5 10  1  0  0  0  0
  5 26  1  0  0  0  0
  5 32  1  6  0  0  0
  6 12  1  0  0  0  0
  6 36  1  0  0  0  0
  6 19  1  1  0  0  0
  7  8  1  1  0  0  0
  7 14  1  0  0  0  0
  9 16  1  0  0  0  0
 10 11  1  1  0  0  0
 10 18  1  0  0  0  0
 12 13  1  1  0  0  0
 12 20  1  0  0  0  0
 14 15  1  6  0  0  0
 14 22  1  0  0  0  0
 16 17  1  6  0  0  0
 16 24  1  0  0  0  0
 18 19  1  1  0  0  0
 18 25  1  0  0  0  0
 20 21  1  6  0  0  0
 20 27  1  0  0  0  0
 22 23  1  1  0  0  0
 22 29  1  0  0  0  0
 24  2  1  1  0  0  0
 24 31  1  0  0  0  0
 25 26  1  0  0  0  0
 25 33  1  6  0  0  0
 27 28  1  1  0  0  0
 27 35  1  0  0  0  0
 29 30  1  0  0  0  0
 29 37  1  6  0  0  0
 31 32  1  6  0  0  0
 31 39  1  0  0  0  0
 33 34  1  0  0  0  0
 35 36  1  0  0  0  0
 35 41  1  1  0  0  0
 37 38  1  0  0  0  0
 39 40  1  1  0  0  0
 41 42  1  0  0  0  0
M  END
>  <CHROM.1>
-176.89338903,-163.72090261,174.74020288,-179.44081699,62.10803170,-66.04938759
172.16923849,171.78563558,177.34528061,7.12120542,2.80040459,3.04480616,1.33815646
0.62482674,3.00028815

>  <Name>
ligand

>  <RI>
0

>  <Rbt.Current_Directory>
/home/itssahil/PROJECTS/Mol_Feturizer/Test_systems_manuscript/rnas/2o3w

>  <Rbt.Executable>
rbdock ($Id: //depot/dev/client3/rdock/2013.1/src/exe/rbdock.cxx#4 $)

>  <Rbt.Library>
libRbt.so (2013.1, Build901 2013/11/27)

>  <Rbt.Parameter_File>
/export/apps/rDock/src/rDock_2013.1_src/data/scripts/dock_solv.prm

>  <Rbt.Receptor>
prm/pocket_docking_2.prm

>  <SCORE>
-8.95981

>  <SCORE.INTER>
3.32174

>  <SCORE.INTER.CONST>
1

>  <SCORE.INTER.POLAR>
0

>  <SCORE.INTER.ROT>
9

>  <SCORE.INTER.SOLV>
14.1978

>  <SCORE.INTER.VDW>
-12.1181

>  <SCORE.INTER.norm>
0.0790889

>  <SCORE.INTRA>
-12.2898

>  <SCORE.INTRA.DIHEDRAL>
-25.5556

>  <SCORE.INTRA.DIHEDRAL.0>
27.8999

>  <SCORE.INTRA.POLAR>
0

>  <SCORE.INTRA.POLAR.0>
0

>  <SCORE.INTRA.REPUL>
0

>  <SCORE.INTRA.REPUL.0>
0

>  <SCORE.INTRA.SOLV>
-2.54747

>  <SCORE.INTRA.SOLV.lig_0>
-104.479

>  <SCORE.INTRA.VDW>
1.76176

>  <SCORE.INTRA.VDW.0>
-6.17816

>  <SCORE.INTRA.norm>
-0.292613

>  <SCORE.RESTR>
0.00820703

>  <SCORE.RESTR.CAVITY>
0.00820703

>  <SCORE.RESTR.norm>
0.000195406

>  <SCORE.SYSTEM>
0

>  <SCORE.SYSTEM.CONST>
0

>  <SCORE.SYSTEM.DIHEDRAL>
0

>  <SCORE.SYSTEM.SOLV>
0

>  <SCORE.SYSTEM.norm>
0

>  <SCORE.heavy>
42

>  <SCORE.norm>
-0.213329

>  <RMSD>
1.147

$$$$
ligand
 OpenBabel02271912133D
libRbt.so/2013.1/901 2013/11/27
 42 45  0  0  0  0  0  0  0  0999 V2000
    6.7518   -0.1079    3.2721 C   0  0  2  0  0  0  0  0  0  0  0  0
    7.1530   -0.0834    4.6526 O   0  0  0  0  0  0  0  0  0  0  0  0
   10.1385    2.1775    6.8368 C   0  0  2  0  0  0  0  0  0  0  0  0
   11.4242    2.8106    7.2569 N   0  0  0  0  0  0  0  0  0  0  0  0
    7.9657    3.5848    2.9553 C   0  0  1  0  0  0  0  0  0  0  0  0
    6.5826    7.0086    0.5508 C   0  0  1  0  0  0  0  0  0  0  0  0
    5.2810   -0.6213    3.2346 C   0  0  2  0  0  0  0  0  0  0  0  0
    4.4085    0.0980    4.1790 N   0  0  0  0  0  0  0  0  0  0  0  0
   10.2349    0.5993    6.8793 C   0  0  0  0  0  0  0  0  0  0  0  0
    8.1682    3.6747    1.4120 C   0  0  2  0  0  0  0  0  0  0  0  0
    9.5045    4.0692    1.0150 O   0  0  0  0  0  0  0  0  0  0  0  0
    7.0701    8.4963    0.6844 C   0  0  2  0  0  0  0  0  0  0  0  0
    7.4178    8.8186    2.1007 N   0  0  0  0  0  0  0  0  0  0  0  0
    5.1754   -2.1175    3.5830 C   0  0  1  0  0  0  0  0  0  0  0  0
    3.8176   -2.5534    3.4977 O   0  0  0  0  0  0  0  0  0  0  0  0
    8.8464   -0.0085    6.4491 C   0  0  2  0  0  0  0  0  0  0  0  0
    8.8968   -1.4949    6.4918 N   0  0  0  0  0  0  0  0  0  0  0  0
    7.0489    4.6411    1.0215 C   0  0  2  0  0  0  0  0  0  0  0  0
    7.5037    6.0315    1.0512 O   0  0  0  0  0  0  0  0  0  0  0  0
    5.9295    9.4778    0.1342 C   0  0  1  0  0  0  0  0  0  0  0  0
    5.8957    9.3925   -1.3082 O   0  0  0  0  0  0  0  0  0  0  0  0
    6.0900   -2.9322    2.6401 C   0  0  2  0  0  0  0  0  0  0  0  0
    5.9919   -4.3061    2.9351 O   0  0  0  0  0  0  0  0  0  0  0  0
    8.4571    0.4671    4.9937 C   0  0  2  0  0  0  0  0  0  0  0  0
    5.9127    4.4048    2.0307 C   0  0  2  0  0  0  0  0  0  0  0  0
    6.6085    4.0131    3.2117 O   0  0  0  0  0  0  0  0  0  0  0  0
    4.4792    9.1391    0.7253 C   0  0  2  0  0  0  0  0  0  0  0  0
    4.4891    9.4776    2.1115 O   0  0  0  0  0  0  0  0  0  0  0  0
    7.5650   -2.4351    2.8044 C   0  0  2  0  0  0  0  0  0  0  0  0
    7.6389   -1.0058    2.5024 O   0  0  0  0  0  0  0  0  0  0  0  0
    8.3988    2.0048    4.8618 C   0  0  2  0  0  0  0  0  0  0  0  0
    8.2152    2.2596    3.4420 O   0  0  0  0  0  0  0  0  0  0  0  0
    4.8712    3.3228    1.6079 C   0  0  0  0  0  0  0  0  0  0  0  0
    5.5505    2.1059    1.3132 O   0  0  0  0  0  0  0  0  0  0  0  0
    4.1464    7.6104    0.5395 C   0  0  1  0  0  0  0  0  0  0  0  0
    5.2280    6.8714    1.2134 O   0  0  0  0  0  0  0  0  0  0  0  0
    8.5315   -3.1767    1.9102 C   0  0  0  0  0  0  0  0  0  0  0  0
    8.5898   -4.5332    2.2786 O   0  0  0  0  0  0  0  0  0  0  0  0
    9.7515    2.6518    5.3788 C   0  0  1  0  0  0  0  0  0  0  0  0
    9.6404    4.0776    5.3985 O   0  0  0  0  0  0  0  0  0  0  0  0
    2.7346    7.1786    1.1303 C   0  0  0  0  0  0  0  0  0  0  0  0
    2.5712    7.3575    2.5993 N   0  0  0  0  0  0  0  0  0  0  0  0
  1  2  1  1  0  0  0
  1  7  1  0  0  0  0
  1 30  1  0  0  0  0
  3  4  1  6  0  0  0
  3  9  1  0  0  0  0
  3 39  1  0  0  0  0
  5 10  1  0  0  0  0
  5 26  1  0  0  0  0
  5 32  1  6  0  0  0
  6 12  1  0  0  0  0
  6 36  1  0  0  0  0
  6 19  1  1  0  0  0
  7  8  1  1  0  0  0
  7 14  1  0  0  0  0
  9 16  1  0  0  0  0
 10 11  1  1  0  0  0
 10 18  1  0  0  0  0
 12 13  1  1  0  0  0
 12 20  1  0  0  0  0
 14 15  1  6  0  0  0
 14 22  1  0  0  0  0
 16 17  1  6  0  0  0
 16 24  1  0  0  0  0
 18 19  1  1  0  0  0
 18 25  1  0  0  0  0
 20 21  1  6  0  0  0
 20 27  1  0  0  0  0
 22 23  1  1  0  0  0
 22 29  1  0  0  0  0
 24  2  1  1  0  0  0
 24 31  1  0  0  0  0
 25 26  1  0  0  0  0
 25 33  1  6  0  0  0
 27 28  1  1  0  0  0
 27 35  1  0  0  0  0
 29 30  1  0  0  0  0
 29 37  1  6  0  0  0
 31 32  1  6  0  0  0
 31 39  1  0  0  0  0
 33 34  1  0  0  0  0
 35 36  1  0  0  0  0
 35 41  1  1  0  0  0
 37 38  1  0  0  0  0
 39 40  1  1  0  0  0
 41 42  1  0  0  0  0
M  END
>  <CHROM.1>
-174.87517364,-162.85926416,172.89468114,176.26816522,54.57247465,-64.55308427
172.91622409,165.31109475,-62.11269647,6.91353322,2.80198070,2.87213295,1.31853733
0.64933464,2.98845638

>  <Name>
ligand

>  <RI>
0

>  <Rbt.Current_Directory>
/home/itssahil/PROJECTS/Mol_Feturizer/Test_systems_manuscript/rnas/2o3w

>  <Rbt.Executable>
rbdock ($Id: //depot/dev/client3/rdock/2013.1/src/exe/rbdock.cxx#4 $)

>  <Rbt.Library>
libRbt.so (2013.1, Build901 2013/11/27)

>  <Rbt.Parameter_File>
/export/apps/rDock/src/rDock_2013.1_src/data/scripts/dock_solv.prm

>  <Rbt.Receptor>
prm/pocket_docking_2.prm

>  <SCORE>
-7.25617

>  <SCORE.INTER>
4.385

>  <SCORE.INTER.CONST>
1

>  <SCORE.INTER.POLAR>
0

>  <SCORE.INTER.ROT>
9

>  <SCORE.INTER.SOLV>
13.9414

>  <SCORE.INTER.VDW>
-11.3238

>  <SCORE.INTER.norm>
0.104405

>  <SCORE.INTRA>
-11.6412

>  <SCORE.INTRA.DIHEDRAL>
-24.5107

>  <SCORE.INTRA.DIHEDRAL.0>
27.8999

>  <SCORE.INTRA.POLAR>
0

>  <SCORE.INTRA.POLAR.0>
0

>  <SCORE.INTRA.REPUL>
0

>  <SCORE.INTRA.REPUL.0>
0

>  <SCORE.INTRA.SOLV>
-2.44973

>  <SCORE.INTRA.SOLV.lig_0>
-104.479

>  <SCORE.INTRA.VDW>
1.83905

>  <SCORE.INTRA.VDW.0>
-6.17816

>  <SCORE.INTRA.norm>
-0.277171

>  <SCORE.RESTR>
0

>  <SCORE.RESTR.CAVITY>
0

>  <SCORE.RESTR.norm>
0

>  <SCORE.SYSTEM>
0

>  <SCORE.SYSTEM.CONST>
0

>  <SCORE.SYSTEM.DIHEDRAL>
0

>  <SCORE.SYSTEM.SOLV>
0

>  <SCORE.SYSTEM.norm>
0

>  <SCORE.heavy>
42

>  <SCORE.norm>
-0.172766

>  <RMSD>
1.150

$$$$
ligand
 OpenBabel02271912133D
libRbt.so/2013.1/901 2013/11/27
 42 45  0  0  0  0  0  0  0  0999 V2000
    6.8371   -0.0761    3.3362 C   0  0  2  0  0  0  0  0  0  0  0  0
    7.2556   -0.0740    4.7117 O   0  0  0  0  0  0  0  0  0  0  0  0
   10.3203    2.1025    6.8720 C   0  0  2  0  0  0  0  0  0  0  0  0
   11.6262    2.7006    7.2811 N   0  0  0  0  0  0  0  0  0  0  0  0
    8.1175    3.5717    3.0182 C   0  0  1  0  0  0  0  0  0  0  0  0
    6.6027    7.0279    0.7893 C   0  0  1  0  0  0  0  0  0  0  0  0
    5.3607   -0.5736    3.3105 C   0  0  2  0  0  0  0  0  0  0  0  0
    4.5076    0.1423    4.2749 N   0  0  0  0  0  0  0  0  0  0  0  0
   10.3756    0.5222    6.9101 C   0  0  0  0  0  0  0  0  0  0  0  0
    8.1673    3.6380    1.4613 C   0  0  2  0  0  0  0  0  0  0  0  0
    9.4702    3.9789    0.9273 O   0  0  0  0  0  0  0  0  0  0  0  0
    7.1774    8.4903    0.7855 C   0  0  2  0  0  0  0  0  0  0  0  0
    7.8023    8.8213    2.1011 N   0  0  0  0  0  0  0  0  0  0  0  0
    5.2435   -2.0731    3.6405 C   0  0  1  0  0  0  0  0  0  0  0  0
    3.8803   -2.4936    3.5666 O   0  0  0  0  0  0  0  0  0  0  0  0
    8.9676   -0.0480    6.4920 C   0  0  2  0  0  0  0  0  0  0  0  0
    8.9793   -1.5352    6.5309 N   0  0  0  0  0  0  0  0  0  0  0  0
    7.0495    4.6407    1.1708 C   0  0  2  0  0  0  0  0  0  0  0  0
    7.5541    6.0136    1.1354 O   0  0  0  0  0  0  0  0  0  0  0  0
    6.0015    9.5194    0.4318 C   0  0  1  0  0  0  0  0  0  0  0  0
    5.6909    9.4081   -0.9754 O   0  0  0  0  0  0  0  0  0  0  0  0
    6.1377   -2.8848    2.6758 C   0  0  2  0  0  0  0  0  0  0  0  0
    6.0288   -4.2614    2.9541 O   0  0  0  0  0  0  0  0  0  0  0  0
    8.5770    0.4413    5.0415 C   0  0  2  0  0  0  0  0  0  0  0  0
    6.0125    4.4569    2.2916 C   0  0  2  0  0  0  0  0  0  0  0  0
    6.8089    4.0522    3.4027 O   0  0  0  0  0  0  0  0  0  0  0  0
    4.6750    9.2689    1.2950 C   0  0  2  0  0  0  0  0  0  0  0  0
    4.9637    9.6332    2.6442 O   0  0  0  0  0  0  0  0  0  0  0  0
    7.6198   -2.4053    2.8281 C   0  0  2  0  0  0  0  0  0  0  0  0
    7.7051   -0.9730    2.5438 O   0  0  0  0  0  0  0  0  0  0  0  0
    8.5577    1.9803    4.9135 C   0  0  2  0  0  0  0  0  0  0  0  0
    8.3672    2.2434    3.4961 O   0  0  0  0  0  0  0  0  0  0  0  0
    4.8962    3.4094    1.9901 C   0  0  0  0  0  0  0  0  0  0  0  0
    5.4915    2.1299    1.7968 O   0  0  0  0  0  0  0  0  0  0  0  0
    4.2402    7.7565    1.2196 C   0  0  1  0  0  0  0  0  0  0  0  0
    5.3933    6.9749    1.6989 O   0  0  0  0  0  0  0  0  0  0  0  0
    8.5673   -3.1451    1.9123 C   0  0  0  0  0  0  0  0  0  0  0  0
    8.7043   -4.4807    2.3327 O   0  0  0  0  0  0  0  0  0  0  0  0
    9.9318    2.5904    5.4189 C   0  0  1  0  0  0  0  0  0  0  0  0
    9.8585    4.0186    5.4429 O   0  0  0  0  0  0  0  0  0  0  0  0
    2.9470    7.4109    2.0780 C   0  0  0  0  0  0  0  0  0  0  0  0
    1.6946    8.0974    1.6573 N   0  0  0  0  0  0  0  0  0  0  0  0
  1  2  1  1  0  0  0
  1  7  1  0  0  0  0
  1 30  1  0  0  0  0
  3  4  1  6  0  0  0
  3  9  1  0  0  0  0
  3 39  1  0  0  0  0
  5 10  1  0  0  0  0
  5 26  1  0  0  0  0
  5 32  1  6  0  0  0
  6 12  1  0  0  0  0
  6 36  1  0  0  0  0
  6 19  1  1  0  0  0
  7  8  1  1  0  0  0
  7 14  1  0  0  0  0
  9 16  1  0  0  0  0
 10 11  1  1  0  0  0
 10 18  1  0  0  0  0
 12 13  1  1  0  0  0
 12 20  1  0  0  0  0
 14 15  1  6  0  0  0
 14 22  1  0  0  0  0
 16 17  1  6  0  0  0
 16 24  1  0  0  0  0
 18 19  1  1  0  0  0
 18 25  1  0  0  0  0
 20 21  1  6  0  0  0
 20 27  1  0  0  0  0
 22 23  1  1  0  0  0
 22 29  1  0  0  0  0
 24  2  1  1  0  0  0
 24 31  1  0  0  0  0
 25 26  1  0  0  0  0
 25 33  1  6  0  0  0
 27 28  1  1  0  0  0
 27 35  1  0  0  0  0
 29 30  1  0  0  0  0
 29 37  1  6  0  0  0
 31 32  1  6  0  0  0
 31 39  1  0  0  0  0
 33 34  1  0  0  0  0
 35 36  1  0  0  0  0
 35 41  1  1  0  0  0
 37 38  1  0  0  0  0
 39 40  1  1  0  0  0
 41 42  1  0  0  0  0
M  END
>  <CHROM.1>
-175.71683186,-163.27565759,176.31839573,179.03396775,61.17027563,-69.58971709
171.47000872,171.19759761,63.11080884,6.99677354,2.83948523,3.01191462,1.31562149
0.59643191,3.00621889

>  <Name>
ligand

>  <RI>
0

>  <Rbt.Current_Directory>
/home/itssahil/PROJECTS/Mol_Feturizer/Test_systems_manuscript/rnas/2o3w

>  <Rbt.Executable>
rbdock ($Id: //depot/dev/client3/rdock/2013.1/src/exe/rbdock.cxx#4 $)

>  <Rbt.Library>
libRbt.so (2013.1, Build901 2013/11/27)

>  <Rbt.Parameter_File>
/export/apps/rDock/src/rDock_2013.1_src/data/scripts/dock_solv.prm

>  <Rbt.Receptor>
prm/pocket_docking_2.prm

>  <SCORE>
-8.73847

>  <SCORE.INTER>
3.5831

>  <SCORE.INTER.CONST>
1

>  <SCORE.INTER.POLAR>
0

>  <SCORE.INTER.ROT>
9

>  <SCORE.INTER.SOLV>
17.0817

>  <SCORE.INTER.VDW>
-12.9052

>  <SCORE.INTER.norm>
0.0853119

>  <SCORE.INTRA>
-12.3227

>  <SCORE.INTRA.DIHEDRAL>
-25.2202

>  <SCORE.INTRA.DIHEDRAL.0>
27.8999

>  <SCORE.INTRA.POLAR>
0

>  <SCORE.INTRA.POLAR.0>
0

>  <SCORE.INTRA.REPUL>
0

>  <SCORE.INTRA.REPUL.0>
0

>  <SCORE.INTRA.SOLV>
-3.46288

>  <SCORE.INTRA.SOLV.lig_0>
-104.479

>  <SCORE.INTRA.VDW>
2.01882

>  <SCORE.INTRA.VDW.0>
-6.17816

>  <SCORE.INTRA.norm>
-0.293398

>  <SCORE.RESTR>
0.00114298

>  <SCORE.RESTR.CAVITY>
0.00114298

>  <SCORE.RESTR.norm>
2.72138e-05

>  <SCORE.SYSTEM>
0

>  <SCORE.SYSTEM.CONST>
0

>  <SCORE.SYSTEM.DIHEDRAL>
0

>  <SCORE.SYSTEM.SOLV>
0

>  <SCORE.SYSTEM.norm>
0

>  <SCORE.heavy>
42

>  <SCORE.norm>
-0.208059

>  <RMSD>
1.154

$$$$
ligand
 OpenBabel02271912133D
libRbt.so/2013.1/901 2013/11/27
 42 45  0  0  0  0  0  0  0  0999 V2000
    6.8449   -0.1773    3.3420 C   0  0  2  0  0  0  0  0  0  0  0  0
    7.2566   -0.1655    4.7196 O   0  0  0  0  0  0  0  0  0  0  0  0
   10.3093    2.0149    6.8928 C   0  0  2  0  0  0  0  0  0  0  0  0
   11.6119    2.6176    7.3055 N   0  0  0  0  0  0  0  0  0  0  0  0
    8.1239    3.4984    3.0449 C   0  0  1  0  0  0  0  0  0  0  0  0
    6.6853    6.9778    0.7869 C   0  0  1  0  0  0  0  0  0  0  0  0
    5.3659   -0.6672    3.3133 C   0  0  2  0  0  0  0  0  0  0  0  0
    4.5120    0.0616    4.2674 N   0  0  0  0  0  0  0  0  0  0  0  0
   10.3734    0.4347    6.9216 C   0  0  0  0  0  0  0  0  0  0  0  0
    8.2103    3.5769    1.4902 C   0  0  2  0  0  0  0  0  0  0  0  0
    9.5270    3.9152    0.9895 O   0  0  0  0  0  0  0  0  0  0  0  0
    7.2867    8.4286    0.7370 C   0  0  2  0  0  0  0  0  0  0  0  0
    7.9138    8.7913    2.0432 N   0  0  0  0  0  0  0  0  0  0  0  0
    5.2392   -2.1631    3.6558 C   0  0  1  0  0  0  0  0  0  0  0  0
    3.8741   -2.5770    3.5788 O   0  0  0  0  0  0  0  0  0  0  0  0
    8.9684   -0.1406    6.5000 C   0  0  2  0  0  0  0  0  0  0  0  0
    8.9883   -1.6280    6.5301 N   0  0  0  0  0  0  0  0  0  0  0  0
    7.1047    4.5878    1.1820 C   0  0  2  0  0  0  0  0  0  0  0  0
    7.6169    5.9583    1.1695 O   0  0  0  0  0  0  0  0  0  0  0  0
    6.1309    9.4668    0.3456 C   0  0  1  0  0  0  0  0  0  0  0  0
    5.8223    9.3148   -1.0582 O   0  0  0  0  0  0  0  0  0  0  0  0
    6.1337   -2.9879    2.7025 C   0  0  2  0  0  0  0  0  0  0  0  0
    6.0161   -4.3614    2.9922 O   0  0  0  0  0  0  0  0  0  0  0  0
    8.5752    0.3551    5.0524 C   0  0  2  0  0  0  0  0  0  0  0  0
    6.0409    4.4005    2.2769 C   0  0  2  0  0  0  0  0  0  0  0  0
    6.8092    3.9828    3.4028 O   0  0  0  0  0  0  0  0  0  0  0  0
    4.7976    9.2690    1.2120 C   0  0  2  0  0  0  0  0  0  0  0  0
    5.0890    9.6722    2.5495 O   0  0  0  0  0  0  0  0  0  0  0  0
    7.6176   -2.5150    2.8580 C   0  0  2  0  0  0  0  0  0  0  0  0
    7.7119   -1.0856    2.5617 O   0  0  0  0  0  0  0  0  0  0  0  0
    8.5476    1.8947    4.9336 C   0  0  2  0  0  0  0  0  0  0  0  0
    8.3557    2.1651    3.5177 O   0  0  0  0  0  0  0  0  0  0  0  0
    4.9266    3.3614    1.9410 C   0  0  0  0  0  0  0  0  0  0  0  0
    5.5197    2.0803    1.7518 O   0  0  0  0  0  0  0  0  0  0  0  0
    4.3353    7.7631    1.1849 C   0  0  1  0  0  0  0  0  0  0  0  0
    5.4725    6.9768    1.6936 O   0  0  0  0  0  0  0  0  0  0  0  0
    8.5656   -3.2677    1.9532 C   0  0  0  0  0  0  0  0  0  0  0  0
    8.6638   -4.6100    2.3630 O   0  0  0  0  0  0  0  0  0  0  0  0
    9.9183    2.5092    5.4426 C   0  0  1  0  0  0  0  0  0  0  0  0
    9.8372    3.9368    5.4750 O   0  0  0  0  0  0  0  0  0  0  0  0
    3.0335    7.4697    2.0497 C   0  0  0  0  0  0  0  0  0  0  0  0
    1.7769    8.0926    1.5503 N   0  0  0  0  0  0  0  0  0  0  0  0
  1  2  1  1  0  0  0
  1  7  1  0  0  0  0
  1 30  1  0  0  0  0
  3  4  1  6  0  0  0
  3  9  1  0  0  0  0
  3 39  1  0  0  0  0
  5 10  1  0  0  0  0
  5 26  1  0  0  0  0
  5 32  1  6  0  0  0
  6 12  1  0  0  0  0
  6 36  1  0  0  0  0
  6 19  1  1  0  0  0
  7  8  1  1  0  0  0
  7 14  1  0  0  0  0
  9 16  1  0  0  0  0
 10 11  1  1  0  0  0
 10 18  1  0  0  0  0
 12 13  1  1  0  0  0
 12 20  1  0  0  0  0
 14 15  1  6  0  0  0
 14 22  1  0  0  0  0
 16 17  1  6  0  0  0
 16 24  1  0  0  0  0
 18 19  1  1  0  0  0
 18 25  1  0  0  0  0
 20 21  1  6  0  0  0
 20 27  1  0  0  0  0
 22 23  1  1  0  0  0
 22 29  1  0  0  0  0
 24  2  1  1  0  0  0
 24 31  1  0  0  0  0
 25 26  1  0  0  0  0
 25 33  1  6  0  0  0
 27 28  1  1  0  0  0
 27 35  1  0  0  0  0
 29 30  1  0  0  0  0
 29 37  1  6  0  0  0
 31 32  1  6  0  0  0
 31 39  1  0  0  0  0
 33 34  1  0  0  0  0
 35 36  1  0  0  0  0
 35 41  1  1  0  0  0
 37 38  1  0  0  0  0
 39 40  1  1  0  0  0
 41 42  1  0  0  0  0
M  END
>  <CHROM.1>
-175.25525621,-162.50140952,175.26453527,-177.94891226,61.19985090,-67.91627345
172.66482482,169.52758808,66.98377557,7.02857339,2.77305243,3.00775364,1.33017535
0.60440042,2.99580321

>  <Name>
ligand

>  <RI>
0

>  <Rbt.Current_Directory>
/home/itssahil/PROJECTS/Mol_Feturizer/Test_systems_manuscript/rnas/2o3w

>  <Rbt.Executable>
rbdock ($Id: //depot/dev/client3/rdock/2013.1/src/exe/rbdock.cxx#4 $)

>  <Rbt.Library>
libRbt.so (2013.1, Build901 2013/11/27)

>  <Rbt.Parameter_File>
/export/apps/rDock/src/rDock_2013.1_src/data/scripts/dock_solv.prm

>  <Rbt.Receptor>
prm/pocket_docking_2.prm

>  <SCORE>
-8.70682

>  <SCORE.INTER>
3.73237

>  <SCORE.INTER.CONST>
1

>  <SCORE.INTER.POLAR>
0

>  <SCORE.INTER.ROT>
9

>  <SCORE.INTER.SOLV>
16.6432

>  <SCORE.INTER.VDW>
-12.6595

>  <SCORE.INTER.norm>
0.088866

>  <SCORE.INTRA>
-12.4392

>  <SCORE.INTRA.DIHEDRAL>
-24.927

>  <SCORE.INTRA.DIHEDRAL.0>
27.8999

>  <SCORE.INTRA.POLAR>
0

>  <SCORE.INTRA.POLAR.0>
0

>  <SCORE.INTRA.REPUL>
0

>  <SCORE.INTRA.REPUL.0>
0

>  <SCORE.INTRA.SOLV>
-3.62881

>  <SCORE.INTRA.SOLV.lig_0>
-104.479

>  <SCORE.INTRA.VDW>
1.8387

>  <SCORE.INTRA.VDW.0>
-6.17816

>  <SCORE.INTRA.norm>
-0.296171

>  <SCORE.RESTR>
0

>  <SCORE.RESTR.CAVITY>
0

>  <SCORE.RESTR.norm>
0

>  <SCORE.SYSTEM>
0

>  <SCORE.SYSTEM.CONST>
0

>  <SCORE.SYSTEM.DIHEDRAL>
0

>  <SCORE.SYSTEM.SOLV>
0

>  <SCORE.SYSTEM.norm>
0

>  <SCORE.heavy>
42

>  <SCORE.norm>
-0.207305

>  <RMSD>
1.156

$$$$
ligand
 OpenBabel02271912133D
libRbt.so/2013.1/901 2013/11/27
 42 45  0  0  0  0  0  0  0  0999 V2000
    7.0623   -0.4430    3.3076 C   0  0  2  0  0  0  0  0  0  0  0  0
    7.2916   -0.1094    4.6873 O   0  0  0  0  0  0  0  0  0  0  0  0
   10.2319    2.1102    6.9729 C   0  0  2  0  0  0  0  0  0  0  0  0
   11.5113    2.7253    7.4369 N   0  0  0  0  0  0  0  0  0  0  0  0
    8.1846    3.5423    3.0214 C   0  0  1  0  0  0  0  0  0  0  0  0
    6.7025    6.9810    0.7575 C   0  0  1  0  0  0  0  0  0  0  0  0
    5.5699   -0.8742    3.1857 C   0  0  2  0  0  0  0  0  0  0  0  0
    4.6506    0.0942    3.8083 N   0  0  0  0  0  0  0  0  0  0  0  0
   10.3047    0.5308    7.0184 C   0  0  0  0  0  0  0  0  0  0  0  0
    8.2653    3.5970    1.4654 C   0  0  2  0  0  0  0  0  0  0  0  0
    9.5779    3.9368    0.9549 O   0  0  0  0  0  0  0  0  0  0  0  0
    7.2883    8.4377    0.6977 C   0  0  2  0  0  0  0  0  0  0  0  0
    7.9478    8.8007    1.9878 N   0  0  0  0  0  0  0  0  0  0  0  0
    5.2989   -2.2360    3.8513 C   0  0  1  0  0  0  0  0  0  0  0  0
    3.9305   -2.6093    3.6811 O   0  0  0  0  0  0  0  0  0  0  0  0
    8.9234   -0.0577    6.5408 C   0  0  2  0  0  0  0  0  0  0  0  0
    8.9514   -1.5446    6.5849 N   0  0  0  0  0  0  0  0  0  0  0  0
    7.1515    4.5952    1.1452 C   0  0  2  0  0  0  0  0  0  0  0  0
    7.6540    5.9689    1.1095 O   0  0  0  0  0  0  0  0  0  0  0  0
    6.1124    9.4663    0.3430 C   0  0  1  0  0  0  0  0  0  0  0  0
    5.7665    9.3175   -1.0524 O   0  0  0  0  0  0  0  0  0  0  0  0
    6.2518   -3.2986    3.2580 C   0  0  2  0  0  0  0  0  0  0  0  0
    6.0049   -4.5551    3.8452 O   0  0  0  0  0  0  0  0  0  0  0  0
    8.5909    0.4229    5.0730 C   0  0  2  0  0  0  0  0  0  0  0  0
    6.0927    4.4175    2.2464 C   0  0  2  0  0  0  0  0  0  0  0  0
    6.8676    4.0229    3.3761 O   0  0  0  0  0  0  0  0  0  0  0  0
    4.8054    9.2520    1.2449 C   0  0  2  0  0  0  0  0  0  0  0  0
    5.1298    9.6522    2.5757 O   0  0  0  0  0  0  0  0  0  0  0  0
    7.7314   -2.8532    3.5066 C   0  0  2  0  0  0  0  0  0  0  0  0
    7.9599   -1.5435    2.8965 O   0  0  0  0  0  0  0  0  0  0  0  0
    8.5587    1.9612    4.9394 C   0  0  2  0  0  0  0  0  0  0  0  0
    8.4274    2.2182    3.5142 O   0  0  0  0  0  0  0  0  0  0  0  0
    4.9847    3.3655    1.9306 C   0  0  0  0  0  0  0  0  0  0  0  0
    5.5927    2.1005    1.6873 O   0  0  0  0  0  0  0  0  0  0  0  0
    4.3570    7.7418    1.2237 C   0  0  1  0  0  0  0  0  0  0  0  0
    5.5152    6.9643    1.6972 O   0  0  0  0  0  0  0  0  0  0  0  0
    8.7357   -3.8359    2.9504 C   0  0  0  0  0  0  0  0  0  0  0  0
    8.5666   -3.9675    1.5600 O   0  0  0  0  0  0  0  0  0  0  0  0
    9.9018    2.5894    5.5026 C   0  0  1  0  0  0  0  0  0  0  0  0
    9.8101    4.0166    5.5188 O   0  0  0  0  0  0  0  0  0  0  0  0
    3.0824    7.4320    2.1226 C   0  0  0  0  0  0  0  0  0  0  0  0
    2.5679    6.0369    2.0484 N   0  0  0  0  0  0  0  0  0  0  0  0
  1  2  1  1  0  0  0
  1  7  1  0  0  0  0
  1 30  1  0  0  0  0
  3  4  1  6  0  0  0
  3  9  1  0  0  0  0
  3 39  1  0  0  0  0
  5 10  1  0  0  0  0
  5 26  1  0  0  0  0
  5 32  1  6  0  0  0
  6 12  1  0  0  0  0
  6 36  1  0  0  0  0
  6 19  1  1  0  0  0
  7  8  1  1  0  0  0
  7 14  1  0  0  0  0
  9 16  1  0  0  0  0
 10 11  1  1  0  0  0
 10 18  1  0  0  0  0
 12 13  1  1  0  0  0
 12 20  1  0  0  0  0
 14 15  1  6  0  0  0
 14 22  1  0  0  0  0
 16 17  1  6  0  0  0
 16 24  1  0  0  0  0
 18 19  1  1  0  0  0
 18 25  1  0  0  0  0
 20 21  1  6  0  0  0
 20 27  1  0  0  0  0
 22 23  1  1  0  0  0
 22 29  1  0  0  0  0
 24  2  1  1  0  0  0
 24 31  1  0  0  0  0
 25 26  1  0  0  0  0
 25 33  1  6  0  0  0
 27 28  1  1  0  0  0
 27 35  1  0  0  0  0
 29 30  1  0  0  0  0
 29 37  1  6  0  0  0
 31 32  1  6  0  0  0
 31 39  1  0  0  0  0
 33 34  1  0  0  0  0
 35 36  1  0  0  0  0
 35 41  1  1  0  0  0
 37 38  1  0  0  0  0
 39 40  1  1  0  0  0
 41 42  1  0  0  0  0
M  END
>  <CHROM.1>
-175.65647722,-147.42507688,177.27069333,-178.64369003,58.04787002,60.25988069
171.55572936,172.66329508,175.62776328,7.08524246,2.70795778,3.07709658,1.35373115
0.62253363,2.97310068

>  <Name>
ligand

>  <RI>
0

>  <Rbt.Current_Directory>
/home/itssahil/PROJECTS/Mol_Feturizer/Test_systems_manuscript/rnas/2o3w

>  <Rbt.Executable>
rbdock ($Id: //depot/dev/client3/rdock/2013.1/src/exe/rbdock.cxx#4 $)

>  <Rbt.Library>
libRbt.so (2013.1, Build901 2013/11/27)

>  <Rbt.Parameter_File>
/export/apps/rDock/src/rDock_2013.1_src/data/scripts/dock_solv.prm

>  <Rbt.Receptor>
prm/pocket_docking_2.prm

>  <SCORE>
-7.38479

>  <SCORE.INTER>
3.42887

>  <SCORE.INTER.CONST>
1

>  <SCORE.INTER.POLAR>
0

>  <SCORE.INTER.ROT>
9

>  <SCORE.INTER.SOLV>
12.7241

>  <SCORE.INTER.VDW>
-11.5555

>  <SCORE.INTER.norm>
0.0816396

>  <SCORE.INTRA>
-10.8361

>  <SCORE.INTRA.DIHEDRAL>
-22.8756

>  <SCORE.INTRA.DIHEDRAL.0>
27.8999

>  <SCORE.INTRA.POLAR>
0

>  <SCORE.INTRA.POLAR.0>
0

>  <SCORE.INTRA.REPUL>
0

>  <SCORE.INTRA.REPUL.0>
0

>  <SCORE.INTRA.SOLV>
-1.44455

>  <SCORE.INTRA.SOLV.lig_0>
-104.479

>  <SCORE.INTRA.VDW>
1.32396

>  <SCORE.INTRA.VDW.0>
-6.17816

>  <SCORE.INTRA.norm>
-0.258002

>  <SCORE.RESTR>
0.0224411

>  <SCORE.RESTR.CAVITY>
0.0224411

>  <SCORE.RESTR.norm>
0.000534312

>  <SCORE.SYSTEM>
0

>  <SCORE.SYSTEM.CONST>
0

>  <SCORE.SYSTEM.DIHEDRAL>
0

>  <SCORE.SYSTEM.SOLV>
0

>  <SCORE.SYSTEM.norm>
0

>  <SCORE.heavy>
42

>  <SCORE.norm>
-0.175828

>  <RMSD>
1.156

$$$$
ligand
 OpenBabel02271912133D
libRbt.so/2013.1/901 2013/11/27
 42 45  0  0  0  0  0  0  0  0999 V2000
    6.9292   -0.5228    3.4081 C   0  0  2  0  0  0  0  0  0  0  0  0
    7.2591   -0.2009    4.7700 O   0  0  0  0  0  0  0  0  0  0  0  0
   10.2125    2.2451    6.7926 C   0  0  2  0  0  0  0  0  0  0  0  0
   11.4822    2.9445    7.1521 N   0  0  0  0  0  0  0  0  0  0  0  0
    7.9056    3.4621    2.9463 C   0  0  1  0  0  0  0  0  0  0  0  0
    6.5883    6.8014    0.3882 C   0  0  1  0  0  0  0  0  0  0  0  0
    5.4716   -1.0737    3.4110 C   0  0  2  0  0  0  0  0  0  0  0  0
    4.5396   -0.1986    4.1431 N   0  0  0  0  0  0  0  0  0  0  0  0
   10.3803    0.6743    6.8714 C   0  0  0  0  0  0  0  0  0  0  0  0
    8.2521    3.5585    1.4293 C   0  0  2  0  0  0  0  0  0  0  0  0
    9.5983    4.0218    1.1606 O   0  0  0  0  0  0  0  0  0  0  0  0
    7.0585    8.3003    0.4196 C   0  0  2  0  0  0  0  0  0  0  0  0
    7.3635    8.7345    1.8158 N   0  0  0  0  0  0  0  0  0  0  0  0
    5.3750   -2.4672    4.0589 C   0  0  1  0  0  0  0  0  0  0  0  0
    4.0313   -2.9492    4.0041 O   0  0  0  0  0  0  0  0  0  0  0  0
    9.0065   -0.0046    6.5046 C   0  0  2  0  0  0  0  0  0  0  0  0
    9.1242   -1.4857    6.5829 N   0  0  0  0  0  0  0  0  0  0  0  0
    7.1271    4.4635    0.9246 C   0  0  2  0  0  0  0  0  0  0  0  0
    7.5037    5.8759    0.9876 O   0  0  0  0  0  0  0  0  0  0  0  0
    5.9251    9.2238   -0.2357 C   0  0  1  0  0  0  0  0  0  0  0  0
    5.9324    9.0273   -1.6676 O   0  0  0  0  0  0  0  0  0  0  0  0
    6.3507   -3.4341    3.3502 C   0  0  2  0  0  0  0  0  0  0  0  0
    6.2622   -4.7190    3.9209 O   0  0  0  0  0  0  0  0  0  0  0  0
    8.5482    0.4148    5.0521 C   0  0  2  0  0  0  0  0  0  0  0  0
    5.9121    4.1703    1.8207 C   0  0  2  0  0  0  0  0  0  0  0  0
    6.5094    3.8188    3.0666 O   0  0  0  0  0  0  0  0  0  0  0  0
    4.4618    8.9156    0.3401 C   0  0  2  0  0  0  0  0  0  0  0  0
    4.4298    9.3599    1.6958 O   0  0  0  0  0  0  0  0  0  0  0  0
    7.8064   -2.8727    3.4749 C   0  0  2  0  0  0  0  0  0  0  0  0
    7.8702   -1.5358    2.8846 O   0  0  0  0  0  0  0  0  0  0  0  0
    8.4173    1.9444    4.8837 C   0  0  2  0  0  0  0  0  0  0  0  0
    8.1754    2.1532    3.4651 O   0  0  0  0  0  0  0  0  0  0  0  0
    4.9746    3.0337    1.3073 C   0  0  0  0  0  0  0  0  0  0  0  0
    3.7872    3.0120    2.0937 O   0  0  0  0  0  0  0  0  0  0  0  0
    4.1480    7.3735    0.2640 C   0  0  1  0  0  0  0  0  0  0  0  0
    5.2169    6.7006    1.0223 O   0  0  0  0  0  0  0  0  0  0  0  0
    8.8302   -3.7566    2.8007 C   0  0  0  0  0  0  0  0  0  0  0  0
    8.4739   -3.9735    1.4571 O   0  0  0  0  0  0  0  0  0  0  0  0
    9.7564    2.6632    5.3373 C   0  0  1  0  0  0  0  0  0  0  0  0
    9.5830    4.0828    5.3251 O   0  0  0  0  0  0  0  0  0  0  0  0
    2.7242    6.9729    0.8477 C   0  0  0  0  0  0  0  0  0  0  0  0
    2.4978    7.3139    2.2792 N   0  0  0  0  0  0  0  0  0  0  0  0
  1  2  1  1  0  0  0
  1  7  1  0  0  0  0
  1 30  1  0  0  0  0
  3  4  1  6  0  0  0
  3  9  1  0  0  0  0
  3 39  1  0  0  0  0
  5 10  1  0  0  0  0
  5 26  1  0  0  0  0
  5 32  1  6  0  0  0
  6 12  1  0  0  0  0
  6 36  1  0  0  0  0
  6 19  1  1  0  0  0
  7  8  1  1  0  0  0
  7 14  1  0  0  0  0
  9 16  1  0  0  0  0
 10 11  1  1  0  0  0
 10 18  1  0  0  0  0
 12 13  1  1  0  0  0
 12 20  1  0  0  0  0
 14 15  1  6  0  0  0
 14 22  1  0  0  0  0
 16 17  1  6  0  0  0
 16 24  1  0  0  0  0
 18 19  1  1  0  0  0
 18 25  1  0  0  0  0
 20 21  1  6  0  0  0
 20 27  1  0  0  0  0
 22 23  1  1  0  0  0
 22 29  1  0  0  0  0
 24  2  1  1  0  0  0
 24 31  1  0  0  0  0
 25 26  1  0  0  0  0
 25 33  1  6  0  0  0
 27 28  1  1  0  0  0
 27 35  1  0  0  0  0
 29 30  1  0  0  0  0
 29 37  1  6  0  0  0
 31 32  1  6  0  0  0
 31 39  1  0  0  0  0
 33 34  1  0  0  0  0
 35 36  1  0  0  0  0
 35 41  1  1  0  0  0
 37 38  1  0  0  0  0
 39 40  1  1  0  0  0
 41 42  1  0  0  0  0
M  END
>  <CHROM.1>
-176.37118849,-150.58807587,172.66697102,-177.40037832,-170.42174222,54.79714676
175.51025678,156.68003913,-59.67853939,6.93346792,2.65514710,2.89722550,1.31334115
0.59756387,2.93027171

>  <Name>
ligand

>  <RI>
0

>  <Rbt.Current_Directory>
/home/itssahil/PROJECTS/Mol_Feturizer/Test_systems_manuscript/rnas/2o3w

>  <Rbt.Executable>
rbdock ($Id: //depot/dev/client3/rdock/2013.1/src/exe/rbdock.cxx#4 $)

>  <Rbt.Library>
libRbt.so (2013.1, Build901 2013/11/27)

>  <Rbt.Parameter_File>
/export/apps/rDock/src/rDock_2013.1_src/data/scripts/dock_solv.prm

>  <Rbt.Receptor>
prm/pocket_docking_2.prm

>  <SCORE>
-4.90209

>  <SCORE.INTER>
5.46062

>  <SCORE.INTER.CONST>
1

>  <SCORE.INTER.POLAR>
0

>  <SCORE.INTER.ROT>
9

>  <SCORE.INTER.SOLV>
12.1469

>  <SCORE.INTER.VDW>
-10.0085

>  <SCORE.INTER.norm>
0.130015

>  <SCORE.INTRA>
-10.3627

>  <SCORE.INTRA.DIHEDRAL>
-21.0675

>  <SCORE.INTRA.DIHEDRAL.0>
27.8999

>  <SCORE.INTRA.POLAR>
0

>  <SCORE.INTRA.POLAR.0>
0

>  <SCORE.INTRA.REPUL>
0

>  <SCORE.INTRA.REPUL.0>
0

>  <SCORE.INTRA.SOLV>
-3.10221

>  <SCORE.INTRA.SOLV.lig_0>
-104.479

>  <SCORE.INTRA.VDW>
1.72216

>  <SCORE.INTRA.VDW.0>
-6.17816

>  <SCORE.INTRA.norm>
-0.246731

>  <SCORE.RESTR>
0

>  <SCORE.RESTR.CAVITY>
0

>  <SCORE.RESTR.norm>
0

>  <SCORE.SYSTEM>
0

>  <SCORE.SYSTEM.CONST>
0

>  <SCORE.SYSTEM.DIHEDRAL>
0

>  <SCORE.SYSTEM.SOLV>
0

>  <SCORE.SYSTEM.norm>
0

>  <SCORE.heavy>
42

>  <SCORE.norm>
-0.116716

>  <RMSD>
1.157

$$$$
ligand
 OpenBabel02271912133D
libRbt.so/2013.1/901 2013/11/27
 42 45  0  0  0  0  0  0  0  0999 V2000
    6.8435   -0.4320    3.3535 C   0  0  2  0  0  0  0  0  0  0  0  0
    7.1303   -0.0755    4.7166 O   0  0  0  0  0  0  0  0  0  0  0  0
   10.0990    2.2223    6.8853 C   0  0  2  0  0  0  0  0  0  0  0  0
   11.3691    2.9013    7.2803 N   0  0  0  0  0  0  0  0  0  0  0  0
    7.6200    3.7117    3.2062 C   0  0  1  0  0  0  0  0  0  0  0  0
    6.1039    7.1695    0.8937 C   0  0  1  0  0  0  0  0  0  0  0  0
    5.3805   -0.9675    3.3214 C   0  0  2  0  0  0  0  0  0  0  0  0
    4.4340   -0.0625    3.9964 N   0  0  0  0  0  0  0  0  0  0  0  0
   10.2806    0.6520    6.8307 C   0  0  0  0  0  0  0  0  0  0  0  0
    8.0189    4.0115    1.7291 C   0  0  2  0  0  0  0  0  0  0  0  0
    9.3185    4.6353    1.5846 O   0  0  0  0  0  0  0  0  0  0  0  0
    6.4390    8.6943    1.0716 C   0  0  2  0  0  0  0  0  0  0  0  0
    6.5995    9.0401    2.5158 N   0  0  0  0  0  0  0  0  0  0  0  0
    5.2460   -2.3412    4.0040 C   0  0  1  0  0  0  0  0  0  0  0  0
    3.8996   -2.8105    3.9162 O   0  0  0  0  0  0  0  0  0  0  0  0
    8.9061   -0.0071    6.4320 C   0  0  2  0  0  0  0  0  0  0  0  0
    9.0369   -1.4884    6.3851 N   0  0  0  0  0  0  0  0  0  0  0  0
    6.8268    4.8491    1.2637 C   0  0  2  0  0  0  0  0  0  0  0  0
    7.0482    6.2764    1.4972 O   0  0  0  0  0  0  0  0  0  0  0  0
    5.2825    9.5723    0.3946 C   0  0  1  0  0  0  0  0  0  0  0  0
    5.4145    9.4906   -1.0423 O   0  0  0  0  0  0  0  0  0  0  0  0
    6.2344   -3.3377    3.3564 C   0  0  2  0  0  0  0  0  0  0  0  0
    6.1118   -4.6051    3.9590 O   0  0  0  0  0  0  0  0  0  0  0  0
    8.4192    0.5268    5.0271 C   0  0  2  0  0  0  0  0  0  0  0  0
    5.6125    4.3366    2.0563 C   0  0  2  0  0  0  0  0  0  0  0  0
    6.1900    3.9102    3.2881 O   0  0  0  0  0  0  0  0  0  0  0  0
    3.8123    9.1028    0.8253 C   0  0  2  0  0  0  0  0  0  0  0  0
    3.6401    9.4347    2.2025 O   0  0  0  0  0  0  0  0  0  0  0  0
    7.6912   -2.7882    3.5156 C   0  0  2  0  0  0  0  0  0  0  0  0
    7.7903   -1.4691    2.8911 O   0  0  0  0  0  0  0  0  0  0  0  0
    8.2732    2.0638    4.9884 C   0  0  2  0  0  0  0  0  0  0  0  0
    8.0048    2.3870    3.5963 O   0  0  0  0  0  0  0  0  0  0  0  0
    4.8239    3.1757    1.3746 C   0  0  0  0  0  0  0  0  0  0  0  0
    3.6122    2.9478    2.0879 O   0  0  0  0  0  0  0  0  0  0  0  0
    3.6396    7.5513    0.6126 C   0  0  1  0  0  0  0  0  0  0  0  0
    4.7026    6.9089    1.4049 O   0  0  0  0  0  0  0  0  0  0  0  0
    8.7274   -3.7012    2.9019 C   0  0  0  0  0  0  0  0  0  0  0  0
    8.4316   -3.9275    1.5452 O   0  0  0  0  0  0  0  0  0  0  0  0
    9.6142    2.7551    5.4776 C   0  0  1  0  0  0  0  0  0  0  0  0
    9.4293    4.1692    5.5861 O   0  0  0  0  0  0  0  0  0  0  0  0
    2.2159    6.9925    1.0478 C   0  0  0  0  0  0  0  0  0  0  0  0
    2.0455    5.5172    0.9426 N   0  0  0  0  0  0  0  0  0  0  0  0
  1  2  1  1  0  0  0
  1  7  1  0  0  0  0
  1 30  1  0  0  0  0
  3  4  1  6  0  0  0
  3  9  1  0  0  0  0
  3 39  1  0  0  0  0
  5 10  1  0  0  0  0
  5 26  1  0  0  0  0
  5 32  1  6  0  0  0
  6 12  1  0  0  0  0
  6 36  1  0  0  0  0
  6 19  1  1  0  0  0
  7  8  1  1  0  0  0
  7 14  1  0  0  0  0
  9 16  1  0  0  0  0
 10 11  1  1  0  0  0
 10 18  1  0  0  0  0
 12 13  1  1  0  0  0
 12 20  1  0  0  0  0
 14 15  1  6  0  0  0
 14 22  1  0  0  0  0
 16 17  1  6  0  0  0
 16 24  1  0  0  0  0
 18 19  1  1  0  0  0
 18 25  1  0  0  0  0
 20 21  1  6  0  0  0
 20 27  1  0  0  0  0
 22 23  1  1  0  0  0
 22 29  1  0  0  0  0
 24  2  1  1  0  0  0
 24 31  1  0  0  0  0
 25 26  1  0  0  0  0
 25 33  1  6  0  0  0
 27 28  1  1  0  0  0
 27 35  1  0  0  0  0
 29 30  1  0  0  0  0
 29 37  1  6  0  0  0
 31 32  1  6  0  0  0
 31 39  1  0  0  0  0
 33 34  1  0  0  0  0
 35 36  1  0  0  0  0
 35 41  1  1  0  0  0
 37 38  1  0  0  0  0
 39 40  1  1  0  0  0
 41 42  1  0  0  0  0
M  END
>  <CHROM.1>
-176.74978038,-143.32070851,169.59615160,-175.39274971,-170.35708106,56.13382423
170.90978374,153.50517314,-176.26473976,6.65981120,2.77341855,3.05029060
1.26395832,0.58429269,2.99181812

>  <Name>
ligand

>  <RI>
0

>  <Rbt.Current_Directory>
/home/itssahil/PROJECTS/Mol_Feturizer/Test_systems_manuscript/rnas/2o3w

>  <Rbt.Executable>
rbdock ($Id: //depot/dev/client3/rdock/2013.1/src/exe/rbdock.cxx#4 $)

>  <Rbt.Library>
libRbt.so (2013.1, Build901 2013/11/27)

>  <Rbt.Parameter_File>
/export/apps/rDock/src/rDock_2013.1_src/data/scripts/dock_solv.prm

>  <Rbt.Receptor>
prm/pocket_docking_2.prm

>  <SCORE>
-4.85771

>  <SCORE.INTER>
4.22476

>  <SCORE.INTER.CONST>
1

>  <SCORE.INTER.POLAR>
0

>  <SCORE.INTER.ROT>
9

>  <SCORE.INTER.SOLV>
11.133

>  <SCORE.INTER.VDW>
-10.4945

>  <SCORE.INTER.norm>
0.10059

>  <SCORE.INTRA>
-9.10556

>  <SCORE.INTRA.DIHEDRAL>
-18.5318

>  <SCORE.INTRA.DIHEDRAL.0>
27.8999

>  <SCORE.INTRA.POLAR>
0

>  <SCORE.INTRA.POLAR.0>
0

>  <SCORE.INTRA.REPUL>
0

>  <SCORE.INTRA.REPUL.0>
0

>  <SCORE.INTRA.SOLV>
-1.86395

>  <SCORE.INTRA.SOLV.lig_0>
-104.479

>  <SCORE.INTRA.VDW>
1.0923

>  <SCORE.INTRA.VDW.0>
-6.17816

>  <SCORE.INTRA.norm>
-0.216799

>  <SCORE.RESTR>
0.0230853

>  <SCORE.RESTR.CAVITY>
0.0230853

>  <SCORE.RESTR.norm>
0.000549651

>  <SCORE.SYSTEM>
0

>  <SCORE.SYSTEM.CONST>
0

>  <SCORE.SYSTEM.DIHEDRAL>
0

>  <SCORE.SYSTEM.SOLV>
0

>  <SCORE.SYSTEM.norm>
0

>  <SCORE.heavy>
42

>  <SCORE.norm>
-0.11566

>  <RMSD>
1.161

$$$$
ligand
 OpenBabel02271912133D
libRbt.so/2013.1/901 2013/11/27
 42 45  0  0  0  0  0  0  0  0999 V2000
    6.7946   -0.0241    3.4548 C   0  0  2  0  0  0  0  0  0  0  0  0
    7.3135   -0.0736    4.7948 O   0  0  0  0  0  0  0  0  0  0  0  0
   10.7414    1.7598    6.7142 C   0  0  2  0  0  0  0  0  0  0  0  0
   12.1293    2.2171    7.0224 N   0  0  0  0  0  0  0  0  0  0  0  0
    8.3001    3.4645    3.0580 C   0  0  1  0  0  0  0  0  0  0  0  0
    6.7490    6.9649    0.8825 C   0  0  1  0  0  0  0  0  0  0  0  0
    5.2565   -0.2534    3.5537 C   0  0  2  0  0  0  0  0  0  0  0  0
    4.6200    0.6176    4.5571 N   0  0  0  0  0  0  0  0  0  0  0  0
   10.6358    0.1820    6.7492 C   0  0  0  0  0  0  0  0  0  0  0  0
    8.3229    3.5719    1.5028 C   0  0  2  0  0  0  0  0  0  0  0  0
    9.6150    3.9328    0.9558 O   0  0  0  0  0  0  0  0  0  0  0  0
    7.3430    8.4174    0.8042 C   0  0  2  0  0  0  0  0  0  0  0  0
    8.0019    8.7943    2.0906 N   0  0  0  0  0  0  0  0  0  0  0  0
    4.9052   -1.7030    3.9362 C   0  0  1  0  0  0  0  0  0  0  0  0
    3.4878   -1.8773    3.9763 O   0  0  0  0  0  0  0  0  0  0  0  0
    9.1488   -0.2369    6.4397 C   0  0  2  0  0  0  0  0  0  0  0  0
    9.0096   -1.7177    6.4788 N   0  0  0  0  0  0  0  0  0  0  0  0
    7.1961    4.5768    1.2579 C   0  0  2  0  0  0  0  0  0  0  0  0
    7.6943    5.9525    1.2501 O   0  0  0  0  0  0  0  0  0  0  0  0
    6.1734    9.4476    0.4332 C   0  0  1  0  0  0  0  0  0  0  0  0
    5.8295    9.2818   -0.9607 O   0  0  0  0  0  0  0  0  0  0  0  0
    5.5652   -2.6755    2.9323 C   0  0  2  0  0  0  0  0  0  0  0  0
    5.2394   -4.0065    3.2589 O   0  0  0  0  0  0  0  0  0  0  0  0
    8.7022    0.3003    5.0228 C   0  0  2  0  0  0  0  0  0  0  0  0
    6.1792    4.3588    2.3910 C   0  0  2  0  0  0  0  0  0  0  0  0
    6.9963    3.9287    3.4773 O   0  0  0  0  0  0  0  0  0  0  0  0
    4.8635    9.2526    1.3353 C   0  0  2  0  0  0  0  0  0  0  0  0
    5.1874    9.6690    2.6612 O   0  0  0  0  0  0  0  0  0  0  0  0
    7.1156   -2.4630    2.9597 C   0  0  2  0  0  0  0  0  0  0  0  0
    7.4275   -1.0731    2.6272 O   0  0  0  0  0  0  0  0  0  0  0  0
    8.8325    1.8340    4.8954 C   0  0  2  0  0  0  0  0  0  0  0  0
    8.5636    2.1253    3.4964 O   0  0  0  0  0  0  0  0  0  0  0  0
    5.0623    3.3144    2.0811 C   0  0  0  0  0  0  0  0  0  0  0  0
    4.3737    3.7000    0.8953 O   0  0  0  0  0  0  0  0  0  0  0  0
    4.4068    7.7447    1.3335 C   0  0  1  0  0  0  0  0  0  0  0  0
    5.5598    6.9674    1.8199 O   0  0  0  0  0  0  0  0  0  0  0  0
    7.8444   -3.3733    1.9985 C   0  0  0  0  0  0  0  0  0  0  0  0
    9.2351   -3.2221    2.1473 O   0  0  0  0  0  0  0  0  0  0  0  0
   10.2966    2.2955    5.2944 C   0  0  1  0  0  0  0  0  0  0  0  0
   10.3733    3.7234    5.3228 O   0  0  0  0  0  0  0  0  0  0  0  0
    3.1288    7.4541    2.2340 C   0  0  0  0  0  0  0  0  0  0  0  0
    2.4840    6.1285    2.0251 N   0  0  0  0  0  0  0  0  0  0  0  0
  1  2  1  1  0  0  0
  1  7  1  0  0  0  0
  1 30  1  0  0  0  0
  3  4  1  6  0  0  0
  3  9  1  0  0  0  0
  3 39  1  0  0  0  0
  5 10  1  0  0  0  0
  5 26  1  0  0  0  0
  5 32  1  6  0  0  0
  6 12  1  0  0  0  0
  6 36  1  0  0  0  0
  6 19  1  1  0  0  0
  7  8  1  1  0  0  0
  7 14  1  0  0  0  0
  9 16  1  0  0  0  0
 10 11  1  1  0  0  0
 10 18  1  0  0  0  0
 12 13  1  1  0  0  0
 12 20  1  0  0  0  0
 14 15  1  6  0  0  0
 14 22  1  0  0  0  0
 16 17  1  6  0  0  0
 16 24  1  0  0  0  0
 18 19  1  1  0  0  0
 18 25  1  0  0  0  0
 20 21  1  6  0  0  0
 20 27  1  0  0  0  0
 22 23  1  1  0  0  0
 22 29  1  0  0  0  0
 24  2  1  1  0  0  0
 24 31  1  0  0  0  0
 25 26  1  0  0  0  0
 25 33  1  6  0  0  0
 27 28  1  1  0  0  0
 27 35  1  0  0  0  0
 29 30  1  0  0  0  0
 29 37  1  6  0  0  0
 31 32  1  6  0  0  0
 31 39  1  0  0  0  0
 33 34  1  0  0  0  0
 35 36  1  0  0  0  0
 35 41  1  1  0  0  0
 37 38  1  0  0  0  0
 39 40  1  1  0  0  0
 41 42  1  0  0  0  0
M  END
>  <CHROM.1>
-171.28342354,-163.21094398,173.33630558,-176.58281318,-56.57319979,-174.94270768
165.91107600,168.70524647,166.78824737,7.05324911,2.83297215,3.05121028,1.34904178
0.48365357,2.93351873

>  <Name>
ligand

>  <RI>
0

>  <Rbt.Current_Directory>
/home/itssahil/PROJECTS/Mol_Feturizer/Test_systems_manuscript/rnas/2o3w

>  <Rbt.Executable>
rbdock ($Id: //depot/dev/client3/rdock/2013.1/src/exe/rbdock.cxx#4 $)

>  <Rbt.Library>
libRbt.so (2013.1, Build901 2013/11/27)

>  <Rbt.Parameter_File>
/export/apps/rDock/src/rDock_2013.1_src/data/scripts/dock_solv.prm

>  <Rbt.Receptor>
prm/pocket_docking_2.prm

>  <SCORE>
-9.09498

>  <SCORE.INTER>
3.02567

>  <SCORE.INTER.CONST>
1

>  <SCORE.INTER.POLAR>
0

>  <SCORE.INTER.ROT>
9

>  <SCORE.INTER.SOLV>
14.3608

>  <SCORE.INTER.VDW>
-12.3698

>  <SCORE.INTER.norm>
0.0720398

>  <SCORE.INTRA>
-12.1286

>  <SCORE.INTRA.DIHEDRAL>
-23.5349

>  <SCORE.INTRA.DIHEDRAL.0>
27.8999

>  <SCORE.INTRA.POLAR>
0

>  <SCORE.INTRA.POLAR.0>
0

>  <SCORE.INTRA.REPUL>
0

>  <SCORE.INTRA.REPUL.0>
0

>  <SCORE.INTRA.SOLV>
-3.58534

>  <SCORE.INTRA.SOLV.lig_0>
-104.479

>  <SCORE.INTRA.VDW>
1.43154

>  <SCORE.INTRA.VDW.0>
-6.17816

>  <SCORE.INTRA.norm>
-0.288775

>  <SCORE.RESTR>
0.00791649

>  <SCORE.RESTR.CAVITY>
0.00791649

>  <SCORE.RESTR.norm>
0.000188488

>  <SCORE.SYSTEM>
0

>  <SCORE.SYSTEM.CONST>
0

>  <SCORE.SYSTEM.DIHEDRAL>
0

>  <SCORE.SYSTEM.SOLV>
0

>  <SCORE.SYSTEM.norm>
0

>  <SCORE.heavy>
42

>  <SCORE.norm>
-0.216547

>  <RMSD>
1.172

$$$$
ligand
 OpenBabel02271912133D
libRbt.so/2013.1/901 2013/11/27
 42 45  0  0  0  0  0  0  0  0999 V2000
    6.8086   -0.0844    3.4030 C   0  0  2  0  0  0  0  0  0  0  0  0
    7.0844    0.3379    4.7495 O   0  0  0  0  0  0  0  0  0  0  0  0
   10.1243    2.6504    6.8006 C   0  0  2  0  0  0  0  0  0  0  0  0
   11.4252    3.2755    7.1845 N   0  0  0  0  0  0  0  0  0  0  0  0
    7.9022    3.8645    2.8478 C   0  0  1  0  0  0  0  0  0  0  0  0
    6.5933    7.0819    0.0763 C   0  0  1  0  0  0  0  0  0  0  0  0
    5.2993   -0.4676    3.3464 C   0  0  2  0  0  0  0  0  0  0  0  0
    4.4308    0.5760    3.9183 N   0  0  0  0  0  0  0  0  0  0  0  0
   10.1818    1.0756    6.9368 C   0  0  0  0  0  0  0  0  0  0  0  0
    8.2693    3.9337    1.3341 C   0  0  2  0  0  0  0  0  0  0  0  0
    9.6045    4.4321    1.0737 O   0  0  0  0  0  0  0  0  0  0  0  0
    6.9531    8.6081    0.1764 C   0  0  2  0  0  0  0  0  0  0  0  0
    6.9963    9.0536    1.6014 N   0  0  0  0  0  0  0  0  0  0  0  0
    4.9973   -1.7676    4.1143 C   0  0  1  0  0  0  0  0  0  0  0  0
    3.6127   -2.1011    4.0025 O   0  0  0  0  0  0  0  0  0  0  0  0
    8.7788    0.4776    6.5412 C   0  0  2  0  0  0  0  0  0  0  0  0
    8.7925   -1.0044    6.6721 N   0  0  0  0  0  0  0  0  0  0  0  0
    7.1249    4.7902    0.7899 C   0  0  2  0  0  0  0  0  0  0  0  0
    7.4565    6.2148    0.8224 O   0  0  0  0  0  0  0  0  0  0  0  0
    5.8845    9.4593   -0.6605 C   0  0  1  0  0  0  0  0  0  0  0  0
    6.1391    9.2716   -2.0707 O   0  0  0  0  0  0  0  0  0  0  0  0
    5.8968   -2.9043    3.5777 C   0  0  2  0  0  0  0  0  0  0  0  0
    5.6206   -4.1058    4.2593 O   0  0  0  0  0  0  0  0  0  0  0  0
    8.4016    0.8754    5.0595 C   0  0  2  0  0  0  0  0  0  0  0  0
    5.9056    4.4815    1.6750 C   0  0  2  0  0  0  0  0  0  0  0  0
    6.4939    4.1802    2.9382 O   0  0  0  0  0  0  0  0  0  0  0  0
    4.3700    9.0531   -0.3305 C   0  0  2  0  0  0  0  0  0  0  0  0
    4.0875    9.4868    0.9993 O   0  0  0  0  0  0  0  0  0  0  0  0
    7.3971   -2.4974    3.7598 C   0  0  2  0  0  0  0  0  0  0  0  0
    7.6562   -1.2438    3.0519 O   0  0  0  0  0  0  0  0  0  0  0  0
    8.3812    2.4035    4.8364 C   0  0  2  0  0  0  0  0  0  0  0  0
    8.2042    2.5781    3.4037 O   0  0  0  0  0  0  0  0  0  0  0  0
    5.0119    3.3036    1.1769 C   0  0  0  0  0  0  0  0  0  0  0  0
    3.9177    3.1320    2.0724 O   0  0  0  0  0  0  0  0  0  0  0  0
    4.1742    7.4943   -0.4488 C   0  0  1  0  0  0  0  0  0  0  0  0
    5.1461    6.8883    0.4778 O   0  0  0  0  0  0  0  0  0  0  0  0
    8.3517   -3.5537    3.2532 C   0  0  0  0  0  0  0  0  0  0  0  0
    8.1072   -3.8160    1.8928 O   0  0  0  0  0  0  0  0  0  0  0  0
    9.7494    3.0467    5.3163 C   0  0  1  0  0  0  0  0  0  0  0  0
    9.6735    4.4734    5.2513 O   0  0  0  0  0  0  0  0  0  0  0  0
    2.7032    6.9984   -0.1041 C   0  0  0  0  0  0  0  0  0  0  0  0
    2.2665    7.2125    1.3030 N   0  0  0  0  0  0  0  0  0  0  0  0
  1  2  1  1  0  0  0
  1  7  1  0  0  0  0
  1 30  1  0  0  0  0
  3  4  1  6  0  0  0
  3  9  1  0  0  0  0
  3 39  1  0  0  0  0
  5 10  1  0  0  0  0
  5 26  1  0  0  0  0
  5 32  1  6  0  0  0
  6 12  1  0  0  0  0
  6 36  1  0  0  0  0
  6 19  1  1  0  0  0
  7  8  1  1  0  0  0
  7 14  1  0  0  0  0
  9 16  1  0  0  0  0
 10 11  1  1  0  0  0
 10 18  1  0  0  0  0
 12 13  1  1  0  0  0
 12 20  1  0  0  0  0
 14 15  1  6  0  0  0
 14 22  1  0  0  0  0
 16 17  1  6  0  0  0
 16 24  1  0  0  0  0
 18 19  1  1  0  0  0
 18 25  1  0  0  0  0
 20 21  1  6  0  0  0
 20 27  1  0  0  0  0
 22 23  1  1  0  0  0
 22 29  1  0  0  0  0
 24  2  1  1  0  0  0
 24 31  1  0  0  0  0
 25 26  1  0  0  0  0
 25 33  1  6  0  0  0
 27 28  1  1  0  0  0
 27 35  1  0  0  0  0
 29 30  1  0  0  0  0
 29 37  1  6  0  0  0
 31 32  1  6  0  0  0
 31 39  1  0  0  0  0
 33 34  1  0  0  0  0
 35 36  1  0  0  0  0
 35 41  1  1  0  0  0
 37 38  1  0  0  0  0
 39 40  1  1  0  0  0
 41 42  1  0  0  0  0
M  END
>  <CHROM.1>
-174.31212351,-146.87379356,166.81284771,177.99376784,-179.41163163,57.91726945
168.86177159,158.98973924,-64.67078481,6.79447931,3.01380513,2.76853195,1.33128743
0.59663369,2.84347273

>  <Name>
ligand

>  <RI>
0

>  <Rbt.Current_Directory>
/home/itssahil/PROJECTS/Mol_Feturizer/Test_systems_manuscript/rnas/2o3w

>  <Rbt.Executable>
rbdock ($Id: //depot/dev/client3/rdock/2013.1/src/exe/rbdock.cxx#4 $)

>  <Rbt.Library>
libRbt.so (2013.1, Build901 2013/11/27)

>  <Rbt.Parameter_File>
/export/apps/rDock/src/rDock_2013.1_src/data/scripts/dock_solv.prm

>  <Rbt.Receptor>
prm/pocket_docking_2.prm

>  <SCORE>
-4.50597

>  <SCORE.INTER>
5.43895

>  <SCORE.INTER.CONST>
1

>  <SCORE.INTER.POLAR>
0

>  <SCORE.INTER.ROT>
9

>  <SCORE.INTER.SOLV>
11.2545

>  <SCORE.INTER.VDW>
-9.72552

>  <SCORE.INTER.norm>
0.129499

>  <SCORE.INTRA>
-9.94492

>  <SCORE.INTRA.DIHEDRAL>
-19.9515

>  <SCORE.INTRA.DIHEDRAL.0>
27.8999

>  <SCORE.INTRA.POLAR>
0

>  <SCORE.INTRA.POLAR.0>
0

>  <SCORE.INTRA.REPUL>
0

>  <SCORE.INTRA.REPUL.0>
0

>  <SCORE.INTRA.SOLV>
-2.09648

>  <SCORE.INTRA.SOLV.lig_0>
-104.479

>  <SCORE.INTRA.VDW>
1.07904

>  <SCORE.INTRA.VDW.0>
-6.17816

>  <SCORE.INTRA.norm>
-0.236784

>  <SCORE.RESTR>
0

>  <SCORE.RESTR.CAVITY>
0

>  <SCORE.RESTR.norm>
0

>  <SCORE.SYSTEM>
0

>  <SCORE.SYSTEM.CONST>
0

>  <SCORE.SYSTEM.DIHEDRAL>
0

>  <SCORE.SYSTEM.SOLV>
0

>  <SCORE.SYSTEM.norm>
0

>  <SCORE.heavy>
42

>  <SCORE.norm>
-0.107285

>  <RMSD>
1.193

$$$$
ligand
 OpenBabel02271912133D
libRbt.so/2013.1/901 2013/11/27
 42 45  0  0  0  0  0  0  0  0999 V2000
    6.6135   -0.1960    3.3348 C   0  0  2  0  0  0  0  0  0  0  0  0
    7.1219   -0.1661    4.6794 O   0  0  0  0  0  0  0  0  0  0  0  0
   10.4444    1.8860    6.5626 C   0  0  2  0  0  0  0  0  0  0  0  0
   11.8060    2.4208    6.8632 N   0  0  0  0  0  0  0  0  0  0  0  0
    7.9850    3.3830    2.8504 C   0  0  1  0  0  0  0  0  0  0  0  0
    6.6279    6.7837    0.3803 C   0  0  1  0  0  0  0  0  0  0  0  0
    5.0927   -0.5216    3.4305 C   0  0  2  0  0  0  0  0  0  0  0  0
    4.3916    0.3395    4.3988 N   0  0  0  0  0  0  0  0  0  0  0  0
   10.4192    0.3061    6.6360 C   0  0  0  0  0  0  0  0  0  0  0  0
    8.2929    3.5146    1.3277 C   0  0  2  0  0  0  0  0  0  0  0  0
    9.6333    3.9805    1.0356 O   0  0  0  0  0  0  0  0  0  0  0  0
    7.1257    8.2740    0.3941 C   0  0  2  0  0  0  0  0  0  0  0  0
    7.4731    8.7075    1.7806 N   0  0  0  0  0  0  0  0  0  0  0  0
    4.8327   -1.9772    3.8601 C   0  0  1  0  0  0  0  0  0  0  0  0
    3.4293   -2.2421    3.8960 O   0  0  0  0  0  0  0  0  0  0  0  0
    8.9566   -0.1955    6.3329 C   0  0  2  0  0  0  0  0  0  0  0  0
    8.8928   -1.6800    6.4079 N   0  0  0  0  0  0  0  0  0  0  0  0
    7.1584    4.4344    0.8737 C   0  0  2  0  0  0  0  0  0  0  0  0
    7.5412    5.8440    0.9604 O   0  0  0  0  0  0  0  0  0  0  0  0
    5.9931    9.2155   -0.2365 C   0  0  1  0  0  0  0  0  0  0  0  0
    5.9613    9.0139   -1.6673 O   0  0  0  0  0  0  0  0  0  0  0  0
    5.5639   -2.9381    2.8951 C   0  0  2  0  0  0  0  0  0  0  0  0
    5.3221   -4.2757    3.2649 O   0  0  0  0  0  0  0  0  0  0  0  0
    8.4889    0.2836    4.9019 C   0  0  2  0  0  0  0  0  0  0  0  0
    5.9657    4.1233    1.7935 C   0  0  2  0  0  0  0  0  0  0  0  0
    6.5935    3.7406    3.0149 O   0  0  0  0  0  0  0  0  0  0  0  0
    4.5393    8.9359    0.3767 C   0  0  2  0  0  0  0  0  0  0  0  0
    4.5491    9.3854    1.7310 O   0  0  0  0  0  0  0  0  0  0  0  0
    7.0969   -2.6241    2.9263 C   0  0  2  0  0  0  0  0  0  0  0  0
    7.3210   -1.2288    2.5484 O   0  0  0  0  0  0  0  0  0  0  0  0
    8.5415    1.8183    4.7374 C   0  0  2  0  0  0  0  0  0  0  0  0
    8.2636    2.0614    3.3309 O   0  0  0  0  0  0  0  0  0  0  0  0
    5.0117    3.0018    1.2775 C   0  0  0  0  0  0  0  0  0  0  0  0
    3.8405    2.9708    2.0876 O   0  0  0  0  0  0  0  0  0  0  0  0
    4.1960    7.3995    0.3146 C   0  0  1  0  0  0  0  0  0  0  0  0
    5.2712    6.7100    1.0487 O   0  0  0  0  0  0  0  0  0  0  0  0
    7.8922   -3.5170    2.0022 C   0  0  0  0  0  0  0  0  0  0  0  0
    9.2664   -3.2420    2.1263 O   0  0  0  0  0  0  0  0  0  0  0  0
    9.9786    2.3635    5.1289 C   0  0  1  0  0  0  0  0  0  0  0  0
    9.9824    3.7937    5.1224 O   0  0  0  0  0  0  0  0  0  0  0  0
    2.7802    7.0267    0.9350 C   0  0  0  0  0  0  0  0  0  0  0  0
    2.6513    7.2234    2.4051 N   0  0  0  0  0  0  0  0  0  0  0  0
  1  2  1  1  0  0  0
  1  7  1  0  0  0  0
  1 30  1  0  0  0  0
  3  4  1  6  0  0  0
  3  9  1  0  0  0  0
  3 39  1  0  0  0  0
  5 10  1  0  0  0  0
  5 26  1  0  0  0  0
  5 32  1  6  0  0  0
  6 12  1  0  0  0  0
  6 36  1  0  0  0  0
  6 19  1  1  0  0  0
  7  8  1  1  0  0  0
  7 14  1  0  0  0  0
  9 16  1  0  0  0  0
 10 11  1  1  0  0  0
 10 18  1  0  0  0  0
 12 13  1  1  0  0  0
 12 20  1  0  0  0  0
 14 15  1  6  0  0  0
 14 22  1  0  0  0  0
 16 17  1  6  0  0  0
 16 24  1  0  0  0  0
 18 19  1  1  0  0  0
 18 25  1  0  0  0  0
 20 21  1  6  0  0  0
 20 27  1  0  0  0  0
 22 23  1  1  0  0  0
 22 29  1  0  0  0  0
 24  2  1  1  0  0  0
 24 31  1  0  0  0  0
 25 26  1  0  0  0  0
 25 33  1  6  0  0  0
 27 28  1  1  0  0  0
 27 35  1  0  0  0  0
 29 30  1  0  0  0  0
 29 37  1  6  0  0  0
 31 32  1  6  0  0  0
 31 39  1  0  0  0  0
 33 34  1  0  0  0  0
 35 36  1  0  0  0  0
 35 41  1  1  0  0  0
 37 38  1  0  0  0  0
 39 40  1  1  0  0  0
 41 42  1  0  0  0  0
M  END
>  <CHROM.1>
-172.31589176,-162.23340608,171.32337823,-175.47678183,-170.02157737,-176.72060404
168.35268408,156.66083643,-66.79964647,6.86674216,2.70789072,2.79261612,1.34346504
0.49170213,2.88839038

>  <Name>
ligand

>  <RI>
0

>  <Rbt.Current_Directory>
/home/itssahil/PROJECTS/Mol_Feturizer/Test_systems_manuscript/rnas/2o3w

>  <Rbt.Executable>
rbdock ($Id: //depot/dev/client3/rdock/2013.1/src/exe/rbdock.cxx#4 $)

>  <Rbt.Library>
libRbt.so (2013.1, Build901 2013/11/27)

>  <Rbt.Parameter_File>
/export/apps/rDock/src/rDock_2013.1_src/data/scripts/dock_solv.prm

>  <Rbt.Receptor>
prm/pocket_docking_2.prm

>  <SCORE>
-6.4457

>  <SCORE.INTER>
5.01952

>  <SCORE.INTER.CONST>
1

>  <SCORE.INTER.POLAR>
0

>  <SCORE.INTER.ROT>
9

>  <SCORE.INTER.SOLV>
12.6876

>  <SCORE.INTER.VDW>
-10.4828

>  <SCORE.INTER.norm>
0.119512

>  <SCORE.INTRA>
-11.4693

>  <SCORE.INTRA.DIHEDRAL>
-22.0068

>  <SCORE.INTRA.DIHEDRAL.0>
27.8999

>  <SCORE.INTRA.POLAR>
0

>  <SCORE.INTRA.POLAR.0>
0

>  <SCORE.INTRA.REPUL>
0

>  <SCORE.INTRA.REPUL.0>
0

>  <SCORE.INTRA.SOLV>
-3.63591

>  <SCORE.INTRA.SOLV.lig_0>
-104.479

>  <SCORE.INTRA.VDW>
1.35202

>  <SCORE.INTRA.VDW.0>
-6.17816

>  <SCORE.INTRA.norm>
-0.27308

>  <SCORE.RESTR>
0.00411981

>  <SCORE.RESTR.CAVITY>
0.00411981

>  <SCORE.RESTR.norm>
9.80907e-05

>  <SCORE.SYSTEM>
0

>  <SCORE.SYSTEM.CONST>
0

>  <SCORE.SYSTEM.DIHEDRAL>
0

>  <SCORE.SYSTEM.SOLV>
0

>  <SCORE.SYSTEM.norm>
0

>  <SCORE.heavy>
42

>  <SCORE.norm>
-0.153469

>  <RMSD>
1.210

$$$$
ligand
 OpenBabel02271912133D
libRbt.so/2013.1/901 2013/11/27
 42 45  0  0  0  0  0  0  0  0999 V2000
    6.6567   -0.2817    3.1688 C   0  0  2  0  0  0  0  0  0  0  0  0
    7.0891   -0.1858    4.5367 O   0  0  0  0  0  0  0  0  0  0  0  0
   10.2667    1.9437    6.5774 C   0  0  2  0  0  0  0  0  0  0  0  0
   11.5959    2.5227    6.9354 N   0  0  0  0  0  0  0  0  0  0  0  0
    7.9108    3.4473    2.8189 C   0  0  1  0  0  0  0  0  0  0  0  0
    6.5257    6.8912    0.4726 C   0  0  1  0  0  0  0  0  0  0  0  0
    5.1484   -0.6725    3.1947 C   0  0  2  0  0  0  0  0  0  0  0  0
    4.3588    0.1867    4.0941 N   0  0  0  0  0  0  0  0  0  0  0  0
   10.3014    0.3627    6.6111 C   0  0  0  0  0  0  0  0  0  0  0  0
    8.2154    3.5972    1.2972 C   0  0  2  0  0  0  0  0  0  0  0  0
    9.5573    4.0606    1.0077 O   0  0  0  0  0  0  0  0  0  0  0  0
    6.9903    8.3882    0.5818 C   0  0  2  0  0  0  0  0  0  0  0  0
    7.3626    8.7301    1.9873 N   0  0  0  0  0  0  0  0  0  0  0  0
    4.9287   -2.1238    3.6597 C   0  0  1  0  0  0  0  0  0  0  0  0
    3.5383   -2.4505    3.6301 O   0  0  0  0  0  0  0  0  0  0  0  0
    8.8702   -0.1870    6.2480 C   0  0  2  0  0  0  0  0  0  0  0  0
    8.8626   -1.6744    6.2844 N   0  0  0  0  0  0  0  0  0  0  0  0
    7.0842    4.5283    0.8582 C   0  0  2  0  0  0  0  0  0  0  0  0
    7.4739    5.9347    0.9623 O   0  0  0  0  0  0  0  0  0  0  0  0
    5.8216    9.3448    0.0470 C   0  0  1  0  0  0  0  0  0  0  0  0
    5.7585    9.2450   -1.3934 O   0  0  0  0  0  0  0  0  0  0  0  0
    5.7525   -3.0811    2.7686 C   0  0  2  0  0  0  0  0  0  0  0  0
    5.5491   -4.4157    3.1709 O   0  0  0  0  0  0  0  0  0  0  0  0
    8.4295    0.3104    4.8147 C   0  0  2  0  0  0  0  0  0  0  0  0
    5.8924    4.2108    1.7769 C   0  0  2  0  0  0  0  0  0  0  0  0
    6.5215    3.8093    2.9917 O   0  0  0  0  0  0  0  0  0  0  0  0
    4.3903    8.9874    0.6723 C   0  0  2  0  0  0  0  0  0  0  0  0
    4.4239    9.3394    2.0548 O   0  0  0  0  0  0  0  0  0  0  0  0
    7.2665   -2.6974    2.8704 C   0  0  2  0  0  0  0  0  0  0  0  0
    7.4502   -1.3063    2.4571 O   0  0  0  0  0  0  0  0  0  0  0  0
    8.4268    1.8498    4.6898 C   0  0  2  0  0  0  0  0  0  0  0  0
    8.1843    2.1182    3.2813 O   0  0  0  0  0  0  0  0  0  0  0  0
    4.9317    3.1007    1.2489 C   0  0  0  0  0  0  0  0  0  0  0  0
    3.7797    3.0390    2.0844 O   0  0  0  0  0  0  0  0  0  0  0  0
    4.0798    7.4515    0.5081 C   0  0  1  0  0  0  0  0  0  0  0  0
    5.1881    6.7375    1.1655 O   0  0  0  0  0  0  0  0  0  0  0  0
    8.1491   -3.5826    2.0212 C   0  0  0  0  0  0  0  0  0  0  0  0
    9.5042   -3.2956    2.2676 O   0  0  0  0  0  0  0  0  0  0  0  0
    9.8281    2.4397    5.1414 C   0  0  1  0  0  0  0  0  0  0  0  0
    9.7757    3.8687    5.1702 O   0  0  0  0  0  0  0  0  0  0  0  0
    2.6886    7.0015    1.1331 C   0  0  0  0  0  0  0  0  0  0  0  0
    2.5183    7.2769    2.5863 N   0  0  0  0  0  0  0  0  0  0  0  0
  1  2  1  1  0  0  0
  1  7  1  0  0  0  0
  1 30  1  0  0  0  0
  3  4  1  6  0  0  0
  3  9  1  0  0  0  0
  3 39  1  0  0  0  0
  5 10  1  0  0  0  0
  5 26  1  0  0  0  0
  5 32  1  6  0  0  0
  6 12  1  0  0  0  0
  6 36  1  0  0  0  0
  6 19  1  1  0  0  0
  7  8  1  1  0  0  0
  7 14  1  0  0  0  0
  9 16  1  0  0  0  0
 10 11  1  1  0  0  0
 10 18  1  0  0  0  0
 12 13  1  1  0  0  0
 12 20  1  0  0  0  0
 14 15  1  6  0  0  0
 14 22  1  0  0  0  0
 16 17  1  6  0  0  0
 16 24  1  0  0  0  0
 18 19  1  1  0  0  0
 18 25  1  0  0  0  0
 20 21  1  6  0  0  0
 20 27  1  0  0  0  0
 22 23  1  1  0  0  0
 22 29  1  0  0  0  0
 24  2  1  1  0  0  0
 24 31  1  0  0  0  0
 25 26  1  0  0  0  0
 25 33  1  6  0  0  0
 27 28  1  1  0  0  0
 27 35  1  0  0  0  0
 29 30  1  0  0  0  0
 29 37  1  6  0  0  0
 31 32  1  6  0  0  0
 31 39  1  0  0  0  0
 33 34  1  0  0  0  0
 35 36  1  0  0  0  0
 35 41  1  1  0  0  0
 37 38  1  0  0  0  0
 39 40  1  1  0  0  0
 41 42  1  0  0  0  0
M  END
>  <CHROM.1>
-173.35818799,-158.26203228,175.10714263,-179.10308959,-171.66462173,-173.26232980
170.34137773,158.44040442,-58.11800673,6.82377479,2.72259571,2.80235339,1.32719648
0.50835903,2.93796318

>  <Name>
ligand

>  <RI>
0

>  <Rbt.Current_Directory>
/home/itssahil/PROJECTS/Mol_Feturizer/Test_systems_manuscript/rnas/2o3w

>  <Rbt.Executable>
rbdock ($Id: //depot/dev/client3/rdock/2013.1/src/exe/rbdock.cxx#4 $)

>  <Rbt.Library>
libRbt.so (2013.1, Build901 2013/11/27)

>  <Rbt.Parameter_File>
/export/apps/rDock/src/rDock_2013.1_src/data/scripts/dock_solv.prm

>  <Rbt.Receptor>
prm/pocket_docking_2.prm

>  <SCORE>
-6.72471

>  <SCORE.INTER>
4.53151

>  <SCORE.INTER.CONST>
1

>  <SCORE.INTER.POLAR>
0

>  <SCORE.INTER.ROT>
9

>  <SCORE.INTER.SOLV>
12.1699

>  <SCORE.INTER.VDW>
-10.6356

>  <SCORE.INTER.norm>
0.107893

>  <SCORE.INTRA>
-11.2711

>  <SCORE.INTRA.DIHEDRAL>
-22.4191

>  <SCORE.INTRA.DIHEDRAL.0>
27.8999

>  <SCORE.INTRA.POLAR>
0

>  <SCORE.INTRA.POLAR.0>
0

>  <SCORE.INTRA.REPUL>
0

>  <SCORE.INTRA.REPUL.0>
0

>  <SCORE.INTRA.SOLV>
-3.45159

>  <SCORE.INTRA.SOLV.lig_0>
-104.479

>  <SCORE.INTRA.VDW>
1.66424

>  <SCORE.INTRA.VDW.0>
-6.17816

>  <SCORE.INTRA.norm>
-0.26836

>  <SCORE.RESTR>
0.014907

>  <SCORE.RESTR.CAVITY>
0.014907

>  <SCORE.RESTR.norm>
0.000354929

>  <SCORE.SYSTEM>
0

>  <SCORE.SYSTEM.CONST>
0

>  <SCORE.SYSTEM.DIHEDRAL>
0

>  <SCORE.SYSTEM.SOLV>
0

>  <SCORE.SYSTEM.norm>
0

>  <SCORE.heavy>
42

>  <SCORE.norm>
-0.160112

>  <RMSD>
1.211

$$$$
ligand
 OpenBabel02271912133D
libRbt.so/2013.1/901 2013/11/27
 42 45  0  0  0  0  0  0  0  0999 V2000
    6.7924   -0.0988    3.1311 C   0  0  2  0  0  0  0  0  0  0  0  0
    7.1507   -0.0454    4.5225 O   0  0  0  0  0  0  0  0  0  0  0  0
   10.1135    2.1685    6.7845 C   0  0  2  0  0  0  0  0  0  0  0  0
   11.3956    2.7895    7.2329 N   0  0  0  0  0  0  0  0  0  0  0  0
    7.9804    3.6420    2.8968 C   0  0  1  0  0  0  0  0  0  0  0  0
    6.5930    7.0969    0.7007 C   0  0  1  0  0  0  0  0  0  0  0  0
    5.3003   -0.5424    3.0621 C   0  0  2  0  0  0  0  0  0  0  0  0
    4.4347    0.2503    3.9527 N   0  0  0  0  0  0  0  0  0  0  0  0
   10.2031    0.5894    6.8036 C   0  0  0  0  0  0  0  0  0  0  0  0
    8.3314    3.7955    1.3854 C   0  0  2  0  0  0  0  0  0  0  0  0
    9.6815    4.2592    1.1381 O   0  0  0  0  0  0  0  0  0  0  0  0
    7.1026    8.5818    0.6360 C   0  0  2  0  0  0  0  0  0  0  0  0
    7.7641    8.9750    1.9161 N   0  0  0  0  0  0  0  0  0  0  0  0
    5.1108   -2.0188    3.4563 C   0  0  1  0  0  0  0  0  0  0  0  0
    3.7367   -2.3920    3.3407 O   0  0  0  0  0  0  0  0  0  0  0  0
    8.8185   -0.0058    6.3440 C   0  0  2  0  0  0  0  0  0  0  0  0
    8.8623   -1.4928    6.3641 N   0  0  0  0  0  0  0  0  0  0  0  0
    7.2142    4.7279    0.9143 C   0  0  2  0  0  0  0  0  0  0  0  0
    7.6008    6.1339    1.0336 O   0  0  0  0  0  0  0  0  0  0  0  0
    5.8699    9.5498    0.3042 C   0  0  1  0  0  0  0  0  0  0  0  0
    5.5088    9.3868   -1.0858 O   0  0  0  0  0  0  0  0  0  0  0  0
    6.0137   -2.9086    2.5719 C   0  0  2  0  0  0  0  0  0  0  0  0
    5.8394   -4.2652    2.9091 O   0  0  0  0  0  0  0  0  0  0  0  0
    8.4520    0.4942    4.8909 C   0  0  2  0  0  0  0  0  0  0  0  0
    5.9949    4.4085    1.7956 C   0  0  2  0  0  0  0  0  0  0  0  0
    6.5866    4.0040    3.0280 O   0  0  0  0  0  0  0  0  0  0  0  0
    4.5908    9.2667    1.2269 C   0  0  2  0  0  0  0  0  0  0  0  0
    4.9165    9.6798    2.5534 O   0  0  0  0  0  0  0  0  0  0  0  0
    7.5053   -2.4771    2.7683 C   0  0  2  0  0  0  0  0  0  0  0  0
    7.6584   -1.0643    2.4215 O   0  0  0  0  0  0  0  0  0  0  0  0
    8.4017    2.0340    4.7823 C   0  0  2  0  0  0  0  0  0  0  0  0
    8.2395    2.3118    3.3642 O   0  0  0  0  0  0  0  0  0  0  0  0
    5.0505    3.2998    1.2358 C   0  0  0  0  0  0  0  0  0  0  0  0
    3.9192    3.1695    2.0914 O   0  0  0  0  0  0  0  0  0  0  0  0
    4.2198    7.7357    1.2081 C   0  0  1  0  0  0  0  0  0  0  0  0
    5.4240    7.0173    1.6599 O   0  0  0  0  0  0  0  0  0  0  0  0
    8.4621   -3.2947    1.9317 C   0  0  0  0  0  0  0  0  0  0  0  0
    8.4345   -4.6408    2.3397 O   0  0  0  0  0  0  0  0  0  0  0  0
    9.7494    2.6672    5.3287 C   0  0  1  0  0  0  0  0  0  0  0  0
    9.6438    4.0929    5.3693 O   0  0  0  0  0  0  0  0  0  0  0  0
    2.9780    7.3589    2.1271 C   0  0  0  0  0  0  0  0  0  0  0  0
    2.5324    5.9402    2.0547 N   0  0  0  0  0  0  0  0  0  0  0  0
  1  2  1  1  0  0  0
  1  7  1  0  0  0  0
  1 30  1  0  0  0  0
  3  4  1  6  0  0  0
  3  9  1  0  0  0  0
  3 39  1  0  0  0  0
  5 10  1  0  0  0  0
  5 26  1  0  0  0  0
  5 32  1  6  0  0  0
  6 12  1  0  0  0  0
  6 36  1  0  0  0  0
  6 19  1  1  0  0  0
  7  8  1  1  0  0  0
  7 14  1  0  0  0  0
  9 16  1  0  0  0  0
 10 11  1  1  0  0  0
 10 18  1  0  0  0  0
 12 13  1  1  0  0  0
 12 20  1  0  0  0  0
 14 15  1  6  0  0  0
 14 22  1  0  0  0  0
 16 17  1  6  0  0  0
 16 24  1  0  0  0  0
 18 19  1  1  0  0  0
 18 25  1  0  0  0  0
 20 21  1  6  0  0  0
 20 27  1  0  0  0  0
 22 23  1  1  0  0  0
 22 29  1  0  0  0  0
 24  2  1  1  0  0  0
 24 31  1  0  0  0  0
 25 26  1  0  0  0  0
 25 33  1  6  0  0  0
 27 28  1  1  0  0  0
 27 35  1  0  0  0  0
 29 30  1  0  0  0  0
 29 37  1  6  0  0  0
 31 32  1  6  0  0  0
 31 39  1  0  0  0  0
 33 34  1  0  0  0  0
 35 36  1  0  0  0  0
 35 41  1  1  0  0  0
 37 38  1  0  0  0  0
 39 40  1  1  0  0  0
 41 42  1  0  0  0  0
M  END
>  <CHROM.1>
-172.90432969,-160.25386426,-176.06469441,-171.43670765,-175.85025314,-64.08358967
171.87590814,160.18278193,175.50391416,6.89623319,2.84707384,2.89803084,1.35144980
0.59539677,2.99067442

>  <Name>
ligand

>  <RI>
0

>  <Rbt.Current_Directory>
/home/itssahil/PROJECTS/Mol_Feturizer/Test_systems_manuscript/rnas/2o3w

>  <Rbt.Executable>
rbdock ($Id: //depot/dev/client3/rdock/2013.1/src/exe/rbdock.cxx#4 $)

>  <Rbt.Library>
libRbt.so (2013.1, Build901 2013/11/27)

>  <Rbt.Parameter_File>
/export/apps/rDock/src/rDock_2013.1_src/data/scripts/dock_solv.prm

>  <Rbt.Receptor>
prm/pocket_docking_2.prm

>  <SCORE>
-7.37876

>  <SCORE.INTER>
3.39506

>  <SCORE.INTER.CONST>
1

>  <SCORE.INTER.POLAR>
0

>  <SCORE.INTER.ROT>
9

>  <SCORE.INTER.SOLV>
12.2783

>  <SCORE.INTER.VDW>
-11.4294

>  <SCORE.INTER.norm>
0.0808347

>  <SCORE.INTRA>
-10.8273

>  <SCORE.INTRA.DIHEDRAL>
-23.0613

>  <SCORE.INTRA.DIHEDRAL.0>
27.8999

>  <SCORE.INTRA.POLAR>
0

>  <SCORE.INTRA.POLAR.0>
0

>  <SCORE.INTRA.REPUL>
0

>  <SCORE.INTRA.REPUL.0>
0

>  <SCORE.INTRA.SOLV>
-2.62939

>  <SCORE.INTRA.SOLV.lig_0>
-104.479

>  <SCORE.INTRA.VDW>
2.01804

>  <SCORE.INTRA.VDW.0>
-6.17816

>  <SCORE.INTRA.norm>
-0.257793

>  <SCORE.RESTR>
0.0534727

>  <SCORE.RESTR.CAVITY>
0.0534727

>  <SCORE.RESTR.norm>
0.00127316

>  <SCORE.SYSTEM>
0

>  <SCORE.SYSTEM.CONST>
0

>  <SCORE.SYSTEM.DIHEDRAL>
0

>  <SCORE.SYSTEM.SOLV>
0

>  <SCORE.SYSTEM.norm>
0

>  <SCORE.heavy>
42

>  <SCORE.norm>
-0.175685

>  <RMSD>
1.215

$$$$
ligand
 OpenBabel02271912133D
libRbt.so/2013.1/901 2013/11/27
 42 45  0  0  0  0  0  0  0  0999 V2000
    6.6577   -0.3874    3.2448 C   0  0  2  0  0  0  0  0  0  0  0  0
    7.0209    0.0800    4.5552 O   0  0  0  0  0  0  0  0  0  0  0  0
   10.4220    1.8931    6.5403 C   0  0  2  0  0  0  0  0  0  0  0  0
   11.8063    2.3431    6.8746 N   0  0  0  0  0  0  0  0  0  0  0  0
    8.0337    3.6133    2.8469 C   0  0  1  0  0  0  0  0  0  0  0  0
    6.6193    7.1053    0.6701 C   0  0  1  0  0  0  0  0  0  0  0  0
    5.1122   -0.5862    3.2448 C   0  0  2  0  0  0  0  0  0  0  0  0
    4.3926    0.5889    3.7663 N   0  0  0  0  0  0  0  0  0  0  0  0
   10.3082    0.3158    6.5702 C   0  0  0  0  0  0  0  0  0  0  0  0
    8.3529    3.7955    1.3317 C   0  0  2  0  0  0  0  0  0  0  0  0
    9.6968    4.2668    1.0651 O   0  0  0  0  0  0  0  0  0  0  0  0
    7.1293    8.5914    0.6528 C   0  0  2  0  0  0  0  0  0  0  0  0
    7.7259    8.9661    1.9698 N   0  0  0  0  0  0  0  0  0  0  0  0
    4.6778   -1.7899    4.1013 C   0  0  1  0  0  0  0  0  0  0  0  0
    3.2605   -1.9580    4.0404 O   0  0  0  0  0  0  0  0  0  0  0  0
    8.8251   -0.0954    6.2329 C   0  0  2  0  0  0  0  0  0  0  0  0
    8.6781   -1.5755    6.2664 N   0  0  0  0  0  0  0  0  0  0  0  0
    7.2245    4.7338    0.9011 C   0  0  2  0  0  0  0  0  0  0  0  0
    7.6108    6.1383    1.0383 O   0  0  0  0  0  0  0  0  0  0  0  0
    5.9130    9.5633    0.2746 C   0  0  1  0  0  0  0  0  0  0  0  0
    5.6216    9.4208   -1.1338 O   0  0  0  0  0  0  0  0  0  0  0  0
    5.4179   -3.0588    3.6203 C   0  0  2  0  0  0  0  0  0  0  0  0
    5.0186   -4.1733    4.3837 O   0  0  0  0  0  0  0  0  0  0  0  0
    8.4070    0.4467    4.8091 C   0  0  2  0  0  0  0  0  0  0  0  0
    6.0243    4.3954    1.8013 C   0  0  2  0  0  0  0  0  0  0  0  0
    6.6421    3.9696    3.0135 O   0  0  0  0  0  0  0  0  0  0  0  0
    4.5902    9.2656    1.1284 C   0  0  2  0  0  0  0  0  0  0  0  0
    4.8491    9.6591    2.4755 O   0  0  0  0  0  0  0  0  0  0  0  0
    6.9609   -2.8277    3.7441 C   0  0  2  0  0  0  0  0  0  0  0  0
    7.3488   -1.6610    2.9515 O   0  0  0  0  0  0  0  0  0  0  0  0
    8.5470    1.9800    4.6873 C   0  0  2  0  0  0  0  0  0  0  0  0
    8.3049    2.2753    3.2842 O   0  0  0  0  0  0  0  0  0  0  0  0
    5.0707    3.2951    1.2408 C   0  0  0  0  0  0  0  0  0  0  0  0
    3.9142    3.2090    2.0679 O   0  0  0  0  0  0  0  0  0  0  0  0
    4.2229    7.7347    1.0686 C   0  0  1  0  0  0  0  0  0  0  0  0
    5.4043    7.0106    1.5689 O   0  0  0  0  0  0  0  0  0  0  0  0
    7.7663   -4.0218    3.2868 C   0  0  0  0  0  0  0  0  0  0  0  0
    7.4982   -4.2981    1.9336 O   0  0  0  0  0  0  0  0  0  0  0  0
   10.0058    2.4336    5.1138 C   0  0  1  0  0  0  0  0  0  0  0  0
   10.0888    3.8611    5.1464 O   0  0  0  0  0  0  0  0  0  0  0  0
    2.9376    7.3433    1.9191 C   0  0  0  0  0  0  0  0  0  0  0  0
    2.5233    5.9157    1.8368 N   0  0  0  0  0  0  0  0  0  0  0  0
  1  2  1  1  0  0  0
  1  7  1  0  0  0  0
  1 30  1  0  0  0  0
  3  4  1  6  0  0  0
  3  9  1  0  0  0  0
  3 39  1  0  0  0  0
  5 10  1  0  0  0  0
  5 26  1  0  0  0  0
  5 32  1  6  0  0  0
  6 12  1  0  0  0  0
  6 36  1  0  0  0  0
  6 19  1  1  0  0  0
  7  8  1  1  0  0  0
  7 14  1  0  0  0  0
  9 16  1  0  0  0  0
 10 11  1  1  0  0  0
 10 18  1  0  0  0  0
 12 13  1  1  0  0  0
 12 20  1  0  0  0  0
 14 15  1  6  0  0  0
 14 22  1  0  0  0  0
 16 17  1  6  0  0  0
 16 24  1  0  0  0  0
 18 19  1  1  0  0  0
 18 25  1  0  0  0  0
 20 21  1  6  0  0  0
 20 27  1  0  0  0  0
 22 23  1  1  0  0  0
 22 29  1  0  0  0  0
 24  2  1  1  0  0  0
 24 31  1  0  0  0  0
 25 26  1  0  0  0  0
 25 33  1  6  0  0  0
 27 28  1  1  0  0  0
 27 35  1  0  0  0  0
 29 30  1  0  0  0  0
 29 37  1  6  0  0  0
 31 32  1  6  0  0  0
 31 39  1  0  0  0  0
 33 34  1  0  0  0  0
 35 36  1  0  0  0  0
 35 41  1  1  0  0  0
 37 38  1  0  0  0  0
 39 40  1  1  0  0  0
 41 42  1  0  0  0  0
M  END
>  <CHROM.1>
-175.45822534,-138.49292848,-179.54392395,-172.45752735,-171.99011648,60.58075916
164.85118106,157.83576111,177.32503520,6.80789025,2.79338010,2.98612832,1.41086524
0.44672091,2.88944497

>  <Name>
ligand

>  <RI>
0

>  <Rbt.Current_Directory>
/home/itssahil/PROJECTS/Mol_Feturizer/Test_systems_manuscript/rnas/2o3w

>  <Rbt.Executable>
rbdock ($Id: //depot/dev/client3/rdock/2013.1/src/exe/rbdock.cxx#4 $)

>  <Rbt.Library>
libRbt.so (2013.1, Build901 2013/11/27)

>  <Rbt.Parameter_File>
/export/apps/rDock/src/rDock_2013.1_src/data/scripts/dock_solv.prm

>  <Rbt.Receptor>
prm/pocket_docking_2.prm

>  <SCORE>
-4.99571

>  <SCORE.INTER>
3.38182

>  <SCORE.INTER.CONST>
1

>  <SCORE.INTER.POLAR>
0

>  <SCORE.INTER.ROT>
9

>  <SCORE.INTER.SOLV>
11.4186

>  <SCORE.INTER.VDW>
-11.1517

>  <SCORE.INTER.norm>
0.0805196

>  <SCORE.INTRA>
-8.38068

>  <SCORE.INTRA.DIHEDRAL>
-18.3102

>  <SCORE.INTRA.DIHEDRAL.0>
27.8999

>  <SCORE.INTRA.POLAR>
0

>  <SCORE.INTRA.POLAR.0>
0

>  <SCORE.INTRA.REPUL>
0

>  <SCORE.INTRA.REPUL.0>
0

>  <SCORE.INTRA.SOLV>
-0.621182

>  <SCORE.INTRA.SOLV.lig_0>
-104.479

>  <SCORE.INTRA.VDW>
1.08504

>  <SCORE.INTRA.VDW.0>
-6.17816

>  <SCORE.INTRA.norm>
-0.19954

>  <SCORE.RESTR>
0.00314336

>  <SCORE.RESTR.CAVITY>
0.00314336

>  <SCORE.RESTR.norm>
7.48419e-05

>  <SCORE.SYSTEM>
0

>  <SCORE.SYSTEM.CONST>
0

>  <SCORE.SYSTEM.DIHEDRAL>
0

>  <SCORE.SYSTEM.SOLV>
0

>  <SCORE.SYSTEM.norm>
0

>  <SCORE.heavy>
42

>  <SCORE.norm>
-0.118946

>  <RMSD>
1.215

$$$$
ligand
 OpenBabel02271912133D
libRbt.so/2013.1/901 2013/11/27
 42 45  0  0  0  0  0  0  0  0999 V2000
    6.8764   -0.5462    3.3686 C   0  0  2  0  0  0  0  0  0  0  0  0
    7.1856   -0.2135    4.7328 O   0  0  0  0  0  0  0  0  0  0  0  0
   10.0971    2.2582    6.7846 C   0  0  2  0  0  0  0  0  0  0  0  0
   11.3572    2.9677    7.1574 N   0  0  0  0  0  0  0  0  0  0  0  0
    7.8597    3.4559    2.9053 C   0  0  1  0  0  0  0  0  0  0  0  0
    6.6065    6.8091    0.3540 C   0  0  1  0  0  0  0  0  0  0  0  0
    5.4067   -1.0636    3.3482 C   0  0  2  0  0  0  0  0  0  0  0  0
    4.4803   -0.1576    4.0491 N   0  0  0  0  0  0  0  0  0  0  0  0
   10.2758    0.6888    6.8681 C   0  0  0  0  0  0  0  0  0  0  0  0
    8.2138    3.5340    1.3889 C   0  0  2  0  0  0  0  0  0  0  0  0
    9.5708    3.9658    1.1221 O   0  0  0  0  0  0  0  0  0  0  0  0
    7.1143    8.2960    0.3616 C   0  0  2  0  0  0  0  0  0  0  0  0
    7.4760    8.7292    1.7445 N   0  0  0  0  0  0  0  0  0  0  0  0
    5.2646   -2.4457    4.0121 C   0  0  1  0  0  0  0  0  0  0  0  0
    3.9115   -2.8974    3.9354 O   0  0  0  0  0  0  0  0  0  0  0  0
    8.9115   -0.0011    6.4869 C   0  0  2  0  0  0  0  0  0  0  0  0
    9.0395   -1.4812    6.5691 N   0  0  0  0  0  0  0  0  0  0  0  0
    7.1108    4.4598    0.8736 C   0  0  2  0  0  0  0  0  0  0  0  0
    7.5180    5.8641    0.9281 O   0  0  0  0  0  0  0  0  0  0  0  0
    5.9830    9.2443   -0.2611 C   0  0  1  0  0  0  0  0  0  0  0  0
    5.9382    9.0409   -1.6914 O   0  0  0  0  0  0  0  0  0  0  0  0
    6.2321   -3.4441    3.3366 C   0  0  2  0  0  0  0  0  0  0  0  0
    6.1021   -4.7188    3.9220 O   0  0  0  0  0  0  0  0  0  0  0  0
    8.4667    0.4123    5.0284 C   0  0  2  0  0  0  0  0  0  0  0  0
    5.8863    4.1996    1.7671 C   0  0  2  0  0  0  0  0  0  0  0  0
    6.4712    3.8440    3.0177 O   0  0  0  0  0  0  0  0  0  0  0  0
    4.5325    8.9754    0.3642 C   0  0  2  0  0  0  0  0  0  0  0  0
    4.5563    9.4267    1.7178 O   0  0  0  0  0  0  0  0  0  0  0  0
    7.6974   -2.9145    3.4843 C   0  0  2  0  0  0  0  0  0  0  0  0
    7.8043   -1.5875    2.8782 O   0  0  0  0  0  0  0  0  0  0  0  0
    8.3262    1.9406    4.8558 C   0  0  2  0  0  0  0  0  0  0  0  0
    8.0988    2.1452    3.4342 O   0  0  0  0  0  0  0  0  0  0  0  0
    4.9261    3.0802    1.2581 C   0  0  0  0  0  0  0  0  0  0  0  0
    3.7665    3.0435    2.0844 O   0  0  0  0  0  0  0  0  0  0  0  0
    4.1783    7.4413    0.3072 C   0  0  1  0  0  0  0  0  0  0  0  0
    5.2547    6.7455    1.0335 O   0  0  0  0  0  0  0  0  0  0  0  0
    8.7142   -3.8305    2.8433 C   0  0  0  0  0  0  0  0  0  0  0  0
    8.4479   -3.9639    1.4683 O   0  0  0  0  0  0  0  0  0  0  0  0
    9.6545    2.6703    5.3235 C   0  0  1  0  0  0  0  0  0  0  0  0
    9.4705    4.0886    5.3068 O   0  0  0  0  0  0  0  0  0  0  0  0
    2.7651    7.0789    0.9397 C   0  0  0  0  0  0  0  0  0  0  0  0
    1.5827    7.6568    0.2435 N   0  0  0  0  0  0  0  0  0  0  0  0
  1  2  1  1  0  0  0
  1  7  1  0  0  0  0
  1 30  1  0  0  0  0
  3  4  1  6  0  0  0
  3  9  1  0  0  0  0
  3 39  1  0  0  0  0
  5 10  1  0  0  0  0
  5 26  1  0  0  0  0
  5 32  1  6  0  0  0
  6 12  1  0  0  0  0
  6 36  1  0  0  0  0
  6 19  1  1  0  0  0
  7  8  1  1  0  0  0
  7 14  1  0  0  0  0
  9 16  1  0  0  0  0
 10 11  1  1  0  0  0
 10 18  1  0  0  0  0
 12 13  1  1  0  0  0
 12 20  1  0  0  0  0
 14 15  1  6  0  0  0
 14 22  1  0  0  0  0
 16 17  1  6  0  0  0
 16 24  1  0  0  0  0
 18 19  1  1  0  0  0
 18 25  1  0  0  0  0
 20 21  1  6  0  0  0
 20 27  1  0  0  0  0
 22 23  1  1  0  0  0
 22 29  1  0  0  0  0
 24  2  1  1  0  0  0
 24 31  1  0  0  0  0
 25 26  1  0  0  0  0
 25 33  1  6  0  0  0
 27 28  1  1  0  0  0
 27 35  1  0  0  0  0
 29 30  1  0  0  0  0
 29 37  1  6  0  0  0
 31 32  1  6  0  0  0
 31 39  1  0  0  0  0
 33 34  1  0  0  0  0
 35 36  1  0  0  0  0
 35 41  1  1  0  0  0
 37 38  1  0  0  0  0
 39 40  1  1  0  0  0
 41 42  1  0  0  0  0
M  END
>  <CHROM.1>
-174.58638823,-150.28666596,174.46032609,-176.81741351,-173.46218699,59.93041131
177.15534019,156.90576815,64.23311419,6.87046135,2.67240128,2.82895423,1.31536332
0.59888196,2.91772056

>  <Name>
ligand

>  <RI>
0

>  <Rbt.Current_Directory>
/home/itssahil/PROJECTS/Mol_Feturizer/Test_systems_manuscript/rnas/2o3w

>  <Rbt.Executable>
rbdock ($Id: //depot/dev/client3/rdock/2013.1/src/exe/rbdock.cxx#4 $)

>  <Rbt.Library>
libRbt.so (2013.1, Build901 2013/11/27)

>  <Rbt.Parameter_File>
/export/apps/rDock/src/rDock_2013.1_src/data/scripts/dock_solv.prm

>  <Rbt.Receptor>
prm/pocket_docking_2.prm

>  <SCORE>
-5.82417

>  <SCORE.INTER>
4.99724

>  <SCORE.INTER.CONST>
1

>  <SCORE.INTER.POLAR>
0

>  <SCORE.INTER.ROT>
9

>  <SCORE.INTER.SOLV>
11.276

>  <SCORE.INTER.VDW>
-10.0272

>  <SCORE.INTER.norm>
0.118982

>  <SCORE.INTRA>
-10.8497

>  <SCORE.INTRA.DIHEDRAL>
-21.3219

>  <SCORE.INTRA.DIHEDRAL.0>
27.8999

>  <SCORE.INTRA.POLAR>
0

>  <SCORE.INTRA.POLAR.0>
0

>  <SCORE.INTRA.REPUL>
0

>  <SCORE.INTRA.REPUL.0>
0

>  <SCORE.INTRA.SOLV>
-4.3983

>  <SCORE.INTRA.SOLV.lig_0>
-104.479

>  <SCORE.INTRA.VDW>
2.01036

>  <SCORE.INTRA.VDW.0>
-6.17816

>  <SCORE.INTRA.norm>
-0.258327

>  <SCORE.RESTR>
0.0283201

>  <SCORE.RESTR.CAVITY>
0.0283201

>  <SCORE.RESTR.norm>
0.000674289

>  <SCORE.SYSTEM>
0

>  <SCORE.SYSTEM.CONST>
0

>  <SCORE.SYSTEM.DIHEDRAL>
0

>  <SCORE.SYSTEM.SOLV>
0

>  <SCORE.SYSTEM.norm>
0

>  <SCORE.heavy>
42

>  <SCORE.norm>
-0.138671

>  <RMSD>
1.224

$$$$
ligand
 OpenBabel02271912133D
libRbt.so/2013.1/901 2013/11/27
 42 45  0  0  0  0  0  0  0  0999 V2000
    7.0262   -0.6401    3.3083 C   0  0  2  0  0  0  0  0  0  0  0  0
    7.4045   -0.5880    4.6945 O   0  0  0  0  0  0  0  0  0  0  0  0
   10.2866    1.7167    6.9699 C   0  0  2  0  0  0  0  0  0  0  0  0
   11.5394    2.4002    7.4101 N   0  0  0  0  0  0  0  0  0  0  0  0
    7.9597    3.2129    3.2085 C   0  0  1  0  0  0  0  0  0  0  0  0
    6.3969    6.6578    0.8361 C   0  0  1  0  0  0  0  0  0  0  0  0
    5.6326   -1.3342    3.2427 C   0  0  2  0  0  0  0  0  0  0  0  0
    4.6650   -0.7462    4.1853 N   0  0  0  0  0  0  0  0  0  0  0  0
   10.4770    0.1474    6.9175 C   0  0  0  0  0  0  0  0  0  0  0  0
    8.1115    3.4022    1.6684 C   0  0  2  0  0  0  0  0  0  0  0  0
    9.4084    3.9037    1.2613 O   0  0  0  0  0  0  0  0  0  0  0  0
    6.8862    8.1508    0.8582 C   0  0  2  0  0  0  0  0  0  0  0  0
    7.1737    8.5974    2.2542 N   0  0  0  0  0  0  0  0  0  0  0  0
    5.7126   -2.8373    3.5673 C   0  0  1  0  0  0  0  0  0  0  0  0
    4.4218   -3.4394    3.4566 O   0  0  0  0  0  0  0  0  0  0  0  0
    9.1200   -0.5166    6.4701 C   0  0  2  0  0  0  0  0  0  0  0  0
    9.2589   -1.9972    6.4238 N   0  0  0  0  0  0  0  0  0  0  0  0
    6.9229    4.3148    1.3627 C   0  0  2  0  0  0  0  0  0  0  0  0
    7.2900    5.7277    1.4614 O   0  0  0  0  0  0  0  0  0  0  0  0
    5.7761    9.0812    0.1734 C   0  0  1  0  0  0  0  0  0  0  0  0
    5.8046    8.8678   -1.2558 O   0  0  0  0  0  0  0  0  0  0  0  0
    6.7340   -3.5145    2.6254 C   0  0  2  0  0  0  0  0  0  0  0  0
    6.8067   -4.8946    2.8987 O   0  0  0  0  0  0  0  0  0  0  0  0
    8.6792    0.0190    5.0507 C   0  0  2  0  0  0  0  0  0  0  0  0
    5.8333    3.9494    2.3848 C   0  0  2  0  0  0  0  0  0  0  0  0
    6.5862    3.5377    3.5233 O   0  0  0  0  0  0  0  0  0  0  0  0
    4.2996    8.7988    0.7281 C   0  0  2  0  0  0  0  0  0  0  0  0
    4.2510    9.2593    2.0779 O   0  0  0  0  0  0  0  0  0  0  0  0
    8.1323   -2.8383    2.8177 C   0  0  2  0  0  0  0  0  0  0  0  0
    8.0288   -1.4062    2.5379 O   0  0  0  0  0  0  0  0  0  0  0  0
    8.5278    1.5555    5.0109 C   0  0  2  0  0  0  0  0  0  0  0  0
    8.3060    1.8814    3.6113 O   0  0  0  0  0  0  0  0  0  0  0  0
    4.8503    2.8279    1.9265 C   0  0  0  0  0  0  0  0  0  0  0  0
    4.4348    2.0738    3.0612 O   0  0  0  0  0  0  0  0  0  0  0  0
    3.9668    7.2602    0.6646 C   0  0  1  0  0  0  0  0  0  0  0  0
    5.0140    6.5823    1.4483 O   0  0  0  0  0  0  0  0  0  0  0  0
    9.1954   -3.4373    1.9262 C   0  0  0  0  0  0  0  0  0  0  0  0
    9.4838   -4.7531    2.3322 O   0  0  0  0  0  0  0  0  0  0  0  0
    9.8482    2.2513    5.5478 C   0  0  1  0  0  0  0  0  0  0  0  0
    9.6533    3.6643    5.6535 O   0  0  0  0  0  0  0  0  0  0  0  0
    2.5283    6.8849    1.2289 C   0  0  0  0  0  0  0  0  0  0  0  0
    2.0951    5.4791    0.9995 N   0  0  0  0  0  0  0  0  0  0  0  0
  1  2  1  1  0  0  0
  1  7  1  0  0  0  0
  1 30  1  0  0  0  0
  3  4  1  6  0  0  0
  3  9  1  0  0  0  0
  3 39  1  0  0  0  0
  5 10  1  0  0  0  0
  5 26  1  0  0  0  0
  5 32  1  6  0  0  0
  6 12  1  0  0  0  0
  6 36  1  0  0  0  0
  6 19  1  1  0  0  0
  7  8  1  1  0  0  0
  7 14  1  0  0  0  0
  9 16  1  0  0  0  0
 10 11  1  1  0  0  0
 10 18  1  0  0  0  0
 12 13  1  1  0  0  0
 12 20  1  0  0  0  0
 14 15  1  6  0  0  0
 14 22  1  0  0  0  0
 16 17  1  6  0  0  0
 16 24  1  0  0  0  0
 18 19  1  1  0  0  0
 18 25  1  0  0  0  0
 20 21  1  6  0  0  0
 20 27  1  0  0  0  0
 22 23  1  1  0  0  0
 22 29  1  0  0  0  0
 24  2  1  1  0  0  0
 24 31  1  0  0  0  0
 25 26  1  0  0  0  0
 25 33  1  6  0  0  0
 27 28  1  1  0  0  0
 27 35  1  0  0  0  0
 29 30  1  0  0  0  0
 29 37  1  6  0  0  0
 31 32  1  6  0  0  0
 31 39  1  0  0  0  0
 33 34  1  0  0  0  0
 35 36  1  0  0  0  0
 35 41  1  1  0  0  0
 37 38  1  0  0  0  0
 39 40  1  1  0  0  0
 41 42  1  0  0  0  0
M  END
>  <CHROM.1>
-179.93559223,-158.50938875,162.65225755,-175.07620639,147.59595469,-68.46021807
172.39614341,166.17925246,171.14397401,7.00398214,2.34812451,2.99577958,1.23930078
0.63261608,3.03380333

>  <Name>
ligand

>  <RI>
0

>  <Rbt.Current_Directory>
/home/itssahil/PROJECTS/Mol_Feturizer/Test_systems_manuscript/rnas/2o3w

>  <Rbt.Executable>
rbdock ($Id: //depot/dev/client3/rdock/2013.1/src/exe/rbdock.cxx#4 $)

>  <Rbt.Library>
libRbt.so (2013.1, Build901 2013/11/27)

>  <Rbt.Parameter_File>
/export/apps/rDock/src/rDock_2013.1_src/data/scripts/dock_solv.prm

>  <Rbt.Receptor>
prm/pocket_docking_2.prm

>  <SCORE>
-5.28727

>  <SCORE.INTER>
4.86477

>  <SCORE.INTER.CONST>
1

>  <SCORE.INTER.POLAR>
0

>  <SCORE.INTER.ROT>
9

>  <SCORE.INTER.SOLV>
10.4649

>  <SCORE.INTER.VDW>
-9.84511

>  <SCORE.INTER.norm>
0.115828

>  <SCORE.INTRA>
-10.2214

>  <SCORE.INTRA.DIHEDRAL>
-19.5556

>  <SCORE.INTRA.DIHEDRAL.0>
27.8999

>  <SCORE.INTRA.POLAR>
0

>  <SCORE.INTRA.POLAR.0>
0

>  <SCORE.INTRA.REPUL>
0

>  <SCORE.INTRA.REPUL.0>
0

>  <SCORE.INTRA.SOLV>
-3.65524

>  <SCORE.INTRA.SOLV.lig_0>
-104.479

>  <SCORE.INTRA.VDW>
1.38403

>  <SCORE.INTRA.VDW.0>
-6.17816

>  <SCORE.INTRA.norm>
-0.243366

>  <SCORE.RESTR>
0.0693474

>  <SCORE.RESTR.CAVITY>
0.0693474

>  <SCORE.RESTR.norm>
0.00165113

>  <SCORE.SYSTEM>
0

>  <SCORE.SYSTEM.CONST>
0

>  <SCORE.SYSTEM.DIHEDRAL>
0

>  <SCORE.SYSTEM.SOLV>
0

>  <SCORE.SYSTEM.norm>
0

>  <SCORE.heavy>
42

>  <SCORE.norm>
-0.125887

>  <RMSD>
1.232

$$$$
ligand
 OpenBabel02271912133D
libRbt.so/2013.1/901 2013/11/27
 42 45  0  0  0  0  0  0  0  0999 V2000
    6.5925   -0.3601    3.2007 C   0  0  2  0  0  0  0  0  0  0  0  0
    7.0035   -0.2575    4.5747 O   0  0  0  0  0  0  0  0  0  0  0  0
   10.1324    1.8927    6.6682 C   0  0  2  0  0  0  0  0  0  0  0  0
   11.4505    2.4846    7.0458 N   0  0  0  0  0  0  0  0  0  0  0  0
    7.8697    3.4092    2.8867 C   0  0  1  0  0  0  0  0  0  0  0  0
    6.6236    6.9121    0.6358 C   0  0  1  0  0  0  0  0  0  0  0  0
    5.0897   -0.7720    3.2048 C   0  0  2  0  0  0  0  0  0  0  0  0
    4.2750    0.0765    4.0919 N   0  0  0  0  0  0  0  0  0  0  0  0
   10.1858    0.3120    6.6893 C   0  0  0  0  0  0  0  0  0  0  0  0
    8.2325    3.5566    1.3776 C   0  0  2  0  0  0  0  0  0  0  0  0
    9.5977    3.9785    1.1382 O   0  0  0  0  0  0  0  0  0  0  0  0
    7.1935    8.3747    0.5659 C   0  0  2  0  0  0  0  0  0  0  0  0
    7.8141    8.7681    1.8663 N   0  0  0  0  0  0  0  0  0  0  0  0
    4.8835   -2.2260    3.6676 C   0  0  1  0  0  0  0  0  0  0  0  0
    3.4984   -2.5722    3.6178 O   0  0  0  0  0  0  0  0  0  0  0  0
    8.7654   -0.2517    6.3057 C   0  0  2  0  0  0  0  0  0  0  0  0
    8.7754   -1.7393    6.3298 N   0  0  0  0  0  0  0  0  0  0  0  0
    7.1474    4.5252    0.9046 C   0  0  2  0  0  0  0  0  0  0  0  0
    7.5774    5.9181    1.0306 O   0  0  0  0  0  0  0  0  0  0  0  0
    6.0153    9.3825    0.1623 C   0  0  1  0  0  0  0  0  0  0  0  0
    5.7084    9.2053   -1.2389 O   0  0  0  0  0  0  0  0  0  0  0  0
    5.7336   -3.1721    2.7893 C   0  0  2  0  0  0  0  0  0  0  0  0
    5.5431   -4.5092    3.1895 O   0  0  0  0  0  0  0  0  0  0  0  0
    8.3347    0.2524    4.8718 C   0  0  2  0  0  0  0  0  0  0  0  0
    5.9144    4.2413    1.7790 C   0  0  2  0  0  0  0  0  0  0  0  0
    6.4872    3.8143    3.0127 O   0  0  0  0  0  0  0  0  0  0  0  0
    4.6874    9.1676    1.0331 C   0  0  2  0  0  0  0  0  0  0  0  0
    4.9716    9.5947    2.3647 O   0  0  0  0  0  0  0  0  0  0  0  0
    7.2404   -2.7672    2.9130 C   0  0  2  0  0  0  0  0  0  0  0  0
    7.4107   -1.3738    2.5015 O   0  0  0  0  0  0  0  0  0  0  0  0
    8.3148    1.7926    4.7595 C   0  0  2  0  0  0  0  0  0  0  0  0
    8.0846    2.0699    3.3507 O   0  0  0  0  0  0  0  0  0  0  0  0
    4.9384    3.1648    1.2109 C   0  0  0  0  0  0  0  0  0  0  0  0
    3.8050    3.0587    2.0671 O   0  0  0  0  0  0  0  0  0  0  0  0
    4.2577    7.6519    1.0266 C   0  0  1  0  0  0  0  0  0  0  0  0
    5.4121    6.8971    1.5441 O   0  0  0  0  0  0  0  0  0  0  0  0
    8.1477   -3.6403    2.0774 C   0  0  0  0  0  0  0  0  0  0  0  0
    9.4947   -3.3270    2.3356 O   0  0  0  0  0  0  0  0  0  0  0  0
    9.7038    2.3954    5.2315 C   0  0  1  0  0  0  0  0  0  0  0  0
    9.6339    3.8234    5.2715 O   0  0  0  0  0  0  0  0  0  0  0  0
    2.9634    7.3420    1.8969 C   0  0  0  0  0  0  0  0  0  0  0  0
    2.4922    5.9301    1.8668 N   0  0  0  0  0  0  0  0  0  0  0  0
  1  2  1  1  0  0  0
  1  7  1  0  0  0  0
  1 30  1  0  0  0  0
  3  4  1  6  0  0  0
  3  9  1  0  0  0  0
  3 39  1  0  0  0  0
  5 10  1  0  0  0  0
  5 26  1  0  0  0  0
  5 32  1  6  0  0  0
  6 12  1  0  0  0  0
  6 36  1  0  0  0  0
  6 19  1  1  0  0  0
  7  8  1  1  0  0  0
  7 14  1  0  0  0  0
  9 16  1  0  0  0  0
 10 11  1  1  0  0  0
 10 18  1  0  0  0  0
 12 13  1  1  0  0  0
 12 20  1  0  0  0  0
 14 15  1  6  0  0  0
 14 22  1  0  0  0  0
 16 17  1  6  0  0  0
 16 24  1  0  0  0  0
 18 19  1  1  0  0  0
 18 25  1  0  0  0  0
 20 21  1  6  0  0  0
 20 27  1  0  0  0  0
 22 23  1  1  0  0  0
 22 29  1  0  0  0  0
 24  2  1  1  0  0  0
 24 31  1  0  0  0  0
 25 26  1  0  0  0  0
 25 33  1  6  0  0  0
 27 28  1  1  0  0  0
 27 35  1  0  0  0  0
 29 30  1  0  0  0  0
 29 37  1  6  0  0  0
 31 32  1  6  0  0  0
 31 39  1  0  0  0  0
 33 34  1  0  0  0  0
 35 36  1  0  0  0  0
 35 41  1  1  0  0  0
 37 38  1  0  0  0  0
 39 40  1  1  0  0  0
 41 42  1  0  0  0  0
M  END
>  <CHROM.1>
-173.61044075,-157.62580070,-178.92873326,-170.68415361,-176.36009822,-173.72233164
173.64130182,156.28863560,177.43022438,6.84722094,2.68165048,2.88281117,1.37162837
0.52166663,2.93770736

>  <Name>
ligand

>  <RI>
0

>  <Rbt.Current_Directory>
/home/itssahil/PROJECTS/Mol_Feturizer/Test_systems_manuscript/rnas/2o3w

>  <Rbt.Executable>
rbdock ($Id: //depot/dev/client3/rdock/2013.1/src/exe/rbdock.cxx#4 $)

>  <Rbt.Library>
libRbt.so (2013.1, Build901 2013/11/27)

>  <Rbt.Parameter_File>
/export/apps/rDock/src/rDock_2013.1_src/data/scripts/dock_solv.prm

>  <Rbt.Receptor>
prm/pocket_docking_2.prm

>  <SCORE>
-6.91192

>  <SCORE.INTER>
4.03872

>  <SCORE.INTER.CONST>
1

>  <SCORE.INTER.POLAR>
0

>  <SCORE.INTER.ROT>
9

>  <SCORE.INTER.SOLV>
11.9302

>  <SCORE.INTER.VDW>
-10.8842

>  <SCORE.INTER.norm>
0.0961601

>  <SCORE.INTRA>
-10.9581

>  <SCORE.INTRA.DIHEDRAL>
-22.1098

>  <SCORE.INTRA.DIHEDRAL.0>
27.8999

>  <SCORE.INTRA.POLAR>
0

>  <SCORE.INTRA.POLAR.0>
0

>  <SCORE.INTRA.REPUL>
0

>  <SCORE.INTRA.REPUL.0>
0

>  <SCORE.INTRA.SOLV>
-3.15724

>  <SCORE.INTRA.SOLV.lig_0>
-104.479

>  <SCORE.INTRA.VDW>
1.67536

>  <SCORE.INTRA.VDW.0>
-6.17816

>  <SCORE.INTRA.norm>
-0.260908

>  <SCORE.RESTR>
0.00750384

>  <SCORE.RESTR.CAVITY>
0.00750384

>  <SCORE.RESTR.norm>
0.000178663

>  <SCORE.SYSTEM>
0

>  <SCORE.SYSTEM.CONST>
0

>  <SCORE.SYSTEM.DIHEDRAL>
0

>  <SCORE.SYSTEM.SOLV>
0

>  <SCORE.SYSTEM.norm>
0

>  <SCORE.heavy>
42

>  <SCORE.norm>
-0.16457

>  <RMSD>
1.291

$$$$
ligand
 OpenBabel02271912133D
libRbt.so/2013.1/901 2013/11/27
 42 45  0  0  0  0  0  0  0  0999 V2000
    6.8111   -0.5293    3.3797 C   0  0  2  0  0  0  0  0  0  0  0  0
    7.1107   -0.1815    4.7423 O   0  0  0  0  0  0  0  0  0  0  0  0
    9.9481    2.3142    6.8676 C   0  0  2  0  0  0  0  0  0  0  0  0
   11.1727    3.0831    7.2412 N   0  0  0  0  0  0  0  0  0  0  0  0
    7.4718    3.6909    3.2249 C   0  0  1  0  0  0  0  0  0  0  0  0
    5.9717    7.1820    0.8755 C   0  0  1  0  0  0  0  0  0  0  0  0
    5.3686   -1.1186    3.3672 C   0  0  2  0  0  0  0  0  0  0  0  0
    4.4024   -0.2591    4.0730 N   0  0  0  0  0  0  0  0  0  0  0  0
   10.2450    0.7623    6.7937 C   0  0  0  0  0  0  0  0  0  0  0  0
    7.5643    3.8588    1.6776 C   0  0  2  0  0  0  0  0  0  0  0  0
    8.8638    4.2956    1.2089 O   0  0  0  0  0  0  0  0  0  0  0  0
    6.4013    8.6780    1.0903 C   0  0  2  0  0  0  0  0  0  0  0  0
    6.5525    8.9861    2.5440 N   0  0  0  0  0  0  0  0  0  0  0  0
    5.2983   -2.5058    4.0317 C   0  0  1  0  0  0  0  0  0  0  0  0
    3.9687   -3.0237    3.9623 O   0  0  0  0  0  0  0  0  0  0  0  0
    8.9149    0.0056    6.4188 C   0  0  2  0  0  0  0  0  0  0  0  0
    9.1547   -1.4614    6.3547 N   0  0  0  0  0  0  0  0  0  0  0  0
    6.4067    4.8230    1.4137 C   0  0  2  0  0  0  0  0  0  0  0  0
    6.8426    6.2181    1.4805 O   0  0  0  0  0  0  0  0  0  0  0  0
    5.3193    9.6421    0.4072 C   0  0  1  0  0  0  0  0  0  0  0  0
    5.4769    9.5784   -1.0281 O   0  0  0  0  0  0  0  0  0  0  0  0
    6.3102   -3.4555    3.3511 C   0  0  2  0  0  0  0  0  0  0  0  0
    6.2463   -4.7349    3.9372 O   0  0  0  0  0  0  0  0  0  0  0  0
    8.3578    0.5129    5.0303 C   0  0  2  0  0  0  0  0  0  0  0  0
    5.3475    4.5182    2.4864 C   0  0  2  0  0  0  0  0  0  0  0  0
    6.1299    4.0823    3.5955 O   0  0  0  0  0  0  0  0  0  0  0  0
    3.8127    9.2620    0.7984 C   0  0  2  0  0  0  0  0  0  0  0  0
    3.6325    9.5791    2.1780 O   0  0  0  0  0  0  0  0  0  0  0  0
    7.7484   -2.8543    3.4910 C   0  0  2  0  0  0  0  0  0  0  0  0
    7.7866   -1.5238    2.8843 O   0  0  0  0  0  0  0  0  0  0  0  0
    8.0968    2.0350    5.0097 C   0  0  2  0  0  0  0  0  0  0  0  0
    7.7736    2.3485    3.6271 O   0  0  0  0  0  0  0  0  0  0  0  0
    4.2946    3.4395    2.0838 C   0  0  0  0  0  0  0  0  0  0  0  0
    4.9606    2.2098    1.8135 O   0  0  0  0  0  0  0  0  0  0  0  0
    3.5441    7.7293    0.5516 C   0  0  1  0  0  0  0  0  0  0  0  0
    4.5456    7.0043    1.3526 O   0  0  0  0  0  0  0  0  0  0  0  0
    8.8057   -3.7193    2.8446 C   0  0  0  0  0  0  0  0  0  0  0  0
    8.4979   -3.9287    1.4879 O   0  0  0  0  0  0  0  0  0  0  0  0
    9.3933    2.8206    5.4761 C   0  0  1  0  0  0  0  0  0  0  0  0
    9.1059    4.2160    5.6024 O   0  0  0  0  0  0  0  0  0  0  0  0
    2.0780    7.2569    0.9464 C   0  0  0  0  0  0  0  0  0  0  0  0
    1.6748    5.9184    0.4342 N   0  0  0  0  0  0  0  0  0  0  0  0
  1  2  1  1  0  0  0
  1  7  1  0  0  0  0
  1 30  1  0  0  0  0
  3  4  1  6  0  0  0
  3  9  1  0  0  0  0
  3 39  1  0  0  0  0
  5 10  1  0  0  0  0
  5 26  1  0  0  0  0
  5 32  1  6  0  0  0
  6 12  1  0  0  0  0
  6 36  1  0  0  0  0
  6 19  1  1  0  0  0
  7  8  1  1  0  0  0
  7 14  1  0  0  0  0
  9 16  1  0  0  0  0
 10 11  1  1  0  0  0
 10 18  1  0  0  0  0
 12 13  1  1  0  0  0
 12 20  1  0  0  0  0
 14 15  1  6  0  0  0
 14 22  1  0  0  0  0
 16 17  1  6  0  0  0
 16 24  1  0  0  0  0
 18 19  1  1  0  0  0
 18 25  1  0  0  0  0
 20 21  1  6  0  0  0
 20 27  1  0  0  0  0
 22 23  1  1  0  0  0
 22 29  1  0  0  0  0
 24  2  1  1  0  0  0
 24 31  1  0  0  0  0
 25 26  1  0  0  0  0
 25 33  1  6  0  0  0
 27 28  1  1  0  0  0
 27 35  1  0  0  0  0
 29 30  1  0  0  0  0
 29 37  1  6  0  0  0
 31 32  1  6  0  0  0
 31 39  1  0  0  0  0
 33 34  1  0  0  0  0
 35 36  1  0  0  0  0
 35 41  1  1  0  0  0
 37 38  1  0  0  0  0
 39 40  1  1  0  0  0
 41 42  1  0  0  0  0
M  END
>  <CHROM.1>
-174.27558744,-144.25978823,162.19762569,174.26480997,60.40729852,56.59509879
-179.84115610,163.56369458,165.85984708,6.59555868,2.76423490,3.05247945
1.25063543,0.62546036,3.01845322

>  <Name>
ligand

>  <RI>
0

>  <Rbt.Current_Directory>
/home/itssahil/PROJECTS/Mol_Feturizer/Test_systems_manuscript/rnas/2o3w

>  <Rbt.Executable>
rbdock ($Id: //depot/dev/client3/rdock/2013.1/src/exe/rbdock.cxx#4 $)

>  <Rbt.Library>
libRbt.so (2013.1, Build901 2013/11/27)

>  <Rbt.Parameter_File>
/export/apps/rDock/src/rDock_2013.1_src/data/scripts/dock_solv.prm

>  <Rbt.Receptor>
prm/pocket_docking_2.prm

>  <SCORE>
-6.03968

>  <SCORE.INTER>
3.75879

>  <SCORE.INTER.CONST>
1

>  <SCORE.INTER.POLAR>
0

>  <SCORE.INTER.ROT>
9

>  <SCORE.INTER.SOLV>
11.1979

>  <SCORE.INTER.VDW>
-10.8268

>  <SCORE.INTER.norm>
0.0894951

>  <SCORE.INTRA>
-9.79847

>  <SCORE.INTRA.DIHEDRAL>
-19.3821

>  <SCORE.INTRA.DIHEDRAL.0>
27.8999

>  <SCORE.INTRA.POLAR>
0

>  <SCORE.INTRA.POLAR.0>
0

>  <SCORE.INTRA.REPUL>
0

>  <SCORE.INTRA.REPUL.0>
0

>  <SCORE.INTRA.SOLV>
-2.61601

>  <SCORE.INTRA.SOLV.lig_0>
-104.479

>  <SCORE.INTRA.VDW>
1.20056

>  <SCORE.INTRA.VDW.0>
-6.17816

>  <SCORE.INTRA.norm>
-0.233297

>  <SCORE.RESTR>
0

>  <SCORE.RESTR.CAVITY>
0

>  <SCORE.RESTR.norm>
0

>  <SCORE.SYSTEM>
0

>  <SCORE.SYSTEM.CONST>
0

>  <SCORE.SYSTEM.DIHEDRAL>
0

>  <SCORE.SYSTEM.SOLV>
0

>  <SCORE.SYSTEM.norm>
0

>  <SCORE.heavy>
42

>  <SCORE.norm>
-0.143802

>  <RMSD>
1.291

$$$$
ligand
 OpenBabel02271912133D
libRbt.so/2013.1/901 2013/11/27
 42 45  0  0  0  0  0  0  0  0999 V2000
    6.8682   -0.1940    3.5572 C   0  0  2  0  0  0  0  0  0  0  0  0
    7.3829   -0.1718    4.8995 O   0  0  0  0  0  0  0  0  0  0  0  0
   10.8515    1.6569    6.7491 C   0  0  2  0  0  0  0  0  0  0  0  0
   12.2483    2.1002    7.0366 N   0  0  0  0  0  0  0  0  0  0  0  0
    8.4739    3.3100    3.0540 C   0  0  1  0  0  0  0  0  0  0  0  0
    6.9602    6.8439    0.8504 C   0  0  1  0  0  0  0  0  0  0  0  0
    5.3422   -0.4925    3.6598 C   0  0  2  0  0  0  0  0  0  0  0  0
    4.6608    0.3819    4.6303 N   0  0  0  0  0  0  0  0  0  0  0  0
   10.7217    0.0824    6.8259 C   0  0  0  0  0  0  0  0  0  0  0  0
    8.2054    3.3319    1.5184 C   0  0  2  0  0  0  0  0  0  0  0  0
    9.3994    3.4925    0.7136 O   0  0  0  0  0  0  0  0  0  0  0  0
    7.6620    8.2488    0.8002 C   0  0  2  0  0  0  0  0  0  0  0  0
    8.3380    8.5541    2.0967 N   0  0  0  0  0  0  0  0  0  0  0  0
    5.0583   -1.9428    4.0921 C   0  0  1  0  0  0  0  0  0  0  0  0
    3.6507   -2.1827    4.1343 O   0  0  0  0  0  0  0  0  0  0  0  0
    9.2263   -0.3210    6.5368 C   0  0  2  0  0  0  0  0  0  0  0  0
    9.0644   -1.7979    6.6153 N   0  0  0  0  0  0  0  0  0  0  0  0
    7.1787    4.4606    1.4124 C   0  0  2  0  0  0  0  0  0  0  0  0
    7.8241    5.7575    1.2067 O   0  0  0  0  0  0  0  0  0  0  0  0
    6.5757    9.3699    0.4396 C   0  0  1  0  0  0  0  0  0  0  0  0
    6.2305    9.2532   -0.9590 O   0  0  0  0  0  0  0  0  0  0  0  0
    5.7682   -2.9174    3.1248 C   0  0  2  0  0  0  0  0  0  0  0  0
    5.5043   -4.2502    3.4971 O   0  0  0  0  0  0  0  0  0  0  0  0
    8.7787    0.1861    5.1090 C   0  0  2  0  0  0  0  0  0  0  0  0
    6.3839    4.4364    2.7289 C   0  0  2  0  0  0  0  0  0  0  0  0
    7.3407    3.9611    3.6729 O   0  0  0  0  0  0  0  0  0  0  0  0
    5.2484    9.2592    1.3303 C   0  0  2  0  0  0  0  0  0  0  0  0
    5.5930    9.6283    2.6650 O   0  0  0  0  0  0  0  0  0  0  0  0
    7.3066   -2.6306    3.1491 C   0  0  2  0  0  0  0  0  0  0  0  0
    7.5538   -1.2399    2.7688 O   0  0  0  0  0  0  0  0  0  0  0  0
    8.9320    1.7136    4.9409 C   0  0  2  0  0  0  0  0  0  0  0  0
    8.6584    1.9727    3.5364 O   0  0  0  0  0  0  0  0  0  0  0  0
    5.1130    3.5315    2.7139 C   0  0  0  0  0  0  0  0  0  0  0  0
    4.4661    3.6078    3.9806 O   0  0  0  0  0  0  0  0  0  0  0  0
    4.6799    7.7901    1.3005 C   0  0  1  0  0  0  0  0  0  0  0  0
    5.7678    6.9205    1.7806 O   0  0  0  0  0  0  0  0  0  0  0  0
    8.0820   -3.5384    2.2224 C   0  0  0  0  0  0  0  0  0  0  0  0
    7.6939   -3.3156    0.8886 O   0  0  0  0  0  0  0  0  0  0  0  0
   10.4057    2.1623    5.3186 C   0  0  1  0  0  0  0  0  0  0  0  0
   10.5048    3.5891    5.3092 O   0  0  0  0  0  0  0  0  0  0  0  0
    3.3771    7.5817    2.1882 C   0  0  0  0  0  0  0  0  0  0  0  0
    2.8026    6.2083    2.1730 N   0  0  0  0  0  0  0  0  0  0  0  0
  1  2  1  1  0  0  0
  1  7  1  0  0  0  0
  1 30  1  0  0  0  0
  3  4  1  6  0  0  0
  3  9  1  0  0  0  0
  3 39  1  0  0  0  0
  5 10  1  0  0  0  0
  5 26  1  0  0  0  0
  5 32  1  1  0  0  0
  6 12  1  0  0  0  0
  6 36  1  0  0  0  0
  6 19  1  1  0  0  0
  7  8  1  1  0  0  0
  7 14  1  0  0  0  0
  9 16  1  0  0  0  0
 10 11  1  6  0  0  0
 10 18  1  0  0  0  0
 12 13  1  1  0  0  0
 12 20  1  0  0  0  0
 14 15  1  6  0  0  0
 14 22  1  0  0  0  0
 16 17  1  6  0  0  0
 16 24  1  0  0  0  0
 18 19  1  1  0  0  0
 18 25  1  0  0  0  0
 20 21  1  6  0  0  0
 20 27  1  0  0  0  0
 22 23  1  1  0  0  0
 22 29  1  0  0  0  0
 24  2  1  1  0  0  0
 24 31  1  0  0  0  0
 25 26  1  0  0  0  0
 25 33  1  6  0  0  0
 27 28  1  1  0  0  0
 27 35  1  0  0  0  0
 29 30  1  0  0  0  0
 29 37  1  6  0  0  0
 31 32  1  6  0  0  0
 31 39  1  0  0  0  0
 33 34  1  0  0  0  0
 35 36  1  0  0  0  0
 35 41  1  1  0  0  0
 37 38  1  0  0  0  0
 39 40  1  1  0  0  0
 41 42  1  0  0  0  0
M  END
>  <CHROM.1>
-175.49908024,-161.08560760,168.97182602,173.29283228,-179.46049050,63.29381084
168.81506861,179.54208766,179.37368848,7.17194251,2.71577799,3.17646101,1.40193431
0.49350230,2.92480159

>  <Name>
ligand

>  <RI>
0

>  <Rbt.Current_Directory>
/home/itssahil/PROJECTS/Mol_Feturizer/Test_systems_manuscript/rnas/2o3w

>  <Rbt.Executable>
rbdock ($Id: //depot/dev/client3/rdock/2013.1/src/exe/rbdock.cxx#4 $)

>  <Rbt.Library>
libRbt.so (2013.1, Build901 2013/11/27)

>  <Rbt.Parameter_File>
/export/apps/rDock/src/rDock_2013.1_src/data/scripts/dock_solv.prm

>  <Rbt.Receptor>
prm/pocket_docking_3.prm

>  <SCORE>
-10.1515

>  <SCORE.INTER>
1.99458

>  <SCORE.INTER.CONST>
1

>  <SCORE.INTER.POLAR>
0

>  <SCORE.INTER.ROT>
9

>  <SCORE.INTER.SOLV>
14.8148

>  <SCORE.INTER.VDW>
-13.2085

>  <SCORE.INTER.norm>
0.0474899

>  <SCORE.INTRA>
-12.1574

>  <SCORE.INTRA.DIHEDRAL>
-24.5987

>  <SCORE.INTRA.DIHEDRAL.0>
27.8999

>  <SCORE.INTRA.POLAR>
0

>  <SCORE.INTRA.POLAR.0>
0

>  <SCORE.INTRA.REPUL>
0

>  <SCORE.INTRA.REPUL.0>
0

>  <SCORE.INTRA.SOLV>
-2.65924

>  <SCORE.INTRA.SOLV.lig_0>
-104.479

>  <SCORE.INTRA.VDW>
1.47156

>  <SCORE.INTRA.VDW.0>
-6.17816

>  <SCORE.INTRA.norm>
-0.289462

>  <SCORE.RESTR>
0.0113603

>  <SCORE.RESTR.CAVITY>
0.0113603

>  <SCORE.RESTR.norm>
0.000270484

>  <SCORE.SYSTEM>
0

>  <SCORE.SYSTEM.CONST>
0

>  <SCORE.SYSTEM.DIHEDRAL>
0

>  <SCORE.SYSTEM.SOLV>
0

>  <SCORE.SYSTEM.norm>
0

>  <SCORE.heavy>
42

>  <SCORE.norm>
-0.241702

>  <RMSD>
1.369

$$$$
ligand
 OpenBabel02271912133D
libRbt.so/2013.1/901 2013/11/27
 42 45  0  0  0  0  0  0  0  0999 V2000
    6.8291    0.0263    3.3721 C   0  0  2  0  0  0  0  0  0  0  0  0
    7.4490   -0.1774    4.6533 O   0  0  0  0  0  0  0  0  0  0  0  0
   11.2171    1.2096    6.2883 C   0  0  2  0  0  0  0  0  0  0  0  0
   12.6715    1.4844    6.4878 N   0  0  0  0  0  0  0  0  0  0  0  0
    8.6076    3.1754    2.8188 C   0  0  1  0  0  0  0  0  0  0  0  0
    6.8931    6.7338    0.8785 C   0  0  1  0  0  0  0  0  0  0  0  0
    5.2944   -0.1502    3.5758 C   0  0  2  0  0  0  0  0  0  0  0  0
    4.7813    0.6410    4.7078 N   0  0  0  0  0  0  0  0  0  0  0  0
   10.9109   -0.3406    6.3596 C   0  0  0  0  0  0  0  0  0  0  0  0
    8.3856    3.2713    1.2786 C   0  0  2  0  0  0  0  0  0  0  0  0
    9.5889    3.5651    0.5269 O   0  0  0  0  0  0  0  0  0  0  0  0
    7.5314    8.1614    0.7263 C   0  0  2  0  0  0  0  0  0  0  0  0
    8.3863    8.4920    1.9056 N   0  0  0  0  0  0  0  0  0  0  0  0
    4.9053   -1.6155    3.8448 C   0  0  1  0  0  0  0  0  0  0  0  0
    3.4888   -1.7362    3.9855 O   0  0  0  0  0  0  0  0  0  0  0  0
    9.3634   -0.5645    6.1652 C   0  0  2  0  0  0  0  0  0  0  0  0
    9.0368   -2.0140    6.2413 N   0  0  0  0  0  0  0  0  0  0  0  0
    7.2827    4.3282    1.2026 C   0  0  2  0  0  0  0  0  0  0  0  0
    7.8373    5.6779    1.0955 O   0  0  0  0  0  0  0  0  0  0  0  0
    6.3656    9.2444    0.5388 C   0  0  1  0  0  0  0  0  0  0  0  0
    5.8155    9.1132   -0.7912 O   0  0  0  0  0  0  0  0  0  0  0  0
    5.4369   -2.5085    2.7006 C   0  0  2  0  0  0  0  0  0  0  0  0
    5.0745   -3.8514    2.9234 O   0  0  0  0  0  0  0  0  0  0  0  0
    8.8874    0.0140    4.7743 C   0  0  2  0  0  0  0  0  0  0  0  0
    6.4517    4.1675    2.4868 C   0  0  2  0  0  0  0  0  0  0  0  0
    7.4113    3.7053    3.4344 O   0  0  0  0  0  0  0  0  0  0  0  0
    5.1940    9.0908    1.6210 C   0  0  2  0  0  0  0  0  0  0  0  0
    5.7253    9.4741    2.8888 O   0  0  0  0  0  0  0  0  0  0  0  0
    6.9930   -2.3618    2.6195 C   0  0  2  0  0  0  0  0  0  0  0  0
    7.3440   -0.9592    2.3976 O   0  0  0  0  0  0  0  0  0  0  0  0
    9.2057    1.5163    4.6099 C   0  0  2  0  0  0  0  0  0  0  0  0
    8.8747    1.8279    3.2287 O   0  0  0  0  0  0  0  0  0  0  0  0
    5.2516    3.1768    2.3744 C   0  0  0  0  0  0  0  0  0  0  0  0
    4.3977    3.5907    1.3122 O   0  0  0  0  0  0  0  0  0  0  0  0
    4.6774    7.6033    1.6735 C   0  0  1  0  0  0  0  0  0  0  0  0
    5.8544    6.7720    1.9797 O   0  0  0  0  0  0  0  0  0  0  0  0
    7.5995   -3.1999    1.5179 C   0  0  0  0  0  0  0  0  0  0  0  0
    9.0016   -3.0863    1.5381 O   0  0  0  0  0  0  0  0  0  0  0  0
   10.7425    1.7861    4.8944 C   0  0  1  0  0  0  0  0  0  0  0  0
   11.0055    3.1920    4.8911 O   0  0  0  0  0  0  0  0  0  0  0  0
    3.5329    7.3528    2.7487 C   0  0  0  0  0  0  0  0  0  0  0  0
    3.0533    5.9478    2.8606 N   0  0  0  0  0  0  0  0  0  0  0  0
  1  2  1  1  0  0  0
  1  7  1  0  0  0  0
  1 30  1  0  0  0  0
  3  4  1  6  0  0  0
  3  9  1  0  0  0  0
  3 39  1  0  0  0  0
  5 10  1  0  0  0  0
  5 26  1  0  0  0  0
  5 32  1  1  0  0  0
  6 12  1  0  0  0  0
  6 36  1  0  0  0  0
  6 19  1  1  0  0  0
  7  8  1  1  0  0  0
  7 14  1  0  0  0  0
  9 16  1  0  0  0  0
 10 11  1  6  0  0  0
 10 18  1  0  0  0  0
 12 13  1  1  0  0  0
 12 20  1  0  0  0  0
 14 15  1  6  0  0  0
 14 22  1  0  0  0  0
 16 17  1  6  0  0  0
 16 24  1  0  0  0  0
 18 19  1  1  0  0  0
 18 25  1  0  0  0  0
 20 21  1  6  0  0  0
 20 27  1  0  0  0  0
 22 23  1  1  0  0  0
 22 29  1  0  0  0  0
 24  2  1  1  0  0  0
 24 31  1  0  0  0  0
 25 26  1  0  0  0  0
 25 33  1  6  0  0  0
 27 28  1  1  0  0  0
 27 35  1  0  0  0  0
 29 30  1  0  0  0  0
 29 37  1  6  0  0  0
 31 32  1  6  0  0  0
 31 39  1  0  0  0  0
 33 34  1  0  0  0  0
 35 36  1  0  0  0  0
 35 41  1  1  0  0  0
 37 38  1  0  0  0  0
 39 40  1  1  0  0  0
 41 42  1  0  0  0  0
M  END
>  <CHROM.1>
-176.09897564,-167.82915952,173.75090884,-178.26023896,-56.81690768,-176.80179946
158.81923403,175.65681942,-177.92572188,7.23364412,2.65646364,2.95956631
1.36586379,0.38516366,2.93884554

>  <Name>
ligand

>  <RI>
0

>  <Rbt.Current_Directory>
/home/itssahil/PROJECTS/Mol_Feturizer/Test_systems_manuscript/rnas/2o3w

>  <Rbt.Executable>
rbdock ($Id: //depot/dev/client3/rdock/2013.1/src/exe/rbdock.cxx#4 $)

>  <Rbt.Library>
libRbt.so (2013.1, Build901 2013/11/27)

>  <Rbt.Parameter_File>
/export/apps/rDock/src/rDock_2013.1_src/data/scripts/dock_solv.prm

>  <Rbt.Receptor>
prm/pocket_docking_3.prm

>  <SCORE>
-10.6025

>  <SCORE.INTER>
1.76389

>  <SCORE.INTER.CONST>
1

>  <SCORE.INTER.POLAR>
0

>  <SCORE.INTER.ROT>
9

>  <SCORE.INTER.SOLV>
14.4511

>  <SCORE.INTER.VDW>
-13.2411

>  <SCORE.INTER.norm>
0.0419974

>  <SCORE.INTRA>
-12.3664

>  <SCORE.INTRA.DIHEDRAL>
-24.5951

>  <SCORE.INTRA.DIHEDRAL.0>
27.8999

>  <SCORE.INTRA.POLAR>
0

>  <SCORE.INTRA.POLAR.0>
0

>  <SCORE.INTRA.REPUL>
0

>  <SCORE.INTRA.REPUL.0>
0

>  <SCORE.INTRA.SOLV>
-2.85622

>  <SCORE.INTRA.SOLV.lig_0>
-104.479

>  <SCORE.INTRA.VDW>
1.35932

>  <SCORE.INTRA.VDW.0>
-6.17816

>  <SCORE.INTRA.norm>
-0.294437

>  <SCORE.RESTR>
0

>  <SCORE.RESTR.CAVITY>
0

>  <SCORE.RESTR.norm>
0

>  <SCORE.SYSTEM>
0

>  <SCORE.SYSTEM.CONST>
0

>  <SCORE.SYSTEM.DIHEDRAL>
0

>  <SCORE.SYSTEM.SOLV>
0

>  <SCORE.SYSTEM.norm>
0

>  <SCORE.heavy>
42

>  <SCORE.norm>
-0.25244

>  <RMSD>
1.444

$$$$
ligand
 OpenBabel02271912133D
libRbt.so/2013.1/901 2013/11/27
 42 45  0  0  0  0  0  0  0  0999 V2000
    6.7218   -0.2271    3.2775 C   0  0  2  0  0  0  0  0  0  0  0  0
    7.2293   -0.3620    4.6160 O   0  0  0  0  0  0  0  0  0  0  0  0
   10.6015    1.4540    6.6473 C   0  0  2  0  0  0  0  0  0  0  0  0
   11.9794    1.9125    6.9961 N   0  0  0  0  0  0  0  0  0  0  0  0
    8.3373    3.2217    2.9504 C   0  0  1  0  0  0  0  0  0  0  0  0
    6.9174    6.8556    0.8751 C   0  0  1  0  0  0  0  0  0  0  0  0
    5.2133   -0.6152    3.3216 C   0  0  2  0  0  0  0  0  0  0  0  0
    4.4828    0.0820    4.3944 N   0  0  0  0  0  0  0  0  0  0  0  0
   10.5034   -0.1247    6.6523 C   0  0  0  0  0  0  0  0  0  0  0  0
    8.1295    3.3060    1.4075 C   0  0  2  0  0  0  0  0  0  0  0  0
    9.3548    3.4923    0.6572 O   0  0  0  0  0  0  0  0  0  0  0  0
    7.6397    8.2509    0.8680 C   0  0  2  0  0  0  0  0  0  0  0  0
    8.3375    8.4969    2.1655 N   0  0  0  0  0  0  0  0  0  0  0  0
    5.0044   -2.1238    3.5491 C   0  0  1  0  0  0  0  0  0  0  0  0
    3.6112   -2.4395    3.5426 O   0  0  0  0  0  0  0  0  0  0  0  0
    9.0263   -0.5453    6.3007 C   0  0  2  0  0  0  0  0  0  0  0  0
    8.8939   -2.0272    6.3106 N   0  0  0  0  0  0  0  0  0  0  0  0
    7.1118    4.4432    1.3066 C   0  0  2  0  0  0  0  0  0  0  0  0
    7.7694    5.7439    1.1781 O   0  0  0  0  0  0  0  0  0  0  0  0
    6.5659    9.4007    0.5650 C   0  0  1  0  0  0  0  0  0  0  0  0
    6.2003    9.3420   -0.8321 O   0  0  0  0  0  0  0  0  0  0  0  0
    5.7684   -2.9191    2.4661 C   0  0  2  0  0  0  0  0  0  0  0  0
    5.5737   -4.3021    2.6504 O   0  0  0  0  0  0  0  0  0  0  0  0
    8.6103    0.0146    4.8831 C   0  0  2  0  0  0  0  0  0  0  0  0
    6.2657    4.3707    2.5889 C   0  0  2  0  0  0  0  0  0  0  0  0
    7.1830    3.8535    3.5499 O   0  0  0  0  0  0  0  0  0  0  0  0
    5.2490    9.2758    1.4693 C   0  0  2  0  0  0  0  0  0  0  0  0
    5.6170    9.5891    2.8120 O   0  0  0  0  0  0  0  0  0  0  0  0
    7.2895   -2.5593    2.5463 C   0  0  2  0  0  0  0  0  0  0  0  0
    7.4647   -1.1188    2.3617 O   0  0  0  0  0  0  0  0  0  0  0  0
    8.7356    1.5508    4.7857 C   0  0  2  0  0  0  0  0  0  0  0  0
    8.4980    1.8654    3.3860 O   0  0  0  0  0  0  0  0  0  0  0  0
    4.9932    3.4736    2.4880 C   0  0  0  0  0  0  0  0  0  0  0  0
    4.2907    3.5126    3.7265 O   0  0  0  0  0  0  0  0  0  0  0  0
    4.6579    7.8175    1.3921 C   0  0  1  0  0  0  0  0  0  0  0  0
    5.7388    6.9144    1.8240 O   0  0  0  0  0  0  0  0  0  0  0  0
    8.1153   -3.2907    1.5133 C   0  0  0  0  0  0  0  0  0  0  0  0
    9.4786   -2.9844    1.6769 O   0  0  0  0  0  0  0  0  0  0  0  0
   10.1874    2.0123    5.2270 C   0  0  1  0  0  0  0  0  0  0  0  0
   10.2560    3.4398    5.2821 O   0  0  0  0  0  0  0  0  0  0  0  0
    3.3641    7.5947    2.2894 C   0  0  0  0  0  0  0  0  0  0  0  0
    2.7460    6.2431    2.2008 N   0  0  0  0  0  0  0  0  0  0  0  0
  1  2  1  1  0  0  0
  1  7  1  0  0  0  0
  1 30  1  0  0  0  0
  3  4  1  6  0  0  0
  3  9  1  0  0  0  0
  3 39  1  0  0  0  0
  5 10  1  0  0  0  0
  5 26  1  0  0  0  0
  5 32  1  1  0  0  0
  6 12  1  0  0  0  0
  6 36  1  0  0  0  0
  6 19  1  1  0  0  0
  7  8  1  1  0  0  0
  7 14  1  0  0  0  0
  9 16  1  0  0  0  0
 10 11  1  6  0  0  0
 10 18  1  0  0  0  0
 12 13  1  1  0  0  0
 12 20  1  0  0  0  0
 14 15  1  6  0  0  0
 14 22  1  0  0  0  0
 16 17  1  6  0  0  0
 16 24  1  0  0  0  0
 18 19  1  1  0  0  0
 18 25  1  0  0  0  0
 20 21  1  6  0  0  0
 20 27  1  0  0  0  0
 22 23  1  1  0  0  0
 22 29  1  0  0  0  0
 24  2  1  1  0  0  0
 24 31  1  0  0  0  0
 25 26  1  0  0  0  0
 25 33  1  6  0  0  0
 27 28  1  1  0  0  0
 27 35  1  0  0  0  0
 29 30  1  0  0  0  0
 29 37  1  6  0  0  0
 31 32  1  6  0  0  0
 31 39  1  0  0  0  0
 33 34  1  0  0  0  0
 35 36  1  0  0  0  0
 35 41  1  1  0  0  0
 37 38  1  0  0  0  0
 39 40  1  1  0  0  0
 41 42  1  0  0  0  0
M  END
>  <CHROM.1>
-176.51072954,-166.32580248,170.94577593,174.95912055,-178.93496048,-176.90258882
170.62521486,178.59706474,177.70718938,7.12647266,2.65753268,3.02621016,1.38935908
0.48451793,2.96959239

>  <Name>
ligand

>  <RI>
0

>  <Rbt.Current_Directory>
/home/itssahil/PROJECTS/Mol_Feturizer/Test_systems_manuscript/rnas/2o3w

>  <Rbt.Executable>
rbdock ($Id: //depot/dev/client3/rdock/2013.1/src/exe/rbdock.cxx#4 $)

>  <Rbt.Library>
libRbt.so (2013.1, Build901 2013/11/27)

>  <Rbt.Parameter_File>
/export/apps/rDock/src/rDock_2013.1_src/data/scripts/dock_solv.prm

>  <Rbt.Receptor>
prm/pocket_docking_3.prm

>  <SCORE>
-10.8697

>  <SCORE.INTER>
1.87813

>  <SCORE.INTER.CONST>
1

>  <SCORE.INTER.POLAR>
0

>  <SCORE.INTER.ROT>
9

>  <SCORE.INTER.SOLV>
14.0105

>  <SCORE.INTER.VDW>
-13.0181

>  <SCORE.INTER.norm>
0.0447174

>  <SCORE.INTRA>
-12.7478

>  <SCORE.INTRA.DIHEDRAL>
-25.8035

>  <SCORE.INTRA.DIHEDRAL.0>
27.8999

>  <SCORE.INTRA.POLAR>
0

>  <SCORE.INTRA.POLAR.0>
0

>  <SCORE.INTRA.REPUL>
0

>  <SCORE.INTRA.REPUL.0>
0

>  <SCORE.INTRA.SOLV>
-3.37806

>  <SCORE.INTRA.SOLV.lig_0>
-104.479

>  <SCORE.INTRA.VDW>
1.84297

>  <SCORE.INTRA.VDW.0>
-6.17816

>  <SCORE.INTRA.norm>
-0.303519

>  <SCORE.RESTR>
0

>  <SCORE.RESTR.CAVITY>
0

>  <SCORE.RESTR.norm>
0

>  <SCORE.SYSTEM>
0

>  <SCORE.SYSTEM.CONST>
0

>  <SCORE.SYSTEM.DIHEDRAL>
0

>  <SCORE.SYSTEM.SOLV>
0

>  <SCORE.SYSTEM.norm>
0

>  <SCORE.heavy>
42

>  <SCORE.norm>
-0.258802

>  <RMSD>
1.444

$$$$
ligand
 OpenBabel02271912133D
libRbt.so/2013.1/901 2013/11/27
 42 45  0  0  0  0  0  0  0  0999 V2000
    6.5646    0.0605    3.5168 C   0  0  2  0  0  0  0  0  0  0  0  0
    7.1173   -0.1645    4.8249 O   0  0  0  0  0  0  0  0  0  0  0  0
   10.6985    1.3952    6.7060 C   0  0  2  0  0  0  0  0  0  0  0  0
   12.1217    1.7381    7.0016 N   0  0  0  0  0  0  0  0  0  0  0  0
    8.3783    3.2618    3.0476 C   0  0  1  0  0  0  0  0  0  0  0  0
    6.9644    6.8702    0.9078 C   0  0  1  0  0  0  0  0  0  0  0  0
    5.0357   -0.2249    3.6136 C   0  0  2  0  0  0  0  0  0  0  0  0
    4.4019    0.4753    4.7444 N   0  0  0  0  0  0  0  0  0  0  0  0
   10.4621   -0.1679    6.7577 C   0  0  0  0  0  0  0  0  0  0  0  0
    8.1689    3.3301    1.5041 C   0  0  2  0  0  0  0  0  0  0  0  0
    9.3937    3.5071    0.7506 O   0  0  0  0  0  0  0  0  0  0  0  0
    7.6818    8.2681    0.9024 C   0  0  2  0  0  0  0  0  0  0  0  0
    8.3419    8.5340    2.2156 N   0  0  0  0  0  0  0  0  0  0  0  0
    4.7313   -1.7238    3.7917 C   0  0  1  0  0  0  0  0  0  0  0  0
    3.3203   -1.9430    3.8357 O   0  0  0  0  0  0  0  0  0  0  0  0
    8.9433   -0.4643    6.4610 C   0  0  2  0  0  0  0  0  0  0  0  0
    8.6815   -1.9279    6.5159 N   0  0  0  0  0  0  0  0  0  0  0  0
    7.1524    4.4674    1.3923 C   0  0  2  0  0  0  0  0  0  0  0  0
    7.8113    5.7659    1.2495 O   0  0  0  0  0  0  0  0  0  0  0  0
    6.6130    9.4096    0.5539 C   0  0  1  0  0  0  0  0  0  0  0  0
    6.2871    9.3310   -0.8519 O   0  0  0  0  0  0  0  0  0  0  0  0
    5.3913   -2.5237    2.6455 C   0  0  2  0  0  0  0  0  0  0  0  0
    5.1079   -3.8966    2.7848 O   0  0  0  0  0  0  0  0  0  0  0  0
    8.5338    0.0945    5.0412 C   0  0  2  0  0  0  0  0  0  0  0  0
    6.3076    4.4094    2.6762 C   0  0  2  0  0  0  0  0  0  0  0  0
    7.2253    3.9012    3.6416 O   0  0  0  0  0  0  0  0  0  0  0  0
    5.2716    9.2918    1.4225 C   0  0  2  0  0  0  0  0  0  0  0  0
    5.6006    9.6243    2.7707 O   0  0  0  0  0  0  0  0  0  0  0  0
    6.9359   -2.2725    2.6711 C   0  0  2  0  0  0  0  0  0  0  0  0
    7.2037   -0.8409    2.5347 O   0  0  0  0  0  0  0  0  0  0  0  0
    8.7907    1.6107    4.8975 C   0  0  2  0  0  0  0  0  0  0  0  0
    8.5378    1.9099    3.4972 O   0  0  0  0  0  0  0  0  0  0  0  0
    5.0340    3.5127    2.5860 C   0  0  0  0  0  0  0  0  0  0  0  0
    4.2849    3.6370    3.7912 O   0  0  0  0  0  0  0  0  0  0  0  0
    4.6879    7.8303    1.3482 C   0  0  1  0  0  0  0  0  0  0  0  0
    5.7593    6.9372    1.8224 O   0  0  0  0  0  0  0  0  0  0  0  0
    7.6640   -3.0149    1.5745 C   0  0  0  0  0  0  0  0  0  0  0  0
    7.5255   -4.4034    1.7544 O   0  0  0  0  0  0  0  0  0  0  0  0
   10.2907    1.9523    5.2834 C   0  0  1  0  0  0  0  0  0  0  0  0
   10.4863    3.3690    5.2968 O   0  0  0  0  0  0  0  0  0  0  0  0
    3.3702    7.6145    2.2117 C   0  0  0  0  0  0  0  0  0  0  0  0
    2.1714    8.3693    1.7536 N   0  0  0  0  0  0  0  0  0  0  0  0
  1  2  1  1  0  0  0
  1  7  1  0  0  0  0
  1 30  1  0  0  0  0
  3  4  1  6  0  0  0
  3  9  1  0  0  0  0
  3 39  1  0  0  0  0
  5 10  1  0  0  0  0
  5 26  1  0  0  0  0
  5 32  1  1  0  0  0
  6 12  1  0  0  0  0
  6 36  1  0  0  0  0
  6 19  1  1  0  0  0
  7  8  1  1  0  0  0
  7 14  1  0  0  0  0
  9 16  1  0  0  0  0
 10 11  1  6  0  0  0
 10 18  1  0  0  0  0
 12 13  1  1  0  0  0
 12 20  1  0  0  0  0
 14 15  1  6  0  0  0
 14 22  1  0  0  0  0
 16 17  1  6  0  0  0
 16 24  1  0  0  0  0
 18 19  1  1  0  0  0
 18 25  1  0  0  0  0
 20 21  1  6  0  0  0
 20 27  1  0  0  0  0
 22 23  1  1  0  0  0
 22 29  1  0  0  0  0
 24  2  1  1  0  0  0
 24 31  1  0  0  0  0
 25 26  1  0  0  0  0
 25 33  1  6  0  0  0
 27 28  1  1  0  0  0
 27 35  1  0  0  0  0
 29 30  1  0  0  0  0
 29 37  1  6  0  0  0
 31 32  1  6  0  0  0
 31 39  1  0  0  0  0
 33 34  1  0  0  0  0
 35 36  1  0  0  0  0
 35 41  1  1  0  0  0
 37 38  1  0  0  0  0
 39 40  1  1  0  0  0
 41 42  1  0  0  0  0
M  END
>  <CHROM.1>
-177.02000797,-170.10356289,169.66665423,174.26605905,-174.99479930,-63.53893176
165.63739619,177.93489896,66.15143633,7.00995238,2.77244875,3.11109449,1.40708275
0.47499077,2.94032385

>  <Name>
ligand

>  <RI>
0

>  <Rbt.Current_Directory>
/home/itssahil/PROJECTS/Mol_Feturizer/Test_systems_manuscript/rnas/2o3w

>  <Rbt.Executable>
rbdock ($Id: //depot/dev/client3/rdock/2013.1/src/exe/rbdock.cxx#4 $)

>  <Rbt.Library>
libRbt.so (2013.1, Build901 2013/11/27)

>  <Rbt.Parameter_File>
/export/apps/rDock/src/rDock_2013.1_src/data/scripts/dock_solv.prm

>  <Rbt.Receptor>
prm/pocket_docking_3.prm

>  <SCORE>
-10.4987

>  <SCORE.INTER>
2.2066

>  <SCORE.INTER.CONST>
1

>  <SCORE.INTER.POLAR>
0

>  <SCORE.INTER.ROT>
9

>  <SCORE.INTER.SOLV>
18.9157

>  <SCORE.INTER.VDW>
-14.4342

>  <SCORE.INTER.norm>
0.052538

>  <SCORE.INTRA>
-12.7053

>  <SCORE.INTRA.DIHEDRAL>
-25.3119

>  <SCORE.INTRA.DIHEDRAL.0>
27.8999

>  <SCORE.INTRA.POLAR>
0

>  <SCORE.INTRA.POLAR.0>
0

>  <SCORE.INTRA.REPUL>
0

>  <SCORE.INTRA.REPUL.0>
0

>  <SCORE.INTRA.SOLV>
-4.45891

>  <SCORE.INTRA.SOLV.lig_0>
-104.479

>  <SCORE.INTRA.VDW>
2.18007

>  <SCORE.INTRA.VDW.0>
-6.17816

>  <SCORE.INTRA.norm>
-0.302508

>  <SCORE.RESTR>
0

>  <SCORE.RESTR.CAVITY>
0

>  <SCORE.RESTR.norm>
0

>  <SCORE.SYSTEM>
0

>  <SCORE.SYSTEM.CONST>
0

>  <SCORE.SYSTEM.DIHEDRAL>
0

>  <SCORE.SYSTEM.SOLV>
0

>  <SCORE.SYSTEM.norm>
0

>  <SCORE.heavy>
42

>  <SCORE.norm>
-0.24997

>  <RMSD>
1.464

$$$$
ligand
 OpenBabel02271912133D
libRbt.so/2013.1/901 2013/11/27
 42 45  0  0  0  0  0  0  0  0999 V2000
    7.0573   -1.4791    3.0859 C   0  0  2  0  0  0  0  0  0  0  0  0
    7.1425   -0.3237    3.9374 O   0  0  0  0  0  0  0  0  0  0  0  0
   10.1411    1.5707    6.4306 C   0  0  2  0  0  0  0  0  0  0  0  0
   11.4366    2.1001    6.9520 N   0  0  0  0  0  0  0  0  0  0  0  0
    8.1359    3.4522    2.6491 C   0  0  1  0  0  0  0  0  0  0  0  0
    6.8331    7.1366    0.6707 C   0  0  1  0  0  0  0  0  0  0  0  0
    5.6526   -1.4452    2.4122 C   0  0  2  0  0  0  0  0  0  0  0  0
    5.3487   -0.1364    1.8076 N   0  0  0  0  0  0  0  0  0  0  0  0
   10.1704   -0.0066    6.3153 C   0  0  0  0  0  0  0  0  0  0  0  0
    8.3411    3.6848    1.1212 C   0  0  2  0  0  0  0  0  0  0  0  0
    9.6894    4.0731    0.7601 O   0  0  0  0  0  0  0  0  0  0  0  0
    7.3990    8.5874    0.8797 C   0  0  2  0  0  0  0  0  0  0  0  0
    7.8961    8.7701    2.2763 N   0  0  0  0  0  0  0  0  0  0  0  0
    4.5189   -1.7484    3.4091 C   0  0  1  0  0  0  0  0  0  0  0  0
    3.2558   -1.7459    2.7417 O   0  0  0  0  0  0  0  0  0  0  0  0
    8.7737   -0.5053    5.7832 C   0  0  2  0  0  0  0  0  0  0  0  0
    8.7608   -1.9892    5.6761 N   0  0  0  0  0  0  0  0  0  0  0  0
    7.2532    4.7196    0.8295 C   0  0  2  0  0  0  0  0  0  0  0  0
    7.7523    6.0853    0.9924 O   0  0  0  0  0  0  0  0  0  0  0  0
    6.2569    9.6556    0.5310 C   0  0  1  0  0  0  0  0  0  0  0  0
    6.0803    9.6995   -0.9028 O   0  0  0  0  0  0  0  0  0  0  0  0
    4.7893   -3.1042    4.1005 C   0  0  2  0  0  0  0  0  0  0  0  0
    3.7515   -3.4045    5.0044 O   0  0  0  0  0  0  0  0  0  0  0  0
    8.4557    0.1308    4.3725 C   0  0  2  0  0  0  0  0  0  0  0  0
    6.1101    4.4228    1.8147 C   0  0  2  0  0  0  0  0  0  0  0  0
    6.7931    3.8966    2.9500 O   0  0  0  0  0  0  0  0  0  0  0  0
    4.8564    9.3206    1.2336 C   0  0  2  0  0  0  0  0  0  0  0  0
    5.0154    9.5346    2.6355 O   0  0  0  0  0  0  0  0  0  0  0  0
    6.1656   -3.0335    4.8423 C   0  0  2  0  0  0  0  0  0  0  0  0
    7.2242   -2.7114    3.8854 O   0  0  0  0  0  0  0  0  0  0  0  0
    8.4659    1.6750    4.3959 C   0  0  2  0  0  0  0  0  0  0  0  0
    8.3428    2.0789    3.0044 O   0  0  0  0  0  0  0  0  0  0  0  0
    5.0346    3.4205    1.2922 C   0  0  0  0  0  0  0  0  0  0  0  0
    5.6844    2.2967    0.7060 O   0  0  0  0  0  0  0  0  0  0  0  0
    4.4373    7.8278    0.9540 C   0  0  1  0  0  0  0  0  0  0  0  0
    5.5438    6.9921    1.4516 O   0  0  0  0  0  0  0  0  0  0  0  0
    6.5148   -4.3253    5.5444 C   0  0  0  0  0  0  0  0  0  0  0  0
    6.5421   -5.3868    4.6215 O   0  0  0  0  0  0  0  0  0  0  0  0
    9.8254    2.2056    5.0172 C   0  0  1  0  0  0  0  0  0  0  0  0
    9.7731    3.6258    5.1784 O   0  0  0  0  0  0  0  0  0  0  0  0
    3.0708    7.3985    1.6445 C   0  0  0  0  0  0  0  0  0  0  0  0
    3.0886    7.3568    3.1327 N   0  0  0  0  0  0  0  0  0  0  0  0
  1  2  1  1  0  0  0
  1  7  1  0  0  0  0
  1 30  1  0  0  0  0
  3  4  1  6  0  0  0
  3  9  1  0  0  0  0
  3 39  1  0  0  0  0
  5 10  1  0  0  0  0
  5 26  1  0  0  0  0
  5 32  1  6  0  0  0
  6 12  1  0  0  0  0
  6 36  1  0  0  0  0
  6 19  1  1  0  0  0
  7  8  1  1  0  0  0
  7 14  1  0  0  0  0
  9 16  1  0  0  0  0
 10 11  1  1  0  0  0
 10 18  1  0  0  0  0
 12 13  1  1  0  0  0
 12 20  1  0  0  0  0
 14 15  1  6  0  0  0
 14 22  1  0  0  0  0
 16 17  1  6  0  0  0
 16 24  1  0  0  0  0
 18 19  1  1  0  0  0
 18 25  1  0  0  0  0
 20 21  1  6  0  0  0
 20 27  1  0  0  0  0
 22 23  1  1  0  0  0
 22 29  1  0  0  0  0
 24  2  1  1  0  0  0
 24 31  1  0  0  0  0
 25 26  1  0  0  0  0
 25 33  1  6  0  0  0
 27 28  1  1  0  0  0
 27 35  1  0  0  0  0
 29 30  1  0  0  0  0
 29 37  1  6  0  0  0
 31 32  1  6  0  0  0
 31 39  1  0  0  0  0
 33 34  1  0  0  0  0
 35 36  1  0  0  0  0
 35 41  1  1  0  0  0
 37 38  1  0  0  0  0
 39 40  1  1  0  0  0
 41 42  1  0  0  0  0
M  END
>  <CHROM.1>
-161.44773552,-94.28282615,176.65449364,179.09931476,46.43328216,57.89214669
171.50480087,167.74331180,-66.41325670,6.82589407,2.61564073,2.99065801,1.48767431
0.44491514,2.85590243

>  <Name>
ligand

>  <RI>
0

>  <Rbt.Current_Directory>
/home/itssahil/PROJECTS/Mol_Feturizer/Test_systems_manuscript/rnas/2o3w

>  <Rbt.Executable>
rbdock ($Id: //depot/dev/client3/rdock/2013.1/src/exe/rbdock.cxx#4 $)

>  <Rbt.Library>
libRbt.so (2013.1, Build901 2013/11/27)

>  <Rbt.Parameter_File>
/export/apps/rDock/src/rDock_2013.1_src/data/scripts/dock_solv.prm

>  <Rbt.Receptor>
prm/pocket_docking_3.prm

>  <SCORE>
-3.85133

>  <SCORE.INTER>
2.5998

>  <SCORE.INTER.CONST>
1

>  <SCORE.INTER.POLAR>
0

>  <SCORE.INTER.ROT>
9

>  <SCORE.INTER.SOLV>
11.7374

>  <SCORE.INTER.VDW>
-11.7793

>  <SCORE.INTER.norm>
0.0619001

>  <SCORE.INTRA>
-6.45113

>  <SCORE.INTRA.DIHEDRAL>
-19.8929

>  <SCORE.INTRA.DIHEDRAL.0>
27.8999

>  <SCORE.INTRA.POLAR>
0

>  <SCORE.INTRA.POLAR.0>
0

>  <SCORE.INTRA.REPUL>
0

>  <SCORE.INTRA.REPUL.0>
0

>  <SCORE.INTRA.SOLV>
1.74985

>  <SCORE.INTRA.SOLV.lig_0>
-104.479

>  <SCORE.INTRA.VDW>
2.62042

>  <SCORE.INTRA.VDW.0>
-6.17816

>  <SCORE.INTRA.norm>
-0.153598

>  <SCORE.RESTR>
0

>  <SCORE.RESTR.CAVITY>
0

>  <SCORE.RESTR.norm>
0

>  <SCORE.SYSTEM>
0

>  <SCORE.SYSTEM.CONST>
0

>  <SCORE.SYSTEM.DIHEDRAL>
0

>  <SCORE.SYSTEM.SOLV>
0

>  <SCORE.SYSTEM.norm>
0

>  <SCORE.heavy>
42

>  <SCORE.norm>
-0.0916982

>  <RMSD>
1.567

$$$$
ligand
 OpenBabel02271912133D
libRbt.so/2013.1/901 2013/11/27
 42 45  0  0  0  0  0  0  0  0999 V2000
    6.2029   -0.7539    2.8413 C   0  0  2  0  0  0  0  0  0  0  0  0
    6.5139   -1.0047    4.2224 O   0  0  0  0  0  0  0  0  0  0  0  0
    9.3409    0.8499    6.9363 C   0  0  2  0  0  0  0  0  0  0  0  0
   10.5979    1.3766    7.5470 N   0  0  0  0  0  0  0  0  0  0  0  0
    7.6770    2.8244    3.0913 C   0  0  1  0  0  0  0  0  0  0  0  0
    6.7200    6.6559    1.0816 C   0  0  1  0  0  0  0  0  0  0  0  0
    4.7508   -1.2659    2.6016 C   0  0  2  0  0  0  0  0  0  0  0  0
    3.8019   -0.7625    3.6099 N   0  0  0  0  0  0  0  0  0  0  0  0
    9.3927   -0.7235    6.7830 C   0  0  0  0  0  0  0  0  0  0  0  0
    7.7728    3.0502    1.5516 C   0  0  2  0  0  0  0  0  0  0  0  0
    9.1213    3.2744    1.0717 O   0  0  0  0  0  0  0  0  0  0  0  0
    7.4597    8.0278    1.2803 C   0  0  2  0  0  0  0  0  0  0  0  0
    7.9063    8.1929    2.6960 N   0  0  0  0  0  0  0  0  0  0  0  0
    4.6603   -2.8027    2.6339 C   0  0  1  0  0  0  0  0  0  0  0  0
    3.3220   -3.2277    2.3707 O   0  0  0  0  0  0  0  0  0  0  0  0
    8.0350   -1.2202    6.1565 C   0  0  2  0  0  0  0  0  0  0  0  0
    8.0433   -2.7009    6.0112 N   0  0  0  0  0  0  0  0  0  0  0  0
    6.7998    4.2147    1.3611 C   0  0  2  0  0  0  0  0  0  0  0  0
    7.4765    5.5064    1.4814 O   0  0  0  0  0  0  0  0  0  0  0  0
    6.4861    9.2219    0.8410 C   0  0  1  0  0  0  0  0  0  0  0  0
    6.3883    9.2386   -0.6009 O   0  0  0  0  0  0  0  0  0  0  0  0
    5.6535   -3.3993    1.6108 C   0  0  2  0  0  0  0  0  0  0  0  0
    5.5709   -4.8056    1.6161 O   0  0  0  0  0  0  0  0  0  0  0  0
    7.7945   -0.5505    4.7461 C   0  0  2  0  0  0  0  0  0  0  0  0
    5.7208    4.0479    2.4442 C   0  0  2  0  0  0  0  0  0  0  0  0
    6.4316    3.4265    3.5125 O   0  0  0  0  0  0  0  0  0  0  0  0
    5.0205    9.0952    1.4762 C   0  0  2  0  0  0  0  0  0  0  0  0
    5.1362    9.3352    2.8781 O   0  0  0  0  0  0  0  0  0  0  0  0
    7.1020   -2.9290    1.9714 C   0  0  2  0  0  0  0  0  0  0  0  0
    7.1597   -1.4673    1.9687 O   0  0  0  0  0  0  0  0  0  0  0  0
    7.7878    0.9926    4.8092 C   0  0  2  0  0  0  0  0  0  0  0  0
    7.7431    1.4314    3.4235 O   0  0  0  0  0  0  0  0  0  0  0  0
    4.4874    3.1925    2.0183 C   0  0  0  0  0  0  0  0  0  0  0  0
    3.8816    3.7795    0.8705 O   0  0  0  0  0  0  0  0  0  0  0  0
    4.4242    7.6603    1.2160 C   0  0  1  0  0  0  0  0  0  0  0  0
    5.3856    6.7064    1.7956 O   0  0  0  0  0  0  0  0  0  0  0  0
    8.1421   -3.4632    1.0140 C   0  0  0  0  0  0  0  0  0  0  0  0
    9.4317   -3.1131    1.4541 O   0  0  0  0  0  0  0  0  0  0  0  0
    9.1028    1.5185    5.5232 C   0  0  1  0  0  0  0  0  0  0  0  0
    9.0268    2.9336    5.7170 O   0  0  0  0  0  0  0  0  0  0  0  0
    2.9805    7.4354    1.8436 C   0  0  0  0  0  0  0  0  0  0  0  0
    2.9402    7.2851    3.3243 N   0  0  0  0  0  0  0  0  0  0  0  0
  1  2  1  1  0  0  0
  1  7  1  0  0  0  0
  1 30  1  0  0  0  0
  3  4  1  6  0  0  0
  3  9  1  0  0  0  0
  3 39  1  0  0  0  0
  5 10  1  0  0  0  0
  5 26  1  0  0  0  0
  5 32  1  6  0  0  0
  6 12  1  0  0  0  0
  6 36  1  0  0  0  0
  6 19  1  1  0  0  0
  7  8  1  1  0  0  0
  7 14  1  0  0  0  0
  9 16  1  0  0  0  0
 10 11  1  1  0  0  0
 10 18  1  0  0  0  0
 12 13  1  1  0  0  0
 12 20  1  0  0  0  0
 14 15  1  6  0  0  0
 14 22  1  0  0  0  0
 16 17  1  6  0  0  0
 16 24  1  0  0  0  0
 18 19  1  1  0  0  0
 18 25  1  0  0  0  0
 20 21  1  6  0  0  0
 20 27  1  0  0  0  0
 22 23  1  1  0  0  0
 22 29  1  0  0  0  0
 24  2  1  1  0  0  0
 24 31  1  0  0  0  0
 25 26  1  0  0  0  0
 25 33  1  6  0  0  0
 27 28  1  1  0  0  0
 27 35  1  0  0  0  0
 29 30  1  0  0  0  0
 29 37  1  6  0  0  0
 31 32  1  6  0  0  0
 31 39  1  0  0  0  0
 33 34  1  0  0  0  0
 35 36  1  0  0  0  0
 35 41  1  1  0  0  0
 37 38  1  0  0  0  0
 39 40  1  1  0  0  0
 41 42  1  0  0  0  0
M  END
>  <CHROM.1>
-176.46317708,-167.25021347,168.97668441,177.64049386,-58.03151135,-174.60463733
177.74979608,174.69489500,-73.23100701,6.64684781,2.30808533,2.84873541,1.39646152
0.73197391,3.07307245

>  <Name>
ligand

>  <RI>
0

>  <Rbt.Current_Directory>
/home/itssahil/PROJECTS/Mol_Feturizer/Test_systems_manuscript/rnas/2o3w

>  <Rbt.Executable>
rbdock ($Id: //depot/dev/client3/rdock/2013.1/src/exe/rbdock.cxx#4 $)

>  <Rbt.Library>
libRbt.so (2013.1, Build901 2013/11/27)

>  <Rbt.Parameter_File>
/export/apps/rDock/src/rDock_2013.1_src/data/scripts/dock_solv.prm

>  <Rbt.Receptor>
prm/pocket_docking_3.prm

>  <SCORE>
-9.71789

>  <SCORE.INTER>
2.9069

>  <SCORE.INTER.CONST>
1

>  <SCORE.INTER.POLAR>
0

>  <SCORE.INTER.ROT>
9

>  <SCORE.INTER.SOLV>
16.0752

>  <SCORE.INTER.VDW>
-13.0205

>  <SCORE.INTER.norm>
0.0692118

>  <SCORE.INTRA>
-12.6309

>  <SCORE.INTRA.DIHEDRAL>
-25.427

>  <SCORE.INTRA.DIHEDRAL.0>
27.8999

>  <SCORE.INTRA.POLAR>
0

>  <SCORE.INTRA.POLAR.0>
0

>  <SCORE.INTRA.REPUL>
0

>  <SCORE.INTRA.REPUL.0>
0

>  <SCORE.INTRA.SOLV>
-3.9369

>  <SCORE.INTRA.SOLV.lig_0>
-104.479

>  <SCORE.INTRA.VDW>
2.05105

>  <SCORE.INTRA.VDW.0>
-6.17816

>  <SCORE.INTRA.norm>
-0.300736

>  <SCORE.RESTR>
0.00611523

>  <SCORE.RESTR.CAVITY>
0.00611523

>  <SCORE.RESTR.norm>
0.000145601

>  <SCORE.SYSTEM>
0

>  <SCORE.SYSTEM.CONST>
0

>  <SCORE.SYSTEM.DIHEDRAL>
0

>  <SCORE.SYSTEM.SOLV>
0

>  <SCORE.SYSTEM.norm>
0

>  <SCORE.heavy>
42

>  <SCORE.norm>
-0.231378

>  <RMSD>
1.943

$$$$
ligand
 OpenBabel02271912133D
libRbt.so/2013.1/901 2013/11/27
 42 45  0  0  0  0  0  0  0  0999 V2000
    6.3433   -0.8640    2.6030 C   0  0  2  0  0  0  0  0  0  0  0  0
    6.6187   -1.0517    4.0016 O   0  0  0  0  0  0  0  0  0  0  0  0
    9.4399    0.7760    6.7396 C   0  0  2  0  0  0  0  0  0  0  0  0
   10.6952    1.2992    7.3568 N   0  0  0  0  0  0  0  0  0  0  0  0
    7.7848    2.7984    2.9234 C   0  0  1  0  0  0  0  0  0  0  0  0
    6.9106    6.6632    1.0174 C   0  0  1  0  0  0  0  0  0  0  0  0
    4.9193   -1.4389    2.3384 C   0  0  2  0  0  0  0  0  0  0  0  0
    3.9207   -0.9348    3.2972 N   0  0  0  0  0  0  0  0  0  0  0  0
    9.4980   -0.7949    6.5641 C   0  0  0  0  0  0  0  0  0  0  0  0
    8.0032    3.0522    1.4007 C   0  0  2  0  0  0  0  0  0  0  0  0
    9.3840    3.2962    1.0360 O   0  0  0  0  0  0  0  0  0  0  0  0
    7.6177    8.0349    1.3128 C   0  0  2  0  0  0  0  0  0  0  0  0
    8.0489    8.1161    2.7405 N   0  0  0  0  0  0  0  0  0  0  0  0
    4.8841   -2.9758    2.4265 C   0  0  1  0  0  0  0  0  0  0  0  0
    3.5714   -3.4605    2.1387 O   0  0  0  0  0  0  0  0  0  0  0  0
    8.1419   -1.2882    5.9315 C   0  0  2  0  0  0  0  0  0  0  0  0
    8.1561   -2.7667    5.7653 N   0  0  0  0  0  0  0  0  0  0  0  0
    7.0376    4.2117    1.1513 C   0  0  2  0  0  0  0  0  0  0  0  0
    7.6895    5.5067    1.3481 O   0  0  0  0  0  0  0  0  0  0  0  0
    6.6211    9.2338    0.9435 C   0  0  1  0  0  0  0  0  0  0  0  0
    6.5347    9.3432   -0.4950 O   0  0  0  0  0  0  0  0  0  0  0  0
    5.9308   -3.5719    1.4578 C   0  0  2  0  0  0  0  0  0  0  0  0
    5.8996   -4.9791    1.5142 O   0  0  0  0  0  0  0  0  0  0  0  0
    7.8978   -0.5997    4.5308 C   0  0  2  0  0  0  0  0  0  0  0  0
    5.8758    4.0167    2.1400 C   0  0  2  0  0  0  0  0  0  0  0  0
    6.5035    3.3826    3.2519 O   0  0  0  0  0  0  0  0  0  0  0  0
    5.1535    9.0334    1.5549 C   0  0  2  0  0  0  0  0  0  0  0  0
    5.2524    9.1831    2.9706 O   0  0  0  0  0  0  0  0  0  0  0  0
    7.3489   -3.0342    1.8447 C   0  0  2  0  0  0  0  0  0  0  0  0
    7.3530   -1.5725    1.7880 O   0  0  0  0  0  0  0  0  0  0  0  0
    7.8849    0.9424    4.6156 C   0  0  2  0  0  0  0  0  0  0  0  0
    7.8374    1.4004    3.2363 O   0  0  0  0  0  0  0  0  0  0  0  0
    4.6895    3.1587    1.6007 C   0  0  0  0  0  0  0  0  0  0  0  0
    3.7180    2.9994    2.6301 O   0  0  0  0  0  0  0  0  0  0  0  0
    4.5918    7.6060    1.1954 C   0  0  1  0  0  0  0  0  0  0  0  0
    5.5696    6.6373    1.7203 O   0  0  0  0  0  0  0  0  0  0  0  0
    8.4380   -3.5638    0.9407 C   0  0  0  0  0  0  0  0  0  0  0  0
    8.5629   -4.9564    1.0964 O   0  0  0  0  0  0  0  0  0  0  0  0
    9.1982    1.4635    5.3362 C   0  0  1  0  0  0  0  0  0  0  0  0
    9.1166    2.8753    5.5500 O   0  0  0  0  0  0  0  0  0  0  0  0
    3.1485    7.3087    1.7929 C   0  0  0  0  0  0  0  0  0  0  0  0
    3.0673    7.2537    3.2785 N   0  0  0  0  0  0  0  0  0  0  0  0
  1  2  1  1  0  0  0
  1  7  1  0  0  0  0
  1 30  1  0  0  0  0
  3  4  1  6  0  0  0
  3  9  1  0  0  0  0
  3 39  1  0  0  0  0
  5 10  1  0  0  0  0
  5 26  1  0  0  0  0
  5 32  1  6  0  0  0
  6 12  1  0  0  0  0
  6 36  1  0  0  0  0
  6 19  1  1  0  0  0
  7  8  1  1  0  0  0
  7 14  1  0  0  0  0
  9 16  1  0  0  0  0
 10 11  1  1  0  0  0
 10 18  1  0  0  0  0
 12 13  1  1  0  0  0
 12 20  1  0  0  0  0
 14 15  1  6  0  0  0
 14 22  1  0  0  0  0
 16 17  1  6  0  0  0
 16 24  1  0  0  0  0
 18 19  1  1  0  0  0
 18 25  1  0  0  0  0
 20 21  1  6  0  0  0
 20 27  1  0  0  0  0
 22 23  1  1  0  0  0
 22 29  1  0  0  0  0
 24  2  1  1  0  0  0
 24 31  1  0  0  0  0
 25 26  1  0  0  0  0
 25 33  1  6  0  0  0
 27 28  1  1  0  0  0
 27 35  1  0  0  0  0
 29 30  1  0  0  0  0
 29 37  1  6  0  0  0
 31 32  1  6  0  0  0
 31 39  1  0  0  0  0
 33 34  1  0  0  0  0
 35 36  1  0  0  0  0
 35 41  1  1  0  0  0
 37 38  1  0  0  0  0
 39 40  1  1  0  0  0
 41 42  1  0  0  0  0
M  END
>  <CHROM.1>
-179.98956695,-163.06572849,174.29339569,176.96227233,177.09515942,-65.09240616
178.65744057,169.57685917,-64.82698019,6.77333335,2.17337052,2.75439498,1.42036086
0.72324831,3.09955335

>  <Name>
ligand

>  <RI>
0

>  <Rbt.Current_Directory>
/home/itssahil/PROJECTS/Mol_Feturizer/Test_systems_manuscript/rnas/2o3w

>  <Rbt.Executable>
rbdock ($Id: //depot/dev/client3/rdock/2013.1/src/exe/rbdock.cxx#4 $)

>  <Rbt.Library>
libRbt.so (2013.1, Build901 2013/11/27)

>  <Rbt.Parameter_File>
/export/apps/rDock/src/rDock_2013.1_src/data/scripts/dock_solv.prm

>  <Rbt.Receptor>
prm/pocket_docking_3.prm

>  <SCORE>
-9.28105

>  <SCORE.INTER>
2.91389

>  <SCORE.INTER.CONST>
1

>  <SCORE.INTER.POLAR>
0

>  <SCORE.INTER.ROT>
9

>  <SCORE.INTER.SOLV>
14.123

>  <SCORE.INTER.VDW>
-12.3651

>  <SCORE.INTER.norm>
0.0693784

>  <SCORE.INTRA>
-12.1949

>  <SCORE.INTRA.DIHEDRAL>
-25.4965

>  <SCORE.INTRA.DIHEDRAL.0>
27.8999

>  <SCORE.INTRA.POLAR>
0

>  <SCORE.INTRA.POLAR.0>
0

>  <SCORE.INTRA.REPUL>
0

>  <SCORE.INTRA.REPUL.0>
0

>  <SCORE.INTRA.SOLV>
-3.84532

>  <SCORE.INTRA.SOLV.lig_0>
-104.479

>  <SCORE.INTRA.VDW>
2.47598

>  <SCORE.INTRA.VDW.0>
-6.17816

>  <SCORE.INTRA.norm>
-0.290356

>  <SCORE.RESTR>
0

>  <SCORE.RESTR.CAVITY>
0

>  <SCORE.RESTR.norm>
0

>  <SCORE.SYSTEM>
0

>  <SCORE.SYSTEM.CONST>
0

>  <SCORE.SYSTEM.DIHEDRAL>
0

>  <SCORE.SYSTEM.SOLV>
0

>  <SCORE.SYSTEM.norm>
0

>  <SCORE.heavy>
42

>  <SCORE.norm>
-0.220977

>  <RMSD>
1.958

$$$$
ligand
 OpenBabel02271912133D
libRbt.so/2013.1/901 2013/11/27
 42 45  0  0  0  0  0  0  0  0999 V2000
    6.1503   -0.8958    2.8921 C   0  0  2  0  0  0  0  0  0  0  0  0
    6.4971   -1.1165    4.2699 O   0  0  0  0  0  0  0  0  0  0  0  0
    9.4236    0.7265    6.8843 C   0  0  2  0  0  0  0  0  0  0  0  0
   10.7024    1.2516    7.4494 N   0  0  0  0  0  0  0  0  0  0  0  0
    7.7568    2.7191    3.1066 C   0  0  1  0  0  0  0  0  0  0  0  0
    7.1075    6.6299    1.0780 C   0  0  1  0  0  0  0  0  0  0  0  0
    4.7232   -1.4854    2.6821 C   0  0  2  0  0  0  0  0  0  0  0  0
    3.7662   -1.0225    3.7021 N   0  0  0  0  0  0  0  0  0  0  0  0
    9.4716   -0.8459    6.7199 C   0  0  0  0  0  0  0  0  0  0  0  0
    7.7561    2.9395    1.5632 C   0  0  2  0  0  0  0  0  0  0  0  0
    9.0793    3.0127    0.9778 O   0  0  0  0  0  0  0  0  0  0  0  0
    8.0014    7.9135    1.2263 C   0  0  2  0  0  0  0  0  0  0  0  0
    8.4833    8.0685    2.6316 N   0  0  0  0  0  0  0  0  0  0  0  0
    4.7140   -3.0244    2.7296 C   0  0  1  0  0  0  0  0  0  0  0  0
    3.3957   -3.5215    2.4934 O   0  0  0  0  0  0  0  0  0  0  0  0
    8.0915   -1.3410    6.1430 C   0  0  2  0  0  0  0  0  0  0  0  0
    8.0962   -2.8208    5.9887 N   0  0  0  0  0  0  0  0  0  0  0  0
    6.9084    4.2071    1.4446 C   0  0  2  0  0  0  0  0  0  0  0  0
    7.7336    5.4138    1.5056 O   0  0  0  0  0  0  0  0  0  0  0  0
    7.1642    9.1975    0.7601 C   0  0  1  0  0  0  0  0  0  0  0  0
    7.0491    9.1824   -0.6805 O   0  0  0  0  0  0  0  0  0  0  0  0
    5.7199   -3.5782    1.6948 C   0  0  2  0  0  0  0  0  0  0  0  0
    5.7113   -4.9868    1.7140 O   0  0  0  0  0  0  0  0  0  0  0  0
    7.7962   -0.6634    4.7467 C   0  0  2  0  0  0  0  0  0  0  0  0
    5.9060    4.1580    2.6099 C   0  0  2  0  0  0  0  0  0  0  0  0
    6.6241    3.4558    3.6217 O   0  0  0  0  0  0  0  0  0  0  0  0
    5.7025    9.2580    1.4139 C   0  0  2  0  0  0  0  0  0  0  0  0
    5.8641    9.5249    2.8064 O   0  0  0  0  0  0  0  0  0  0  0  0
    7.1476   -3.0293    2.0262 C   0  0  2  0  0  0  0  0  0  0  0  0
    7.1284   -1.5667    2.0096 O   0  0  0  0  0  0  0  0  0  0  0  0
    7.7900    0.8793    4.8191 C   0  0  2  0  0  0  0  0  0  0  0  0
    7.6916    1.3261    3.4388 O   0  0  0  0  0  0  0  0  0  0  0  0
    4.5545    3.4488    2.2861 C   0  0  0  0  0  0  0  0  0  0  0  0
    4.8056    2.0861    1.9562 O   0  0  0  0  0  0  0  0  0  0  0  0
    4.9431    7.8936    1.2047 C   0  0  1  0  0  0  0  0  0  0  0  0
    5.7975    6.8537    1.8038 O   0  0  0  0  0  0  0  0  0  0  0  0
    8.1981   -3.5177    1.0558 C   0  0  0  0  0  0  0  0  0  0  0  0
    9.4794   -3.1414    1.4983 O   0  0  0  0  0  0  0  0  0  0  0  0
    9.1307    1.4031    5.4854 C   0  0  1  0  0  0  0  0  0  0  0  0
    9.0603    2.8168    5.6903 O   0  0  0  0  0  0  0  0  0  0  0  0
    3.4920    7.8539    1.8538 C   0  0  0  0  0  0  0  0  0  0  0  0
    2.7003    6.6227    1.5820 N   0  0  0  0  0  0  0  0  0  0  0  0
  1  2  1  1  0  0  0
  1  7  1  0  0  0  0
  1 30  1  0  0  0  0
  3  4  1  6  0  0  0
  3  9  1  0  0  0  0
  3 39  1  0  0  0  0
  5 10  1  0  0  0  0
  5 26  1  0  0  0  0
  5 32  1  6  0  0  0
  6 12  1  0  0  0  0
  6 36  1  0  0  0  0
  6 19  1  1  0  0  0
  7  8  1  1  0  0  0
  7 14  1  0  0  0  0
  9 16  1  0  0  0  0
 10 11  1  1  0  0  0
 10 18  1  0  0  0  0
 12 13  1  1  0  0  0
 12 20  1  0  0  0  0
 14 15  1  6  0  0  0
 14 22  1  0  0  0  0
 16 17  1  6  0  0  0
 16 24  1  0  0  0  0
 18 19  1  1  0  0  0
 18 25  1  0  0  0  0
 20 21  1  6  0  0  0
 20 27  1  0  0  0  0
 22 23  1  1  0  0  0
 22 29  1  0  0  0  0
 24  2  1  1  0  0  0
 24 31  1  0  0  0  0
 25 26  1  0  0  0  0
 25 33  1  6  0  0  0
 27 28  1  1  0  0  0
 27 35  1  0  0  0  0
 29 30  1  0  0  0  0
 29 37  1  6  0  0  0
 31 32  1  6  0  0  0
 31 39  1  0  0  0  0
 33 34  1  0  0  0  0
 35 36  1  0  0  0  0
 35 41  1  1  0  0  0
 37 38  1  0  0  0  0
 39 40  1  1  0  0  0
 41 42  1  0  0  0  0
M  END
>  <CHROM.1>
179.79370447,-165.30000099,165.04954816,177.07442364,62.20145924,-172.29543793
-175.42459146,174.94764253,175.20843427,6.83801169,2.18890120,2.85454282
1.48067652,0.70871520,3.00949073

>  <Name>
ligand

>  <RI>
0

>  <Rbt.Current_Directory>
/home/itssahil/PROJECTS/Mol_Feturizer/Test_systems_manuscript/rnas/2o3w

>  <Rbt.Executable>
rbdock ($Id: //depot/dev/client3/rdock/2013.1/src/exe/rbdock.cxx#4 $)

>  <Rbt.Library>
libRbt.so (2013.1, Build901 2013/11/27)

>  <Rbt.Parameter_File>
/export/apps/rDock/src/rDock_2013.1_src/data/scripts/dock_solv.prm

>  <Rbt.Receptor>
prm/pocket_docking_3.prm

>  <SCORE>
-10.7668

>  <SCORE.INTER>
2.09316

>  <SCORE.INTER.CONST>
1

>  <SCORE.INTER.POLAR>
0

>  <SCORE.INTER.ROT>
9

>  <SCORE.INTER.SOLV>
14.0845

>  <SCORE.INTER.VDW>
-12.8994

>  <SCORE.INTER.norm>
0.0498371

>  <SCORE.INTRA>
-12.8645

>  <SCORE.INTRA.DIHEDRAL>
-25.1183

>  <SCORE.INTRA.DIHEDRAL.0>
27.8999

>  <SCORE.INTRA.POLAR>
0

>  <SCORE.INTRA.POLAR.0>
0

>  <SCORE.INTRA.REPUL>
0

>  <SCORE.INTRA.REPUL.0>
0

>  <SCORE.INTRA.SOLV>
-4.10842

>  <SCORE.INTRA.SOLV.lig_0>
-104.479

>  <SCORE.INTRA.VDW>
1.74888

>  <SCORE.INTRA.VDW.0>
-6.17816

>  <SCORE.INTRA.norm>
-0.306298

>  <SCORE.RESTR>
0.00455586

>  <SCORE.RESTR.CAVITY>
0.00455586

>  <SCORE.RESTR.norm>
0.000108473

>  <SCORE.SYSTEM>
0

>  <SCORE.SYSTEM.CONST>
0

>  <SCORE.SYSTEM.DIHEDRAL>
0

>  <SCORE.SYSTEM.SOLV>
0

>  <SCORE.SYSTEM.norm>
0

>  <SCORE.heavy>
42

>  <SCORE.norm>
-0.256352

>  <RMSD>
2.001

$$$$
ligand
 OpenBabel02271912133D
libRbt.so/2013.1/901 2013/11/27
 42 45  0  0  0  0  0  0  0  0999 V2000
    8.7157   -1.1981    4.4388 C   0  0  2  0  0  0  0  0  0  0  0  0
    8.6361   -0.2572    5.5231 O   0  0  0  0  0  0  0  0  0  0  0  0
   11.7836    2.3272    7.0099 C   0  0  2  0  0  0  0  0  0  0  0  0
   12.7662    3.4428    7.1522 N   0  0  0  0  0  0  0  0  0  0  0  0
    7.8398    3.5752    5.6618 C   0  0  1  0  0  0  0  0  0  0  0  0
    7.1182    6.5280    2.4397 C   0  0  1  0  0  0  0  0  0  0  0  0
    8.1197   -0.4955    3.1821 C   0  0  2  0  0  0  0  0  0  0  0  0
    8.6940    0.8427    2.9587 N   0  0  0  0  0  0  0  0  0  0  0  0
   12.0975    1.4449    5.7352 C   0  0  0  0  0  0  0  0  0  0  0  0
    8.2990    3.3823    4.1844 C   0  0  2  0  0  0  0  0  0  0  0  0
    9.7031    3.6621    3.9624 O   0  0  0  0  0  0  0  0  0  0  0  0
    7.8157    7.9103    2.1725 C   0  0  2  0  0  0  0  0  0  0  0  0
    8.1049    8.6187    3.4553 N   0  0  0  0  0  0  0  0  0  0  0  0
    6.5940   -0.3135    3.2829 C   0  0  1  0  0  0  0  0  0  0  0  0
    6.0864    0.2969    2.0952 O   0  0  0  0  0  0  0  0  0  0  0  0
   11.0445    0.2758    5.6519 C   0  0  2  0  0  0  0  0  0  0  0  0
   11.3192   -0.5848    4.4697 N   0  0  0  0  0  0  0  0  0  0  0  0
    7.3174    4.2942    3.4468 C   0  0  2  0  0  0  0  0  0  0  0  0
    7.8408    5.6543    3.3160 O   0  0  0  0  0  0  0  0  0  0  0  0
    6.8810    8.7993    1.2222 C   0  0  1  0  0  0  0  0  0  0  0  0
    6.9393    8.2673   -0.1204 O   0  0  0  0  0  0  0  0  0  0  0  0
    5.9273   -1.6836    3.5425 C   0  0  2  0  0  0  0  0  0  0  0  0
    4.5285   -1.5366    3.6207 O   0  0  0  0  0  0  0  0  0  0  0  0
    9.5771    0.8535    5.5576 C   0  0  2  0  0  0  0  0  0  0  0  0
    6.0184    4.2738    4.2700 C   0  0  2  0  0  0  0  0  0  0  0  0
    6.4860    4.0800    5.6028 O   0  0  0  0  0  0  0  0  0  0  0  0
    5.3570    8.8448    1.7151 C   0  0  2  0  0  0  0  0  0  0  0  0
    5.3178    9.6001    2.9252 O   0  0  0  0  0  0  0  0  0  0  0  0
    6.4954   -2.2842    4.8714 C   0  0  2  0  0  0  0  0  0  0  0  0
    7.9485   -2.4180    4.7691 O   0  0  0  0  0  0  0  0  0  0  0  0
    9.2183    1.7738    6.7449 C   0  0  2  0  0  0  0  0  0  0  0  0
    7.9283    2.3519    6.4039 O   0  0  0  0  0  0  0  0  0  0  0  0
    5.0002    3.1630    3.8654 C   0  0  0  0  0  0  0  0  0  0  0  0
    4.6515    3.3216    2.4935 O   0  0  0  0  0  0  0  0  0  0  0  0
    4.8094    7.3885    1.9633 C   0  0  1  0  0  0  0  0  0  0  0  0
    5.7140    6.7739    2.9504 O   0  0  0  0  0  0  0  0  0  0  0  0
    5.9001   -3.6335    5.2010 C   0  0  0  0  0  0  0  0  0  0  0  0
    6.1822   -4.5521    4.1734 O   0  0  0  0  0  0  0  0  0  0  0  0
   10.3155    2.9068    6.9124 C   0  0  1  0  0  0  0  0  0  0  0  0
   10.0654    3.6642    8.0995 O   0  0  0  0  0  0  0  0  0  0  0  0
    3.3093    7.3415    2.4886 C   0  0  0  0  0  0  0  0  0  0  0  0
    2.2971    7.9740    1.5986 N   0  0  0  0  0  0  0  0  0  0  0  0
  1  2  1  1  0  0  0
  1  7  1  0  0  0  0
  1 30  1  0  0  0  0
  3  4  1  6  0  0  0
  3  9  1  0  0  0  0
  3 39  1  0  0  0  0
  5 10  1  0  0  0  0
  5 26  1  0  0  0  0
  5 32  1  1  0  0  0
  6 12  1  0  0  0  0
  6 36  1  0  0  0  0
  6 19  1  1  0  0  0
  7  8  1  1  0  0  0
  7 14  1  0  0  0  0
  9 16  1  0  0  0  0
 10 11  1  1  0  0  0
 10 18  1  0  0  0  0
 12 13  1  1  0  0  0
 12 20  1  0  0  0  0
 14 15  1  6  0  0  0
 14 22  1  0  0  0  0
 16 17  1  6  0  0  0
 16 24  1  0  0  0  0
 18 19  1  1  0  0  0
 18 25  1  0  0  0  0
 20 21  1  6  0  0  0
 20 27  1  0  0  0  0
 22 23  1  1  0  0  0
 22 29  1  0  0  0  0
 24  2  1  1  0  0  0
 24 31  1  0  0  0  0
 25 26  1  0  0  0  0
 25 33  1  6  0  0  0
 27 28  1  1  0  0  0
 27 35  1  0  0  0  0
 29 30  1  0  0  0  0
 29 37  1  6  0  0  0
 31 32  1  6  0  0  0
 31 39  1  0  0  0  0
 33 34  1  0  0  0  0
 35 36  1  0  0  0  0
 35 41  1  1  0  0  0
 37 38  1  0  0  0  0
 39 40  1  1  0  0  0
 41 42  1  0  0  0  0
M  END
>  <CHROM.1>
-74.91536619,-61.10195498,169.23421324,-172.04962028,-58.31124713,60.28775508
-89.27001064,69.64502513,58.84826691,7.50680769,2.95826982,4.06621986,1.26153959
0.52338718,3.00042427

>  <Name>
ligand

>  <RI>
0

>  <Rbt.Current_Directory>
/home/itssahil/PROJECTS/Mol_Feturizer/Test_systems_manuscript/rnas/2o3w

>  <Rbt.Executable>
rbdock ($Id: //depot/dev/client3/rdock/2013.1/src/exe/rbdock.cxx#4 $)

>  <Rbt.Library>
libRbt.so (2013.1, Build901 2013/11/27)

>  <Rbt.Parameter_File>
/export/apps/rDock/src/rDock_2013.1_src/data/scripts/dock_solv.prm

>  <Rbt.Receptor>
prm/pocket_docking_3.prm

>  <SCORE>
-4.26166

>  <SCORE.INTER>
2.81627

>  <SCORE.INTER.CONST>
1

>  <SCORE.INTER.POLAR>
0

>  <SCORE.INTER.ROT>
9

>  <SCORE.INTER.SOLV>
11.5773

>  <SCORE.INTER.VDW>
-11.5816

>  <SCORE.INTER.norm>
0.0670539

>  <SCORE.INTRA>
-7.08069

>  <SCORE.INTRA.DIHEDRAL>
-21.9202

>  <SCORE.INTRA.DIHEDRAL.0>
27.8999

>  <SCORE.INTRA.POLAR>
0

>  <SCORE.INTRA.POLAR.0>
0

>  <SCORE.INTRA.REPUL>
0

>  <SCORE.INTRA.REPUL.0>
0

>  <SCORE.INTRA.SOLV>
2.85106

>  <SCORE.INTRA.SOLV.lig_0>
-104.479

>  <SCORE.INTRA.VDW>
2.45386

>  <SCORE.INTRA.VDW.0>
-6.17816

>  <SCORE.INTRA.norm>
-0.168588

>  <SCORE.RESTR>
0.00277053

>  <SCORE.RESTR.CAVITY>
0.00277053

>  <SCORE.RESTR.norm>
6.5965e-05

>  <SCORE.SYSTEM>
0

>  <SCORE.SYSTEM.CONST>
0

>  <SCORE.SYSTEM.DIHEDRAL>
0

>  <SCORE.SYSTEM.SOLV>
0

>  <SCORE.SYSTEM.norm>
0

>  <SCORE.heavy>
42

>  <SCORE.norm>
-0.101468

>  <RMSD>
2.015

$$$$
ligand
 OpenBabel02271912133D
libRbt.so/2013.1/901 2013/11/27
 42 45  0  0  0  0  0  0  0  0999 V2000
    7.4517   -0.9480    2.2050 C   0  0  2  0  0  0  0  0  0  0  0  0
    7.5132    0.2968    2.9218 O   0  0  0  0  0  0  0  0  0  0  0  0
   10.6711    2.6114    4.7837 C   0  0  2  0  0  0  0  0  0  0  0  0
   11.9528    3.3370    5.0311 N   0  0  0  0  0  0  0  0  0  0  0  0
    7.6314    4.2237    1.6442 C   0  0  1  0  0  0  0  0  0  0  0  0
    5.4945    7.7413   -0.1020 C   0  0  1  0  0  0  0  0  0  0  0  0
    6.0066   -1.0746    1.6360 C   0  0  2  0  0  0  0  0  0  0  0  0
    5.5739    0.1388    0.9210 N   0  0  0  0  0  0  0  0  0  0  0  0
   10.9189    1.0631    4.5763 C   0  0  0  0  0  0  0  0  0  0  0  0
    7.3738    4.4819    0.1283 C   0  0  2  0  0  0  0  0  0  0  0  0
    8.5166    5.0216   -0.5801 O   0  0  0  0  0  0  0  0  0  0  0  0
    5.8604    9.2425    0.1832 C   0  0  2  0  0  0  0  0  0  0  0  0
    6.2434    9.4356    1.6139 N   0  0  0  0  0  0  0  0  0  0  0  0
    4.9650   -1.3358    2.7396 C   0  0  1  0  0  0  0  0  0  0  0  0
    3.6633   -1.4841    2.1698 O   0  0  0  0  0  0  0  0  0  0  0  0
    9.5328    0.3512    4.3428 C   0  0  2  0  0  0  0  0  0  0  0  0
    9.7273   -1.1122    4.1581 N   0  0  0  0  0  0  0  0  0  0  0  0
    6.1425    5.3874    0.1864 C   0  0  2  0  0  0  0  0  0  0  0  0
    6.5164    6.8005    0.2506 O   0  0  0  0  0  0  0  0  0  0  0  0
    4.6174   10.1736   -0.2105 C   0  0  1  0  0  0  0  0  0  0  0  0
    4.5256   10.2458   -1.6511 O   0  0  0  0  0  0  0  0  0  0  0  0
    5.3733   -2.5883    3.5480 C   0  0  2  0  0  0  0  0  0  0  0  0
    4.4207   -2.8508    4.5520 O   0  0  0  0  0  0  0  0  0  0  0  0
    8.8038    0.9531    3.0771 C   0  0  2  0  0  0  0  0  0  0  0  0
    5.3603    4.9604    1.4398 C   0  0  2  0  0  0  0  0  0  0  0  0
    6.3868    4.5121    2.3217 O   0  0  0  0  0  0  0  0  0  0  0  0
    3.2290    9.6440    0.3891 C   0  0  2  0  0  0  0  0  0  0  0  0
    3.2731    9.8265    1.8038 O   0  0  0  0  0  0  0  0  0  0  0  0
    6.7875   -2.3522    4.1756 C   0  0  2  0  0  0  0  0  0  0  0  0
    7.7557   -2.0725    3.1153 O   0  0  0  0  0  0  0  0  0  0  0  0
    8.5780    2.4772    3.1844 C   0  0  2  0  0  0  0  0  0  0  0  0
    8.0769    2.8818    1.8806 O   0  0  0  0  0  0  0  0  0  0  0  0
    4.2965    3.8439    1.2032 C   0  0  0  0  0  0  0  0  0  0  0  0
    3.6126    3.5793    2.4243 O   0  0  0  0  0  0  0  0  0  0  0  0
    3.0182    8.1218    0.0420 C   0  0  1  0  0  0  0  0  0  0  0  0
    4.1877    7.4117    0.5883 O   0  0  0  0  0  0  0  0  0  0  0  0
    7.2706   -3.5353    4.9822 C   0  0  0  0  0  0  0  0  0  0  0  0
    6.4784   -3.6929    6.1340 O   0  0  0  0  0  0  0  0  0  0  0  0
    9.9439    3.2126    3.5147 C   0  0  1  0  0  0  0  0  0  0  0  0
    9.7090    4.6014    3.7631 O   0  0  0  0  0  0  0  0  0  0  0  0
    1.6761    7.5035    0.6293 C   0  0  0  0  0  0  0  0  0  0  0  0
    1.3571    6.1196    0.1823 N   0  0  0  0  0  0  0  0  0  0  0  0
  1  2  1  1  0  0  0
  1  7  1  0  0  0  0
  1 30  1  0  0  0  0
  3  4  1  6  0  0  0
  3  9  1  0  0  0  0
  3 39  1  0  0  0  0
  5 10  1  0  0  0  0
  5 26  1  0  0  0  0
  5 32  1  6  0  0  0
  6 12  1  0  0  0  0
  6 36  1  0  0  0  0
  6 19  1  1  0  0  0
  7  8  1  1  0  0  0
  7 14  1  0  0  0  0
  9 16  1  0  0  0  0
 10 11  1  1  0  0  0
 10 18  1  0  0  0  0
 12 13  1  1  0  0  0
 12 20  1  0  0  0  0
 14 15  1  6  0  0  0
 14 22  1  0  0  0  0
 16 17  1  6  0  0  0
 16 24  1  0  0  0  0
 18 19  1  1  0  0  0
 18 25  1  0  0  0  0
 20 21  1  6  0  0  0
 20 27  1  0  0  0  0
 22 23  1  1  0  0  0
 22 29  1  0  0  0  0
 24  2  1  1  0  0  0
 24 31  1  0  0  0  0
 25 26  1  0  0  0  0
 25 33  1  6  0  0  0
 27 28  1  1  0  0  0
 27 35  1  0  0  0  0
 29 30  1  0  0  0  0
 29 37  1  6  0  0  0
 31 32  1  6  0  0  0
 31 39  1  0  0  0  0
 33 34  1  0  0  0  0
 35 36  1  0  0  0  0
 35 41  1  1  0  0  0
 37 38  1  0  0  0  0
 39 40  1  1  0  0  0
 41 42  1  0  0  0  0
M  END
>  <CHROM.1>
-154.54020140,-85.44116266,161.43926869,171.28770775,-177.79207890,-67.60747331
173.99755759,170.23822041,172.66652512,6.41443180,3.25795602,2.14585656,1.28066071
0.27367556,2.86438805

>  <Name>
ligand

>  <RI>
0

>  <Rbt.Current_Directory>
/home/itssahil/PROJECTS/Mol_Feturizer/Test_systems_manuscript/rnas/2o3w

>  <Rbt.Executable>
rbdock ($Id: //depot/dev/client3/rdock/2013.1/src/exe/rbdock.cxx#4 $)

>  <Rbt.Library>
libRbt.so (2013.1, Build901 2013/11/27)

>  <Rbt.Parameter_File>
/export/apps/rDock/src/rDock_2013.1_src/data/scripts/dock_solv.prm

>  <Rbt.Receptor>
prm/pocket_docking_3.prm

>  <SCORE>
-4.65768

>  <SCORE.INTER>
3.21039

>  <SCORE.INTER.CONST>
1

>  <SCORE.INTER.POLAR>
0

>  <SCORE.INTER.ROT>
9

>  <SCORE.INTER.SOLV>
14.065

>  <SCORE.INTER.VDW>
-12.1481

>  <SCORE.INTER.norm>
0.0764378

>  <SCORE.INTRA>
-7.86807

>  <SCORE.INTRA.DIHEDRAL>
-19.3054

>  <SCORE.INTRA.DIHEDRAL.0>
27.8999

>  <SCORE.INTRA.POLAR>
0

>  <SCORE.INTRA.POLAR.0>
0

>  <SCORE.INTRA.REPUL>
0

>  <SCORE.INTRA.REPUL.0>
0

>  <SCORE.INTRA.SOLV>
-1.29551

>  <SCORE.INTRA.SOLV.lig_0>
-104.479

>  <SCORE.INTRA.VDW>
2.43239

>  <SCORE.INTRA.VDW.0>
-6.17816

>  <SCORE.INTRA.norm>
-0.187335

>  <SCORE.RESTR>
0

>  <SCORE.RESTR.CAVITY>
0

>  <SCORE.RESTR.norm>
0

>  <SCORE.SYSTEM>
0

>  <SCORE.SYSTEM.CONST>
0

>  <SCORE.SYSTEM.DIHEDRAL>
0

>  <SCORE.SYSTEM.SOLV>
0

>  <SCORE.SYSTEM.norm>
0

>  <SCORE.heavy>
42

>  <SCORE.norm>
-0.110897

>  <RMSD>
2.050

$$$$
ligand
 OpenBabel02271912133D
libRbt.so/2013.1/901 2013/11/27
 42 45  0  0  0  0  0  0  0  0999 V2000
    7.8820   -0.0501    2.6646 C   0  0  2  0  0  0  0  0  0  0  0  0
    7.6445   -0.0212    4.0824 O   0  0  0  0  0  0  0  0  0  0  0  0
    8.7037    2.5270    7.4262 C   0  0  2  0  0  0  0  0  0  0  0  0
    9.4350    3.4621    8.3324 N   0  0  0  0  0  0  0  0  0  0  0  0
    7.2061    4.0358    3.3059 C   0  0  1  0  0  0  0  0  0  0  0  0
    5.2530    7.3368    1.0292 C   0  0  1  0  0  0  0  0  0  0  0  0
    6.7958   -0.9765    2.0401 C   0  0  2  0  0  0  0  0  0  0  0  0
    5.4356   -0.6335    2.4903 N   0  0  0  0  0  0  0  0  0  0  0  0
    9.4744    1.1540    7.2751 C   0  0  0  0  0  0  0  0  0  0  0  0
    7.6085    4.5113    1.8767 C   0  0  2  0  0  0  0  0  0  0  0  0
    8.7712    5.3753    1.8487 O   0  0  0  0  0  0  0  0  0  0  0  0
    5.1582    8.8401    1.4763 C   0  0  2  0  0  0  0  0  0  0  0  0
    4.9183    8.9452    2.9468 N   0  0  0  0  0  0  0  0  0  0  0  0
    7.0199   -2.4589    2.3914 C   0  0  1  0  0  0  0  0  0  0  0  0
    6.0265   -3.2737    1.7669 O   0  0  0  0  0  0  0  0  0  0  0  0
    8.6455    0.2050    6.3291 C   0  0  2  0  0  0  0  0  0  0  0  0
    9.3357   -1.1041    6.1759 N   0  0  0  0  0  0  0  0  0  0  0  0
    6.3018    5.1437    1.3951 C   0  0  2  0  0  0  0  0  0  0  0  0
    6.2370    6.5664    1.7305 O   0  0  0  0  0  0  0  0  0  0  0  0
    3.9928    9.5650    0.6497 C   0  0  1  0  0  0  0  0  0  0  0  0
    4.4430    9.7736   -0.7077 O   0  0  0  0  0  0  0  0  0  0  0  0
    8.4448   -2.8800    1.9654 C   0  0  2  0  0  0  0  0  0  0  0  0
    8.6600   -4.2395    2.2650 O   0  0  0  0  0  0  0  0  0  0  0  0
    8.4471    0.8690    4.9093 C   0  0  2  0  0  0  0  0  0  0  0  0
    5.1718    4.3575    2.0809 C   0  0  2  0  0  0  0  0  0  0  0  0
    5.7621    3.9577    3.3155 O   0  0  0  0  0  0  0  0  0  0  0  0
    2.6257    8.7293    0.6386 C   0  0  2  0  0  0  0  0  0  0  0  0
    2.0888    8.7636    1.9603 O   0  0  0  0  0  0  0  0  0  0  0  0
    9.4869   -1.9784    2.7074 C   0  0  2  0  0  0  0  0  0  0  0  0
    9.2370   -0.5729    2.3883 O   0  0  0  0  0  0  0  0  0  0  0  0
    7.7487    2.2445    4.9838 C   0  0  2  0  0  0  0  0  0  0  0  0
    7.8171    2.7812    3.6341 O   0  0  0  0  0  0  0  0  0  0  0  0
    4.6504    3.1227    1.2823 C   0  0  0  0  0  0  0  0  0  0  0  0
    4.1351    3.5575    0.0275 O   0  0  0  0  0  0  0  0  0  0  0  0
    2.8881    7.2404    0.1952 C   0  0  1  0  0  0  0  0  0  0  0  0
    3.8828    6.7016    1.1389 O   0  0  0  0  0  0  0  0  0  0  0  0
   10.9137   -2.3185    2.3433 C   0  0  0  0  0  0  0  0  0  0  0  0
   11.1091   -2.1703    0.9580 O   0  0  0  0  0  0  0  0  0  0  0  0
    8.5085    3.1914    6.0045 C   0  0  1  0  0  0  0  0  0  0  0  0
    7.7777    4.4071    6.1874 O   0  0  0  0  0  0  0  0  0  0  0  0
    1.5860    6.3276    0.1885 C   0  0  0  0  0  0  0  0  0  0  0  0
    0.5770    6.6558   -0.8559 N   0  0  0  0  0  0  0  0  0  0  0  0
  1  2  1  1  0  0  0
  1  7  1  0  0  0  0
  1 30  1  0  0  0  0
  3  4  1  1  0  0  0
  3  9  1  0  0  0  0
  3 39  1  0  0  0  0
  5 10  1  0  0  0  0
  5 26  1  0  0  0  0
  5 32  1  6  0  0  0
  6 12  1  0  0  0  0
  6 36  1  0  0  0  0
  6 19  1  1  0  0  0
  7  8  1  1  0  0  0
  7 14  1  0  0  0  0
  9 16  1  0  0  0  0
 10 11  1  1  0  0  0
 10 18  1  0  0  0  0
 12 13  1  1  0  0  0
 12 20  1  0  0  0  0
 14 15  1  6  0  0  0
 14 22  1  0  0  0  0
 16 17  1  6  0  0  0
 16 24  1  0  0  0  0
 18 19  1  1  0  0  0
 18 25  1  0  0  0  0
 20 21  1  6  0  0  0
 20 27  1  0  0  0  0
 22 23  1  1  0  0  0
 22 29  1  0  0  0  0
 24  2  1  6  0  0  0
 24 31  1  0  0  0  0
 25 26  1  0  0  0  0
 25 33  1  6  0  0  0
 27 28  1  1  0  0  0
 27 35  1  0  0  0  0
 29 30  1  0  0  0  0
 29 37  1  6  0  0  0
 31 32  1  6  0  0  0
 31 39  1  0  0  0  0
 33 34  1  0  0  0  0
 35 36  1  0  0  0  0
 35 41  1  1  0  0  0
 37 38  1  0  0  0  0
 39 40  1  1  0  0  0
 41 42  1  0  0  0  0
M  END
>  <CHROM.1>
-174.64555094,-147.74391145,163.64164883,176.62508995,-60.42972330,58.99493553
177.06013511,170.62448512,68.69436030,6.61409263,3.03201519,2.70524066,0.71253735
0.89505612,-2.69906353

>  <Name>
ligand

>  <RI>
0

>  <Rbt.Current_Directory>
/home/itssahil/PROJECTS/Mol_Feturizer/Test_systems_manuscript/rnas/2o3w

>  <Rbt.Executable>
rbdock ($Id: //depot/dev/client3/rdock/2013.1/src/exe/rbdock.cxx#4 $)

>  <Rbt.Library>
libRbt.so (2013.1, Build901 2013/11/27)

>  <Rbt.Parameter_File>
/export/apps/rDock/src/rDock_2013.1_src/data/scripts/dock_solv.prm

>  <Rbt.Receptor>
prm/pocket_docking_4.prm

>  <SCORE>
-9.02813

>  <SCORE.INTER>
2.28015

>  <SCORE.INTER.CONST>
1

>  <SCORE.INTER.POLAR>
0

>  <SCORE.INTER.ROT>
9

>  <SCORE.INTER.SOLV>
13.4899

>  <SCORE.INTER.VDW>
-12.5765

>  <SCORE.INTER.norm>
0.0542894

>  <SCORE.INTRA>
-11.3187

>  <SCORE.INTRA.DIHEDRAL>
-21.5889

>  <SCORE.INTRA.DIHEDRAL.0>
27.8999

>  <SCORE.INTRA.POLAR>
0

>  <SCORE.INTRA.POLAR.0>
0

>  <SCORE.INTRA.REPUL>
0

>  <SCORE.INTRA.REPUL.0>
0

>  <SCORE.INTRA.SOLV>
-4.07795

>  <SCORE.INTRA.SOLV.lig_0>
-104.479

>  <SCORE.INTRA.VDW>
1.51478

>  <SCORE.INTRA.VDW.0>
-6.17816

>  <SCORE.INTRA.norm>
-0.269492

>  <SCORE.RESTR>
0.0103637

>  <SCORE.RESTR.CAVITY>
0.0103637

>  <SCORE.RESTR.norm>
0.000246756

>  <SCORE.SYSTEM>
0

>  <SCORE.SYSTEM.CONST>
0

>  <SCORE.SYSTEM.DIHEDRAL>
0

>  <SCORE.SYSTEM.SOLV>
0

>  <SCORE.SYSTEM.norm>
0

>  <SCORE.heavy>
42

>  <SCORE.norm>
-0.214956

>  <RMSD>
2.092

$$$$
ligand
 OpenBabel02271912133D
libRbt.so/2013.1/901 2013/11/27
 42 45  0  0  0  0  0  0  0  0999 V2000
    8.2174    0.0952    5.1521 C   0  0  2  0  0  0  0  0  0  0  0  0
    9.4582    0.2376    4.4397 O   0  0  0  0  0  0  0  0  0  0  0  0
   11.2814    3.1974    7.0303 C   0  0  2  0  0  0  0  0  0  0  0  0
   12.1995    4.2361    7.5860 N   0  0  0  0  0  0  0  0  0  0  0  0
    8.8941    4.2299    3.2559 C   0  0  1  0  0  0  0  0  0  0  0  0
    6.6985    7.4530    1.0355 C   0  0  1  0  0  0  0  0  0  0  0  0
    8.1663   -1.3667    5.6891 C   0  0  2  0  0  0  0  0  0  0  0  0
    9.3998   -1.7506    6.3974 N   0  0  0  0  0  0  0  0  0  0  0  0
   12.0176    1.8066    6.8708 C   0  0  0  0  0  0  0  0  0  0  0  0
    8.8384    4.4395    1.7119 C   0  0  2  0  0  0  0  0  0  0  0  0
   10.0053    5.1010    1.1645 O   0  0  0  0  0  0  0  0  0  0  0  0
    6.7137    8.9608    1.4773 C   0  0  2  0  0  0  0  0  0  0  0  0
    6.6278    9.0821    2.9635 N   0  0  0  0  0  0  0  0  0  0  0  0
    7.9616   -2.3962    4.5626 C   0  0  1  0  0  0  0  0  0  0  0  0
    7.8811   -3.7160    5.1035 O   0  0  0  0  0  0  0  0  0  0  0  0
   10.9954    0.7502    6.3038 C   0  0  2  0  0  0  0  0  0  0  0  0
   11.6519   -0.5766    6.1545 N   0  0  0  0  0  0  0  0  0  0  0  0
    7.5173    5.1956    1.5623 C   0  0  2  0  0  0  0  0  0  0  0  0
    7.7142    6.6433    1.6408 O   0  0  0  0  0  0  0  0  0  0  0  0
    5.5032    9.7324    0.7659 C   0  0  1  0  0  0  0  0  0  0  0  0
    5.8229    9.9158   -0.6316 O   0  0  0  0  0  0  0  0  0  0  0  0
    6.6903   -2.0367    3.7603 C   0  0  2  0  0  0  0  0  0  0  0  0
    6.4794   -2.9796    2.7352 O   0  0  0  0  0  0  0  0  0  0  0  0
   10.4259    1.2201    4.9072 C   0  0  2  0  0  0  0  0  0  0  0  0
    6.6102    4.6942    2.6986 C   0  0  2  0  0  0  0  0  0  0  0  0
    7.5376    4.3786    3.7343 O   0  0  0  0  0  0  0  0  0  0  0  0
    4.1074    8.9568    0.8991 C   0  0  2  0  0  0  0  0  0  0  0  0
    3.7083    9.0197    2.2677 O   0  0  0  0  0  0  0  0  0  0  0  0
    6.8525   -0.5986    3.1642 C   0  0  2  0  0  0  0  0  0  0  0  0
    7.0796    0.3595    4.2459 O   0  0  0  0  0  0  0  0  0  0  0  0
    9.7398    2.6022    4.9745 C   0  0  2  0  0  0  0  0  0  0  0  0
    9.4490    2.9519    3.5934 O   0  0  0  0  0  0  0  0  0  0  0  0
    5.7278    3.4586    2.3397 C   0  0  0  0  0  0  0  0  0  0  0  0
    5.3382    2.7947    3.5381 O   0  0  0  0  0  0  0  0  0  0  0  0
    4.2597    7.4562    0.4440 C   0  0  1  0  0  0  0  0  0  0  0  0
    5.3203    6.8784    1.2875 O   0  0  0  0  0  0  0  0  0  0  0  0
    5.6466   -0.1608    2.3655 C   0  0  0  0  0  0  0  0  0  0  0  0
    5.9950    0.8910    1.4986 O   0  0  0  0  0  0  0  0  0  0  0  0
   10.7145    3.6675    5.6309 C   0  0  1  0  0  0  0  0  0  0  0  0
   10.0284    4.9062    5.8316 O   0  0  0  0  0  0  0  0  0  0  0  0
    2.9256    6.6009    0.5757 C   0  0  0  0  0  0  0  0  0  0  0  0
    1.7602    7.1049   -0.2017 N   0  0  0  0  0  0  0  0  0  0  0  0
  1  2  1  6  0  0  0
  1  7  1  0  0  0  0
  1 30  1  0  0  0  0
  3  4  1  6  0  0  0
  3  9  1  0  0  0  0
  3 39  1  0  0  0  0
  5 10  1  0  0  0  0
  5 26  1  0  0  0  0
  5 32  1  6  0  0  0
  6 12  1  0  0  0  0
  6 36  1  0  0  0  0
  6 19  1  1  0  0  0
  7  8  1  6  0  0  0
  7 14  1  0  0  0  0
  9 16  1  0  0  0  0
 10 11  1  1  0  0  0
 10 18  1  0  0  0  0
 12 13  1  1  0  0  0
 12 20  1  0  0  0  0
 14 15  1  1  0  0  0
 14 22  1  0  0  0  0
 16 17  1  6  0  0  0
 16 24  1  0  0  0  0
 18 19  1  1  0  0  0
 18 25  1  0  0  0  0
 20 21  1  6  0  0  0
 20 27  1  0  0  0  0
 22 23  1  6  0  0  0
 22 29  1  0  0  0  0
 24  2  1  1  0  0  0
 24 31  1  0  0  0  0
 25 26  1  0  0  0  0
 25 33  1  6  0  0  0
 27 28  1  1  0  0  0
 27 35  1  0  0  0  0
 29 30  1  0  0  0  0
 29 37  1  1  0  0  0
 31 32  1  6  0  0  0
 31 39  1  0  0  0  0
 33 34  1  0  0  0  0
 35 36  1  0  0  0  0
 35 41  1  1  0  0  0
 37 38  1  0  0  0  0
 39 40  1  1  0  0  0
 41 42  1  0  0  0  0
M  END
>  <CHROM.1>
-118.77974349,67.93164266,157.42328613,163.46004308,158.37613012,-160.09339393
-175.29186653,172.85008004,59.11384886,7.59286654,3.41139326,3.32208972,1.09048494
0.58226393,2.96465725

>  <Name>
ligand

>  <RI>
0

>  <Rbt.Current_Directory>
/home/itssahil/PROJECTS/Mol_Feturizer/Test_systems_manuscript/rnas/2o3w

>  <Rbt.Executable>
rbdock ($Id: //depot/dev/client3/rdock/2013.1/src/exe/rbdock.cxx#4 $)

>  <Rbt.Library>
libRbt.so (2013.1, Build901 2013/11/27)

>  <Rbt.Parameter_File>
/export/apps/rDock/src/rDock_2013.1_src/data/scripts/dock_solv.prm

>  <Rbt.Receptor>
prm/pocket_docking_2.prm

>  <SCORE>
0.659486

>  <SCORE.INTER>
3.94535

>  <SCORE.INTER.CONST>
1

>  <SCORE.INTER.POLAR>
0

>  <SCORE.INTER.ROT>
9

>  <SCORE.INTER.SOLV>
9.38966

>  <SCORE.INTER.VDW>
-10.0997

>  <SCORE.INTER.norm>
0.0939368

>  <SCORE.INTRA>
-3.83826

>  <SCORE.INTRA.DIHEDRAL>
-13.5814

>  <SCORE.INTRA.DIHEDRAL.0>
27.8999

>  <SCORE.INTRA.POLAR>
0

>  <SCORE.INTRA.POLAR.0>
0

>  <SCORE.INTRA.REPUL>
0

>  <SCORE.INTRA.REPUL.0>
0

>  <SCORE.INTRA.SOLV>
-0.121054

>  <SCORE.INTRA.SOLV.lig_0>
-104.479

>  <SCORE.INTRA.VDW>
3.01296

>  <SCORE.INTRA.VDW.0>
-6.17816

>  <SCORE.INTRA.norm>
-0.0913871

>  <SCORE.RESTR>
0.552399

>  <SCORE.RESTR.CAVITY>
0.552399

>  <SCORE.RESTR.norm>
0.0131523

>  <SCORE.SYSTEM>
0

>  <SCORE.SYSTEM.CONST>
0

>  <SCORE.SYSTEM.DIHEDRAL>
0

>  <SCORE.SYSTEM.SOLV>
0

>  <SCORE.SYSTEM.norm>
0

>  <SCORE.heavy>
42

>  <SCORE.norm>
0.015702

>  <RMSD>
2.102

$$$$
ligand
 OpenBabel02271912133D
libRbt.so/2013.1/901 2013/11/27
 42 45  0  0  0  0  0  0  0  0999 V2000
    6.9005    1.3824    3.4561 C   0  0  2  0  0  0  0  0  0  0  0  0
    7.5480    1.5131    4.7332 O   0  0  0  0  0  0  0  0  0  0  0  0
   11.6140    2.1020    6.1177 C   0  0  2  0  0  0  0  0  0  0  0  0
   13.0990    2.0275    6.2572 N   0  0  0  0  0  0  0  0  0  0  0  0
    8.2450    3.7349    2.6481 C   0  0  1  0  0  0  0  0  0  0  0  0
    5.8007    7.2197    1.3437 C   0  0  1  0  0  0  0  0  0  0  0  0
    5.3758    1.5985    3.6947 C   0  0  2  0  0  0  0  0  0  0  0  0
    5.0942    2.8171    4.4733 N   0  0  0  0  0  0  0  0  0  0  0  0
   10.9407    0.6970    6.3904 C   0  0  0  0  0  0  0  0  0  0  0  0
    8.3720    5.1808    3.2172 C   0  0  2  0  0  0  0  0  0  0  0  0
    7.7136    5.3717    4.4936 O   0  0  0  0  0  0  0  0  0  0  0  0
    6.2468    8.6844    1.6964 C   0  0  2  0  0  0  0  0  0  0  0  0
    5.9632    8.9981    3.1289 N   0  0  0  0  0  0  0  0  0  0  0  0
    4.7315    0.4254    4.4561 C   0  0  1  0  0  0  0  0  0  0  0  0
    3.3295    0.6472    4.6172 O   0  0  0  0  0  0  0  0  0  0  0  0
    9.3782    0.8442    6.2510 C   0  0  2  0  0  0  0  0  0  0  0  0
    8.7100   -0.4585    6.5160 N   0  0  0  0  0  0  0  0  0  0  0  0
    7.8172    6.0070    2.0558 C   0  0  2  0  0  0  0  0  0  0  0  0
    6.3725    6.2043    2.1778 O   0  0  0  0  0  0  0  0  0  0  0  0
    5.4989    9.7138    0.7229 C   0  0  1  0  0  0  0  0  0  0  0  0
    6.0868    9.6224   -0.5943 O   0  0  0  0  0  0  0  0  0  0  0  0
    5.0112   -0.8945    3.7019 C   0  0  2  0  0  0  0  0  0  0  0  0
    4.4135   -1.9765    4.3775 O   0  0  0  0  0  0  0  0  0  0  0  0
    8.9935    1.3530    4.8057 C   0  0  2  0  0  0  0  0  0  0  0  0
    8.1672    5.2290    0.7762 C   0  0  2  0  0  0  0  0  0  0  0  0
    8.1522    3.8715    1.2115 O   0  0  0  0  0  0  0  0  0  0  0  0
    3.9223    9.4446    0.6259 C   0  0  2  0  0  0  0  0  0  0  0  0
    3.3479    9.7896    1.8858 O   0  0  0  0  0  0  0  0  0  0  0  0
    6.5587   -1.0999    3.5889 C   0  0  2  0  0  0  0  0  0  0  0  0
    7.1566    0.0395    2.8932 O   0  0  0  0  0  0  0  0  0  0  0  0
    9.6623    2.6980    4.4465 C   0  0  2  0  0  0  0  0  0  0  0  0
    9.3531    2.9154    3.0424 O   0  0  0  0  0  0  0  0  0  0  0  0
    9.5416    5.5982    0.1367 C   0  0  0  0  0  0  0  0  0  0  0  0
   10.5650    5.4806    1.1205 O   0  0  0  0  0  0  0  0  0  0  0  0
    3.6362    7.9316    0.2922 C   0  0  1  0  0  0  0  0  0  0  0  0
    4.2882    7.1477    1.3555 O   0  0  0  0  0  0  0  0  0  0  0  0
    6.9247   -2.3698    2.8560 C   0  0  0  0  0  0  0  0  0  0  0  0
    6.4244   -2.3326    1.5416 O   0  0  0  0  0  0  0  0  0  0  0  0
   11.2301    2.6083    4.6697 C   0  0  1  0  0  0  0  0  0  0  0  0
   11.8293    3.8936    4.4834 O   0  0  0  0  0  0  0  0  0  0  0  0
    2.0904    7.5676    0.2102 C   0  0  0  0  0  0  0  0  0  0  0  0
    1.7813    6.1499   -0.1229 N   0  0  0  0  0  0  0  0  0  0  0  0
  1  2  1  1  0  0  0
  1  7  1  0  0  0  0
  1 30  1  0  0  0  0
  3  4  1  6  0  0  0
  3  9  1  0  0  0  0
  3 39  1  0  0  0  0
  5 10  1  0  0  0  0
  5 26  1  0  0  0  0
  5 32  1  6  0  0  0
  6 12  1  0  0  0  0
  6 36  1  0  0  0  0
  6 19  1  1  0  0  0
  7  8  1  1  0  0  0
  7 14  1  0  0  0  0
  9 16  1  0  0  0  0
 10 11  1  1  0  0  0
 10 18  1  0  0  0  0
 12 13  1  1  0  0  0
 12 20  1  0  0  0  0
 14 15  1  6  0  0  0
 14 22  1  0  0  0  0
 16 17  1  6  0  0  0
 16 24  1  0  0  0  0
 18 19  1  1  0  0  0
 18 25  1  0  0  0  0
 20 21  1  6  0  0  0
 20 27  1  0  0  0  0
 22 23  1  1  0  0  0
 22 29  1  0  0  0  0
 24  2  1  1  0  0  0
 24 31  1  0  0  0  0
 25 26  1  0  0  0  0
 25 33  1  1  0  0  0
 27 28  1  1  0  0  0
 27 35  1  0  0  0  0
 29 30  1  0  0  0  0
 29 37  1  6  0  0  0
 31 32  1  6  0  0  0
 31 39  1  0  0  0  0
 33 34  1  0  0  0  0
 35 36  1  0  0  0  0
 35 41  1  1  0  0  0
 37 38  1  0  0  0  0
 39 40  1  1  0  0  0
 41 42  1  0  0  0  0
M  END
>  <CHROM.1>
179.85052913,-152.76468877,165.29529177,-66.93819572,53.52570042,60.99102976
96.36373215,58.18971302,179.15210569,7.07956793,3.74116116,2.97596007,1.18053998
0.28641564,2.82494660

>  <Name>
ligand

>  <RI>
0

>  <Rbt.Current_Directory>
/home/itssahil/PROJECTS/Mol_Feturizer/Test_systems_manuscript/rnas/2o3w

>  <Rbt.Executable>
rbdock ($Id: //depot/dev/client3/rdock/2013.1/src/exe/rbdock.cxx#4 $)

>  <Rbt.Library>
libRbt.so (2013.1, Build901 2013/11/27)

>  <Rbt.Parameter_File>
/export/apps/rDock/src/rDock_2013.1_src/data/scripts/dock_solv.prm

>  <Rbt.Receptor>
prm/pocket_docking_3.prm

>  <SCORE>
-10.1693

>  <SCORE.INTER>
-1.38392

>  <SCORE.INTER.CONST>
1

>  <SCORE.INTER.POLAR>
0

>  <SCORE.INTER.ROT>
9

>  <SCORE.INTER.SOLV>
15.926

>  <SCORE.INTER.VDW>
-15.8313

>  <SCORE.INTER.norm>
-0.0329504

>  <SCORE.INTRA>
-8.78537

>  <SCORE.INTRA.DIHEDRAL>
-18.5028

>  <SCORE.INTRA.DIHEDRAL.0>
27.8999

>  <SCORE.INTRA.POLAR>
0

>  <SCORE.INTRA.POLAR.0>
0

>  <SCORE.INTRA.REPUL>
0

>  <SCORE.INTRA.REPUL.0>
0

>  <SCORE.INTRA.SOLV>
-3.06439

>  <SCORE.INTRA.SOLV.lig_0>
-104.479

>  <SCORE.INTRA.VDW>
1.99824

>  <SCORE.INTRA.VDW.0>
-6.17816

>  <SCORE.INTRA.norm>
-0.209176

>  <SCORE.RESTR>
0

>  <SCORE.RESTR.CAVITY>
0

>  <SCORE.RESTR.norm>
0

>  <SCORE.SYSTEM>
0

>  <SCORE.SYSTEM.CONST>
0

>  <SCORE.SYSTEM.DIHEDRAL>
0

>  <SCORE.SYSTEM.SOLV>
0

>  <SCORE.SYSTEM.norm>
0

>  <SCORE.heavy>
42

>  <SCORE.norm>
-0.242126

>  <RMSD>
2.113

$$$$
ligand
 OpenBabel02271912133D
libRbt.so/2013.1/901 2013/11/27
 42 45  0  0  0  0  0  0  0  0999 V2000
   10.2394   -0.8873    4.5598 C   0  0  2  0  0  0  0  0  0  0  0  0
    9.9097    0.5035    4.7156 O   0  0  0  0  0  0  0  0  0  0  0  0
   12.3153    3.8792    5.9860 C   0  0  2  0  0  0  0  0  0  0  0  0
   13.3622    4.9424    6.0490 N   0  0  0  0  0  0  0  0  0  0  0  0
    9.1376    4.0117    2.6196 C   0  0  1  0  0  0  0  0  0  0  0  0
    6.3298    6.5845    0.3771 C   0  0  1  0  0  0  0  0  0  0  0  0
    9.7803   -1.3065    3.1309 C   0  0  2  0  0  0  0  0  0  0  0  0
   10.2573   -0.3786    2.0907 N   0  0  0  0  0  0  0  0  0  0  0  0
   12.9545    2.4368    6.0993 C   0  0  0  0  0  0  0  0  0  0  0  0
    8.8500    3.8488    1.0959 C   0  0  2  0  0  0  0  0  0  0  0  0
    9.8738    4.4121    0.2394 O   0  0  0  0  0  0  0  0  0  0  0  0
    6.4797    8.1078    0.0224 C   0  0  2  0  0  0  0  0  0  0  0  0
    7.1673    8.8467    1.1234 N   0  0  0  0  0  0  0  0  0  0  0  0
    8.2470   -1.3668    3.0040 C   0  0  1  0  0  0  0  0  0  0  0  0
    7.8728   -1.7925    1.6927 O   0  0  0  0  0  0  0  0  0  0  0  0
   11.8027    1.3629    6.0494 C   0  0  2  0  0  0  0  0  0  0  0  0
   12.3681   -0.0081    6.1683 N   0  0  0  0  0  0  0  0  0  0  0  0
    7.4663    4.4909    0.9845 C   0  0  2  0  0  0  0  0  0  0  0  0
    7.5592    5.9234    0.7015 O   0  0  0  0  0  0  0  0  0  0  0  0
    5.0314    8.7276   -0.2697 C   0  0  1  0  0  0  0  0  0  0  0  0
    4.5707    8.2531   -1.5548 O   0  0  0  0  0  0  0  0  0  0  0  0
    7.6766   -2.3097    4.0878 C   0  0  2  0  0  0  0  0  0  0  0  0
    6.2747   -2.3889    3.9746 O   0  0  0  0  0  0  0  0  0  0  0  0
   10.9858    1.4844    4.7027 C   0  0  2  0  0  0  0  0  0  0  0  0
    6.7690    4.2329    2.3309 C   0  0  2  0  0  0  0  0  0  0  0  0
    7.8541    4.2105    3.2553 O   0  0  0  0  0  0  0  0  0  0  0  0
    3.9556    8.3527    0.8571 C   0  0  2  0  0  0  0  0  0  0  0  0
    4.3187    9.0495    2.0484 O   0  0  0  0  0  0  0  0  0  0  0  0
    8.0879   -1.7731    5.4994 C   0  0  2  0  0  0  0  0  0  0  0  0
    9.5457   -1.6909    5.5888 O   0  0  0  0  0  0  0  0  0  0  0  0
   10.3772    2.8888    4.4960 C   0  0  2  0  0  0  0  0  0  0  0  0
    9.8319    2.8742    3.1481 O   0  0  0  0  0  0  0  0  0  0  0  0
    5.9437    2.9108    2.4020 C   0  0  0  0  0  0  0  0  0  0  0  0
    6.8083    1.8033    2.1675 O   0  0  0  0  0  0  0  0  0  0  0  0
    3.9415    6.7989    1.1172 C   0  0  1  0  0  0  0  0  0  0  0  0
    5.3183    6.4346    1.4939 O   0  0  0  0  0  0  0  0  0  0  0  0
    7.5752   -2.6425    6.6241 C   0  0  0  0  0  0  0  0  0  0  0  0
    8.1410   -3.9278    6.5400 O   0  0  0  0  0  0  0  0  0  0  0  0
   11.5004    3.9999    4.6362 C   0  0  1  0  0  0  0  0  0  0  0  0
   10.9129    5.3032    4.5959 O   0  0  0  0  0  0  0  0  0  0  0  0
    2.9225    6.3409    2.2488 C   0  0  0  0  0  0  0  0  0  0  0  0
    3.1022    6.9908    3.5761 N   0  0  0  0  0  0  0  0  0  0  0  0
  1  2  1  1  0  0  0
  1  7  1  0  0  0  0
  1 30  1  0  0  0  0
  3  4  1  6  0  0  0
  3  9  1  0  0  0  0
  3 39  1  0  0  0  0
  5 10  1  0  0  0  0
  5 26  1  0  0  0  0
  5 32  1  1  0  0  0
  6 12  1  0  0  0  0
  6 36  1  0  0  0  0
  6 19  1  1  0  0  0
  7  8  1  6  0  0  0
  7 14  1  0  0  0  0
  9 16  1  0  0  0  0
 10 11  1  6  0  0  0
 10 18  1  0  0  0  0
 12 13  1  1  0  0  0
 12 20  1  0  0  0  0
 14 15  1  6  0  0  0
 14 22  1  0  0  0  0
 16 17  1  6  0  0  0
 16 24  1  0  0  0  0
 18 19  1  1  0  0  0
 18 25  1  0  0  0  0
 20 21  1  6  0  0  0
 20 27  1  0  0  0  0
 22 23  1  1  0  0  0
 22 29  1  0  0  0  0
 24  2  1  1  0  0  0
 24 31  1  0  0  0  0
 25 26  1  0  0  0  0
 25 33  1  6  0  0  0
 27 28  1  1  0  0  0
 27 35  1  0  0  0  0
 29 30  1  0  0  0  0
 29 37  1  1  0  0  0
 31 32  1  6  0  0  0
 31 39  1  0  0  0  0
 33 34  1  0  0  0  0
 35 36  1  0  0  0  0
 35 41  1  1  0  0  0
 37 38  1  0  0  0  0
 39 40  1  1  0  0  0
 41 42  1  0  0  0  0
M  END
>  <CHROM.1>
-107.36419410,-72.03578123,170.88508142,-177.61301165,59.97480581,62.94833957
177.80395480,170.85773829,-56.04800426,8.15158547,3.06580838,3.09192954,1.07982121
0.40420414,2.88779626

>  <Name>
ligand

>  <RI>
0

>  <Rbt.Current_Directory>
/home/itssahil/PROJECTS/Mol_Feturizer/Test_systems_manuscript/rnas/2o3w

>  <Rbt.Executable>
rbdock ($Id: //depot/dev/client3/rdock/2013.1/src/exe/rbdock.cxx#4 $)

>  <Rbt.Library>
libRbt.so (2013.1, Build901 2013/11/27)

>  <Rbt.Parameter_File>
/export/apps/rDock/src/rDock_2013.1_src/data/scripts/dock_solv.prm

>  <Rbt.Receptor>
prm/pocket_docking_3.prm

>  <SCORE>
-4.21407

>  <SCORE.INTER>
3.95344

>  <SCORE.INTER.CONST>
1

>  <SCORE.INTER.POLAR>
0

>  <SCORE.INTER.ROT>
9

>  <SCORE.INTER.SOLV>
15.7677

>  <SCORE.INTER.VDW>
-12.2203

>  <SCORE.INTER.norm>
0.0941296

>  <SCORE.INTRA>
-8.17296

>  <SCORE.INTRA.DIHEDRAL>
-19.6777

>  <SCORE.INTRA.DIHEDRAL.0>
27.8999

>  <SCORE.INTRA.POLAR>
0

>  <SCORE.INTRA.POLAR.0>
0

>  <SCORE.INTRA.REPUL>
0.0220825

>  <SCORE.INTRA.REPUL.0>
0

>  <SCORE.INTRA.SOLV>
-0.86873

>  <SCORE.INTRA.SOLV.lig_0>
-104.479

>  <SCORE.INTRA.VDW>
1.98986

>  <SCORE.INTRA.VDW.0>
-6.17816

>  <SCORE.INTRA.norm>
-0.194594

>  <SCORE.RESTR>
0.00543968

>  <SCORE.RESTR.CAVITY>
0.00543968

>  <SCORE.RESTR.norm>
0.000129516

>  <SCORE.SYSTEM>
0

>  <SCORE.SYSTEM.CONST>
0

>  <SCORE.SYSTEM.DIHEDRAL>
0

>  <SCORE.SYSTEM.SOLV>
0

>  <SCORE.SYSTEM.norm>
0

>  <SCORE.heavy>
42

>  <SCORE.norm>
-0.100335

>  <RMSD>
2.173

$$$$
ligand
 OpenBabel02271912133D
libRbt.so/2013.1/901 2013/11/27
 42 45  0  0  0  0  0  0  0  0999 V2000
    8.2250   -1.7590    5.4882 C   0  0  2  0  0  0  0  0  0  0  0  0
    7.9868   -0.3613    5.2494 O   0  0  0  0  0  0  0  0  0  0  0  0
   10.4897    2.7481    6.9415 C   0  0  2  0  0  0  0  0  0  0  0  0
   11.5751    3.7534    7.1454 N   0  0  0  0  0  0  0  0  0  0  0  0
    7.4852    3.4196    3.5217 C   0  0  1  0  0  0  0  0  0  0  0  0
    6.5234    6.9563    0.9177 C   0  0  1  0  0  0  0  0  0  0  0  0
    8.9240   -2.3253    4.2160 C   0  0  2  0  0  0  0  0  0  0  0  0
   10.0737   -1.5069    3.7928 N   0  0  0  0  0  0  0  0  0  0  0  0
   11.0696    1.2771    6.9033 C   0  0  0  0  0  0  0  0  0  0  0  0
    8.4168    4.1289    2.4922 C   0  0  2  0  0  0  0  0  0  0  0  0
    9.3528    5.0603    3.0885 O   0  0  0  0  0  0  0  0  0  0  0  0
    7.6436    7.7403    0.1435 C   0  0  2  0  0  0  0  0  0  0  0  0
    8.4983    8.5206    1.0877 N   0  0  0  0  0  0  0  0  0  0  0  0
    7.9684   -2.4064    3.0113 C   0  0  1  0  0  0  0  0  0  0  0  0
    8.6391   -2.9668    1.8812 O   0  0  0  0  0  0  0  0  0  0  0  0
    9.8786    0.2639    6.7093 C   0  0  2  0  0  0  0  0  0  0  0  0
   10.3874   -1.1339    6.6832 N   0  0  0  0  0  0  0  0  0  0  0  0
    7.3915    4.7410    1.5365 C   0  0  2  0  0  0  0  0  0  0  0  0
    7.0071    6.0902    1.9520 O   0  0  0  0  0  0  0  0  0  0  0  0
    6.9622    8.7002   -0.9433 C   0  0  1  0  0  0  0  0  0  0  0  0
    6.4712    7.8930   -2.0371 O   0  0  0  0  0  0  0  0  0  0  0  0
    6.7223   -3.2359    3.3966 C   0  0  2  0  0  0  0  0  0  0  0  0
    5.8449   -3.3337    2.2988 O   0  0  0  0  0  0  0  0  0  0  0  0
    9.1000    0.5697    5.3690 C   0  0  2  0  0  0  0  0  0  0  0  0
    6.1829    3.7899    1.5445 C   0  0  2  0  0  0  0  0  0  0  0  0
    6.2093    3.2483    2.8630 O   0  0  0  0  0  0  0  0  0  0  0  0
    5.7607    9.5707   -0.3382 C   0  0  2  0  0  0  0  0  0  0  0  0
    6.3290   10.5265    0.5562 O   0  0  0  0  0  0  0  0  0  0  0  0
    6.0119   -2.5547    4.6135 C   0  0  2  0  0  0  0  0  0  0  0  0
    6.9449   -2.4561    5.7357 O   0  0  0  0  0  0  0  0  0  0  0  0
    8.5515    2.0123    5.3109 C   0  0  2  0  0  0  0  0  0  0  0  0
    8.0391    2.1719    3.9594 O   0  0  0  0  0  0  0  0  0  0  0  0
    6.2291    2.6579    0.4718 C   0  0  0  0  0  0  0  0  0  0  0  0
    5.0581    1.8548    0.5846 O   0  0  0  0  0  0  0  0  0  0  0  0
    4.7371    8.6492    0.4269 C   0  0  1  0  0  0  0  0  0  0  0  0
    5.5143    7.9456    1.4619 O   0  0  0  0  0  0  0  0  0  0  0  0
    4.7805   -3.3064    5.0632 C   0  0  0  0  0  0  0  0  0  0  0  0
    3.8606   -3.4084    4.0036 O   0  0  0  0  0  0  0  0  0  0  0  0
    9.7132    3.0533    5.5983 C   0  0  1  0  0  0  0  0  0  0  0  0
    9.1777    4.3761    5.6943 O   0  0  0  0  0  0  0  0  0  0  0  0
    3.5261    9.4379    1.0902 C   0  0  0  0  0  0  0  0  0  0  0  0
    2.4038    8.5937    1.5846 N   0  0  0  0  0  0  0  0  0  0  0  0
  1  2  1  6  0  0  0
  1  7  1  0  0  0  0
  1 30  1  0  0  0  0
  3  4  1  6  0  0  0
  3  9  1  0  0  0  0
  3 39  1  0  0  0  0
  5 10  1  0  0  0  0
  5 26  1  0  0  0  0
  5 32  1  6  0  0  0
  6 12  1  0  0  0  0
  6 36  1  0  0  0  0
  6 19  1  1  0  0  0
  7  8  1  6  0  0  0
  7 14  1  0  0  0  0
  9 16  1  0  0  0  0
 10 11  1  1  0  0  0
 10 18  1  0  0  0  0
 12 13  1  1  0  0  0
 12 20  1  0  0  0  0
 14 15  1  6  0  0  0
 14 22  1  0  0  0  0
 16 17  1  6  0  0  0
 16 24  1  0  0  0  0
 18 19  1  1  0  0  0
 18 25  1  0  0  0  0
 20 21  1  6  0  0  0
 20 27  1  0  0  0  0
 22 23  1  6  0  0  0
 22 29  1  0  0  0  0
 24  2  1  1  0  0  0
 24 31  1  0  0  0  0
 25 26  1  0  0  0  0
 25 33  1  6  0  0  0
 27 28  1  1  0  0  0
 27 35  1  0  0  0  0
 29 30  1  0  0  0  0
 29 37  1  1  0  0  0
 31 32  1  6  0  0  0
 31 39  1  0  0  0  0
 33 34  1  0  0  0  0
 35 36  1  0  0  0  0
 35 41  1  1  0  0  0
 37 38  1  0  0  0  0
 39 40  1  1  0  0  0
 41 42  1  0  0  0  0
M  END
>  <CHROM.1>
-77.31623756,-46.98829678,155.08170464,-86.43042549,-179.89815891,-58.48230813
-177.88155754,109.34085185,168.33435385,7.38621238,2.82272331,3.09831242
-1.34425563,-0.70342523,-0.24975235

>  <Name>
ligand

>  <RI>
0

>  <Rbt.Current_Directory>
/home/itssahil/PROJECTS/Mol_Feturizer/Test_systems_manuscript/rnas/2o3w

>  <Rbt.Executable>
rbdock ($Id: //depot/dev/client3/rdock/2013.1/src/exe/rbdock.cxx#4 $)

>  <Rbt.Library>
libRbt.so (2013.1, Build901 2013/11/27)

>  <Rbt.Parameter_File>
/export/apps/rDock/src/rDock_2013.1_src/data/scripts/dock_solv.prm

>  <Rbt.Receptor>
prm/pocket_docking_2.prm

>  <SCORE>
5.50546

>  <SCORE.INTER>
5.48518

>  <SCORE.INTER.CONST>
1

>  <SCORE.INTER.POLAR>
0

>  <SCORE.INTER.ROT>
9

>  <SCORE.INTER.SOLV>
13.8925

>  <SCORE.INTER.VDW>
-10.5741

>  <SCORE.INTER.norm>
0.130599

>  <SCORE.INTRA>
-1.41876

>  <SCORE.INTRA.DIHEDRAL>
-12.8887

>  <SCORE.INTRA.DIHEDRAL.0>
27.8999

>  <SCORE.INTRA.POLAR>
0

>  <SCORE.INTRA.POLAR.0>
0

>  <SCORE.INTRA.REPUL>
0

>  <SCORE.INTRA.REPUL.0>
0

>  <SCORE.INTRA.SOLV>
-0.274349

>  <SCORE.INTRA.SOLV.lig_0>
-104.479

>  <SCORE.INTRA.VDW>
5.16278

>  <SCORE.INTRA.VDW.0>
-6.17816

>  <SCORE.INTRA.norm>
-0.03378

>  <SCORE.RESTR>
1.43904

>  <SCORE.RESTR.CAVITY>
1.43904

>  <SCORE.RESTR.norm>
0.034263

>  <SCORE.SYSTEM>
0

>  <SCORE.SYSTEM.CONST>
0

>  <SCORE.SYSTEM.DIHEDRAL>
0

>  <SCORE.SYSTEM.SOLV>
0

>  <SCORE.SYSTEM.norm>
0

>  <SCORE.heavy>
42

>  <SCORE.norm>
0.131082

>  <RMSD>
2.217

$$$$
ligand
 OpenBabel02271912133D
libRbt.so/2013.1/901 2013/11/27
 42 45  0  0  0  0  0  0  0  0999 V2000
    8.3185   -0.1080    5.5608 C   0  0  2  0  0  0  0  0  0  0  0  0
    9.3750    0.2077    4.6380 O   0  0  0  0  0  0  0  0  0  0  0  0
   11.3558    3.2263    7.0380 C   0  0  2  0  0  0  0  0  0  0  0  0
   12.3207    4.2586    7.5213 N   0  0  0  0  0  0  0  0  0  0  0  0
    8.8254    4.1167    3.2818 C   0  0  1  0  0  0  0  0  0  0  0  0
    6.7187    7.2744    0.9739 C   0  0  1  0  0  0  0  0  0  0  0  0
    8.1913   -1.6607    5.5929 C   0  0  2  0  0  0  0  0  0  0  0  0
    9.4885   -2.3286    5.7971 N   0  0  0  0  0  0  0  0  0  0  0  0
   12.0412    1.8048    6.9322 C   0  0  0  0  0  0  0  0  0  0  0  0
    9.1254    4.4744    1.7942 C   0  0  2  0  0  0  0  0  0  0  0  0
   10.2981    5.3057    1.6129 O   0  0  0  0  0  0  0  0  0  0  0  0
    6.6572    8.7970    1.3569 C   0  0  2  0  0  0  0  0  0  0  0  0
    6.5832    8.9718    2.8384 N   0  0  0  0  0  0  0  0  0  0  0  0
    7.6007   -2.2257    4.2880 C   0  0  1  0  0  0  0  0  0  0  0  0
    7.4653   -3.6451    4.3769 O   0  0  0  0  0  0  0  0  0  0  0  0
   10.9713    0.7577    6.4408 C   0  0  2  0  0  0  0  0  0  0  0  0
   11.5794   -0.5967    6.3436 N   0  0  0  0  0  0  0  0  0  0  0  0
    7.7973    5.1002    1.3655 C   0  0  2  0  0  0  0  0  0  0  0  0
    7.7844    6.5452    1.5953 O   0  0  0  0  0  0  0  0  0  0  0  0
    5.3977    9.4736    0.6339 C   0  0  1  0  0  0  0  0  0  0  0  0
    5.6897    9.6189   -0.7741 O   0  0  0  0  0  0  0  0  0  0  0  0
    6.2426   -1.5462    4.0000 C   0  0  2  0  0  0  0  0  0  0  0  0
    5.6806   -2.0648    2.8169 O   0  0  0  0  0  0  0  0  0  0  0  0
   10.3856    1.1779    5.0350 C   0  0  2  0  0  0  0  0  0  0  0  0
    6.7092    4.3948    2.1924 C   0  0  2  0  0  0  0  0  0  0  0  0
    7.3853    4.0743    3.4059 O   0  0  0  0  0  0  0  0  0  0  0  0
    4.0480    8.6296    0.8171 C   0  0  2  0  0  0  0  0  0  0  0  0
    3.6630    8.7247    2.1879 O   0  0  0  0  0  0  0  0  0  0  0  0
    6.4604   -0.0012    3.8778 C   0  0  2  0  0  0  0  0  0  0  0  0
    7.0529    0.5113    5.1132 O   0  0  0  0  0  0  0  0  0  0  0  0
    9.7479    2.5845    5.0481 C   0  0  2  0  0  0  0  0  0  0  0  0
    9.4369    2.8759    3.6578 O   0  0  0  0  0  0  0  0  0  0  0  0
    6.1055    3.1167    1.5319 C   0  0  0  0  0  0  0  0  0  0  0  0
    5.3692    3.4901    0.3711 O   0  0  0  0  0  0  0  0  0  0  0  0
    4.2762    7.1227    0.4181 C   0  0  1  0  0  0  0  0  0  0  0  0
    5.3771    6.6366    1.2678 O   0  0  0  0  0  0  0  0  0  0  0  0
    5.1769    0.7470    3.6015 C   0  0  0  0  0  0  0  0  0  0  0  0
    5.2424    2.0411    4.1494 O   0  0  0  0  0  0  0  0  0  0  0  0
   10.7726    3.6464    5.6294 C   0  0  1  0  0  0  0  0  0  0  0  0
   10.1331    4.9165    5.7828 O   0  0  0  0  0  0  0  0  0  0  0  0
    2.9925    6.2025    0.6020 C   0  0  0  0  0  0  0  0  0  0  0  0
    2.5119    6.0429    2.0021 N   0  0  0  0  0  0  0  0  0  0  0  0
  1  2  1  6  0  0  0
  1  7  1  0  0  0  0
  1 30  1  0  0  0  0
  3  4  1  6  0  0  0
  3  9  1  0  0  0  0
  3 39  1  0  0  0  0
  5 10  1  0  0  0  0
  5 26  1  0  0  0  0
  5 32  1  6  0  0  0
  6 12  1  0  0  0  0
  6 36  1  0  0  0  0
  6 19  1  1  0  0  0
  7  8  1  6  0  0  0
  7 14  1  0  0  0  0
  9 16  1  0  0  0  0
 10 11  1  1  0  0  0
 10 18  1  0  0  0  0
 12 13  1  1  0  0  0
 12 20  1  0  0  0  0
 14 15  1  1  0  0  0
 14 22  1  0  0  0  0
 16 17  1  6  0  0  0
 16 24  1  0  0  0  0
 18 19  1  1  0  0  0
 18 25  1  0  0  0  0
 20 21  1  6  0  0  0
 20 27  1  0  0  0  0
 22 23  1  6  0  0  0
 22 29  1  0  0  0  0
 24  2  1  1  0  0  0
 24 31  1  0  0  0  0
 25 26  1  0  0  0  0
 25 33  1  6  0  0  0
 27 28  1  1  0  0  0
 27 35  1  0  0  0  0
 29 30  1  0  0  0  0
 29 37  1  1  0  0  0
 31 32  1  6  0  0  0
 31 39  1  0  0  0  0
 33 34  1  0  0  0  0
 35 36  1  0  0  0  0
 35 41  1  1  0  0  0
 37 38  1  0  0  0  0
 39 40  1  1  0  0  0
 41 42  1  0  0  0  0
M  END
>  <CHROM.1>
-133.25147699,51.85956545,167.03101662,174.30505533,-67.17537333,150.15277922
-179.96513269,155.95226428,-64.24051448,7.54993622,3.40182174,3.37210279
1.10204096,0.52171944,2.89345035

>  <Name>
ligand

>  <RI>
0

>  <Rbt.Current_Directory>
/home/itssahil/PROJECTS/Mol_Feturizer/Test_systems_manuscript/rnas/2o3w

>  <Rbt.Executable>
rbdock ($Id: //depot/dev/client3/rdock/2013.1/src/exe/rbdock.cxx#4 $)

>  <Rbt.Library>
libRbt.so (2013.1, Build901 2013/11/27)

>  <Rbt.Parameter_File>
/export/apps/rDock/src/rDock_2013.1_src/data/scripts/dock_solv.prm

>  <Rbt.Receptor>
prm/pocket_docking_2.prm

>  <SCORE>
-1.19976

>  <SCORE.INTER>
3.46022

>  <SCORE.INTER.CONST>
1

>  <SCORE.INTER.POLAR>
0

>  <SCORE.INTER.ROT>
9

>  <SCORE.INTER.SOLV>
9.27716

>  <SCORE.INTER.VDW>
-10.3856

>  <SCORE.INTER.norm>
0.0823863

>  <SCORE.INTRA>
-5.14419

>  <SCORE.INTRA.DIHEDRAL>
-14.7649

>  <SCORE.INTRA.DIHEDRAL.0>
27.8999

>  <SCORE.INTRA.POLAR>
0

>  <SCORE.INTRA.POLAR.0>
0

>  <SCORE.INTRA.REPUL>
0.0554927

>  <SCORE.INTRA.REPUL.0>
0

>  <SCORE.INTRA.SOLV>
0.412032

>  <SCORE.INTRA.SOLV.lig_0>
-104.479

>  <SCORE.INTRA.VDW>
1.75479

>  <SCORE.INTRA.VDW.0>
-6.17816

>  <SCORE.INTRA.norm>
-0.122481

>  <SCORE.RESTR>
0.484206

>  <SCORE.RESTR.CAVITY>
0.484206

>  <SCORE.RESTR.norm>
0.0115287

>  <SCORE.SYSTEM>
0

>  <SCORE.SYSTEM.CONST>
0

>  <SCORE.SYSTEM.DIHEDRAL>
0

>  <SCORE.SYSTEM.SOLV>
0

>  <SCORE.SYSTEM.norm>
0

>  <SCORE.heavy>
42

>  <SCORE.norm>
-0.0285658

>  <RMSD>
2.227

$$$$
ligand
 OpenBabel02271912133D
libRbt.so/2013.1/901 2013/11/27
 42 45  0  0  0  0  0  0  0  0999 V2000
    6.7227   -0.1657    3.3642 C   0  0  2  0  0  0  0  0  0  0  0  0
    7.1848   -0.0767    4.7228 O   0  0  0  0  0  0  0  0  0  0  0  0
   10.1974    2.3738    6.6504 C   0  0  2  0  0  0  0  0  0  0  0  0
   11.4841    3.0549    6.9836 N   0  0  0  0  0  0  0  0  0  0  0  0
    7.7871    3.4687    2.7746 C   0  0  1  0  0  0  0  0  0  0  0  0
    5.8015    6.7620    1.0731 C   0  0  1  0  0  0  0  0  0  0  0  0
    5.2621   -0.7062    3.4148 C   0  0  2  0  0  0  0  0  0  0  0  0
    4.4189    0.0363    4.3678 N   0  0  0  0  0  0  0  0  0  0  0  0
   10.3256    0.8037    6.7925 C   0  0  0  0  0  0  0  0  0  0  0  0
    7.3961    3.3460    1.2703 C   0  0  2  0  0  0  0  0  0  0  0  0
    8.4959    3.5737    0.3551 O   0  0  0  0  0  0  0  0  0  0  0  0
    4.3106    6.4512    0.6863 C   0  0  2  0  0  0  0  0  0  0  0  0
    4.2087    6.0173   -0.7392 N   0  0  0  0  0  0  0  0  0  0  0  0
    5.2015   -2.1882    3.8283 C   0  0  1  0  0  0  0  0  0  0  0  0
    3.8501   -2.6513    3.8229 O   0  0  0  0  0  0  0  0  0  0  0  0
    8.9355    0.1452    6.4511 C   0  0  2  0  0  0  0  0  0  0  0  0
    9.0158   -1.3340    6.5889 N   0  0  0  0  0  0  0  0  0  0  0  0
    6.2422    4.3459    1.1808 C   0  0  2  0  0  0  0  0  0  0  0  0
    6.7170    5.6857    0.8343 O   0  0  0  0  0  0  0  0  0  0  0  0
    3.4121    7.7494    0.9584 C   0  0  1  0  0  0  0  0  0  0  0  0
    3.2352    7.9047    2.3844 O   0  0  0  0  0  0  0  0  0  0  0  0
    6.0887   -3.0252    2.8788 C   0  0  2  0  0  0  0  0  0  0  0  0
    6.0309   -4.3872    3.2338 O   0  0  0  0  0  0  0  0  0  0  0  0
    8.4888    0.5173    4.9821 C   0  0  2  0  0  0  0  0  0  0  0  0
    5.5630    4.3349    2.5606 C   0  0  2  0  0  0  0  0  0  0  0  0
    6.6401    4.0382    3.4463 O   0  0  0  0  0  0  0  0  0  0  0  0
    4.0506    9.0867    0.3488 C   0  0  2  0  0  0  0  0  0  0  0  0
    3.9742    8.9914   -1.0730 O   0  0  0  0  0  0  0  0  0  0  0  0
    7.5596   -2.4956    2.9554 C   0  0  2  0  0  0  0  0  0  0  0  0
    7.5919   -1.0790    2.5922 O   0  0  0  0  0  0  0  0  0  0  0  0
    8.3965    2.0417    4.7521 C   0  0  2  0  0  0  0  0  0  0  0  0
    8.1608    2.1993    3.3259 O   0  0  0  0  0  0  0  0  0  0  0  0
    4.4065    3.2993    2.7167 C   0  0  0  0  0  0  0  0  0  0  0  0
    3.5101    3.4259    1.6170 O   0  0  0  0  0  0  0  0  0  0  0  0
    5.5504    9.2445    0.8049 C   0  0  1  0  0  0  0  0  0  0  0  0
    6.2438    8.0230    0.3608 O   0  0  0  0  0  0  0  0  0  0  0  0
    8.4994   -3.2566    2.0490 C   0  0  0  0  0  0  0  0  0  0  0  0
    8.6027   -4.5947    2.4710 O   0  0  0  0  0  0  0  0  0  0  0  0
    9.7530    2.7443    5.1788 C   0  0  1  0  0  0  0  0  0  0  0  0
    9.6153    4.1662    5.1092 O   0  0  0  0  0  0  0  0  0  0  0  0
    6.2742   10.5322    0.2163 C   0  0  0  0  0  0  0  0  0  0  0  0
    6.3741   10.5907   -1.2680 N   0  0  0  0  0  0  0  0  0  0  0  0
  1  2  1  1  0  0  0
  1  7  1  0  0  0  0
  1 30  1  0  0  0  0
  3  4  1  6  0  0  0
  3  9  1  0  0  0  0
  3 39  1  0  0  0  0
  5 10  1  0  0  0  0
  5 26  1  0  0  0  0
  5 32  1  1  0  0  0
  6 12  1  0  0  0  0
  6 36  1  0  0  0  0
  6 19  1  6  0  0  0
  7  8  1  1  0  0  0
  7 14  1  0  0  0  0
  9 16  1  0  0  0  0
 10 11  1  6  0  0  0
 10 18  1  0  0  0  0
 12 13  1  6  0  0  0
 12 20  1  0  0  0  0
 14 15  1  6  0  0  0
 14 22  1  0  0  0  0
 16 17  1  6  0  0  0
 16 24  1  0  0  0  0
 18 19  1  1  0  0  0
 18 25  1  0  0  0  0
 20 21  1  1  0  0  0
 20 27  1  0  0  0  0
 22 23  1  1  0  0  0
 22 29  1  0  0  0  0
 24  2  1  1  0  0  0
 24 31  1  0  0  0  0
 25 26  1  0  0  0  0
 25 33  1  6  0  0  0
 27 28  1  6  0  0  0
 27 35  1  0  0  0  0
 29 30  1  0  0  0  0
 29 37  1  6  0  0  0
 31 32  1  6  0  0  0
 31 39  1  0  0  0  0
 33 34  1  0  0  0  0
 35 36  1  0  0  0  0
 35 41  1  6  0  0  0
 37 38  1  0  0  0  0
 39 40  1  1  0  0  0
 41 42  1  0  0  0  0
M  END
>  <CHROM.1>
-174.54469191,-164.53005654,-163.69819857,-41.14026481,-49.59742528,-64.66499894
168.94099146,-171.97374302,-61.23775406,6.69208408,2.81802401,2.76169694
1.27543005,0.65286503,2.95355241

>  <Name>
ligand

>  <RI>
0

>  <Rbt.Current_Directory>
/home/itssahil/PROJECTS/Mol_Feturizer/Test_systems_manuscript/rnas/2o3w

>  <Rbt.Executable>
rbdock ($Id: //depot/dev/client3/rdock/2013.1/src/exe/rbdock.cxx#4 $)

>  <Rbt.Library>
libRbt.so (2013.1, Build901 2013/11/27)

>  <Rbt.Parameter_File>
/export/apps/rDock/src/rDock_2013.1_src/data/scripts/dock_solv.prm

>  <Rbt.Receptor>
prm/pocket_docking_2.prm

>  <SCORE>
-4.35204

>  <SCORE.INTER>
4.30561

>  <SCORE.INTER.CONST>
1

>  <SCORE.INTER.POLAR>
0

>  <SCORE.INTER.ROT>
9

>  <SCORE.INTER.SOLV>
12.7224

>  <SCORE.INTER.VDW>
-10.9704

>  <SCORE.INTER.norm>
0.102514

>  <SCORE.INTRA>
-9.17202

>  <SCORE.INTRA.DIHEDRAL>
-22.3292

>  <SCORE.INTRA.DIHEDRAL.0>
27.8999

>  <SCORE.INTRA.POLAR>
0

>  <SCORE.INTRA.POLAR.0>
0

>  <SCORE.INTRA.REPUL>
0

>  <SCORE.INTRA.REPUL.0>
0

>  <SCORE.INTRA.SOLV>
-1.778

>  <SCORE.INTRA.SOLV.lig_0>
-104.479

>  <SCORE.INTRA.VDW>
2.88155

>  <SCORE.INTRA.VDW.0>
-6.17816

>  <SCORE.INTRA.norm>
-0.218382

>  <SCORE.RESTR>
0.51438

>  <SCORE.RESTR.CAVITY>
0.51438

>  <SCORE.RESTR.norm>
0.0122471

>  <SCORE.SYSTEM>
0

>  <SCORE.SYSTEM.CONST>
0

>  <SCORE.SYSTEM.DIHEDRAL>
0

>  <SCORE.SYSTEM.SOLV>
0

>  <SCORE.SYSTEM.norm>
0

>  <SCORE.heavy>
42

>  <SCORE.norm>
-0.10362

>  <RMSD>
2.285

$$$$
ligand
 OpenBabel02271912133D
libRbt.so/2013.1/901 2013/11/27
 42 45  0  0  0  0  0  0  0  0999 V2000
    8.0722    0.4672    2.8475 C   0  0  2  0  0  0  0  0  0  0  0  0
    8.0965    0.5357    4.2835 O   0  0  0  0  0  0  0  0  0  0  0  0
   10.0084    3.2161    7.1042 C   0  0  2  0  0  0  0  0  0  0  0  0
   11.0205    4.0473    7.8220 N   0  0  0  0  0  0  0  0  0  0  0  0
    8.0821    3.8896    2.6378 C   0  0  1  0  0  0  0  0  0  0  0  0
    6.2132    7.3982    0.6241 C   0  0  1  0  0  0  0  0  0  0  0  0
    6.9607   -0.5537    2.4595 C   0  0  2  0  0  0  0  0  0  0  0  0
    5.6844   -0.2852    3.1447 N   0  0  0  0  0  0  0  0  0  0  0  0
   10.3575    1.6764    7.2007 C   0  0  0  0  0  0  0  0  0  0  0  0
    8.1327    5.3585    3.1579 C   0  0  2  0  0  0  0  0  0  0  0  0
    7.1862    5.6413    4.2177 O   0  0  0  0  0  0  0  0  0  0  0  0
    6.6334    8.8565    1.0311 C   0  0  2  0  0  0  0  0  0  0  0  0
    6.0217    9.2428    2.3378 N   0  0  0  0  0  0  0  0  0  0  0  0
    7.3530   -2.0028    2.8018 C   0  0  1  0  0  0  0  0  0  0  0  0
    6.3244   -2.9062    2.3936 O   0  0  0  0  0  0  0  0  0  0  0  0
    9.2458    0.8529    6.4467 C   0  0  2  0  0  0  0  0  0  0  0  0
    9.5353   -0.6041    6.5300 N   0  0  0  0  0  0  0  0  0  0  0  0
    7.9265    6.1405    1.8598 C   0  0  2  0  0  0  0  0  0  0  0  0
    6.5085    6.3961    1.6051 O   0  0  0  0  0  0  0  0  0  0  0  0
    6.2028    9.8740   -0.1291 C   0  0  1  0  0  0  0  0  0  0  0  0
    7.0920    9.7017   -1.2554 O   0  0  0  0  0  0  0  0  0  0  0  0
    8.7029   -2.3438    2.1304 C   0  0  2  0  0  0  0  0  0  0  0  0
    9.0681   -3.6731    2.4204 O   0  0  0  0  0  0  0  0  0  0  0  0
    9.1600    1.2906    4.9312 C   0  0  2  0  0  0  0  0  0  0  0  0
    8.5472    5.2828    0.7443 C   0  0  2  0  0  0  0  0  0  0  0  0
    8.3581    3.9521    1.2197 O   0  0  0  0  0  0  0  0  0  0  0  0
    4.6871    9.6677   -0.6064 C   0  0  2  0  0  0  0  0  0  0  0  0
    3.8382   10.0902    0.4600 O   0  0  0  0  0  0  0  0  0  0  0  0
    9.7944   -1.3460    2.6428 C   0  0  2  0  0  0  0  0  0  0  0  0
    9.3883    0.0260    2.3388 O   0  0  0  0  0  0  0  0  0  0  0  0
    8.8766    2.7989    4.7585 C   0  0  2  0  0  0  0  0  0  0  0  0
    9.0154    3.0530    3.3335 O   0  0  0  0  0  0  0  0  0  0  0  0
   10.0541    5.5672    0.4567 C   0  0  0  0  0  0  0  0  0  0  0  0
   10.5019    4.7141   -0.5924 O   0  0  0  0  0  0  0  0  0  0  0  0
    4.4147    8.1553   -0.9538 C   0  0  1  0  0  0  0  0  0  0  0  0
    4.7429    7.3908    0.2619 O   0  0  0  0  0  0  0  0  0  0  0  0
   11.1515   -1.6037    2.0297 C   0  0  0  0  0  0  0  0  0  0  0  0
   12.0789   -0.6493    2.4862 O   0  0  0  0  0  0  0  0  0  0  0  0
    9.9258    3.6529    5.5866 C   0  0  1  0  0  0  0  0  0  0  0  0
    9.5730    5.0385    5.5497 O   0  0  0  0  0  0  0  0  0  0  0  0
    2.9203    7.8538   -1.4060 C   0  0  0  0  0  0  0  0  0  0  0  0
    1.8711    8.1435   -0.3903 N   0  0  0  0  0  0  0  0  0  0  0  0
  1  2  1  1  0  0  0
  1  7  1  0  0  0  0
  1 30  1  0  0  0  0
  3  4  1  1  0  0  0
  3  9  1  0  0  0  0
  3 39  1  0  0  0  0
  5 10  1  0  0  0  0
  5 26  1  0  0  0  0
  5 32  1  1  0  0  0
  6 12  1  0  0  0  0
  6 36  1  0  0  0  0
  6 19  1  1  0  0  0
  7  8  1  1  0  0  0
  7 14  1  0  0  0  0
  9 16  1  0  0  0  0
 10 11  1  1  0  0  0
 10 18  1  0  0  0  0
 12 13  1  1  0  0  0
 12 20  1  0  0  0  0
 14 15  1  6  0  0  0
 14 22  1  0  0  0  0
 16 17  1  6  0  0  0
 16 24  1  0  0  0  0
 18 19  1  6  0  0  0
 18 25  1  0  0  0  0
 20 21  1  6  0  0  0
 20 27  1  0  0  0  0
 22 23  1  1  0  0  0
 22 29  1  0  0  0  0
 24  2  1  1  0  0  0
 24 31  1  0  0  0  0
 25 26  1  0  0  0  0
 25 33  1  1  0  0  0
 27 28  1  1  0  0  0
 27 35  1  0  0  0  0
 29 30  1  0  0  0  0
 29 37  1  6  0  0  0
 31 32  1  6  0  0  0
 31 39  1  0  0  0  0
 33 34  1  0  0  0  0
 35 36  1  0  0  0  0
 35 41  1  1  0  0  0
 37 38  1  0  0  0  0
 39 40  1  1  0  0  0
 41 42  1  0  0  0  0
M  END
>  <CHROM.1>
172.30342722,-162.32846717,164.47266161,-66.46610932,-179.86357232,177.79458502
137.36355884,64.09668764,-61.66721921,7.84798470,3.65834829,2.51042960,0.91892234
0.91635449,-2.99088460

>  <Name>
ligand

>  <RI>
0

>  <Rbt.Current_Directory>
/home/itssahil/PROJECTS/Mol_Feturizer/Test_systems_manuscript/rnas/2o3w

>  <Rbt.Executable>
rbdock ($Id: //depot/dev/client3/rdock/2013.1/src/exe/rbdock.cxx#4 $)

>  <Rbt.Library>
libRbt.so (2013.1, Build901 2013/11/27)

>  <Rbt.Parameter_File>
/export/apps/rDock/src/rDock_2013.1_src/data/scripts/dock_solv.prm

>  <Rbt.Receptor>
prm/pocket_docking_4.prm

>  <SCORE>
-7.98798

>  <SCORE.INTER>
1.29322

>  <SCORE.INTER.CONST>
1

>  <SCORE.INTER.POLAR>
0

>  <SCORE.INTER.ROT>
9

>  <SCORE.INTER.SOLV>
14.5214

>  <SCORE.INTER.VDW>
-13.5783

>  <SCORE.INTER.norm>
0.030791

>  <SCORE.INTRA>
-9.28121

>  <SCORE.INTRA.DIHEDRAL>
-18.8016

>  <SCORE.INTRA.DIHEDRAL.0>
27.8999

>  <SCORE.INTRA.POLAR>
0

>  <SCORE.INTRA.POLAR.0>
0

>  <SCORE.INTRA.REPUL>
0.00721833

>  <SCORE.INTRA.REPUL.0>
0

>  <SCORE.INTRA.SOLV>
-3.69259

>  <SCORE.INTRA.SOLV.lig_0>
-104.479

>  <SCORE.INTRA.VDW>
1.92979

>  <SCORE.INTRA.VDW.0>
-6.17816

>  <SCORE.INTRA.norm>
-0.220981

>  <SCORE.RESTR>
0

>  <SCORE.RESTR.CAVITY>
0

>  <SCORE.RESTR.norm>
0

>  <SCORE.SYSTEM>
0

>  <SCORE.SYSTEM.CONST>
0

>  <SCORE.SYSTEM.DIHEDRAL>
0

>  <SCORE.SYSTEM.SOLV>
0

>  <SCORE.SYSTEM.norm>
0

>  <SCORE.heavy>
42

>  <SCORE.norm>
-0.19019

>  <RMSD>
2.289

$$$$
ligand
 OpenBabel02271912133D
libRbt.so/2013.1/901 2013/11/27
 42 45  0  0  0  0  0  0  0  0999 V2000
    8.2505   -0.0458    5.5871 C   0  0  2  0  0  0  0  0  0  0  0  0
    9.2724    0.3238    4.6456 O   0  0  0  0  0  0  0  0  0  0  0  0
   11.1580    3.4218    7.0211 C   0  0  2  0  0  0  0  0  0  0  0  0
   12.0870    4.4916    7.4933 N   0  0  0  0  0  0  0  0  0  0  0  0
    8.5504    4.2016    3.2894 C   0  0  1  0  0  0  0  0  0  0  0  0
    6.3209    7.2764    0.9963 C   0  0  1  0  0  0  0  0  0  0  0  0
    8.1753   -1.6023    5.5893 C   0  0  2  0  0  0  0  0  0  0  0  0
    9.4985   -2.2305    5.7472 N   0  0  0  0  0  0  0  0  0  0  0  0
   11.8969    2.0276    6.9111 C   0  0  0  0  0  0  0  0  0  0  0  0
    8.8742    4.6076    1.8193 C   0  0  2  0  0  0  0  0  0  0  0  0
   10.0012    5.5089    1.6915 O   0  0  0  0  0  0  0  0  0  0  0  0
    6.2549    8.8202    1.2812 C   0  0  2  0  0  0  0  0  0  0  0  0
    6.2400    9.0914    2.7499 N   0  0  0  0  0  0  0  0  0  0  0  0
    7.5708   -2.1598    4.2875 C   0  0  1  0  0  0  0  0  0  0  0  0
    7.4845   -3.5844    4.3494 O   0  0  0  0  0  0  0  0  0  0  0  0
   10.8636    0.9389    6.4318 C   0  0  2  0  0  0  0  0  0  0  0  0
   11.5226   -0.3912    6.3311 N   0  0  0  0  0  0  0  0  0  0  0  0
    7.5254    5.1646    1.3611 C   0  0  2  0  0  0  0  0  0  0  0  0
    7.4212    6.6011    1.6184 O   0  0  0  0  0  0  0  0  0  0  0  0
    4.9575    9.4342    0.5693 C   0  0  1  0  0  0  0  0  0  0  0  0
    5.1889    9.4895   -0.8562 O   0  0  0  0  0  0  0  0  0  0  0  0
    6.1842   -1.5203    4.0476 C   0  0  2  0  0  0  0  0  0  0  0  0
    5.6098   -2.0329    2.8678 O   0  0  0  0  0  0  0  0  0  0  0  0
   10.2485    1.3332    5.0311 C   0  0  2  0  0  0  0  0  0  0  0  0
    6.4557    4.3800    2.1392 C   0  0  2  0  0  0  0  0  0  0  0  0
    7.1121    4.0734    3.3671 O   0  0  0  0  0  0  0  0  0  0  0  0
    3.6280    8.5897    0.8641 C   0  0  2  0  0  0  0  0  0  0  0  0
    3.2989    8.7708    2.2408 O   0  0  0  0  0  0  0  0  0  0  0  0
    6.3480    0.0334    3.9530 C   0  0  2  0  0  0  0  0  0  0  0  0
    6.9543    0.5399    5.1842 O   0  0  0  0  0  0  0  0  0  0  0  0
    9.5570    2.7141    5.0480 C   0  0  2  0  0  0  0  0  0  0  0  0
    9.2216    2.9904    3.6603 O   0  0  0  0  0  0  0  0  0  0  0  0
    5.9481    3.0836    1.4351 C   0  0  0  0  0  0  0  0  0  0  0  0
    5.2369    3.4379    0.2529 O   0  0  0  0  0  0  0  0  0  0  0  0
    3.8598    7.0623    0.5552 C   0  0  1  0  0  0  0  0  0  0  0  0
    5.0014    6.6451    1.3877 O   0  0  0  0  0  0  0  0  0  0  0  0
    5.0339    0.7438    3.7244 C   0  0  0  0  0  0  0  0  0  0  0  0
    5.0709    2.0281    4.2976 O   0  0  0  0  0  0  0  0  0  0  0  0
   10.5455    3.8161    5.6176 C   0  0  1  0  0  0  0  0  0  0  0  0
    9.8588    5.0608    5.7750 O   0  0  0  0  0  0  0  0  0  0  0  0
    2.5973    6.1425    0.8530 C   0  0  0  0  0  0  0  0  0  0  0  0
    1.4035    6.3945   -0.0003 N   0  0  0  0  0  0  0  0  0  0  0  0
  1  2  1  6  0  0  0
  1  7  1  0  0  0  0
  1 30  1  0  0  0  0
  3  4  1  6  0  0  0
  3  9  1  0  0  0  0
  3 39  1  0  0  0  0
  5 10  1  0  0  0  0
  5 26  1  0  0  0  0
  5 32  1  6  0  0  0
  6 12  1  0  0  0  0
  6 36  1  0  0  0  0
  6 19  1  1  0  0  0
  7  8  1  6  0  0  0
  7 14  1  0  0  0  0
  9 16  1  0  0  0  0
 10 11  1  1  0  0  0
 10 18  1  0  0  0  0
 12 13  1  1  0  0  0
 12 20  1  0  0  0  0
 14 15  1  1  0  0  0
 14 22  1  0  0  0  0
 16 17  1  6  0  0  0
 16 24  1  0  0  0  0
 18 19  1  1  0  0  0
 18 25  1  0  0  0  0
 20 21  1  6  0  0  0
 20 27  1  0  0  0  0
 22 23  1  6  0  0  0
 22 29  1  0  0  0  0
 24  2  1  1  0  0  0
 24 31  1  0  0  0  0
 25 26  1  0  0  0  0
 25 33  1  6  0  0  0
 27 28  1  1  0  0  0
 27 35  1  0  0  0  0
 29 30  1  0  0  0  0
 29 37  1  1  0  0  0
 31 32  1  6  0  0  0
 31 39  1  0  0  0  0
 33 34  1  0  0  0  0
 35 36  1  0  0  0  0
 35 41  1  1  0  0  0
 37 38  1  0  0  0  0
 39 40  1  1  0  0  0
 41 42  1  0  0  0  0
M  END
>  <CHROM.1>
-134.14325676,50.88804283,168.05480301,-179.22292316,-66.67546868,150.17526687
179.58489538,153.32264777,65.22159401,7.31027628,3.47169245,3.33763345,1.04232095
0.53668660,2.91279860

>  <Name>
ligand

>  <RI>
0

>  <Rbt.Current_Directory>
/home/itssahil/PROJECTS/Mol_Feturizer/Test_systems_manuscript/rnas/2o3w

>  <Rbt.Executable>
rbdock ($Id: //depot/dev/client3/rdock/2013.1/src/exe/rbdock.cxx#4 $)

>  <Rbt.Library>
libRbt.so (2013.1, Build901 2013/11/27)

>  <Rbt.Parameter_File>
/export/apps/rDock/src/rDock_2013.1_src/data/scripts/dock_solv.prm

>  <Rbt.Receptor>
prm/pocket_docking_2.prm

>  <SCORE>
-2.35219

>  <SCORE.INTER>
3.38935

>  <SCORE.INTER.CONST>
1

>  <SCORE.INTER.POLAR>
0

>  <SCORE.INTER.ROT>
9

>  <SCORE.INTER.SOLV>
9.55419

>  <SCORE.INTER.VDW>
-10.5252

>  <SCORE.INTER.norm>
0.0806987

>  <SCORE.INTRA>
-6.28971

>  <SCORE.INTRA.DIHEDRAL>
-14.5775

>  <SCORE.INTRA.DIHEDRAL.0>
27.8999

>  <SCORE.INTRA.POLAR>
0

>  <SCORE.INTRA.POLAR.0>
0

>  <SCORE.INTRA.REPUL>
0.0116947

>  <SCORE.INTRA.REPUL.0>
0

>  <SCORE.INTRA.SOLV>
-1.40647

>  <SCORE.INTRA.SOLV.lig_0>
-104.479

>  <SCORE.INTRA.VDW>
1.64381

>  <SCORE.INTRA.VDW.0>
-6.17816

>  <SCORE.INTRA.norm>
-0.149755

>  <SCORE.RESTR>
0.548174

>  <SCORE.RESTR.CAVITY>
0.548174

>  <SCORE.RESTR.norm>
0.0130518

>  <SCORE.SYSTEM>
0

>  <SCORE.SYSTEM.CONST>
0

>  <SCORE.SYSTEM.DIHEDRAL>
0

>  <SCORE.SYSTEM.SOLV>
0

>  <SCORE.SYSTEM.norm>
0

>  <SCORE.heavy>
42

>  <SCORE.norm>
-0.0560045

>  <RMSD>
2.290

$$$$
ligand
 OpenBabel02271912133D
libRbt.so/2013.1/901 2013/11/27
 42 45  0  0  0  0  0  0  0  0999 V2000
    7.3562   -1.4163    5.0463 C   0  0  2  0  0  0  0  0  0  0  0  0
    8.3543   -0.9944    4.1013 O   0  0  0  0  0  0  0  0  0  0  0  0
   10.3484    1.9270    6.6083 C   0  0  2  0  0  0  0  0  0  0  0  0
   11.3157    2.9401    7.1265 N   0  0  0  0  0  0  0  0  0  0  0  0
    8.0425    3.0506    2.8712 C   0  0  1  0  0  0  0  0  0  0  0  0
    6.5483    6.5782    0.6330 C   0  0  1  0  0  0  0  0  0  0  0  0
    6.8059   -2.7856    4.5461 C   0  0  2  0  0  0  0  0  0  0  0  0
    7.8800   -3.7419    4.2258 N   0  0  0  0  0  0  0  0  0  0  0  0
   11.0344    0.5117    6.4404 C   0  0  0  0  0  0  0  0  0  0  0  0
    8.3911    3.3596    1.3834 C   0  0  2  0  0  0  0  0  0  0  0  0
    9.7000    3.9515    1.1954 O   0  0  0  0  0  0  0  0  0  0  0  0
    6.8838    8.0906    0.8954 C   0  0  2  0  0  0  0  0  0  0  0  0
    7.0049    8.3641    2.3588 N   0  0  0  0  0  0  0  0  0  0  0  0
    5.9460   -2.6414    3.2770 C   0  0  1  0  0  0  0  0  0  0  0  0
    5.4312   -3.9128    2.8778 O   0  0  0  0  0  0  0  0  0  0  0  0
    9.9622   -0.5159    5.9142 C   0  0  2  0  0  0  0  0  0  0  0  0
   10.5709   -1.8645    5.7582 N   0  0  0  0  0  0  0  0  0  0  0  0
    7.2042    4.2338    0.9756 C   0  0  2  0  0  0  0  0  0  0  0  0
    7.4720    5.6517    1.2177 O   0  0  0  0  0  0  0  0  0  0  0  0
    5.7499    9.0068    0.2307 C   0  0  1  0  0  0  0  0  0  0  0  0
    5.9219    8.9954   -1.2043 O   0  0  0  0  0  0  0  0  0  0  0  0
    4.8081   -1.6282    3.5376 C   0  0  2  0  0  0  0  0  0  0  0  0
    4.0014   -1.4973    2.3902 O   0  0  0  0  0  0  0  0  0  0  0  0
    9.3667   -0.0398    4.5305 C   0  0  2  0  0  0  0  0  0  0  0  0
    6.0088    3.7423    1.8091 C   0  0  2  0  0  0  0  0  0  0  0  0
    6.6224    3.2849    3.0118 O   0  0  0  0  0  0  0  0  0  0  0  0
    4.2665    8.5240    0.5966 C   0  0  2  0  0  0  0  0  0  0  0  0
    4.0570    8.7885    1.9831 O   0  0  0  0  0  0  0  0  0  0  0  0
    5.4332   -0.2493    3.9344 C   0  0  2  0  0  0  0  0  0  0  0  0
    6.2729   -0.4131    5.1210 O   0  0  0  0  0  0  0  0  0  0  0  0
    8.7278    1.3643    4.6048 C   0  0  2  0  0  0  0  0  0  0  0  0
    8.4072    1.7114    3.2295 O   0  0  0  0  0  0  0  0  0  0  0  0
    5.1638    2.6114    1.1448 C   0  0  0  0  0  0  0  0  0  0  0  0
    3.9134    2.5012    1.8179 O   0  0  0  0  0  0  0  0  0  0  0  0
    4.0942    6.9858    0.3027 C   0  0  1  0  0  0  0  0  0  0  0  0
    5.1322    6.2998    1.0915 O   0  0  0  0  0  0  0  0  0  0  0  0
    4.3868    0.8043    4.2148 C   0  0  0  0  0  0  0  0  0  0  0  0
    5.0008    1.9956    4.6427 O   0  0  0  0  0  0  0  0  0  0  0  0
    9.7554    2.4031    5.2218 C   0  0  1  0  0  0  0  0  0  0  0  0
    9.1158    3.6651    5.4308 O   0  0  0  0  0  0  0  0  0  0  0  0
    2.6568    6.4134    0.6699 C   0  0  0  0  0  0  0  0  0  0  0  0
    1.5187    6.9998   -0.0899 N   0  0  0  0  0  0  0  0  0  0  0  0
  1  2  1  6  0  0  0
  1  7  1  0  0  0  0
  1 30  1  0  0  0  0
  3  4  1  6  0  0  0
  3  9  1  0  0  0  0
  3 39  1  0  0  0  0
  5 10  1  0  0  0  0
  5 26  1  0  0  0  0
  5 32  1  6  0  0  0
  6 12  1  0  0  0  0
  6 36  1  0  0  0  0
  6 19  1  1  0  0  0
  7  8  1  6  0  0  0
  7 14  1  0  0  0  0
  9 16  1  0  0  0  0
 10 11  1  1  0  0  0
 10 18  1  0  0  0  0
 12 13  1  1  0  0  0
 12 20  1  0  0  0  0
 14 15  1  1  0  0  0
 14 22  1  0  0  0  0
 16 17  1  6  0  0  0
 16 24  1  0  0  0  0
 18 19  1  1  0  0  0
 18 25  1  0  0  0  0
 20 21  1  6  0  0  0
 20 27  1  0  0  0  0
 22 23  1  6  0  0  0
 22 29  1  0  0  0  0
 24  2  1  1  0  0  0
 24 31  1  0  0  0  0
 25 26  1  0  0  0  0
 25 33  1  6  0  0  0
 27 28  1  1  0  0  0
 27 35  1  0  0  0  0
 29 30  1  0  0  0  0
 29 37  1  1  0  0  0
 31 32  1  6  0  0  0
 31 39  1  0  0  0  0
 33 34  1  0  0  0  0
 35 36  1  0  0  0  0
 35 41  1  1  0  0  0
 37 38  1  0  0  0  0
 39 40  1  1  0  0  0
 41 42  1  0  0  0  0
M  END
>  <CHROM.1>
-157.70481538,47.76282867,168.00457219,-179.01935792,-164.30149969,176.49135693
-167.48766513,153.18863461,62.41862700,6.79402483,2.70151027,2.97553215,1.24019777
0.47572888,2.85344983

>  <Name>
ligand

>  <RI>
0

>  <Rbt.Current_Directory>
/home/itssahil/PROJECTS/Mol_Feturizer/Test_systems_manuscript/rnas/2o3w

>  <Rbt.Executable>
rbdock ($Id: //depot/dev/client3/rdock/2013.1/src/exe/rbdock.cxx#4 $)

>  <Rbt.Library>
libRbt.so (2013.1, Build901 2013/11/27)

>  <Rbt.Parameter_File>
/export/apps/rDock/src/rDock_2013.1_src/data/scripts/dock_solv.prm

>  <Rbt.Receptor>
prm/pocket_docking_2.prm

>  <SCORE>
-5.51692

>  <SCORE.INTER>
3.98416

>  <SCORE.INTER.CONST>
1

>  <SCORE.INTER.POLAR>
0

>  <SCORE.INTER.ROT>
9

>  <SCORE.INTER.SOLV>
7.8451

>  <SCORE.INTER.VDW>
-9.55893

>  <SCORE.INTER.norm>
0.0948609

>  <SCORE.INTRA>
-9.59507

>  <SCORE.INTRA.DIHEDRAL>
-19.5416

>  <SCORE.INTRA.DIHEDRAL.0>
27.8999

>  <SCORE.INTRA.POLAR>
0

>  <SCORE.INTRA.POLAR.0>
0

>  <SCORE.INTRA.REPUL>
0

>  <SCORE.INTRA.REPUL.0>
0

>  <SCORE.INTRA.SOLV>
-2.40993

>  <SCORE.INTRA.SOLV.lig_0>
-104.479

>  <SCORE.INTRA.VDW>
1.38067

>  <SCORE.INTRA.VDW.0>
-6.17816

>  <SCORE.INTRA.norm>
-0.228454

>  <SCORE.RESTR>
0.0939989

>  <SCORE.RESTR.CAVITY>
0.0939989

>  <SCORE.RESTR.norm>
0.00223807

>  <SCORE.SYSTEM>
0

>  <SCORE.SYSTEM.CONST>
0

>  <SCORE.SYSTEM.DIHEDRAL>
0

>  <SCORE.SYSTEM.SOLV>
0

>  <SCORE.SYSTEM.norm>
0

>  <SCORE.heavy>
42

>  <SCORE.norm>
-0.131355

>  <RMSD>
2.359

$$$$
ligand
 OpenBabel02271912133D
libRbt.so/2013.1/901 2013/11/27
 42 45  0  0  0  0  0  0  0  0999 V2000
    7.8206   -0.2420    2.8245 C   0  0  2  0  0  0  0  0  0  0  0  0
    7.7937   -0.2999    4.2609 O   0  0  0  0  0  0  0  0  0  0  0  0
    8.6972    2.5093    7.4370 C   0  0  2  0  0  0  0  0  0  0  0  0
    9.3615    3.5545    8.2718 N   0  0  0  0  0  0  0  0  0  0  0  0
    7.0907    3.7324    3.3192 C   0  0  1  0  0  0  0  0  0  0  0  0
    5.0509    6.9598    0.9797 C   0  0  1  0  0  0  0  0  0  0  0  0
    6.9667   -1.4374    2.3048 C   0  0  2  0  0  0  0  0  0  0  0  0
    5.6458   -1.5106    2.9533 N   0  0  0  0  0  0  0  0  0  0  0  0
    9.5883    1.2066    7.3321 C   0  0  0  0  0  0  0  0  0  0  0  0
    7.3400    4.0919    1.8227 C   0  0  2  0  0  0  0  0  0  0  0  0
    8.5202    4.9021    1.5999 O   0  0  0  0  0  0  0  0  0  0  0  0
    5.0030    8.4788    1.3785 C   0  0  2  0  0  0  0  0  0  0  0  0
    4.7993    8.6380    2.8495 N   0  0  0  0  0  0  0  0  0  0  0  0
    7.6548   -2.7941    2.5428 C   0  0  1  0  0  0  0  0  0  0  0  0
    6.8567   -3.8557    2.0164 O   0  0  0  0  0  0  0  0  0  0  0  0
    8.8273    0.1366    6.4613 C   0  0  2  0  0  0  0  0  0  0  0  0
    9.6322   -1.1101    6.3536 N   0  0  0  0  0  0  0  0  0  0  0  0
    6.0083    4.7445    1.4482 C   0  0  2  0  0  0  0  0  0  0  0  0
    6.0315    6.1882    1.6845 O   0  0  0  0  0  0  0  0  0  0  0  0
    3.8371    9.2054    0.5541 C   0  0  1  0  0  0  0  0  0  0  0  0
    4.2612    9.3580   -0.8192 O   0  0  0  0  0  0  0  0  0  0  0  0
    9.0628   -2.7770    1.9053 C   0  0  2  0  0  0  0  0  0  0  0  0
    9.6998   -4.0183    2.0999 O   0  0  0  0  0  0  0  0  0  0  0  0
    8.5311    0.7029    5.0166 C   0  0  2  0  0  0  0  0  0  0  0  0
    4.9398    4.0553    2.3134 C   0  0  2  0  0  0  0  0  0  0  0  0
    5.6559    3.7162    3.4985 O   0  0  0  0  0  0  0  0  0  0  0  0
    2.4501    8.4043    0.6008 C   0  0  2  0  0  0  0  0  0  0  0  0
    1.9445    8.4954    1.9321 O   0  0  0  0  0  0  0  0  0  0  0  0
    9.8993   -1.6197    2.5459 C   0  0  2  0  0  0  0  0  0  0  0  0
    9.2134   -0.3443    2.3392 O   0  0  0  0  0  0  0  0  0  0  0  0
    7.7097    2.0105    5.0427 C   0  0  2  0  0  0  0  0  0  0  0  0
    7.6928    2.4785    3.6660 O   0  0  0  0  0  0  0  0  0  0  0  0
    4.2872    2.7921    1.6711 C   0  0  0  0  0  0  0  0  0  0  0  0
    3.3450    2.2344    2.5823 O   0  0  0  0  0  0  0  0  0  0  0  0
    2.6659    6.8956    0.2015 C   0  0  1  0  0  0  0  0  0  0  0  0
    3.6684    6.3632    1.1406 O   0  0  0  0  0  0  0  0  0  0  0  0
   11.2948   -1.5252    1.9737 C   0  0  0  0  0  0  0  0  0  0  0  0
   12.0012   -0.4758    2.5894 O   0  0  0  0  0  0  0  0  0  0  0  0
    8.4041    3.0762    5.9902 C   0  0  1  0  0  0  0  0  0  0  0  0
    7.5682    4.2278    6.1336 O   0  0  0  0  0  0  0  0  0  0  0  0
    1.3421    6.0161    0.2539 C   0  0  0  0  0  0  0  0  0  0  0  0
    1.4631    4.6398   -0.3007 N   0  0  0  0  0  0  0  0  0  0  0  0
  1  2  1  1  0  0  0
  1  7  1  0  0  0  0
  1 30  1  0  0  0  0
  3  4  1  1  0  0  0
  3  9  1  0  0  0  0
  3 39  1  0  0  0  0
  5 10  1  0  0  0  0
  5 26  1  0  0  0  0
  5 32  1  6  0  0  0
  6 12  1  0  0  0  0
  6 36  1  0  0  0  0
  6 19  1  1  0  0  0
  7  8  1  1  0  0  0
  7 14  1  0  0  0  0
  9 16  1  0  0  0  0
 10 11  1  1  0  0  0
 10 18  1  0  0  0  0
 12 13  1  1  0  0  0
 12 20  1  0  0  0  0
 14 15  1  6  0  0  0
 14 22  1  0  0  0  0
 16 17  1  6  0  0  0
 16 24  1  0  0  0  0
 18 19  1  1  0  0  0
 18 25  1  0  0  0  0
 20 21  1  6  0  0  0
 20 27  1  0  0  0  0
 22 23  1  1  0  0  0
 22 29  1  0  0  0  0
 24  2  1  6  0  0  0
 24 31  1  0  0  0  0
 25 26  1  0  0  0  0
 25 33  1  6  0  0  0
 27 28  1  1  0  0  0
 27 35  1  0  0  0  0
 29 30  1  0  0  0  0
 29 37  1  6  0  0  0
 31 32  1  6  0  0  0
 31 39  1  0  0  0  0
 33 34  1  0  0  0  0
 35 36  1  0  0  0  0
 35 41  1  1  0  0  0
 37 38  1  0  0  0  0
 39 40  1  1  0  0  0
 41 42  1  0  0  0  0
M  END
>  <CHROM.1>
179.35120867,-157.99804340,159.89026518,173.55088705,178.60775820,-179.68289252
-175.65635356,173.44697820,171.59900563,6.65882595,2.79907794,2.85696004
0.67684931,0.83953892,-2.70797250

>  <Name>
ligand

>  <RI>
0

>  <Rbt.Current_Directory>
/home/itssahil/PROJECTS/Mol_Feturizer/Test_systems_manuscript/rnas/2o3w

>  <Rbt.Executable>
rbdock ($Id: //depot/dev/client3/rdock/2013.1/src/exe/rbdock.cxx#4 $)

>  <Rbt.Library>
libRbt.so (2013.1, Build901 2013/11/27)

>  <Rbt.Parameter_File>
/export/apps/rDock/src/rDock_2013.1_src/data/scripts/dock_solv.prm

>  <Rbt.Receptor>
prm/pocket_docking_4.prm

>  <SCORE>
-11.2483

>  <SCORE.INTER>
1.10776

>  <SCORE.INTER.CONST>
1

>  <SCORE.INTER.POLAR>
0

>  <SCORE.INTER.ROT>
9

>  <SCORE.INTER.SOLV>
12.6393

>  <SCORE.INTER.VDW>
-13.0746

>  <SCORE.INTER.norm>
0.0263751

>  <SCORE.INTRA>
-12.3561

>  <SCORE.INTRA.DIHEDRAL>
-23.0593

>  <SCORE.INTRA.DIHEDRAL.0>
27.8999

>  <SCORE.INTRA.POLAR>
0

>  <SCORE.INTRA.POLAR.0>
0

>  <SCORE.INTRA.REPUL>
0

>  <SCORE.INTRA.REPUL.0>
0

>  <SCORE.INTRA.SOLV>
-5.42759

>  <SCORE.INTRA.SOLV.lig_0>
-104.479

>  <SCORE.INTRA.VDW>
1.88737

>  <SCORE.INTRA.VDW.0>
-6.17816

>  <SCORE.INTRA.norm>
-0.294192

>  <SCORE.RESTR>
0

>  <SCORE.RESTR.CAVITY>
0

>  <SCORE.RESTR.norm>
0

>  <SCORE.SYSTEM>
0

>  <SCORE.SYSTEM.CONST>
0

>  <SCORE.SYSTEM.DIHEDRAL>
0

>  <SCORE.SYSTEM.SOLV>
0

>  <SCORE.SYSTEM.norm>
0

>  <SCORE.heavy>
42

>  <SCORE.norm>
-0.267817

>  <RMSD>
2.378

$$$$
ligand
 OpenBabel02271912133D
libRbt.so/2013.1/901 2013/11/27
 42 45  0  0  0  0  0  0  0  0999 V2000
   10.3444   -0.7110    4.2304 C   0  0  2  0  0  0  0  0  0  0  0  0
   10.3513    0.5498    4.9216 O   0  0  0  0  0  0  0  0  0  0  0  0
   13.5166    3.1528    6.3362 C   0  0  2  0  0  0  0  0  0  0  0  0
   14.7250    4.0285    6.3950 N   0  0  0  0  0  0  0  0  0  0  0  0
    9.4605    4.3422    4.1132 C   0  0  1  0  0  0  0  0  0  0  0  0
    6.8289    6.9865    2.2960 C   0  0  1  0  0  0  0  0  0  0  0  0
    8.9198   -0.8903    3.6251 C   0  0  2  0  0  0  0  0  0  0  0  0
    8.4737    0.2951    2.8725 N   0  0  0  0  0  0  0  0  0  0  0  0
   13.9024    1.6675    5.9529 C   0  0  0  0  0  0  0  0  0  0  0  0
    8.5496    4.4369    2.8515 C   0  0  2  0  0  0  0  0  0  0  0  0
    9.0661    5.3083    1.8158 O   0  0  0  0  0  0  0  0  0  0  0  0
    6.5408    8.5255    2.4267 C   0  0  2  0  0  0  0  0  0  0  0  0
    5.4219    8.7795    3.3829 N   0  0  0  0  0  0  0  0  0  0  0  0
    7.8554   -1.1578    4.7052 C   0  0  1  0  0  0  0  0  0  0  0  0
    6.5748   -1.3549    4.1035 O   0  0  0  0  0  0  0  0  0  0  0  0
   12.5937    0.7904    5.9289 C   0  0  2  0  0  0  0  0  0  0  0  0
   12.9219   -0.6195    5.5853 N   0  0  0  0  0  0  0  0  0  0  0  0
    7.2208    4.8656    3.4759 C   0  0  2  0  0  0  0  0  0  0  0  0
    7.1002    6.3225    3.5367 O   0  0  0  0  0  0  0  0  0  0  0  0
    6.2082    9.1259    0.9790 C   0  0  1  0  0  0  0  0  0  0  0  0
    7.4311    9.2016    0.2123 O   0  0  0  0  0  0  0  0  0  0  0  0
    8.2757   -2.3811    5.5514 C   0  0  2  0  0  0  0  0  0  0  0  0
    7.3031   -2.6496    6.5345 O   0  0  0  0  0  0  0  0  0  0  0  0
   11.5581    1.3638    4.8827 C   0  0  2  0  0  0  0  0  0  0  0  0
    7.1932    4.2451    4.8829 C   0  0  2  0  0  0  0  0  0  0  0  0
    8.5714    4.2116    5.2461 O   0  0  0  0  0  0  0  0  0  0  0  0
    5.1266    8.2560    0.1784 C   0  0  2  0  0  0  0  0  0  0  0  0
    3.8714    8.4156    0.8382 O   0  0  0  0  0  0  0  0  0  0  0  0
    9.6648   -2.0920    6.2121 C   0  0  2  0  0  0  0  0  0  0  0  0
   10.6540   -1.8072    5.1728 O   0  0  0  0  0  0  0  0  0  0  0  0
   11.1765    2.8341    5.1617 C   0  0  2  0  0  0  0  0  0  0  0  0
   10.3786    3.2454    4.0178 O   0  0  0  0  0  0  0  0  0  0  0  0
    6.5570    2.8227    4.9624 C   0  0  0  0  0  0  0  0  0  0  0  0
    5.1879    2.8974    4.5765 O   0  0  0  0  0  0  0  0  0  0  0  0
    5.5417    6.7364    0.1563 C   0  0  1  0  0  0  0  0  0  0  0  0
    5.6771    6.3287    1.5655 O   0  0  0  0  0  0  0  0  0  0  0  0
   10.1579   -3.2439    7.0570 C   0  0  0  0  0  0  0  0  0  0  0  0
   11.4332   -2.9538    7.5754 O   0  0  0  0  0  0  0  0  0  0  0  0
   12.4822    3.7259    5.2864 C   0  0  1  0  0  0  0  0  0  0  0  0
   12.1365    5.0526    5.6936 O   0  0  0  0  0  0  0  0  0  0  0  0
    4.5036    5.7922   -0.5916 C   0  0  0  0  0  0  0  0  0  0  0  0
    4.8573    4.3464   -0.6229 N   0  0  0  0  0  0  0  0  0  0  0  0
  1  2  1  1  0  0  0
  1  7  1  0  0  0  0
  1 30  1  0  0  0  0
  3  4  1  6  0  0  0
  3  9  1  0  0  0  0
  3 39  1  0  0  0  0
  5 10  1  0  0  0  0
  5 26  1  0  0  0  0
  5 32  1  6  0  0  0
  6 12  1  0  0  0  0
  6 36  1  0  0  0  0
  6 19  1  1  0  0  0
  7  8  1  1  0  0  0
  7 14  1  0  0  0  0
  9 16  1  0  0  0  0
 10 11  1  6  0  0  0
 10 18  1  0  0  0  0
 12 13  1  1  0  0  0
 12 20  1  0  0  0  0
 14 15  1  6  0  0  0
 14 22  1  0  0  0  0
 16 17  1  6  0  0  0
 16 24  1  0  0  0  0
 18 19  1  1  0  0  0
 18 25  1  0  0  0  0
 20 21  1  6  0  0  0
 20 27  1  0  0  0  0
 22 23  1  1  0  0  0
 22 29  1  0  0  0  0
 24  2  1  1  0  0  0
 24 31  1  0  0  0  0
 25 26  1  0  0  0  0
 25 33  1  6  0  0  0
 27 28  1  1  0  0  0
 27 35  1  0  0  0  0
 29 30  1  0  0  0  0
 29 37  1  6  0  0  0
 31 32  1  6  0  0  0
 31 39  1  0  0  0  0
 33 34  1  0  0  0  0
 35 36  1  0  0  0  0
 35 41  1  1  0  0  0
 37 38  1  0  0  0  0
 39 40  1  1  0  0  0
 41 42  1  0  0  0  0
M  END
>  <CHROM.1>
-143.17646388,-79.44139964,74.62469330,173.20975429,-62.81146752,177.36260338
157.38112541,-170.12300578,-179.51928270,8.69502329,3.05930581,3.91210837
1.03809920,0.40368190,2.86172866

>  <Name>
ligand

>  <RI>
0

>  <Rbt.Current_Directory>
/home/itssahil/PROJECTS/Mol_Feturizer/Test_systems_manuscript/rnas/2o3w

>  <Rbt.Executable>
rbdock ($Id: //depot/dev/client3/rdock/2013.1/src/exe/rbdock.cxx#4 $)

>  <Rbt.Library>
libRbt.so (2013.1, Build901 2013/11/27)

>  <Rbt.Parameter_File>
/export/apps/rDock/src/rDock_2013.1_src/data/scripts/dock_solv.prm

>  <Rbt.Receptor>
prm/pocket_docking_3.prm

>  <SCORE>
-2.75091

>  <SCORE.INTER>
4.96901

>  <SCORE.INTER.CONST>
1

>  <SCORE.INTER.POLAR>
0

>  <SCORE.INTER.ROT>
9

>  <SCORE.INTER.SOLV>
13.5801

>  <SCORE.INTER.VDW>
-10.814

>  <SCORE.INTER.norm>
0.11831

>  <SCORE.INTRA>
-7.71992

>  <SCORE.INTRA.DIHEDRAL>
-17.207

>  <SCORE.INTRA.DIHEDRAL.0>
27.8999

>  <SCORE.INTRA.POLAR>
0

>  <SCORE.INTRA.POLAR.0>
0

>  <SCORE.INTRA.REPUL>
0

>  <SCORE.INTRA.REPUL.0>
0

>  <SCORE.INTRA.SOLV>
-1.62447

>  <SCORE.INTRA.SOLV.lig_0>
-104.479

>  <SCORE.INTRA.VDW>
1.69581

>  <SCORE.INTRA.VDW.0>
-6.17816

>  <SCORE.INTRA.norm>
-0.183808

>  <SCORE.RESTR>
0

>  <SCORE.RESTR.CAVITY>
0

>  <SCORE.RESTR.norm>
0

>  <SCORE.SYSTEM>
0

>  <SCORE.SYSTEM.CONST>
0

>  <SCORE.SYSTEM.DIHEDRAL>
0

>  <SCORE.SYSTEM.SOLV>
0

>  <SCORE.SYSTEM.norm>
0

>  <SCORE.heavy>
42

>  <SCORE.norm>
-0.0654979

>  <RMSD>
2.397

$$$$
ligand
 OpenBabel02271912133D
libRbt.so/2013.1/901 2013/11/27
 42 45  0  0  0  0  0  0  0  0999 V2000
    7.3890   -1.2458    5.1395 C   0  0  2  0  0  0  0  0  0  0  0  0
    8.2728   -0.9039    4.0582 O   0  0  0  0  0  0  0  0  0  0  0  0
   10.5024    2.2027    6.1012 C   0  0  2  0  0  0  0  0  0  0  0  0
   11.4870    3.2805    6.4164 N   0  0  0  0  0  0  0  0  0  0  0  0
    7.3916    3.0215    2.8386 C   0  0  1  0  0  0  0  0  0  0  0  0
    6.4408    6.8175    0.5706 C   0  0  1  0  0  0  0  0  0  0  0  0
    7.0987   -2.7725    5.0246 C   0  0  2  0  0  0  0  0  0  0  0  0
    8.3284   -3.5708    4.8790 N   0  0  0  0  0  0  0  0  0  0  0  0
   11.2261    0.8175    5.8574 C   0  0  0  0  0  0  0  0  0  0  0  0
    8.1526    3.8182    1.7355 C   0  0  2  0  0  0  0  0  0  0  0  0
    9.1438    4.7399    2.2521 O   0  0  0  0  0  0  0  0  0  0  0  0
    7.6659    7.7866    0.4009 C   0  0  2  0  0  0  0  0  0  0  0  0
    8.0683    8.3727    1.7144 N   0  0  0  0  0  0  0  0  0  0  0  0
    6.2050   -3.1080    3.8164 C   0  0  1  0  0  0  0  0  0  0  0  0
    5.9328   -4.5098    3.7731 O   0  0  0  0  0  0  0  0  0  0  0  0
   10.1377   -0.2802    5.5528 C   0  0  2  0  0  0  0  0  0  0  0  0
   10.7838   -1.6022    5.3322 N   0  0  0  0  0  0  0  0  0  0  0  0
    6.9895    4.4552    0.9734 C   0  0  2  0  0  0  0  0  0  0  0  0
    6.6395    5.7653    1.5229 O   0  0  0  0  0  0  0  0  0  0  0  0
    7.2898    8.9352   -0.6509 C   0  0  1  0  0  0  0  0  0  0  0  0
    7.2808    8.3671   -1.9798 O   0  0  0  0  0  0  0  0  0  0  0  0
    4.9009   -2.2819    3.8945 C   0  0  2  0  0  0  0  0  0  0  0  0
    4.0641   -2.5901    2.8040 O   0  0  0  0  0  0  0  0  0  0  0  0
    9.2898    0.1145    4.2796 C   0  0  2  0  0  0  0  0  0  0  0  0
    5.8146    3.4697    1.0909 C   0  0  2  0  0  0  0  0  0  0  0  0
    6.0391    2.8518    2.3559 O   0  0  0  0  0  0  0  0  0  0  0  0
    5.8704    9.6146   -0.3488 C   0  0  2  0  0  0  0  0  0  0  0  0
    6.0027   10.3732    0.8526 O   0  0  0  0  0  0  0  0  0  0  0  0
    5.2610   -0.7588    3.9023 C   0  0  2  0  0  0  0  0  0  0  0  0
    6.1370   -0.4662    5.0366 O   0  0  0  0  0  0  0  0  0  0  0  0
    8.5970    1.4873    4.4235 C   0  0  2  0  0  0  0  0  0  0  0  0
    8.0281    1.7671    3.1148 O   0  0  0  0  0  0  0  0  0  0  0  0
    5.7320    2.4054   -0.0469 C   0  0  0  0  0  0  0  0  0  0  0  0
    4.6076    1.5608    0.1796 O   0  0  0  0  0  0  0  0  0  0  0  0
    4.7533    8.5165   -0.1800 C   0  0  1  0  0  0  0  0  0  0  0  0
    5.2094    7.6323    0.9064 O   0  0  0  0  0  0  0  0  0  0  0  0
    4.0395    0.1271    3.9838 C   0  0  0  0  0  0  0  0  0  0  0  0
    3.0818   -0.4452    4.8409 O   0  0  0  0  0  0  0  0  0  0  0  0
    9.6565    2.5974    4.8248 C   0  0  1  0  0  0  0  0  0  0  0  0
    8.9938    3.8334    5.1053 O   0  0  0  0  0  0  0  0  0  0  0  0
    3.3141    9.1031    0.1564 C   0  0  0  0  0  0  0  0  0  0  0  0
    2.2339    8.0936    0.3314 N   0  0  0  0  0  0  0  0  0  0  0  0
  1  2  1  6  0  0  0
  1  7  1  0  0  0  0
  1 30  1  0  0  0  0
  3  4  1  6  0  0  0
  3  9  1  0  0  0  0
  3 39  1  0  0  0  0
  5 10  1  0  0  0  0
  5 26  1  0  0  0  0
  5 32  1  6  0  0  0
  6 12  1  0  0  0  0
  6 36  1  0  0  0  0
  6 19  1  1  0  0  0
  7  8  1  6  0  0  0
  7 14  1  0  0  0  0
  9 16  1  0  0  0  0
 10 11  1  1  0  0  0
 10 18  1  0  0  0  0
 12 13  1  1  0  0  0
 12 20  1  0  0  0  0
 14 15  1  1  0  0  0
 14 22  1  0  0  0  0
 16 17  1  6  0  0  0
 16 24  1  0  0  0  0
 18 19  1  1  0  0  0
 18 25  1  0  0  0  0
 20 21  1  6  0  0  0
 20 27  1  0  0  0  0
 22 23  1  6  0  0  0
 22 29  1  0  0  0  0
 24  2  1  1  0  0  0
 24 31  1  0  0  0  0
 25 26  1  0  0  0  0
 25 33  1  6  0  0  0
 27 28  1  1  0  0  0
 27 35  1  0  0  0  0
 29 30  1  0  0  0  0
 29 37  1  1  0  0  0
 31 32  1  6  0  0  0
 31 39  1  0  0  0  0
 33 34  1  0  0  0  0
 35 36  1  0  0  0  0
 35 41  1  1  0  0  0
 37 38  1  0  0  0  0
 39 40  1  1  0  0  0
 41 42  1  0  0  0  0
M  END
>  <CHROM.1>
-144.90593246,53.72575605,134.03803275,-99.98471666,179.98548597,38.07212635
-174.97980085,116.44638894,-179.63849801,6.96194672,2.79243128,2.76713778
-1.42039710,-0.44883420,-0.35852328

>  <Name>
ligand

>  <RI>
0

>  <Rbt.Current_Directory>
/home/itssahil/PROJECTS/Mol_Feturizer/Test_systems_manuscript/rnas/2o3w

>  <Rbt.Executable>
rbdock ($Id: //depot/dev/client3/rdock/2013.1/src/exe/rbdock.cxx#4 $)

>  <Rbt.Library>
libRbt.so (2013.1, Build901 2013/11/27)

>  <Rbt.Parameter_File>
/export/apps/rDock/src/rDock_2013.1_src/data/scripts/dock_solv.prm

>  <Rbt.Receptor>
prm/pocket_docking_2.prm

>  <SCORE>
3.5539

>  <SCORE.INTER>
3.54292

>  <SCORE.INTER.CONST>
1

>  <SCORE.INTER.POLAR>
0

>  <SCORE.INTER.ROT>
9

>  <SCORE.INTER.SOLV>
9.37284

>  <SCORE.INTER.VDW>
-10.3623

>  <SCORE.INTER.norm>
0.0843553

>  <SCORE.INTRA>
-0.658712

>  <SCORE.INTRA.DIHEDRAL>
-2.64952

>  <SCORE.INTRA.DIHEDRAL.0>
27.8999

>  <SCORE.INTRA.POLAR>
0

>  <SCORE.INTRA.POLAR.0>
0

>  <SCORE.INTRA.REPUL>
0

>  <SCORE.INTRA.REPUL.0>
0

>  <SCORE.INTRA.SOLV>
-2.4511

>  <SCORE.INTRA.SOLV.lig_0>
-104.479

>  <SCORE.INTRA.VDW>
1.89159

>  <SCORE.INTRA.VDW.0>
-6.17816

>  <SCORE.INTRA.norm>
-0.0156836

>  <SCORE.RESTR>
0.669687

>  <SCORE.RESTR.CAVITY>
0.669687

>  <SCORE.RESTR.norm>
0.0159449

>  <SCORE.SYSTEM>
0

>  <SCORE.SYSTEM.CONST>
0

>  <SCORE.SYSTEM.DIHEDRAL>
0

>  <SCORE.SYSTEM.SOLV>
0

>  <SCORE.SYSTEM.norm>
0

>  <SCORE.heavy>
42

>  <SCORE.norm>
0.0846166

>  <RMSD>
2.460

$$$$
ligand
 OpenBabel02271912133D
libRbt.so/2013.1/901 2013/11/27
 42 45  0  0  0  0  0  0  0  0999 V2000
    6.7074   -0.8532    3.2878 C   0  0  2  0  0  0  0  0  0  0  0  0
    7.0424   -0.8210    4.6857 O   0  0  0  0  0  0  0  0  0  0  0  0
    9.1333    1.9497    7.2832 C   0  0  2  0  0  0  0  0  0  0  0  0
   10.1267    2.9232    7.8273 N   0  0  0  0  0  0  0  0  0  0  0  0
    6.1790    2.9802    3.7110 C   0  0  1  0  0  0  0  0  0  0  0  0
    5.3736    6.6271    2.1649 C   0  0  1  0  0  0  0  0  0  0  0  0
    5.5225   -1.8524    3.1267 C   0  0  2  0  0  0  0  0  0  0  0  0
    4.4287   -1.5877    4.0775 N   0  0  0  0  0  0  0  0  0  0  0  0
    9.7939    0.5343    7.0341 C   0  0  0  0  0  0  0  0  0  0  0  0
    6.6101    3.8763    2.5102 C   0  0  2  0  0  0  0  0  0  0  0  0
    7.4057    5.0264    2.8889 O   0  0  0  0  0  0  0  0  0  0  0  0
    4.7487    7.9030    2.8359 C   0  0  2  0  0  0  0  0  0  0  0  0
    3.3157    8.0630    2.4462 N   0  0  0  0  0  0  0  0  0  0  0  0
    5.9567   -3.3136    3.3439 C   0  0  1  0  0  0  0  0  0  0  0  0
    4.8502   -4.1957    3.1479 O   0  0  0  0  0  0  0  0  0  0  0  0
    8.6952   -0.4518    6.4836 C   0  0  2  0  0  0  0  0  0  0  0  0
    9.2798   -1.8001    6.2512 N   0  0  0  0  0  0  0  0  0  0  0  0
    5.2559    4.1891    1.8718 C   0  0  2  0  0  0  0  0  0  0  0  0
    4.6677    5.4080    2.4277 O   0  0  0  0  0  0  0  0  0  0  0  0
    5.6052    9.1918    2.4210 C   0  0  1  0  0  0  0  0  0  0  0  0
    6.8613    9.1679    3.1356 O   0  0  0  0  0  0  0  0  0  0  0  0
    7.1242   -3.6519    2.3891 C   0  0  2  0  0  0  0  0  0  0  0  0
    7.5225   -4.9918    2.5638 O   0  0  0  0  0  0  0  0  0  0  0  0
    8.0780    0.0976    5.1371 C   0  0  2  0  0  0  0  0  0  0  0  0
    4.3650    2.9656    2.1453 C   0  0  2  0  0  0  0  0  0  0  0  0
    4.8611    2.4789    3.3901 O   0  0  0  0  0  0  0  0  0  0  0  0
    5.8864    9.2710    0.8455 C   0  0  2  0  0  0  0  0  0  0  0  0
    4.6441    9.5458    0.1993 O   0  0  0  0  0  0  0  0  0  0  0  0
    8.3162   -2.6789    2.6753 C   0  0  2  0  0  0  0  0  0  0  0  0
    7.8756   -1.2955    2.4969 O   0  0  0  0  0  0  0  0  0  0  0  0
    7.4624    1.5057    5.2912 C   0  0  2  0  0  0  0  0  0  0  0  0
    7.1183    1.9219    3.9411 O   0  0  0  0  0  0  0  0  0  0  0  0
    4.4152    1.8566    1.0489 C   0  0  0  0  0  0  0  0  0  0  0  0
    3.9553    2.3956   -0.1868 O   0  0  0  0  0  0  0  0  0  0  0  0
    6.4861    7.9126    0.3189 C   0  0  1  0  0  0  0  0  0  0  0  0
    5.5100    6.8686    0.6762 O   0  0  0  0  0  0  0  0  0  0  0  0
    9.5046   -2.9354    1.7777 C   0  0  0  0  0  0  0  0  0  0  0  0
   10.5462   -2.0409    2.0848 O   0  0  0  0  0  0  0  0  0  0  0  0
    8.5186    2.4992    5.9339 C   0  0  1  0  0  0  0  0  0  0  0  0
    7.9029    3.7590    6.2158 O   0  0  0  0  0  0  0  0  0  0  0  0
    6.7652    7.8915   -1.2464 C   0  0  0  0  0  0  0  0  0  0  0  0
    7.7228    8.9182   -1.7419 N   0  0  0  0  0  0  0  0  0  0  0  0
  1  2  1  1  0  0  0
  1  7  1  0  0  0  0
  1 30  1  0  0  0  0
  3  4  1  6  0  0  0
  3  9  1  0  0  0  0
  3 39  1  0  0  0  0
  5 10  1  0  0  0  0
  5 26  1  0  0  0  0
  5 32  1  6  0  0  0
  6 12  1  0  0  0  0
  6 36  1  0  0  0  0
  6 19  1  6  0  0  0
  7  8  1  1  0  0  0
  7 14  1  0  0  0  0
  9 16  1  0  0  0  0
 10 11  1  1  0  0  0
 10 18  1  0  0  0  0
 12 13  1  6  0  0  0
 12 20  1  0  0  0  0
 14 15  1  6  0  0  0
 14 22  1  0  0  0  0
 16 17  1  6  0  0  0
 16 24  1  0  0  0  0
 18 19  1  1  0  0  0
 18 25  1  0  0  0  0
 20 21  1  1  0  0  0
 20 27  1  0  0  0  0
 22 23  1  1  0  0  0
 22 29  1  0  0  0  0
 24  2  1  1  0  0  0
 24 31  1  0  0  0  0
 25 26  1  0  0  0  0
 25 33  1  6  0  0  0
 27 28  1  6  0  0  0
 27 35  1  0  0  0  0
 29 30  1  0  0  0  0
 29 37  1  6  0  0  0
 31 32  1  6  0  0  0
 31 39  1  0  0  0  0
 33 34  1  0  0  0  0
 35 36  1  0  0  0  0
 35 41  1  6  0  0  0
 37 38  1  0  0  0  0
 39 40  1  1  0  0  0
 41 42  1  0  0  0  0
M  END
>  <CHROM.1>
-176.54703104,-155.76081112,65.37156290,-177.19959611,-61.55891322,-179.58248290
161.20796070,141.64455858,59.82247053,6.70945642,2.49894366,3.04263056,1.22172844
0.97949405,-3.10906909

>  <Name>
ligand

>  <RI>
0

>  <Rbt.Current_Directory>
/home/itssahil/PROJECTS/Mol_Feturizer/Test_systems_manuscript/rnas/2o3w

>  <Rbt.Executable>
rbdock ($Id: //depot/dev/client3/rdock/2013.1/src/exe/rbdock.cxx#4 $)

>  <Rbt.Library>
libRbt.so (2013.1, Build901 2013/11/27)

>  <Rbt.Parameter_File>
/export/apps/rDock/src/rDock_2013.1_src/data/scripts/dock_solv.prm

>  <Rbt.Receptor>
prm/pocket_docking_3.prm

>  <SCORE>
-5.83608

>  <SCORE.INTER>
3.73482

>  <SCORE.INTER.CONST>
1

>  <SCORE.INTER.POLAR>
0

>  <SCORE.INTER.ROT>
9

>  <SCORE.INTER.SOLV>
14.2508

>  <SCORE.INTER.VDW>
-11.8604

>  <SCORE.INTER.norm>
0.0889243

>  <SCORE.INTRA>
-9.57091

>  <SCORE.INTRA.DIHEDRAL>
-18.2683

>  <SCORE.INTRA.DIHEDRAL.0>
27.8999

>  <SCORE.INTRA.POLAR>
0

>  <SCORE.INTRA.POLAR.0>
0

>  <SCORE.INTRA.REPUL>
0

>  <SCORE.INTRA.REPUL.0>
0

>  <SCORE.INTRA.SOLV>
-5.01047

>  <SCORE.INTRA.SOLV.lig_0>
-104.479

>  <SCORE.INTRA.VDW>
2.06847

>  <SCORE.INTRA.VDW.0>
-6.17816

>  <SCORE.INTRA.norm>
-0.227879

>  <SCORE.RESTR>
0

>  <SCORE.RESTR.CAVITY>
0

>  <SCORE.RESTR.norm>
0

>  <SCORE.SYSTEM>
0

>  <SCORE.SYSTEM.CONST>
0

>  <SCORE.SYSTEM.DIHEDRAL>
0

>  <SCORE.SYSTEM.SOLV>
0

>  <SCORE.SYSTEM.norm>
0

>  <SCORE.heavy>
42

>  <SCORE.norm>
-0.138954

>  <RMSD>
2.542

$$$$
ligand
 OpenBabel02271912133D
libRbt.so/2013.1/901 2013/11/27
 42 45  0  0  0  0  0  0  0  0999 V2000
    7.7290   -1.2906    4.9560 C   0  0  2  0  0  0  0  0  0  0  0  0
    8.5476   -0.7690    3.8952 O   0  0  0  0  0  0  0  0  0  0  0  0
   10.4171    2.4346    6.1397 C   0  0  2  0  0  0  0  0  0  0  0  0
   11.2640    3.6037    6.5224 N   0  0  0  0  0  0  0  0  0  0  0  0
    7.2615    3.1589    2.9624 C   0  0  1  0  0  0  0  0  0  0  0  0
    6.0395    6.8968    0.7409 C   0  0  1  0  0  0  0  0  0  0  0  0
    7.2417   -2.6999    4.5037 C   0  0  2  0  0  0  0  0  0  0  0  0
    8.3444   -3.5497    4.0212 N   0  0  0  0  0  0  0  0  0  0  0  0
   11.3052    1.1779    5.7736 C   0  0  0  0  0  0  0  0  0  0  0  0
    7.8204    3.9093    1.7152 C   0  0  2  0  0  0  0  0  0  0  0  0
    8.8852    4.8439    2.0180 O   0  0  0  0  0  0  0  0  0  0  0  0
    7.3234    7.6530    0.2422 C   0  0  2  0  0  0  0  0  0  0  0  0
    8.0969    8.2073    1.3934 N   0  0  0  0  0  0  0  0  0  0  0  0
    6.2082   -2.6233    3.3649 C   0  0  1  0  0  0  0  0  0  0  0  0
    5.7608   -3.9328    3.0103 O   0  0  0  0  0  0  0  0  0  0  0  0
   10.3582   -0.0251    5.4017 C   0  0  2  0  0  0  0  0  0  0  0  0
   11.1617   -1.2312    5.0651 N   0  0  0  0  0  0  0  0  0  0  0  0
    6.5429    4.5241    1.1413 C   0  0  2  0  0  0  0  0  0  0  0  0
    6.2919    5.8558    1.6929 O   0  0  0  0  0  0  0  0  0  0  0  0
    6.8918    8.8144   -0.7736 C   0  0  1  0  0  0  0  0  0  0  0  0
    6.4961    8.2148   -2.0278 O   0  0  0  0  0  0  0  0  0  0  0  0
    5.0295   -1.7221    3.7981 C   0  0  2  0  0  0  0  0  0  0  0  0
    4.0662   -1.6551    2.7725 O   0  0  0  0  0  0  0  0  0  0  0  0
    9.4316    0.3527    4.1791 C   0  0  2  0  0  0  0  0  0  0  0  0
    5.4065    3.5505    1.4967 C   0  0  2  0  0  0  0  0  0  0  0  0
    5.8462    2.9791    2.7266 O   0  0  0  0  0  0  0  0  0  0  0  0
    5.6953    9.7198   -0.2113 C   0  0  2  0  0  0  0  0  0  0  0  0
    6.2089   10.4839    0.8790 O   0  0  0  0  0  0  0  0  0  0  0  0
    5.5757   -0.2954    4.1381 C   0  0  2  0  0  0  0  0  0  0  0  0
    6.5797   -0.3925    5.1974 O   0  0  0  0  0  0  0  0  0  0  0  0
    8.5732    1.6089    4.4441 C   0  0  2  0  0  0  0  0  0  0  0  0
    7.9370    1.9120    3.1721 O   0  0  0  0  0  0  0  0  0  0  0  0
    5.1299    2.4448    0.4313 C   0  0  0  0  0  0  0  0  0  0  0  0
    6.1988    1.5035    0.4418 O   0  0  0  0  0  0  0  0  0  0  0  0
    4.4961    8.8191    0.2712 C   0  0  1  0  0  0  0  0  0  0  0  0
    5.0518    7.9070    1.2859 O   0  0  0  0  0  0  0  0  0  0  0  0
    4.4862    0.6544    4.5796 C   0  0  0  0  0  0  0  0  0  0  0  0
    3.6706    0.9986    3.4862 O   0  0  0  0  0  0  0  0  0  0  0  0
    9.4925    2.8130    4.9139 C   0  0  1  0  0  0  0  0  0  0  0  0
    8.6851    3.9273    5.3037 O   0  0  0  0  0  0  0  0  0  0  0  0
    3.2747    9.6372    0.8775 C   0  0  0  0  0  0  0  0  0  0  0  0
    2.3308    8.8521    1.7197 N   0  0  0  0  0  0  0  0  0  0  0  0
  1  2  1  6  0  0  0
  1  7  1  0  0  0  0
  1 30  1  0  0  0  0
  3  4  1  6  0  0  0
  3  9  1  0  0  0  0
  3 39  1  0  0  0  0
  5 10  1  0  0  0  0
  5 26  1  0  0  0  0
  5 32  1  6  0  0  0
  6 12  1  0  0  0  0
  6 36  1  0  0  0  0
  6 19  1  1  0  0  0
  7  8  1  6  0  0  0
  7 14  1  0  0  0  0
  9 16  1  0  0  0  0
 10 11  1  1  0  0  0
 10 18  1  0  0  0  0
 12 13  1  1  0  0  0
 12 20  1  0  0  0  0
 14 15  1  1  0  0  0
 14 22  1  0  0  0  0
 16 17  1  6  0  0  0
 16 24  1  0  0  0  0
 18 19  1  1  0  0  0
 18 25  1  0  0  0  0
 20 21  1  6  0  0  0
 20 27  1  0  0  0  0
 22 23  1  6  0  0  0
 22 29  1  0  0  0  0
 24  2  1  1  0  0  0
 24 31  1  0  0  0  0
 25 26  1  0  0  0  0
 25 33  1  6  0  0  0
 27 28  1  1  0  0  0
 27 35  1  0  0  0  0
 29 30  1  0  0  0  0
 29 37  1  1  0  0  0
 31 32  1  6  0  0  0
 31 39  1  0  0  0  0
 33 34  1  0  0  0  0
 35 36  1  0  0  0  0
 35 41  1  1  0  0  0
 37 38  1  0  0  0  0
 39 40  1  1  0  0  0
 41 42  1  0  0  0  0
M  END
>  <CHROM.1>
-163.20333853,54.73479160,129.08294473,-89.61945112,71.34057618,-71.09709960
-168.04840830,124.72872583,-161.54018501,6.94660730,3.03178545,2.78326410
-1.34798620,-0.46509512,-0.28773002

>  <Name>
ligand

>  <RI>
0

>  <Rbt.Current_Directory>
/home/itssahil/PROJECTS/Mol_Feturizer/Test_systems_manuscript/rnas/2o3w

>  <Rbt.Executable>
rbdock ($Id: //depot/dev/client3/rdock/2013.1/src/exe/rbdock.cxx#4 $)

>  <Rbt.Library>
libRbt.so (2013.1, Build901 2013/11/27)

>  <Rbt.Parameter_File>
/export/apps/rDock/src/rDock_2013.1_src/data/scripts/dock_solv.prm

>  <Rbt.Receptor>
prm/pocket_docking_2.prm

>  <SCORE>
1.97338

>  <SCORE.INTER>
4.05791

>  <SCORE.INTER.CONST>
1

>  <SCORE.INTER.POLAR>
0

>  <SCORE.INTER.ROT>
9

>  <SCORE.INTER.SOLV>
12.2458

>  <SCORE.INTER.VDW>
-10.9767

>  <SCORE.INTER.norm>
0.0966168

>  <SCORE.INTRA>
-3.24947

>  <SCORE.INTRA.DIHEDRAL>
-6.28868

>  <SCORE.INTRA.DIHEDRAL.0>
27.8999

>  <SCORE.INTRA.POLAR>
0

>  <SCORE.INTRA.POLAR.0>
0

>  <SCORE.INTRA.REPUL>
0

>  <SCORE.INTRA.REPUL.0>
0

>  <SCORE.INTRA.SOLV>
-1.89486

>  <SCORE.INTRA.SOLV.lig_0>
-104.479

>  <SCORE.INTRA.VDW>
0.8423

>  <SCORE.INTRA.VDW.0>
-6.17816

>  <SCORE.INTRA.norm>
-0.0773683

>  <SCORE.RESTR>
1.16494

>  <SCORE.RESTR.CAVITY>
1.16494

>  <SCORE.RESTR.norm>
0.0277367

>  <SCORE.SYSTEM>
0

>  <SCORE.SYSTEM.CONST>
0

>  <SCORE.SYSTEM.DIHEDRAL>
0

>  <SCORE.SYSTEM.SOLV>
0

>  <SCORE.SYSTEM.norm>
0

>  <SCORE.heavy>
42

>  <SCORE.norm>
0.0469851

>  <RMSD>
2.549

$$$$
ligand
 OpenBabel02271912133D
libRbt.so/2013.1/901 2013/11/27
 42 45  0  0  0  0  0  0  0  0999 V2000
    7.8751   -0.7840    4.5147 C   0  0  2  0  0  0  0  0  0  0  0  0
    8.7737   -0.4220    3.4523 O   0  0  0  0  0  0  0  0  0  0  0  0
   11.5025    2.0472    5.7442 C   0  0  2  0  0  0  0  0  0  0  0  0
   12.6859    2.8558    6.1637 N   0  0  0  0  0  0  0  0  0  0  0  0
    8.8544    3.5865    2.2913 C   0  0  1  0  0  0  0  0  0  0  0  0
    6.8909    7.1499    0.7064 C   0  0  1  0  0  0  0  0  0  0  0  0
    6.7286   -1.6233    3.8750 C   0  0  2  0  0  0  0  0  0  0  0  0
    7.2356   -2.7102    3.0193 N   0  0  0  0  0  0  0  0  0  0  0  0
   11.8931    0.5306    5.5223 C   0  0  0  0  0  0  0  0  0  0  0  0
    8.7964    3.8692    0.7592 C   0  0  2  0  0  0  0  0  0  0  0  0
   10.0266    4.4038    0.2116 O   0  0  0  0  0  0  0  0  0  0  0  0
    7.3567    8.6498    0.6592 C   0  0  2  0  0  0  0  0  0  0  0  0
    8.2117    8.9801    1.8386 N   0  0  0  0  0  0  0  0  0  0  0  0
    5.7957   -0.7664    2.9995 C   0  0  1  0  0  0  0  0  0  0  0  0
    4.7393   -1.5671    2.4668 O   0  0  0  0  0  0  0  0  0  0  0  0
   10.6035   -0.2726    5.1046 C   0  0  2  0  0  0  0  0  0  0  0  0
   10.9321   -1.7094    4.9013 N   0  0  0  0  0  0  0  0  0  0  0  0
    7.5780    4.7897    0.6729 C   0  0  2  0  0  0  0  0  0  0  0  0
    7.9563    6.1968    0.8064 O   0  0  0  0  0  0  0  0  0  0  0  0
    6.0694    9.6015    0.5971 C   0  0  1  0  0  0  0  0  0  0  0  0
    5.4887    9.5164   -0.7237 O   0  0  0  0  0  0  0  0  0  0  0  0
    5.2448    0.4125    3.8336 C   0  0  2  0  0  0  0  0  0  0  0  0
    4.3754    1.1974    3.0510 O   0  0  0  0  0  0  0  0  0  0  0  0
    9.9821    0.3218    3.7793 C   0  0  2  0  0  0  0  0  0  0  0  0
    6.6367    4.3556    1.8090 C   0  0  2  0  0  0  0  0  0  0  0  0
    7.5365    3.8817    2.8081 O   0  0  0  0  0  0  0  0  0  0  0  0
    4.9638    9.2248    1.6940 C   0  0  2  0  0  0  0  0  0  0  0  0
    5.4948    9.5624    2.9748 O   0  0  0  0  0  0  0  0  0  0  0  0
    6.4437    1.2710    4.3582 C   0  0  2  0  0  0  0  0  0  0  0  0
    7.3358    0.4326    5.1589 O   0  0  0  0  0  0  0  0  0  0  0  0
    9.6268    1.8196    3.9038 C   0  0  2  0  0  0  0  0  0  0  0  0
    9.2509    2.2358    2.5621 O   0  0  0  0  0  0  0  0  0  0  0  0
    5.5997    3.2564    1.4206 C   0  0  0  0  0  0  0  0  0  0  0  0
    6.2895    2.0551    1.0889 O   0  0  0  0  0  0  0  0  0  0  0  0
    4.6218    7.6880    1.6334 C   0  0  1  0  0  0  0  0  0  0  0  0
    5.8962    6.9770    1.8349 O   0  0  0  0  0  0  0  0  0  0  0  0
    5.9947    2.4477    5.1934 C   0  0  0  0  0  0  0  0  0  0  0  0
    7.1030    3.2330    5.5601 O   0  0  0  0  0  0  0  0  0  0  0  0
   10.8832    2.6411    4.4159 C   0  0  1  0  0  0  0  0  0  0  0  0
   10.5131    3.9981    4.6753 O   0  0  0  0  0  0  0  0  0  0  0  0
    3.5538    7.2191    2.7142 C   0  0  0  0  0  0  0  0  0  0  0  0
    3.2202    5.7682    2.6999 N   0  0  0  0  0  0  0  0  0  0  0  0
  1  2  1  6  0  0  0
  1  7  1  0  0  0  0
  1 30  1  0  0  0  0
  3  4  1  6  0  0  0
  3  9  1  0  0  0  0
  3 39  1  0  0  0  0
  5 10  1  0  0  0  0
  5 26  1  0  0  0  0
  5 32  1  6  0  0  0
  6 12  1  0  0  0  0
  6 36  1  0  0  0  0
  6 19  1  1  0  0  0
  7  8  1  6  0  0  0
  7 14  1  0  0  0  0
  9 16  1  0  0  0  0
 10 11  1  1  0  0  0
 10 18  1  0  0  0  0
 12 13  1  1  0  0  0
 12 20  1  0  0  0  0
 14 15  1  1  0  0  0
 14 22  1  0  0  0  0
 16 17  1  6  0  0  0
 16 24  1  0  0  0  0
 18 19  1  1  0  0  0
 18 25  1  0  0  0  0
 20 21  1  6  0  0  0
 20 27  1  0  0  0  0
 22 23  1  6  0  0  0
 22 29  1  0  0  0  0
 24  2  1  1  0  0  0
 24 31  1  0  0  0  0
 25 26  1  0  0  0  0
 25 33  1  6  0  0  0
 27 28  1  1  0  0  0
 27 35  1  0  0  0  0
 29 30  1  0  0  0  0
 29 37  1  1  0  0  0
 31 32  1  6  0  0  0
 31 39  1  0  0  0  0
 33 34  1  0  0  0  0
 35 36  1  0  0  0  0
 35 41  1  1  0  0  0
 37 38  1  0  0  0  0
 39 40  1  1  0  0  0
 41 42  1  0  0  0  0
M  END
>  <CHROM.1>
-177.17570463,41.22357570,178.50068526,-172.10757841,64.40704522,-175.97714096
-179.95298609,167.78486574,-179.15383042,7.51586725,3.40347425,2.90972846
1.23957627,0.26598169,2.87604028

>  <Name>
ligand

>  <RI>
0

>  <Rbt.Current_Directory>
/home/itssahil/PROJECTS/Mol_Feturizer/Test_systems_manuscript/rnas/2o3w

>  <Rbt.Executable>
rbdock ($Id: //depot/dev/client3/rdock/2013.1/src/exe/rbdock.cxx#4 $)

>  <Rbt.Library>
libRbt.so (2013.1, Build901 2013/11/27)

>  <Rbt.Parameter_File>
/export/apps/rDock/src/rDock_2013.1_src/data/scripts/dock_solv.prm

>  <Rbt.Receptor>
prm/pocket_docking_3.prm

>  <SCORE>
-14.2422

>  <SCORE.INTER>
-1.24674

>  <SCORE.INTER.CONST>
1

>  <SCORE.INTER.POLAR>
0

>  <SCORE.INTER.ROT>
9

>  <SCORE.INTER.SOLV>
12.2412

>  <SCORE.INTER.VDW>
-14.5116

>  <SCORE.INTER.norm>
-0.0296842

>  <SCORE.INTRA>
-12.9955

>  <SCORE.INTRA.DIHEDRAL>
-24.974

>  <SCORE.INTRA.DIHEDRAL.0>
27.8999

>  <SCORE.INTRA.POLAR>
0

>  <SCORE.INTRA.POLAR.0>
0

>  <SCORE.INTRA.REPUL>
0

>  <SCORE.INTRA.REPUL.0>
0

>  <SCORE.INTRA.SOLV>
-1.22964

>  <SCORE.INTRA.SOLV.lig_0>
-104.479

>  <SCORE.INTRA.VDW>
0.106339

>  <SCORE.INTRA.VDW.0>
-6.17816

>  <SCORE.INTRA.norm>
-0.309416

>  <SCORE.RESTR>
0

>  <SCORE.RESTR.CAVITY>
0

>  <SCORE.RESTR.norm>
0

>  <SCORE.SYSTEM>
0

>  <SCORE.SYSTEM.CONST>
0

>  <SCORE.SYSTEM.DIHEDRAL>
0

>  <SCORE.SYSTEM.SOLV>
0

>  <SCORE.SYSTEM.norm>
0

>  <SCORE.heavy>
42

>  <SCORE.norm>
-0.3391

>  <RMSD>
2.571

$$$$
ligand
 OpenBabel02271912133D
libRbt.so/2013.1/901 2013/11/27
 42 45  0  0  0  0  0  0  0  0999 V2000
    7.4257   -0.8934    4.2975 C   0  0  2  0  0  0  0  0  0  0  0  0
    8.3239   -0.5452    3.2301 O   0  0  0  0  0  0  0  0  0  0  0  0
   11.2788    1.6148    5.5537 C   0  0  2  0  0  0  0  0  0  0  0  0
   12.5309    2.3090    5.9791 N   0  0  0  0  0  0  0  0  0  0  0  0
    8.6894    3.4725    2.2000 C   0  0  1  0  0  0  0  0  0  0  0  0
    6.9708    7.2135    0.6144 C   0  0  1  0  0  0  0  0  0  0  0  0
    6.1925   -1.5883    3.6460 C   0  0  2  0  0  0  0  0  0  0  0  0
    6.5778   -2.6596    2.7108 N   0  0  0  0  0  0  0  0  0  0  0  0
   11.5392    0.0791    5.2784 C   0  0  0  0  0  0  0  0  0  0  0  0
    8.6624    3.8227    0.6810 C   0  0  2  0  0  0  0  0  0  0  0  0
    9.9257    4.3110    0.1663 O   0  0  0  0  0  0  0  0  0  0  0  0
    7.5011    8.6783    0.8196 C   0  0  2  0  0  0  0  0  0  0  0  0
    8.1120    8.8397    2.1730 N   0  0  0  0  0  0  0  0  0  0  0  0
    5.3160   -0.6006    2.8541 C   0  0  1  0  0  0  0  0  0  0  0  0
    4.1787   -1.2717    2.3089 O   0  0  0  0  0  0  0  0  0  0  0  0
   10.1819   -0.6009    4.8567 C   0  0  2  0  0  0  0  0  0  0  0  0
   10.3873   -2.0526    4.6034 N   0  0  0  0  0  0  0  0  0  0  0  0
    7.4976    4.8122    0.6249 C   0  0  2  0  0  0  0  0  0  0  0  0
    7.9514    6.1892    0.8216 O   0  0  0  0  0  0  0  0  0  0  0  0
    6.2957    9.7118    0.6053 C   0  0  1  0  0  0  0  0  0  0  0  0
    5.9926    9.7898   -0.8057 O   0  0  0  0  0  0  0  0  0  0  0  0
    4.8945    0.5672    3.7747 C   0  0  2  0  0  0  0  0  0  0  0  0
    4.0773    1.4721    3.0691 O   0  0  0  0  0  0  0  0  0  0  0  0
    9.5942    0.0853    3.5607 C   0  0  2  0  0  0  0  0  0  0  0  0
    6.5223    4.3831    1.7340 C   0  0  2  0  0  0  0  0  0  0  0  0
    7.3845    3.8181    2.7188 O   0  0  0  0  0  0  0  0  0  0  0  0
    4.9750    9.3036    1.4155 C   0  0  2  0  0  0  0  0  0  0  0  0
    5.2487    9.4834    2.8045 O   0  0  0  0  0  0  0  0  0  0  0  0
    6.1785    1.2839    4.3107 C   0  0  2  0  0  0  0  0  0  0  0  0
    7.0140    0.3228    5.0304 O   0  0  0  0  0  0  0  0  0  0  0  0
    9.3662    1.6026    3.7375 C   0  0  2  0  0  0  0  0  0  0  0  0
    9.0081    2.0916    2.4157 O   0  0  0  0  0  0  0  0  0  0  0  0
    5.4303    3.3606    1.2909 C   0  0  0  0  0  0  0  0  0  0  0  0
    4.6319    3.9406    0.2637 O   0  0  0  0  0  0  0  0  0  0  0  0
    4.5862    7.8046    1.1259 C   0  0  1  0  0  0  0  0  0  0  0  0
    5.7610    6.9978    1.4990 O   0  0  0  0  0  0  0  0  0  0  0  0
    5.8584    2.4406    5.2290 C   0  0  0  0  0  0  0  0  0  0  0  0
    7.0451    3.0667    5.6520 O   0  0  0  0  0  0  0  0  0  0  0  0
   10.6932    2.3005    4.2547 C   0  0  1  0  0  0  0  0  0  0  0  0
   10.4406    3.6743    4.5622 O   0  0  0  0  0  0  0  0  0  0  0  0
    3.3015    7.3040    1.9182 C   0  0  0  0  0  0  0  0  0  0  0  0
    2.0249    7.9852    1.5676 N   0  0  0  0  0  0  0  0  0  0  0  0
  1  2  1  6  0  0  0
  1  7  1  0  0  0  0
  1 30  1  0  0  0  0
  3  4  1  6  0  0  0
  3  9  1  0  0  0  0
  3 39  1  0  0  0  0
  5 10  1  0  0  0  0
  5 26  1  0  0  0  0
  5 32  1  6  0  0  0
  6 12  1  0  0  0  0
  6 36  1  0  0  0  0
  6 19  1  1  0  0  0
  7  8  1  6  0  0  0
  7 14  1  0  0  0  0
  9 16  1  0  0  0  0
 10 11  1  1  0  0  0
 10 18  1  0  0  0  0
 12 13  1  1  0  0  0
 12 20  1  0  0  0  0
 14 15  1  1  0  0  0
 14 22  1  0  0  0  0
 16 17  1  6  0  0  0
 16 24  1  0  0  0  0
 18 19  1  1  0  0  0
 18 25  1  0  0  0  0
 20 21  1  6  0  0  0
 20 27  1  0  0  0  0
 22 23  1  6  0  0  0
 22 29  1  0  0  0  0
 24  2  1  1  0  0  0
 24 31  1  0  0  0  0
 25 26  1  0  0  0  0
 25 33  1  6  0  0  0
 27 28  1  1  0  0  0
 27 35  1  0  0  0  0
 29 30  1  0  0  0  0
 29 37  1  1  0  0  0
 31 32  1  6  0  0  0
 31 39  1  0  0  0  0
 33 34  1  0  0  0  0
 35 36  1  0  0  0  0
 35 41  1  1  0  0  0
 37 38  1  0  0  0  0
 39 40  1  1  0  0  0
 41 42  1  0  0  0  0
M  END
>  <CHROM.1>
-177.99060429,39.83803065,172.10833181,-179.35362623,-60.80106576,-178.50254861
178.49138490,166.87004049,64.39356226,7.25148242,3.44808616,2.72871064,1.24334455
0.24284429,2.86220093

>  <Name>
ligand

>  <RI>
0

>  <Rbt.Current_Directory>
/home/itssahil/PROJECTS/Mol_Feturizer/Test_systems_manuscript/rnas/2o3w

>  <Rbt.Executable>
rbdock ($Id: //depot/dev/client3/rdock/2013.1/src/exe/rbdock.cxx#4 $)

>  <Rbt.Library>
libRbt.so (2013.1, Build901 2013/11/27)

>  <Rbt.Parameter_File>
/export/apps/rDock/src/rDock_2013.1_src/data/scripts/dock_solv.prm

>  <Rbt.Receptor>
prm/pocket_docking_4.prm

>  <SCORE>
-14.0356

>  <SCORE.INTER>
-0.795963

>  <SCORE.INTER.CONST>
1

>  <SCORE.INTER.POLAR>
0

>  <SCORE.INTER.ROT>
9

>  <SCORE.INTER.SOLV>
14.9391

>  <SCORE.INTER.VDW>
-15.1103

>  <SCORE.INTER.norm>
-0.0189515

>  <SCORE.INTRA>
-13.2396

>  <SCORE.INTRA.DIHEDRAL>
-24.7058

>  <SCORE.INTRA.DIHEDRAL.0>
27.8999

>  <SCORE.INTRA.POLAR>
0

>  <SCORE.INTRA.POLAR.0>
0

>  <SCORE.INTRA.REPUL>
0

>  <SCORE.INTRA.REPUL.0>
0

>  <SCORE.INTRA.SOLV>
-3.31845

>  <SCORE.INTRA.SOLV.lig_0>
-104.479

>  <SCORE.INTRA.VDW>
0.772454

>  <SCORE.INTRA.VDW.0>
-6.17816

>  <SCORE.INTRA.norm>
-0.31523

>  <SCORE.RESTR>
0

>  <SCORE.RESTR.CAVITY>
0

>  <SCORE.RESTR.norm>
0

>  <SCORE.SYSTEM>
0

>  <SCORE.SYSTEM.CONST>
0

>  <SCORE.SYSTEM.DIHEDRAL>
0

>  <SCORE.SYSTEM.SOLV>
0

>  <SCORE.SYSTEM.norm>
0

>  <SCORE.heavy>
42

>  <SCORE.norm>
-0.334181

>  <RMSD>
2.582

$$$$
ligand
 OpenBabel02271912133D
libRbt.so/2013.1/901 2013/11/27
 42 45  0  0  0  0  0  0  0  0999 V2000
    7.7569    0.4458    3.1849 C   0  0  2  0  0  0  0  0  0  0  0  0
    8.0952    0.9940    4.4704 O   0  0  0  0  0  0  0  0  0  0  0  0
   11.6424    2.4014    6.5277 C   0  0  2  0  0  0  0  0  0  0  0  0
   13.0581    2.5941    6.9626 N   0  0  0  0  0  0  0  0  0  0  0  0
    8.8407    2.9601    2.2797 C   0  0  1  0  0  0  0  0  0  0  0  0
    5.6975    5.8451    1.5878 C   0  0  1  0  0  0  0  0  0  0  0  0
    6.2019    0.3712    3.1171 C   0  0  2  0  0  0  0  0  0  0  0  0
    5.5593    1.6402    3.5007 N   0  0  0  0  0  0  0  0  0  0  0  0
   11.1365    0.9382    6.8516 C   0  0  0  0  0  0  0  0  0  0  0  0
    8.4524    4.4112    2.6972 C   0  0  2  0  0  0  0  0  0  0  0  0
    7.4863    4.4757    3.7750 O   0  0  0  0  0  0  0  0  0  0  0  0
    4.1627    5.5239    1.4884 C   0  0  2  0  0  0  0  0  0  0  0  0
    3.7906    5.1229    0.0985 N   0  0  0  0  0  0  0  0  0  0  0  0
    5.6281   -0.7160    4.0444 C   0  0  1  0  0  0  0  0  0  0  0  0
    4.2062   -0.7757    3.9204 O   0  0  0  0  0  0  0  0  0  0  0  0
    9.6355    0.8037    6.3919 C   0  0  2  0  0  0  0  0  0  0  0  0
    9.1215   -0.5591    6.6953 N   0  0  0  0  0  0  0  0  0  0  0  0
    7.9918    4.9920    1.3594 C   0  0  2  0  0  0  0  0  0  0  0  0
    6.5585    4.7870    1.1487 O   0  0  0  0  0  0  0  0  0  0  0  0
    3.3230    6.8033    1.9625 C   0  0  1  0  0  0  0  0  0  0  0  0
    3.4239    6.9220    3.3994 O   0  0  0  0  0  0  0  0  0  0  0  0
    6.2814   -2.0763    3.7099 C   0  0  2  0  0  0  0  0  0  0  0  0
    5.7544   -3.0858    4.5391 O   0  0  0  0  0  0  0  0  0  0  0  0
    9.4994    1.0891    4.8440 C   0  0  2  0  0  0  0  0  0  0  0  0
    8.8215    4.2785    0.2787 C   0  0  2  0  0  0  0  0  0  0  0  0
    9.0560    2.9936    0.8501 O   0  0  0  0  0  0  0  0  0  0  0  0
    3.8203    8.1630    1.2761 C   0  0  2  0  0  0  0  0  0  0  0  0
    3.4711    8.1007   -0.1062 O   0  0  0  0  0  0  0  0  0  0  0  0
    7.8307   -1.9587    3.8982 C   0  0  2  0  0  0  0  0  0  0  0  0
    8.3521   -0.8991    3.0349 O   0  0  0  0  0  0  0  0  0  0  0  0
   10.0281    2.4839    4.4435 C   0  0  2  0  0  0  0  0  0  0  0  0
    9.9982    2.5007    2.9897 O   0  0  0  0  0  0  0  0  0  0  0  0
   10.1643    4.9817   -0.0913 C   0  0  0  0  0  0  0  0  0  0  0  0
    9.9659    6.3920   -0.1146 O   0  0  0  0  0  0  0  0  0  0  0  0
    5.3786    8.3297    1.4378 C   0  0  1  0  0  0  0  0  0  0  0  0
    5.9832    7.1284    0.8365 O   0  0  0  0  0  0  0  0  0  0  0  0
    8.5541   -3.2480    3.5847 C   0  0  0  0  0  0  0  0  0  0  0  0
    8.3395   -3.6104    2.2424 O   0  0  0  0  0  0  0  0  0  0  0  0
   11.5080    2.6842    4.9778 C   0  0  1  0  0  0  0  0  0  0  0  0
   11.9411    4.0264    4.7397 O   0  0  0  0  0  0  0  0  0  0  0  0
    5.9640    9.6406    0.7541 C   0  0  0  0  0  0  0  0  0  0  0  0
    5.7579    9.7447   -0.7167 N   0  0  0  0  0  0  0  0  0  0  0  0
  1  2  1  1  0  0  0
  1  7  1  0  0  0  0
  1 30  1  0  0  0  0
  3  4  1  6  0  0  0
  3  9  1  0  0  0  0
  3 39  1  0  0  0  0
  5 10  1  0  0  0  0
  5 26  1  0  0  0  0
  5 32  1  1  0  0  0
  6 12  1  0  0  0  0
  6 36  1  0  0  0  0
  6 19  1  6  0  0  0
  7  8  1  1  0  0  0
  7 14  1  0  0  0  0
  9 16  1  0  0  0  0
 10 11  1  1  0  0  0
 10 18  1  0  0  0  0
 12 13  1  6  0  0  0
 12 20  1  0  0  0  0
 14 15  1  6  0  0  0
 14 22  1  0  0  0  0
 16 17  1  6  0  0  0
 16 24  1  0  0  0  0
 18 19  1  6  0  0  0
 18 25  1  0  0  0  0
 20 21  1  1  0  0  0
 20 27  1  0  0  0  0
 22 23  1  1  0  0  0
 22 29  1  0  0  0  0
 24  2  1  1  0  0  0
 24 31  1  0  0  0  0
 25 26  1  0  0  0  0
 25 33  1  1  0  0  0
 27 28  1  6  0  0  0
 27 35  1  0  0  0  0
 29 30  1  0  0  0  0
 29 37  1  6  0  0  0
 31 32  1  6  0  0  0
 31 39  1  0  0  0  0
 33 34  1  0  0  0  0
 35 36  1  0  0  0  0
 35 41  1  6  0  0  0
 37 38  1  0  0  0  0
 39 40  1  1  0  0  0
 41 42  1  0  0  0  0
M  END
>  <CHROM.1>
175.73228947,-144.09656519,92.13702466,-173.67786746,-39.29402102,61.17466343
90.42172356,56.42283374,-60.42688553,7.56821659,3.03188460,2.90157472,1.18316831
0.33482248,2.83224762

>  <Name>
ligand

>  <RI>
0

>  <Rbt.Current_Directory>
/home/itssahil/PROJECTS/Mol_Feturizer/Test_systems_manuscript/rnas/2o3w

>  <Rbt.Executable>
rbdock ($Id: //depot/dev/client3/rdock/2013.1/src/exe/rbdock.cxx#4 $)

>  <Rbt.Library>
libRbt.so (2013.1, Build901 2013/11/27)

>  <Rbt.Parameter_File>
/export/apps/rDock/src/rDock_2013.1_src/data/scripts/dock_solv.prm

>  <Rbt.Receptor>
prm/pocket_docking_3.prm

>  <SCORE>
-7.63349

>  <SCORE.INTER>
-1.84088

>  <SCORE.INTER.CONST>
1

>  <SCORE.INTER.POLAR>
0

>  <SCORE.INTER.ROT>
9

>  <SCORE.INTER.SOLV>
10.8163

>  <SCORE.INTER.VDW>
-14.4327

>  <SCORE.INTER.norm>
-0.0438306

>  <SCORE.INTRA>
-5.80722

>  <SCORE.INTRA.DIHEDRAL>
-13.7135

>  <SCORE.INTRA.DIHEDRAL.0>
27.8999

>  <SCORE.INTRA.POLAR>
0

>  <SCORE.INTRA.POLAR.0>
0

>  <SCORE.INTRA.REPUL>
0

>  <SCORE.INTRA.REPUL.0>
0

>  <SCORE.INTRA.SOLV>
-1.00824

>  <SCORE.INTRA.SOLV.lig_0>
-104.479

>  <SCORE.INTRA.VDW>
1.55366

>  <SCORE.INTRA.VDW.0>
-6.17816

>  <SCORE.INTRA.norm>
-0.138267

>  <SCORE.RESTR>
0.0146073

>  <SCORE.RESTR.CAVITY>
0.0146073

>  <SCORE.RESTR.norm>
0.000347792

>  <SCORE.SYSTEM>
0

>  <SCORE.SYSTEM.CONST>
0

>  <SCORE.SYSTEM.DIHEDRAL>
0

>  <SCORE.SYSTEM.SOLV>
0

>  <SCORE.SYSTEM.norm>
0

>  <SCORE.heavy>
42

>  <SCORE.norm>
-0.18175

>  <RMSD>
2.596

$$$$
ligand
 OpenBabel02271912133D
libRbt.so/2013.1/901 2013/11/27
 42 45  0  0  0  0  0  0  0  0999 V2000
    7.3129   -0.8194    4.5332 C   0  0  2  0  0  0  0  0  0  0  0  0
    8.1823   -0.5566    3.4186 O   0  0  0  0  0  0  0  0  0  0  0  0
   11.3140    1.5659    5.5360 C   0  0  2  0  0  0  0  0  0  0  0  0
   12.6087    2.2243    5.8834 N   0  0  0  0  0  0  0  0  0  0  0  0
    8.6549    3.4031    2.2244 C   0  0  1  0  0  0  0  0  0  0  0  0
    7.0194    7.1478    0.5625 C   0  0  1  0  0  0  0  0  0  0  0  0
    6.0398   -1.5141    3.9634 C   0  0  2  0  0  0  0  0  0  0  0  0
    6.3638   -2.6461    3.0779 N   0  0  0  0  0  0  0  0  0  0  0  0
   11.5031    0.0121    5.3084 C   0  0  0  0  0  0  0  0  0  0  0  0
    8.5947    3.7033    0.6957 C   0  0  2  0  0  0  0  0  0  0  0  0
    9.8581    4.1292    0.1286 O   0  0  0  0  0  0  0  0  0  0  0  0
    7.6053    8.5989    0.7037 C   0  0  2  0  0  0  0  0  0  0  0  0
    8.2614    8.7823    2.0329 N   0  0  0  0  0  0  0  0  0  0  0  0
    5.1626   -0.5474    3.1467 C   0  0  1  0  0  0  0  0  0  0  0  0
    3.9897   -1.2152    2.6783 O   0  0  0  0  0  0  0  0  0  0  0  0
   10.1040   -0.6279    4.9686 C   0  0  2  0  0  0  0  0  0  0  0  0
   10.2425   -2.0948    4.7620 N   0  0  0  0  0  0  0  0  0  0  0  0
    7.4634    4.7311    0.6391 C   0  0  2  0  0  0  0  0  0  0  0  0
    7.9701    6.0969    0.7755 O   0  0  0  0  0  0  0  0  0  0  0  0
    6.4301    9.6667    0.4898 C   0  0  1  0  0  0  0  0  0  0  0  0
    6.0879    9.7099   -0.9137 O   0  0  0  0  0  0  0  0  0  0  0  0
    4.8045    0.6812    4.0134 C   0  0  2  0  0  0  0  0  0  0  0  0
    3.9875    1.5683    3.2854 O   0  0  0  0  0  0  0  0  0  0  0  0
    9.4887    0.0341    3.6728 C   0  0  2  0  0  0  0  0  0  0  0  0
    6.5075    4.3739    1.7898 C   0  0  2  0  0  0  0  0  0  0  0  0
    7.3788    3.8117    2.7682 O   0  0  0  0  0  0  0  0  0  0  0  0
    5.1209    9.3315    1.3506 C   0  0  2  0  0  0  0  0  0  0  0  0
    5.4418    9.5462    2.7244 O   0  0  0  0  0  0  0  0  0  0  0  0
    6.1249    1.3897    4.4651 C   0  0  2  0  0  0  0  0  0  0  0  0
    6.9593    0.4468    5.2097 O   0  0  0  0  0  0  0  0  0  0  0  0
    9.3269    1.5647    3.8015 C   0  0  2  0  0  0  0  0  0  0  0  0
    8.9321    2.0196    2.4780 O   0  0  0  0  0  0  0  0  0  0  0  0
    5.3683    3.3765    1.4134 C   0  0  0  0  0  0  0  0  0  0  0  0
    5.9428    2.1421    0.9951 O   0  0  0  0  0  0  0  0  0  0  0  0
    4.6726    7.8385    1.1222 C   0  0  1  0  0  0  0  0  0  0  0  0
    5.8297    7.0034    1.4881 O   0  0  0  0  0  0  0  0  0  0  0  0
    5.8677    2.6043    5.3268 C   0  0  0  0  0  0  0  0  0  0  0  0
    7.0859    3.2020    5.6984 O   0  0  0  0  0  0  0  0  0  0  0  0
   10.7006    2.2272    4.2372 C   0  0  1  0  0  0  0  0  0  0  0  0
   10.5142    3.6201    4.5028 O   0  0  0  0  0  0  0  0  0  0  0  0
    3.3958    7.4092    1.9671 C   0  0  0  0  0  0  0  0  0  0  0  0
    2.1269    8.1013    1.6100 N   0  0  0  0  0  0  0  0  0  0  0  0
  1  2  1  6  0  0  0
  1  7  1  0  0  0  0
  1 30  1  0  0  0  0
  3  4  1  6  0  0  0
  3  9  1  0  0  0  0
  3 39  1  0  0  0  0
  5 10  1  0  0  0  0
  5 26  1  0  0  0  0
  5 32  1  6  0  0  0
  6 12  1  0  0  0  0
  6 36  1  0  0  0  0
  6 19  1  1  0  0  0
  7  8  1  6  0  0  0
  7 14  1  0  0  0  0
  9 16  1  0  0  0  0
 10 11  1  1  0  0  0
 10 18  1  0  0  0  0
 12 13  1  1  0  0  0
 12 20  1  0  0  0  0
 14 15  1  1  0  0  0
 14 22  1  0  0  0  0
 16 17  1  6  0  0  0
 16 24  1  0  0  0  0
 18 19  1  1  0  0  0
 18 25  1  0  0  0  0
 20 21  1  6  0  0  0
 20 27  1  0  0  0  0
 22 23  1  6  0  0  0
 22 29  1  0  0  0  0
 24  2  1  1  0  0  0
 24 31  1  0  0  0  0
 25 26  1  0  0  0  0
 25 33  1  6  0  0  0
 27 28  1  1  0  0  0
 27 35  1  0  0  0  0
 29 30  1  0  0  0  0
 29 37  1  1  0  0  0
 31 32  1  6  0  0  0
 31 39  1  0  0  0  0
 33 34  1  0  0  0  0
 35 36  1  0  0  0  0
 35 41  1  1  0  0  0
 37 38  1  0  0  0  0
 39 40  1  1  0  0  0
 41 42  1  0  0  0  0
M  END
>  <CHROM.1>
-176.96200363,40.35913357,172.15469254,-179.41765286,61.49100486,-179.79520270
178.34417287,166.17865255,65.71085045,7.27427070,3.39838971,2.81091800,1.28159014
0.18997487,2.82587055

>  <Name>
ligand

>  <RI>
0

>  <Rbt.Current_Directory>
/home/itssahil/PROJECTS/Mol_Feturizer/Test_systems_manuscript/rnas/2o3w

>  <Rbt.Executable>
rbdock ($Id: //depot/dev/client3/rdock/2013.1/src/exe/rbdock.cxx#4 $)

>  <Rbt.Library>
libRbt.so (2013.1, Build901 2013/11/27)

>  <Rbt.Parameter_File>
/export/apps/rDock/src/rDock_2013.1_src/data/scripts/dock_solv.prm

>  <Rbt.Receptor>
prm/pocket_docking_8.prm

>  <SCORE>
-14.3962

>  <SCORE.INTER>
-1.07289

>  <SCORE.INTER.CONST>
1

>  <SCORE.INTER.POLAR>
0

>  <SCORE.INTER.ROT>
9

>  <SCORE.INTER.SOLV>
15.8318

>  <SCORE.INTER.VDW>
-15.5925

>  <SCORE.INTER.norm>
-0.025545

>  <SCORE.INTRA>
-13.3234

>  <SCORE.INTRA.DIHEDRAL>
-24.6392

>  <SCORE.INTRA.DIHEDRAL.0>
27.8999

>  <SCORE.INTRA.POLAR>
0

>  <SCORE.INTRA.POLAR.0>
0

>  <SCORE.INTRA.REPUL>
0.00332134

>  <SCORE.INTRA.REPUL.0>
0

>  <SCORE.INTRA.SOLV>
-2.53754

>  <SCORE.INTRA.SOLV.lig_0>
-104.479

>  <SCORE.INTRA.VDW>
0.248387

>  <SCORE.INTRA.VDW.0>
-6.17816

>  <SCORE.INTRA.norm>
-0.317223

>  <SCORE.RESTR>
0

>  <SCORE.RESTR.CAVITY>
0

>  <SCORE.RESTR.norm>
0

>  <SCORE.SYSTEM>
0

>  <SCORE.SYSTEM.CONST>
0

>  <SCORE.SYSTEM.DIHEDRAL>
0

>  <SCORE.SYSTEM.SOLV>
0

>  <SCORE.SYSTEM.norm>
0

>  <SCORE.heavy>
42

>  <SCORE.norm>
-0.342768

>  <RMSD>
2.622

$$$$
ligand
 OpenBabel02271912133D
libRbt.so/2013.1/901 2013/11/27
 42 45  0  0  0  0  0  0  0  0999 V2000
    7.7450   -1.2563    3.5028 C   0  0  2  0  0  0  0  0  0  0  0  0
    8.6215   -0.6785    2.5203 O   0  0  0  0  0  0  0  0  0  0  0  0
   11.2053    1.5679    5.1799 C   0  0  2  0  0  0  0  0  0  0  0  0
   12.3500    2.3526    5.7315 N   0  0  0  0  0  0  0  0  0  0  0  0
    8.7219    3.4731    1.8410 C   0  0  1  0  0  0  0  0  0  0  0  0
    7.0909    7.3160    0.4187 C   0  0  1  0  0  0  0  0  0  0  0  0
    6.6103   -1.9889    2.7256 C   0  0  2  0  0  0  0  0  0  0  0  0
    7.1315   -2.8824    1.6765 N   0  0  0  0  0  0  0  0  0  0  0  0
   11.6506    0.1019    4.7870 C   0  0  0  0  0  0  0  0  0  0  0  0
    8.8064    3.9368    0.3549 C   0  0  2  0  0  0  0  0  0  0  0  0
   10.1002    4.4674   -0.0243 O   0  0  0  0  0  0  0  0  0  0  0  0
    7.5878    8.7622    0.7796 C   0  0  2  0  0  0  0  0  0  0  0  0
    8.0928    8.8177    2.1841 N   0  0  0  0  0  0  0  0  0  0  0  0
    5.6468   -1.0065    2.0348 C   0  0  1  0  0  0  0  0  0  0  0  0
    4.6026   -1.7190    1.3694 O   0  0  0  0  0  0  0  0  0  0  0  0
   10.3996   -0.6806    4.2346 C   0  0  2  0  0  0  0  0  0  0  0  0
   10.7800   -2.0715    3.8680 N   0  0  0  0  0  0  0  0  0  0  0  0
    7.6397    4.9233    0.2848 C   0  0  2  0  0  0  0  0  0  0  0  0
    8.0643    6.2833    0.6180 O   0  0  0  0  0  0  0  0  0  0  0  0
    6.3908    9.8035    0.5568 C   0  0  1  0  0  0  0  0  0  0  0  0
    6.1943    9.9928   -0.8626 O   0  0  0  0  0  0  0  0  0  0  0  0
    5.0793   -0.0197    3.0804 C   0  0  2  0  0  0  0  0  0  0  0  0
    4.1820    0.8763    2.4667 O   0  0  0  0  0  0  0  0  0  0  0  0
    9.7958    0.0539    2.9730 C   0  0  2  0  0  0  0  0  0  0  0  0
    6.5877    4.4081    1.2813 C   0  0  2  0  0  0  0  0  0  0  0  0
    7.3785    3.7736    2.2836 O   0  0  0  0  0  0  0  0  0  0  0  0
    5.0171    9.3252    1.2288 C   0  0  2  0  0  0  0  0  0  0  0  0
    5.1829    9.3944    2.6445 O   0  0  0  0  0  0  0  0  0  0  0  0
    6.2645    0.7547    3.7476 C   0  0  2  0  0  0  0  0  0  0  0  0
    7.1859   -0.1966    4.3688 O   0  0  0  0  0  0  0  0  0  0  0  0
    9.3890    1.5143    3.2681 C   0  0  2  0  0  0  0  0  0  0  0  0
    9.0366    2.0811    1.9761 O   0  0  0  0  0  0  0  0  0  0  0  0
    5.5420    3.4178    0.6811 C   0  0  0  0  0  0  0  0  0  0  0  0
    4.4138    3.3429    1.5473 O   0  0  0  0  0  0  0  0  0  0  0  0
    4.6680    7.8522    0.7921 C   0  0  1  0  0  0  0  0  0  0  0  0
    5.8200    7.0240    1.1885 O   0  0  0  0  0  0  0  0  0  0  0  0
    5.7990    1.7417    4.7931 C   0  0  0  0  0  0  0  0  0  0  0  0
    4.9971    2.7339    4.2002 O   0  0  0  0  0  0  0  0  0  0  0  0
   10.6037    2.3024    3.9153 C   0  0  1  0  0  0  0  0  0  0  0  0
   10.1829    3.6060    4.3267 O   0  0  0  0  0  0  0  0  0  0  0  0
    3.3327    7.2833    1.4418 C   0  0  0  0  0  0  0  0  0  0  0  0
    2.0707    7.9265    0.9832 N   0  0  0  0  0  0  0  0  0  0  0  0
  1  2  1  6  0  0  0
  1  7  1  0  0  0  0
  1 30  1  0  0  0  0
  3  4  1  6  0  0  0
  3  9  1  0  0  0  0
  3 39  1  0  0  0  0
  5 10  1  0  0  0  0
  5 26  1  0  0  0  0
  5 32  1  6  0  0  0
  6 12  1  0  0  0  0
  6 36  1  0  0  0  0
  6 19  1  1  0  0  0
  7  8  1  6  0  0  0
  7 14  1  0  0  0  0
  9 16  1  0  0  0  0
 10 11  1  1  0  0  0
 10 18  1  0  0  0  0
 12 13  1  1  0  0  0
 12 20  1  0  0  0  0
 14 15  1  1  0  0  0
 14 22  1  0  0  0  0
 16 17  1  6  0  0  0
 16 24  1  0  0  0  0
 18 19  1  1  0  0  0
 18 25  1  0  0  0  0
 20 21  1  6  0  0  0
 20 27  1  0  0  0  0
 22 23  1  6  0  0  0
 22 29  1  0  0  0  0
 24  2  1  1  0  0  0
 24 31  1  0  0  0  0
 25 26  1  0  0  0  0
 25 33  1  6  0  0  0
 27 28  1  1  0  0  0
 27 35  1  0  0  0  0
 29 30  1  0  0  0  0
 29 37  1  1  0  0  0
 31 32  1  6  0  0  0
 31 39  1  0  0  0  0
 33 34  1  0  0  0  0
 35 36  1  0  0  0  0
 35 41  1  1  0  0  0
 37 38  1  0  0  0  0
 39 40  1  1  0  0  0
 41 42  1  0  0  0  0
M  END
>  <CHROM.1>
-178.93145938,37.88489148,172.31838009,-179.64881976,-162.05309607,-62.88055048
-174.21343666,162.57848172,68.17152167,7.30018648,3.32126856,2.29929858,1.26010738
0.24435421,2.93253334

>  <Name>
ligand

>  <RI>
0

>  <Rbt.Current_Directory>
/home/itssahil/PROJECTS/Mol_Feturizer/Test_systems_manuscript/rnas/2o3w

>  <Rbt.Executable>
rbdock ($Id: //depot/dev/client3/rdock/2013.1/src/exe/rbdock.cxx#4 $)

>  <Rbt.Library>
libRbt.so (2013.1, Build901 2013/11/27)

>  <Rbt.Parameter_File>
/export/apps/rDock/src/rDock_2013.1_src/data/scripts/dock_solv.prm

>  <Rbt.Receptor>
prm/pocket_docking_3.prm

>  <SCORE>
-12.13

>  <SCORE.INTER>
-0.964159

>  <SCORE.INTER.CONST>
1

>  <SCORE.INTER.POLAR>
0

>  <SCORE.INTER.ROT>
9

>  <SCORE.INTER.SOLV>
15.3345

>  <SCORE.INTER.VDW>
-15.3543

>  <SCORE.INTER.norm>
-0.0229562

>  <SCORE.INTRA>
-11.1659

>  <SCORE.INTRA.DIHEDRAL>
-22.4432

>  <SCORE.INTRA.DIHEDRAL.0>
27.8999

>  <SCORE.INTRA.POLAR>
0

>  <SCORE.INTRA.POLAR.0>
0

>  <SCORE.INTRA.REPUL>
0

>  <SCORE.INTRA.REPUL.0>
0

>  <SCORE.INTRA.SOLV>
-3.1004

>  <SCORE.INTRA.SOLV.lig_0>
-104.479

>  <SCORE.INTRA.VDW>
1.60593

>  <SCORE.INTRA.VDW.0>
-6.17816

>  <SCORE.INTRA.norm>
-0.265854

>  <SCORE.RESTR>
0

>  <SCORE.RESTR.CAVITY>
0

>  <SCORE.RESTR.norm>
0

>  <SCORE.SYSTEM>
0

>  <SCORE.SYSTEM.CONST>
0

>  <SCORE.SYSTEM.DIHEDRAL>
0

>  <SCORE.SYSTEM.SOLV>
0

>  <SCORE.SYSTEM.norm>
0

>  <SCORE.heavy>
42

>  <SCORE.norm>
-0.288811

>  <RMSD>
2.643

$$$$
ligand
 OpenBabel02271912133D
libRbt.so/2013.1/901 2013/11/27
 42 45  0  0  0  0  0  0  0  0999 V2000
    8.1095    0.2769    2.9156 C   0  0  2  0  0  0  0  0  0  0  0  0
    8.2270    0.4979    4.3315 O   0  0  0  0  0  0  0  0  0  0  0  0
   10.9270    2.7989    6.8238 C   0  0  2  0  0  0  0  0  0  0  0  0
   12.1587    3.3990    7.4181 N   0  0  0  0  0  0  0  0  0  0  0  0
    8.5364    3.0809    2.3570 C   0  0  1  0  0  0  0  0  0  0  0  0
    5.4014    5.8807    1.5294 C   0  0  1  0  0  0  0  0  0  0  0  0
    6.6837   -0.2982    2.6616 C   0  0  2  0  0  0  0  0  0  0  0  0
    5.6296    0.5009    3.3104 N   0  0  0  0  0  0  0  0  0  0  0  0
   10.8990    1.2300    7.0235 C   0  0  0  0  0  0  0  0  0  0  0  0
    8.1143    4.5357    2.7259 C   0  0  2  0  0  0  0  0  0  0  0  0
    7.0910    4.6109    3.7488 O   0  0  0  0  0  0  0  0  0  0  0  0
    3.9024    5.4225    1.6387 C   0  0  2  0  0  0  0  0  0  0  0  0
    3.4160    4.8739    0.3374 N   0  0  0  0  0  0  0  0  0  0  0  0
    6.5336   -1.7393    3.1828 C   0  0  1  0  0  0  0  0  0  0  0  0
    5.2268   -2.2391    2.8939 O   0  0  0  0  0  0  0  0  0  0  0  0
    9.5702    0.6596    6.3980 C   0  0  2  0  0  0  0  0  0  0  0  0
    9.5037   -0.8154    6.5811 N   0  0  0  0  0  0  0  0  0  0  0  0
    7.7219    5.0879    1.3547 C   0  0  2  0  0  0  0  0  0  0  0  0
    6.3037    4.8661    1.0711 O   0  0  0  0  0  0  0  0  0  0  0  0
    3.0040    6.6616    2.1126 C   0  0  1  0  0  0  0  0  0  0  0  0
    3.2542    6.9110    3.5141 O   0  0  0  0  0  0  0  0  0  0  0  0
    7.6301   -2.6309    2.5568 C   0  0  2  0  0  0  0  0  0  0  0  0
    7.4961   -3.9576    3.0111 O   0  0  0  0  0  0  0  0  0  0  0  0
    9.4850    1.0071    4.8592 C   0  0  2  0  0  0  0  0  0  0  0  0
    8.6144    4.3625    0.3336 C   0  0  2  0  0  0  0  0  0  0  0  0
    8.8281    3.0904    0.9407 O   0  0  0  0  0  0  0  0  0  0  0  0
    3.2902    7.9951    1.2715 C   0  0  2  0  0  0  0  0  0  0  0  0
    2.7953    7.7853   -0.0504 O   0  0  0  0  0  0  0  0  0  0  0  0
    9.0349   -2.0553    2.9371 C   0  0  2  0  0  0  0  0  0  0  0  0
    9.1459   -0.6757    2.4636 O   0  0  0  0  0  0  0  0  0  0  0  0
    9.5635    2.5245    4.5827 C   0  0  2  0  0  0  0  0  0  0  0  0
    9.6576    2.6449    3.1366 O   0  0  0  0  0  0  0  0  0  0  0  0
    9.9694    5.0711    0.0234 C   0  0  0  0  0  0  0  0  0  0  0  0
    9.7519    6.4744   -0.0874 O   0  0  0  0  0  0  0  0  0  0  0  0
    4.8340    8.3071    1.2327 C   0  0  1  0  0  0  0  0  0  0  0  0
    5.4781    7.1147    0.6552 O   0  0  0  0  0  0  0  0  0  0  0  0
   10.1715   -2.8659    2.3584 C   0  0  0  0  0  0  0  0  0  0  0  0
   10.1983   -4.1470    2.9393 O   0  0  0  0  0  0  0  0  0  0  0  0
   10.8444    3.1446    5.2830 C   0  0  1  0  0  0  0  0  0  0  0  0
   10.8357    4.5691    5.1551 O   0  0  0  0  0  0  0  0  0  0  0  0
    5.2123    9.5998    0.3875 C   0  0  0  0  0  0  0  0  0  0  0  0
    6.6649    9.7922    0.1235 N   0  0  0  0  0  0  0  0  0  0  0  0
  1  2  1  1  0  0  0
  1  7  1  0  0  0  0
  1 30  1  0  0  0  0
  3  4  1  6  0  0  0
  3  9  1  0  0  0  0
  3 39  1  0  0  0  0
  5 10  1  0  0  0  0
  5 26  1  0  0  0  0
  5 32  1  1  0  0  0
  6 12  1  0  0  0  0
  6 36  1  0  0  0  0
  6 19  1  6  0  0  0
  7  8  1  1  0  0  0
  7 14  1  0  0  0  0
  9 16  1  0  0  0  0
 10 11  1  1  0  0  0
 10 18  1  0  0  0  0
 12 13  1  6  0  0  0
 12 20  1  0  0  0  0
 14 15  1  6  0  0  0
 14 22  1  0  0  0  0
 16 17  1  6  0  0  0
 16 24  1  0  0  0  0
 18 19  1  6  0  0  0
 18 25  1  0  0  0  0
 20 21  1  1  0  0  0
 20 27  1  0  0  0  0
 22 23  1  1  0  0  0
 22 29  1  0  0  0  0
 24  2  1  1  0  0  0
 24 31  1  0  0  0  0
 25 26  1  0  0  0  0
 25 33  1  1  0  0  0
 27 28  1  6  0  0  0
 27 35  1  0  0  0  0
 29 30  1  0  0  0  0
 29 37  1  6  0  0  0
 31 32  1  6  0  0  0
 31 39  1  0  0  0  0
 33 34  1  0  0  0  0
 35 36  1  0  0  0  0
 35 41  1  6  0  0  0
 37 38  1  0  0  0  0
 39 40  1  1  0  0  0
 41 42  1  0  0  0  0
M  END
>  <CHROM.1>
178.49842688,-158.97638275,87.82185790,-161.04807930,-41.49415037,-66.16754810
105.50453070,62.77976363,-169.54610297,7.60955041,2.92639223,2.78620222,1.06589297
0.55368792,3.07232251

>  <Name>
ligand

>  <RI>
0

>  <Rbt.Current_Directory>
/home/itssahil/PROJECTS/Mol_Feturizer/Test_systems_manuscript/rnas/2o3w

>  <Rbt.Executable>
rbdock ($Id: //depot/dev/client3/rdock/2013.1/src/exe/rbdock.cxx#4 $)

>  <Rbt.Library>
libRbt.so (2013.1, Build901 2013/11/27)

>  <Rbt.Parameter_File>
/export/apps/rDock/src/rDock_2013.1_src/data/scripts/dock_solv.prm

>  <Rbt.Receptor>
prm/pocket_docking_3.prm

>  <SCORE>
-6.65163

>  <SCORE.INTER>
0.224883

>  <SCORE.INTER.CONST>
1

>  <SCORE.INTER.POLAR>
0

>  <SCORE.INTER.ROT>
9

>  <SCORE.INTER.SOLV>
11.022

>  <SCORE.INTER.VDW>
-13.1241

>  <SCORE.INTER.norm>
0.00535435

>  <SCORE.INTRA>
-6.8782

>  <SCORE.INTRA.DIHEDRAL>
-13.1219

>  <SCORE.INTRA.DIHEDRAL.0>
27.8999

>  <SCORE.INTRA.POLAR>
0

>  <SCORE.INTRA.POLAR.0>
0

>  <SCORE.INTRA.REPUL>
0

>  <SCORE.INTRA.REPUL.0>
0

>  <SCORE.INTRA.SOLV>
-5.1225

>  <SCORE.INTRA.SOLV.lig_0>
-104.479

>  <SCORE.INTRA.VDW>
2.24402

>  <SCORE.INTRA.VDW.0>
-6.17816

>  <SCORE.INTRA.norm>
-0.163767

>  <SCORE.RESTR>
0.00168394

>  <SCORE.RESTR.CAVITY>
0.00168394

>  <SCORE.RESTR.norm>
4.00937e-05

>  <SCORE.SYSTEM>
0

>  <SCORE.SYSTEM.CONST>
0

>  <SCORE.SYSTEM.DIHEDRAL>
0

>  <SCORE.SYSTEM.SOLV>
0

>  <SCORE.SYSTEM.norm>
0

>  <SCORE.heavy>
42

>  <SCORE.norm>
-0.158372

>  <RMSD>
2.660

$$$$
ligand
 OpenBabel02271912133D
libRbt.so/2013.1/901 2013/11/27
 42 45  0  0  0  0  0  0  0  0999 V2000
    7.4490   -0.7553    4.3616 C   0  0  2  0  0  0  0  0  0  0  0  0
    8.3515   -0.4076    3.2977 O   0  0  0  0  0  0  0  0  0  0  0  0
   11.3136    1.7406    5.6231 C   0  0  2  0  0  0  0  0  0  0  0  0
   12.5719    2.4202    6.0532 N   0  0  0  0  0  0  0  0  0  0  0  0
    8.7561    3.5761    2.2125 C   0  0  1  0  0  0  0  0  0  0  0  0
    7.0225    7.2743    0.5750 C   0  0  1  0  0  0  0  0  0  0  0  0
    6.2238   -1.4609    3.7067 C   0  0  2  0  0  0  0  0  0  0  0  0
    6.6208   -2.5349    2.7796 N   0  0  0  0  0  0  0  0  0  0  0  0
   11.5505    0.1961    5.3774 C   0  0  0  0  0  0  0  0  0  0  0  0
    8.7860    3.9197    0.6920 C   0  0  2  0  0  0  0  0  0  0  0  0
   10.0599    4.4307    0.2283 O   0  0  0  0  0  0  0  0  0  0  0  0
    7.5161    8.7504    0.7903 C   0  0  2  0  0  0  0  0  0  0  0  0
    8.1066    8.9222    2.1514 N   0  0  0  0  0  0  0  0  0  0  0  0
    5.3463   -0.4826    2.9042 C   0  0  1  0  0  0  0  0  0  0  0  0
    4.2162   -1.1631    2.3559 O   0  0  0  0  0  0  0  0  0  0  0  0
   10.1871   -0.4675    4.9494 C   0  0  2  0  0  0  0  0  0  0  0  0
   10.3703   -1.9266    4.7235 N   0  0  0  0  0  0  0  0  0  0  0  0
    7.6055    4.8861    0.5827 C   0  0  2  0  0  0  0  0  0  0  0  0
    8.0239    6.2724    0.7917 O   0  0  0  0  0  0  0  0  0  0  0  0
    6.2898    9.7563    0.5638 C   0  0  1  0  0  0  0  0  0  0  0  0
    6.0021    9.8312   -0.8506 O   0  0  0  0  0  0  0  0  0  0  0  0
    4.9126    0.6878    3.8159 C   0  0  2  0  0  0  0  0  0  0  0  0
    4.0944    1.5841    3.1005 O   0  0  0  0  0  0  0  0  0  0  0  0
    9.6283    0.2064    3.6343 C   0  0  2  0  0  0  0  0  0  0  0  0
    6.5932    4.4423    1.6521 C   0  0  2  0  0  0  0  0  0  0  0  0
    7.4242    3.8981    2.6747 O   0  0  0  0  0  0  0  0  0  0  0  0
    4.9691    9.3155    1.3568 C   0  0  2  0  0  0  0  0  0  0  0  0
    5.2216    9.4977    2.7494 O   0  0  0  0  0  0  0  0  0  0  0  0
    6.1892    1.4147    4.3556 C   0  0  2  0  0  0  0  0  0  0  0  0
    7.0260    0.4624    5.0855 O   0  0  0  0  0  0  0  0  0  0  0  0
    9.4246    1.7302    3.7823 C   0  0  2  0  0  0  0  0  0  0  0  0
    9.0922    2.2025    2.4478 O   0  0  0  0  0  0  0  0  0  0  0  0
    5.5407    3.3969    1.1686 C   0  0  0  0  0  0  0  0  0  0  0  0
    4.8153    3.9346    0.0670 O   0  0  0  0  0  0  0  0  0  0  0  0
    4.6187    7.8087    1.0587 C   0  0  1  0  0  0  0  0  0  0  0  0
    5.8072    7.0282    1.4442 O   0  0  0  0  0  0  0  0  0  0  0  0
    5.8570    2.5746    5.2657 C   0  0  0  0  0  0  0  0  0  0  0  0
    5.1044    3.5375    4.5688 O   0  0  0  0  0  0  0  0  0  0  0  0
   10.7569    2.4139    4.3050 C   0  0  1  0  0  0  0  0  0  0  0  0
   10.5244    3.7969    4.5859 O   0  0  0  0  0  0  0  0  0  0  0  0
    3.3364    7.2763    1.8340 C   0  0  0  0  0  0  0  0  0  0  0  0
    2.0497    7.9329    1.4739 N   0  0  0  0  0  0  0  0  0  0  0  0
  1  2  1  6  0  0  0
  1  7  1  0  0  0  0
  1 30  1  0  0  0  0
  3  4  1  6  0  0  0
  3  9  1  0  0  0  0
  3 39  1  0  0  0  0
  5 10  1  0  0  0  0
  5 26  1  0  0  0  0
  5 32  1  6  0  0  0
  6 12  1  0  0  0  0
  6 36  1  0  0  0  0
  6 19  1  1  0  0  0
  7  8  1  6  0  0  0
  7 14  1  0  0  0  0
  9 16  1  0  0  0  0
 10 11  1  1  0  0  0
 10 18  1  0  0  0  0
 12 13  1  1  0  0  0
 12 20  1  0  0  0  0
 14 15  1  1  0  0  0
 14 22  1  0  0  0  0
 16 17  1  6  0  0  0
 16 24  1  0  0  0  0
 18 19  1  1  0  0  0
 18 25  1  0  0  0  0
 20 21  1  6  0  0  0
 20 27  1  0  0  0  0
 22 23  1  6  0  0  0
 22 29  1  0  0  0  0
 24  2  1  1  0  0  0
 24 31  1  0  0  0  0
 25 26  1  0  0  0  0
 25 33  1  6  0  0  0
 27 28  1  1  0  0  0
 27 35  1  0  0  0  0
 29 30  1  0  0  0  0
 29 37  1  1  0  0  0
 31 32  1  6  0  0  0
 31 39  1  0  0  0  0
 33 34  1  0  0  0  0
 35 36  1  0  0  0  0
 35 41  1  1  0  0  0
 37 38  1  0  0  0  0
 39 40  1  1  0  0  0
 41 42  1  0  0  0  0
M  END
>  <CHROM.1>
-176.71752638,38.16300602,173.78927986,-179.20027428,-58.21485110,-60.86208938
176.34638879,165.89358771,64.13290506,7.24117002,3.54413253,2.70421093,1.24043127
0.21804333,2.84239676

>  <Name>
ligand

>  <RI>
0

>  <Rbt.Current_Directory>
/home/itssahil/PROJECTS/Mol_Feturizer/Test_systems_manuscript/rnas/2o3w

>  <Rbt.Executable>
rbdock ($Id: //depot/dev/client3/rdock/2013.1/src/exe/rbdock.cxx#4 $)

>  <Rbt.Library>
libRbt.so (2013.1, Build901 2013/11/27)

>  <Rbt.Parameter_File>
/export/apps/rDock/src/rDock_2013.1_src/data/scripts/dock_solv.prm

>  <Rbt.Receptor>
prm/pocket_docking_3.prm

>  <SCORE>
-13.4052

>  <SCORE.INTER>
-0.857754

>  <SCORE.INTER.CONST>
1

>  <SCORE.INTER.POLAR>
0

>  <SCORE.INTER.ROT>
9

>  <SCORE.INTER.SOLV>
14.6079

>  <SCORE.INTER.VDW>
-15.0411

>  <SCORE.INTER.norm>
-0.0204227

>  <SCORE.INTRA>
-12.5474

>  <SCORE.INTRA.DIHEDRAL>
-24.3412

>  <SCORE.INTRA.DIHEDRAL.0>
27.8999

>  <SCORE.INTRA.POLAR>
0

>  <SCORE.INTRA.POLAR.0>
0

>  <SCORE.INTRA.REPUL>
0

>  <SCORE.INTRA.REPUL.0>
0

>  <SCORE.INTRA.SOLV>
-3.25323

>  <SCORE.INTRA.SOLV.lig_0>
-104.479

>  <SCORE.INTRA.VDW>
1.2498

>  <SCORE.INTRA.VDW.0>
-6.17816

>  <SCORE.INTRA.norm>
-0.298748

>  <SCORE.RESTR>
0

>  <SCORE.RESTR.CAVITY>
0

>  <SCORE.RESTR.norm>
0

>  <SCORE.SYSTEM>
0

>  <SCORE.SYSTEM.CONST>
0

>  <SCORE.SYSTEM.DIHEDRAL>
0

>  <SCORE.SYSTEM.SOLV>
0

>  <SCORE.SYSTEM.norm>
0

>  <SCORE.heavy>
42

>  <SCORE.norm>
-0.31917

>  <RMSD>
2.663

$$$$
ligand
 OpenBabel02271912133D
libRbt.so/2013.1/901 2013/11/27
 42 45  0  0  0  0  0  0  0  0999 V2000
    7.9399   -1.5784    5.4929 C   0  0  2  0  0  0  0  0  0  0  0  0
    7.8389   -0.1668    5.2391 O   0  0  0  0  0  0  0  0  0  0  0  0
   10.5133    2.6647    7.1434 C   0  0  2  0  0  0  0  0  0  0  0  0
   11.6662    3.5710    7.4259 N   0  0  0  0  0  0  0  0  0  0  0  0
    7.0537    3.2981    3.7895 C   0  0  1  0  0  0  0  0  0  0  0  0
    5.7939    6.7498    2.2835 C   0  0  1  0  0  0  0  0  0  0  0  0
    8.7861   -2.1895    4.3358 C   0  0  2  0  0  0  0  0  0  0  0  0
   10.0412   -1.4531    4.1056 N   0  0  0  0  0  0  0  0  0  0  0  0
   10.9764    1.1543    7.0650 C   0  0  0  0  0  0  0  0  0  0  0  0
    7.3704    4.2371    2.5859 C   0  0  2  0  0  0  0  0  0  0  0  0
    7.9681    5.5010    2.9658 O   0  0  0  0  0  0  0  0  0  0  0  0
    4.9965    7.9057    2.9885 C   0  0  2  0  0  0  0  0  0  0  0  0
    3.5763    7.9328    2.5267 N   0  0  0  0  0  0  0  0  0  0  0  0
    8.0246   -2.1999    2.9976 C   0  0  1  0  0  0  0  0  0  0  0  0
    8.8212   -2.8033    1.9767 O   0  0  0  0  0  0  0  0  0  0  0  0
    9.7174    0.2483    6.7882 C   0  0  2  0  0  0  0  0  0  0  0  0
   10.1150   -1.1840    6.7225 N   0  0  0  0  0  0  0  0  0  0  0  0
    6.0005    4.3284    1.9119 C   0  0  2  0  0  0  0  0  0  0  0  0
    5.2165    5.4471    2.4361 O   0  0  0  0  0  0  0  0  0  0  0  0
    5.7233    9.3035    2.6969 C   0  0  1  0  0  0  0  0  0  0  0  0
    6.9361    9.3717    3.4801 O   0  0  0  0  0  0  0  0  0  0  0  0
    6.6795   -2.9403    3.1754 C   0  0  2  0  0  0  0  0  0  0  0  0
    5.9774   -2.9732    1.9546 O   0  0  0  0  0  0  0  0  0  0  0  0
    9.0168    0.6665    5.4354 C   0  0  2  0  0  0  0  0  0  0  0  0
    5.3037    2.9844    2.1827 C   0  0  2  0  0  0  0  0  0  0  0  0
    5.8380    2.5945    3.4457 O   0  0  0  0  0  0  0  0  0  0  0  0
    6.0736    9.5110    1.1472 C   0  0  2  0  0  0  0  0  0  0  0  0
    4.8428    9.6889    0.4472 O   0  0  0  0  0  0  0  0  0  0  0  0
    5.8386   -2.2138    4.2775 C   0  0  2  0  0  0  0  0  0  0  0  0
    6.5918   -2.1841    5.5312 O   0  0  0  0  0  0  0  0  0  0  0  0
    8.5864    2.1496    5.4175 C   0  0  2  0  0  0  0  0  0  0  0  0
    8.1398    2.4013    4.0568 O   0  0  0  0  0  0  0  0  0  0  0  0
    5.5529    1.8848    1.1043 C   0  0  0  0  0  0  0  0  0  0  0  0
    5.2677    2.4177   -0.1855 O   0  0  0  0  0  0  0  0  0  0  0  0
    6.8477    8.2615    0.5801 C   0  0  1  0  0  0  0  0  0  0  0  0
    5.9779    7.0973    0.8212 O   0  0  0  0  0  0  0  0  0  0  0  0
    4.5034   -2.8779    4.5224 C   0  0  0  0  0  0  0  0  0  0  0  0
    3.6122   -2.5749    3.4769 O   0  0  0  0  0  0  0  0  0  0  0  0
    9.8148    3.0822    5.7876 C   0  0  1  0  0  0  0  0  0  0  0  0
    9.3822    4.4391    5.9192 O   0  0  0  0  0  0  0  0  0  0  0  0
    7.2068    8.3688   -0.9653 C   0  0  0  0  0  0  0  0  0  0  0  0
    6.0974    8.8137   -1.8530 N   0  0  0  0  0  0  0  0  0  0  0  0
  1  2  1  6  0  0  0
  1  7  1  0  0  0  0
  1 30  1  0  0  0  0
  3  4  1  6  0  0  0
  3  9  1  0  0  0  0
  3 39  1  0  0  0  0
  5 10  1  0  0  0  0
  5 26  1  0  0  0  0
  5 32  1  6  0  0  0
  6 12  1  0  0  0  0
  6 36  1  0  0  0  0
  6 19  1  6  0  0  0
  7  8  1  6  0  0  0
  7 14  1  0  0  0  0
  9 16  1  0  0  0  0
 10 11  1  1  0  0  0
 10 18  1  0  0  0  0
 12 13  1  6  0  0  0
 12 20  1  0  0  0  0
 14 15  1  6  0  0  0
 14 22  1  0  0  0  0
 16 17  1  6  0  0  0
 16 24  1  0  0  0  0
 18 19  1  1  0  0  0
 18 25  1  0  0  0  0
 20 21  1  1  0  0  0
 20 27  1  0  0  0  0
 22 23  1  6  0  0  0
 22 29  1  0  0  0  0
 24  2  1  1  0  0  0
 24 31  1  0  0  0  0
 25 26  1  0  0  0  0
 25 33  1  6  0  0  0
 27 28  1  6  0  0  0
 27 35  1  0  0  0  0
 29 30  1  0  0  0  0
 29 37  1  1  0  0  0
 31 32  1  6  0  0  0
 31 39  1  0  0  0  0
 33 34  1  0  0  0  0
 35 36  1  0  0  0  0
 35 41  1  6  0  0  0
 37 38  1  0  0  0  0
 39 40  1  1  0  0  0
 41 42  1  0  0  0  0
M  END
>  <CHROM.1>
-72.27421106,-43.93044183,59.64278573,-173.95406485,-51.30448794,-75.58854160
145.15674828,136.18359975,-46.78204120,7.16251663,2.82161311,3.37943150,-1.29957769
-0.78639821,-0.14106968

>  <Name>
ligand

>  <RI>
0

>  <Rbt.Current_Directory>
/home/itssahil/PROJECTS/Mol_Feturizer/Test_systems_manuscript/rnas/2o3w

>  <Rbt.Executable>
rbdock ($Id: //depot/dev/client3/rdock/2013.1/src/exe/rbdock.cxx#4 $)

>  <Rbt.Library>
libRbt.so (2013.1, Build901 2013/11/27)

>  <Rbt.Parameter_File>
/export/apps/rDock/src/rDock_2013.1_src/data/scripts/dock_solv.prm

>  <Rbt.Receptor>
prm/pocket_docking_2.prm

>  <SCORE>
7.23464

>  <SCORE.INTER>
4.58265

>  <SCORE.INTER.CONST>
1

>  <SCORE.INTER.POLAR>
0

>  <SCORE.INTER.ROT>
9

>  <SCORE.INTER.SOLV>
11.1799

>  <SCORE.INTER.VDW>
-10.2715

>  <SCORE.INTER.norm>
0.109111

>  <SCORE.INTRA>
1.37373

>  <SCORE.INTRA.DIHEDRAL>
-13.5009

>  <SCORE.INTRA.DIHEDRAL.0>
27.8999

>  <SCORE.INTRA.POLAR>
0

>  <SCORE.INTRA.POLAR.0>
0

>  <SCORE.INTRA.REPUL>
0.060377

>  <SCORE.INTRA.REPUL.0>
0

>  <SCORE.INTRA.SOLV>
2.17109

>  <SCORE.INTRA.SOLV.lig_0>
-104.479

>  <SCORE.INTRA.VDW>
6.73675

>  <SCORE.INTRA.VDW.0>
-6.17816

>  <SCORE.INTRA.norm>
0.032708

>  <SCORE.RESTR>
1.27826

>  <SCORE.RESTR.CAVITY>
1.27826

>  <SCORE.RESTR.norm>
0.0304347

>  <SCORE.SYSTEM>
0

>  <SCORE.SYSTEM.CONST>
0

>  <SCORE.SYSTEM.DIHEDRAL>
0

>  <SCORE.SYSTEM.SOLV>
0

>  <SCORE.SYSTEM.norm>
0

>  <SCORE.heavy>
42

>  <SCORE.norm>
0.172253

>  <RMSD>
2.678

$$$$
ligand
 OpenBabel02271912133D
libRbt.so/2013.1/901 2013/11/27
 42 45  0  0  0  0  0  0  0  0999 V2000
    8.4205   -0.1446    5.2104 C   0  0  2  0  0  0  0  0  0  0  0  0
    9.5841   -0.0586    4.3701 O   0  0  0  0  0  0  0  0  0  0  0  0
   11.4843    3.2837    6.3737 C   0  0  2  0  0  0  0  0  0  0  0  0
   12.4280    4.3852    6.7294 N   0  0  0  0  0  0  0  0  0  0  0  0
    8.4553    3.1203    2.5681 C   0  0  1  0  0  0  0  0  0  0  0  0
    5.5453    6.2236    1.3754 C   0  0  1  0  0  0  0  0  0  0  0  0
    8.1769   -1.6568    5.4968 C   0  0  2  0  0  0  0  0  0  0  0  0
    9.3947   -2.3469    5.9566 N   0  0  0  0  0  0  0  0  0  0  0  0
   12.1880    1.8706    6.4727 C   0  0  0  0  0  0  0  0  0  0  0  0
    8.1049    4.3557    3.4523 C   0  0  2  0  0  0  0  0  0  0  0  0
    7.1837    4.0653    4.5321 O   0  0  0  0  0  0  0  0  0  0  0  0
    6.0520    7.6857    1.6483 C   0  0  2  0  0  0  0  0  0  0  0  0
    5.8884    8.0468    3.0883 N   0  0  0  0  0  0  0  0  0  0  0  0
    7.6794   -2.4146    4.2521 C   0  0  1  0  0  0  0  0  0  0  0  0
    7.4319   -3.7851    4.5701 O   0  0  0  0  0  0  0  0  0  0  0  0
   11.1398    0.7519    6.1090 C   0  0  2  0  0  0  0  0  0  0  0  0
   11.7652   -0.5945    6.2062 N   0  0  0  0  0  0  0  0  0  0  0  0
    7.5997    5.3419    2.3980 C   0  0  2  0  0  0  0  0  0  0  0  0
    6.1563    5.2177    2.1930 O   0  0  0  0  0  0  0  0  0  0  0  0
    5.2548    8.7062    0.7049 C   0  0  1  0  0  0  0  0  0  0  0  0
    5.7359    8.5626   -0.6504 O   0  0  0  0  0  0  0  0  0  0  0  0
    6.4105   -1.7248    3.7015 C   0  0  2  0  0  0  0  0  0  0  0  0
    5.9327   -2.4165    2.5712 O   0  0  0  0  0  0  0  0  0  0  0  0
   10.5758    0.9704    4.6496 C   0  0  2  0  0  0  0  0  0  0  0  0
    8.3752    5.0199    1.1094 C   0  0  2  0  0  0  0  0  0  0  0  0
    8.6138    3.6187    1.2199 O   0  0  0  0  0  0  0  0  0  0  0  0
    3.6696    8.4752    0.7382 C   0  0  2  0  0  0  0  0  0  0  0  0
    3.2035    8.8703    2.0278 O   0  0  0  0  0  0  0  0  0  0  0  0
    6.7525   -0.2413    3.3384 C   0  0  2  0  0  0  0  0  0  0  0  0
    7.2548    0.4522    4.5244 O   0  0  0  0  0  0  0  0  0  0  0  0
    9.9217    2.3568    4.4616 C   0  0  2  0  0  0  0  0  0  0  0  0
    9.6335    2.4536    3.0396 O   0  0  0  0  0  0  0  0  0  0  0  0
    9.7121    5.8046    0.9324 C   0  0  0  0  0  0  0  0  0  0  0  0
   10.5785    5.5101    2.0240 O   0  0  0  0  0  0  0  0  0  0  0  0
    3.3227    6.9614    0.4733 C   0  0  1  0  0  0  0  0  0  0  0  0
    4.0370    6.1912    1.5062 O   0  0  0  0  0  0  0  0  0  0  0  0
    5.5613    0.5139    2.7956 C   0  0  0  0  0  0  0  0  0  0  0  0
    4.6305    0.7544    3.8228 O   0  0  0  0  0  0  0  0  0  0  0  0
   10.9229    3.5017    4.9115 C   0  0  1  0  0  0  0  0  0  0  0  0
   10.2660    4.7718    4.8809 O   0  0  0  0  0  0  0  0  0  0  0  0
    1.7671    6.6352    0.5220 C   0  0  0  0  0  0  0  0  0  0  0  0
    0.9142    7.4350   -0.3997 N   0  0  0  0  0  0  0  0  0  0  0  0
  1  2  1  6  0  0  0
  1  7  1  0  0  0  0
  1 30  1  0  0  0  0
  3  4  1  6  0  0  0
  3  9  1  0  0  0  0
  3 39  1  0  0  0  0
  5 10  1  0  0  0  0
  5 26  1  0  0  0  0
  5 32  1  1  0  0  0
  6 12  1  0  0  0  0
  6 36  1  0  0  0  0
  6 19  1  1  0  0  0
  7  8  1  6  0  0  0
  7 14  1  0  0  0  0
  9 16  1  0  0  0  0
 10 11  1  1  0  0  0
 10 18  1  0  0  0  0
 12 13  1  1  0  0  0
 12 20  1  0  0  0  0
 14 15  1  1  0  0  0
 14 22  1  0  0  0  0
 16 17  1  6  0  0  0
 16 24  1  0  0  0  0
 18 19  1  6  0  0  0
 18 25  1  0  0  0  0
 20 21  1  6  0  0  0
 20 27  1  0  0  0  0
 22 23  1  6  0  0  0
 22 29  1  0  0  0  0
 24  2  1  1  0  0  0
 24 31  1  0  0  0  0
 25 26  1  0  0  0  0
 25 33  1  1  0  0  0
 27 28  1  1  0  0  0
 27 35  1  0  0  0  0
 29 30  1  0  0  0  0
 29 37  1  1  0  0  0
 31 32  1  6  0  0  0
 31 39  1  0  0  0  0
 33 34  1  0  0  0  0
 35 36  1  0  0  0  0
 35 41  1  1  0  0  0
 37 38  1  0  0  0  0
 39 40  1  1  0  0  0
 41 42  1  0  0  0  0
M  END
>  <CHROM.1>
-137.33319070,60.02282386,171.07957265,-42.13189274,59.73342797,70.82552143
144.15551271,35.82853470,55.92690236,7.53911611,3.24839702,3.21777894,1.01285520
0.40333772,2.89803384

>  <Name>
ligand

>  <RI>
0

>  <Rbt.Current_Directory>
/home/itssahil/PROJECTS/Mol_Feturizer/Test_systems_manuscript/rnas/2o3w

>  <Rbt.Executable>
rbdock ($Id: //depot/dev/client3/rdock/2013.1/src/exe/rbdock.cxx#4 $)

>  <Rbt.Library>
libRbt.so (2013.1, Build901 2013/11/27)

>  <Rbt.Parameter_File>
/export/apps/rDock/src/rDock_2013.1_src/data/scripts/dock_solv.prm

>  <Rbt.Receptor>
prm/pocket_docking_2.prm

>  <SCORE>
0.093386

>  <SCORE.INTER>
2.71944

>  <SCORE.INTER.CONST>
1

>  <SCORE.INTER.POLAR>
0

>  <SCORE.INTER.ROT>
9

>  <SCORE.INTER.SOLV>
7.89829

>  <SCORE.INTER.VDW>
-10.4198

>  <SCORE.INTER.norm>
0.0647485

>  <SCORE.INTRA>
-3.63744

>  <SCORE.INTRA.DIHEDRAL>
-12.4335

>  <SCORE.INTRA.DIHEDRAL.0>
27.8999

>  <SCORE.INTRA.POLAR>
0

>  <SCORE.INTRA.POLAR.0>
0

>  <SCORE.INTRA.REPUL>
0

>  <SCORE.INTRA.REPUL.0>
0

>  <SCORE.INTRA.SOLV>
0.260432

>  <SCORE.INTRA.SOLV.lig_0>
-104.479

>  <SCORE.INTRA.VDW>
2.44911

>  <SCORE.INTRA.VDW.0>
-6.17816

>  <SCORE.INTRA.norm>
-0.0866057

>  <SCORE.RESTR>
1.01139

>  <SCORE.RESTR.CAVITY>
1.01139

>  <SCORE.RESTR.norm>
0.0240806

>  <SCORE.SYSTEM>
0

>  <SCORE.SYSTEM.CONST>
0

>  <SCORE.SYSTEM.DIHEDRAL>
0

>  <SCORE.SYSTEM.SOLV>
0

>  <SCORE.SYSTEM.norm>
0

>  <SCORE.heavy>
42

>  <SCORE.norm>
0.00222348

>  <RMSD>
2.681

$$$$
ligand
 OpenBabel02271912133D
libRbt.so/2013.1/901 2013/11/27
 42 45  0  0  0  0  0  0  0  0999 V2000
    6.9396    1.8901    3.6053 C   0  0  2  0  0  0  0  0  0  0  0  0
    7.7176    1.9207    4.8141 O   0  0  0  0  0  0  0  0  0  0  0  0
   11.8337    2.8382    5.8201 C   0  0  2  0  0  0  0  0  0  0  0  0
   13.3242    2.9273    5.7910 N   0  0  0  0  0  0  0  0  0  0  0  0
    7.9350    4.4485    2.9527 C   0  0  1  0  0  0  0  0  0  0  0  0
    4.9855    7.4539    1.9632 C   0  0  1  0  0  0  0  0  0  0  0  0
    5.4401    1.9134    4.0285 C   0  0  2  0  0  0  0  0  0  0  0  0
    5.1438    2.9847    4.9955 N   0  0  0  0  0  0  0  0  0  0  0  0
   11.3513    1.3415    5.9902 C   0  0  0  0  0  0  0  0  0  0  0  0
    8.0587    5.8868    3.5416 C   0  0  2  0  0  0  0  0  0  0  0  0
    7.6186    6.0002    4.9173 O   0  0  0  0  0  0  0  0  0  0  0  0
    3.6627    8.0263    2.5888 C   0  0  2  0  0  0  0  0  0  0  0  0
    2.8964    6.9531    3.2902 N   0  0  0  0  0  0  0  0  0  0  0  0
    4.9963    0.5908    4.6801 C   0  0  1  0  0  0  0  0  0  0  0  0
    3.6085    0.6425    5.0150 O   0  0  0  0  0  0  0  0  0  0  0  0
    9.7766    1.3149    6.0364 C   0  0  2  0  0  0  0  0  0  0  0  0
    9.2875   -0.0794    6.2107 N   0  0  0  0  0  0  0  0  0  0  0  0
    7.2566    6.6956    2.5209 C   0  0  2  0  0  0  0  0  0  0  0  0
    5.8445    6.7833    2.8939 O   0  0  0  0  0  0  0  0  0  0  0  0
    2.7811    8.7021    1.4343 C   0  0  1  0  0  0  0  0  0  0  0  0
    3.3946    9.9531    1.0498 O   0  0  0  0  0  0  0  0  0  0  0  0
    5.3025   -0.5838    3.7231 C   0  0  2  0  0  0  0  0  0  0  0  0
    4.8866   -1.8006    4.2982 O   0  0  0  0  0  0  0  0  0  0  0  0
    9.1701    1.9279    4.7127 C   0  0  2  0  0  0  0  0  0  0  0  0
    7.4335    5.9742    1.1742 C   0  0  2  0  0  0  0  0  0  0  0  0
    7.5869    4.6100    1.5585 O   0  0  0  0  0  0  0  0  0  0  0  0
    2.6213    7.7649    0.1445 C   0  0  2  0  0  0  0  0  0  0  0  0
    1.7942    6.6620    0.5131 O   0  0  0  0  0  0  0  0  0  0  0  0
    6.8383   -0.6104    3.4226 C   0  0  2  0  0  0  0  0  0  0  0  0
    7.2469    0.6657    2.8358 O   0  0  0  0  0  0  0  0  0  0  0  0
    9.6441    3.3742    4.4505 C   0  0  2  0  0  0  0  0  0  0  0  0
    9.1482    3.7042    3.1240 O   0  0  0  0  0  0  0  0  0  0  0  0
    8.6485    6.4577    0.3232 C   0  0  0  0  0  0  0  0  0  0  0  0
    9.8506    6.2477    1.0578 O   0  0  0  0  0  0  0  0  0  0  0  0
    4.0273    7.2516   -0.3473 C   0  0  1  0  0  0  0  0  0  0  0  0
    4.6315    6.5518    0.7997 O   0  0  0  0  0  0  0  0  0  0  0  0
    7.2280   -1.7294    2.4847 C   0  0  0  0  0  0  0  0  0  0  0  0
    6.5756   -1.5748    1.2479 O   0  0  0  0  0  0  0  0  0  0  0  0
   11.2279    3.4491    4.4933 C   0  0  1  0  0  0  0  0  0  0  0  0
   11.6602    4.8094    4.4019 O   0  0  0  0  0  0  0  0  0  0  0  0
    3.9590    6.2842   -1.6075 C   0  0  0  0  0  0  0  0  0  0  0  0
    3.2576    4.9897   -1.3862 N   0  0  0  0  0  0  0  0  0  0  0  0
  1  2  1  1  0  0  0
  1  7  1  0  0  0  0
  1 30  1  0  0  0  0
  3  4  1  6  0  0  0
  3  9  1  0  0  0  0
  3 39  1  0  0  0  0
  5 10  1  0  0  0  0
  5 26  1  0  0  0  0
  5 32  1  6  0  0  0
  6 12  1  0  0  0  0
  6 36  1  0  0  0  0
  6 19  1  1  0  0  0
  7  8  1  1  0  0  0
  7 14  1  0  0  0  0
  9 16  1  0  0  0  0
 10 11  1  1  0  0  0
 10 18  1  0  0  0  0
 12 13  1  6  0  0  0
 12 20  1  0  0  0  0
 14 15  1  6  0  0  0
 14 22  1  0  0  0  0
 16 17  1  6  0  0  0
 16 24  1  0  0  0  0
 18 19  1  1  0  0  0
 18 25  1  0  0  0  0
 20 21  1  6  0  0  0
 20 27  1  0  0  0  0
 22 23  1  1  0  0  0
 22 29  1  0  0  0  0
 24  2  1  1  0  0  0
 24 31  1  0  0  0  0
 25 26  1  0  0  0  0
 25 33  1  1  0  0  0
 27 28  1  1  0  0  0
 27 35  1  0  0  0  0
 29 30  1  0  0  0  0
 29 37  1  6  0  0  0
 31 32  1  6  0  0  0
 31 39  1  0  0  0  0
 33 34  1  0  0  0  0
 35 36  1  0  0  0  0
 35 41  1  6  0  0  0
 37 38  1  0  0  0  0
 39 40  1  1  0  0  0
 41 42  1  0  0  0  0
M  END
>  <CHROM.1>
-179.08027076,-154.45716738,-176.43717957,-157.19253227,60.24599224,60.94641823
97.74340098,63.85286407,-64.15277496,6.81004488,3.89046636,2.97151918,0.92230169
0.35538094,2.85434414

>  <Name>
ligand

>  <RI>
0

>  <Rbt.Current_Directory>
/home/itssahil/PROJECTS/Mol_Feturizer/Test_systems_manuscript/rnas/2o3w

>  <Rbt.Executable>
rbdock ($Id: //depot/dev/client3/rdock/2013.1/src/exe/rbdock.cxx#4 $)

>  <Rbt.Library>
libRbt.so (2013.1, Build901 2013/11/27)

>  <Rbt.Parameter_File>
/export/apps/rDock/src/rDock_2013.1_src/data/scripts/dock_solv.prm

>  <Rbt.Receptor>
prm/pocket_docking_3.prm

>  <SCORE>
-6.97379

>  <SCORE.INTER>
0.943433

>  <SCORE.INTER.CONST>
1

>  <SCORE.INTER.POLAR>
0

>  <SCORE.INTER.ROT>
9

>  <SCORE.INTER.SOLV>
13.3317

>  <SCORE.INTER.VDW>
-13.4149

>  <SCORE.INTER.norm>
0.0224627

>  <SCORE.INTRA>
-7.92847

>  <SCORE.INTRA.DIHEDRAL>
-17.5485

>  <SCORE.INTRA.DIHEDRAL.0>
27.8999

>  <SCORE.INTRA.POLAR>
0

>  <SCORE.INTRA.POLAR.0>
0

>  <SCORE.INTRA.REPUL>
0

>  <SCORE.INTRA.REPUL.0>
0

>  <SCORE.INTRA.SOLV>
-2.11677

>  <SCORE.INTRA.SOLV.lig_0>
-104.479

>  <SCORE.INTRA.VDW>
1.90416

>  <SCORE.INTRA.VDW.0>
-6.17816

>  <SCORE.INTRA.norm>
-0.188773

>  <SCORE.RESTR>
0.0112485

>  <SCORE.RESTR.CAVITY>
0.0112485

>  <SCORE.RESTR.norm>
0.000267821

>  <SCORE.SYSTEM>
0

>  <SCORE.SYSTEM.CONST>
0

>  <SCORE.SYSTEM.DIHEDRAL>
0

>  <SCORE.SYSTEM.SOLV>
0

>  <SCORE.SYSTEM.norm>
0

>  <SCORE.heavy>
42

>  <SCORE.norm>
-0.166043

>  <RMSD>
2.706

$$$$
ligand
 OpenBabel02271912133D
libRbt.so/2013.1/901 2013/11/27
 42 45  0  0  0  0  0  0  0  0999 V2000
    6.6278   -0.9689    4.3414 C   0  0  2  0  0  0  0  0  0  0  0  0
    7.5758   -0.7017    3.2939 O   0  0  0  0  0  0  0  0  0  0  0  0
   10.6577    1.1942    5.6821 C   0  0  2  0  0  0  0  0  0  0  0  0
   11.9562    1.7765    6.1350 N   0  0  0  0  0  0  0  0  0  0  0  0
    8.2905    3.2639    2.2775 C   0  0  1  0  0  0  0  0  0  0  0  0
    6.8728    7.1202    0.6423 C   0  0  1  0  0  0  0  0  0  0  0  0
    5.3782   -1.6144    3.6705 C   0  0  2  0  0  0  0  0  0  0  0  0
    5.7317   -2.7320    2.7780 N   0  0  0  0  0  0  0  0  0  0  0  0
   10.7881   -0.3588    5.4120 C   0  0  0  0  0  0  0  0  0  0  0  0
    8.3032    3.6147    0.7585 C   0  0  2  0  0  0  0  0  0  0  0  0
    9.6032    4.0101    0.2558 O   0  0  0  0  0  0  0  0  0  0  0  0
    7.4811    8.5399    0.9308 C   0  0  2  0  0  0  0  0  0  0  0  0
    7.9935    8.6262    2.3311 N   0  0  0  0  0  0  0  0  0  0  0  0
    4.5821   -0.6040    2.8241 C   0  0  1  0  0  0  0  0  0  0  0  0
    3.4265   -1.2277    2.2617 O   0  0  0  0  0  0  0  0  0  0  0  0
    9.3859   -0.9178    4.9606 C   0  0  2  0  0  0  0  0  0  0  0  0
    9.4685   -2.3822    4.7114 N   0  0  0  0  0  0  0  0  0  0  0  0
    7.2136    4.6860    0.6920 C   0  0  2  0  0  0  0  0  0  0  0  0
    7.7641    6.0266    0.8935 O   0  0  0  0  0  0  0  0  0  0  0  0
    6.3672    9.6582    0.6557 C   0  0  1  0  0  0  0  0  0  0  0  0
    6.1812    9.7912   -0.7714 O   0  0  0  0  0  0  0  0  0  0  0  0
    4.1984    0.6117    3.6982 C   0  0  2  0  0  0  0  0  0  0  0  0
    3.4544    1.5386    2.9422 O   0  0  0  0  0  0  0  0  0  0  0  0
    8.8890   -0.1846    3.6524 C   0  0  2  0  0  0  0  0  0  0  0  0
    6.1995    4.3290    1.7918 C   0  0  2  0  0  0  0  0  0  0  0  0
    7.0094    3.7032    2.7843 O   0  0  0  0  0  0  0  0  0  0  0  0
    4.9630    9.3215    1.3501 C   0  0  2  0  0  0  0  0  0  0  0  0
    5.1385    9.4482    2.7606 O   0  0  0  0  0  0  0  0  0  0  0  0
    5.5034    1.2726    4.2548 C   0  0  2  0  0  0  0  0  0  0  0  0
    6.2622    0.2889    5.0270 O   0  0  0  0  0  0  0  0  0  0  0  0
    8.7913    1.3471    3.8246 C   0  0  2  0  0  0  0  0  0  0  0  0
    8.5064    1.8635    2.4955 O   0  0  0  0  0  0  0  0  0  0  0  0
    5.0406    3.3881    1.3380 C   0  0  0  0  0  0  0  0  0  0  0  0
    4.3300    4.0003    0.2660 O   0  0  0  0  0  0  0  0  0  0  0  0
    4.4997    7.8600    0.9874 C   0  0  1  0  0  0  0  0  0  0  0  0
    5.5857    6.9660    1.4251 O   0  0  0  0  0  0  0  0  0  0  0  0
    5.2202    2.4715    5.1301 C   0  0  0  0  0  0  0  0  0  0  0  0
    6.4262    3.0350    5.5855 O   0  0  0  0  0  0  0  0  0  0  0  0
   10.1629    1.9266    4.3709 C   0  0  1  0  0  0  0  0  0  0  0  0
   10.0252    3.3178    4.6733 O   0  0  0  0  0  0  0  0  0  0  0  0
    3.1267    7.4292    1.6640 C   0  0  0  0  0  0  0  0  0  0  0  0
    3.1666    7.2526    3.1418 N   0  0  0  0  0  0  0  0  0  0  0  0
  1  2  1  6  0  0  0
  1  7  1  0  0  0  0
  1 30  1  0  0  0  0
  3  4  1  6  0  0  0
  3  9  1  0  0  0  0
  3 39  1  0  0  0  0
  5 10  1  0  0  0  0
  5 26  1  0  0  0  0
  5 32  1  6  0  0  0
  6 12  1  0  0  0  0
  6 36  1  0  0  0  0
  6 19  1  1  0  0  0
  7  8  1  6  0  0  0
  7 14  1  0  0  0  0
  9 16  1  0  0  0  0
 10 11  1  1  0  0  0
 10 18  1  0  0  0  0
 12 13  1  1  0  0  0
 12 20  1  0  0  0  0
 14 15  1  1  0  0  0
 14 22  1  0  0  0  0
 16 17  1  6  0  0  0
 16 24  1  0  0  0  0
 18 19  1  1  0  0  0
 18 25  1  0  0  0  0
 20 21  1  6  0  0  0
 20 27  1  0  0  0  0
 22 23  1  6  0  0  0
 22 29  1  0  0  0  0
 24  2  1  1  0  0  0
 24 31  1  0  0  0  0
 25 26  1  0  0  0  0
 25 33  1  6  0  0  0
 27 28  1  1  0  0  0
 27 35  1  0  0  0  0
 29 30  1  0  0  0  0
 29 37  1  1  0  0  0
 31 32  1  6  0  0  0
 31 39  1  0  0  0  0
 33 34  1  0  0  0  0
 35 36  1  0  0  0  0
 35 41  1  1  0  0  0
 37 38  1  0  0  0  0
 39 40  1  1  0  0  0
 41 42  1  0  0  0  0
M  END
>  <CHROM.1>
-175.44487831,39.79604625,170.46928068,177.42496878,-58.40044514,-179.17392366
177.33195419,168.02110279,-68.49138022,6.83804638,3.30887662,2.79243803,1.34261003
0.23943310,2.84552614

>  <Name>
ligand

>  <RI>
0

>  <Rbt.Current_Directory>
/home/itssahil/PROJECTS/Mol_Feturizer/Test_systems_manuscript/rnas/2o3w

>  <Rbt.Executable>
rbdock ($Id: //depot/dev/client3/rdock/2013.1/src/exe/rbdock.cxx#4 $)

>  <Rbt.Library>
libRbt.so (2013.1, Build901 2013/11/27)

>  <Rbt.Parameter_File>
/export/apps/rDock/src/rDock_2013.1_src/data/scripts/dock_solv.prm

>  <Rbt.Receptor>
prm/pocket_docking_3.prm

>  <SCORE>
-13.0047

>  <SCORE.INTER>
-0.486258

>  <SCORE.INTER.CONST>
1

>  <SCORE.INTER.POLAR>
0

>  <SCORE.INTER.ROT>
9

>  <SCORE.INTER.SOLV>
12.6828

>  <SCORE.INTER.VDW>
-14.1518

>  <SCORE.INTER.norm>
-0.0115776

>  <SCORE.INTRA>
-12.5195

>  <SCORE.INTRA.DIHEDRAL>
-24.3779

>  <SCORE.INTRA.DIHEDRAL.0>
27.8999

>  <SCORE.INTRA.POLAR>
0

>  <SCORE.INTRA.POLAR.0>
0

>  <SCORE.INTRA.REPUL>
0

>  <SCORE.INTRA.REPUL.0>
0

>  <SCORE.INTRA.SOLV>
-1.70954

>  <SCORE.INTRA.SOLV.lig_0>
-104.479

>  <SCORE.INTRA.VDW>
0.524226

>  <SCORE.INTRA.VDW.0>
-6.17816

>  <SCORE.INTRA.norm>
-0.298084

>  <SCORE.RESTR>
0.00111133

>  <SCORE.RESTR.CAVITY>
0.00111133

>  <SCORE.RESTR.norm>
2.64602e-05

>  <SCORE.SYSTEM>
0

>  <SCORE.SYSTEM.CONST>
0

>  <SCORE.SYSTEM.DIHEDRAL>
0

>  <SCORE.SYSTEM.SOLV>
0

>  <SCORE.SYSTEM.norm>
0

>  <SCORE.heavy>
42

>  <SCORE.norm>
-0.309635

>  <RMSD>
2.734

$$$$
ligand
 OpenBabel02271912133D
libRbt.so/2013.1/901 2013/11/27
 42 45  0  0  0  0  0  0  0  0999 V2000
    7.6410   -0.3242    5.1528 C   0  0  2  0  0  0  0  0  0  0  0  0
    8.6877   -0.2644    4.1689 O   0  0  0  0  0  0  0  0  0  0  0  0
   11.1927    2.6665    6.1515 C   0  0  2  0  0  0  0  0  0  0  0  0
   12.3262    3.5758    6.4959 N   0  0  0  0  0  0  0  0  0  0  0  0
    8.1314    3.0724    2.3889 C   0  0  1  0  0  0  0  0  0  0  0  0
    5.9109    6.7379    1.1212 C   0  0  1  0  0  0  0  0  0  0  0  0
    6.8822   -1.6668    4.9289 C   0  0  2  0  0  0  0  0  0  0  0  0
    7.7932   -2.8213    4.8407 N   0  0  0  0  0  0  0  0  0  0  0  0
   11.6281    1.1484    6.2380 C   0  0  0  0  0  0  0  0  0  0  0  0
    8.2284    4.4786    3.0553 C   0  0  2  0  0  0  0  0  0  0  0  0
    7.4467    4.6112    4.2679 O   0  0  0  0  0  0  0  0  0  0  0  0
    6.4505    8.1275    1.6178 C   0  0  2  0  0  0  0  0  0  0  0  0
    6.1284    8.3401    3.0607 N   0  0  0  0  0  0  0  0  0  0  0  0
    6.0487   -1.6580    3.6343 C   0  0  1  0  0  0  0  0  0  0  0  0
    5.3407   -2.8904    3.4902 O   0  0  0  0  0  0  0  0  0  0  0  0
   10.3885    0.2413    5.8871 C   0  0  2  0  0  0  0  0  0  0  0  0
   10.7591   -1.1971    5.9730 N   0  0  0  0  0  0  0  0  0  0  0  0
    7.8122    5.3858    1.8964 C   0  0  2  0  0  0  0  0  0  0  0  0
    6.3669    5.6134    1.8836 O   0  0  0  0  0  0  0  0  0  0  0  0
    5.8263    9.2917    0.7112 C   0  0  1  0  0  0  0  0  0  0  0  0
    6.4633    9.2660   -0.5859 O   0  0  0  0  0  0  0  0  0  0  0  0
    5.0832   -0.4510    3.6509 C   0  0  2  0  0  0  0  0  0  0  0  0
    4.3008   -0.4382    2.4795 O   0  0  0  0  0  0  0  0  0  0  0  0
    9.8541    0.5653    4.4362 C   0  0  2  0  0  0  0  0  0  0  0  0
    8.2758    4.6755    0.6135 C   0  0  2  0  0  0  0  0  0  0  0  0
    8.1890    3.2957    0.9613 O   0  0  0  0  0  0  0  0  0  0  0  0
    4.2397    9.1573    0.5319 C   0  0  2  0  0  0  0  0  0  0  0  0
    3.6380    9.4387    1.7949 O   0  0  0  0  0  0  0  0  0  0  0  0
    5.9168    0.8679    3.7736 C   0  0  2  0  0  0  0  0  0  0  0  0
    6.7269    0.8264    4.9909 O   0  0  0  0  0  0  0  0  0  0  0  0
    9.4615    2.0485    4.2600 C   0  0  2  0  0  0  0  0  0  0  0  0
    9.1766    2.2024    2.8423 O   0  0  0  0  0  0  0  0  0  0  0  0
    9.7157    5.0455    0.1401 C   0  0  0  0  0  0  0  0  0  0  0  0
   10.5336    5.3020    1.2777 O   0  0  0  0  0  0  0  0  0  0  0  0
    3.8551    7.7055    0.0560 C   0  0  1  0  0  0  0  0  0  0  0  0
    4.3982    6.7852    1.0699 O   0  0  0  0  0  0  0  0  0  0  0  0
    5.0481    2.1042    3.8038 C   0  0  0  0  0  0  0  0  0  0  0  0
    4.5725    2.3942    2.5119 O   0  0  0  0  0  0  0  0  0  0  0  0
   10.6608    2.9896    4.6978 C   0  0  1  0  0  0  0  0  0  0  0  0
   10.2462    4.3583    4.6788 O   0  0  0  0  0  0  0  0  0  0  0  0
    2.2913    7.4733   -0.1157 C   0  0  0  0  0  0  0  0  0  0  0  0
    1.4557    7.8307    1.0636 N   0  0  0  0  0  0  0  0  0  0  0  0
  1  2  1  6  0  0  0
  1  7  1  0  0  0  0
  1 30  1  0  0  0  0
  3  4  1  6  0  0  0
  3  9  1  0  0  0  0
  3 39  1  0  0  0  0
  5 10  1  0  0  0  0
  5 26  1  0  0  0  0
  5 32  1  1  0  0  0
  6 12  1  0  0  0  0
  6 36  1  0  0  0  0
  6 19  1  1  0  0  0
  7  8  1  6  0  0  0
  7 14  1  0  0  0  0
  9 16  1  0  0  0  0
 10 11  1  1  0  0  0
 10 18  1  0  0  0  0
 12 13  1  1  0  0  0
 12 20  1  0  0  0  0
 14 15  1  1  0  0  0
 14 22  1  0  0  0  0
 16 17  1  6  0  0  0
 16 24  1  0  0  0  0
 18 19  1  6  0  0  0
 18 25  1  0  0  0  0
 20 21  1  6  0  0  0
 20 27  1  0  0  0  0
 22 23  1  6  0  0  0
 22 29  1  0  0  0  0
 24  2  1  1  0  0  0
 24 31  1  0  0  0  0
 25 26  1  0  0  0  0
 25 33  1  1  0  0  0
 27 28  1  1  0  0  0
 27 35  1  0  0  0  0
 29 30  1  0  0  0  0
 29 37  1  1  0  0  0
 31 32  1  6  0  0  0
 31 39  1  0  0  0  0
 33 34  1  0  0  0  0
 35 36  1  0  0  0  0
 35 41  1  1  0  0  0
 37 38  1  0  0  0  0
 39 40  1  1  0  0  0
 41 42  1  0  0  0  0
M  END
>  <CHROM.1>
-156.14500727,48.83444223,161.82519825,-61.59362935,33.26508218,-75.90554439
143.99843855,49.04955815,-52.71591979,7.23902976,3.48383037,2.97436635,1.15606972
0.31834951,2.82423732

>  <Name>
ligand

>  <RI>
0

>  <Rbt.Current_Directory>
/home/itssahil/PROJECTS/Mol_Feturizer/Test_systems_manuscript/rnas/2o3w

>  <Rbt.Executable>
rbdock ($Id: //depot/dev/client3/rdock/2013.1/src/exe/rbdock.cxx#4 $)

>  <Rbt.Library>
libRbt.so (2013.1, Build901 2013/11/27)

>  <Rbt.Parameter_File>
/export/apps/rDock/src/rDock_2013.1_src/data/scripts/dock_solv.prm

>  <Rbt.Receptor>
prm/pocket_docking_2.prm

>  <SCORE>
-3.65592

>  <SCORE.INTER>
0.497627

>  <SCORE.INTER.CONST>
1

>  <SCORE.INTER.POLAR>
0

>  <SCORE.INTER.ROT>
9

>  <SCORE.INTER.SOLV>
11.3344

>  <SCORE.INTER.VDW>
-13.0464

>  <SCORE.INTER.norm>
0.0118483

>  <SCORE.INTRA>
-5.26992

>  <SCORE.INTRA.DIHEDRAL>
-14.6623

>  <SCORE.INTRA.DIHEDRAL.0>
27.8999

>  <SCORE.INTRA.POLAR>
0

>  <SCORE.INTRA.POLAR.0>
0

>  <SCORE.INTRA.REPUL>
0

>  <SCORE.INTRA.REPUL.0>
0

>  <SCORE.INTRA.SOLV>
0.147949

>  <SCORE.INTRA.SOLV.lig_0>
-104.479

>  <SCORE.INTRA.VDW>
1.98727

>  <SCORE.INTRA.VDW.0>
-6.17816

>  <SCORE.INTRA.norm>
-0.125474

>  <SCORE.RESTR>
1.11637

>  <SCORE.RESTR.CAVITY>
1.11637

>  <SCORE.RESTR.norm>
0.0265803

>  <SCORE.SYSTEM>
0

>  <SCORE.SYSTEM.CONST>
0

>  <SCORE.SYSTEM.DIHEDRAL>
0

>  <SCORE.SYSTEM.SOLV>
0

>  <SCORE.SYSTEM.norm>
0

>  <SCORE.heavy>
42

>  <SCORE.norm>
-0.0870457

>  <RMSD>
2.739

$$$$
ligand
 OpenBabel02271912133D
libRbt.so/2013.1/901 2013/11/27
 42 45  0  0  0  0  0  0  0  0999 V2000
    7.0826    1.5176    3.4068 C   0  0  2  0  0  0  0  0  0  0  0  0
    7.6289    1.9422    4.6672 O   0  0  0  0  0  0  0  0  0  0  0  0
   11.1998    4.1495    5.7500 C   0  0  2  0  0  0  0  0  0  0  0  0
   12.6186    4.6020    5.8632 N   0  0  0  0  0  0  0  0  0  0  0  0
    7.7978    3.9310    2.0111 C   0  0  1  0  0  0  0  0  0  0  0  0
    5.3779    7.2344    0.8093 C   0  0  1  0  0  0  0  0  0  0  0  0
    5.5571    1.2876    3.6264 C   0  0  2  0  0  0  0  0  0  0  0  0
    4.9057    2.4272    4.2954 N   0  0  0  0  0  0  0  0  0  0  0  0
   11.0032    2.7133    6.3827 C   0  0  0  0  0  0  0  0  0  0  0  0
    7.9092    5.4711    1.7958 C   0  0  2  0  0  0  0  0  0  0  0  0
    7.3663    6.2590    2.8837 O   0  0  0  0  0  0  0  0  0  0  0  0
    3.9193    7.4178    1.3640 C   0  0  2  0  0  0  0  0  0  0  0  0
    2.9244    6.7331    0.4852 N   0  0  0  0  0  0  0  0  0  0  0  0
    5.2718    0.0438    4.4880 C   0  0  1  0  0  0  0  0  0  0  0  0
    3.8636   -0.1507    4.6298 O   0  0  0  0  0  0  0  0  0  0  0  0
    9.4877    2.3019    6.2535 C   0  0  2  0  0  0  0  0  0  0  0  0
    9.2632    0.9588    6.8529 N   0  0  0  0  0  0  0  0  0  0  0  0
    7.2082    5.6338    0.4462 C   0  0  2  0  0  0  0  0  0  0  0  0
    5.7738    5.8716    0.6101 O   0  0  0  0  0  0  0  0  0  0  0  0
    3.5947    8.9815    1.4913 C   0  0  1  0  0  0  0  0  0  0  0  0
    4.3215    9.5193    2.6189 O   0  0  0  0  0  0  0  0  0  0  0  0
    5.9508   -1.1907    3.8522 C   0  0  2  0  0  0  0  0  0  0  0  0
    5.6851   -2.3413    4.6203 O   0  0  0  0  0  0  0  0  0  0  0  0
    9.0418    2.2872    4.7379 C   0  0  2  0  0  0  0  0  0  0  0  0
    7.4721    4.3319   -0.3290 C   0  0  2  0  0  0  0  0  0  0  0  0
    7.5630    3.3552    0.7055 O   0  0  0  0  0  0  0  0  0  0  0  0
    3.9714    9.8046    0.1690 C   0  0  2  0  0  0  0  0  0  0  0  0
    3.0574    9.4157   -0.8556 O   0  0  0  0  0  0  0  0  0  0  0  0
    7.4916   -0.9332    3.7567 C   0  0  2  0  0  0  0  0  0  0  0  0
    7.7410    0.2703    2.9635 O   0  0  0  0  0  0  0  0  0  0  0  0
    9.2586    3.6461    4.0367 C   0  0  2  0  0  0  0  0  0  0  0  0
    8.9760    3.4003    2.6317 O   0  0  0  0  0  0  0  0  0  0  0  0
    8.7607    4.3394   -1.2086 C   0  0  0  0  0  0  0  0  0  0  0  0
    9.9060    4.4108   -0.3647 O   0  0  0  0  0  0  0  0  0  0  0  0
    5.4513    9.4965   -0.2748 C   0  0  1  0  0  0  0  0  0  0  0  0
    5.5259    8.0376   -0.4658 O   0  0  0  0  0  0  0  0  0  0  0  0
    8.2377   -2.0926    3.1377 C   0  0  0  0  0  0  0  0  0  0  0  0
    8.2236   -3.1981    4.0077 O   0  0  0  0  0  0  0  0  0  0  0  0
   10.7556    4.1322    4.2325 C   0  0  1  0  0  0  0  0  0  0  0  0
   10.9162    5.4560    3.7154 O   0  0  0  0  0  0  0  0  0  0  0  0
    5.8991   10.2483   -1.6026 C   0  0  0  0  0  0  0  0  0  0  0  0
    7.2165    9.8365   -2.1606 N   0  0  0  0  0  0  0  0  0  0  0  0
  1  2  1  1  0  0  0
  1  7  1  0  0  0  0
  1 30  1  0  0  0  0
  3  4  1  6  0  0  0
  3  9  1  0  0  0  0
  3 39  1  0  0  0  0
  5 10  1  0  0  0  0
  5 26  1  0  0  0  0
  5 32  1  6  0  0  0
  6 12  1  0  0  0  0
  6 36  1  0  0  0  0
  6 19  1  6  0  0  0
  7  8  1  1  0  0  0
  7 14  1  0  0  0  0
  9 16  1  0  0  0  0
 10 11  1  1  0  0  0
 10 18  1  0  0  0  0
 12 13  1  6  0  0  0
 12 20  1  0  0  0  0
 14 15  1  6  0  0  0
 14 22  1  0  0  0  0
 16 17  1  6  0  0  0
 16 24  1  0  0  0  0
 18 19  1  1  0  0  0
 18 25  1  0  0  0  0
 20 21  1  1  0  0  0
 20 27  1  0  0  0  0
 22 23  1  1  0  0  0
 22 29  1  0  0  0  0
 24  2  1  1  0  0  0
 24 31  1  0  0  0  0
 25 26  1  0  0  0  0
 25 33  1  1  0  0  0
 27 28  1  6  0  0  0
 27 35  1  0  0  0  0
 29 30  1  0  0  0  0
 29 37  1  6  0  0  0
 31 32  1  6  0  0  0
 31 39  1  0  0  0  0
 33 34  1  0  0  0  0
 35 36  1  0  0  0  0
 35 41  1  6  0  0  0
 37 38  1  0  0  0  0
 39 40  1  1  0  0  0
 41 42  1  0  0  0  0
M  END
>  <CHROM.1>
-177.34998903,-163.52036599,86.08274616,-164.13710475,66.42019504,-69.07581565
109.17121832,72.74314801,-171.64646455,7.16228141,4.06502300,2.50858934,1.26326503
0.34501883,2.74348853

>  <Name>
ligand

>  <RI>
0

>  <Rbt.Current_Directory>
/home/itssahil/PROJECTS/Mol_Feturizer/Test_systems_manuscript/rnas/2o3w

>  <Rbt.Executable>
rbdock ($Id: //depot/dev/client3/rdock/2013.1/src/exe/rbdock.cxx#4 $)

>  <Rbt.Library>
libRbt.so (2013.1, Build901 2013/11/27)

>  <Rbt.Parameter_File>
/export/apps/rDock/src/rDock_2013.1_src/data/scripts/dock_solv.prm

>  <Rbt.Receptor>
prm/pocket_docking_4.prm

>  <SCORE>
-7.53326

>  <SCORE.INTER>
0.0463922

>  <SCORE.INTER.CONST>
1

>  <SCORE.INTER.POLAR>
0

>  <SCORE.INTER.ROT>
9

>  <SCORE.INTER.SOLV>
15.2413

>  <SCORE.INTER.VDW>
-14.6495

>  <SCORE.INTER.norm>
0.00110458

>  <SCORE.INTRA>
-7.57965

>  <SCORE.INTRA.DIHEDRAL>
-14.3778

>  <SCORE.INTRA.DIHEDRAL.0>
27.8999

>  <SCORE.INTRA.POLAR>
0

>  <SCORE.INTRA.POLAR.0>
0

>  <SCORE.INTRA.REPUL>
0

>  <SCORE.INTRA.REPUL.0>
0

>  <SCORE.INTRA.SOLV>
-4.64113

>  <SCORE.INTRA.SOLV.lig_0>
-104.479

>  <SCORE.INTRA.VDW>
1.92983

>  <SCORE.INTRA.VDW.0>
-6.17816

>  <SCORE.INTRA.norm>
-0.180468

>  <SCORE.RESTR>
0

>  <SCORE.RESTR.CAVITY>
0

>  <SCORE.RESTR.norm>
0

>  <SCORE.SYSTEM>
0

>  <SCORE.SYSTEM.CONST>
0

>  <SCORE.SYSTEM.DIHEDRAL>
0

>  <SCORE.SYSTEM.SOLV>
0

>  <SCORE.SYSTEM.norm>
0

>  <SCORE.heavy>
42

>  <SCORE.norm>
-0.179363

>  <RMSD>
2.764

$$$$
ligand
 OpenBabel02271912133D
libRbt.so/2013.1/901 2013/11/27
 42 45  0  0  0  0  0  0  0  0999 V2000
    8.7542   -0.9987    6.4242 C   0  0  2  0  0  0  0  0  0  0  0  0
    9.8609   -0.8704    5.5153 O   0  0  0  0  0  0  0  0  0  0  0  0
   12.2656    1.8879    7.8402 C   0  0  2  0  0  0  0  0  0  0  0  0
   13.2857    2.9009    8.2446 N   0  0  0  0  0  0  0  0  0  0  0  0
    8.8923    3.1572    4.9650 C   0  0  1  0  0  0  0  0  0  0  0  0
    7.1460    6.2704    2.8212 C   0  0  1  0  0  0  0  0  0  0  0  0
    8.6854   -2.4964    6.8489 C   0  0  2  0  0  0  0  0  0  0  0  0
    9.9897   -3.0163    7.2950 N   0  0  0  0  0  0  0  0  0  0  0  0
   12.9496    0.5482    7.3512 C   0  0  0  0  0  0  0  0  0  0  0  0
    8.2739    3.4368    3.5614 C   0  0  2  0  0  0  0  0  0  0  0  0
    9.1275    4.2133    2.6854 O   0  0  0  0  0  0  0  0  0  0  0  0
    7.3510    7.8200    2.9807 C   0  0  2  0  0  0  0  0  0  0  0  0
    6.2888    8.4121    3.8479 N   0  0  0  0  0  0  0  0  0  0  0  0
    8.2121   -3.4079    5.7017 C   0  0  1  0  0  0  0  0  0  0  0  0
    8.1260   -4.7628    6.1462 O   0  0  0  0  0  0  0  0  0  0  0  0
   11.8262   -0.4854    6.9610 C   0  0  2  0  0  0  0  0  0  0  0  0
   12.4352   -1.7654    6.5090 N   0  0  0  0  0  0  0  0  0  0  0  0
    6.9476    4.0938    3.9467 C   0  0  2  0  0  0  0  0  0  0  0  0
    7.0788    5.5469    4.0564 O   0  0  0  0  0  0  0  0  0  0  0  0
    7.3589    8.5041    1.5320 C   0  0  1  0  0  0  0  0  0  0  0  0
    8.6067    8.1900    0.8737 O   0  0  0  0  0  0  0  0  0  0  0  0
    6.8527   -2.9015    5.1682 C   0  0  2  0  0  0  0  0  0  0  0  0
    6.3974   -3.7355    4.1282 O   0  0  0  0  0  0  0  0  0  0  0  0
   10.9064    0.0973    5.8163 C   0  0  2  0  0  0  0  0  0  0  0  0
    6.5386    3.4682    5.2909 C   0  0  2  0  0  0  0  0  0  0  0  0
    7.7923    3.1759    5.9036 O   0  0  0  0  0  0  0  0  0  0  0  0
    6.1343    8.0302    0.6136 C   0  0  2  0  0  0  0  0  0  0  0  0
    4.9404    8.5783    1.1709 O   0  0  0  0  0  0  0  0  0  0  0  0
    7.0186   -1.4292    4.6640 C   0  0  2  0  0  0  0  0  0  0  0  0
    7.5007   -0.5860    5.7578 O   0  0  0  0  0  0  0  0  0  0  0  0
   10.2469    1.4393    6.2030 C   0  0  2  0  0  0  0  0  0  0  0  0
    9.6014    1.9115    4.9885 O   0  0  0  0  0  0  0  0  0  0  0  0
    5.6562    2.1863    5.1789 C   0  0  0  0  0  0  0  0  0  0  0  0
    4.5027    2.4763    4.3952 O   0  0  0  0  0  0  0  0  0  0  0  0
    6.0455    6.4578    0.5736 C   0  0  1  0  0  0  0  0  0  0  0  0
    5.9162    6.0195    1.9741 O   0  0  0  0  0  0  0  0  0  0  0  0
    5.7299   -0.8493    4.1283 C   0  0  0  0  0  0  0  0  0  0  0  0
    5.3388   -1.5321    2.9621 O   0  0  0  0  0  0  0  0  0  0  0  0
   11.3476    2.4711    6.6923 C   0  0  1  0  0  0  0  0  0  0  0  0
   10.7243    3.6575    7.1920 O   0  0  0  0  0  0  0  0  0  0  0  0
    4.8336    5.8993   -0.2912 C   0  0  0  0  0  0  0  0  0  0  0  0
    4.7311    4.4162   -0.3707 N   0  0  0  0  0  0  0  0  0  0  0  0
  1  2  1  6  0  0  0
  1  7  1  0  0  0  0
  1 30  1  0  0  0  0
  3  4  1  6  0  0  0
  3  9  1  0  0  0  0
  3 39  1  0  0  0  0
  5 10  1  0  0  0  0
  5 26  1  0  0  0  0
  5 32  1  6  0  0  0
  6 12  1  0  0  0  0
  6 36  1  0  0  0  0
  6 19  1  1  0  0  0
  7  8  1  6  0  0  0
  7 14  1  0  0  0  0
  9 16  1  0  0  0  0
 10 11  1  6  0  0  0
 10 18  1  0  0  0  0
 12 13  1  1  0  0  0
 12 20  1  0  0  0  0
 14 15  1  1  0  0  0
 14 22  1  0  0  0  0
 16 17  1  6  0  0  0
 16 24  1  0  0  0  0
 18 19  1  1  0  0  0
 18 25  1  0  0  0  0
 20 21  1  6  0  0  0
 20 27  1  0  0  0  0
 22 23  1  6  0  0  0
 22 29  1  0  0  0  0
 24  2  1  1  0  0  0
 24 31  1  0  0  0  0
 25 26  1  0  0  0  0
 25 33  1  6  0  0  0
 27 28  1  1  0  0  0
 27 35  1  0  0  0  0
 29 30  1  0  0  0  0
 29 37  1  1  0  0  0
 31 32  1  6  0  0  0
 31 39  1  0  0  0  0
 33 34  1  0  0  0  0
 35 36  1  0  0  0  0
 35 41  1  6  0  0  0
 37 38  1  0  0  0  0
 39 40  1  1  0  0  0
 41 42  1  0  0  0  0
M  END
>  <CHROM.1>
-124.39337160,76.18615123,75.91496156,-177.39871637,-55.26014408,-66.05791967
-179.21139538,-179.25977035,179.02229590,8.10947645,2.29338262,4.45964638
1.19180215,0.58499674,2.87341000

>  <Name>
ligand

>  <RI>
0

>  <Rbt.Current_Directory>
/home/itssahil/PROJECTS/Mol_Feturizer/Test_systems_manuscript/rnas/2o3w

>  <Rbt.Executable>
rbdock ($Id: //depot/dev/client3/rdock/2013.1/src/exe/rbdock.cxx#4 $)

>  <Rbt.Library>
libRbt.so (2013.1, Build901 2013/11/27)

>  <Rbt.Parameter_File>
/export/apps/rDock/src/rDock_2013.1_src/data/scripts/dock_solv.prm

>  <Rbt.Receptor>
prm/pocket_docking_3.prm

>  <SCORE>
-4.41946

>  <SCORE.INTER>
3.44552

>  <SCORE.INTER.CONST>
1

>  <SCORE.INTER.POLAR>
0

>  <SCORE.INTER.ROT>
9

>  <SCORE.INTER.SOLV>
10.161

>  <SCORE.INTER.VDW>
-10.69

>  <SCORE.INTER.norm>
0.0820361

>  <SCORE.INTRA>
-7.87166

>  <SCORE.INTRA.DIHEDRAL>
-18.0201

>  <SCORE.INTRA.DIHEDRAL.0>
27.8999

>  <SCORE.INTRA.POLAR>
0

>  <SCORE.INTRA.POLAR.0>
0

>  <SCORE.INTRA.REPUL>
0

>  <SCORE.INTRA.REPUL.0>
0

>  <SCORE.INTRA.SOLV>
-2.11193

>  <SCORE.INTRA.SOLV.lig_0>
-104.479

>  <SCORE.INTRA.VDW>
2.19438

>  <SCORE.INTRA.VDW.0>
-6.17816

>  <SCORE.INTRA.norm>
-0.18742

>  <SCORE.RESTR>
0.00668055

>  <SCORE.RESTR.CAVITY>
0.00668055

>  <SCORE.RESTR.norm>
0.000159061

>  <SCORE.SYSTEM>
0

>  <SCORE.SYSTEM.CONST>
0

>  <SCORE.SYSTEM.DIHEDRAL>
0

>  <SCORE.SYSTEM.SOLV>
0

>  <SCORE.SYSTEM.norm>
0

>  <SCORE.heavy>
42

>  <SCORE.norm>
-0.105225

>  <RMSD>
2.790

$$$$
ligand
 OpenBabel02271912133D
libRbt.so/2013.1/901 2013/11/27
 42 45  0  0  0  0  0  0  0  0999 V2000
    7.9268   -0.1125    5.4642 C   0  0  2  0  0  0  0  0  0  0  0  0
    8.8513    0.3606    4.4699 O   0  0  0  0  0  0  0  0  0  0  0  0
   11.0627    3.0937    7.0069 C   0  0  2  0  0  0  0  0  0  0  0  0
   12.0351    4.1156    7.4973 N   0  0  0  0  0  0  0  0  0  0  0  0
    7.6134    4.2357    4.0369 C   0  0  1  0  0  0  0  0  0  0  0  0
    5.2526    7.7106    2.3776 C   0  0  1  0  0  0  0  0  0  0  0  0
    8.0599   -1.6645    5.5074 C   0  0  2  0  0  0  0  0  0  0  0  0
    9.4603   -2.1073    5.6221 N   0  0  0  0  0  0  0  0  0  0  0  0
   11.8040    1.7870    6.5120 C   0  0  0  0  0  0  0  0  0  0  0  0
    7.7516    5.1316    2.7684 C   0  0  2  0  0  0  0  0  0  0  0  0
    8.6475    6.2576    2.9370 O   0  0  0  0  0  0  0  0  0  0  0  0
    3.7363    7.4324    2.0738 C   0  0  2  0  0  0  0  0  0  0  0  0
    3.5562    6.0913    1.4414 N   0  0  0  0  0  0  0  0  0  0  0  0
    7.4830   -2.3357    4.2474 C   0  0  1  0  0  0  0  0  0  0  0  0
    7.5899   -3.7567    4.3476 O   0  0  0  0  0  0  0  0  0  0  0  0
   10.7283    0.7417    6.0296 C   0  0  2  0  0  0  0  0  0  0  0  0
   11.3913   -0.5082    5.5696 N   0  0  0  0  0  0  0  0  0  0  0  0
    6.2890    5.4843    2.4931 C   0  0  2  0  0  0  0  0  0  0  0  0
    5.8929    6.7126    3.1824 O   0  0  0  0  0  0  0  0  0  0  0  0
    3.1641    8.5947    1.1311 C   0  0  1  0  0  0  0  0  0  0  0  0
    3.0077    9.7982    1.9159 O   0  0  0  0  0  0  0  0  0  0  0  0
    6.0149   -1.8925    4.0534 C   0  0  2  0  0  0  0  0  0  0  0  0
    5.4669   -2.5116    2.9129 O   0  0  0  0  0  0  0  0  0  0  0  0
    9.8556    1.3414    4.8571 C   0  0  2  0  0  0  0  0  0  0  0  0
    5.4634    4.2813    2.9795 C   0  0  2  0  0  0  0  0  0  0  0  0
    6.2442    3.7709    4.0576 O   0  0  0  0  0  0  0  0  0  0  0  0
    4.1079    8.8951   -0.1285 C   0  0  2  0  0  0  0  0  0  0  0  0
    4.0322    7.7692   -1.0020 O   0  0  0  0  0  0  0  0  0  0  0  0
    5.9662   -0.3344    3.9141 C   0  0  2  0  0  0  0  0  0  0  0  0
    6.5488    0.2844    5.1046 O   0  0  0  0  0  0  0  0  0  0  0  0
    9.1441    2.6542    5.2511 C   0  0  2  0  0  0  0  0  0  0  0  0
    8.5516    3.1520    4.0200 O   0  0  0  0  0  0  0  0  0  0  0  0
    5.2058    3.1815    1.9032 C   0  0  0  0  0  0  0  0  0  0  0  0
    4.5196    3.7582    0.7962 O   0  0  0  0  0  0  0  0  0  0  0  0
    5.5959    9.1268    0.3346 C   0  0  1  0  0  0  0  0  0  0  0  0
    5.9893    7.9125    1.0702 O   0  0  0  0  0  0  0  0  0  0  0  0
    4.5610    0.1890    3.7263 C   0  0  0  0  0  0  0  0  0  0  0  0
    3.6954   -0.3971    4.6679 O   0  0  0  0  0  0  0  0  0  0  0  0
   10.1920    3.6939    5.8312 C   0  0  1  0  0  0  0  0  0  0  0  0
    9.5146    4.8484    6.3350 O   0  0  0  0  0  0  0  0  0  0  0  0
    6.6106    9.3993   -0.8590 C   0  0  0  0  0  0  0  0  0  0  0  0
    6.5802    8.4057   -1.9674 N   0  0  0  0  0  0  0  0  0  0  0  0
  1  2  1  6  0  0  0
  1  7  1  0  0  0  0
  1 30  1  0  0  0  0
  3  4  1  6  0  0  0
  3  9  1  0  0  0  0
  3 39  1  0  0  0  0
  5 10  1  0  0  0  0
  5 26  1  0  0  0  0
  5 32  1  6  0  0  0
  6 12  1  0  0  0  0
  6 36  1  0  0  0  0
  6 19  1  6  0  0  0
  7  8  1  6  0  0  0
  7 14  1  0  0  0  0
  9 16  1  0  0  0  0
 10 11  1  1  0  0  0
 10 18  1  0  0  0  0
 12 13  1  6  0  0  0
 12 20  1  0  0  0  0
 14 15  1  1  0  0  0
 14 22  1  0  0  0  0
 16 17  1  6  0  0  0
 16 24  1  0  0  0  0
 18 19  1  1  0  0  0
 18 25  1  0  0  0  0
 20 21  1  1  0  0  0
 20 27  1  0  0  0  0
 22 23  1  6  0  0  0
 22 29  1  0  0  0  0
 24  2  1  1  0  0  0
 24 31  1  0  0  0  0
 25 26  1  0  0  0  0
 25 33  1  6  0  0  0
 27 28  1  6  0  0  0
 27 35  1  0  0  0  0
 29 30  1  0  0  0  0
 29 37  1  1  0  0  0
 31 32  1  6  0  0  0
 31 39  1  0  0  0  0
 33 34  1  0  0  0  0
 35 36  1  0  0  0  0
 35 41  1  6  0  0  0
 37 38  1  0  0  0  0
 39 40  1  1  0  0  0
 41 42  1  0  0  0  0
M  END
>  <CHROM.1>
-123.60339759,58.11236799,129.13796375,78.53807612,-58.81636771,47.28086594
169.05820129,145.93130946,-51.58545548,6.99180204,3.44077322,3.42093089,1.13684824
0.54572815,2.89498106

>  <Name>
ligand

>  <RI>
0

>  <Rbt.Current_Directory>
/home/itssahil/PROJECTS/Mol_Feturizer/Test_systems_manuscript/rnas/2o3w

>  <Rbt.Executable>
rbdock ($Id: //depot/dev/client3/rdock/2013.1/src/exe/rbdock.cxx#4 $)

>  <Rbt.Library>
libRbt.so (2013.1, Build901 2013/11/27)

>  <Rbt.Parameter_File>
/export/apps/rDock/src/rDock_2013.1_src/data/scripts/dock_solv.prm

>  <Rbt.Receptor>
prm/pocket_docking_2.prm

>  <SCORE>
4.41052

>  <SCORE.INTER>
2.97451

>  <SCORE.INTER.CONST>
1

>  <SCORE.INTER.POLAR>
0

>  <SCORE.INTER.ROT>
9

>  <SCORE.INTER.SOLV>
6.61725

>  <SCORE.INTER.VDW>
-9.82274

>  <SCORE.INTER.norm>
0.0708217

>  <SCORE.INTRA>
0.68929

>  <SCORE.INTRA.DIHEDRAL>
-6.53488

>  <SCORE.INTRA.DIHEDRAL.0>
27.8999

>  <SCORE.INTRA.POLAR>
0

>  <SCORE.INTRA.POLAR.0>
0

>  <SCORE.INTRA.REPUL>
0.0245482

>  <SCORE.INTRA.REPUL.0>
0

>  <SCORE.INTRA.SOLV>
3.59182

>  <SCORE.INTRA.SOLV.lig_0>
-104.479

>  <SCORE.INTRA.VDW>
2.03808

>  <SCORE.INTRA.VDW.0>
-6.17816

>  <SCORE.INTRA.norm>
0.0164117

>  <SCORE.RESTR>
0.746718

>  <SCORE.RESTR.CAVITY>
0.746718

>  <SCORE.RESTR.norm>
0.017779

>  <SCORE.SYSTEM>
0

>  <SCORE.SYSTEM.CONST>
0

>  <SCORE.SYSTEM.DIHEDRAL>
0

>  <SCORE.SYSTEM.SOLV>
0

>  <SCORE.SYSTEM.norm>
0

>  <SCORE.heavy>
42

>  <SCORE.norm>
0.105012

>  <RMSD>
2.847

$$$$
ligand
 OpenBabel02271912133D
libRbt.so/2013.1/901 2013/11/27
 42 45  0  0  0  0  0  0  0  0999 V2000
    6.9957   -0.4403    4.3035 C   0  0  2  0  0  0  0  0  0  0  0  0
    7.7010   -0.0830    3.1026 O   0  0  0  0  0  0  0  0  0  0  0  0
   10.7883    2.3755    4.8971 C   0  0  2  0  0  0  0  0  0  0  0  0
   12.0255    3.1850    5.1075 N   0  0  0  0  0  0  0  0  0  0  0  0
    7.5885    3.9431    1.9768 C   0  0  1  0  0  0  0  0  0  0  0  0
    5.6132    7.5721    0.2339 C   0  0  1  0  0  0  0  0  0  0  0  0
    5.7377   -1.2505    3.8685 C   0  0  2  0  0  0  0  0  0  0  0  0
    6.0642   -2.3368    2.9283 N   0  0  0  0  0  0  0  0  0  0  0  0
   11.1368    0.8628    4.5939 C   0  0  0  0  0  0  0  0  0  0  0  0
    7.4144    4.2795    0.4644 C   0  0  2  0  0  0  0  0  0  0  0  0
    8.5991    4.8376   -0.1553 O   0  0  0  0  0  0  0  0  0  0  0  0
    6.0209    9.0639    0.5113 C   0  0  2  0  0  0  0  0  0  0  0  0
    6.3348    9.2712    1.9568 N   0  0  0  0  0  0  0  0  0  0  0  0
    4.6833   -0.3663    3.1776 C   0  0  1  0  0  0  0  0  0  0  0  0
    3.5336   -1.1408    2.8325 O   0  0  0  0  0  0  0  0  0  0  0  0
    9.7954    0.0582    4.4043 C   0  0  2  0  0  0  0  0  0  0  0  0
   10.0860   -1.3752    4.1312 N   0  0  0  0  0  0  0  0  0  0  0  0
    6.1921    5.1980    0.5033 C   0  0  2  0  0  0  0  0  0  0  0  0
    6.5780    6.6009    0.6577 O   0  0  0  0  0  0  0  0  0  0  0  0
    4.8373   10.0329    0.0348 C   0  0  1  0  0  0  0  0  0  0  0  0
    4.8248   10.0796   -1.4097 O   0  0  0  0  0  0  0  0  0  0  0  0
    4.3117    0.8131    4.1050 C   0  0  2  0  0  0  0  0  0  0  0  0
    3.3347    1.6232    3.4937 O   0  0  0  0  0  0  0  0  0  0  0  0
    8.9465    0.6626    3.2169 C   0  0  2  0  0  0  0  0  0  0  0  0
    5.3399    4.7205    1.6912 C   0  0  2  0  0  0  0  0  0  0  0  0
    6.3132    4.2149    2.6019 O   0  0  0  0  0  0  0  0  0  0  0  0
    3.3998    9.5678    0.5684 C   0  0  2  0  0  0  0  0  0  0  0  0
    3.3759    9.7768    1.9799 O   0  0  0  0  0  0  0  0  0  0  0  0
    5.6015    1.6428    4.4176 C   0  0  2  0  0  0  0  0  0  0  0  0
    6.6030    0.7787    5.0422 O   0  0  0  0  0  0  0  0  0  0  0  0
    8.6155    2.1577    3.4178 C   0  0  2  0  0  0  0  0  0  0  0  0
    8.0057    2.5851    2.1687 O   0  0  0  0  0  0  0  0  0  0  0  0
    4.2776    3.6319    1.3436 C   0  0  0  0  0  0  0  0  0  0  0  0
    4.9405    2.4551    0.8914 O   0  0  0  0  0  0  0  0  0  0  0  0
    3.1492    8.0479    0.2379 C   0  0  1  0  0  0  0  0  0  0  0  0
    4.2599    7.3056    0.8589 O   0  0  0  0  0  0  0  0  0  0  0  0
    5.3304    2.8181    5.3281 C   0  0  0  0  0  0  0  0  0  0  0  0
    6.5078    3.5636    5.5211 O   0  0  0  0  0  0  0  0  0  0  0  0
    9.9410    2.9795    3.7064 C   0  0  1  0  0  0  0  0  0  0  0  0
    9.6198    4.3324    4.0413 O   0  0  0  0  0  0  0  0  0  0  0  0
    1.7550    7.4922    0.7634 C   0  0  0  0  0  0  0  0  0  0  0  0
    1.4549    6.0766    0.4135 N   0  0  0  0  0  0  0  0  0  0  0  0
  1  2  1  6  0  0  0
  1  7  1  0  0  0  0
  1 30  1  0  0  0  0
  3  4  1  6  0  0  0
  3  9  1  0  0  0  0
  3 39  1  0  0  0  0
  5 10  1  0  0  0  0
  5 26  1  0  0  0  0
  5 32  1  6  0  0  0
  6 12  1  0  0  0  0
  6 36  1  0  0  0  0
  6 19  1  1  0  0  0
  7  8  1  6  0  0  0
  7 14  1  0  0  0  0
  9 16  1  0  0  0  0
 10 11  1  1  0  0  0
 10 18  1  0  0  0  0
 12 13  1  1  0  0  0
 12 20  1  0  0  0  0
 14 15  1  1  0  0  0
 14 22  1  0  0  0  0
 16 17  1  6  0  0  0
 16 24  1  0  0  0  0
 18 19  1  1  0  0  0
 18 25  1  0  0  0  0
 20 21  1  6  0  0  0
 20 27  1  0  0  0  0
 22 23  1  6  0  0  0
 22 29  1  0  0  0  0
 24  2  1  1  0  0  0
 24 31  1  0  0  0  0
 25 26  1  0  0  0  0
 25 33  1  6  0  0  0
 27 28  1  1  0  0  0
 27 35  1  0  0  0  0
 29 30  1  0  0  0  0
 29 37  1  1  0  0  0
 31 32  1  6  0  0  0
 31 39  1  0  0  0  0
 33 34  1  0  0  0  0
 35 36  1  0  0  0  0
 35 41  1  1  0  0  0
 37 38  1  0  0  0  0
 39 40  1  1  0  0  0
 41 42  1  0  0  0  0
M  END
>  <CHROM.1>
-178.65507482,42.20788766,158.28014841,175.78540458,63.19561310,-177.10207796
-178.69296248,161.14193575,177.22557400,6.34895962,3.76775929,2.46664812
1.17058092,0.20441590,2.81121597

>  <Name>
ligand

>  <RI>
0

>  <Rbt.Current_Directory>
/home/itssahil/PROJECTS/Mol_Feturizer/Test_systems_manuscript/rnas/2o3w

>  <Rbt.Executable>
rbdock ($Id: //depot/dev/client3/rdock/2013.1/src/exe/rbdock.cxx#4 $)

>  <Rbt.Library>
libRbt.so (2013.1, Build901 2013/11/27)

>  <Rbt.Parameter_File>
/export/apps/rDock/src/rDock_2013.1_src/data/scripts/dock_solv.prm

>  <Rbt.Receptor>
prm/pocket_docking_3.prm

>  <SCORE>
-12.5322

>  <SCORE.INTER>
0.0750866

>  <SCORE.INTER.CONST>
1

>  <SCORE.INTER.POLAR>
0

>  <SCORE.INTER.ROT>
9

>  <SCORE.INTER.SOLV>
13.5837

>  <SCORE.INTER.VDW>
-14.0778

>  <SCORE.INTER.norm>
0.00178778

>  <SCORE.INTRA>
-12.6072

>  <SCORE.INTRA.DIHEDRAL>
-22.4193

>  <SCORE.INTRA.DIHEDRAL.0>
27.8999

>  <SCORE.INTRA.POLAR>
0

>  <SCORE.INTRA.POLAR.0>
0

>  <SCORE.INTRA.REPUL>
0.00104306

>  <SCORE.INTRA.REPUL.0>
0

>  <SCORE.INTRA.SOLV>
-2.14966

>  <SCORE.INTRA.SOLV.lig_0>
-104.479

>  <SCORE.INTRA.VDW>
-0.328002

>  <SCORE.INTRA.VDW.0>
-6.17816

>  <SCORE.INTRA.norm>
-0.300172

>  <SCORE.RESTR>
0

>  <SCORE.RESTR.CAVITY>
0

>  <SCORE.RESTR.norm>
0

>  <SCORE.SYSTEM>
0

>  <SCORE.SYSTEM.CONST>
0

>  <SCORE.SYSTEM.DIHEDRAL>
0

>  <SCORE.SYSTEM.SOLV>
0

>  <SCORE.SYSTEM.norm>
0

>  <SCORE.heavy>
42

>  <SCORE.norm>
-0.298385

>  <RMSD>
2.907

$$$$
ligand
 OpenBabel02271912133D
libRbt.so/2013.1/901 2013/11/27
 42 45  0  0  0  0  0  0  0  0999 V2000
    6.9491    2.0654    3.6546 C   0  0  2  0  0  0  0  0  0  0  0  0
    7.7206    2.1700    4.8634 O   0  0  0  0  0  0  0  0  0  0  0  0
   11.7725    3.3486    5.8580 C   0  0  2  0  0  0  0  0  0  0  0  0
   13.2551    3.5257    5.8291 N   0  0  0  0  0  0  0  0  0  0  0  0
    7.7846    4.6589    2.9571 C   0  0  1  0  0  0  0  0  0  0  0  0
    4.6732    7.6934    2.1489 C   0  0  1  0  0  0  0  0  0  0  0  0
    5.4501    2.0029    4.0755 C   0  0  2  0  0  0  0  0  0  0  0  0
    5.0845    3.0732    5.0197 N   0  0  0  0  0  0  0  0  0  0  0  0
   11.3796    1.8291    6.0543 C   0  0  0  0  0  0  0  0  0  0  0  0
    7.7743    6.0769    3.6051 C   0  0  2  0  0  0  0  0  0  0  0  0
    7.2813    6.0987    4.9673 O   0  0  0  0  0  0  0  0  0  0  0  0
    3.1686    7.7067    2.6014 C   0  0  2  0  0  0  0  0  0  0  0  0
    2.5981    6.3263    2.5971 N   0  0  0  0  0  0  0  0  0  0  0  0
    5.0888    0.6687    4.7540 C   0  0  1  0  0  0  0  0  0  0  0  0
    3.6997    0.6398    5.0862 O   0  0  0  0  0  0  0  0  0  0  0  0
    9.8092    1.7097    6.0990 C   0  0  2  0  0  0  0  0  0  0  0  0
    9.4035    0.2921    6.2977 N   0  0  0  0  0  0  0  0  0  0  0  0
    6.9448    6.8623    2.5880 C   0  0  2  0  0  0  0  0  0  0  0  0
    5.5186    6.8243    2.9127 O   0  0  0  0  0  0  0  0  0  0  0  0
    2.3349    8.6769    1.6368 C   0  0  1  0  0  0  0  0  0  0  0  0
    2.6656   10.0477    1.9538 O   0  0  0  0  0  0  0  0  0  0  0  0
    5.4707   -0.5037    3.8219 C   0  0  2  0  0  0  0  0  0  0  0  0
    5.1309   -1.7322    4.4217 O   0  0  0  0  0  0  0  0  0  0  0  0
    9.1704    2.2617    4.7637 C   0  0  2  0  0  0  0  0  0  0  0  0
    7.2228    6.2131    1.2218 C   0  0  2  0  0  0  0  0  0  0  0  0
    7.4711    4.8503    1.5584 O   0  0  0  0  0  0  0  0  0  0  0  0
    2.6176    8.4028    0.0836 C   0  0  2  0  0  0  0  0  0  0  0  0
    2.0479    7.1353   -0.2409 O   0  0  0  0  0  0  0  0  0  0  0  0
    7.0059   -0.4397    3.5238 C   0  0  2  0  0  0  0  0  0  0  0  0
    7.3348    0.8472    2.9111 O   0  0  0  0  0  0  0  0  0  0  0  0
    9.5582    3.7288    4.4762 C   0  0  2  0  0  0  0  0  0  0  0  0
    9.0466    4.0049    3.1433 O   0  0  0  0  0  0  0  0  0  0  0  0
    8.4231    6.8245    0.4346 C   0  0  0  0  0  0  0  0  0  0  0  0
    9.6164    6.6615    1.1952 O   0  0  0  0  0  0  0  0  0  0  0  0
    4.1661    8.3950   -0.2066 C   0  0  1  0  0  0  0  0  0  0  0  0
    4.7420    7.3629    0.6727 O   0  0  0  0  0  0  0  0  0  0  0  0
    7.4676   -1.5511    2.6098 C   0  0  0  0  0  0  0  0  0  0  0  0
    8.8662   -1.5091    2.4635 O   0  0  0  0  0  0  0  0  0  0  0  0
   11.1346    3.8985    4.5196 C   0  0  1  0  0  0  0  0  0  0  0  0
   11.4854    5.2803    4.4043 O   0  0  0  0  0  0  0  0  0  0  0  0
    4.5393    8.0957   -1.7231 C   0  0  0  0  0  0  0  0  0  0  0  0
    5.9941    8.1004   -2.0394 N   0  0  0  0  0  0  0  0  0  0  0  0
  1  2  1  1  0  0  0
  1  7  1  0  0  0  0
  1 30  1  0  0  0  0
  3  4  1  6  0  0  0
  3  9  1  0  0  0  0
  3 39  1  0  0  0  0
  5 10  1  0  0  0  0
  5 26  1  0  0  0  0
  5 32  1  6  0  0  0
  6 12  1  0  0  0  0
  6 36  1  0  0  0  0
  6 19  1  1  0  0  0
  7  8  1  1  0  0  0
  7 14  1  0  0  0  0
  9 16  1  0  0  0  0
 10 11  1  1  0  0  0
 10 18  1  0  0  0  0
 12 13  1  6  0  0  0
 12 20  1  0  0  0  0
 14 15  1  6  0  0  0
 14 22  1  0  0  0  0
 16 17  1  6  0  0  0
 16 24  1  0  0  0  0
 18 19  1  1  0  0  0
 18 25  1  0  0  0  0
 20 21  1  1  0  0  0
 20 27  1  0  0  0  0
 22 23  1  1  0  0  0
 22 29  1  0  0  0  0
 24  2  1  1  0  0  0
 24 31  1  0  0  0  0
 25 26  1  0  0  0  0
 25 33  1  1  0  0  0
 27 28  1  1  0  0  0
 27 35  1  0  0  0  0
 29 30  1  0  0  0  0
 29 37  1  6  0  0  0
 31 32  1  6  0  0  0
 31 39  1  0  0  0  0
 33 34  1  0  0  0  0
 35 36  1  0  0  0  0
 35 41  1  6  0  0  0
 37 38  1  0  0  0  0
 39 40  1  1  0  0  0
 41 42  1  0  0  0  0
M  END
>  <CHROM.1>
-179.29764633,-154.17911136,170.70602927,-175.46208078,61.06977397,-175.26705413
97.02599079,60.29760372,179.12520698,6.87001132,4.24569761,3.02257807,1.00515112
0.26402019,2.78400072

>  <Name>
ligand

>  <RI>
0

>  <Rbt.Current_Directory>
/home/itssahil/PROJECTS/Mol_Feturizer/Test_systems_manuscript/rnas/2o3w

>  <Rbt.Executable>
rbdock ($Id: //depot/dev/client3/rdock/2013.1/src/exe/rbdock.cxx#4 $)

>  <Rbt.Library>
libRbt.so (2013.1, Build901 2013/11/27)

>  <Rbt.Parameter_File>
/export/apps/rDock/src/rDock_2013.1_src/data/scripts/dock_solv.prm

>  <Rbt.Receptor>
prm/pocket_docking_3.prm

>  <SCORE>
-9.32258

>  <SCORE.INTER>
-0.168298

>  <SCORE.INTER.CONST>
1

>  <SCORE.INTER.POLAR>
0

>  <SCORE.INTER.ROT>
9

>  <SCORE.INTER.SOLV>
13.0952

>  <SCORE.INTER.VDW>
-14.0773

>  <SCORE.INTER.norm>
-0.0040071

>  <SCORE.INTRA>
-9.15428

>  <SCORE.INTRA.DIHEDRAL>
-19.4596

>  <SCORE.INTRA.DIHEDRAL.0>
27.8999

>  <SCORE.INTRA.POLAR>
0

>  <SCORE.INTRA.POLAR.0>
0

>  <SCORE.INTRA.REPUL>
0

>  <SCORE.INTRA.REPUL.0>
0

>  <SCORE.INTRA.SOLV>
-2.56072

>  <SCORE.INTRA.SOLV.lig_0>
-104.479

>  <SCORE.INTRA.VDW>
1.8559

>  <SCORE.INTRA.VDW.0>
-6.17816

>  <SCORE.INTRA.norm>
-0.217959

>  <SCORE.RESTR>
0

>  <SCORE.RESTR.CAVITY>
0

>  <SCORE.RESTR.norm>
0

>  <SCORE.SYSTEM>
0

>  <SCORE.SYSTEM.CONST>
0

>  <SCORE.SYSTEM.DIHEDRAL>
0

>  <SCORE.SYSTEM.SOLV>
0

>  <SCORE.SYSTEM.norm>
0

>  <SCORE.heavy>
42

>  <SCORE.norm>
-0.221966

>  <RMSD>
2.909

$$$$
ligand
 OpenBabel02271912133D
libRbt.so/2013.1/901 2013/11/27
 42 45  0  0  0  0  0  0  0  0999 V2000
    8.7863    0.0135    5.7960 C   0  0  2  0  0  0  0  0  0  0  0  0
    9.6946    0.0043    4.6814 O   0  0  0  0  0  0  0  0  0  0  0  0
   12.5637    2.8524    6.2475 C   0  0  2  0  0  0  0  0  0  0  0  0
   13.7641    3.7257    6.4111 N   0  0  0  0  0  0  0  0  0  0  0  0
    8.9437    3.3264    3.0069 C   0  0  1  0  0  0  0  0  0  0  0  0
    6.5228    6.8535    1.8244 C   0  0  1  0  0  0  0  0  0  0  0  0
    7.8200   -1.1940    5.6054 C   0  0  2  0  0  0  0  0  0  0  0  0
    8.5364   -2.4511    5.3282 N   0  0  0  0  0  0  0  0  0  0  0  0
   12.9605    1.3214    6.2696 C   0  0  0  0  0  0  0  0  0  0  0  0
    9.2311    4.7870    3.4704 C   0  0  2  0  0  0  0  0  0  0  0  0
    8.7721    5.0804    4.8129 O   0  0  0  0  0  0  0  0  0  0  0  0
    7.0847    8.3142    1.9639 C   0  0  2  0  0  0  0  0  0  0  0  0
    7.0341    8.7719    3.3847 N   0  0  0  0  0  0  0  0  0  0  0  0
    6.8360   -0.9768    4.4411 C   0  0  1  0  0  0  0  0  0  0  0  0
    5.9456   -2.0883    4.3286 O   0  0  0  0  0  0  0  0  0  0  0  0
   11.6545    0.4535    6.1160 C   0  0  2  0  0  0  0  0  0  0  0  0
   11.9896   -0.9957    6.1472 N   0  0  0  0  0  0  0  0  0  0  0  0
    8.5645    5.5901    2.3524 C   0  0  2  0  0  0  0  0  0  0  0  0
    7.1652    5.8844    2.6621 O   0  0  0  0  0  0  0  0  0  0  0  0
    6.2482    9.2955    1.0130 C   0  0  1  0  0  0  0  0  0  0  0  0
    6.6271    9.0508   -0.3601 O   0  0  0  0  0  0  0  0  0  0  0  0
    6.0644    0.3449    4.6578 C   0  0  2  0  0  0  0  0  0  0  0  0
    5.1471    0.5500    3.6086 O   0  0  0  0  0  0  0  0  0  0  0  0
   10.9132    0.7972    4.7639 C   0  0  2  0  0  0  0  0  0  0  0  0
    8.6854    4.7309    1.0825 C   0  0  2  0  0  0  0  0  0  0  0  0
    8.6561    3.3996    1.5916 O   0  0  0  0  0  0  0  0  0  0  0  0
    4.6640    9.1149    1.1722 C   0  0  2  0  0  0  0  0  0  0  0  0
    4.3018    9.6058    2.4622 O   0  0  0  0  0  0  0  0  0  0  0  0
    7.0877    1.5264    4.7367 C   0  0  2  0  0  0  0  0  0  0  0  0
    8.0339    1.2858    5.8260 O   0  0  0  0  0  0  0  0  0  0  0  0
   10.5437    2.2922    4.6467 C   0  0  2  0  0  0  0  0  0  0  0  0
   10.0488    2.4581    3.2895 O   0  0  0  0  0  0  0  0  0  0  0  0
    9.9739    4.9809    0.2389 C   0  0  0  0  0  0  0  0  0  0  0  0
   10.0650    6.3657   -0.0816 O   0  0  0  0  0  0  0  0  0  0  0  0
    4.2608    7.5983    1.0330 C   0  0  1  0  0  0  0  0  0  0  0  0
    5.0275    6.8749    2.0621 O   0  0  0  0  0  0  0  0  0  0  0  0
    6.4170    2.8630    4.9551 C   0  0  0  0  0  0  0  0  0  0  0  0
    5.5527    3.1526    3.8834 O   0  0  0  0  0  0  0  0  0  0  0  0
   11.8244    3.1951    4.8924 C   0  0  1  0  0  0  0  0  0  0  0  0
   11.4540    4.5759    4.9341 O   0  0  0  0  0  0  0  0  0  0  0  0
    2.7049    7.3228    1.2117 C   0  0  0  0  0  0  0  0  0  0  0  0
    2.1186    7.7670    2.5061 N   0  0  0  0  0  0  0  0  0  0  0  0
  1  2  1  6  0  0  0
  1  7  1  0  0  0  0
  1 30  1  0  0  0  0
  3  4  1  6  0  0  0
  3  9  1  0  0  0  0
  3 39  1  0  0  0  0
  5 10  1  0  0  0  0
  5 26  1  0  0  0  0
  5 32  1  6  0  0  0
  6 12  1  0  0  0  0
  6 36  1  0  0  0  0
  6 19  1  1  0  0  0
  7  8  1  6  0  0  0
  7 14  1  0  0  0  0
  9 16  1  0  0  0  0
 10 11  1  1  0  0  0
 10 18  1  0  0  0  0
 12 13  1  1  0  0  0
 12 20  1  0  0  0  0
 14 15  1  1  0  0  0
 14 22  1  0  0  0  0
 16 17  1  6  0  0  0
 16 24  1  0  0  0  0
 18 19  1  1  0  0  0
 18 25  1  0  0  0  0
 20 21  1  6  0  0  0
 20 27  1  0  0  0  0
 22 23  1  6  0  0  0
 22 29  1  0  0  0  0
 24  2  1  1  0  0  0
 24 31  1  0  0  0  0
 25 26  1  0  0  0  0
 25 33  1  1  0  0  0
 27 28  1  1  0  0  0
 27 35  1  0  0  0  0
 29 30  1  0  0  0  0
 29 37  1  1  0  0  0
 31 32  1  6  0  0  0
 31 39  1  0  0  0  0
 33 34  1  0  0  0  0
 35 36  1  0  0  0  0
 35 41  1  1  0  0  0
 37 38  1  0  0  0  0
 39 40  1  1  0  0  0
 41 42  1  0  0  0  0
M  END
>  <CHROM.1>
-164.35009565,51.10633865,167.74053539,-66.91201197,-54.93682082,-61.20941150
141.86165460,58.00534910,-57.81306880,8.07178086,3.78784641,3.52475952,1.08174758
0.17249968,2.76480593

>  <Name>
ligand

>  <RI>
0

>  <Rbt.Current_Directory>
/home/itssahil/PROJECTS/Mol_Feturizer/Test_systems_manuscript/rnas/2o3w

>  <Rbt.Executable>
rbdock ($Id: //depot/dev/client3/rdock/2013.1/src/exe/rbdock.cxx#4 $)

>  <Rbt.Library>
libRbt.so (2013.1, Build901 2013/11/27)

>  <Rbt.Parameter_File>
/export/apps/rDock/src/rDock_2013.1_src/data/scripts/dock_solv.prm

>  <Rbt.Receptor>
prm/pocket_docking_3.prm

>  <SCORE>
-10.2227

>  <SCORE.INTER>
-1.41781

>  <SCORE.INTER.CONST>
1

>  <SCORE.INTER.POLAR>
0

>  <SCORE.INTER.ROT>
9

>  <SCORE.INTER.SOLV>
16.7838

>  <SCORE.INTER.VDW>
-16.1398

>  <SCORE.INTER.norm>
-0.0337573

>  <SCORE.INTRA>
-8.80752

>  <SCORE.INTRA.DIHEDRAL>
-20.0717

>  <SCORE.INTRA.DIHEDRAL.0>
27.8999

>  <SCORE.INTRA.POLAR>
0

>  <SCORE.INTRA.POLAR.0>
0

>  <SCORE.INTRA.REPUL>
0.0223451

>  <SCORE.INTRA.REPUL.0>
0

>  <SCORE.INTRA.SOLV>
-0.738337

>  <SCORE.INTRA.SOLV.lig_0>
-104.479

>  <SCORE.INTRA.VDW>
1.48576

>  <SCORE.INTRA.VDW.0>
-6.17816

>  <SCORE.INTRA.norm>
-0.209703

>  <SCORE.RESTR>
0.0026658

>  <SCORE.RESTR.CAVITY>
0.0026658

>  <SCORE.RESTR.norm>
6.34715e-05

>  <SCORE.SYSTEM>
0

>  <SCORE.SYSTEM.CONST>
0

>  <SCORE.SYSTEM.DIHEDRAL>
0

>  <SCORE.SYSTEM.SOLV>
0

>  <SCORE.SYSTEM.norm>
0

>  <SCORE.heavy>
42

>  <SCORE.norm>
-0.243397

>  <RMSD>
2.913

$$$$
ligand
 OpenBabel02271912133D
libRbt.so/2013.1/901 2013/11/27
 42 45  0  0  0  0  0  0  0  0999 V2000
    7.3823   -1.2023    4.7519 C   0  0  2  0  0  0  0  0  0  0  0  0
    8.3045   -1.1127    3.6524 O   0  0  0  0  0  0  0  0  0  0  0  0
   11.5483    0.8820    5.7248 C   0  0  2  0  0  0  0  0  0  0  0  0
   12.8816    1.4627    6.0645 N   0  0  0  0  0  0  0  0  0  0  0  0
    8.3694    2.4605    2.3735 C   0  0  1  0  0  0  0  0  0  0  0  0
    6.8462    6.5652    1.5100 C   0  0  1  0  0  0  0  0  0  0  0  0
    6.1094   -1.9272    4.2202 C   0  0  2  0  0  0  0  0  0  0  0  0
    6.4288   -3.1740    3.5031 N   0  0  0  0  0  0  0  0  0  0  0  0
   11.6286   -0.6905    5.5746 C   0  0  0  0  0  0  0  0  0  0  0  0
    8.9462    3.7850    2.9600 C   0  0  2  0  0  0  0  0  0  0  0  0
    8.5128    4.0683    4.3131 O   0  0  0  0  0  0  0  0  0  0  0  0
    7.7196    7.8152    1.8888 C   0  0  2  0  0  0  0  0  0  0  0  0
    7.6861    8.0628    3.3614 N   0  0  0  0  0  0  0  0  0  0  0  0
    5.3004   -1.0495    3.2476 C   0  0  1  0  0  0  0  0  0  0  0  0
    4.1246   -1.7374    2.8175 O   0  0  0  0  0  0  0  0  0  0  0  0
   10.1924   -1.2452    5.2395 C   0  0  2  0  0  0  0  0  0  0  0  0
   10.2281   -2.7265    5.1054 N   0  0  0  0  0  0  0  0  0  0  0  0
    8.5077    4.7955    1.8989 C   0  0  2  0  0  0  0  0  0  0  0  0
    7.1936    5.3613    2.2053 O   0  0  0  0  0  0  0  0  0  0  0  0
    7.1935    9.0930    1.0782 C   0  0  1  0  0  0  0  0  0  0  0  0
    7.5919    8.9652   -0.3053 O   0  0  0  0  0  0  0  0  0  0  0  0
    4.9512    0.2916    3.9322 C   0  0  2  0  0  0  0  0  0  0  0  0
    4.1958    1.1003    3.0604 O   0  0  0  0  0  0  0  0  0  0  0  0
    9.6460   -0.6048    3.9027 C   0  0  2  0  0  0  0  0  0  0  0  0
    8.4872    4.0291    0.5656 C   0  0  2  0  0  0  0  0  0  0  0  0
    8.1551    2.7011    0.9638 O   0  0  0  0  0  0  0  0  0  0  0  0
    5.6036    9.2726    1.1637 C   0  0  2  0  0  0  0  0  0  0  0  0
    5.2835    9.6450    2.5036 O   0  0  0  0  0  0  0  0  0  0  0  0
    6.2765    1.0134    4.3471 C   0  0  2  0  0  0  0  0  0  0  0  0
    7.0465    0.1510    5.2433 O   0  0  0  0  0  0  0  0  0  0  0  0
    9.5929    0.9378    3.9556 C   0  0  2  0  0  0  0  0  0  0  0  0
    9.2519    1.3548    2.6049 O   0  0  0  0  0  0  0  0  0  0  0  0
    9.8287    4.0574   -0.2305 C   0  0  0  0  0  0  0  0  0  0  0  0
   10.1991    5.4100   -0.4801 O   0  0  0  0  0  0  0  0  0  0  0  0
    4.8713    7.9312    0.7808 C   0  0  1  0  0  0  0  0  0  0  0  0
    5.3840    6.9065    1.7067 O   0  0  0  0  0  0  0  0  0  0  0  0
    6.0277    2.3369    5.0329 C   0  0  0  0  0  0  0  0  0  0  0  0
    5.3551    3.2148    4.1633 O   0  0  0  0  0  0  0  0  0  0  0  0
   11.0039    1.5213    4.3848 C   0  0  1  0  0  0  0  0  0  0  0  0
   10.9142    2.9352    4.5807 O   0  0  0  0  0  0  0  0  0  0  0  0
    3.2857    8.0102    0.8718 C   0  0  0  0  0  0  0  0  0  0  0  0
    2.7313    8.2404    2.2342 N   0  0  0  0  0  0  0  0  0  0  0  0
  1  2  1  6  0  0  0
  1  7  1  0  0  0  0
  1 30  1  0  0  0  0
  3  4  1  6  0  0  0
  3  9  1  0  0  0  0
  3 39  1  0  0  0  0
  5 10  1  0  0  0  0
  5 26  1  0  0  0  0
  5 32  1  6  0  0  0
  6 12  1  0  0  0  0
  6 36  1  0  0  0  0
  6 19  1  1  0  0  0
  7  8  1  6  0  0  0
  7 14  1  0  0  0  0
  9 16  1  0  0  0  0
 10 11  1  1  0  0  0
 10 18  1  0  0  0  0
 12 13  1  1  0  0  0
 12 20  1  0  0  0  0
 14 15  1  1  0  0  0
 14 22  1  0  0  0  0
 16 17  1  6  0  0  0
 16 24  1  0  0  0  0
 18 19  1  1  0  0  0
 18 25  1  0  0  0  0
 20 21  1  6  0  0  0
 20 27  1  0  0  0  0
 22 23  1  6  0  0  0
 22 29  1  0  0  0  0
 24  2  1  1  0  0  0
 24 31  1  0  0  0  0
 25 26  1  0  0  0  0
 25 33  1  1  0  0  0
 27 28  1  1  0  0  0
 27 35  1  0  0  0  0
 29 30  1  0  0  0  0
 29 37  1  1  0  0  0
 31 32  1  6  0  0  0
 31 39  1  0  0  0  0
 33 34  1  0  0  0  0
 35 36  1  0  0  0  0
 35 41  1  1  0  0  0
 37 38  1  0  0  0  0
 39 40  1  1  0  0  0
 41 42  1  0  0  0  0
M  END
>  <CHROM.1>
-173.44935787,43.10127061,163.20518950,-66.54335115,-57.16467003,-61.49161891
141.90178795,61.40366690,-64.35526561,7.61405924,3.09579554,2.99295196,1.30442392
0.10535017,2.82654926

>  <Name>
ligand

>  <RI>
0

>  <Rbt.Current_Directory>
/home/itssahil/PROJECTS/Mol_Feturizer/Test_systems_manuscript/rnas/2o3w

>  <Rbt.Executable>
rbdock ($Id: //depot/dev/client3/rdock/2013.1/src/exe/rbdock.cxx#4 $)

>  <Rbt.Library>
libRbt.so (2013.1, Build901 2013/11/27)

>  <Rbt.Parameter_File>
/export/apps/rDock/src/rDock_2013.1_src/data/scripts/dock_solv.prm

>  <Rbt.Receptor>
prm/pocket_docking_6.prm

>  <SCORE>
-10.8882

>  <SCORE.INTER>
-1.95603

>  <SCORE.INTER.CONST>
1

>  <SCORE.INTER.POLAR>
0

>  <SCORE.INTER.ROT>
9

>  <SCORE.INTER.SOLV>
14.7011

>  <SCORE.INTER.VDW>
-15.8044

>  <SCORE.INTER.norm>
-0.0465722

>  <SCORE.INTRA>
-8.93212

>  <SCORE.INTRA.DIHEDRAL>
-19.5395

>  <SCORE.INTRA.DIHEDRAL.0>
27.8999

>  <SCORE.INTRA.POLAR>
0

>  <SCORE.INTRA.POLAR.0>
0

>  <SCORE.INTRA.REPUL>
0

>  <SCORE.INTRA.REPUL.0>
0

>  <SCORE.INTRA.SOLV>
-1.2517

>  <SCORE.INTRA.SOLV.lig_0>
-104.479

>  <SCORE.INTRA.VDW>
1.46349

>  <SCORE.INTRA.VDW.0>
-6.17816

>  <SCORE.INTRA.norm>
-0.21267

>  <SCORE.RESTR>
0

>  <SCORE.RESTR.CAVITY>
0

>  <SCORE.RESTR.norm>
0

>  <SCORE.SYSTEM>
0

>  <SCORE.SYSTEM.CONST>
0

>  <SCORE.SYSTEM.DIHEDRAL>
0

>  <SCORE.SYSTEM.SOLV>
0

>  <SCORE.SYSTEM.norm>
0

>  <SCORE.heavy>
42

>  <SCORE.norm>
-0.259242

>  <RMSD>
2.926

$$$$
ligand
 OpenBabel02271912133D
libRbt.so/2013.1/901 2013/11/27
 42 45  0  0  0  0  0  0  0  0999 V2000
    7.8966   -0.5029    2.8109 C   0  0  2  0  0  0  0  0  0  0  0  0
    7.8857   -0.5900    4.2461 O   0  0  0  0  0  0  0  0  0  0  0  0
    8.5889    2.3133    7.3881 C   0  0  2  0  0  0  0  0  0  0  0  0
    9.1992    3.3846    8.2309 N   0  0  0  0  0  0  0  0  0  0  0  0
    6.9829    3.2293    3.0780 C   0  0  1  0  0  0  0  0  0  0  0  0
    6.5828    6.5886    0.8673 C   0  0  1  0  0  0  0  0  0  0  0  0
    7.1365   -1.7525    2.2734 C   0  0  2  0  0  0  0  0  0  0  0  0
    5.8308   -1.9432    2.9287 N   0  0  0  0  0  0  0  0  0  0  0  0
    9.4869    1.0113    7.3757 C   0  0  0  0  0  0  0  0  0  0  0  0
    7.5691    3.8680    1.7822 C   0  0  2  0  0  0  0  0  0  0  0  0
    8.4237    5.0127    2.0240 O   0  0  0  0  0  0  0  0  0  0  0  0
    6.0848    7.9915    1.3701 C   0  0  2  0  0  0  0  0  0  0  0  0
    4.6722    8.2373    0.9518 N   0  0  0  0  0  0  0  0  0  0  0  0
    7.9324   -3.0543    2.4805 C   0  0  1  0  0  0  0  0  0  0  0  0
    7.2174   -4.1660    1.9385 O   0  0  0  0  0  0  0  0  0  0  0  0
    8.7822   -0.0863    6.4918 C   0  0  2  0  0  0  0  0  0  0  0  0
    9.5944   -1.3327    6.4697 N   0  0  0  0  0  0  0  0  0  0  0  0
    6.2934    4.1502    0.9870 C   0  0  2  0  0  0  0  0  0  0  0  0
    5.7649    5.4842    1.2733 O   0  0  0  0  0  0  0  0  0  0  0  0
    7.0588    9.1316    0.8058 C   0  0  1  0  0  0  0  0  0  0  0  0
    8.3094    9.0772    1.5281 O   0  0  0  0  0  0  0  0  0  0  0  0
    9.3295   -2.9127    1.8345 C   0  0  2  0  0  0  0  0  0  0  0  0
   10.0649   -4.1027    2.0009 O   0  0  0  0  0  0  0  0  0  0  0  0
    8.5738    0.4369    5.0157 C   0  0  2  0  0  0  0  0  0  0  0  0
    5.2912    3.0554    1.3898 C   0  0  2  0  0  0  0  0  0  0  0  0
    5.6561    2.7660    2.7372 O   0  0  0  0  0  0  0  0  0  0  0  0
    7.3404    8.9877   -0.7651 C   0  0  2  0  0  0  0  0  0  0  0  0
    6.1275    9.2970   -1.4504 O   0  0  0  0  0  0  0  0  0  0  0  0
   10.0761   -1.7047    2.4924 C   0  0  2  0  0  0  0  0  0  0  0  0
    9.2892   -0.4844    2.3149 O   0  0  0  0  0  0  0  0  0  0  0  0
    7.7502    1.7419    4.9536 C   0  0  2  0  0  0  0  0  0  0  0  0
    7.8165    2.1696    3.5653 O   0  0  0  0  0  0  0  0  0  0  0  0
    5.3325    1.7687    0.5084 C   0  0  0  0  0  0  0  0  0  0  0  0
    5.0337    2.1130   -0.8411 O   0  0  0  0  0  0  0  0  0  0  0  0
    7.8060    7.5236   -1.1144 C   0  0  1  0  0  0  0  0  0  0  0  0
    6.7362    6.6295   -0.6386 O   0  0  0  0  0  0  0  0  0  0  0  0
   11.4551   -1.4882    1.9134 C   0  0  0  0  0  0  0  0  0  0  0  0
   12.0879   -0.4096    2.5579 O   0  0  0  0  0  0  0  0  0  0  0  0
    8.3837    2.8369    5.9102 C   0  0  1  0  0  0  0  0  0  0  0  0
    7.5386    3.9894    5.9687 O   0  0  0  0  0  0  0  0  0  0  0  0
    8.0760    7.2821   -2.6628 C   0  0  0  0  0  0  0  0  0  0  0  0
    6.8988    7.4636   -3.5560 N   0  0  0  0  0  0  0  0  0  0  0  0
  1  2  1  1  0  0  0
  1  7  1  0  0  0  0
  1 30  1  0  0  0  0
  3  4  1  1  0  0  0
  3  9  1  0  0  0  0
  3 39  1  0  0  0  0
  5 10  1  0  0  0  0
  5 26  1  0  0  0  0
  5 32  1  6  0  0  0
  6 12  1  0  0  0  0
  6 36  1  0  0  0  0
  6 19  1  6  0  0  0
  7  8  1  1  0  0  0
  7 14  1  0  0  0  0
  9 16  1  0  0  0  0
 10 11  1  1  0  0  0
 10 18  1  0  0  0  0
 12 13  1  6  0  0  0
 12 20  1  0  0  0  0
 14 15  1  6  0  0  0
 14 22  1  0  0  0  0
 16 17  1  6  0  0  0
 16 24  1  0  0  0  0
 18 19  1  1  0  0  0
 18 25  1  0  0  0  0
 20 21  1  1  0  0  0
 20 27  1  0  0  0  0
 22 23  1  1  0  0  0
 22 29  1  0  0  0  0
 24  2  1  6  0  0  0
 24 31  1  0  0  0  0
 25 26  1  0  0  0  0
 25 33  1  6  0  0  0
 27 28  1  6  0  0  0
 27 35  1  0  0  0  0
 29 30  1  0  0  0  0
 29 37  1  6  0  0  0
 31 32  1  6  0  0  0
 31 39  1  0  0  0  0
 33 34  1  0  0  0  0
 35 36  1  0  0  0  0
 35 41  1  6  0  0  0
 37 38  1  0  0  0  0
 39 40  1  1  0  0  0
 41 42  1  0  0  0  0
M  END
>  <CHROM.1>
177.91044520,-163.70136307,65.30412024,-171.71967014,-60.39218427,-178.85553642
169.48212397,158.57035122,-61.78422789,7.71507837,2.68652202,2.33932695,0.54855837
1.31547403,-2.55609131

>  <Name>
ligand

>  <RI>
0

>  <Rbt.Current_Directory>
/home/itssahil/PROJECTS/Mol_Feturizer/Test_systems_manuscript/rnas/2o3w

>  <Rbt.Executable>
rbdock ($Id: //depot/dev/client3/rdock/2013.1/src/exe/rbdock.cxx#4 $)

>  <Rbt.Library>
libRbt.so (2013.1, Build901 2013/11/27)

>  <Rbt.Parameter_File>
/export/apps/rDock/src/rDock_2013.1_src/data/scripts/dock_solv.prm

>  <Rbt.Receptor>
prm/pocket_docking_4.prm

>  <SCORE>
-10.4355

>  <SCORE.INTER>
1.02514

>  <SCORE.INTER.CONST>
1

>  <SCORE.INTER.POLAR>
0

>  <SCORE.INTER.ROT>
9

>  <SCORE.INTER.SOLV>
10.9681

>  <SCORE.INTER.VDW>
-12.5726

>  <SCORE.INTER.norm>
0.0244081

>  <SCORE.INTRA>
-11.4675

>  <SCORE.INTRA.DIHEDRAL>
-23.4555

>  <SCORE.INTRA.DIHEDRAL.0>
27.8999

>  <SCORE.INTRA.POLAR>
0

>  <SCORE.INTRA.POLAR.0>
0

>  <SCORE.INTRA.REPUL>
0

>  <SCORE.INTRA.REPUL.0>
0

>  <SCORE.INTRA.SOLV>
-4.32276

>  <SCORE.INTRA.SOLV.lig_0>
-104.479

>  <SCORE.INTRA.VDW>
2.42161

>  <SCORE.INTRA.VDW.0>
-6.17816

>  <SCORE.INTRA.norm>
-0.273036

>  <SCORE.RESTR>
0.00684116

>  <SCORE.RESTR.CAVITY>
0.00684116

>  <SCORE.RESTR.norm>
0.000162885

>  <SCORE.SYSTEM>
0

>  <SCORE.SYSTEM.CONST>
0

>  <SCORE.SYSTEM.DIHEDRAL>
0

>  <SCORE.SYSTEM.SOLV>
0

>  <SCORE.SYSTEM.norm>
0

>  <SCORE.heavy>
42

>  <SCORE.norm>
-0.248465

>  <RMSD>
2.937

$$$$
ligand
 OpenBabel02271912133D
libRbt.so/2013.1/901 2013/11/27
 42 45  0  0  0  0  0  0  0  0999 V2000
    8.0753   -0.7403    3.3295 C   0  0  2  0  0  0  0  0  0  0  0  0
    9.1070   -0.2300    2.4679 O   0  0  0  0  0  0  0  0  0  0  0  0
   11.3610    1.9645    5.4511 C   0  0  2  0  0  0  0  0  0  0  0  0
   12.4251    2.7533    6.1411 N   0  0  0  0  0  0  0  0  0  0  0  0
    8.3790    3.4411    1.8751 C   0  0  1  0  0  0  0  0  0  0  0  0
    5.9095    7.0450    1.1799 C   0  0  1  0  0  0  0  0  0  0  0  0
    7.0844   -1.5382    2.4296 C   0  0  2  0  0  0  0  0  0  0  0  0
    7.7707   -2.5029    1.5528 N   0  0  0  0  0  0  0  0  0  0  0  0
   11.8840    0.5283    5.0440 C   0  0  0  0  0  0  0  0  0  0  0  0
    8.5574    4.7768    2.6593 C   0  0  2  0  0  0  0  0  0  0  0  0
    7.9654    4.7674    3.9816 O   0  0  0  0  0  0  0  0  0  0  0  0
    6.3987    8.4781    1.5993 C   0  0  2  0  0  0  0  0  0  0  0  0
    6.2228    8.6935    3.0668 N   0  0  0  0  0  0  0  0  0  0  0  0
    6.2550   -0.6179    1.5151 C   0  0  1  0  0  0  0  0  0  0  0  0
    5.3346   -1.3866    0.7388 O   0  0  0  0  0  0  0  0  0  0  0  0
   10.7142   -0.2610    4.3432 C   0  0  2  0  0  0  0  0  0  0  0  0
   11.1678   -1.6249    3.9590 N   0  0  0  0  0  0  0  0  0  0  0  0
    7.9601    5.7821    1.6734 C   0  0  2  0  0  0  0  0  0  0  0  0
    6.5266    5.9696    1.8984 O   0  0  0  0  0  0  0  0  0  0  0  0
    5.5960    9.5786    0.7558 C   0  0  1  0  0  0  0  0  0  0  0  0
    6.0866    9.5745   -0.6037 O   0  0  0  0  0  0  0  0  0  0  0  0
    5.5240    0.4392    2.3737 C   0  0  2  0  0  0  0  0  0  0  0  0
    4.7467    1.2795    1.5527 O   0  0  0  0  0  0  0  0  0  0  0  0
   10.2114    0.5116    3.0602 C   0  0  2  0  0  0  0  0  0  0  0  0
    8.2344    5.2149    0.2704 C   0  0  2  0  0  0  0  0  0  0  0  0
    8.2184    3.8056    0.4850 O   0  0  0  0  0  0  0  0  0  0  0  0
    4.0132    9.3293    0.7552 C   0  0  2  0  0  0  0  0  0  0  0  0
    3.5354    9.5903    2.0743 O   0  0  0  0  0  0  0  0  0  0  0  0
    6.5834    1.2709    3.1709 C   0  0  2  0  0  0  0  0  0  0  0  0
    7.3830    0.3762    4.0075 O   0  0  0  0  0  0  0  0  0  0  0  0
    9.7362    1.9473    3.3734 C   0  0  2  0  0  0  0  0  0  0  0  0
    9.4915    2.5599    2.0776 O   0  0  0  0  0  0  0  0  0  0  0  0
    9.5819    5.6696   -0.3715 C   0  0  0  0  0  0  0  0  0  0  0  0
   10.6623    5.2524    0.4577 O   0  0  0  0  0  0  0  0  0  0  0  0
    3.6844    7.8456    0.3398 C   0  0  1  0  0  0  0  0  0  0  0  0
    4.4009    6.9844    1.2965 O   0  0  0  0  0  0  0  0  0  0  0  0
    5.9529    2.3290    4.0465 C   0  0  0  0  0  0  0  0  0  0  0  0
    5.1761    1.7261    5.0527 O   0  0  0  0  0  0  0  0  0  0  0  0
   10.8608    2.7372    4.1654 C   0  0  1  0  0  0  0  0  0  0  0  0
   10.3653    4.0110    4.5867 O   0  0  0  0  0  0  0  0  0  0  0  0
    2.1321    7.5004    0.3454 C   0  0  0  0  0  0  0  0  0  0  0  0
    1.3244    8.1571   -0.7189 N   0  0  0  0  0  0  0  0  0  0  0  0
  1  2  1  6  0  0  0
  1  7  1  0  0  0  0
  1 30  1  0  0  0  0
  3  4  1  6  0  0  0
  3  9  1  0  0  0  0
  3 39  1  0  0  0  0
  5 10  1  0  0  0  0
  5 26  1  0  0  0  0
  5 32  1  6  0  0  0
  6 12  1  0  0  0  0
  6 36  1  0  0  0  0
  6 19  1  1  0  0  0
  7  8  1  6  0  0  0
  7 14  1  0  0  0  0
  9 16  1  0  0  0  0
 10 11  1  1  0  0  0
 10 18  1  0  0  0  0
 12 13  1  1  0  0  0
 12 20  1  0  0  0  0
 14 15  1  1  0  0  0
 14 22  1  0  0  0  0
 16 17  1  6  0  0  0
 16 24  1  0  0  0  0
 18 19  1  1  0  0  0
 18 25  1  0  0  0  0
 20 21  1  6  0  0  0
 20 27  1  0  0  0  0
 22 23  1  6  0  0  0
 22 29  1  0  0  0  0
 24  2  1  1  0  0  0
 24 31  1  0  0  0  0
 25 26  1  0  0  0  0
 25 33  1  1  0  0  0
 27 28  1  1  0  0  0
 27 35  1  0  0  0  0
 29 30  1  0  0  0  0
 29 37  1  1  0  0  0
 31 32  1  6  0  0  0
 31 39  1  0  0  0  0
 33 34  1  0  0  0  0
 35 36  1  0  0  0  0
 35 41  1  1  0  0  0
 37 38  1  0  0  0  0
 39 40  1  1  0  0  0
 41 42  1  0  0  0  0
M  END
>  <CHROM.1>
-177.21847752,44.95159661,170.19427363,-66.08206272,60.06629419,64.73647432
141.39339571,68.23792901,69.43832221,7.41934366,3.65690875,2.31201577,1.03761131
0.35872265,3.02250026

>  <Name>
ligand

>  <RI>
0

>  <Rbt.Current_Directory>
/home/itssahil/PROJECTS/Mol_Feturizer/Test_systems_manuscript/rnas/2o3w

>  <Rbt.Executable>
rbdock ($Id: //depot/dev/client3/rdock/2013.1/src/exe/rbdock.cxx#4 $)

>  <Rbt.Library>
libRbt.so (2013.1, Build901 2013/11/27)

>  <Rbt.Parameter_File>
/export/apps/rDock/src/rDock_2013.1_src/data/scripts/dock_solv.prm

>  <Rbt.Receptor>
prm/pocket_docking_6.prm

>  <SCORE>
-11.7712

>  <SCORE.INTER>
-1.71553

>  <SCORE.INTER.CONST>
1

>  <SCORE.INTER.POLAR>
0

>  <SCORE.INTER.ROT>
9

>  <SCORE.INTER.SOLV>
14.3376

>  <SCORE.INTER.VDW>
-15.5229

>  <SCORE.INTER.norm>
-0.0408459

>  <SCORE.INTRA>
-10.0556

>  <SCORE.INTRA.DIHEDRAL>
-20.1247

>  <SCORE.INTRA.DIHEDRAL.0>
27.8999

>  <SCORE.INTRA.POLAR>
0

>  <SCORE.INTRA.POLAR.0>
0

>  <SCORE.INTRA.REPUL>
0

>  <SCORE.INTRA.REPUL.0>
0

>  <SCORE.INTRA.SOLV>
-3.11899

>  <SCORE.INTRA.SOLV.lig_0>
-104.479

>  <SCORE.INTRA.VDW>
1.56623

>  <SCORE.INTRA.VDW.0>
-6.17816

>  <SCORE.INTRA.norm>
-0.23942

>  <SCORE.RESTR>
0

>  <SCORE.RESTR.CAVITY>
0

>  <SCORE.RESTR.norm>
0

>  <SCORE.SYSTEM>
0

>  <SCORE.SYSTEM.CONST>
0

>  <SCORE.SYSTEM.DIHEDRAL>
0

>  <SCORE.SYSTEM.SOLV>
0

>  <SCORE.SYSTEM.norm>
0

>  <SCORE.heavy>
42

>  <SCORE.norm>
-0.280266

>  <RMSD>
2.954

$$$$
ligand
 OpenBabel02271912133D
libRbt.so/2013.1/901 2013/11/27
 42 45  0  0  0  0  0  0  0  0999 V2000
    8.8044   -0.0284    5.7016 C   0  0  2  0  0  0  0  0  0  0  0  0
    9.6835    0.0294    4.5653 O   0  0  0  0  0  0  0  0  0  0  0  0
   12.3967    3.0692    6.0465 C   0  0  2  0  0  0  0  0  0  0  0  0
   13.5613    3.9921    6.1968 N   0  0  0  0  0  0  0  0  0  0  0  0
    8.9024    3.2218    2.6481 C   0  0  1  0  0  0  0  0  0  0  0  0
    6.5619    6.8490    1.3473 C   0  0  1  0  0  0  0  0  0  0  0  0
    7.7310   -1.1147    5.3917 C   0  0  2  0  0  0  0  0  0  0  0  0
    8.3271   -2.3817    4.9336 N   0  0  0  0  0  0  0  0  0  0  0  0
   12.8411    1.5573    6.1832 C   0  0  0  0  0  0  0  0  0  0  0  0
    9.1639    4.7238    2.9746 C   0  0  2  0  0  0  0  0  0  0  0  0
    8.6781    5.1373    4.2754 O   0  0  0  0  0  0  0  0  0  0  0  0
    7.1708    8.2275    1.7922 C   0  0  2  0  0  0  0  0  0  0  0  0
    7.0314    8.4213    3.2666 N   0  0  0  0  0  0  0  0  0  0  0  0
    6.7446   -0.6661    4.2977 C   0  0  1  0  0  0  0  0  0  0  0  0
    5.7571   -1.6740    4.0748 O   0  0  0  0  0  0  0  0  0  0  0  0
   11.5705    0.6369    6.0387 C   0  0  2  0  0  0  0  0  0  0  0  0
   11.9504   -0.7949    6.1769 N   0  0  0  0  0  0  0  0  0  0  0  0
    8.5069    5.4073    1.7744 C   0  0  2  0  0  0  0  0  0  0  0  0
    7.0989    5.7104    2.0321 O   0  0  0  0  0  0  0  0  0  0  0  0
    6.4495    9.4090    0.9857 C   0  0  1  0  0  0  0  0  0  0  0  0
    6.9210    9.3979   -0.3805 O   0  0  0  0  0  0  0  0  0  0  0  0
    6.0980    0.6772    4.7059 C   0  0  2  0  0  0  0  0  0  0  0  0
    5.1795    1.0934    3.7222 O   0  0  0  0  0  0  0  0  0  0  0  0
   10.8719    0.8675    4.6406 C   0  0  2  0  0  0  0  0  0  0  0  0
    8.6602    4.4328    0.5945 C   0  0  2  0  0  0  0  0  0  0  0  0
    8.6383    3.1558    1.2279 O   0  0  0  0  0  0  0  0  0  0  0  0
    4.8517    9.2883    1.0023 C   0  0  2  0  0  0  0  0  0  0  0  0
    4.4132    9.5554    2.3337 O   0  0  0  0  0  0  0  0  0  0  0  0
    7.2233    1.7475    4.8999 C   0  0  2  0  0  0  0  0  0  0  0  0
    8.1684    1.2886    5.9178 O   0  0  0  0  0  0  0  0  0  0  0  0
   10.4596    2.3383    4.4124 C   0  0  2  0  0  0  0  0  0  0  0  0
   10.0129    2.3997    3.0300 O   0  0  0  0  0  0  0  0  0  0  0  0
    9.9599    4.6191   -0.2483 C   0  0  0  0  0  0  0  0  0  0  0  0
    9.9919    5.9411   -0.7777 O   0  0  0  0  0  0  0  0  0  0  0  0
    4.3986    7.8463    0.5579 C   0  0  1  0  0  0  0  0  0  0  0  0
    5.0550    6.9076    1.4843 O   0  0  0  0  0  0  0  0  0  0  0  0
    6.6785    3.0966    5.3082 C   0  0  0  0  0  0  0  0  0  0  0  0
    5.8315    3.6014    4.3047 O   0  0  0  0  0  0  0  0  0  0  0  0
   11.7002    3.2986    4.6456 C   0  0  1  0  0  0  0  0  0  0  0  0
   11.2845    4.6657    4.5833 O   0  0  0  0  0  0  0  0  0  0  0  0
    2.8237    7.6275    0.5779 C   0  0  0  0  0  0  0  0  0  0  0  0
    2.1846    7.6837    1.9214 N   0  0  0  0  0  0  0  0  0  0  0  0
  1  2  1  6  0  0  0
  1  7  1  0  0  0  0
  1 30  1  0  0  0  0
  3  4  1  6  0  0  0
  3  9  1  0  0  0  0
  3 39  1  0  0  0  0
  5 10  1  0  0  0  0
  5 26  1  0  0  0  0
  5 32  1  6  0  0  0
  6 12  1  0  0  0  0
  6 36  1  0  0  0  0
  6 19  1  1  0  0  0
  7  8  1  6  0  0  0
  7 14  1  0  0  0  0
  9 16  1  0  0  0  0
 10 11  1  1  0  0  0
 10 18  1  0  0  0  0
 12 13  1  1  0  0  0
 12 20  1  0  0  0  0
 14 15  1  1  0  0  0
 14 22  1  0  0  0  0
 16 17  1  6  0  0  0
 16 24  1  0  0  0  0
 18 19  1  1  0  0  0
 18 25  1  0  0  0  0
 20 21  1  6  0  0  0
 20 27  1  0  0  0  0
 22 23  1  6  0  0  0
 22 29  1  0  0  0  0
 24  2  1  1  0  0  0
 24 31  1  0  0  0  0
 25 26  1  0  0  0  0
 25 33  1  1  0  0  0
 27 28  1  1  0  0  0
 27 35  1  0  0  0  0
 29 30  1  0  0  0  0
 29 37  1  1  0  0  0
 31 32  1  6  0  0  0
 31 39  1  0  0  0  0
 33 34  1  0  0  0  0
 35 36  1  0  0  0  0
 35 41  1  1  0  0  0
 37 38  1  0  0  0  0
 39 40  1  1  0  0  0
 41 42  1  0  0  0  0
M  END
>  <CHROM.1>
-173.59783212,44.65604013,150.84095197,-66.52676106,-59.05970951,-61.86159327
142.60703187,59.96984553,-65.52861055,8.07371327,3.85566270,3.29097268,1.09843992
0.15240193,2.72010056

>  <Name>
ligand

>  <RI>
0

>  <Rbt.Current_Directory>
/home/itssahil/PROJECTS/Mol_Feturizer/Test_systems_manuscript/rnas/2o3w

>  <Rbt.Executable>
rbdock ($Id: //depot/dev/client3/rdock/2013.1/src/exe/rbdock.cxx#4 $)

>  <Rbt.Library>
libRbt.so (2013.1, Build901 2013/11/27)

>  <Rbt.Parameter_File>
/export/apps/rDock/src/rDock_2013.1_src/data/scripts/dock_solv.prm

>  <Rbt.Receptor>
prm/pocket_docking_4.prm

>  <SCORE>
-11.1765

>  <SCORE.INTER>
-3.35537

>  <SCORE.INTER.CONST>
1

>  <SCORE.INTER.POLAR>
0

>  <SCORE.INTER.ROT>
9

>  <SCORE.INTER.SOLV>
15.9497

>  <SCORE.INTER.VDW>
-17.1535

>  <SCORE.INTER.norm>
-0.0798897

>  <SCORE.INTRA>
-7.82116

>  <SCORE.INTRA.DIHEDRAL>
-17.7459

>  <SCORE.INTRA.DIHEDRAL.0>
27.8999

>  <SCORE.INTRA.POLAR>
0

>  <SCORE.INTRA.POLAR.0>
0

>  <SCORE.INTRA.REPUL>
0

>  <SCORE.INTRA.REPUL.0>
0

>  <SCORE.INTRA.SOLV>
-0.855552

>  <SCORE.INTRA.SOLV.lig_0>
-104.479

>  <SCORE.INTRA.VDW>
1.47954

>  <SCORE.INTRA.VDW.0>
-6.17816

>  <SCORE.INTRA.norm>
-0.186218

>  <SCORE.RESTR>
0

>  <SCORE.RESTR.CAVITY>
0

>  <SCORE.RESTR.norm>
0

>  <SCORE.SYSTEM>
0

>  <SCORE.SYSTEM.CONST>
0

>  <SCORE.SYSTEM.DIHEDRAL>
0

>  <SCORE.SYSTEM.SOLV>
0

>  <SCORE.SYSTEM.norm>
0

>  <SCORE.heavy>
42

>  <SCORE.norm>
-0.266108

>  <RMSD>
2.958

$$$$
ligand
 OpenBabel02271912133D
libRbt.so/2013.1/901 2013/11/27
 42 45  0  0  0  0  0  0  0  0999 V2000
    7.3506    0.6384    3.3758 C   0  0  2  0  0  0  0  0  0  0  0  0
    7.4779    0.5403    4.8046 O   0  0  0  0  0  0  0  0  0  0  0  0
    8.9204    3.0721    8.0148 C   0  0  2  0  0  0  0  0  0  0  0  0
    9.7090    4.0630    8.8064 N   0  0  0  0  0  0  0  0  0  0  0  0
    6.4437    4.5798    4.4399 C   0  0  1  0  0  0  0  0  0  0  0  0
    4.3848    8.0726    2.4377 C   0  0  1  0  0  0  0  0  0  0  0  0
    6.5453   -0.6094    2.9039 C   0  0  2  0  0  0  0  0  0  0  0  0
    5.3091   -0.8092    3.6801 N   0  0  0  0  0  0  0  0  0  0  0  0
    9.8082    1.8295    7.6029 C   0  0  0  0  0  0  0  0  0  0  0  0
    6.5393    5.1997    3.0126 C   0  0  2  0  0  0  0  0  0  0  0  0
    7.6195    6.1522    2.8549 O   0  0  0  0  0  0  0  0  0  0  0  0
    2.8365    7.8507    2.2882 C   0  0  2  0  0  0  0  0  0  0  0  0
    2.5377    6.4549    1.8484 N   0  0  0  0  0  0  0  0  0  0  0  0
    7.3605   -1.9103    3.0233 C   0  0  1  0  0  0  0  0  0  0  0  0
    6.5993   -3.0200    2.5437 O   0  0  0  0  0  0  0  0  0  0  0  0
    8.9183    0.8127    6.7925 C   0  0  2  0  0  0  0  0  0  0  0  0
    9.7196   -0.3780    6.4005 N   0  0  0  0  0  0  0  0  0  0  0  0
    5.1283    5.7639    2.8387 C   0  0  2  0  0  0  0  0  0  0  0  0
    5.0389    7.1452    3.3127 O   0  0  0  0  0  0  0  0  0  0  0  0
    2.2470    8.9197    1.2505 C   0  0  1  0  0  0  0  0  0  0  0  0
    2.2168   10.2183    1.8842 O   0  0  0  0  0  0  0  0  0  0  0  0
    8.6887   -1.7594    2.2473 C   0  0  2  0  0  0  0  0  0  0  0  0
    9.4395   -2.9484    2.3327 O   0  0  0  0  0  0  0  0  0  0  0  0
    8.3234    1.5001    5.5005 C   0  0  2  0  0  0  0  0  0  0  0  0
    4.1990    4.8380    3.6416 C   0  0  2  0  0  0  0  0  0  0  0  0
    5.0352    4.3875    4.7048 O   0  0  0  0  0  0  0  0  0  0  0  0
    3.0968    9.0045   -0.1053 C   0  0  2  0  0  0  0  0  0  0  0  0
    2.8925    7.7857   -0.8189 O   0  0  0  0  0  0  0  0  0  0  0  0
    9.4923   -0.5542    2.8399 C   0  0  2  0  0  0  0  0  0  0  0  0
    8.6891    0.6650    2.7485 O   0  0  0  0  0  0  0  0  0  0  0  0
    7.4879    2.7585    5.8224 C   0  0  2  0  0  0  0  0  0  0  0  0
    7.1829    3.3550    4.5317 O   0  0  0  0  0  0  0  0  0  0  0  0
    3.6149    3.6346    2.8385 C   0  0  0  0  0  0  0  0  0  0  0  0
    4.6833    2.8105    2.3823 O   0  0  0  0  0  0  0  0  0  0  0  0
    4.6279    9.2018    0.2098 C   0  0  1  0  0  0  0  0  0  0  0  0
    5.0196    8.0665    1.0629 O   0  0  0  0  0  0  0  0  0  0  0  0
   10.8087   -0.3291    2.1328 C   0  0  0  0  0  0  0  0  0  0  0  0
   11.6271   -1.4665    2.2581 O   0  0  0  0  0  0  0  0  0  0  0  0
    8.3281    3.7604    6.7202 C   0  0  1  0  0  0  0  0  0  0  0  0
    7.5062    4.8518    7.1432 O   0  0  0  0  0  0  0  0  0  0  0  0
    5.5524    9.2629   -1.0825 C   0  0  0  0  0  0  0  0  0  0  0  0
    7.0181    9.2916   -0.8228 N   0  0  0  0  0  0  0  0  0  0  0  0
  1  2  1  1  0  0  0
  1  7  1  0  0  0  0
  1 30  1  0  0  0  0
  3  4  1  6  0  0  0
  3  9  1  0  0  0  0
  3 39  1  0  0  0  0
  5 10  1  0  0  0  0
  5 26  1  0  0  0  0
  5 32  1  6  0  0  0
  6 12  1  0  0  0  0
  6 36  1  0  0  0  0
  6 19  1  1  0  0  0
  7  8  1  1  0  0  0
  7 14  1  0  0  0  0
  9 16  1  0  0  0  0
 10 11  1  1  0  0  0
 10 18  1  0  0  0  0
 12 13  1  6  0  0  0
 12 20  1  0  0  0  0
 14 15  1  6  0  0  0
 14 22  1  0  0  0  0
 16 17  1  6  0  0  0
 16 24  1  0  0  0  0
 18 19  1  1  0  0  0
 18 25  1  0  0  0  0
 20 21  1  1  0  0  0
 20 27  1  0  0  0  0
 22 23  1  1  0  0  0
 22 29  1  0  0  0  0
 24  2  1  1  0  0  0
 24 31  1  0  0  0  0
 25 26  1  0  0  0  0
 25 33  1  6  0  0  0
 27 28  1  1  0  0  0
 27 35  1  0  0  0  0
 29 30  1  0  0  0  0
 29 37  1  6  0  0  0
 31 32  1  6  0  0  0
 31 39  1  0  0  0  0
 33 34  1  0  0  0  0
 35 36  1  0  0  0  0
 35 41  1  6  0  0  0
 37 38  1  0  0  0  0
 39 40  1  1  0  0  0
 41 42  1  0  0  0  0
M  END
>  <CHROM.1>
172.97645450,-150.26838723,132.79566826,69.35695628,61.26814304,-60.78850577
-178.10446269,166.06601741,-173.27887605,6.57538748,3.62451461,3.31984724
0.44234329,1.02611663,-2.41929255

>  <Name>
ligand

>  <RI>
0

>  <Rbt.Current_Directory>
/home/itssahil/PROJECTS/Mol_Feturizer/Test_systems_manuscript/rnas/2o3w

>  <Rbt.Executable>
rbdock ($Id: //depot/dev/client3/rdock/2013.1/src/exe/rbdock.cxx#4 $)

>  <Rbt.Library>
libRbt.so (2013.1, Build901 2013/11/27)

>  <Rbt.Parameter_File>
/export/apps/rDock/src/rDock_2013.1_src/data/scripts/dock_solv.prm

>  <Rbt.Receptor>
prm/pocket_docking_4.prm

>  <SCORE>
-9.46139

>  <SCORE.INTER>
-2.51137

>  <SCORE.INTER.CONST>
1

>  <SCORE.INTER.POLAR>
0

>  <SCORE.INTER.ROT>
9

>  <SCORE.INTER.SOLV>
14.6011

>  <SCORE.INTER.VDW>
-16.1413

>  <SCORE.INTER.norm>
-0.0597944

>  <SCORE.INTRA>
-6.95003

>  <SCORE.INTRA.DIHEDRAL>
-16.0726

>  <SCORE.INTRA.DIHEDRAL.0>
27.8999

>  <SCORE.INTRA.POLAR>
0

>  <SCORE.INTRA.POLAR.0>
0

>  <SCORE.INTRA.REPUL>
0

>  <SCORE.INTRA.REPUL.0>
0

>  <SCORE.INTRA.SOLV>
-1.17937

>  <SCORE.INTRA.SOLV.lig_0>
-104.479

>  <SCORE.INTRA.VDW>
1.67598

>  <SCORE.INTRA.VDW.0>
-6.17816

>  <SCORE.INTRA.norm>
-0.165477

>  <SCORE.RESTR>
0

>  <SCORE.RESTR.CAVITY>
0

>  <SCORE.RESTR.norm>
0

>  <SCORE.SYSTEM>
0

>  <SCORE.SYSTEM.CONST>
0

>  <SCORE.SYSTEM.DIHEDRAL>
0

>  <SCORE.SYSTEM.SOLV>
0

>  <SCORE.SYSTEM.norm>
0

>  <SCORE.heavy>
42

>  <SCORE.norm>
-0.225271

>  <RMSD>
2.994

$$$$
ligand
 OpenBabel02271912133D
libRbt.so/2013.1/901 2013/11/27
 42 45  0  0  0  0  0  0  0  0999 V2000
    7.7337   -1.1263    5.2059 C   0  0  2  0  0  0  0  0  0  0  0  0
    8.6415   -0.6413    4.2018 O   0  0  0  0  0  0  0  0  0  0  0  0
    9.9782    2.9174    6.2862 C   0  0  2  0  0  0  0  0  0  0  0  0
   10.7122    4.1650    6.6540 N   0  0  0  0  0  0  0  0  0  0  0  0
    7.5386    3.0844    2.4859 C   0  0  1  0  0  0  0  0  0  0  0  0
    5.3004    5.9429    0.9579 C   0  0  1  0  0  0  0  0  0  0  0  0
    7.5472   -2.6523    4.9517 C   0  0  2  0  0  0  0  0  0  0  0  0
    8.8308   -3.3601    4.8030 N   0  0  0  0  0  0  0  0  0  0  0  0
   10.9443    1.6650    6.2757 C   0  0  0  0  0  0  0  0  0  0  0  0
    7.7986    3.2331    0.9559 C   0  0  2  0  0  0  0  0  0  0  0  0
    8.9847    3.9993    0.6314 O   0  0  0  0  0  0  0  0  0  0  0  0
    4.1131    5.8785   -0.0692 C   0  0  2  0  0  0  0  0  0  0  0  0
    4.5236    6.4317   -1.3945 N   0  0  0  0  0  0  0  0  0  0  0  0
    6.7320   -2.9370    3.6769 C   0  0  1  0  0  0  0  0  0  0  0  0
    6.5523   -4.3439    3.5052 O   0  0  0  0  0  0  0  0  0  0  0  0
   10.1107    0.3807    5.9041 C   0  0  2  0  0  0  0  0  0  0  0  0
   10.9872   -0.8215    5.8991 N   0  0  0  0  0  0  0  0  0  0  0  0
    6.4729    3.8342    0.4863 C   0  0  2  0  0  0  0  0  0  0  0  0
    6.5028    5.2966    0.5216 O   0  0  0  0  0  0  0  0  0  0  0  0
    2.8572    6.6772    0.5238 C   0  0  1  0  0  0  0  0  0  0  0  0
    2.2647    5.8949    1.5849 O   0  0  0  0  0  0  0  0  0  0  0  0
    5.3755   -2.2004    3.7571 C   0  0  2  0  0  0  0  0  0  0  0  0
    4.6099   -2.4644    2.6044 O   0  0  0  0  0  0  0  0  0  0  0  0
    9.4319    0.5478    4.4874 C   0  0  2  0  0  0  0  0  0  0  0  0
    5.3954    3.2758    1.4310 C   0  0  2  0  0  0  0  0  0  0  0  0
    6.1027    3.0998    2.6563 O   0  0  0  0  0  0  0  0  0  0  0  0
    3.2492    8.1272    1.0816 C   0  0  2  0  0  0  0  0  0  0  0  0
    3.5903    8.9423   -0.0390 O   0  0  0  0  0  0  0  0  0  0  0  0
    5.6367   -0.6646    3.9077 C   0  0  2  0  0  0  0  0  0  0  0  0
    6.4403   -0.4174    5.1047 O   0  0  0  0  0  0  0  0  0  0  0  0
    8.5145    1.7875    4.4053 C   0  0  2  0  0  0  0  0  0  0  0  0
    8.1315    1.8873    3.0061 O   0  0  0  0  0  0  0  0  0  0  0  0
    4.7396    1.9392    0.9645 C   0  0  0  0  0  0  0  0  0  0  0  0
    3.5402    1.7214    1.7014 O   0  0  0  0  0  0  0  0  0  0  0  0
    4.4675    8.0296    2.0758 C   0  0  1  0  0  0  0  0  0  0  0  0
    5.5599    7.3895    1.3227 O   0  0  0  0  0  0  0  0  0  0  0  0
    4.3585    0.1363    4.0003 C   0  0  0  0  0  0  0  0  0  0  0  0
    3.5072   -0.4199    4.9725 O   0  0  0  0  0  0  0  0  0  0  0  0
    9.3020    3.0847    4.8666 C   0  0  1  0  0  0  0  0  0  0  0  0
    8.4131    4.2031    4.9355 O   0  0  0  0  0  0  0  0  0  0  0  0
    4.9461    9.4317    2.6533 C   0  0  0  0  0  0  0  0  0  0  0  0
    6.3637    9.4903    3.1046 N   0  0  0  0  0  0  0  0  0  0  0  0
  1  2  1  6  0  0  0
  1  7  1  0  0  0  0
  1 30  1  0  0  0  0
  3  4  1  6  0  0  0
  3  9  1  0  0  0  0
  3 39  1  0  0  0  0
  5 10  1  0  0  0  0
  5 26  1  0  0  0  0
  5 32  1  6  0  0  0
  6 12  1  0  0  0  0
  6 36  1  0  0  0  0
  6 19  1  6  0  0  0
  7  8  1  6  0  0  0
  7 14  1  0  0  0  0
  9 16  1  0  0  0  0
 10 11  1  1  0  0  0
 10 18  1  0  0  0  0
 12 13  1  6  0  0  0
 12 20  1  0  0  0  0
 14 15  1  1  0  0  0
 14 22  1  0  0  0  0
 16 17  1  6  0  0  0
 16 24  1  0  0  0  0
 18 19  1  1  0  0  0
 18 25  1  0  0  0  0
 20 21  1  1  0  0  0
 20 27  1  0  0  0  0
 22 23  1  6  0  0  0
 22 29  1  0  0  0  0
 24  2  1  1  0  0  0
 24 31  1  0  0  0  0
 25 26  1  0  0  0  0
 25 33  1  6  0  0  0
 27 28  1  6  0  0  0
 27 35  1  0  0  0  0
 29 30  1  0  0  0  0
 29 37  1  1  0  0  0
 31 32  1  6  0  0  0
 31 39  1  0  0  0  0
 33 34  1  0  0  0  0
 35 36  1  0  0  0  0
 35 41  1  6  0  0  0
 37 38  1  0  0  0  0
 39 40  1  1  0  0  0
 41 42  1  0  0  0  0
M  END
>  <CHROM.1>
-154.41143352,48.84767607,-141.02448335,-71.72427819,-164.31098164,50.16566287
-165.31820845,154.22469056,-155.44282373,6.55518610,2.62537335,3.00635012
-1.16834385,-0.54750349,-0.19252545

>  <Name>
ligand

>  <RI>
0

>  <Rbt.Current_Directory>
/home/itssahil/PROJECTS/Mol_Feturizer/Test_systems_manuscript/rnas/2o3w

>  <Rbt.Executable>
rbdock ($Id: //depot/dev/client3/rdock/2013.1/src/exe/rbdock.cxx#4 $)

>  <Rbt.Library>
libRbt.so (2013.1, Build901 2013/11/27)

>  <Rbt.Parameter_File>
/export/apps/rDock/src/rDock_2013.1_src/data/scripts/dock_solv.prm

>  <Rbt.Receptor>
prm/pocket_docking_2.prm

>  <SCORE>
4.90445

>  <SCORE.INTER>
7.13354

>  <SCORE.INTER.CONST>
1

>  <SCORE.INTER.POLAR>
0

>  <SCORE.INTER.ROT>
9

>  <SCORE.INTER.SOLV>
11.7648

>  <SCORE.INTER.VDW>
-8.76592

>  <SCORE.INTER.norm>
0.169846

>  <SCORE.INTRA>
-3.26931

>  <SCORE.INTRA.DIHEDRAL>
-11.65

>  <SCORE.INTRA.DIHEDRAL.0>
27.8999

>  <SCORE.INTRA.POLAR>
0

>  <SCORE.INTRA.POLAR.0>
0

>  <SCORE.INTRA.REPUL>
0

>  <SCORE.INTRA.REPUL.0>
0

>  <SCORE.INTRA.SOLV>
-2.61484

>  <SCORE.INTRA.SOLV.lig_0>
-104.479

>  <SCORE.INTRA.VDW>
3.86311

>  <SCORE.INTRA.VDW.0>
-6.17816

>  <SCORE.INTRA.norm>
-0.0778407

>  <SCORE.RESTR>
1.04022

>  <SCORE.RESTR.CAVITY>
1.04022

>  <SCORE.RESTR.norm>
0.0247671

>  <SCORE.SYSTEM>
0

>  <SCORE.SYSTEM.CONST>
0

>  <SCORE.SYSTEM.DIHEDRAL>
0

>  <SCORE.SYSTEM.SOLV>
0

>  <SCORE.SYSTEM.norm>
0

>  <SCORE.heavy>
42

>  <SCORE.norm>
0.116773

>  <RMSD>
3.068

$$$$
ligand
 OpenBabel02271912133D
libRbt.so/2013.1/901 2013/11/27
 42 45  0  0  0  0  0  0  0  0999 V2000
    8.2834    0.4148    5.4521 C   0  0  2  0  0  0  0  0  0  0  0  0
    9.1042    0.5854    4.2840 O   0  0  0  0  0  0  0  0  0  0  0  0
   11.8564    3.5388    5.8648 C   0  0  2  0  0  0  0  0  0  0  0  0
   13.0293    4.4462    6.0416 N   0  0  0  0  0  0  0  0  0  0  0  0
    8.2931    3.8218    2.5235 C   0  0  1  0  0  0  0  0  0  0  0  0
    5.7397    7.2414    1.2449 C   0  0  1  0  0  0  0  0  0  0  0  0
    7.2319   -0.6840    5.1128 C   0  0  2  0  0  0  0  0  0  0  0  0
    7.8457   -1.8929    4.5362 N   0  0  0  0  0  0  0  0  0  0  0  0
   12.2910    2.0194    5.9306 C   0  0  0  0  0  0  0  0  0  0  0  0
    8.4985    5.3067    2.9522 C   0  0  2  0  0  0  0  0  0  0  0  0
    7.9996    5.6118    4.2777 O   0  0  0  0  0  0  0  0  0  0  0  0
    6.2074    8.7248    1.4674 C   0  0  2  0  0  0  0  0  0  0  0  0
    6.0609    9.1211    2.9000 N   0  0  0  0  0  0  0  0  0  0  0  0
    6.1799   -0.1936    4.1010 C   0  0  1  0  0  0  0  0  0  0  0  0
    5.2157   -1.2175    3.8502 O   0  0  0  0  0  0  0  0  0  0  0  0
   11.0120    1.1150    5.7607 C   0  0  2  0  0  0  0  0  0  0  0  0
   11.3827   -0.3241    5.8323 N   0  0  0  0  0  0  0  0  0  0  0  0
    7.8145    6.0456    1.8008 C   0  0  2  0  0  0  0  0  0  0  0  0
    6.3965    6.2773    2.0772 O   0  0  0  0  0  0  0  0  0  0  0  0
    5.3617    9.6945    0.5127 C   0  0  1  0  0  0  0  0  0  0  0  0
    5.8206    9.5274   -0.8476 O   0  0  0  0  0  0  0  0  0  0  0  0
    5.5107    1.0930    4.6358 C   0  0  2  0  0  0  0  0  0  0  0  0
    4.5328    1.5457    3.7284 O   0  0  0  0  0  0  0  0  0  0  0  0
   10.2996    1.4110    4.3820 C   0  0  2  0  0  0  0  0  0  0  0  0
    8.0025    5.1605    0.5572 C   0  0  2  0  0  0  0  0  0  0  0  0
    8.0295    3.8432    1.1018 O   0  0  0  0  0  0  0  0  0  0  0  0
    3.7851    9.4178    0.5843 C   0  0  2  0  0  0  0  0  0  0  0  0
    3.3324    9.8349    1.8717 O   0  0  0  0  0  0  0  0  0  0  0  0
    6.6090    2.1861    4.8561 C   0  0  2  0  0  0  0  0  0  0  0  0
    7.6164    1.6894    5.7932 O   0  0  0  0  0  0  0  0  0  0  0  0
    9.8958    2.8932    4.2227 C   0  0  2  0  0  0  0  0  0  0  0  0
    9.4343    3.0178    2.8494 O   0  0  0  0  0  0  0  0  0  0  0  0
    9.2930    5.4526   -0.2695 C   0  0  0  0  0  0  0  0  0  0  0  0
   10.4361    5.2550    0.5570 O   0  0  0  0  0  0  0  0  0  0  0  0
    3.4789    7.8875    0.3680 C   0  0  1  0  0  0  0  0  0  0  0  0
    4.2360    7.1680    1.4070 O   0  0  0  0  0  0  0  0  0  0  0  0
    6.0413    3.4822    5.3868 C   0  0  0  0  0  0  0  0  0  0  0  0
    5.1655    4.0502    4.4435 O   0  0  0  0  0  0  0  0  0  0  0  0
   11.1461    3.8338    4.4831 C   0  0  1  0  0  0  0  0  0  0  0  0
   10.7399    5.2052    4.4850 O   0  0  0  0  0  0  0  0  0  0  0  0
    1.9351    7.5171    0.4570 C   0  0  0  0  0  0  0  0  0  0  0  0
    1.6076    6.0781    0.2603 N   0  0  0  0  0  0  0  0  0  0  0  0
  1  2  1  6  0  0  0
  1  7  1  0  0  0  0
  1 30  1  0  0  0  0
  3  4  1  6  0  0  0
  3  9  1  0  0  0  0
  3 39  1  0  0  0  0
  5 10  1  0  0  0  0
  5 26  1  0  0  0  0
  5 32  1  6  0  0  0
  6 12  1  0  0  0  0
  6 36  1  0  0  0  0
  6 19  1  1  0  0  0
  7  8  1  6  0  0  0
  7 14  1  0  0  0  0
  9 16  1  0  0  0  0
 10 11  1  1  0  0  0
 10 18  1  0  0  0  0
 12 13  1  1  0  0  0
 12 20  1  0  0  0  0
 14 15  1  1  0  0  0
 14 22  1  0  0  0  0
 16 17  1  6  0  0  0
 16 24  1  0  0  0  0
 18 19  1  1  0  0  0
 18 25  1  0  0  0  0
 20 21  1  6  0  0  0
 20 27  1  0  0  0  0
 22 23  1  6  0  0  0
 22 29  1  0  0  0  0
 24  2  1  1  0  0  0
 24 31  1  0  0  0  0
 25 26  1  0  0  0  0
 25 33  1  1  0  0  0
 27 28  1  1  0  0  0
 27 35  1  0  0  0  0
 29 30  1  0  0  0  0
 29 37  1  1  0  0  0
 31 32  1  6  0  0  0
 31 39  1  0  0  0  0
 33 34  1  0  0  0  0
 35 36  1  0  0  0  0
 35 41  1  1  0  0  0
 37 38  1  0  0  0  0
 39 40  1  1  0  0  0
 41 42  1  0  0  0  0
M  END
>  <CHROM.1>
-170.94906863,40.69689954,164.69102647,-68.73936862,59.78671720,-63.85162162
140.11619486,59.13858668,-179.88066227,7.41966276,4.23231772,3.12328599,1.02450640
0.20176738,2.73000186

>  <Name>
ligand

>  <RI>
0

>  <Rbt.Current_Directory>
/home/itssahil/PROJECTS/Mol_Feturizer/Test_systems_manuscript/rnas/2o3w

>  <Rbt.Executable>
rbdock ($Id: //depot/dev/client3/rdock/2013.1/src/exe/rbdock.cxx#4 $)

>  <Rbt.Library>
libRbt.so (2013.1, Build901 2013/11/27)

>  <Rbt.Parameter_File>
/export/apps/rDock/src/rDock_2013.1_src/data/scripts/dock_solv.prm

>  <Rbt.Receptor>
prm/pocket_docking_4.prm

>  <SCORE>
-12.0949

>  <SCORE.INTER>
-2.75195

>  <SCORE.INTER.CONST>
1

>  <SCORE.INTER.POLAR>
0

>  <SCORE.INTER.ROT>
9

>  <SCORE.INTER.SOLV>
13.4951

>  <SCORE.INTER.VDW>
-15.933

>  <SCORE.INTER.norm>
-0.0655226

>  <SCORE.INTRA>
-9.34294

>  <SCORE.INTRA.DIHEDRAL>
-18.7924

>  <SCORE.INTRA.DIHEDRAL.0>
27.8999

>  <SCORE.INTRA.POLAR>
0

>  <SCORE.INTRA.POLAR.0>
0

>  <SCORE.INTRA.REPUL>
0

>  <SCORE.INTRA.REPUL.0>
0

>  <SCORE.INTRA.SOLV>
-2.34866

>  <SCORE.INTRA.SOLV.lig_0>
-104.479

>  <SCORE.INTRA.VDW>
1.22758

>  <SCORE.INTRA.VDW.0>
-6.17816

>  <SCORE.INTRA.norm>
-0.222451

>  <SCORE.RESTR>
0

>  <SCORE.RESTR.CAVITY>
0

>  <SCORE.RESTR.norm>
0

>  <SCORE.SYSTEM>
0

>  <SCORE.SYSTEM.CONST>
0

>  <SCORE.SYSTEM.DIHEDRAL>
0

>  <SCORE.SYSTEM.SOLV>
0

>  <SCORE.SYSTEM.norm>
0

>  <SCORE.heavy>
42

>  <SCORE.norm>
-0.287974

>  <RMSD>
3.089

$$$$
ligand
 OpenBabel02271912133D
libRbt.so/2013.1/901 2013/11/27
 42 45  0  0  0  0  0  0  0  0999 V2000
   10.4968    0.6451    3.7358 C   0  0  2  0  0  0  0  0  0  0  0  0
   10.8164    0.2147    5.0699 O   0  0  0  0  0  0  0  0  0  0  0  0
   12.9329    2.1826    8.3017 C   0  0  2  0  0  0  0  0  0  0  0  0
   13.9781    2.8865    9.1031 N   0  0  0  0  0  0  0  0  0  0  0  0
   10.5442    4.1330    4.6324 C   0  0  1  0  0  0  0  0  0  0  0  0
    7.8409    7.1256    3.0634 C   0  0  1  0  0  0  0  0  0  0  0  0
    9.2355   -0.1540    3.2898 C   0  0  2  0  0  0  0  0  0  0  0  0
    8.1559   -0.1082    4.2913 N   0  0  0  0  0  0  0  0  0  0  0  0
   13.4066    0.7310    7.8890 C   0  0  0  0  0  0  0  0  0  0  0  0
   10.9186    4.9252    3.3428 C   0  0  2  0  0  0  0  0  0  0  0  0
   11.8706    5.9948    3.5638 O   0  0  0  0  0  0  0  0  0  0  0  0
    7.5636    8.6260    3.4386 C   0  0  2  0  0  0  0  0  0  0  0  0
    7.8193    8.8689    4.8900 N   0  0  0  0  0  0  0  0  0  0  0  0
    9.5451   -1.6411    3.0372 C   0  0  1  0  0  0  0  0  0  0  0  0
    8.3720   -2.3249    2.5932 O   0  0  0  0  0  0  0  0  0  0  0  0
   12.2570    0.0332    7.0680 C   0  0  2  0  0  0  0  0  0  0  0  0
   12.6639   -1.3429    6.6750 N   0  0  0  0  0  0  0  0  0  0  0  0
    9.5375    5.3594    2.8495 C   0  0  2  0  0  0  0  0  0  0  0  0
    9.1523    6.6580    3.4027 O   0  0  0  0  0  0  0  0  0  0  0  0
    6.0545    8.9979    3.0500 C   0  0  1  0  0  0  0  0  0  0  0  0
    5.9576    9.1155    1.6127 O   0  0  0  0  0  0  0  0  0  0  0  0
   10.6921   -1.7614    2.0081 C   0  0  2  0  0  0  0  0  0  0  0  0
   10.9763   -3.1174    1.7532 O   0  0  0  0  0  0  0  0  0  0  0  0
   11.9073    0.8720    5.7758 C   0  0  2  0  0  0  0  0  0  0  0  0
    8.5626    4.2546    3.2904 C   0  0  2  0  0  0  0  0  0  0  0  0
    9.1519    3.7680    4.4940 O   0  0  0  0  0  0  0  0  0  0  0  0
    4.9932    7.9169    3.5721 C   0  0  2  0  0  0  0  0  0  0  0  0
    4.9436    8.0141    4.9949 O   0  0  0  0  0  0  0  0  0  0  0  0
   11.9567   -1.0264    2.5648 C   0  0  2  0  0  0  0  0  0  0  0  0
   11.6339    0.3755    2.8302 O   0  0  0  0  0  0  0  0  0  0  0  0
   11.4889    2.3232    6.0989 C   0  0  2  0  0  0  0  0  0  0  0  0
   11.3880    2.9877    4.8094 O   0  0  0  0  0  0  0  0  0  0  0  0
    8.3630    3.1024    2.2575 C   0  0  0  0  0  0  0  0  0  0  0  0
    9.6342    2.5779    1.8863 O   0  0  0  0  0  0  0  0  0  0  0  0
    5.4214    6.4637    3.1394 C   0  0  1  0  0  0  0  0  0  0  0  0
    6.7721    6.2544    3.6892 O   0  0  0  0  0  0  0  0  0  0  0  0
   13.1306   -1.0887    1.6152 C   0  0  0  0  0  0  0  0  0  0  0  0
   13.5560   -2.4203    1.4569 O   0  0  0  0  0  0  0  0  0  0  0  0
   12.5859    3.0215    7.0069 C   0  0  1  0  0  0  0  0  0  0  0  0
   12.1292    4.3091    7.4303 O   0  0  0  0  0  0  0  0  0  0  0  0
    4.4386    5.3210    3.6463 C   0  0  0  0  0  0  0  0  0  0  0  0
    3.0516    5.3818    3.1085 N   0  0  0  0  0  0  0  0  0  0  0  0
  1  2  1  1  0  0  0
  1  7  1  0  0  0  0
  1 30  1  0  0  0  0
  3  4  1  6  0  0  0
  3  9  1  0  0  0  0
  3 39  1  0  0  0  0
  5 10  1  0  0  0  0
  5 26  1  0  0  0  0
  5 32  1  6  0  0  0
  6 12  1  0  0  0  0
  6 36  1  0  0  0  0
  6 19  1  1  0  0  0
  7  8  1  1  0  0  0
  7 14  1  0  0  0  0
  9 16  1  0  0  0  0
 10 11  1  1  0  0  0
 10 18  1  0  0  0  0
 12 13  1  1  0  0  0
 12 20  1  0  0  0  0
 14 15  1  6  0  0  0
 14 22  1  0  0  0  0
 16 17  1  6  0  0  0
 16 24  1  0  0  0  0
 18 19  1  1  0  0  0
 18 25  1  0  0  0  0
 20 21  1  6  0  0  0
 20 27  1  0  0  0  0
 22 23  1  1  0  0  0
 22 29  1  0  0  0  0
 24  2  1  1  0  0  0
 24 31  1  0  0  0  0
 25 26  1  0  0  0  0
 25 33  1  6  0  0  0
 27 28  1  1  0  0  0
 27 35  1  0  0  0  0
 29 30  1  0  0  0  0
 29 37  1  6  0  0  0
 31 32  1  6  0  0  0
 31 39  1  0  0  0  0
 33 34  1  0  0  0  0
 35 36  1  0  0  0  0
 35 41  1  1  0  0  0
 37 38  1  0  0  0  0
 39 40  1  1  0  0  0
 41 42  1  0  0  0  0
M  END
>  <CHROM.1>
-175.73424701,-168.09113806,-176.63088818,-168.86254610,52.98650210,-64.51314263
154.92971267,162.41806034,63.52678876,9.66623473,3.05003868,4.07466201,0.76765249
0.67301857,-2.66908591

>  <Name>
ligand

>  <RI>
0

>  <Rbt.Current_Directory>
/home/itssahil/PROJECTS/Mol_Feturizer/Test_systems_manuscript/rnas/2o3w

>  <Rbt.Executable>
rbdock ($Id: //depot/dev/client3/rdock/2013.1/src/exe/rbdock.cxx#4 $)

>  <Rbt.Library>
libRbt.so (2013.1, Build901 2013/11/27)

>  <Rbt.Parameter_File>
/export/apps/rDock/src/rDock_2013.1_src/data/scripts/dock_solv.prm

>  <Rbt.Receptor>
prm/pocket_docking_6.prm

>  <SCORE>
-12.5899

>  <SCORE.INTER>
-1.57288

>  <SCORE.INTER.CONST>
1

>  <SCORE.INTER.POLAR>
0

>  <SCORE.INTER.ROT>
9

>  <SCORE.INTER.SOLV>
16.9149

>  <SCORE.INTER.VDW>
-16.2869

>  <SCORE.INTER.norm>
-0.0374496

>  <SCORE.INTRA>
-11.0244

>  <SCORE.INTRA.DIHEDRAL>
-21.9511

>  <SCORE.INTRA.DIHEDRAL.0>
27.8999

>  <SCORE.INTRA.POLAR>
0

>  <SCORE.INTRA.POLAR.0>
0

>  <SCORE.INTRA.REPUL>
0

>  <SCORE.INTRA.REPUL.0>
0

>  <SCORE.INTRA.SOLV>
-3.44063

>  <SCORE.INTRA.SOLV.lig_0>
-104.479

>  <SCORE.INTRA.VDW>
1.67143

>  <SCORE.INTRA.VDW.0>
-6.17816

>  <SCORE.INTRA.norm>
-0.262487

>  <SCORE.RESTR>
0.00745712

>  <SCORE.RESTR.CAVITY>
0.00745712

>  <SCORE.RESTR.norm>
0.000177551

>  <SCORE.SYSTEM>
0

>  <SCORE.SYSTEM.CONST>
0

>  <SCORE.SYSTEM.DIHEDRAL>
0

>  <SCORE.SYSTEM.SOLV>
0

>  <SCORE.SYSTEM.norm>
0

>  <SCORE.heavy>
42

>  <SCORE.norm>
-0.299759

>  <RMSD>
3.157

$$$$
ligand
 OpenBabel02271912133D
libRbt.so/2013.1/901 2013/11/27
 42 45  0  0  0  0  0  0  0  0999 V2000
    8.1049   -0.1443    5.3652 C   0  0  2  0  0  0  0  0  0  0  0  0
    8.8351    0.3341    4.2227 O   0  0  0  0  0  0  0  0  0  0  0  0
    9.9658    4.1914    5.8471 C   0  0  2  0  0  0  0  0  0  0  0  0
   10.5282    5.5665    5.9994 N   0  0  0  0  0  0  0  0  0  0  0  0
    6.4209    3.4407    2.9338 C   0  0  1  0  0  0  0  0  0  0  0  0
    4.7142    6.8375    1.5848 C   0  0  1  0  0  0  0  0  0  0  0  0
    8.2563   -1.6950    5.3854 C   0  0  2  0  0  0  0  0  0  0  0  0
    9.6586   -2.1264    5.2509 N   0  0  0  0  0  0  0  0  0  0  0  0
   11.1114    3.1246    5.6208 C   0  0  0  0  0  0  0  0  0  0  0  0
    6.6290    4.5014    1.8101 C   0  0  2  0  0  0  0  0  0  0  0  0
    7.0728    5.7929    2.2938 O   0  0  0  0  0  0  0  0  0  0  0  0
    3.7126    7.8523    2.2449 C   0  0  2  0  0  0  0  0  0  0  0  0
    2.3270    7.6482    1.7259 N   0  0  0  0  0  0  0  0  0  0  0  0
    7.4713   -2.3736    4.2478 C   0  0  1  0  0  0  0  0  0  0  0  0
    7.6060   -3.7935    4.3286 O   0  0  0  0  0  0  0  0  0  0  0  0
   10.4598    1.6960    5.4902 C   0  0  2  0  0  0  0  0  0  0  0  0
   11.5123    0.6635    5.2904 N   0  0  0  0  0  0  0  0  0  0  0  0
    5.2600    4.4843    1.1284 C   0  0  2  0  0  0  0  0  0  0  0  0
    4.3483    5.4593    1.7275 O   0  0  0  0  0  0  0  0  0  0  0  0
    4.2163    9.3479    1.9684 C   0  0  1  0  0  0  0  0  0  0  0  0
    5.3687    9.6138    2.7991 O   0  0  0  0  0  0  0  0  0  0  0  0
    5.9885   -1.9425    4.3160 C   0  0  2  0  0  0  0  0  0  0  0  0
    5.2525   -2.5685    3.2909 O   0  0  0  0  0  0  0  0  0  0  0  0
    9.4422    1.6563    4.2824 C   0  0  2  0  0  0  0  0  0  0  0  0
    4.7251    3.0510    1.2861 C   0  0  2  0  0  0  0  0  0  0  0  0
    5.2974    2.6289    2.5217 O   0  0  0  0  0  0  0  0  0  0  0  0
    4.5926    9.6034    0.4320 C   0  0  2  0  0  0  0  0  0  0  0  0
    3.3794    9.5777   -0.3189 O   0  0  0  0  0  0  0  0  0  0  0  0
    5.9030   -0.3852    4.1863 C   0  0  2  0  0  0  0  0  0  0  0  0
    6.6818    0.2409    5.2546 O   0  0  0  0  0  0  0  0  0  0  0  0
    8.3230    2.7132    4.4072 C   0  0  2  0  0  0  0  0  0  0  0  0
    7.6039    2.6590    3.1445 O   0  0  0  0  0  0  0  0  0  0  0  0
    5.1052    2.0756    0.1292 C   0  0  0  0  0  0  0  0  0  0  0  0
    6.3525    1.4556    0.4273 O   0  0  0  0  0  0  0  0  0  0  0  0
    5.5808    8.4930   -0.0903 C   0  0  1  0  0  0  0  0  0  0  0  0
    4.9005    7.2046    0.1276 O   0  0  0  0  0  0  0  0  0  0  0  0
    4.4825    0.1266    4.2496 C   0  0  0  0  0  0  0  0  0  0  0  0
    4.4752    1.5012    4.5487 O   0  0  0  0  0  0  0  0  0  0  0  0
    8.9499    4.1521    4.6359 C   0  0  1  0  0  0  0  0  0  0  0  0
    7.9161    5.1040    4.9021 O   0  0  0  0  0  0  0  0  0  0  0  0
    5.9817    8.6509   -1.6210 C   0  0  0  0  0  0  0  0  0  0  0  0
    6.6991    9.9078   -1.9706 N   0  0  0  0  0  0  0  0  0  0  0  0
  1  2  1  6  0  0  0
  1  7  1  0  0  0  0
  1 30  1  0  0  0  0
  3  4  1  6  0  0  0
  3  9  1  0  0  0  0
  3 39  1  0  0  0  0
  5 10  1  0  0  0  0
  5 26  1  0  0  0  0
  5 32  1  6  0  0  0
  6 12  1  0  0  0  0
  6 36  1  0  0  0  0
  6 19  1  6  0  0  0
  7  8  1  6  0  0  0
  7 14  1  0  0  0  0
  9 16  1  0  0  0  0
 10 11  1  1  0  0  0
 10 18  1  0  0  0  0
 12 13  1  6  0  0  0
 12 20  1  0  0  0  0
 14 15  1  1  0  0  0
 14 22  1  0  0  0  0
 16 17  1  6  0  0  0
 16 24  1  0  0  0  0
 18 19  1  1  0  0  0
 18 25  1  0  0  0  0
 20 21  1  1  0  0  0
 20 27  1  0  0  0  0
 22 23  1  6  0  0  0
 22 29  1  0  0  0  0
 24  2  1  1  0  0  0
 24 31  1  0  0  0  0
 25 26  1  0  0  0  0
 25 33  1  6  0  0  0
 27 28  1  6  0  0  0
 27 35  1  0  0  0  0
 29 30  1  0  0  0  0
 29 37  1  1  0  0  0
 31 32  1  6  0  0  0
 31 39  1  0  0  0  0
 33 34  1  0  0  0  0
 35 36  1  0  0  0  0
 35 41  1  6  0  0  0
 37 38  1  0  0  0  0
 39 40  1  1  0  0  0
 41 42  1  0  0  0  0
M  END
>  <CHROM.1>
-149.46129668,59.00125907,64.67073842,-179.82919856,88.87584796,161.64411356
175.19499421,115.67757090,61.70268228,6.66421349,3.47326678,2.96948542,-1.19710692
-0.56772561,-0.21786677

>  <Name>
ligand

>  <RI>
0

>  <Rbt.Current_Directory>
/home/itssahil/PROJECTS/Mol_Feturizer/Test_systems_manuscript/rnas/2o3w

>  <Rbt.Executable>
rbdock ($Id: //depot/dev/client3/rdock/2013.1/src/exe/rbdock.cxx#4 $)

>  <Rbt.Library>
libRbt.so (2013.1, Build901 2013/11/27)

>  <Rbt.Parameter_File>
/export/apps/rDock/src/rDock_2013.1_src/data/scripts/dock_solv.prm

>  <Rbt.Receptor>
prm/pocket_docking_2.prm

>  <SCORE>
0.538183

>  <SCORE.INTER>
4.63711

>  <SCORE.INTER.CONST>
1

>  <SCORE.INTER.POLAR>
0

>  <SCORE.INTER.ROT>
9

>  <SCORE.INTER.SOLV>
13.1142

>  <SCORE.INTER.VDW>
-10.88

>  <SCORE.INTER.norm>
0.110407

>  <SCORE.INTRA>
-4.98643

>  <SCORE.INTRA.DIHEDRAL>
-13.1615

>  <SCORE.INTRA.DIHEDRAL.0>
27.8999

>  <SCORE.INTRA.POLAR>
0

>  <SCORE.INTRA.POLAR.0>
0

>  <SCORE.INTRA.REPUL>
0

>  <SCORE.INTRA.REPUL.0>
0

>  <SCORE.INTRA.SOLV>
-1.19337

>  <SCORE.INTRA.SOLV.lig_0>
-104.479

>  <SCORE.INTRA.VDW>
2.191

>  <SCORE.INTRA.VDW.0>
-6.17816

>  <SCORE.INTRA.norm>
-0.118724

>  <SCORE.RESTR>
0.887496

>  <SCORE.RESTR.CAVITY>
0.887496

>  <SCORE.RESTR.norm>
0.0211309

>  <SCORE.SYSTEM>
0

>  <SCORE.SYSTEM.CONST>
0

>  <SCORE.SYSTEM.DIHEDRAL>
0

>  <SCORE.SYSTEM.SOLV>
0

>  <SCORE.SYSTEM.norm>
0

>  <SCORE.heavy>
42

>  <SCORE.norm>
0.0128139

>  <RMSD>
3.189

$$$$
ligand
 OpenBabel02271912133D
libRbt.so/2013.1/901 2013/11/27
 42 45  0  0  0  0  0  0  0  0999 V2000
    8.3540   -0.4702    4.9978 C   0  0  2  0  0  0  0  0  0  0  0  0
    9.1881   -0.1965    6.1366 O   0  0  0  0  0  0  0  0  0  0  0  0
   10.5254    3.5246    7.9145 C   0  0  2  0  0  0  0  0  0  0  0  0
   11.1332    4.8743    8.1127 N   0  0  0  0  0  0  0  0  0  0  0  0
    6.7436    2.9880    5.2259 C   0  0  1  0  0  0  0  0  0  0  0  0
    4.2959    5.5999    3.1898 C   0  0  1  0  0  0  0  0  0  0  0  0
    7.9143   -1.9613    5.1037 C   0  0  2  0  0  0  0  0  0  0  0  0
    7.3742   -2.2968    6.4327 N   0  0  0  0  0  0  0  0  0  0  0  0
   11.6248    2.4483    7.5473 C   0  0  0  0  0  0  0  0  0  0  0  0
    6.4030    3.4019    3.7618 C   0  0  2  0  0  0  0  0  0  0  0  0
    6.9295    4.6959    3.3777 O   0  0  0  0  0  0  0  0  0  0  0  0
    3.7043    6.9683    3.6863 C   0  0  2  0  0  0  0  0  0  0  0  0
    2.2985    6.8002    4.1623 N   0  0  0  0  0  0  0  0  0  0  0  0
    9.0780   -2.9340    4.8380 C   0  0  1  0  0  0  0  0  0  0  0  0
    8.6216   -4.2860    4.9061 O   0  0  0  0  0  0  0  0  0  0  0  0
   10.9280    1.0459    7.3735 C   0  0  2  0  0  0  0  0  0  0  0  0
   11.9371    0.0044    7.0410 N   0  0  0  0  0  0  0  0  0  0  0  0
    4.8782    3.2822    3.7664 C   0  0  2  0  0  0  0  0  0  0  0  0
    4.2408    4.5409    4.1537 O   0  0  0  0  0  0  0  0  0  0  0  0
    3.7855    8.0412    2.4992 C   0  0  1  0  0  0  0  0  0  0  0  0
    5.1616    8.4509    2.3332 O   0  0  0  0  0  0  0  0  0  0  0  0
    9.7088   -2.6198    3.4623 C   0  0  2  0  0  0  0  0  0  0  0  0
   10.7654   -3.5127    3.1966 O   0  0  0  0  0  0  0  0  0  0  0  0
    9.8330    1.1052    6.2362 C   0  0  2  0  0  0  0  0  0  0  0  0
    4.5437    2.1587    4.7620 C   0  0  2  0  0  0  0  0  0  0  0  0
    5.6011    2.2480    5.7140 O   0  0  0  0  0  0  0  0  0  0  0  0
    3.2234    7.4752    1.1096 C   0  0  2  0  0  0  0  0  0  0  0  0
    1.8113    7.3218    1.2464 O   0  0  0  0  0  0  0  0  0  0  0  0
   10.2210   -1.1409    3.4613 C   0  0  2  0  0  0  0  0  0  0  0  0
    9.1089   -0.2350    3.7486 O   0  0  0  0  0  0  0  0  0  0  0  0
    8.7531    2.1773    6.5000 C   0  0  2  0  0  0  0  0  0  0  0  0
    7.9518    2.2189    5.2873 O   0  0  0  0  0  0  0  0  0  0  0  0
    4.4671    0.7297    4.1405 C   0  0  0  0  0  0  0  0  0  0  0  0
    3.7066   -0.1161    4.9979 O   0  0  0  0  0  0  0  0  0  0  0  0
    3.8911    6.0911    0.7623 C   0  0  1  0  0  0  0  0  0  0  0  0
    3.6062    5.2020    1.9018 O   0  0  0  0  0  0  0  0  0  0  0  0
   10.8501   -0.7443    2.1457 C   0  0  0  0  0  0  0  0  0  0  0  0
   11.9947   -1.5249    1.9008 O   0  0  0  0  0  0  0  0  0  0  0  0
    9.4318    3.5844    6.7739 C   0  0  1  0  0  0  0  0  0  0  0  0
    8.4436    4.5410    7.1663 O   0  0  0  0  0  0  0  0  0  0  0  0
    3.3645    5.4389   -0.5889 C   0  0  0  0  0  0  0  0  0  0  0  0
    3.6932    6.1866   -1.8337 N   0  0  0  0  0  0  0  0  0  0  0  0
  1  2  1  1  0  0  0
  1  7  1  0  0  0  0
  1 30  1  0  0  0  0
  3  4  1  6  0  0  0
  3  9  1  0  0  0  0
  3 39  1  0  0  0  0
  5 10  1  0  0  0  0
  5 26  1  0  0  0  0
  5 32  1  6  0  0  0
  6 12  1  0  0  0  0
  6 36  1  0  0  0  0
  6 19  1  1  0  0  0
  7  8  1  1  0  0  0
  7 14  1  0  0  0  0
  9 16  1  0  0  0  0
 10 11  1  1  0  0  0
 10 18  1  0  0  0  0
 12 13  1  6  0  0  0
 12 20  1  0  0  0  0
 14 15  1  6  0  0  0
 14 22  1  0  0  0  0
 16 17  1  6  0  0  0
 16 24  1  0  0  0  0
 18 19  1  1  0  0  0
 18 25  1  0  0  0  0
 20 21  1  6  0  0  0
 20 27  1  0  0  0  0
 22 23  1  1  0  0  0
 22 29  1  0  0  0  0
 24  2  1  1  0  0  0
 24 31  1  0  0  0  0
 25 26  1  0  0  0  0
 25 33  1  6  0  0  0
 27 28  1  1  0  0  0
 27 35  1  0  0  0  0
 29 30  1  0  0  0  0
 29 37  1  6  0  0  0
 31 32  1  6  0  0  0
 31 39  1  0  0  0  0
 33 34  1  0  0  0  0
 35 36  1  0  0  0  0
 35 41  1  6  0  0  0
 37 38  1  0  0  0  0
 39 40  1  1  0  0  0
 41 42  1  0  0  0  0
M  END
>  <CHROM.1>
175.07145626,-167.41498796,71.82509889,-175.29365931,-159.24467527,-63.20891778
172.13176849,154.92460290,65.70657033,7.13462091,2.38845799,4.23423276,0.55768737
0.74996167,-2.71560629

>  <Name>
ligand

>  <RI>
0

>  <Rbt.Current_Directory>
/home/itssahil/PROJECTS/Mol_Feturizer/Test_systems_manuscript/rnas/2o3w

>  <Rbt.Executable>
rbdock ($Id: //depot/dev/client3/rdock/2013.1/src/exe/rbdock.cxx#4 $)

>  <Rbt.Library>
libRbt.so (2013.1, Build901 2013/11/27)

>  <Rbt.Parameter_File>
/export/apps/rDock/src/rDock_2013.1_src/data/scripts/dock_solv.prm

>  <Rbt.Receptor>
prm/pocket_docking_4.prm

>  <SCORE>
-10.7743

>  <SCORE.INTER>
0.39019

>  <SCORE.INTER.CONST>
1

>  <SCORE.INTER.POLAR>
0

>  <SCORE.INTER.ROT>
9

>  <SCORE.INTER.SOLV>
17.0195

>  <SCORE.INTER.VDW>
-15.013

>  <SCORE.INTER.norm>
0.00929025

>  <SCORE.INTRA>
-11.1645

>  <SCORE.INTRA.DIHEDRAL>
-21.601

>  <SCORE.INTRA.DIHEDRAL.0>
27.8999

>  <SCORE.INTRA.POLAR>
0

>  <SCORE.INTRA.POLAR.0>
0

>  <SCORE.INTRA.REPUL>
0

>  <SCORE.INTRA.REPUL.0>
0

>  <SCORE.INTRA.SOLV>
-5.81813

>  <SCORE.INTRA.SOLV.lig_0>
-104.479

>  <SCORE.INTRA.VDW>
2.54509

>  <SCORE.INTRA.VDW.0>
-6.17816

>  <SCORE.INTRA.norm>
-0.265821

>  <SCORE.RESTR>
0

>  <SCORE.RESTR.CAVITY>
0

>  <SCORE.RESTR.norm>
0

>  <SCORE.SYSTEM>
0

>  <SCORE.SYSTEM.CONST>
0

>  <SCORE.SYSTEM.DIHEDRAL>
0

>  <SCORE.SYSTEM.SOLV>
0

>  <SCORE.SYSTEM.norm>
0

>  <SCORE.heavy>
42

>  <SCORE.norm>
-0.256531

>  <RMSD>
3.250

$$$$
ligand
 OpenBabel02271912133D
libRbt.so/2013.1/901 2013/11/27
 42 45  0  0  0  0  0  0  0  0999 V2000
    9.1450    1.8818    3.0588 C   0  0  2  0  0  0  0  0  0  0  0  0
    9.6097    2.0923    4.4031 O   0  0  0  0  0  0  0  0  0  0  0  0
   12.1410    5.0357    6.3329 C   0  0  2  0  0  0  0  0  0  0  0  0
   13.2586    5.9797    6.6335 N   0  0  0  0  0  0  0  0  0  0  0  0
    8.5609    5.1110    2.8602 C   0  0  1  0  0  0  0  0  0  0  0  0
    5.1406    7.8491    1.9128 C   0  0  1  0  0  0  0  0  0  0  0  0
    7.7879    1.1228    3.1600 C   0  0  2  0  0  0  0  0  0  0  0  0
    6.8547    1.7601    4.1052 N   0  0  0  0  0  0  0  0  0  0  0  0
   12.6478    3.5377    6.3013 C   0  0  0  0  0  0  0  0  0  0  0  0
    8.2855    6.5125    3.4853 C   0  0  2  0  0  0  0  0  0  0  0  0
    7.6627    6.4627    4.7925 O   0  0  0  0  0  0  0  0  0  0  0  0
    3.6281    7.6946    2.3092 C   0  0  2  0  0  0  0  0  0  0  0  0
    3.1559    6.2967    2.0774 N   0  0  0  0  0  0  0  0  0  0  0  0
    7.9665   -0.3341    3.6254 C   0  0  1  0  0  0  0  0  0  0  0  0
    6.7041   -1.0017    3.6655 O   0  0  0  0  0  0  0  0  0  0  0  0
   11.4240    2.5912    6.0031 C   0  0  2  0  0  0  0  0  0  0  0  0
   11.8628    1.1697    5.9804 N   0  0  0  0  0  0  0  0  0  0  0  0
    7.4570    7.1723    2.3818 C   0  0  2  0  0  0  0  0  0  0  0  0
    6.0258    6.9309    2.5663 O   0  0  0  0  0  0  0  0  0  0  0  0
    2.7525    8.7439    1.4730 C   0  0  1  0  0  0  0  0  0  0  0  0
    2.9786   10.0690    2.0039 O   0  0  0  0  0  0  0  0  0  0  0  0
    8.9580   -1.0576    2.6859 C   0  0  2  0  0  0  0  0  0  0  0  0
    9.1196   -2.3978    3.0886 O   0  0  0  0  0  0  0  0  0  0  0  0
   10.7571    2.9622    4.6198 C   0  0  2  0  0  0  0  0  0  0  0  0
    7.9575    6.5705    1.0579 C   0  0  2  0  0  0  0  0  0  0  0  0
    8.3626    5.2567    1.4353 O   0  0  0  0  0  0  0  0  0  0  0  0
    3.0919    8.7289   -0.0929 C   0  0  2  0  0  0  0  0  0  0  0  0
    2.6206    7.4911   -0.6241 O   0  0  0  0  0  0  0  0  0  0  0  0
   10.3290   -0.3032    2.7119 C   0  0  2  0  0  0  0  0  0  0  0  0
   10.1336    1.0867    2.2996 O   0  0  0  0  0  0  0  0  0  0  0  0
   10.2868    4.4320    4.5569 C   0  0  2  0  0  0  0  0  0  0  0  0
    9.8784    4.6436    3.1774 O   0  0  0  0  0  0  0  0  0  0  0  0
    9.1305    7.3475    0.3836 C   0  0  0  0  0  0  0  0  0  0  0  0
    9.4634    6.7186   -0.8504 O   0  0  0  0  0  0  0  0  0  0  0  0
    4.6438    8.8669   -0.3267 C   0  0  1  0  0  0  0  0  0  0  0  0
    5.2688    7.7527    0.4070 O   0  0  0  0  0  0  0  0  0  0  0  0
   11.3613   -0.9419    1.8117 C   0  0  0  0  0  0  0  0  0  0  0  0
   12.6045   -0.3025    1.9697 O   0  0  0  0  0  0  0  0  0  0  0  0
   11.4763    5.4061    4.9468 C   0  0  1  0  0  0  0  0  0  0  0  0
   11.0024    6.7526    5.0357 O   0  0  0  0  0  0  0  0  0  0  0  0
    5.0743    8.8274   -1.8569 C   0  0  0  0  0  0  0  0  0  0  0  0
    6.5325    8.9761   -2.1179 N   0  0  0  0  0  0  0  0  0  0  0  0
  1  2  1  1  0  0  0
  1  7  1  0  0  0  0
  1 30  1  0  0  0  0
  3  4  1  6  0  0  0
  3  9  1  0  0  0  0
  3 39  1  0  0  0  0
  5 10  1  0  0  0  0
  5 26  1  0  0  0  0
  5 32  1  6  0  0  0
  6 12  1  0  0  0  0
  6 36  1  0  0  0  0
  6 19  1  1  0  0  0
  7  8  1  1  0  0  0
  7 14  1  0  0  0  0
  9 16  1  0  0  0  0
 10 11  1  1  0  0  0
 10 18  1  0  0  0  0
 12 13  1  6  0  0  0
 12 20  1  0  0  0  0
 14 15  1  6  0  0  0
 14 22  1  0  0  0  0
 16 17  1  6  0  0  0
 16 24  1  0  0  0  0
 18 19  1  1  0  0  0
 18 25  1  0  0  0  0
 20 21  1  1  0  0  0
 20 27  1  0  0  0  0
 22 23  1  1  0  0  0
 22 29  1  0  0  0  0
 24  2  1  1  0  0  0
 24 31  1  0  0  0  0
 25 26  1  0  0  0  0
 25 33  1  1  0  0  0
 27 28  1  1  0  0  0
 27 35  1  0  0  0  0
 29 30  1  0  0  0  0
 29 37  1  6  0  0  0
 31 32  1  6  0  0  0
 31 39  1  0  0  0  0
 33 34  1  0  0  0  0
 35 36  1  0  0  0  0
 35 41  1  6  0  0  0
 37 38  1  0  0  0  0
 39 40  1  1  0  0  0
 41 42  1  0  0  0  0
M  END
>  <CHROM.1>
-170.58476964,-157.28902349,158.73467870,-171.04426741,-177.86565913,-174.45258976
124.11603019,60.79800722,179.09844482,8.16517833,4.59480044,2.67723359,0.76900687
0.57620055,-3.08399442

>  <Name>
ligand

>  <RI>
0

>  <Rbt.Current_Directory>
/home/itssahil/PROJECTS/Mol_Feturizer/Test_systems_manuscript/rnas/2o3w

>  <Rbt.Executable>
rbdock ($Id: //depot/dev/client3/rdock/2013.1/src/exe/rbdock.cxx#4 $)

>  <Rbt.Library>
libRbt.so (2013.1, Build901 2013/11/27)

>  <Rbt.Parameter_File>
/export/apps/rDock/src/rDock_2013.1_src/data/scripts/dock_solv.prm

>  <Rbt.Receptor>
prm/pocket_docking_8.prm

>  <SCORE>
-10.544

>  <SCORE.INTER>
-1.73139

>  <SCORE.INTER.CONST>
1

>  <SCORE.INTER.POLAR>
0

>  <SCORE.INTER.ROT>
9

>  <SCORE.INTER.SOLV>
12.7451

>  <SCORE.INTER.VDW>
-15.0026

>  <SCORE.INTER.norm>
-0.0412237

>  <SCORE.INTRA>
-8.81257

>  <SCORE.INTRA.DIHEDRAL>
-15.4521

>  <SCORE.INTRA.DIHEDRAL.0>
27.8999

>  <SCORE.INTRA.POLAR>
0

>  <SCORE.INTRA.POLAR.0>
0

>  <SCORE.INTRA.REPUL>
0

>  <SCORE.INTRA.REPUL.0>
0

>  <SCORE.INTRA.SOLV>
-4.22162

>  <SCORE.INTRA.SOLV.lig_0>
-104.479

>  <SCORE.INTRA.VDW>
1.02431

>  <SCORE.INTRA.VDW.0>
-6.17816

>  <SCORE.INTRA.norm>
-0.209823

>  <SCORE.RESTR>
0

>  <SCORE.RESTR.CAVITY>
0

>  <SCORE.RESTR.norm>
0

>  <SCORE.SYSTEM>
0

>  <SCORE.SYSTEM.CONST>
0

>  <SCORE.SYSTEM.DIHEDRAL>
0

>  <SCORE.SYSTEM.SOLV>
0

>  <SCORE.SYSTEM.norm>
0

>  <SCORE.heavy>
42

>  <SCORE.norm>
-0.251047

>  <RMSD>
3.329

$$$$
ligand
 OpenBabel02271912133D
libRbt.so/2013.1/901 2013/11/27
 42 45  0  0  0  0  0  0  0  0999 V2000
    7.9637   -1.1621    5.9692 C   0  0  2  0  0  0  0  0  0  0  0  0
    9.0867   -0.6396    6.6993 O   0  0  0  0  0  0  0  0  0  0  0  0
   10.5780    3.4231    6.9571 C   0  0  2  0  0  0  0  0  0  0  0  0
   11.1514    4.7577    6.6099 N   0  0  0  0  0  0  0  0  0  0  0  0
    6.4179    2.2226    5.3028 C   0  0  1  0  0  0  0  0  0  0  0  0
    4.2633    5.1195    3.2962 C   0  0  1  0  0  0  0  0  0  0  0  0
    7.6950   -2.5973    6.5135 C   0  0  2  0  0  0  0  0  0  0  0  0
    7.6226   -2.6380    7.9844 N   0  0  0  0  0  0  0  0  0  0  0  0
   11.6313    2.2669    6.7212 C   0  0  0  0  0  0  0  0  0  0  0  0
    6.2756    2.8204    3.8699 C   0  0  2  0  0  0  0  0  0  0  0  0
    6.8605    4.1374    3.7201 O   0  0  0  0  0  0  0  0  0  0  0  0
    3.6852    6.4464    3.9077 C   0  0  2  0  0  0  0  0  0  0  0  0
    2.2407    6.2893    4.2535 N   0  0  0  0  0  0  0  0  0  0  0  0
    8.7899   -3.5956    6.0944 C   0  0  1  0  0  0  0  0  0  0  0  0
    8.4830   -4.9034    6.5805 O   0  0  0  0  0  0  0  0  0  0  0  0
   10.9778    0.8912    7.1250 C   0  0  2  0  0  0  0  0  0  0  0  0
   11.9479   -0.2197    6.9290 N   0  0  0  0  0  0  0  0  0  0  0  0
    4.7622    2.7405    3.6638 C   0  0  2  0  0  0  0  0  0  0  0  0
    4.0921    3.9589    4.1191 O   0  0  0  0  0  0  0  0  0  0  0  0
    3.9007    7.6458    2.8675 C   0  0  1  0  0  0  0  0  0  0  0  0
    5.2999    8.0077    2.8552 O   0  0  0  0  0  0  0  0  0  0  0  0
    8.9354   -3.5852    4.5556 C   0  0  2  0  0  0  0  0  0  0  0  0
    9.9226   -4.5065    4.1543 O   0  0  0  0  0  0  0  0  0  0  0  0
    9.6793    0.6185    6.2675 C   0  0  2  0  0  0  0  0  0  0  0  0
    4.2894    1.5133    4.4611 C   0  0  2  0  0  0  0  0  0  0  0  0
    5.2143    1.4585    5.5446 O   0  0  0  0  0  0  0  0  0  0  0  0
    3.4307    7.2726    1.3818 C   0  0  2  0  0  0  0  0  0  0  0  0
    2.0074    7.1699    1.3931 O   0  0  0  0  0  0  0  0  0  0  0  0
    9.3062   -2.1384    4.0876 C   0  0  2  0  0  0  0  0  0  0  0  0
    8.2722   -1.2002    4.5239 O   0  0  0  0  0  0  0  0  0  0  0  0
    8.6250    1.7387    6.4043 C   0  0  2  0  0  0  0  0  0  0  0  0
    7.6002    1.4207    5.4230 O   0  0  0  0  0  0  0  0  0  0  0  0
    4.2806    0.1730    3.6624 C   0  0  0  0  0  0  0  0  0  0  0  0
    5.5082    0.0405    2.9523 O   0  0  0  0  0  0  0  0  0  0  0  0
    4.0721    5.9091    0.9218 C   0  0  1  0  0  0  0  0  0  0  0  0
    3.6642    4.9071    1.9217 O   0  0  0  0  0  0  0  0  0  0  0  0
    9.4625   -2.0345    2.5881 C   0  0  0  0  0  0  0  0  0  0  0  0
   10.5927   -2.7589    2.1670 O   0  0  0  0  0  0  0  0  0  0  0  0
    9.2802    3.1499    6.0960 C   0  0  1  0  0  0  0  0  0  0  0  0
    8.3461    4.1979    6.3693 O   0  0  0  0  0  0  0  0  0  0  0  0
    3.6310    5.4443   -0.5336 C   0  0  0  0  0  0  0  0  0  0  0  0
    4.3231    4.2353   -1.0589 N   0  0  0  0  0  0  0  0  0  0  0  0
  1  2  1  1  0  0  0
  1  7  1  0  0  0  0
  1 30  1  0  0  0  0
  3  4  1  6  0  0  0
  3  9  1  0  0  0  0
  3 39  1  0  0  0  0
  5 10  1  0  0  0  0
  5 26  1  0  0  0  0
  5 32  1  6  0  0  0
  6 12  1  0  0  0  0
  6 36  1  0  0  0  0
  6 19  1  1  0  0  0
  7  8  1  1  0  0  0
  7 14  1  0  0  0  0
  9 16  1  0  0  0  0
 10 11  1  1  0  0  0
 10 18  1  0  0  0  0
 12 13  1  6  0  0  0
 12 20  1  0  0  0  0
 14 15  1  6  0  0  0
 14 22  1  0  0  0  0
 16 17  1  6  0  0  0
 16 24  1  0  0  0  0
 18 19  1  1  0  0  0
 18 25  1  0  0  0  0
 20 21  1  6  0  0  0
 20 27  1  0  0  0  0
 22 23  1  1  0  0  0
 22 29  1  0  0  0  0
 24  2  1  1  0  0  0
 24 31  1  0  0  0  0
 25 26  1  0  0  0  0
 25 33  1  6  0  0  0
 27 28  1  1  0  0  0
 27 35  1  0  0  0  0
 29 30  1  0  0  0  0
 29 37  1  6  0  0  0
 31 32  1  6  0  0  0
 31 39  1  0  0  0  0
 33 34  1  0  0  0  0
 35 36  1  0  0  0  0
 35 41  1  6  0  0  0
 37 38  1  0  0  0  0
 39 40  1  1  0  0  0
 41 42  1  0  0  0  0
M  END
>  <CHROM.1>
171.39710557,-173.94702844,72.91312709,-172.59920000,46.55429539,-67.70174332
177.24608361,121.09516705,173.95082211,6.99392822,1.83611808,4.39131183,0.78880925
0.68320376,-2.98819413

>  <Name>
ligand

>  <RI>
0

>  <Rbt.Current_Directory>
/home/itssahil/PROJECTS/Mol_Feturizer/Test_systems_manuscript/rnas/2o3w

>  <Rbt.Executable>
rbdock ($Id: //depot/dev/client3/rdock/2013.1/src/exe/rbdock.cxx#4 $)

>  <Rbt.Library>
libRbt.so (2013.1, Build901 2013/11/27)

>  <Rbt.Parameter_File>
/export/apps/rDock/src/rDock_2013.1_src/data/scripts/dock_solv.prm

>  <Rbt.Receptor>
prm/pocket_docking_4.prm

>  <SCORE>
-8.2159

>  <SCORE.INTER>
0.830283

>  <SCORE.INTER.CONST>
1

>  <SCORE.INTER.POLAR>
0

>  <SCORE.INTER.ROT>
9

>  <SCORE.INTER.SOLV>
17.4023

>  <SCORE.INTER.VDW>
-14.8473

>  <SCORE.INTER.norm>
0.0197686

>  <SCORE.INTRA>
-9.04619

>  <SCORE.INTRA.DIHEDRAL>
-17.9641

>  <SCORE.INTRA.DIHEDRAL.0>
27.8999

>  <SCORE.INTRA.POLAR>
0

>  <SCORE.INTRA.POLAR.0>
0

>  <SCORE.INTRA.REPUL>
0.004885

>  <SCORE.INTRA.REPUL.0>
0

>  <SCORE.INTRA.SOLV>
-5.02278

>  <SCORE.INTRA.SOLV.lig_0>
-104.479

>  <SCORE.INTRA.VDW>
2.42285

>  <SCORE.INTRA.VDW.0>
-6.17816

>  <SCORE.INTRA.norm>
-0.215385

>  <SCORE.RESTR>
0

>  <SCORE.RESTR.CAVITY>
0

>  <SCORE.RESTR.norm>
0

>  <SCORE.SYSTEM>
0

>  <SCORE.SYSTEM.CONST>
0

>  <SCORE.SYSTEM.DIHEDRAL>
0

>  <SCORE.SYSTEM.SOLV>
0

>  <SCORE.SYSTEM.norm>
0

>  <SCORE.heavy>
42

>  <SCORE.norm>
-0.195617

>  <RMSD>
3.354

$$$$
ligand
 OpenBabel02271912133D
libRbt.so/2013.1/901 2013/11/27
 42 45  0  0  0  0  0  0  0  0999 V2000
    8.3760   -0.8852    6.3371 C   0  0  2  0  0  0  0  0  0  0  0  0
    9.8081   -0.7924    6.4248 O   0  0  0  0  0  0  0  0  0  0  0  0
   12.2573    2.7146    7.1305 C   0  0  2  0  0  0  0  0  0  0  0  0
   12.9356    4.0362    6.9766 N   0  0  0  0  0  0  0  0  0  0  0  0
    8.1000    2.5868    5.7896 C   0  0  1  0  0  0  0  0  0  0  0  0
    6.6463    4.2074    1.9516 C   0  0  1  0  0  0  0  0  0  0  0  0
    7.9826   -2.3156    6.8140 C   0  0  2  0  0  0  0  0  0  0  0  0
    8.6051   -2.6719    8.1009 N   0  0  0  0  0  0  0  0  0  0  0  0
   12.7423    1.6887    6.0286 C   0  0  0  0  0  0  0  0  0  0  0  0
    8.6363    2.1131    4.4044 C   0  0  2  0  0  0  0  0  0  0  0  0
    9.9149    2.6883    4.0394 O   0  0  0  0  0  0  0  0  0  0  0  0
    6.8743    3.5349    0.5499 C   0  0  2  0  0  0  0  0  0  0  0  0
    8.2580    3.7960    0.0518 N   0  0  0  0  0  0  0  0  0  0  0  0
    8.3956   -3.4024    5.8043 C   0  0  1  0  0  0  0  0  0  0  0  0
    7.9810   -4.6904    6.2625 O   0  0  0  0  0  0  0  0  0  0  0  0
   12.0111    0.3118    6.2562 C   0  0  2  0  0  0  0  0  0  0  0  0
   12.4555   -0.6836    5.2437 N   0  0  0  0  0  0  0  0  0  0  0  0
    7.4630    2.4744    3.4922 C   0  0  2  0  0  0  0  0  0  0  0  0
    7.5955    3.8295    2.9565 O   0  0  0  0  0  0  0  0  0  0  0  0
    5.7782    4.0809   -0.4831 C   0  0  1  0  0  0  0  0  0  0  0  0
    4.4999    3.4858   -0.1658 O   0  0  0  0  0  0  0  0  0  0  0  0
    7.7927   -3.0751    4.4192 C   0  0  2  0  0  0  0  0  0  0  0  0
    8.1477   -4.0698    3.4870 O   0  0  0  0  0  0  0  0  0  0  0  0
   10.4440    0.4925    6.1697 C   0  0  2  0  0  0  0  0  0  0  0  0
    6.1970    2.3375    4.3547 C   0  0  2  0  0  0  0  0  0  0  0  0
    6.6618    2.6664    5.6617 O   0  0  0  0  0  0  0  0  0  0  0  0
    5.6457    5.6777   -0.4632 C   0  0  2  0  0  0  0  0  0  0  0  0
    6.8434    6.2164   -1.0216 O   0  0  0  0  0  0  0  0  0  0  0  0
    8.3102   -1.6727    3.9555 C   0  0  2  0  0  0  0  0  0  0  0  0
    7.9380   -0.6598    4.9432 O   0  0  0  0  0  0  0  0  0  0  0  0
    9.9035    1.5257    7.1824 C   0  0  2  0  0  0  0  0  0  0  0  0
    8.5006    1.6979    6.8405 O   0  0  0  0  0  0  0  0  0  0  0  0
    5.5356    0.9246    4.3332 C   0  0  0  0  0  0  0  0  0  0  0  0
    4.3207    0.9625    5.0759 O   0  0  0  0  0  0  0  0  0  0  0  0
    5.4474    6.2007    1.0096 C   0  0  1  0  0  0  0  0  0  0  0  0
    6.6056    5.7110    1.7771 O   0  0  0  0  0  0  0  0  0  0  0  0
    7.7627   -1.2677    2.6065 C   0  0  0  0  0  0  0  0  0  0  0  0
    8.1136   -2.2222    1.6343 O   0  0  0  0  0  0  0  0  0  0  0  0
   10.6891    2.8962    7.0406 C   0  0  1  0  0  0  0  0  0  0  0  0
   10.2942    3.8007    8.0758 O   0  0  0  0  0  0  0  0  0  0  0  0
    5.3402    7.7829    1.1261 C   0  0  0  0  0  0  0  0  0  0  0  0
    5.2063    8.3175    2.5091 N   0  0  0  0  0  0  0  0  0  0  0  0
  1  2  1  6  0  0  0
  1  7  1  0  0  0  0
  1 30  1  0  0  0  0
  3  4  1  6  0  0  0
  3  9  1  0  0  0  0
  3 39  1  0  0  0  0
  5 10  1  0  0  0  0
  5 26  1  0  0  0  0
  5 32  1  1  0  0  0
  6 12  1  0  0  0  0
  6 36  1  0  0  0  0
  6 19  1  1  0  0  0
  7  8  1  1  0  0  0
  7 14  1  0  0  0  0
  9 16  1  0  0  0  0
 10 11  1  6  0  0  0
 10 18  1  0  0  0  0
 12 13  1  6  0  0  0
 12 20  1  0  0  0  0
 14 15  1  1  0  0  0
 14 22  1  0  0  0  0
 16 17  1  6  0  0  0
 16 24  1  0  0  0  0
 18 19  1  1  0  0  0
 18 25  1  0  0  0  0
 20 21  1  1  0  0  0
 20 27  1  0  0  0  0
 22 23  1  6  0  0  0
 22 29  1  0  0  0  0
 24  2  1  1  0  0  0
 24 31  1  0  0  0  0
 25 26  1  0  0  0  0
 25 33  1  1  0  0  0
 27 28  1  1  0  0  0
 27 35  1  0  0  0  0
 29 30  1  0  0  0  0
 29 37  1  6  0  0  0
 31 32  1  6  0  0  0
 31 39  1  0  0  0  0
 33 34  1  0  0  0  0
 35 36  1  0  0  0  0
 35 41  1  6  0  0  0
 37 38  1  0  0  0  0
 39 40  1  1  0  0  0
 41 42  1  0  0  0  0
M  END
>  <CHROM.1>
-173.69068713,-177.16348082,171.98552563,-72.87193286,-175.18290138,-58.44835913
-82.81220575,64.12250024,-177.67372533,8.14034914,1.66231932,4.14712627,0.99811592
0.80819584,2.92457644

>  <Name>
ligand

>  <RI>
0

>  <Rbt.Current_Directory>
/home/itssahil/PROJECTS/Mol_Feturizer/Test_systems_manuscript/rnas/2o3w

>  <Rbt.Executable>
rbdock ($Id: //depot/dev/client3/rdock/2013.1/src/exe/rbdock.cxx#4 $)

>  <Rbt.Library>
libRbt.so (2013.1, Build901 2013/11/27)

>  <Rbt.Parameter_File>
/export/apps/rDock/src/rDock_2013.1_src/data/scripts/dock_solv.prm

>  <Rbt.Receptor>
prm/pocket_docking_3.prm

>  <SCORE>
-8.45913

>  <SCORE.INTER>
3.69585

>  <SCORE.INTER.CONST>
1

>  <SCORE.INTER.POLAR>
0

>  <SCORE.INTER.ROT>
9

>  <SCORE.INTER.SOLV>
14.0904

>  <SCORE.INTER.VDW>
-11.8329

>  <SCORE.INTER.norm>
0.0879963

>  <SCORE.INTRA>
-12.1827

>  <SCORE.INTRA.DIHEDRAL>
-23.9637

>  <SCORE.INTRA.DIHEDRAL.0>
27.8999

>  <SCORE.INTRA.POLAR>
0

>  <SCORE.INTRA.POLAR.0>
0

>  <SCORE.INTRA.REPUL>
0

>  <SCORE.INTRA.REPUL.0>
0

>  <SCORE.INTRA.SOLV>
-4.66098

>  <SCORE.INTRA.SOLV.lig_0>
-104.479

>  <SCORE.INTRA.VDW>
2.12963

>  <SCORE.INTRA.VDW.0>
-6.17816

>  <SCORE.INTRA.norm>
-0.290065

>  <SCORE.RESTR>
0.0277326

>  <SCORE.RESTR.CAVITY>
0.0277326

>  <SCORE.RESTR.norm>
0.000660299

>  <SCORE.SYSTEM>
0

>  <SCORE.SYSTEM.CONST>
0

>  <SCORE.SYSTEM.DIHEDRAL>
0

>  <SCORE.SYSTEM.SOLV>
0

>  <SCORE.SYSTEM.norm>
0

>  <SCORE.heavy>
42

>  <SCORE.norm>
-0.201408

>  <RMSD>
3.447

$$$$
ligand
 OpenBabel02271912133D
libRbt.so/2013.1/901 2013/11/27
 42 45  0  0  0  0  0  0  0  0999 V2000
    8.3707   -1.3631    6.0897 C   0  0  2  0  0  0  0  0  0  0  0  0
    9.6657   -1.5361    6.6899 O   0  0  0  0  0  0  0  0  0  0  0  0
   12.8129    1.2804    7.6689 C   0  0  2  0  0  0  0  0  0  0  0  0
   13.8514    2.3496    7.5748 N   0  0  0  0  0  0  0  0  0  0  0  0
    9.1343    2.0598    5.4439 C   0  0  1  0  0  0  0  0  0  0  0  0
    8.7765    3.5665    1.3085 C   0  0  1  0  0  0  0  0  0  0  0  0
    7.4922   -2.5656    6.5484 C   0  0  2  0  0  0  0  0  0  0  0  0
    7.5387   -2.7741    8.0061 N   0  0  0  0  0  0  0  0  0  0  0  0
   13.1968    0.0278    6.7826 C   0  0  0  0  0  0  0  0  0  0  0  0
    9.5373    1.2261    4.1896 C   0  0  2  0  0  0  0  0  0  0  0  0
   10.9636    1.1934    3.9371 O   0  0  0  0  0  0  0  0  0  0  0  0
    9.6697    4.5903    0.5192 C   0  0  2  0  0  0  0  0  0  0  0  0
   10.1491    5.6832    1.4174 N   0  0  0  0  0  0  0  0  0  0  0  0
    7.9282   -3.8903    5.8956 C   0  0  1  0  0  0  0  0  0  0  0  0
    7.0727   -4.9556    6.3129 O   0  0  0  0  0  0  0  0  0  0  0  0
   12.0785   -1.0709    6.9403 C   0  0  2  0  0  0  0  0  0  0  0  0
   12.4153   -2.2720    6.1295 N   0  0  0  0  0  0  0  0  0  0  0  0
    8.6879    1.8912    3.1055 C   0  0  2  0  0  0  0  0  0  0  0  0
    9.4022    2.9956    2.4644 O   0  0  0  0  0  0  0  0  0  0  0  0
    8.8330    5.1826   -0.7120 C   0  0  1  0  0  0  0  0  0  0  0  0
    8.7205    4.1656   -1.7328 O   0  0  0  0  0  0  0  0  0  0  0  0
    7.9248   -3.7330    4.3579 C   0  0  2  0  0  0  0  0  0  0  0  0
    8.3057   -4.9426    3.7446 O   0  0  0  0  0  0  0  0  0  0  0  0
   10.6739   -0.5045    6.4907 C   0  0  2  0  0  0  0  0  0  0  0  0
    7.4129    2.3860    3.8090 C   0  0  2  0  0  0  0  0  0  0  0  0
    7.8680    2.6821    5.1272 O   0  0  0  0  0  0  0  0  0  0  0  0
    7.3702    5.6804   -0.2878 C   0  0  2  0  0  0  0  0  0  0  0  0
    7.5291    6.8440    0.5228 O   0  0  0  0  0  0  0  0  0  0  0  0
    8.9046   -2.5790    3.9606 C   0  0  2  0  0  0  0  0  0  0  0  0
    8.4943   -1.3376    4.6166 O   0  0  0  0  0  0  0  0  0  0  0  0
   10.2575    0.7576    7.2773 C   0  0  2  0  0  0  0  0  0  0  0  0
    9.0549    1.2397    6.6171 O   0  0  0  0  0  0  0  0  0  0  0  0
    6.2373    1.3607    3.8382 C   0  0  0  0  0  0  0  0  0  0  0  0
    6.4538    0.4265    4.8914 O   0  0  0  0  0  0  0  0  0  0  0  0
    6.6115    4.5565    0.5143 C   0  0  1  0  0  0  0  0  0  0  0  0
    7.4651    4.2317    1.6702 O   0  0  0  0  0  0  0  0  0  0  0  0
    8.9592   -2.3507    2.4678 C   0  0  0  0  0  0  0  0  0  0  0  0
    9.5082   -3.4753    1.8250 O   0  0  0  0  0  0  0  0  0  0  0  0
   11.4081    1.8475    7.2156 C   0  0  1  0  0  0  0  0  0  0  0  0
   11.0879    2.9518    8.0663 O   0  0  0  0  0  0  0  0  0  0  0  0
    5.1593    4.9792    1.0051 C   0  0  0  0  0  0  0  0  0  0  0  0
    5.1073    6.1490    1.9246 N   0  0  0  0  0  0  0  0  0  0  0  0
  1  2  1  1  0  0  0
  1  7  1  0  0  0  0
  1 30  1  0  0  0  0
  3  4  1  6  0  0  0
  3  9  1  0  0  0  0
  3 39  1  0  0  0  0
  5 10  1  0  0  0  0
  5 26  1  0  0  0  0
  5 32  1  1  0  0  0
  6 12  1  0  0  0  0
  6 36  1  0  0  0  0
  6 19  1  1  0  0  0
  7  8  1  1  0  0  0
  7 14  1  0  0  0  0
  9 16  1  0  0  0  0
 10 11  1  6  0  0  0
 10 18  1  0  0  0  0
 12 13  1  1  0  0  0
 12 20  1  0  0  0  0
 14 15  1  6  0  0  0
 14 22  1  0  0  0  0
 16 17  1  6  0  0  0
 16 24  1  0  0  0  0
 18 19  1  1  0  0  0
 18 25  1  0  0  0  0
 20 21  1  6  0  0  0
 20 27  1  0  0  0  0
 22 23  1  6  0  0  0
 22 29  1  0  0  0  0
 24  2  1  1  0  0  0
 24 31  1  0  0  0  0
 25 26  1  0  0  0  0
 25 33  1  1  0  0  0
 27 28  1  1  0  0  0
 27 35  1  0  0  0  0
 29 30  1  0  0  0  0
 29 37  1  6  0  0  0
 31 32  1  6  0  0  0
 31 39  1  0  0  0  0
 33 34  1  0  0  0  0
 35 36  1  0  0  0  0
 35 41  1  1  0  0  0
 37 38  1  0  0  0  0
 39 40  1  1  0  0  0
 41 42  1  0  0  0  0
M  END
>  <CHROM.1>
-176.46614445,-166.70492436,171.44661848,-170.91019960,80.71823854,-65.32111338
-83.07971195,74.37019957,-60.56619652,8.98257604,1.01011552,4.13475352,1.27628494
0.79150042,2.70909227

>  <Name>
ligand

>  <RI>
0

>  <Rbt.Current_Directory>
/home/itssahil/PROJECTS/Mol_Feturizer/Test_systems_manuscript/rnas/2o3w

>  <Rbt.Executable>
rbdock ($Id: //depot/dev/client3/rdock/2013.1/src/exe/rbdock.cxx#4 $)

>  <Rbt.Library>
libRbt.so (2013.1, Build901 2013/11/27)

>  <Rbt.Parameter_File>
/export/apps/rDock/src/rDock_2013.1_src/data/scripts/dock_solv.prm

>  <Rbt.Receptor>
prm/pocket_docking_4.prm

>  <SCORE>
-9.61675

>  <SCORE.INTER>
0.816574

>  <SCORE.INTER.CONST>
1

>  <SCORE.INTER.POLAR>
0

>  <SCORE.INTER.ROT>
9

>  <SCORE.INTER.SOLV>
13.2264

>  <SCORE.INTER.VDW>
-13.4644

>  <SCORE.INTER.norm>
0.0194422

>  <SCORE.INTRA>
-10.5661

>  <SCORE.INTRA.DIHEDRAL>
-21.3473

>  <SCORE.INTRA.DIHEDRAL.0>
27.8999

>  <SCORE.INTRA.POLAR>
0

>  <SCORE.INTRA.POLAR.0>
0

>  <SCORE.INTRA.REPUL>
0

>  <SCORE.INTRA.REPUL.0>
0

>  <SCORE.INTRA.SOLV>
-1.87771

>  <SCORE.INTRA.SOLV.lig_0>
-104.479

>  <SCORE.INTRA.VDW>
1.04644

>  <SCORE.INTRA.VDW.0>
-6.17816

>  <SCORE.INTRA.norm>
-0.251574

>  <SCORE.RESTR>
0.132761

>  <SCORE.RESTR.CAVITY>
0.132761

>  <SCORE.RESTR.norm>
0.00316096

>  <SCORE.SYSTEM>
0

>  <SCORE.SYSTEM.CONST>
0

>  <SCORE.SYSTEM.DIHEDRAL>
0

>  <SCORE.SYSTEM.SOLV>
0

>  <SCORE.SYSTEM.norm>
0

>  <SCORE.heavy>
42

>  <SCORE.norm>
-0.22897

>  <RMSD>
3.498

$$$$
ligand
 OpenBabel02271912133D
libRbt.so/2013.1/901 2013/11/27
 42 45  0  0  0  0  0  0  0  0999 V2000
    9.3726   -1.6866    5.6027 C   0  0  2  0  0  0  0  0  0  0  0  0
    9.9889   -0.7526    4.6999 O   0  0  0  0  0  0  0  0  0  0  0  0
   10.3345    2.6717    7.3363 C   0  0  2  0  0  0  0  0  0  0  0  0
   10.4330    4.0681    7.8566 N   0  0  0  0  0  0  0  0  0  0  0  0
    7.6028    2.0236    3.9478 C   0  0  1  0  0  0  0  0  0  0  0  0
    7.4788    4.5840    2.4036 C   0  0  1  0  0  0  0  0  0  0  0  0
    9.8851   -3.1048    5.2101 C   0  0  2  0  0  0  0  0  0  0  0  0
   11.3517   -3.1583    5.0803 N   0  0  0  0  0  0  0  0  0  0  0  0
   11.5864    2.3024    6.4429 C   0  0  0  0  0  0  0  0  0  0  0  0
    8.6468    1.8774    2.7991 C   0  0  2  0  0  0  0  0  0  0  0  0
    9.8645    2.6336    3.0097 O   0  0  0  0  0  0  0  0  0  0  0  0
    5.9224    4.6555    2.6070 C   0  0  2  0  0  0  0  0  0  0  0  0
    5.2373    5.0608    1.3431 N   0  0  0  0  0  0  0  0  0  0  0  0
    9.3020   -3.5862    3.8688 C   0  0  1  0  0  0  0  0  0  0  0  0
    9.7664   -4.9035    3.5687 O   0  0  0  0  0  0  0  0  0  0  0  0
   11.4363    0.8155    5.9437 C   0  0  2  0  0  0  0  0  0  0  0  0
   12.6065    0.4289    5.1102 N   0  0  0  0  0  0  0  0  0  0  0  0
    7.8126    2.2899    1.5853 C   0  0  2  0  0  0  0  0  0  0  0  0
    7.9023    3.7286    1.3346 O   0  0  0  0  0  0  0  0  0  0  0  0
    5.5909    5.6784    3.7948 C   0  0  1  0  0  0  0  0  0  0  0  0
    5.9431    5.0622    5.0538 O   0  0  0  0  0  0  0  0  0  0  0  0
    7.7584   -3.5319    3.9284 C   0  0  2  0  0  0  0  0  0  0  0  0
    7.2086   -3.9856    2.7133 O   0  0  0  0  0  0  0  0  0  0  0  0
   10.1081    0.6406    5.1064 C   0  0  2  0  0  0  0  0  0  0  0  0
    6.3675    1.8682    1.9002 C   0  0  2  0  0  0  0  0  0  0  0  0
    6.3009    1.9854    3.3195 O   0  0  0  0  0  0  0  0  0  0  0  0
    6.3630    7.0746    3.6469 C   0  0  2  0  0  0  0  0  0  0  0  0
    5.8027    7.7605    2.5279 O   0  0  0  0  0  0  0  0  0  0  0  0
    7.3103   -2.0616    4.2234 C   0  0  2  0  0  0  0  0  0  0  0  0
    7.9009   -1.6107    5.4834 O   0  0  0  0  0  0  0  0  0  0  0  0
    8.8436    1.0381    5.8991 C   0  0  2  0  0  0  0  0  0  0  0  0
    7.7576    0.9940    4.9331 O   0  0  0  0  0  0  0  0  0  0  0  0
    5.9866    0.4277    1.4376 C   0  0  0  0  0  0  0  0  0  0  0  0
    5.8430    0.4112    0.0205 O   0  0  0  0  0  0  0  0  0  0  0  0
    7.9045    6.8366    3.4245 C   0  0  1  0  0  0  0  0  0  0  0  0
    8.0187    5.9875    2.2260 O   0  0  0  0  0  0  0  0  0  0  0  0
    5.8083   -1.9169    4.3055 C   0  0  0  0  0  0  0  0  0  0  0  0
    5.4595   -0.5633    4.4646 O   0  0  0  0  0  0  0  0  0  0  0  0
    9.0063    2.4987    6.4957 C   0  0  1  0  0  0  0  0  0  0  0  0
    7.9038    2.8071    7.3530 O   0  0  0  0  0  0  0  0  0  0  0  0
    8.7452    8.1727    3.2336 C   0  0  0  0  0  0  0  0  0  0  0  0
    8.3873    8.9922    2.0433 N   0  0  0  0  0  0  0  0  0  0  0  0
  1  2  1  6  0  0  0
  1  7  1  0  0  0  0
  1 30  1  0  0  0  0
  3  4  1  6  0  0  0
  3  9  1  0  0  0  0
  3 39  1  0  0  0  0
  5 10  1  0  0  0  0
  5 26  1  0  0  0  0
  5 32  1  1  0  0  0
  6 12  1  0  0  0  0
  6 36  1  0  0  0  0
  6 19  1  6  0  0  0
  7  8  1  6  0  0  0
  7 14  1  0  0  0  0
  9 16  1  0  0  0  0
 10 11  1  1  0  0  0
 10 18  1  0  0  0  0
 12 13  1  6  0  0  0
 12 20  1  0  0  0  0
 14 15  1  1  0  0  0
 14 22  1  0  0  0  0
 16 17  1  6  0  0  0
 16 24  1  0  0  0  0
 18 19  1  1  0  0  0
 18 25  1  0  0  0  0
 20 21  1  1  0  0  0
 20 27  1  0  0  0  0
 22 23  1  6  0  0  0
 22 29  1  0  0  0  0
 24  2  1  1  0  0  0
 24 31  1  0  0  0  0
 25 26  1  0  0  0  0
 25 33  1  1  0  0  0
 27 28  1  6  0  0  0
 27 35  1  0  0  0  0
 29 30  1  0  0  0  0
 29 37  1  1  0  0  0
 31 32  1  6  0  0  0
 31 39  1  0  0  0  0
 33 34  1  0  0  0  0
 35 36  1  0  0  0  0
 35 41  1  6  0  0  0
 37 38  1  0  0  0  0
 39 40  1  1  0  0  0
 41 42  1  0  0  0  0
M  END
>  <CHROM.1>
-157.34272348,86.14759164,-58.83566952,-74.22345499,-73.35501564,-175.30303622
-74.93342369,75.70394823,-62.44067286,8.13108755,1.76174819,3.95940499,-1.27946990
-0.76055618,0.03023279

>  <Name>
ligand

>  <RI>
0

>  <Rbt.Current_Directory>
/home/itssahil/PROJECTS/Mol_Feturizer/Test_systems_manuscript/rnas/2o3w

>  <Rbt.Executable>
rbdock ($Id: //depot/dev/client3/rdock/2013.1/src/exe/rbdock.cxx#4 $)

>  <Rbt.Library>
libRbt.so (2013.1, Build901 2013/11/27)

>  <Rbt.Parameter_File>
/export/apps/rDock/src/rDock_2013.1_src/data/scripts/dock_solv.prm

>  <Rbt.Receptor>
prm/pocket_docking_3.prm

>  <SCORE>
-1.06988

>  <SCORE.INTER>
5.28615

>  <SCORE.INTER.CONST>
1

>  <SCORE.INTER.POLAR>
0

>  <SCORE.INTER.ROT>
9

>  <SCORE.INTER.SOLV>
11.3334

>  <SCORE.INTER.VDW>
-9.85369

>  <SCORE.INTER.norm>
0.125861

>  <SCORE.INTRA>
-6.36099

>  <SCORE.INTRA.DIHEDRAL>
-18.7815

>  <SCORE.INTRA.DIHEDRAL.0>
27.8999

>  <SCORE.INTRA.POLAR>
0

>  <SCORE.INTRA.POLAR.0>
0

>  <SCORE.INTRA.REPUL>
0

>  <SCORE.INTRA.REPUL.0>
0

>  <SCORE.INTRA.SOLV>
0.538312

>  <SCORE.INTRA.SOLV.lig_0>
-104.479

>  <SCORE.INTRA.VDW>
2.76061

>  <SCORE.INTRA.VDW.0>
-6.17816

>  <SCORE.INTRA.norm>
-0.151452

>  <SCORE.RESTR>
0.00495727

>  <SCORE.RESTR.CAVITY>
0.00495727

>  <SCORE.RESTR.norm>
0.00011803

>  <SCORE.SYSTEM>
0

>  <SCORE.SYSTEM.CONST>
0

>  <SCORE.SYSTEM.DIHEDRAL>
0

>  <SCORE.SYSTEM.SOLV>
0

>  <SCORE.SYSTEM.norm>
0

>  <SCORE.heavy>
42

>  <SCORE.norm>
-0.0254733

>  <RMSD>
3.740

$$$$
ligand
 OpenBabel02271912133D
libRbt.so/2013.1/901 2013/11/27
 42 45  0  0  0  0  0  0  0  0999 V2000
    9.3793    0.9981    2.6025 C   0  0  2  0  0  0  0  0  0  0  0  0
    9.3641    1.5058    3.9476 O   0  0  0  0  0  0  0  0  0  0  0  0
   10.2825    5.4307    5.5437 C   0  0  2  0  0  0  0  0  0  0  0  0
   10.9856    6.7023    5.8888 N   0  0  0  0  0  0  0  0  0  0  0  0
    9.3616    4.6405    1.1352 C   0  0  1  0  0  0  0  0  0  0  0  0
    8.0981    6.5092   -2.7443 C   0  0  1  0  0  0  0  0  0  0  0  0
    8.3868   -0.2024    2.5580 C   0  0  2  0  0  0  0  0  0  0  0  0
    7.0746    0.1290    3.1401 N   0  0  0  0  0  0  0  0  0  0  0  0
   10.9954    4.1830    6.2046 C   0  0  0  0  0  0  0  0  0  0  0  0
    9.7404    4.1725   -0.3029 C   0  0  2  0  0  0  0  0  0  0  0  0
   11.0586    4.5939   -0.7317 O   0  0  0  0  0  0  0  0  0  0  0  0
    8.3065    8.0159   -3.1381 C   0  0  2  0  0  0  0  0  0  0  0  0
    8.0093    8.9152   -1.9831 N   0  0  0  0  0  0  0  0  0  0  0  0
    8.9171   -1.4276    3.3252 C   0  0  1  0  0  0  0  0  0  0  0  0
    7.9954   -2.5145    3.2247 O   0  0  0  0  0  0  0  0  0  0  0  0
   10.1976    2.8787    5.8240 C   0  0  2  0  0  0  0  0  0  0  0  0
   10.8336    1.6843    6.4424 N   0  0  0  0  0  0  0  0  0  0  0  0
    8.5702    4.7301   -1.1146 C   0  0  2  0  0  0  0  0  0  0  0  0
    8.8482    6.0820   -1.6004 O   0  0  0  0  0  0  0  0  0  0  0  0
    7.3770    8.3673   -4.3950 C   0  0  1  0  0  0  0  0  0  0  0  0
    7.9406    7.7572   -5.5778 O   0  0  0  0  0  0  0  0  0  0  0  0
   10.3095   -1.8158    2.7778 C   0  0  2  0  0  0  0  0  0  0  0  0
   10.8017   -2.9465    3.4587 O   0  0  0  0  0  0  0  0  0  0  0  0
   10.1422    2.6975    4.2556 C   0  0  2  0  0  0  0  0  0  0  0  0
    7.3548    4.7156   -0.1723 C   0  0  2  0  0  0  0  0  0  0  0  0
    7.9417    4.9135    1.1117 O   0  0  0  0  0  0  0  0  0  0  0  0
    5.8640    7.8745   -4.2068 C   0  0  2  0  0  0  0  0  0  0  0  0
    5.2709    8.6823   -3.1908 O   0  0  0  0  0  0  0  0  0  0  0  0
   11.2817   -0.6012    2.9479 C   0  0  2  0  0  0  0  0  0  0  0  0
   10.7447    0.5615    2.2410 O   0  0  0  0  0  0  0  0  0  0  0  0
    9.5073    3.9070    3.5351 C   0  0  2  0  0  0  0  0  0  0  0  0
    9.7059    3.6543    2.1170 O   0  0  0  0  0  0  0  0  0  0  0  0
    6.5105    3.4040   -0.2074 C   0  0  0  0  0  0  0  0  0  0  0  0
    5.4309    3.5146    0.7151 O   0  0  0  0  0  0  0  0  0  0  0  0
    5.8219    6.3558   -3.7897 C   0  0  1  0  0  0  0  0  0  0  0  0
    6.6185    6.2482   -2.5552 O   0  0  0  0  0  0  0  0  0  0  0  0
   12.6715   -0.8918    2.4303 C   0  0  0  0  0  0  0  0  0  0  0  0
   12.6086   -1.3440    1.0996 O   0  0  0  0  0  0  0  0  0  0  0  0
   10.2304    5.2488    3.9737 C   0  0  1  0  0  0  0  0  0  0  0  0
    9.5471    6.3795    3.4256 O   0  0  0  0  0  0  0  0  0  0  0  0
    4.3551    5.7910   -3.5483 C   0  0  0  0  0  0  0  0  0  0  0  0
    3.4367    5.8680   -4.7176 N   0  0  0  0  0  0  0  0  0  0  0  0
  1  2  1  1  0  0  0
  1  7  1  0  0  0  0
  1 30  1  0  0  0  0
  3  4  1  6  0  0  0
  3  9  1  0  0  0  0
  3 39  1  0  0  0  0
  5 10  1  0  0  0  0
  5 26  1  0  0  0  0
  5 32  1  1  0  0  0
  6 12  1  0  0  0  0
  6 36  1  0  0  0  0
  6 19  1  1  0  0  0
  7  8  1  1  0  0  0
  7 14  1  0  0  0  0
  9 16  1  0  0  0  0
 10 11  1  6  0  0  0
 10 18  1  0  0  0  0
 12 13  1  1  0  0  0
 12 20  1  0  0  0  0
 14 15  1  6  0  0  0
 14 22  1  0  0  0  0
 16 17  1  1  0  0  0
 16 24  1  0  0  0  0
 18 19  1  1  0  0  0
 18 25  1  0  0  0  0
 20 21  1  6  0  0  0
 20 27  1  0  0  0  0
 22 23  1  1  0  0  0
 22 29  1  0  0  0  0
 24  2  1  1  0  0  0
 24 31  1  0  0  0  0
 25 26  1  0  0  0  0
 25 33  1  1  0  0  0
 27 28  1  1  0  0  0
 27 35  1  0  0  0  0
 29 30  1  0  0  0  0
 29 37  1  6  0  0  0
 31 32  1  6  0  0  0
 31 39  1  0  0  0  0
 33 34  1  0  0  0  0
 35 36  1  0  0  0  0
 35 41  1  1  0  0  0
 37 38  1  0  0  0  0
 39 40  1  6  0  0  0
 41 42  1  0  0  0  0
M  END
>  <CHROM.1>
-175.97449568,-168.70142858,157.42104875,173.52596615,179.37988079,53.72582080
-173.58509934,176.73894481,59.59918666,8.75868995,3.67981896,0.93154550,0.70778132
1.08294082,3.12965416

>  <Name>
ligand

>  <RI>
0

>  <Rbt.Current_Directory>
/home/itssahil/PROJECTS/Mol_Feturizer/Test_systems_manuscript/rnas/2o3w

>  <Rbt.Executable>
rbdock ($Id: //depot/dev/client3/rdock/2013.1/src/exe/rbdock.cxx#4 $)

>  <Rbt.Library>
libRbt.so (2013.1, Build901 2013/11/27)

>  <Rbt.Parameter_File>
/export/apps/rDock/src/rDock_2013.1_src/data/scripts/dock_solv.prm

>  <Rbt.Receptor>
prm/pocket_docking_6.prm

>  <SCORE>
-15.5052

>  <SCORE.INTER>
-3.027

>  <SCORE.INTER.CONST>
1

>  <SCORE.INTER.POLAR>
0

>  <SCORE.INTER.ROT>
9

>  <SCORE.INTER.SOLV>
15.1602

>  <SCORE.INTER.VDW>
-16.6714

>  <SCORE.INTER.norm>
-0.0720714

>  <SCORE.INTRA>
-12.4782

>  <SCORE.INTRA.DIHEDRAL>
-24.2402

>  <SCORE.INTRA.DIHEDRAL.0>
27.8999

>  <SCORE.INTRA.POLAR>
0

>  <SCORE.INTRA.POLAR.0>
0

>  <SCORE.INTRA.REPUL>
0

>  <SCORE.INTRA.REPUL.0>
0

>  <SCORE.INTRA.SOLV>
-5.75464

>  <SCORE.INTRA.SOLV.lig_0>
-104.479

>  <SCORE.INTRA.VDW>
2.51923

>  <SCORE.INTRA.VDW.0>
-6.17816

>  <SCORE.INTRA.norm>
-0.2971

>  <SCORE.RESTR>
0

>  <SCORE.RESTR.CAVITY>
0

>  <SCORE.RESTR.norm>
0

>  <SCORE.SYSTEM>
0

>  <SCORE.SYSTEM.CONST>
0

>  <SCORE.SYSTEM.DIHEDRAL>
0

>  <SCORE.SYSTEM.SOLV>
0

>  <SCORE.SYSTEM.norm>
0

>  <SCORE.heavy>
42

>  <SCORE.norm>
-0.369171

>  <RMSD>
3.817

$$$$
ligand
 OpenBabel02271912133D
libRbt.so/2013.1/901 2013/11/27
 42 45  0  0  0  0  0  0  0  0999 V2000
    5.0242   -1.3757    3.3060 C   0  0  2  0  0  0  0  0  0  0  0  0
    5.5731   -1.8804    4.5353 O   0  0  0  0  0  0  0  0  0  0  0  0
    9.1485   -0.7461    6.7092 C   0  0  2  0  0  0  0  0  0  0  0  0
   10.5711   -0.4760    7.0749 N   0  0  0  0  0  0  0  0  0  0  0  0
    7.1854    1.8142    3.4210 C   0  0  1  0  0  0  0  0  0  0  0  0
    8.0766    4.8748    0.8435 C   0  0  1  0  0  0  0  0  0  0  0  0
    3.5175   -1.7723    3.2837 C   0  0  2  0  0  0  0  0  0  0  0  0
    2.8216   -1.4135    4.5318 N   0  0  0  0  0  0  0  0  0  0  0  0
    8.9063   -2.2867    6.4453 C   0  0  0  0  0  0  0  0  0  0  0  0
    7.0869    2.1548    1.9027 C   0  0  2  0  0  0  0  0  0  0  0  0
    8.3616    2.1509    1.2140 O   0  0  0  0  0  0  0  0  0  0  0  0
    9.2838    5.8584    1.0530 C   0  0  2  0  0  0  0  0  0  0  0  0
    8.8222    7.1524    1.6387 N   0  0  0  0  0  0  0  0  0  0  0  0
    3.3143   -3.2850    3.0803 C   0  0  1  0  0  0  0  0  0  0  0  0
    1.9212   -3.5970    3.0267 O   0  0  0  0  0  0  0  0  0  0  0  0
    7.3883   -2.5106    6.0874 C   0  0  2  0  0  0  0  0  0  0  0  0
    7.1210   -3.9543    5.8464 N   0  0  0  0  0  0  0  0  0  0  0  0
    6.3621    3.5009    1.9467 C   0  0  2  0  0  0  0  0  0  0  0  0
    7.3048    4.6173    2.0232 O   0  0  0  0  0  0  0  0  0  0  0  0
   10.0242    6.0926   -0.3484 C   0  0  1  0  0  0  0  0  0  0  0  0
   10.7732    4.9034   -0.6856 O   0  0  0  0  0  0  0  0  0  0  0  0
    4.0434   -3.7348    1.7937 C   0  0  2  0  0  0  0  0  0  0  0  0
    3.8531   -5.1147    1.5841 O   0  0  0  0  0  0  0  0  0  0  0  0
    6.9892   -1.6766    4.8063 C   0  0  2  0  0  0  0  0  0  0  0  0
    5.4531    3.4533    3.1863 C   0  0  2  0  0  0  0  0  0  0  0  0
    6.1744    2.6099    4.0812 O   0  0  0  0  0  0  0  0  0  0  0  0
    9.0087    6.4416   -1.5377 C   0  0  2  0  0  0  0  0  0  0  0  0
    8.4793    7.7424   -1.2846 O   0  0  0  0  0  0  0  0  0  0  0  0
    5.5666   -3.4004    1.9266 C   0  0  2  0  0  0  0  0  0  0  0  0
    5.7373   -1.9653    2.1529 O   0  0  0  0  0  0  0  0  0  0  0  0
    7.2523   -0.1636    4.9709 C   0  0  2  0  0  0  0  0  0  0  0  0
    7.0088    0.4114    3.6576 O   0  0  0  0  0  0  0  0  0  0  0  0
    4.0171    2.9003    2.9286 C   0  0  0  0  0  0  0  0  0  0  0  0
    3.3643    3.7185    1.9625 O   0  0  0  0  0  0  0  0  0  0  0  0
    7.8442    5.3823   -1.6031 C   0  0  1  0  0  0  0  0  0  0  0  0
    7.2025    5.3973   -0.2771 O   0  0  0  0  0  0  0  0  0  0  0  0
    6.3589   -3.8025    0.7042 C   0  0  0  0  0  0  0  0  0  0  0  0
    5.9156   -3.0818   -0.4197 O   0  0  0  0  0  0  0  0  0  0  0  0
    8.7511    0.0868    5.4251 C   0  0  1  0  0  0  0  0  0  0  0  0
    8.9516    1.4711    5.7233 O   0  0  0  0  0  0  0  0  0  0  0  0
    6.7684    5.6718   -2.7377 C   0  0  0  0  0  0  0  0  0  0  0  0
    7.2940    5.6946   -4.1305 N   0  0  0  0  0  0  0  0  0  0  0  0
  1  2  1  1  0  0  0
  1  7  1  0  0  0  0
  1 30  1  0  0  0  0
  3  4  1  6  0  0  0
  3  9  1  0  0  0  0
  3 39  1  0  0  0  0
  5 10  1  0  0  0  0
  5 26  1  0  0  0  0
  5 32  1  6  0  0  0
  6 12  1  0  0  0  0
  6 36  1  0  0  0  0
  6 19  1  1  0  0  0
  7  8  1  1  0  0  0
  7 14  1  0  0  0  0
  9 16  1  0  0  0  0
 10 11  1  1  0  0  0
 10 18  1  0  0  0  0
 12 13  1  6  0  0  0
 12 20  1  0  0  0  0
 14 15  1  6  0  0  0
 14 22  1  0  0  0  0
 16 17  1  6  0  0  0
 16 24  1  0  0  0  0
 18 19  1  1  0  0  0
 18 25  1  0  0  0  0
 20 21  1  6  0  0  0
 20 27  1  0  0  0  0
 22 23  1  1  0  0  0
 22 29  1  0  0  0  0
 24  2  1  1  0  0  0
 24 31  1  0  0  0  0
 25 26  1  0  0  0  0
 25 33  1  6  0  0  0
 27 28  1  1  0  0  0
 27 35  1  0  0  0  0
 29 30  1  0  0  0  0
 29 37  1  6  0  0  0
 31 32  1  6  0  0  0
 31 39  1  0  0  0  0
 33 34  1  0  0  0  0
 35 36  1  0  0  0  0
 35 41  1  6  0  0  0
 37 38  1  0  0  0  0
 39 40  1  1  0  0  0
 41 42  1  0  0  0  0
M  END
>  <CHROM.1>
178.61533484,-171.12075214,70.18602163,-167.29042871,-59.61509060,62.67450759
-178.65696791,170.98061655,60.31030422,6.75825328,1.14539372,2.34889304,1.96553708
0.78833130,2.38463088

>  <Name>
ligand

>  <RI>
0

>  <Rbt.Current_Directory>
/home/itssahil/PROJECTS/Mol_Feturizer/Test_systems_manuscript/rnas/2o3w

>  <Rbt.Executable>
rbdock ($Id: //depot/dev/client3/rdock/2013.1/src/exe/rbdock.cxx#4 $)

>  <Rbt.Library>
libRbt.so (2013.1, Build901 2013/11/27)

>  <Rbt.Parameter_File>
/export/apps/rDock/src/rDock_2013.1_src/data/scripts/dock_solv.prm

>  <Rbt.Receptor>
prm/pocket_docking_8.prm

>  <SCORE>
-10.7836

>  <SCORE.INTER>
1.84216

>  <SCORE.INTER.CONST>
1

>  <SCORE.INTER.POLAR>
0

>  <SCORE.INTER.ROT>
9

>  <SCORE.INTER.SOLV>
15.7361

>  <SCORE.INTER.VDW>
-13.6173

>  <SCORE.INTER.norm>
0.043861

>  <SCORE.INTRA>
-12.6258

>  <SCORE.INTRA.DIHEDRAL>
-25.6765

>  <SCORE.INTRA.DIHEDRAL.0>
27.8999

>  <SCORE.INTRA.POLAR>
0

>  <SCORE.INTRA.POLAR.0>
0

>  <SCORE.INTRA.REPUL>
0

>  <SCORE.INTRA.REPUL.0>
0

>  <SCORE.INTRA.SOLV>
-5.68336

>  <SCORE.INTRA.SOLV.lig_0>
-104.479

>  <SCORE.INTRA.VDW>
3.05415

>  <SCORE.INTRA.VDW.0>
-6.17816

>  <SCORE.INTRA.norm>
-0.300614

>  <SCORE.RESTR>
0

>  <SCORE.RESTR.CAVITY>
0

>  <SCORE.RESTR.norm>
0

>  <SCORE.SYSTEM>
0

>  <SCORE.SYSTEM.CONST>
0

>  <SCORE.SYSTEM.DIHEDRAL>
0

>  <SCORE.SYSTEM.SOLV>
0

>  <SCORE.SYSTEM.norm>
0

>  <SCORE.heavy>
42

>  <SCORE.norm>
-0.256753

>  <RMSD>
3.845

$$$$
ligand
 OpenBabel02271912133D
libRbt.so/2013.1/901 2013/11/27
 42 45  0  0  0  0  0  0  0  0999 V2000
   10.2987   -3.0918    2.5595 C   0  0  2  0  0  0  0  0  0  0  0  0
   10.6489   -1.8152    1.9984 O   0  0  0  0  0  0  0  0  0  0  0  0
   13.5186   -0.6332    5.0255 C   0  0  2  0  0  0  0  0  0  0  0  0
   14.5198    0.1415    5.8179 N   0  0  0  0  0  0  0  0  0  0  0  0
   10.1568    1.5348    3.0313 C   0  0  1  0  0  0  0  0  0  0  0  0
    8.7634    4.3157    0.4357 C   0  0  1  0  0  0  0  0  0  0  0  0
    9.3392   -3.7862    1.5470 C   0  0  2  0  0  0  0  0  0  0  0  0
    9.8670   -3.7748    0.1715 N   0  0  0  0  0  0  0  0  0  0  0  0
   14.0707   -0.9790    3.5842 C   0  0  0  0  0  0  0  0  0  0  0  0
    8.8031    2.1762    2.5989 C   0  0  2  0  0  0  0  0  0  0  0  0
    8.3609    1.7837    1.2762 O   0  0  0  0  0  0  0  0  0  0  0  0
    9.3392    5.0730   -0.8149 C   0  0  2  0  0  0  0  0  0  0  0  0
    9.7741    6.4541   -0.4485 N   0  0  0  0  0  0  0  0  0  0  0  0
    7.9551   -3.1133    1.4979 C   0  0  1  0  0  0  0  0  0  0  0  0
    7.0977   -3.8052    0.5884 O   0  0  0  0  0  0  0  0  0  0  0  0
   12.9826   -1.8128    2.8074 C   0  0  2  0  0  0  0  0  0  0  0  0
   13.4755   -2.1687    1.4495 N   0  0  0  0  0  0  0  0  0  0  0  0
    9.1078    3.6639    2.7809 C   0  0  2  0  0  0  0  0  0  0  0  0
    9.6520    4.2552    1.5582 O   0  0  0  0  0  0  0  0  0  0  0  0
    8.2294    5.1065   -1.9699 C   0  0  1  0  0  0  0  0  0  0  0  0
    8.1195    3.7875   -2.5505 O   0  0  0  0  0  0  0  0  0  0  0  0
    7.3520   -3.0703    2.9204 C   0  0  2  0  0  0  0  0  0  0  0  0
    6.0770   -2.4721    2.8900 O   0  0  0  0  0  0  0  0  0  0  0  0
   11.6365   -0.9948    2.6853 C   0  0  2  0  0  0  0  0  0  0  0  0
   10.1158    3.7522    3.9391 C   0  0  2  0  0  0  0  0  0  0  0  0
   10.8402    2.5293    3.8281 O   0  0  0  0  0  0  0  0  0  0  0  0
    6.7935    5.5799   -1.4393 C   0  0  2  0  0  0  0  0  0  0  0  0
    6.8909    6.9650   -1.1102 O   0  0  0  0  0  0  0  0  0  0  0  0
    8.3157   -2.2711    3.8596 C   0  0  2  0  0  0  0  0  0  0  0  0
    9.6337   -2.9055    3.8667 O   0  0  0  0  0  0  0  0  0  0  0  0
   11.0660   -0.5723    4.0569 C   0  0  2  0  0  0  0  0  0  0  0  0
    9.9530    0.3122    3.7516 O   0  0  0  0  0  0  0  0  0  0  0  0
    9.4792    3.9008    5.3558 C   0  0  0  0  0  0  0  0  0  0  0  0
    8.6992    2.7445    5.6447 O   0  0  0  0  0  0  0  0  0  0  0  0
    6.3670    4.7470   -0.1718 C   0  0  1  0  0  0  0  0  0  0  0  0
    7.4376    4.9372    0.8220 O   0  0  0  0  0  0  0  0  0  0  0  0
    7.8047   -2.1844    5.2791 C   0  0  0  0  0  0  0  0  0  0  0  0
    7.6965   -3.4722    5.8350 O   0  0  0  0  0  0  0  0  0  0  0  0
   12.1729    0.1878    4.9013 C   0  0  1  0  0  0  0  0  0  0  0  0
   11.6943    0.4445    6.2244 O   0  0  0  0  0  0  0  0  0  0  0  0
    4.9643    5.1754    0.4426 C   0  0  0  0  0  0  0  0  0  0  0  0
    4.5134    4.3890    1.6237 N   0  0  0  0  0  0  0  0  0  0  0  0
  1  2  1  6  0  0  0
  1  7  1  0  0  0  0
  1 30  1  0  0  0  0
  3  4  1  6  0  0  0
  3  9  1  0  0  0  0
  3 39  1  0  0  0  0
  5 10  1  0  0  0  0
  5 26  1  0  0  0  0
  5 32  1  1  0  0  0
  6 12  1  0  0  0  0
  6 36  1  0  0  0  0
  6 19  1  1  0  0  0
  7  8  1  6  0  0  0
  7 14  1  0  0  0  0
  9 16  1  0  0  0  0
 10 11  1  6  0  0  0
 10 18  1  0  0  0  0
 12 13  1  1  0  0  0
 12 20  1  0  0  0  0
 14 15  1  6  0  0  0
 14 22  1  0  0  0  0
 16 17  1  6  0  0  0
 16 24  1  0  0  0  0
 18 19  1  6  0  0  0
 18 25  1  0  0  0  0
 20 21  1  1  0  0  0
 20 27  1  0  0  0  0
 22 23  1  6  0  0  0
 22 29  1  0  0  0  0
 24  2  1  1  0  0  0
 24 31  1  0  0  0  0
 25 26  1  0  0  0  0
 25 33  1  1  0  0  0
 27 28  1  1  0  0  0
 27 35  1  0  0  0  0
 29 30  1  0  0  0  0
 29 37  1  1  0  0  0
 31 32  1  6  0  0  0
 31 39  1  0  0  0  0
 33 34  1  0  0  0  0
 35 36  1  0  0  0  0
 35 41  1  1  0  0  0
 37 38  1  0  0  0  0
 39 40  1  1  0  0  0
 41 42  1  0  0  0  0
M  END
>  <CHROM.1>
-174.66006925,58.16365077,66.12232620,174.71501348,62.73006687,61.73681402
-61.00705982,169.56539127,178.66149369,9.33595054,0.97870439,2.35028494,1.13933864
0.62161194,2.93867513

>  <Name>
ligand

>  <RI>
0

>  <Rbt.Current_Directory>
/home/itssahil/PROJECTS/Mol_Feturizer/Test_systems_manuscript/rnas/2o3w

>  <Rbt.Executable>
rbdock ($Id: //depot/dev/client3/rdock/2013.1/src/exe/rbdock.cxx#4 $)

>  <Rbt.Library>
libRbt.so (2013.1, Build901 2013/11/27)

>  <Rbt.Parameter_File>
/export/apps/rDock/src/rDock_2013.1_src/data/scripts/dock_solv.prm

>  <Rbt.Receptor>
prm/pocket_docking_7.prm

>  <SCORE>
-12.0974

>  <SCORE.INTER>
0.545944

>  <SCORE.INTER.CONST>
1

>  <SCORE.INTER.POLAR>
0

>  <SCORE.INTER.ROT>
9

>  <SCORE.INTER.SOLV>
13.1769

>  <SCORE.INTER.VDW>
-13.6284

>  <SCORE.INTER.norm>
0.0129987

>  <SCORE.INTRA>
-12.6434

>  <SCORE.INTRA.DIHEDRAL>
-26.7052

>  <SCORE.INTRA.DIHEDRAL.0>
27.8999

>  <SCORE.INTRA.POLAR>
0

>  <SCORE.INTRA.POLAR.0>
0

>  <SCORE.INTRA.REPUL>
0

>  <SCORE.INTRA.REPUL.0>
0

>  <SCORE.INTRA.SOLV>
-3.99346

>  <SCORE.INTRA.SOLV.lig_0>
-104.479

>  <SCORE.INTRA.VDW>
2.70597

>  <SCORE.INTRA.VDW.0>
-6.17816

>  <SCORE.INTRA.norm>
-0.301033

>  <SCORE.RESTR>
0

>  <SCORE.RESTR.CAVITY>
0

>  <SCORE.RESTR.norm>
0

>  <SCORE.SYSTEM>
0

>  <SCORE.SYSTEM.CONST>
0

>  <SCORE.SYSTEM.DIHEDRAL>
0

>  <SCORE.SYSTEM.SOLV>
0

>  <SCORE.SYSTEM.norm>
0

>  <SCORE.heavy>
42

>  <SCORE.norm>
-0.288034

>  <RMSD>
4.056

$$$$
ligand
 OpenBabel02271912133D
libRbt.so/2013.1/901 2013/11/27
 42 45  0  0  0  0  0  0  0  0999 V2000
    8.9358   -3.0075    3.9733 C   0  0  2  0  0  0  0  0  0  0  0  0
    8.3202   -1.7887    3.5229 O   0  0  0  0  0  0  0  0  0  0  0  0
   10.7811    0.9990    5.7519 C   0  0  2  0  0  0  0  0  0  0  0  0
   11.4165    2.2515    6.2599 N   0  0  0  0  0  0  0  0  0  0  0  0
    6.4796    1.0093    4.4459 C   0  0  1  0  0  0  0  0  0  0  0  0
    4.2946    4.3250    2.7819 C   0  0  1  0  0  0  0  0  0  0  0  0
    8.0271   -4.1798    3.4956 C   0  0  2  0  0  0  0  0  0  0  0  0
    7.6874   -4.0831    2.0653 N   0  0  0  0  0  0  0  0  0  0  0  0
   11.1499    0.7427    4.2353 C   0  0  0  0  0  0  0  0  0  0  0  0
    4.9209    0.9868    4.4680 C   0  0  2  0  0  0  0  0  0  0  0  0
    4.3289    0.1546    3.4404 O   0  0  0  0  0  0  0  0  0  0  0  0
    2.9552    4.9128    3.3557 C   0  0  2  0  0  0  0  0  0  0  0  0
    1.7737    4.1823    2.8067 N   0  0  0  0  0  0  0  0  0  0  0  0
    6.6951   -4.2380    4.2661 C   0  0  1  0  0  0  0  0  0  0  0  0
    5.9130   -5.3487    3.8240 O   0  0  0  0  0  0  0  0  0  0  0  0
   10.4713   -0.5992    3.7648 C   0  0  2  0  0  0  0  0  0  0  0  0
   10.8098   -0.8796    2.3434 N   0  0  0  0  0  0  0  0  0  0  0  0
    4.6010    2.4797    4.3771 C   0  0  2  0  0  0  0  0  0  0  0  0
    4.4651    2.9171    2.9875 O   0  0  0  0  0  0  0  0  0  0  0  0
    2.8748    6.4761    3.0145 C   0  0  1  0  0  0  0  0  0  0  0  0
    3.8021    7.1881    3.8642 O   0  0  0  0  0  0  0  0  0  0  0  0
    6.9801   -4.3165    5.7832 C   0  0  2  0  0  0  0  0  0  0  0  0
    5.7707   -4.3873    6.5021 O   0  0  0  0  0  0  0  0  0  0  0  0
    8.9023   -0.5176    3.9300 C   0  0  2  0  0  0  0  0  0  0  0  0
    5.7608    3.2059    5.0790 C   0  0  2  0  0  0  0  0  0  0  0  0
    6.8713    2.3449    4.8383 O   0  0  0  0  0  0  0  0  0  0  0  0
    3.2018    6.7951    1.4786 C   0  0  2  0  0  0  0  0  0  0  0  0
    2.1244    6.2858    0.6938 O   0  0  0  0  0  0  0  0  0  0  0  0
    7.8063   -3.0587    6.2133 C   0  0  2  0  0  0  0  0  0  0  0  0
    9.0511   -3.0023    5.4472 O   0  0  0  0  0  0  0  0  0  0  0  0
    8.4678   -0.2124    5.3803 C   0  0  2  0  0  0  0  0  0  0  0  0
    7.0322    0.0082    5.3106 O   0  0  0  0  0  0  0  0  0  0  0  0
    5.5581    3.4465    6.6072 C   0  0  0  0  0  0  0  0  0  0  0  0
    6.6709    4.1723    7.1208 O   0  0  0  0  0  0  0  0  0  0  0  0
    4.5579    6.1192    1.0471 C   0  0  1  0  0  0  0  0  0  0  0  0
    4.4001    4.6788    1.3133 O   0  0  0  0  0  0  0  0  0  0  0  0
    8.1367   -3.0565    7.6880 C   0  0  0  0  0  0  0  0  0  0  0  0
    6.9561   -2.9789    8.4493 O   0  0  0  0  0  0  0  0  0  0  0  0
    9.2105    1.0832    5.9147 C   0  0  1  0  0  0  0  0  0  0  0  0
    8.9253    1.2782    7.3026 O   0  0  0  0  0  0  0  0  0  0  0  0
    4.9440    6.3573   -0.4770 C   0  0  0  0  0  0  0  0  0  0  0  0
    6.2353    5.7583   -0.9135 N   0  0  0  0  0  0  0  0  0  0  0  0
  1  2  1  1  0  0  0
  1  7  1  0  0  0  0
  1 30  1  0  0  0  0
  3  4  1  6  0  0  0
  3  9  1  0  0  0  0
  3 39  1  0  0  0  0
  5 10  1  0  0  0  0
  5 26  1  0  0  0  0
  5 32  1  1  0  0  0
  6 12  1  0  0  0  0
  6 36  1  0  0  0  0
  6 19  1  6  0  0  0
  7  8  1  6  0  0  0
  7 14  1  0  0  0  0
  9 16  1  0  0  0  0
 10 11  1  6  0  0  0
 10 18  1  0  0  0  0
 12 13  1  6  0  0  0
 12 20  1  0  0  0  0
 14 15  1  6  0  0  0
 14 22  1  0  0  0  0
 16 17  1  6  0  0  0
 16 24  1  0  0  0  0
 18 19  1  6  0  0  0
 18 25  1  0  0  0  0
 20 21  1  1  0  0  0
 20 27  1  0  0  0  0
 22 23  1  1  0  0  0
 22 29  1  0  0  0  0
 24  2  1  1  0  0  0
 24 31  1  0  0  0  0
 25 26  1  0  0  0  0
 25 33  1  1  0  0  0
 27 28  1  6  0  0  0
 27 35  1  0  0  0  0
 29 30  1  0  0  0  0
 29 37  1  1  0  0  0
 31 32  1  6  0  0  0
 31 39  1  0  0  0  0
 33 34  1  0  0  0  0
 35 36  1  0  0  0  0
 35 41  1  6  0  0  0
 37 38  1  0  0  0  0
 39 40  1  1  0  0  0
 41 42  1  0  0  0  0
M  END
>  <CHROM.1>
174.86073113,44.52377907,-174.11359934,-65.40867053,-177.57684807,-63.79906321
-56.58100983,175.87115637,178.69437883,6.59833823,1.05177222,4.15951530,1.04858496
0.50682991,3.05557685

>  <Name>
ligand

>  <RI>
0

>  <Rbt.Current_Directory>
/home/itssahil/PROJECTS/Mol_Feturizer/Test_systems_manuscript/rnas/2o3w

>  <Rbt.Executable>
rbdock ($Id: //depot/dev/client3/rdock/2013.1/src/exe/rbdock.cxx#4 $)

>  <Rbt.Library>
libRbt.so (2013.1, Build901 2013/11/27)

>  <Rbt.Parameter_File>
/export/apps/rDock/src/rDock_2013.1_src/data/scripts/dock_solv.prm

>  <Rbt.Receptor>
prm/pocket_docking_5.prm

>  <SCORE>
-14.1329

>  <SCORE.INTER>
-1.88823

>  <SCORE.INTER.CONST>
1

>  <SCORE.INTER.POLAR>
0

>  <SCORE.INTER.ROT>
9

>  <SCORE.INTER.SOLV>
13.5342

>  <SCORE.INTER.VDW>
-15.3702

>  <SCORE.INTER.norm>
-0.0449579

>  <SCORE.INTRA>
-12.2446

>  <SCORE.INTRA.DIHEDRAL>
-25.9872

>  <SCORE.INTRA.DIHEDRAL.0>
27.8999

>  <SCORE.INTRA.POLAR>
0

>  <SCORE.INTRA.POLAR.0>
0

>  <SCORE.INTRA.REPUL>
0

>  <SCORE.INTRA.REPUL.0>
0

>  <SCORE.INTRA.SOLV>
-4.82867

>  <SCORE.INTRA.SOLV.lig_0>
-104.479

>  <SCORE.INTRA.VDW>
3.16329

>  <SCORE.INTRA.VDW.0>
-6.17816

>  <SCORE.INTRA.norm>
-0.291539

>  <SCORE.RESTR>
0

>  <SCORE.RESTR.CAVITY>
0

>  <SCORE.RESTR.norm>
0

>  <SCORE.SYSTEM>
0

>  <SCORE.SYSTEM.CONST>
0

>  <SCORE.SYSTEM.DIHEDRAL>
0

>  <SCORE.SYSTEM.SOLV>
0

>  <SCORE.SYSTEM.norm>
0

>  <SCORE.heavy>
42

>  <SCORE.norm>
-0.336497

>  <RMSD>
4.083

$$$$
ligand
 OpenBabel02271912133D
libRbt.so/2013.1/901 2013/11/27
 42 45  0  0  0  0  0  0  0  0999 V2000
    7.3339    0.8469    2.4703 C   0  0  2  0  0  0  0  0  0  0  0  0
    8.5971    1.0135    1.8040 O   0  0  0  0  0  0  0  0  0  0  0  0
   10.7470    2.8630    5.0833 C   0  0  2  0  0  0  0  0  0  0  0  0
   11.7840    3.5739    5.8894 N   0  0  0  0  0  0  0  0  0  0  0  0
    7.7549    4.5755    1.5446 C   0  0  1  0  0  0  0  0  0  0  0  0
    4.8042    7.9196    1.3904 C   0  0  1  0  0  0  0  0  0  0  0  0
    6.7294   -0.4992    1.9696 C   0  0  2  0  0  0  0  0  0  0  0  0
    7.6893   -1.6138    2.0530 N   0  0  0  0  0  0  0  0  0  0  0  0
   11.2954    1.4874    4.5276 C   0  0  0  0  0  0  0  0  0  0  0  0
    7.5607    5.6661    2.6417 C   0  0  2  0  0  0  0  0  0  0  0  0
    6.7795    5.2250    3.7794 O   0  0  0  0  0  0  0  0  0  0  0  0
    3.2370    7.8207    1.4451 C   0  0  2  0  0  0  0  0  0  0  0  0
    2.7471    6.6625    0.6392 N   0  0  0  0  0  0  0  0  0  0  0  0
    6.2643   -0.4216    0.5038 C   0  0  1  0  0  0  0  0  0  0  0  0
    5.6822   -1.6623    0.1004 O   0  0  0  0  0  0  0  0  0  0  0  0
   10.1531    0.7765    3.7076 C   0  0  2  0  0  0  0  0  0  0  0  0
   10.6308   -0.5305    3.1810 N   0  0  0  0  0  0  0  0  0  0  0  0
    6.9528    6.8060    1.8229 C   0  0  2  0  0  0  0  0  0  0  0  0
    5.4919    6.7296    1.7962 O   0  0  0  0  0  0  0  0  0  0  0  0
    2.6019    9.1955    0.9221 C   0  0  1  0  0  0  0  0  0  0  0  0
    2.7876   10.2106    1.9339 O   0  0  0  0  0  0  0  0  0  0  0  0
    5.2680    0.7488    0.3403 C   0  0  2  0  0  0  0  0  0  0  0  0
    4.8197    0.8230   -0.9931 O   0  0  0  0  0  0  0  0  0  0  0  0
    9.6774    1.6891    2.5089 C   0  0  2  0  0  0  0  0  0  0  0  0
    7.5436    6.6750    0.4090 C   0  0  2  0  0  0  0  0  0  0  0  0
    7.7516    5.2709    0.2767 O   0  0  0  0  0  0  0  0  0  0  0  0
    3.2446    9.6917   -0.4593 C   0  0  2  0  0  0  0  0  0  0  0  0
    2.8235    8.7875   -1.4799 O   0  0  0  0  0  0  0  0  0  0  0  0
    5.9723    2.0814    0.7620 C   0  0  2  0  0  0  0  0  0  0  0  0
    6.4367    1.9761    2.1451 O   0  0  0  0  0  0  0  0  0  0  0  0
    9.1794    3.0754    2.9727 C   0  0  2  0  0  0  0  0  0  0  0  0
    8.9636    3.8325    1.7501 O   0  0  0  0  0  0  0  0  0  0  0  0
    8.8694    7.4633    0.1741 C   0  0  0  0  0  0  0  0  0  0  0  0
    9.8939    6.9174    0.9994 O   0  0  0  0  0  0  0  0  0  0  0  0
    4.8171    9.7132   -0.3647 C   0  0  1  0  0  0  0  0  0  0  0  0
    5.2239    8.3448   -0.0010 O   0  0  0  0  0  0  0  0  0  0  0  0
    5.0643    3.2832    0.6390 C   0  0  0  0  0  0  0  0  0  0  0  0
    4.7695    3.5317   -0.7140 O   0  0  0  0  0  0  0  0  0  0  0  0
   10.2740    3.7760    3.8820 C   0  0  1  0  0  0  0  0  0  0  0  0
    9.7543    4.9889    4.4337 O   0  0  0  0  0  0  0  0  0  0  0  0
    5.5405   10.1631   -1.7074 C   0  0  0  0  0  0  0  0  0  0  0  0
    5.1508   11.5019   -2.2294 N   0  0  0  0  0  0  0  0  0  0  0  0
  1  2  1  6  0  0  0
  1  7  1  0  0  0  0
  1 30  1  0  0  0  0
  3  4  1  6  0  0  0
  3  9  1  0  0  0  0
  3 39  1  0  0  0  0
  5 10  1  0  0  0  0
  5 26  1  0  0  0  0
  5 32  1  1  0  0  0
  6 12  1  0  0  0  0
  6 36  1  0  0  0  0
  6 19  1  6  0  0  0
  7  8  1  6  0  0  0
  7 14  1  0  0  0  0
  9 16  1  0  0  0  0
 10 11  1  1  0  0  0
 10 18  1  0  0  0  0
 12 13  1  6  0  0  0
 12 20  1  0  0  0  0
 14 15  1  1  0  0  0
 14 22  1  0  0  0  0
 16 17  1  6  0  0  0
 16 24  1  0  0  0  0
 18 19  1  6  0  0  0
 18 25  1  0  0  0  0
 20 21  1  1  0  0  0
 20 27  1  0  0  0  0
 22 23  1  6  0  0  0
 22 29  1  0  0  0  0
 24  2  1  1  0  0  0
 24 31  1  0  0  0  0
 25 26  1  0  0  0  0
 25 33  1  1  0  0  0
 27 28  1  6  0  0  0
 27 35  1  0  0  0  0
 29 30  1  0  0  0  0
 29 37  1  1  0  0  0
 31 32  1  6  0  0  0
 31 39  1  0  0  0  0
 33 34  1  0  0  0  0
 35 36  1  0  0  0  0
 35 41  1  6  0  0  0
 37 38  1  0  0  0  0
 39 40  1  1  0  0  0
 41 42  1  0  0  0  0
M  END
>  <CHROM.1>
-147.05828120,68.11543438,163.20765378,-177.02205666,64.89603720,-67.20924085
132.51002415,60.04844798,57.25539473,6.85229235,4.56066430,1.46376941,0.98183836
0.57674254,-3.12341369

>  <Name>
ligand

>  <RI>
0

>  <Rbt.Current_Directory>
/home/itssahil/PROJECTS/Mol_Feturizer/Test_systems_manuscript/rnas/2o3w

>  <Rbt.Executable>
rbdock ($Id: //depot/dev/client3/rdock/2013.1/src/exe/rbdock.cxx#4 $)

>  <Rbt.Library>
libRbt.so (2013.1, Build901 2013/11/27)

>  <Rbt.Parameter_File>
/export/apps/rDock/src/rDock_2013.1_src/data/scripts/dock_solv.prm

>  <Rbt.Receptor>
prm/pocket_docking_4.prm

>  <SCORE>
-9.24893

>  <SCORE.INTER>
-1.66278

>  <SCORE.INTER.CONST>
1

>  <SCORE.INTER.POLAR>
0

>  <SCORE.INTER.ROT>
9

>  <SCORE.INTER.SOLV>
14.2299

>  <SCORE.INTER.VDW>
-15.4518

>  <SCORE.INTER.norm>
-0.0395901

>  <SCORE.INTRA>
-7.58615

>  <SCORE.INTRA.DIHEDRAL>
-15.1998

>  <SCORE.INTRA.DIHEDRAL.0>
27.8999

>  <SCORE.INTRA.POLAR>
0

>  <SCORE.INTRA.POLAR.0>
0

>  <SCORE.INTRA.REPUL>
0

>  <SCORE.INTRA.REPUL.0>
0

>  <SCORE.INTRA.SOLV>
-0.618301

>  <SCORE.INTRA.SOLV.lig_0>
-104.479

>  <SCORE.INTRA.VDW>
0.322906

>  <SCORE.INTRA.VDW.0>
-6.17816

>  <SCORE.INTRA.norm>
-0.180623

>  <SCORE.RESTR>
0

>  <SCORE.RESTR.CAVITY>
0

>  <SCORE.RESTR.norm>
0

>  <SCORE.SYSTEM>
0

>  <SCORE.SYSTEM.CONST>
0

>  <SCORE.SYSTEM.DIHEDRAL>
0

>  <SCORE.SYSTEM.SOLV>
0

>  <SCORE.SYSTEM.norm>
0

>  <SCORE.heavy>
42

>  <SCORE.norm>
-0.220213

>  <RMSD>
4.152

$$$$
ligand
 OpenBabel02271912133D
libRbt.so/2013.1/901 2013/11/27
 42 45  0  0  0  0  0  0  0  0999 V2000
   11.8625   -2.2389    6.1493 C   0  0  2  0  0  0  0  0  0  0  0  0
   11.7372   -1.1871    5.1771 O   0  0  0  0  0  0  0  0  0  0  0  0
   12.1506    2.1664    7.8937 C   0  0  2  0  0  0  0  0  0  0  0  0
   12.2727    3.5481    8.4472 N   0  0  0  0  0  0  0  0  0  0  0  0
    9.5212    1.4872    4.3571 C   0  0  1  0  0  0  0  0  0  0  0  0
    8.8194    3.3377    0.4420 C   0  0  1  0  0  0  0  0  0  0  0  0
   11.8382   -3.5866    5.3673 C   0  0  2  0  0  0  0  0  0  0  0  0
   12.7800   -3.5981    4.2345 N   0  0  0  0  0  0  0  0  0  0  0  0
   13.3905    1.8017    6.9818 C   0  0  0  0  0  0  0  0  0  0  0  0
    9.8447    0.7519    3.0209 C   0  0  2  0  0  0  0  0  0  0  0  0
   11.2502    0.7598    2.6693 O   0  0  0  0  0  0  0  0  0  0  0  0
    9.6465    4.3902   -0.3808 C   0  0  2  0  0  0  0  0  0  0  0  0
   10.3081    5.3755    0.5259 N   0  0  0  0  0  0  0  0  0  0  0  0
   10.4457   -3.9028    4.7912 C   0  0  1  0  0  0  0  0  0  0  0  0
   10.4602   -5.1629    4.1183 O   0  0  0  0  0  0  0  0  0  0  0  0
   13.2157    0.3297    6.4477 C   0  0  2  0  0  0  0  0  0  0  0  0
   14.3741   -0.0526    5.5959 N   0  0  0  0  0  0  0  0  0  0  0  0
    8.9148    1.4794    2.0487 C   0  0  2  0  0  0  0  0  0  0  0  0
    9.5707    2.6379    1.4418 O   0  0  0  0  0  0  0  0  0  0  0  0
    8.6771    5.1270   -1.4221 C   0  0  1  0  0  0  0  0  0  0  0  0
    8.3647    4.2128   -2.4971 O   0  0  0  0  0  0  0  0  0  0  0  0
    9.4001   -3.8828    5.9294 C   0  0  2  0  0  0  0  0  0  0  0  0
    8.1220   -4.1871    5.4210 O   0  0  0  0  0  0  0  0  0  0  0  0
   11.8790    0.1939    5.6166 C   0  0  2  0  0  0  0  0  0  0  0  0
    7.6866    1.9024    2.8722 C   0  0  2  0  0  0  0  0  0  0  0  0
    8.2292    2.1105    4.1741 O   0  0  0  0  0  0  0  0  0  0  0  0
    7.3191    5.6457   -0.7480 C   0  0  2  0  0  0  0  0  0  0  0  0
    7.6556    6.7229    0.1253 O   0  0  0  0  0  0  0  0  0  0  0  0
    9.4054   -2.4700    6.6029 C   0  0  2  0  0  0  0  0  0  0  0  0
   10.7437   -2.1736    7.1136 O   0  0  0  0  0  0  0  0  0  0  0  0
   10.6262    0.5894    6.4286 C   0  0  2  0  0  0  0  0  0  0  0  0
    9.5325    0.5841    5.4703 O   0  0  0  0  0  0  0  0  0  0  0  0
    6.5270    0.8592    2.9077 C   0  0  0  0  0  0  0  0  0  0  0  0
    6.0600    0.6297    1.5818 O   0  0  0  0  0  0  0  0  0  0  0  0
    6.6215    4.4867    0.0595 C   0  0  1  0  0  0  0  0  0  0  0  0
    7.6115    4.0222    1.0466 O   0  0  0  0  0  0  0  0  0  0  0  0
    8.4121   -2.3626    7.7367 C   0  0  0  0  0  0  0  0  0  0  0  0
    7.1102   -2.6130    7.2661 O   0  0  0  0  0  0  0  0  0  0  0  0
   10.8139    2.0325    7.0595 C   0  0  1  0  0  0  0  0  0  0  0  0
    9.7222    2.3352    7.9326 O   0  0  0  0  0  0  0  0  0  0  0  0
    5.2793    4.9242    0.7915 C   0  0  0  0  0  0  0  0  0  0  0  0
    4.5514    3.8370    1.5020 N   0  0  0  0  0  0  0  0  0  0  0  0
  1  2  1  6  0  0  0
  1  7  1  0  0  0  0
  1 30  1  0  0  0  0
  3  4  1  6  0  0  0
  3  9  1  0  0  0  0
  3 39  1  0  0  0  0
  5 10  1  0  0  0  0
  5 26  1  0  0  0  0
  5 32  1  1  0  0  0
  6 12  1  0  0  0  0
  6 36  1  0  0  0  0
  6 19  1  1  0  0  0
  7  8  1  6  0  0  0
  7 14  1  0  0  0  0
  9 16  1  0  0  0  0
 10 11  1  6  0  0  0
 10 18  1  0  0  0  0
 12 13  1  1  0  0  0
 12 20  1  0  0  0  0
 14 15  1  1  0  0  0
 14 22  1  0  0  0  0
 16 17  1  6  0  0  0
 16 24  1  0  0  0  0
 18 19  1  1  0  0  0
 18 25  1  0  0  0  0
 20 21  1  6  0  0  0
 20 27  1  0  0  0  0
 22 23  1  6  0  0  0
 22 29  1  0  0  0  0
 24  2  1  1  0  0  0
 24 31  1  0  0  0  0
 25 26  1  0  0  0  0
 25 33  1  1  0  0  0
 27 28  1  1  0  0  0
 27 35  1  0  0  0  0
 29 30  1  0  0  0  0
 29 37  1  1  0  0  0
 31 32  1  6  0  0  0
 31 39  1  0  0  0  0
 33 34  1  0  0  0  0
 35 36  1  0  0  0  0
 35 41  1  1  0  0  0
 37 38  1  0  0  0  0
 39 40  1  1  0  0  0
 41 42  1  0  0  0  0
M  END
>  <CHROM.1>
-173.29049924,51.03161858,175.74375728,-168.61842826,-60.58710583,-59.45064365
-62.95503440,106.12092238,176.72672128,9.55152198,0.95759945,3.85564368,-1.09336373
-0.72871942,-0.43411182

>  <Name>
ligand

>  <RI>
0

>  <Rbt.Current_Directory>
/home/itssahil/PROJECTS/Mol_Feturizer/Test_systems_manuscript/rnas/2o3w

>  <Rbt.Executable>
rbdock ($Id: //depot/dev/client3/rdock/2013.1/src/exe/rbdock.cxx#4 $)

>  <Rbt.Library>
libRbt.so (2013.1, Build901 2013/11/27)

>  <Rbt.Parameter_File>
/export/apps/rDock/src/rDock_2013.1_src/data/scripts/dock_solv.prm

>  <Rbt.Receptor>
prm/pocket_docking_5.prm

>  <SCORE>
-10.6918

>  <SCORE.INTER>
-1.4263

>  <SCORE.INTER.CONST>
1

>  <SCORE.INTER.POLAR>
0

>  <SCORE.INTER.ROT>
9

>  <SCORE.INTER.SOLV>
14.2034

>  <SCORE.INTER.VDW>
-15.2853

>  <SCORE.INTER.norm>
-0.0339595

>  <SCORE.INTRA>
-9.26547

>  <SCORE.INTRA.DIHEDRAL>
-20.0746

>  <SCORE.INTRA.DIHEDRAL.0>
27.8999

>  <SCORE.INTRA.POLAR>
0

>  <SCORE.INTRA.POLAR.0>
0

>  <SCORE.INTRA.REPUL>
0

>  <SCORE.INTRA.REPUL.0>
0

>  <SCORE.INTRA.SOLV>
-2.84512

>  <SCORE.INTRA.SOLV.lig_0>
-104.479

>  <SCORE.INTRA.VDW>
2.19439

>  <SCORE.INTRA.VDW.0>
-6.17816

>  <SCORE.INTRA.norm>
-0.220606

>  <SCORE.RESTR>
0

>  <SCORE.RESTR.CAVITY>
0

>  <SCORE.RESTR.norm>
0

>  <SCORE.SYSTEM>
0

>  <SCORE.SYSTEM.CONST>
0

>  <SCORE.SYSTEM.DIHEDRAL>
0

>  <SCORE.SYSTEM.SOLV>
0

>  <SCORE.SYSTEM.norm>
0

>  <SCORE.heavy>
42

>  <SCORE.norm>
-0.254566

>  <RMSD>
4.230

$$$$
ligand
 OpenBabel02271912133D
libRbt.so/2013.1/901 2013/11/27
 42 45  0  0  0  0  0  0  0  0999 V2000
   10.2675   -3.1604    2.2509 C   0  0  2  0  0  0  0  0  0  0  0  0
   10.6850   -1.9092    1.6786 O   0  0  0  0  0  0  0  0  0  0  0  0
   13.6171   -0.8527    4.6923 C   0  0  2  0  0  0  0  0  0  0  0  0
   14.6313   -0.1094    5.4981 N   0  0  0  0  0  0  0  0  0  0  0  0
   10.1955    1.3874    2.8960 C   0  0  1  0  0  0  0  0  0  0  0  0
    8.7471    4.2551    0.4673 C   0  0  1  0  0  0  0  0  0  0  0  0
    9.3748   -3.8709    1.1895 C   0  0  2  0  0  0  0  0  0  0  0  0
   10.0065   -3.9139   -0.1407 N   0  0  0  0  0  0  0  0  0  0  0  0
   14.1374   -1.1231    3.2233 C   0  0  0  0  0  0  0  0  0  0  0  0
    8.8287    2.0371    2.5214 C   0  0  2  0  0  0  0  0  0  0  0  0
    8.3691    1.7144    1.1858 O   0  0  0  0  0  0  0  0  0  0  0  0
    9.3284    5.0055   -0.7849 C   0  0  2  0  0  0  0  0  0  0  0  0
    9.7851    6.3797   -0.4187 N   0  0  0  0  0  0  0  0  0  0  0  0
    8.0122   -3.1759    1.0125 C   0  0  1  0  0  0  0  0  0  0  0  0
    7.2134   -3.8822    0.0617 O   0  0  0  0  0  0  0  0  0  0  0  0
   13.0372   -1.9270    2.4322 C   0  0  2  0  0  0  0  0  0  0  0  0
   13.5003   -2.2121    1.0473 N   0  0  0  0  0  0  0  0  0  0  0  0
    9.1214    3.5156    2.7818 C   0  0  2  0  0  0  0  0  0  0  0  0
    9.6398    4.1802    1.5858 O   0  0  0  0  0  0  0  0  0  0  0  0
    8.2141    5.0566   -1.9349 C   0  0  1  0  0  0  0  0  0  0  0  0
    8.0824    3.7402   -2.5166 O   0  0  0  0  0  0  0  0  0  0  0  0
    7.3027   -3.0755    2.3821 C   0  0  2  0  0  0  0  0  0  0  0  0
    6.0460   -2.4564    2.2344 O   0  0  0  0  0  0  0  0  0  0  0  0
   11.6828   -1.1152    2.3817 C   0  0  2  0  0  0  0  0  0  0  0  0
   10.1471    3.5499    3.9273 C   0  0  2  0  0  0  0  0  0  0  0  0
   10.8818    2.3432    3.7366 O   0  0  0  0  0  0  0  0  0  0  0  0
    6.7876    5.5503   -1.3974 C   0  0  2  0  0  0  0  0  0  0  0  0
    6.9067    6.9334   -1.0670 O   0  0  0  0  0  0  0  0  0  0  0  0
    8.2073   -2.2628    3.3673 C   0  0  2  0  0  0  0  0  0  0  0  0
    9.5080   -2.9196    3.4963 O   0  0  0  0  0  0  0  0  0  0  0  0
   11.1419   -0.7649    3.7853 C   0  0  2  0  0  0  0  0  0  0  0  0
   10.0157    0.1242    3.5496 O   0  0  0  0  0  0  0  0  0  0  0  0
    9.5320    3.6121    5.3598 C   0  0  0  0  0  0  0  0  0  0  0  0
    8.7702    4.8083    5.4931 O   0  0  0  0  0  0  0  0  0  0  0  0
    6.3546    4.7221   -0.1290 C   0  0  1  0  0  0  0  0  0  0  0  0
    7.4324    4.8953    0.8603 O   0  0  0  0  0  0  0  0  0  0  0  0
    7.5908   -2.1205    4.7397 C   0  0  0  0  0  0  0  0  0  0  0  0
    6.4236   -1.3384    4.6682 O   0  0  0  0  0  0  0  0  0  0  0  0
   12.2630   -0.0378    4.6398 C   0  0  1  0  0  0  0  0  0  0  0  0
   11.8141    0.1501    5.9847 O   0  0  0  0  0  0  0  0  0  0  0  0
    4.9611    5.1701    0.4922 C   0  0  0  0  0  0  0  0  0  0  0  0
    3.7803    5.0155   -0.4013 N   0  0  0  0  0  0  0  0  0  0  0  0
  1  2  1  6  0  0  0
  1  7  1  0  0  0  0
  1 30  1  0  0  0  0
  3  4  1  1  0  0  0
  3  9  1  0  0  0  0
  3 39  1  0  0  0  0
  5 10  1  0  0  0  0
  5 26  1  0  0  0  0
  5 32  1  1  0  0  0
  6 12  1  0  0  0  0
  6 36  1  0  0  0  0
  6 19  1  1  0  0  0
  7  8  1  6  0  0  0
  7 14  1  0  0  0  0
  9 16  1  0  0  0  0
 10 11  1  6  0  0  0
 10 18  1  0  0  0  0
 12 13  1  1  0  0  0
 12 20  1  0  0  0  0
 14 15  1  6  0  0  0
 14 22  1  0  0  0  0
 16 17  1  6  0  0  0
 16 24  1  0  0  0  0
 18 19  1  6  0  0  0
 18 25  1  0  0  0  0
 20 21  1  1  0  0  0
 20 27  1  0  0  0  0
 22 23  1  6  0  0  0
 22 29  1  0  0  0  0
 24  2  1  1  0  0  0
 24 31  1  0  0  0  0
 25 26  1  0  0  0  0
 25 33  1  1  0  0  0
 27 28  1  1  0  0  0
 27 35  1  0  0  0  0
 29 30  1  0  0  0  0
 29 37  1  1  0  0  0
 31 32  1  6  0  0  0
 31 39  1  0  0  0  0
 33 34  1  0  0  0  0
 35 36  1  0  0  0  0
 35 41  1  1  0  0  0
 37 38  1  0  0  0  0
 39 40  1  1  0  0  0
 41 42  1  0  0  0  0
M  END
>  <CHROM.1>
-171.66736305,63.81149084,64.16538163,178.62109441,-61.56299251,-65.77864873
-61.55557566,169.44819031,62.04085615,9.30298918,1.01297454,2.07894541,1.05257999
0.64022564,3.06561769

>  <Name>
ligand

>  <RI>
0

>  <Rbt.Current_Directory>
/home/itssahil/PROJECTS/Mol_Feturizer/Test_systems_manuscript/rnas/2o3w

>  <Rbt.Executable>
rbdock ($Id: //depot/dev/client3/rdock/2013.1/src/exe/rbdock.cxx#4 $)

>  <Rbt.Library>
libRbt.so (2013.1, Build901 2013/11/27)

>  <Rbt.Parameter_File>
/export/apps/rDock/src/rDock_2013.1_src/data/scripts/dock_solv.prm

>  <Rbt.Receptor>
prm/pocket_docking_6.prm

>  <SCORE>
-11.6188

>  <SCORE.INTER>
0.442886

>  <SCORE.INTER.CONST>
1

>  <SCORE.INTER.POLAR>
0

>  <SCORE.INTER.ROT>
9

>  <SCORE.INTER.SOLV>
14.7729

>  <SCORE.INTER.VDW>
-14.229

>  <SCORE.INTER.norm>
0.0105449

>  <SCORE.INTRA>
-12.0617

>  <SCORE.INTRA.DIHEDRAL>
-26.5579

>  <SCORE.INTRA.DIHEDRAL.0>
27.8999

>  <SCORE.INTRA.POLAR>
0

>  <SCORE.INTRA.POLAR.0>
0

>  <SCORE.INTRA.REPUL>
0

>  <SCORE.INTRA.REPUL.0>
0

>  <SCORE.INTRA.SOLV>
-4.22003

>  <SCORE.INTRA.SOLV.lig_0>
-104.479

>  <SCORE.INTRA.VDW>
3.32728

>  <SCORE.INTRA.VDW.0>
-6.17816

>  <SCORE.INTRA.norm>
-0.287183

>  <SCORE.RESTR>
0

>  <SCORE.RESTR.CAVITY>
0

>  <SCORE.RESTR.norm>
0

>  <SCORE.SYSTEM>
0

>  <SCORE.SYSTEM.CONST>
0

>  <SCORE.SYSTEM.DIHEDRAL>
0

>  <SCORE.SYSTEM.SOLV>
0

>  <SCORE.SYSTEM.norm>
0

>  <SCORE.heavy>
42

>  <SCORE.norm>
-0.276639

>  <RMSD>
4.246

$$$$
ligand
 OpenBabel02271912133D
libRbt.so/2013.1/901 2013/11/27
 42 45  0  0  0  0  0  0  0  0999 V2000
    9.1409   -0.7493    5.9449 C   0  0  2  0  0  0  0  0  0  0  0  0
   10.2705   -0.3293    6.7290 O   0  0  0  0  0  0  0  0  0  0  0  0
   11.4404    3.5191    8.3466 C   0  0  2  0  0  0  0  0  0  0  0  0
   11.7901    4.9650    8.4789 N   0  0  0  0  0  0  0  0  0  0  0  0
    8.1965    2.4598    5.5358 C   0  0  1  0  0  0  0  0  0  0  0  0
    6.1112    3.2670    1.8612 C   0  0  1  0  0  0  0  0  0  0  0  0
    9.1100   -2.3067    5.9891 C   0  0  2  0  0  0  0  0  0  0  0  0
    9.2135   -2.8338    7.3610 N   0  0  0  0  0  0  0  0  0  0  0  0
   12.4836    2.7576    7.4335 C   0  0  0  0  0  0  0  0  0  0  0  0
    6.8164    2.1771    4.8677 C   0  0  2  0  0  0  0  0  0  0  0  0
    6.8313    1.0742    3.9284 O   0  0  0  0  0  0  0  0  0  0  0  0
    6.7461    3.2814    0.4240 C   0  0  2  0  0  0  0  0  0  0  0  0
    7.3062    4.6281    0.1017 N   0  0  0  0  0  0  0  0  0  0  0  0
   10.2601   -2.9371    5.1825 C   0  0  1  0  0  0  0  0  0  0  0  0
   10.1696   -4.3624    5.2179 O   0  0  0  0  0  0  0  0  0  0  0  0
   12.0754    1.2380    7.3507 C   0  0  2  0  0  0  0  0  0  0  0  0
   13.0456    0.4868    6.5092 N   0  0  0  0  0  0  0  0  0  0  0  0
    6.4873    3.5479    4.2744 C   0  0  2  0  0  0  0  0  0  0  0  0
    6.9971    3.6797    2.9093 O   0  0  0  0  0  0  0  0  0  0  0  0
    5.6373    2.8477   -0.6482 C   0  0  1  0  0  0  0  0  0  0  0  0
    5.4053    1.4260   -0.5311 O   0  0  0  0  0  0  0  0  0  0  0  0
   10.2244   -2.4051    3.7317 C   0  0  2  0  0  0  0  0  0  0  0  0
   11.2614   -2.9857    2.9753 O   0  0  0  0  0  0  0  0  0  0  0  0
   10.6223    1.0835    6.7504 C   0  0  2  0  0  0  0  0  0  0  0  0
    7.1321    4.5823    5.2123 C   0  0  2  0  0  0  0  0  0  0  0  0
    8.2746    3.8928    5.7138 O   0  0  0  0  0  0  0  0  0  0  0  0
    4.2532    3.6337   -0.4642 C   0  0  2  0  0  0  0  0  0  0  0  0
    4.4773    4.9936   -0.8340 O   0  0  0  0  0  0  0  0  0  0  0  0
   10.3635   -0.8464    3.7558 C   0  0  2  0  0  0  0  0  0  0  0  0
    9.2825   -0.2684    4.5540 O   0  0  0  0  0  0  0  0  0  0  0  0
    9.5547    1.8505    7.5612 C   0  0  2  0  0  0  0  0  0  0  0  0
    8.3352    1.7531    6.7753 O   0  0  0  0  0  0  0  0  0  0  0  0
    6.2179    5.0748    6.3767 C   0  0  0  0  0  0  0  0  0  0  0  0
    5.0088    5.5990    5.8361 O   0  0  0  0  0  0  0  0  0  0  0  0
    3.7603    3.5490    1.0298 C   0  0  1  0  0  0  0  0  0  0  0  0
    4.8494    4.1041    1.8521 O   0  0  0  0  0  0  0  0  0  0  0  0
   10.3319   -0.2383    2.3727 C   0  0  0  0  0  0  0  0  0  0  0  0
   10.4731    1.1591    2.4541 O   0  0  0  0  0  0  0  0  0  0  0  0
    9.9870    3.3657    7.7427 C   0  0  1  0  0  0  0  0  0  0  0  0
    9.0772    4.0368    8.6188 O   0  0  0  0  0  0  0  0  0  0  0  0
    2.4055    4.3331    1.3102 C   0  0  0  0  0  0  0  0  0  0  0  0
    1.9479    4.3383    2.7270 N   0  0  0  0  0  0  0  0  0  0  0  0
  1  2  1  1  0  0  0
  1  7  1  0  0  0  0
  1 30  1  0  0  0  0
  3  4  1  6  0  0  0
  3  9  1  0  0  0  0
  3 39  1  0  0  0  0
  5 10  1  0  0  0  0
  5 26  1  0  0  0  0
  5 32  1  1  0  0  0
  6 12  1  0  0  0  0
  6 36  1  0  0  0  0
  6 19  1  1  0  0  0
  7  8  1  1  0  0  0
  7 14  1  0  0  0  0
  9 16  1  0  0  0  0
 10 11  1  6  0  0  0
 10 18  1  0  0  0  0
 12 13  1  6  0  0  0
 12 20  1  0  0  0  0
 14 15  1  6  0  0  0
 14 22  1  0  0  0  0
 16 17  1  6  0  0  0
 16 24  1  0  0  0  0
 18 19  1  6  0  0  0
 18 25  1  0  0  0  0
 20 21  1  1  0  0  0
 20 27  1  0  0  0  0
 22 23  1  6  0  0  0
 22 29  1  0  0  0  0
 24  2  1  1  0  0  0
 24 31  1  0  0  0  0
 25 26  1  0  0  0  0
 25 33  1  1  0  0  0
 27 28  1  1  0  0  0
 27 35  1  0  0  0  0
 29 30  1  0  0  0  0
 29 37  1  6  0  0  0
 31 32  1  6  0  0  0
 31 39  1  0  0  0  0
 33 34  1  0  0  0  0
 35 36  1  0  0  0  0
 35 41  1  6  0  0  0
 37 38  1  0  0  0  0
 39 40  1  1  0  0  0
 41 42  1  0  0  0  0
M  END
>  <CHROM.1>
173.83320544,-165.46688015,89.75938398,-173.89908960,-55.95692069,-179.44148020
-70.38300744,178.93569682,-176.77744477,8.15878020,1.86705784,4.34584214
-0.03143106,0.82541864,-2.43533779

>  <Name>
ligand

>  <RI>
0

>  <Rbt.Current_Directory>
/home/itssahil/PROJECTS/Mol_Feturizer/Test_systems_manuscript/rnas/2o3w

>  <Rbt.Executable>
rbdock ($Id: //depot/dev/client3/rdock/2013.1/src/exe/rbdock.cxx#4 $)

>  <Rbt.Library>
libRbt.so (2013.1, Build901 2013/11/27)

>  <Rbt.Parameter_File>
/export/apps/rDock/src/rDock_2013.1_src/data/scripts/dock_solv.prm

>  <Rbt.Receptor>
prm/pocket_docking_4.prm

>  <SCORE>
-10.4123

>  <SCORE.INTER>
1.514

>  <SCORE.INTER.CONST>
1

>  <SCORE.INTER.POLAR>
0

>  <SCORE.INTER.ROT>
9

>  <SCORE.INTER.SOLV>
11.7008

>  <SCORE.INTER.VDW>
-12.4909

>  <SCORE.INTER.norm>
0.0360476

>  <SCORE.INTRA>
-11.928

>  <SCORE.INTRA.DIHEDRAL>
-22.2395

>  <SCORE.INTRA.DIHEDRAL.0>
27.8999

>  <SCORE.INTRA.POLAR>
0

>  <SCORE.INTRA.POLAR.0>
0

>  <SCORE.INTRA.REPUL>
0.000117126

>  <SCORE.INTRA.REPUL.0>
0

>  <SCORE.INTRA.SOLV>
-5.19501

>  <SCORE.INTRA.SOLV.lig_0>
-104.479

>  <SCORE.INTRA.VDW>
1.78861

>  <SCORE.INTRA.VDW.0>
-6.17816

>  <SCORE.INTRA.norm>
-0.284001

>  <SCORE.RESTR>
0.00177215

>  <SCORE.RESTR.CAVITY>
0.00177215

>  <SCORE.RESTR.norm>
4.2194e-05

>  <SCORE.SYSTEM>
0

>  <SCORE.SYSTEM.CONST>
0

>  <SCORE.SYSTEM.DIHEDRAL>
0

>  <SCORE.SYSTEM.SOLV>
0

>  <SCORE.SYSTEM.norm>
0

>  <SCORE.heavy>
42

>  <SCORE.norm>
-0.247911

>  <RMSD>
4.276

$$$$
ligand
 OpenBabel02271912133D
libRbt.so/2013.1/901 2013/11/27
 42 45  0  0  0  0  0  0  0  0999 V2000
    6.6536   -0.4892    4.8691 C   0  0  2  0  0  0  0  0  0  0  0  0
    7.4423    0.5153    4.2086 O   0  0  0  0  0  0  0  0  0  0  0  0
    7.5813    3.3769    7.4624 C   0  0  2  0  0  0  0  0  0  0  0  0
    7.7984    4.6196    8.2619 N   0  0  0  0  0  0  0  0  0  0  0  0
    6.3859    3.6369    3.1336 C   0  0  1  0  0  0  0  0  0  0  0  0
    6.9214    4.8694   -0.7481 C   0  0  1  0  0  0  0  0  0  0  0  0
    6.7910   -1.7976    4.0340 C   0  0  2  0  0  0  0  0  0  0  0  0
    8.1946   -2.1301    3.7338 N   0  0  0  0  0  0  0  0  0  0  0  0
    8.9526    2.7746    6.9539 C   0  0  0  0  0  0  0  0  0  0  0  0
    5.5923    3.7238    1.7944 C   0  0  2  0  0  0  0  0  0  0  0  0
    6.0064    2.7550    0.8000 O   0  0  0  0  0  0  0  0  0  0  0  0
    8.1386    5.2576   -1.6628 C   0  0  2  0  0  0  0  0  0  0  0  0
    8.3335    6.7382   -1.6915 N   0  0  0  0  0  0  0  0  0  0  0  0
    6.0564   -1.7087    2.6836 C   0  0  1  0  0  0  0  0  0  0  0  0
    6.1753   -2.9410    1.9707 O   0  0  0  0  0  0  0  0  0  0  0  0
    8.6608    1.4580    6.1392 C   0  0  2  0  0  0  0  0  0  0  0  0
    9.9327    0.8553    5.6569 N   0  0  0  0  0  0  0  0  0  0  0  0
    5.8045    5.1910    1.4181 C   0  0  2  0  0  0  0  0  0  0  0  0
    7.0000    5.3674    0.5933 O   0  0  0  0  0  0  0  0  0  0  0  0
    7.8970    4.6802   -3.1376 C   0  0  1  0  0  0  0  0  0  0  0  0
    8.0932    3.2485   -3.1168 O   0  0  0  0  0  0  0  0  0  0  0  0
    4.5757   -1.3373    2.9257 C   0  0  2  0  0  0  0  0  0  0  0  0
    3.8850   -1.2684    1.6998 O   0  0  0  0  0  0  0  0  0  0  0  0
    7.7181    1.7620    4.9084 C   0  0  2  0  0  0  0  0  0  0  0  0
    5.9260    5.9566    2.7465 C   0  0  2  0  0  0  0  0  0  0  0  0
    6.5096    4.9930    3.6202 O   0  0  0  0  0  0  0  0  0  0  0  0
    6.4355    5.0127   -3.7041 C   0  0  2  0  0  0  0  0  0  0  0  0
    6.3761    6.4180   -3.9449 O   0  0  0  0  0  0  0  0  0  0  0  0
    4.5095    0.0348    3.6757 C   0  0  2  0  0  0  0  0  0  0  0  0
    5.2408   -0.0594    4.9391 O   0  0  0  0  0  0  0  0  0  0  0  0
    6.3779    2.4063    5.3254 C   0  0  2  0  0  0  0  0  0  0  0  0
    5.7301    2.7814    4.0787 O   0  0  0  0  0  0  0  0  0  0  0  0
    4.5790    6.4934    3.3224 C   0  0  0  0  0  0  0  0  0  0  0  0
    4.8336    7.2026    4.5312 O   0  0  0  0  0  0  0  0  0  0  0  0
    5.3278    4.5900   -2.6665 C   0  0  1  0  0  0  0  0  0  0  0  0
    5.6382    5.3112   -1.4200 O   0  0  0  0  0  0  0  0  0  0  0  0
    3.0919    0.4741    3.9604 C   0  0  0  0  0  0  0  0  0  0  0  0
    2.4661   -0.4397    4.8280 O   0  0  0  0  0  0  0  0  0  0  0  0
    6.6402    3.6832    6.2291 C   0  0  1  0  0  0  0  0  0  0  0  0
    5.4035    4.1896    6.7387 O   0  0  0  0  0  0  0  0  0  0  0  0
    3.8436    4.9159   -3.1349 C   0  0  0  0  0  0  0  0  0  0  0  0
    2.7667    4.4903   -2.1991 N   0  0  0  0  0  0  0  0  0  0  0  0
  1  2  1  6  0  0  0
  1  7  1  0  0  0  0
  1 30  1  0  0  0  0
  3  4  1  6  0  0  0
  3  9  1  0  0  0  0
  3 39  1  0  0  0  0
  5 10  1  0  0  0  0
  5 26  1  0  0  0  0
  5 32  1  1  0  0  0
  6 12  1  0  0  0  0
  6 36  1  0  0  0  0
  6 19  1  1  0  0  0
  7  8  1  6  0  0  0
  7 14  1  0  0  0  0
  9 16  1  0  0  0  0
 10 11  1  6  0  0  0
 10 18  1  0  0  0  0
 12 13  1  6  0  0  0
 12 20  1  0  0  0  0
 14 15  1  1  0  0  0
 14 22  1  0  0  0  0
 16 17  1  6  0  0  0
 16 24  1  0  0  0  0
 18 19  1  6  0  0  0
 18 25  1  0  0  0  0
 20 21  1  1  0  0  0
 20 27  1  0  0  0  0
 22 23  1  6  0  0  0
 22 29  1  0  0  0  0
 24  2  1  1  0  0  0
 24 31  1  0  0  0  0
 25 26  1  0  0  0  0
 25 33  1  1  0  0  0
 27 28  1  1  0  0  0
 27 35  1  0  0  0  0
 29 30  1  0  0  0  0
 29 37  1  1  0  0  0
 31 32  1  6  0  0  0
 31 39  1  0  0  0  0
 33 34  1  0  0  0  0
 35 36  1  0  0  0  0
 35 41  1  6  0  0  0
 37 38  1  0  0  0  0
 39 40  1  1  0  0  0
 41 42  1  0  0  0  0
M  END
>  <CHROM.1>
-167.74600547,67.28592249,70.91754418,171.62540603,-178.77843784,63.41395328
-56.07803293,171.51961058,178.09461687,6.21383479,2.80140648,2.36369926,1.40008155
1.36242799,2.28438282

>  <Name>
ligand

>  <RI>
0

>  <Rbt.Current_Directory>
/home/itssahil/PROJECTS/Mol_Feturizer/Test_systems_manuscript/rnas/2o3w

>  <Rbt.Executable>
rbdock ($Id: //depot/dev/client3/rdock/2013.1/src/exe/rbdock.cxx#4 $)

>  <Rbt.Library>
libRbt.so (2013.1, Build901 2013/11/27)

>  <Rbt.Parameter_File>
/export/apps/rDock/src/rDock_2013.1_src/data/scripts/dock_solv.prm

>  <Rbt.Receptor>
prm/pocket_docking_6.prm

>  <SCORE>
-15.4899

>  <SCORE.INTER>
-3.24619

>  <SCORE.INTER.CONST>
1

>  <SCORE.INTER.POLAR>
0

>  <SCORE.INTER.ROT>
9

>  <SCORE.INTER.SOLV>
12.4219

>  <SCORE.INTER.VDW>
-15.9047

>  <SCORE.INTER.norm>
-0.0772902

>  <SCORE.INTRA>
-12.2437

>  <SCORE.INTRA.DIHEDRAL>
-25.3864

>  <SCORE.INTRA.DIHEDRAL.0>
27.8999

>  <SCORE.INTRA.POLAR>
0

>  <SCORE.INTRA.POLAR.0>
0

>  <SCORE.INTRA.REPUL>
0

>  <SCORE.INTRA.REPUL.0>
0

>  <SCORE.INTRA.SOLV>
-4.35227

>  <SCORE.INTRA.SOLV.lig_0>
-104.479

>  <SCORE.INTRA.VDW>
2.62562

>  <SCORE.INTRA.VDW.0>
-6.17816

>  <SCORE.INTRA.norm>
-0.291517

>  <SCORE.RESTR>
0

>  <SCORE.RESTR.CAVITY>
0

>  <SCORE.RESTR.norm>
0

>  <SCORE.SYSTEM>
0

>  <SCORE.SYSTEM.CONST>
0

>  <SCORE.SYSTEM.DIHEDRAL>
0

>  <SCORE.SYSTEM.SOLV>
0

>  <SCORE.SYSTEM.norm>
0

>  <SCORE.heavy>
42

>  <SCORE.norm>
-0.368807

>  <RMSD>
4.287

$$$$
ligand
 OpenBabel02271912133D
libRbt.so/2013.1/901 2013/11/27
 42 45  0  0  0  0  0  0  0  0999 V2000
    8.3567    0.2998    5.9314 C   0  0  2  0  0  0  0  0  0  0  0  0
    9.5124    0.5980    6.7331 O   0  0  0  0  0  0  0  0  0  0  0  0
   10.7532    4.1909    8.8183 C   0  0  2  0  0  0  0  0  0  0  0  0
   11.1270    5.6026    9.1308 N   0  0  0  0  0  0  0  0  0  0  0  0
    7.5744    3.2976    5.7611 C   0  0  1  0  0  0  0  0  0  0  0  0
    5.7548    3.7277    2.1176 C   0  0  1  0  0  0  0  0  0  0  0  0
    8.2605   -1.2522    5.8314 C   0  0  2  0  0  0  0  0  0  0  0  0
    8.3579   -1.9090    7.1466 N   0  0  0  0  0  0  0  0  0  0  0  0
   11.7790    3.5356    7.8083 C   0  0  0  0  0  0  0  0  0  0  0  0
    6.1543    3.2023    5.1247 C   0  0  2  0  0  0  0  0  0  0  0  0
    5.9612    2.0365    4.2865 O   0  0  0  0  0  0  0  0  0  0  0  0
    6.2914    3.7216    0.6408 C   0  0  2  0  0  0  0  0  0  0  0  0
    6.4688    5.1146    0.1319 N   0  0  0  0  0  0  0  0  0  0  0  0
    9.3732   -1.8512    4.9516 C   0  0  1  0  0  0  0  0  0  0  0  0
    9.2229   -3.2687    4.8560 O   0  0  0  0  0  0  0  0  0  0  0  0
   11.3458    2.0454    7.5359 C   0  0  2  0  0  0  0  0  0  0  0  0
   12.2993    1.3924    6.5988 N   0  0  0  0  0  0  0  0  0  0  0  0
    6.0562    4.5529    4.4137 C   0  0  2  0  0  0  0  0  0  0  0  0
    6.5561    4.4756    3.0407 O   0  0  0  0  0  0  0  0  0  0  0  0
    5.2793    2.8948   -0.2860 C   0  0  1  0  0  0  0  0  0  0  0  0
    5.4275    1.4861    0.0012 O   0  0  0  0  0  0  0  0  0  0  0  0
    9.3428   -1.1851    3.5572 C   0  0  2  0  0  0  0  0  0  0  0  0
   10.3451   -1.7346    2.7338 O   0  0  0  0  0  0  0  0  0  0  0  0
    9.8872    1.9911    6.9314 C   0  0  2  0  0  0  0  0  0  0  0  0
    6.8870    5.5367    5.2547 C   0  0  2  0  0  0  0  0  0  0  0  0
    7.9022    4.7051    5.8117 O   0  0  0  0  0  0  0  0  0  0  0  0
    3.7505    3.3266   -0.0769 C   0  0  2  0  0  0  0  0  0  0  0  0
    3.5979    4.6425   -0.6074 O   0  0  0  0  0  0  0  0  0  0  0  0
    9.5480    0.3575    3.7237 C   0  0  2  0  0  0  0  0  0  0  0  0
    8.5020    0.9023    4.5891 O   0  0  0  0  0  0  0  0  0  0  0  0
    8.8366    2.6651    7.8409 C   0  0  2  0  0  0  0  0  0  0  0  0
    7.6115    2.6873    7.0578 O   0  0  0  0  0  0  0  0  0  0  0  0
    6.0931    6.2793    6.3738 C   0  0  0  0  0  0  0  0  0  0  0  0
    5.3652    5.3280    7.1445 O   0  0  0  0  0  0  0  0  0  0  0  0
    3.3718    3.3078    1.4523 C   0  0  1  0  0  0  0  0  0  0  0  0
    4.3211    4.2151    2.1200 O   0  0  0  0  0  0  0  0  0  0  0  0
    9.5257    1.0930    2.4037 C   0  0  0  0  0  0  0  0  0  0  0  0
   10.6094    0.6868    1.6039 O   0  0  0  0  0  0  0  0  0  0  0  0
    9.2944    4.1380    8.2104 C   0  0  1  0  0  0  0  0  0  0  0  0
    8.4002    4.7063    9.1712 O   0  0  0  0  0  0  0  0  0  0  0  0
    1.8767    3.7571    1.7547 C   0  0  0  0  0  0  0  0  0  0  0  0
    0.8155    2.9127    1.1403 N   0  0  0  0  0  0  0  0  0  0  0  0
  1  2  1  1  0  0  0
  1  7  1  0  0  0  0
  1 30  1  0  0  0  0
  3  4  1  6  0  0  0
  3  9  1  0  0  0  0
  3 39  1  0  0  0  0
  5 10  1  0  0  0  0
  5 26  1  0  0  0  0
  5 32  1  1  0  0  0
  6 12  1  0  0  0  0
  6 36  1  0  0  0  0
  6 19  1  1  0  0  0
  7  8  1  1  0  0  0
  7 14  1  0  0  0  0
  9 16  1  0  0  0  0
 10 11  1  6  0  0  0
 10 18  1  0  0  0  0
 12 13  1  6  0  0  0
 12 20  1  0  0  0  0
 14 15  1  6  0  0  0
 14 22  1  0  0  0  0
 16 17  1  6  0  0  0
 16 24  1  0  0  0  0
 18 19  1  6  0  0  0
 18 25  1  0  0  0  0
 20 21  1  1  0  0  0
 20 27  1  0  0  0  0
 22 23  1  6  0  0  0
 22 29  1  0  0  0  0
 24  2  1  1  0  0  0
 24 31  1  0  0  0  0
 25 26  1  0  0  0  0
 25 33  1  1  0  0  0
 27 28  1  1  0  0  0
 27 35  1  0  0  0  0
 29 30  1  0  0  0  0
 29 37  1  6  0  0  0
 31 32  1  6  0  0  0
 31 39  1  0  0  0  0
 33 34  1  0  0  0  0
 35 36  1  0  0  0  0
 35 41  1  6  0  0  0
 37 38  1  0  0  0  0
 39 40  1  1  0  0  0
 41 42  1  0  0  0  0
M  END
>  <CHROM.1>
176.67386227,-166.65591997,69.83941300,177.41668191,50.29465729,-64.23013528
-55.81437806,-179.69245164,61.09985362,7.55397500,2.47408723,4.47594286,-0.31497466
0.77104740,-2.40399661

>  <Name>
ligand

>  <RI>
0

>  <Rbt.Current_Directory>
/home/itssahil/PROJECTS/Mol_Feturizer/Test_systems_manuscript/rnas/2o3w

>  <Rbt.Executable>
rbdock ($Id: //depot/dev/client3/rdock/2013.1/src/exe/rbdock.cxx#4 $)

>  <Rbt.Library>
libRbt.so (2013.1, Build901 2013/11/27)

>  <Rbt.Parameter_File>
/export/apps/rDock/src/rDock_2013.1_src/data/scripts/dock_solv.prm

>  <Rbt.Receptor>
prm/pocket_docking_8.prm

>  <SCORE>
-13.6249

>  <SCORE.INTER>
-1.19253

>  <SCORE.INTER.CONST>
1

>  <SCORE.INTER.POLAR>
0

>  <SCORE.INTER.ROT>
9

>  <SCORE.INTER.SOLV>
12.2518

>  <SCORE.INTER.VDW>
-14.4789

>  <SCORE.INTER.norm>
-0.0283935

>  <SCORE.INTRA>
-12.4324

>  <SCORE.INTRA.DIHEDRAL>
-25.8682

>  <SCORE.INTRA.DIHEDRAL.0>
27.8999

>  <SCORE.INTRA.POLAR>
0

>  <SCORE.INTRA.POLAR.0>
0

>  <SCORE.INTRA.REPUL>
0

>  <SCORE.INTRA.REPUL.0>
0

>  <SCORE.INTRA.SOLV>
-3.66323

>  <SCORE.INTRA.SOLV.lig_0>
-104.479

>  <SCORE.INTRA.VDW>
2.33328

>  <SCORE.INTRA.VDW.0>
-6.17816

>  <SCORE.INTRA.norm>
-0.29601

>  <SCORE.RESTR>
0

>  <SCORE.RESTR.CAVITY>
0

>  <SCORE.RESTR.norm>
0

>  <SCORE.SYSTEM>
0

>  <SCORE.SYSTEM.CONST>
0

>  <SCORE.SYSTEM.DIHEDRAL>
0

>  <SCORE.SYSTEM.SOLV>
0

>  <SCORE.SYSTEM.norm>
0

>  <SCORE.heavy>
42

>  <SCORE.norm>
-0.324403

>  <RMSD>
4.346

$$$$
ligand
 OpenBabel02271912133D
libRbt.so/2013.1/901 2013/11/27
 42 45  0  0  0  0  0  0  0  0999 V2000
    7.7461   -0.6142    3.9798 C   0  0  2  0  0  0  0  0  0  0  0  0
    7.8924    0.1532    5.1869 O   0  0  0  0  0  0  0  0  0  0  0  0
    6.6352    4.0812    6.5233 C   0  0  2  0  0  0  0  0  0  0  0  0
    6.3188    5.5401    6.5677 N   0  0  0  0  0  0  0  0  0  0  0  0
    5.4008    2.1064    2.8528 C   0  0  1  0  0  0  0  0  0  0  0  0
    4.7799    4.2443    0.8376 C   0  0  1  0  0  0  0  0  0  0  0  0
    8.3559   -2.0209    4.2582 C   0  0  2  0  0  0  0  0  0  0  0  0
    7.8472   -2.6192    5.5048 N   0  0  0  0  0  0  0  0  0  0  0  0
    8.1840    3.8357    6.3168 C   0  0  0  0  0  0  0  0  0  0  0  0
    6.7779    2.5240    2.2528 C   0  0  2  0  0  0  0  0  0  0  0  0
    7.2757    3.7920    2.7464 O   0  0  0  0  0  0  0  0  0  0  0  0
    3.4673    3.6503    0.2107 C   0  0  2  0  0  0  0  0  0  0  0  0
    3.4344    3.8707   -1.2662 N   0  0  0  0  0  0  0  0  0  0  0  0
    9.8904   -1.9792    4.3787 C   0  0  1  0  0  0  0  0  0  0  0  0
   10.4083   -3.2931    4.5936 O   0  0  0  0  0  0  0  0  0  0  0  0
    8.4571    2.2841    6.3010 C   0  0  2  0  0  0  0  0  0  0  0  0
    9.9097    2.0161    6.1226 N   0  0  0  0  0  0  0  0  0  0  0  0
    6.4780    2.4685    0.7540 C   0  0  2  0  0  0  0  0  0  0  0  0
    5.9942    3.7557    0.2541 O   0  0  0  0  0  0  0  0  0  0  0  0
    2.1943    4.3158    0.9203 C   0  0  1  0  0  0  0  0  0  0  0  0
    2.0622    3.7684    2.2514 O   0  0  0  0  0  0  0  0  0  0  0  0
   10.4902   -1.3371    3.1071 C   0  0  2  0  0  0  0  0  0  0  0  0
   11.8958   -1.3067    3.1944 O   0  0  0  0  0  0  0  0  0  0  0  0
    7.6430    1.5871    5.1403 C   0  0  2  0  0  0  0  0  0  0  0  0
    5.4198    1.3672    0.5734 C   0  0  2  0  0  0  0  0  0  0  0  0
    4.6908    1.4186    1.7974 O   0  0  0  0  0  0  0  0  0  0  0  0
    2.2935    5.9128    1.0049 C   0  0  2  0  0  0  0  0  0  0  0  0
    2.1679    6.4232   -0.3218 O   0  0  0  0  0  0  0  0  0  0  0  0
    9.9147    0.1094    2.9454 C   0  0  2  0  0  0  0  0  0  0  0  0
    8.4551    0.0521    2.8667 O   0  0  0  0  0  0  0  0  0  0  0  0
    6.1217    1.8318    5.2452 C   0  0  2  0  0  0  0  0  0  0  0  0
    5.5618    1.2876    4.0184 O   0  0  0  0  0  0  0  0  0  0  0  0
    5.9934   -0.0617    0.3213 C   0  0  0  0  0  0  0  0  0  0  0  0
    4.9168   -0.9707    0.1127 O   0  0  0  0  0  0  0  0  0  0  0  0
    3.6715    6.3518    1.6298 C   0  0  1  0  0  0  0  0  0  0  0  0
    4.7154    5.7560    0.7780 O   0  0  0  0  0  0  0  0  0  0  0  0
   10.4455    0.8125    1.7176 C   0  0  0  0  0  0  0  0  0  0  0  0
    9.8163    2.0614    1.5640 O   0  0  0  0  0  0  0  0  0  0  0  0
    5.8222    3.3852    5.3592 C   0  0  1  0  0  0  0  0  0  0  0  0
    4.4306    3.6025    5.6080 O   0  0  0  0  0  0  0  0  0  0  0  0
    3.8690    7.9270    1.7205 C   0  0  0  0  0  0  0  0  0  0  0  0
    3.8602    8.6514    0.4198 N   0  0  0  0  0  0  0  0  0  0  0  0
  1  2  1  1  0  0  0
  1  7  1  0  0  0  0
  1 30  1  0  0  0  0
  3  4  1  6  0  0  0
  3  9  1  0  0  0  0
  3 39  1  0  0  0  0
  5 10  1  0  0  0  0
  5 26  1  0  0  0  0
  5 32  1  1  0  0  0
  6 12  1  0  0  0  0
  6 36  1  0  0  0  0
  6 19  1  6  0  0  0
  7  8  1  1  0  0  0
  7 14  1  0  0  0  0
  9 16  1  0  0  0  0
 10 11  1  1  0  0  0
 10 18  1  0  0  0  0
 12 13  1  6  0  0  0
 12 20  1  0  0  0  0
 14 15  1  6  0  0  0
 14 22  1  0  0  0  0
 16 17  1  6  0  0  0
 16 24  1  0  0  0  0
 18 19  1  1  0  0  0
 18 25  1  0  0  0  0
 20 21  1  1  0  0  0
 20 27  1  0  0  0  0
 22 23  1  1  0  0  0
 22 29  1  0  0  0  0
 24  2  1  1  0  0  0
 24 31  1  0  0  0  0
 25 26  1  0  0  0  0
 25 33  1  1  0  0  0
 27 28  1  6  0  0  0
 27 35  1  0  0  0  0
 29 30  1  0  0  0  0
 29 37  1  6  0  0  0
 31 32  1  6  0  0  0
 31 39  1  0  0  0  0
 33 34  1  0  0  0  0
 35 36  1  0  0  0  0
 35 41  1  6  0  0  0
 37 38  1  0  0  0  0
 39 40  1  1  0  0  0
 41 42  1  0  0  0  0
M  END
>  <CHROM.1>
168.36414478,-154.58761761,-60.78697986,-82.69775547,-177.42367001,175.29613603
-90.72718884,67.52817828,-61.60752353,6.47054238,2.29008479,2.84085512,0.14721672
0.86461556,-2.23110445

>  <Name>
ligand

>  <RI>
0

>  <Rbt.Current_Directory>
/home/itssahil/PROJECTS/Mol_Feturizer/Test_systems_manuscript/rnas/2o3w

>  <Rbt.Executable>
rbdock ($Id: //depot/dev/client3/rdock/2013.1/src/exe/rbdock.cxx#4 $)

>  <Rbt.Library>
libRbt.so (2013.1, Build901 2013/11/27)

>  <Rbt.Parameter_File>
/export/apps/rDock/src/rDock_2013.1_src/data/scripts/dock_solv.prm

>  <Rbt.Receptor>
prm/pocket_docking_4.prm

>  <SCORE>
-7.5144

>  <SCORE.INTER>
1.29178

>  <SCORE.INTER.CONST>
1

>  <SCORE.INTER.POLAR>
0

>  <SCORE.INTER.ROT>
9

>  <SCORE.INTER.SOLV>
10.5702

>  <SCORE.INTER.VDW>
-12.2622

>  <SCORE.INTER.norm>
0.0307567

>  <SCORE.INTRA>
-8.81879

>  <SCORE.INTRA.DIHEDRAL>
-18.0446

>  <SCORE.INTRA.DIHEDRAL.0>
27.8999

>  <SCORE.INTRA.POLAR>
0

>  <SCORE.INTRA.POLAR.0>
0

>  <SCORE.INTRA.REPUL>
0

>  <SCORE.INTRA.REPUL.0>
0

>  <SCORE.INTRA.SOLV>
-0.71298

>  <SCORE.INTRA.SOLV.lig_0>
-104.479

>  <SCORE.INTRA.VDW>
0.56

>  <SCORE.INTRA.VDW.0>
-6.17816

>  <SCORE.INTRA.norm>
-0.209971

>  <SCORE.RESTR>
0.0126151

>  <SCORE.RESTR.CAVITY>
0.0126151

>  <SCORE.RESTR.norm>
0.00030036

>  <SCORE.SYSTEM>
0

>  <SCORE.SYSTEM.CONST>
0

>  <SCORE.SYSTEM.DIHEDRAL>
0

>  <SCORE.SYSTEM.SOLV>
0

>  <SCORE.SYSTEM.norm>
0

>  <SCORE.heavy>
42

>  <SCORE.norm>
-0.178914

>  <RMSD>
4.436

$$$$
ligand
 OpenBabel02271912133D
libRbt.so/2013.1/901 2013/11/27
 42 45  0  0  0  0  0  0  0  0999 V2000
    6.3322   -1.8582    3.7440 C   0  0  2  0  0  0  0  0  0  0  0  0
    7.1822   -0.9547    3.0170 O   0  0  0  0  0  0  0  0  0  0  0  0
    8.8564    1.1229    6.4342 C   0  0  2  0  0  0  0  0  0  0  0  0
    9.6392    2.0650    7.2886 N   0  0  0  0  0  0  0  0  0  0  0  0
    7.1579    2.8268    2.7689 C   0  0  1  0  0  0  0  0  0  0  0  0
    8.9480    5.0942    2.0838 C   0  0  1  0  0  0  0  0  0  0  0  0
    5.6573   -2.7917    2.6946 C   0  0  2  0  0  0  0  0  0  0  0  0
    6.6292   -3.3838    1.7590 N   0  0  0  0  0  0  0  0  0  0  0  0
    9.8102    0.1585    5.6204 C   0  0  0  0  0  0  0  0  0  0  0  0
    8.2256    2.2780    1.7740 C   0  0  2  0  0  0  0  0  0  0  0  0
    9.5449    2.1225    2.3521 O   0  0  0  0  0  0  0  0  0  0  0  0
    7.7512    6.1053    2.2026 C   0  0  2  0  0  0  0  0  0  0  0  0
    7.7894    7.1093    1.0974 N   0  0  0  0  0  0  0  0  0  0  0  0
    4.6121   -2.0509    1.8402 C   0  0  1  0  0  0  0  0  0  0  0  0
    3.9920   -2.9519    0.9213 O   0  0  0  0  0  0  0  0  0  0  0  0
    8.9289   -0.8227    4.7585 C   0  0  2  0  0  0  0  0  0  0  0  0
    9.7953   -1.7560    3.9892 N   0  0  0  0  0  0  0  0  0  0  0  0
    8.1174    3.2913    0.6335 C   0  0  2  0  0  0  0  0  0  0  0  0
    9.0337    4.4159    0.8244 O   0  0  0  0  0  0  0  0  0  0  0  0
    7.8053    6.8228    3.6340 C   0  0  1  0  0  0  0  0  0  0  0  0
    7.3888    5.8786    4.6459 O   0  0  0  0  0  0  0  0  0  0  0  0
    3.5699   -1.3825    2.7655 C   0  0  2  0  0  0  0  0  0  0  0  0
    2.5961   -0.7139    1.9979 O   0  0  0  0  0  0  0  0  0  0  0  0
    8.0061   -0.0141    3.7633 C   0  0  2  0  0  0  0  0  0  0  0  0
    6.6531    3.7615    0.6209 C   0  0  2  0  0  0  0  0  0  0  0  0
    6.2736    3.6665    1.9918 O   0  0  0  0  0  0  0  0  0  0  0  0
    9.2619    7.3855    3.9931 C   0  0  2  0  0  0  0  0  0  0  0  0
    9.5255    8.4856    3.1231 O   0  0  0  0  0  0  0  0  0  0  0  0
    4.3025   -0.3831    3.7216 C   0  0  2  0  0  0  0  0  0  0  0  0
    5.3138   -1.0984    4.4997 O   0  0  0  0  0  0  0  0  0  0  0  0
    7.0835    0.9921    4.4856 C   0  0  2  0  0  0  0  0  0  0  0  0
    6.4551    1.7635    3.4252 O   0  0  0  0  0  0  0  0  0  0  0  0
    5.7000    2.9216   -0.2849 C   0  0  0  0  0  0  0  0  0  0  0  0
    6.0637    3.1067   -1.6495 O   0  0  0  0  0  0  0  0  0  0  0  0
   10.3532    6.2654    3.8018 C   0  0  1  0  0  0  0  0  0  0  0  0
   10.2394    5.8179    2.4028 O   0  0  0  0  0  0  0  0  0  0  0  0
    3.3553    0.3143    4.6704 C   0  0  0  0  0  0  0  0  0  0  0  0
    4.0604    1.2276    5.4753 O   0  0  0  0  0  0  0  0  0  0  0  0
    7.9355    1.9333    5.4363 C   0  0  1  0  0  0  0  0  0  0  0  0
    7.0687    2.7612    6.2167 O   0  0  0  0  0  0  0  0  0  0  0  0
   11.8375    6.7487    4.1051 C   0  0  0  0  0  0  0  0  0  0  0  0
   12.0862    7.2268    5.4930 N   0  0  0  0  0  0  0  0  0  0  0  0
  1  2  1  6  0  0  0
  1  7  1  0  0  0  0
  1 30  1  0  0  0  0
  3  4  1  6  0  0  0
  3  9  1  0  0  0  0
  3 39  1  0  0  0  0
  5 10  1  0  0  0  0
  5 26  1  0  0  0  0
  5 32  1  6  0  0  0
  6 12  1  0  0  0  0
  6 36  1  0  0  0  0
  6 19  1  6  0  0  0
  7  8  1  6  0  0  0
  7 14  1  0  0  0  0
  9 16  1  0  0  0  0
 10 11  1  1  0  0  0
 10 18  1  0  0  0  0
 12 13  1  6  0  0  0
 12 20  1  0  0  0  0
 14 15  1  6  0  0  0
 14 22  1  0  0  0  0
 16 17  1  6  0  0  0
 16 24  1  0  0  0  0
 18 19  1  1  0  0  0
 18 25  1  0  0  0  0
 20 21  1  1  0  0  0
 20 27  1  0  0  0  0
 22 23  1  6  0  0  0
 22 29  1  0  0  0  0
 24  2  1  1  0  0  0
 24 31  1  0  0  0  0
 25 26  1  0  0  0  0
 25 33  1  6  0  0  0
 27 28  1  6  0  0  0
 27 35  1  0  0  0  0
 29 30  1  0  0  0  0
 29 37  1  1  0  0  0
 31 32  1  6  0  0  0
 31 39  1  0  0  0  0
 33 34  1  0  0  0  0
 35 36  1  0  0  0  0
 35 41  1  6  0  0  0
 37 38  1  0  0  0  0
 39 40  1  1  0  0  0
 41 42  1  0  0  0  0
M  END
>  <CHROM.1>
-176.29543810,57.14458561,-53.22382685,-78.95807587,-66.96552440,-178.20686321
-78.90347135,74.99938619,60.84282448,7.37544168,2.24043363,3.17478459,-2.36063838
-0.82432654,-0.59676260

>  <Name>
ligand

>  <RI>
0

>  <Rbt.Current_Directory>
/home/itssahil/PROJECTS/Mol_Feturizer/Test_systems_manuscript/rnas/2o3w

>  <Rbt.Executable>
rbdock ($Id: //depot/dev/client3/rdock/2013.1/src/exe/rbdock.cxx#4 $)

>  <Rbt.Library>
libRbt.so (2013.1, Build901 2013/11/27)

>  <Rbt.Parameter_File>
/export/apps/rDock/src/rDock_2013.1_src/data/scripts/dock_solv.prm

>  <Rbt.Receptor>
prm/pocket_docking_4.prm

>  <SCORE>
-9.52916

>  <SCORE.INTER>
0.376575

>  <SCORE.INTER.CONST>
1

>  <SCORE.INTER.POLAR>
0

>  <SCORE.INTER.ROT>
9

>  <SCORE.INTER.SOLV>
10.6147

>  <SCORE.INTER.VDW>
-12.8872

>  <SCORE.INTER.norm>
0.00896607

>  <SCORE.INTRA>
-9.90573

>  <SCORE.INTRA.DIHEDRAL>
-22.9402

>  <SCORE.INTRA.DIHEDRAL.0>
27.8999

>  <SCORE.INTRA.POLAR>
0

>  <SCORE.INTRA.POLAR.0>
0

>  <SCORE.INTRA.REPUL>
0

>  <SCORE.INTRA.REPUL.0>
0

>  <SCORE.INTRA.SOLV>
-1.92774

>  <SCORE.INTRA.SOLV.lig_0>
-104.479

>  <SCORE.INTRA.VDW>
2.52824

>  <SCORE.INTRA.VDW.0>
-6.17816

>  <SCORE.INTRA.norm>
-0.235851

>  <SCORE.RESTR>
0

>  <SCORE.RESTR.CAVITY>
0

>  <SCORE.RESTR.norm>
0

>  <SCORE.SYSTEM>
0

>  <SCORE.SYSTEM.CONST>
0

>  <SCORE.SYSTEM.DIHEDRAL>
0

>  <SCORE.SYSTEM.SOLV>
0

>  <SCORE.SYSTEM.norm>
0

>  <SCORE.heavy>
42

>  <SCORE.norm>
-0.226885

>  <RMSD>
4.441

$$$$
ligand
 OpenBabel02271912133D
libRbt.so/2013.1/901 2013/11/27
 42 45  0  0  0  0  0  0  0  0999 V2000
   12.0189    0.5025    7.0092 C   0  0  2  0  0  0  0  0  0  0  0  0
   12.8336    1.1805    6.0375 O   0  0  0  0  0  0  0  0  0  0  0  0
   14.3521    4.3436    8.5840 C   0  0  2  0  0  0  0  0  0  0  0  0
   15.1492    5.4894    9.1153 N   0  0  0  0  0  0  0  0  0  0  0  0
   11.4490    4.8568    4.9245 C   0  0  1  0  0  0  0  0  0  0  0  0
    8.2936    7.2148    3.0580 C   0  0  1  0  0  0  0  0  0  0  0  0
   11.2204   -0.5967    6.2460 C   0  0  2  0  0  0  0  0  0  0  0  0
   12.0837   -1.4286    5.3897 N   0  0  0  0  0  0  0  0  0  0  0  0
   15.2529    3.0576    8.3925 C   0  0  0  0  0  0  0  0  0  0  0  0
   11.6329    5.4683    3.5022 C   0  0  2  0  0  0  0  0  0  0  0  0
   12.4386    6.6722    3.4780 O   0  0  0  0  0  0  0  0  0  0  0  0
    7.7936    8.6657    3.3952 C   0  0  2  0  0  0  0  0  0  0  0  0
    7.9753    8.9688    4.8464 N   0  0  0  0  0  0  0  0  0  0  0  0
   10.1314   -0.0012    5.3348 C   0  0  1  0  0  0  0  0  0  0  0  0
    9.4001   -1.0436    4.6871 O   0  0  0  0  0  0  0  0  0  0  0  0
   14.3545    1.8809    7.8533 C   0  0  2  0  0  0  0  0  0  0  0  0
   15.1685    0.6484    7.6749 N   0  0  0  0  0  0  0  0  0  0  0  0
   10.1781    5.6361    3.0607 C   0  0  2  0  0  0  0  0  0  0  0  0
    9.6499    6.9480    3.4360 O   0  0  0  0  0  0  0  0  0  0  0  0
    6.2568    8.8085    2.9655 C   0  0  1  0  0  0  0  0  0  0  0  0
    6.1798    8.8854    1.5243 O   0  0  0  0  0  0  0  0  0  0  0  0
    9.2000    0.9067    6.1699 C   0  0  2  0  0  0  0  0  0  0  0  0
    8.1871    1.4466    5.3532 O   0  0  0  0  0  0  0  0  0  0  0  0
   13.6840    2.2770    6.4787 C   0  0  2  0  0  0  0  0  0  0  0  0
    9.3938    4.5033    3.7439 C   0  0  2  0  0  0  0  0  0  0  0  0
   10.1150    4.2996    4.9567 O   0  0  0  0  0  0  0  0  0  0  0  0
    5.3498    7.5948    3.4867 C   0  0  2  0  0  0  0  0  0  0  0  0
    5.2512    7.7089    4.9057 O   0  0  0  0  0  0  0  0  0  0  0  0
   10.0501    2.0469    6.8233 C   0  0  2  0  0  0  0  0  0  0  0  0
   11.0995    1.4617    7.6575 O   0  0  0  0  0  0  0  0  0  0  0  0
   12.8310    3.5608    6.5764 C   0  0  2  0  0  0  0  0  0  0  0  0
   12.4525    3.8730    5.2076 O   0  0  0  0  0  0  0  0  0  0  0  0
    9.2952    3.1816    2.9207 C   0  0  0  0  0  0  0  0  0  0  0  0
    8.5787    3.4306    1.7151 O   0  0  0  0  0  0  0  0  0  0  0  0
    5.9937    6.2114    3.0944 C   0  0  1  0  0  0  0  0  0  0  0  0
    7.3463    6.2094    3.6782 O   0  0  0  0  0  0  0  0  0  0  0  0
    9.2164    2.9828    7.6675 C   0  0  0  0  0  0  0  0  0  0  0  0
    8.5906    2.2707    8.7070 O   0  0  0  0  0  0  0  0  0  0  0  0
   13.6841    4.7401    7.2067 C   0  0  1  0  0  0  0  0  0  0  0  0
   12.8536    5.8815    7.4368 O   0  0  0  0  0  0  0  0  0  0  0  0
    5.1735    4.9477    3.6034 C   0  0  0  0  0  0  0  0  0  0  0  0
    3.8087    4.7940    3.0288 N   0  0  0  0  0  0  0  0  0  0  0  0
  1  2  1  6  0  0  0
  1  7  1  0  0  0  0
  1 30  1  0  0  0  0
  3  4  1  6  0  0  0
  3  9  1  0  0  0  0
  3 39  1  0  0  0  0
  5 10  1  0  0  0  0
  5 26  1  0  0  0  0
  5 32  1  6  0  0  0
  6 12  1  0  0  0  0
  6 36  1  0  0  0  0
  6 19  1  1  0  0  0
  7  8  1  6  0  0  0
  7 14  1  0  0  0  0
  9 16  1  0  0  0  0
 10 11  1  1  0  0  0
 10 18  1  0  0  0  0
 12 13  1  1  0  0  0
 12 20  1  0  0  0  0
 14 15  1  1  0  0  0
 14 22  1  0  0  0  0
 16 17  1  6  0  0  0
 16 24  1  0  0  0  0
 18 19  1  1  0  0  0
 18 25  1  0  0  0  0
 20 21  1  6  0  0  0
 20 27  1  0  0  0  0
 22 23  1  6  0  0  0
 22 29  1  0  0  0  0
 24  2  1  1  0  0  0
 24 31  1  0  0  0  0
 25 26  1  0  0  0  0
 25 33  1  6  0  0  0
 27 28  1  1  0  0  0
 27 35  1  0  0  0  0
 29 30  1  0  0  0  0
 29 37  1  1  0  0  0
 31 32  1  6  0  0  0
 31 39  1  0  0  0  0
 33 34  1  0  0  0  0
 35 36  1  0  0  0  0
 35 41  1  1  0  0  0
 37 38  1  0  0  0  0
 39 40  1  1  0  0  0
 41 42  1  0  0  0  0
M  END
>  <CHROM.1>
179.41168934,41.54075682,179.46746716,-176.20509672,-63.07612246,59.89828744
168.14811723,155.12147426,63.81579529,10.11009905,4.06464892,5.24486997,0.69279456
0.44512287,2.97546138

>  <Name>
ligand

>  <RI>
0

>  <Rbt.Current_Directory>
/home/itssahil/PROJECTS/Mol_Feturizer/Test_systems_manuscript/rnas/2o3w

>  <Rbt.Executable>
rbdock ($Id: //depot/dev/client3/rdock/2013.1/src/exe/rbdock.cxx#4 $)

>  <Rbt.Library>
libRbt.so (2013.1, Build901 2013/11/27)

>  <Rbt.Parameter_File>
/export/apps/rDock/src/rDock_2013.1_src/data/scripts/dock_solv.prm

>  <Rbt.Receptor>
prm/pocket_docking_6.prm

>  <SCORE>
-14.1763

>  <SCORE.INTER>
-2.18351

>  <SCORE.INTER.CONST>
1

>  <SCORE.INTER.POLAR>
0

>  <SCORE.INTER.ROT>
9

>  <SCORE.INTER.SOLV>
12.8185

>  <SCORE.INTER.VDW>
-15.3285

>  <SCORE.INTER.norm>
-0.0519884

>  <SCORE.INTRA>
-11.9928

>  <SCORE.INTRA.DIHEDRAL>
-22.7318

>  <SCORE.INTRA.DIHEDRAL.0>
27.8999

>  <SCORE.INTRA.POLAR>
0

>  <SCORE.INTRA.POLAR.0>
0

>  <SCORE.INTRA.REPUL>
0

>  <SCORE.INTRA.REPUL.0>
0

>  <SCORE.INTRA.SOLV>
-3.82475

>  <SCORE.INTRA.SOLV.lig_0>
-104.479

>  <SCORE.INTRA.VDW>
1.28544

>  <SCORE.INTRA.VDW.0>
-6.17816

>  <SCORE.INTRA.norm>
-0.285544

>  <SCORE.RESTR>
0

>  <SCORE.RESTR.CAVITY>
0

>  <SCORE.RESTR.norm>
0

>  <SCORE.SYSTEM>
0

>  <SCORE.SYSTEM.CONST>
0

>  <SCORE.SYSTEM.DIHEDRAL>
0

>  <SCORE.SYSTEM.SOLV>
0

>  <SCORE.SYSTEM.norm>
0

>  <SCORE.heavy>
42

>  <SCORE.norm>
-0.337532

>  <RMSD>
4.484

$$$$
ligand
 OpenBabel02271912133D
libRbt.so/2013.1/901 2013/11/27
 42 45  0  0  0  0  0  0  0  0999 V2000
    7.2450    2.6378    4.7412 C   0  0  2  0  0  0  0  0  0  0  0  0
    6.9993    2.8381    6.1436 O   0  0  0  0  0  0  0  0  0  0  0  0
    8.4782    5.3054    9.3873 C   0  0  2  0  0  0  0  0  0  0  0  0
    9.3381    6.1865   10.2325 N   0  0  0  0  0  0  0  0  0  0  0  0
    6.2882    5.3002    4.7444 C   0  0  1  0  0  0  0  0  0  0  0  0
    2.9564    5.4337    2.0208 C   0  0  1  0  0  0  0  0  0  0  0  0
    6.1190    1.6999    4.2114 C   0  0  2  0  0  0  0  0  0  0  0  0
    4.7741    2.1565    4.6030 N   0  0  0  0  0  0  0  0  0  0  0  0
    9.1369    3.8813    9.1875 C   0  0  0  0  0  0  0  0  0  0  0  0
    4.9022    5.7993    5.2548 C   0  0  2  0  0  0  0  0  0  0  0  0
    4.1652    4.8128    6.0183 O   0  0  0  0  0  0  0  0  0  0  0  0
    1.8954    4.3877    1.5217 C   0  0  2  0  0  0  0  0  0  0  0  0
    2.4589    3.0046    1.5434 N   0  0  0  0  0  0  0  0  0  0  0  0
    6.2675    0.2577    4.7300 C   0  0  1  0  0  0  0  0  0  0  0  0
    5.2397   -0.5739    4.1888 O   0  0  0  0  0  0  0  0  0  0  0  0
    8.1760    2.9932    8.3097 C   0  0  2  0  0  0  0  0  0  0  0  0
    8.7590    1.6385    8.1134 N   0  0  0  0  0  0  0  0  0  0  0  0
    4.2482    6.2484    3.9472 C   0  0  2  0  0  0  0  0  0  0  0  0
    3.5008    5.1595    3.3177 O   0  0  0  0  0  0  0  0  0  0  0  0
    1.4103    4.7885    0.0483 C   0  0  1  0  0  0  0  0  0  0  0  0
    0.5459    5.9432    0.1390 O   0  0  0  0  0  0  0  0  0  0  0  0
    7.6730   -0.2768    4.3720 C   0  0  2  0  0  0  0  0  0  0  0  0
    7.8191   -1.6025    4.8254 O   0  0  0  0  0  0  0  0  0  0  0  0
    7.9212    3.6694    6.9048 C   0  0  2  0  0  0  0  0  0  0  0  0
    5.3948    6.7325    3.0436 C   0  0  2  0  0  0  0  0  0  0  0  0
    6.4918    5.9197    3.4537 O   0  0  0  0  0  0  0  0  0  0  0  0
    2.6286    5.1075   -0.9424 C   0  0  2  0  0  0  0  0  0  0  0  0
    3.3074    3.8790   -1.2002 O   0  0  0  0  0  0  0  0  0  0  0  0
    8.7529    0.6518    5.0209 C   0  0  2  0  0  0  0  0  0  0  0  0
    8.5746    2.0226    4.5425 O   0  0  0  0  0  0  0  0  0  0  0  0
    7.3289    5.0908    7.0229 C   0  0  2  0  0  0  0  0  0  0  0  0
    7.3357    5.6212    5.6690 O   0  0  0  0  0  0  0  0  0  0  0  0
    5.7400    8.2485    3.1736 C   0  0  0  0  0  0  0  0  0  0  0  0
    4.6369    9.0233    2.7136 O   0  0  0  0  0  0  0  0  0  0  0  0
    3.6153    6.1497   -0.2925 C   0  0  1  0  0  0  0  0  0  0  0  0
    4.0528    5.5581    0.9838 O   0  0  0  0  0  0  0  0  0  0  0  0
   10.1638    0.2047    4.7153 C   0  0  0  0  0  0  0  0  0  0  0  0
   10.3862    0.2173    3.3262 O   0  0  0  0  0  0  0  0  0  0  0  0
    8.2264    5.9817    7.9802 C   0  0  1  0  0  0  0  0  0  0  0  0
    7.5986    7.2462    8.2097 O   0  0  0  0  0  0  0  0  0  0  0  0
    4.8756    6.4995   -1.1968 C   0  0  0  0  0  0  0  0  0  0  0  0
    5.8130    7.5076   -0.6298 N   0  0  0  0  0  0  0  0  0  0  0  0
  1  2  1  1  0  0  0
  1  7  1  0  0  0  0
  1 30  1  0  0  0  0
  3  4  1  1  0  0  0
  3  9  1  0  0  0  0
  3 39  1  0  0  0  0
  5 10  1  0  0  0  0
  5 26  1  0  0  0  0
  5 32  1  1  0  0  0
  6 12  1  0  0  0  0
  6 36  1  0  0  0  0
  6 19  1  1  0  0  0
  7  8  1  1  0  0  0
  7 14  1  0  0  0  0
  9 16  1  0  0  0  0
 10 11  1  6  0  0  0
 10 18  1  0  0  0  0
 12 13  1  6  0  0  0
 12 20  1  0  0  0  0
 14 15  1  6  0  0  0
 14 22  1  0  0  0  0
 16 17  1  6  0  0  0
 16 24  1  0  0  0  0
 18 19  1  6  0  0  0
 18 25  1  0  0  0  0
 20 21  1  1  0  0  0
 20 27  1  0  0  0  0
 22 23  1  1  0  0  0
 22 29  1  0  0  0  0
 24  2  1  6  0  0  0
 24 31  1  0  0  0  0
 25 26  1  0  0  0  0
 25 33  1  1  0  0  0
 27 28  1  1  0  0  0
 27 35  1  0  0  0  0
 29 30  1  0  0  0  0
 29 37  1  6  0  0  0
 31 32  1  6  0  0  0
 31 39  1  0  0  0  0
 33 34  1  0  0  0  0
 35 36  1  0  0  0  0
 35 41  1  6  0  0  0
 37 38  1  0  0  0  0
 39 40  1  1  0  0  0
 41 42  1  0  0  0  0
M  END
>  <CHROM.1>
179.14053534,-138.86390795,-174.11099432,-166.49141506,-65.44139004,60.43200611
82.31488075,61.42696980,178.51736879,5.97862553,4.12250867,4.12078800,0.01133206
0.93189871,-2.72205274

>  <Name>
ligand

>  <RI>
0

>  <Rbt.Current_Directory>
/home/itssahil/PROJECTS/Mol_Feturizer/Test_systems_manuscript/rnas/2o3w

>  <Rbt.Executable>
rbdock ($Id: //depot/dev/client3/rdock/2013.1/src/exe/rbdock.cxx#4 $)

>  <Rbt.Library>
libRbt.so (2013.1, Build901 2013/11/27)

>  <Rbt.Parameter_File>
/export/apps/rDock/src/rDock_2013.1_src/data/scripts/dock_solv.prm

>  <Rbt.Receptor>
prm/pocket_docking_6.prm

>  <SCORE>
-10.1974

>  <SCORE.INTER>
-2.91166

>  <SCORE.INTER.CONST>
1

>  <SCORE.INTER.POLAR>
0

>  <SCORE.INTER.ROT>
9

>  <SCORE.INTER.SOLV>
14.6562

>  <SCORE.INTER.VDW>
-16.4265

>  <SCORE.INTER.norm>
-0.0693251

>  <SCORE.INTRA>
-7.28571

>  <SCORE.INTRA.DIHEDRAL>
-18.881

>  <SCORE.INTRA.DIHEDRAL.0>
27.8999

>  <SCORE.INTRA.POLAR>
0

>  <SCORE.INTRA.POLAR.0>
0

>  <SCORE.INTRA.REPUL>
0

>  <SCORE.INTRA.REPUL.0>
0

>  <SCORE.INTRA.SOLV>
1.12951

>  <SCORE.INTRA.SOLV.lig_0>
-104.479

>  <SCORE.INTRA.VDW>
1.59004

>  <SCORE.INTRA.VDW.0>
-6.17816

>  <SCORE.INTRA.norm>
-0.173469

>  <SCORE.RESTR>
0

>  <SCORE.RESTR.CAVITY>
0

>  <SCORE.RESTR.norm>
0

>  <SCORE.SYSTEM>
0

>  <SCORE.SYSTEM.CONST>
0

>  <SCORE.SYSTEM.DIHEDRAL>
0

>  <SCORE.SYSTEM.SOLV>
0

>  <SCORE.SYSTEM.norm>
0

>  <SCORE.heavy>
42

>  <SCORE.norm>
-0.242794

>  <RMSD>
4.520

$$$$
ligand
 OpenBabel02271912133D
libRbt.so/2013.1/901 2013/11/27
 42 45  0  0  0  0  0  0  0  0999 V2000
   10.7679   -2.0830    6.4542 C   0  0  2  0  0  0  0  0  0  0  0  0
   10.3763   -1.2281    5.3664 O   0  0  0  0  0  0  0  0  0  0  0  0
   10.6814    2.5493    7.4720 C   0  0  2  0  0  0  0  0  0  0  0  0
   10.6096    4.0005    7.8177 N   0  0  0  0  0  0  0  0  0  0  0  0
    7.4727    0.7222    4.9419 C   0  0  1  0  0  0  0  0  0  0  0  0
    4.8064    2.5685    1.9369 C   0  0  1  0  0  0  0  0  0  0  0  0
   11.1626   -3.4569    5.8339 C   0  0  2  0  0  0  0  0  0  0  0  0
   12.1057   -3.3182    4.7105 N   0  0  0  0  0  0  0  0  0  0  0  0
   11.6796    2.2938    6.2720 C   0  0  0  0  0  0  0  0  0  0  0  0
    6.1306    0.0836    4.4709 C   0  0  2  0  0  0  0  0  0  0  0  0
    6.2929   -0.9835    3.5045 O   0  0  0  0  0  0  0  0  0  0  0  0
    5.1308    2.8341    0.4227 C   0  0  2  0  0  0  0  0  0  0  0  0
    6.5713    3.1839    0.2392 N   0  0  0  0  0  0  0  0  0  0  0  0
    9.9424   -4.2280    5.2976 C   0  0  1  0  0  0  0  0  0  0  0  0
   10.3452   -5.4953    4.7755 O   0  0  0  0  0  0  0  0  0  0  0  0
   11.7293    0.7483    5.9698 C   0  0  2  0  0  0  0  0  0  0  0  0
   12.6720    0.4694    4.8531 N   0  0  0  0  0  0  0  0  0  0  0  0
    5.3730    1.3164    3.9753 C   0  0  2  0  0  0  0  0  0  0  0  0
    5.6240    1.5675    2.5559 O   0  0  0  0  0  0  0  0  0  0  0  0
    4.1808    4.0024   -0.1246 C   0  0  1  0  0  0  0  0  0  0  0  0
    2.8419    3.4810   -0.2810 O   0  0  0  0  0  0  0  0  0  0  0  0
    8.8975   -4.3884    6.4252 C   0  0  2  0  0  0  0  0  0  0  0  0
    7.7810   -5.1072    5.9548 O   0  0  0  0  0  0  0  0  0  0  0  0
   10.2923    0.2070    5.5981 C   0  0  2  0  0  0  0  0  0  0  0  0
    5.8577    2.4899    4.8431 C   0  0  2  0  0  0  0  0  0  0  0  0
    7.2012    2.1269    5.1525 O   0  0  0  0  0  0  0  0  0  0  0  0
    4.1486    5.2812    0.8404 C   0  0  2  0  0  0  0  0  0  0  0  0
    5.4280    5.9090    0.7667 O   0  0  0  0  0  0  0  0  0  0  0  0
    8.4695   -2.9702    6.9301 C   0  0  2  0  0  0  0  0  0  0  0  0
    9.6458   -2.2409    7.4038 O   0  0  0  0  0  0  0  0  0  0  0  0
    9.2477    0.4728    6.7042 C   0  0  2  0  0  0  0  0  0  0  0  0
    7.9714    0.0850    6.1253 O   0  0  0  0  0  0  0  0  0  0  0  0
    5.0290    2.7341    6.1422 C   0  0  0  0  0  0  0  0  0  0  0  0
    5.2430    4.0682    6.5930 O   0  0  0  0  0  0  0  0  0  0  0  0
    3.8370    4.8507    2.3235 C   0  0  1  0  0  0  0  0  0  0  0  0
    4.8789    3.8776    2.6946 O   0  0  0  0  0  0  0  0  0  0  0  0
    7.4493   -3.0326    8.0433 C   0  0  0  0  0  0  0  0  0  0  0  0
    6.2820   -3.6778    7.5956 O   0  0  0  0  0  0  0  0  0  0  0  0
    9.2431    2.0094    7.0971 C   0  0  1  0  0  0  0  0  0  0  0  0
    8.3876    2.2285    8.2221 O   0  0  0  0  0  0  0  0  0  0  0  0
    3.8192    6.0581    3.3582 C   0  0  0  0  0  0  0  0  0  0  0  0
    2.8376    7.1389    3.0670 N   0  0  0  0  0  0  0  0  0  0  0  0
  1  2  1  6  0  0  0
  1  7  1  0  0  0  0
  1 30  1  0  0  0  0
  3  4  1  6  0  0  0
  3  9  1  0  0  0  0
  3 39  1  0  0  0  0
  5 10  1  0  0  0  0
  5 26  1  0  0  0  0
  5 32  1  1  0  0  0
  6 12  1  0  0  0  0
  6 36  1  0  0  0  0
  6 19  1  1  0  0  0
  7  8  1  6  0  0  0
  7 14  1  0  0  0  0
  9 16  1  0  0  0  0
 10 11  1  6  0  0  0
 10 18  1  0  0  0  0
 12 13  1  1  0  0  0
 12 20  1  0  0  0  0
 14 15  1  1  0  0  0
 14 22  1  0  0  0  0
 16 17  1  6  0  0  0
 16 24  1  0  0  0  0
 18 19  1  6  0  0  0
 18 25  1  0  0  0  0
 20 21  1  1  0  0  0
 20 27  1  0  0  0  0
 22 23  1  6  0  0  0
 22 29  1  0  0  0  0
 24  2  1  1  0  0  0
 24 31  1  0  0  0  0
 25 26  1  0  0  0  0
 25 33  1  1  0  0  0
 27 28  1  1  0  0  0
 27 35  1  0  0  0  0
 29 30  1  0  0  0  0
 29 37  1  1  0  0  0
 31 32  1  6  0  0  0
 31 39  1  0  0  0  0
 33 34  1  0  0  0  0
 35 36  1  0  0  0  0
 35 41  1  1  0  0  0
 37 38  1  0  0  0  0
 39 40  1  1  0  0  0
 41 42  1  0  0  0  0
M  END
>  <CHROM.1>
-164.12243563,62.95336722,170.59932262,178.53616689,-159.44614632,-60.70635320
-59.89325589,176.82909105,58.72346167,7.55026122,0.86498617,4.72754773,-0.72175074
-0.73882972,0.10181033

>  <Name>
ligand

>  <RI>
0

>  <Rbt.Current_Directory>
/home/itssahil/PROJECTS/Mol_Feturizer/Test_systems_manuscript/rnas/2o3w

>  <Rbt.Executable>
rbdock ($Id: //depot/dev/client3/rdock/2013.1/src/exe/rbdock.cxx#4 $)

>  <Rbt.Library>
libRbt.so (2013.1, Build901 2013/11/27)

>  <Rbt.Parameter_File>
/export/apps/rDock/src/rDock_2013.1_src/data/scripts/dock_solv.prm

>  <Rbt.Receptor>
prm/pocket_docking_4.prm

>  <SCORE>
-11.7671

>  <SCORE.INTER>
-0.157321

>  <SCORE.INTER.CONST>
1

>  <SCORE.INTER.POLAR>
0

>  <SCORE.INTER.ROT>
9

>  <SCORE.INTER.SOLV>
13.8061

>  <SCORE.INTER.VDW>
-14.3069

>  <SCORE.INTER.norm>
-0.00374574

>  <SCORE.INTRA>
-11.6098

>  <SCORE.INTRA.DIHEDRAL>
-24.6888

>  <SCORE.INTRA.DIHEDRAL.0>
27.8999

>  <SCORE.INTRA.POLAR>
0

>  <SCORE.INTRA.POLAR.0>
0

>  <SCORE.INTRA.REPUL>
0

>  <SCORE.INTRA.REPUL.0>
0

>  <SCORE.INTRA.SOLV>
-3.90135

>  <SCORE.INTRA.SOLV.lig_0>
-104.479

>  <SCORE.INTRA.VDW>
2.6853

>  <SCORE.INTRA.VDW.0>
-6.17816

>  <SCORE.INTRA.norm>
-0.276423

>  <SCORE.RESTR>
0

>  <SCORE.RESTR.CAVITY>
0

>  <SCORE.RESTR.norm>
0

>  <SCORE.SYSTEM>
0

>  <SCORE.SYSTEM.CONST>
0

>  <SCORE.SYSTEM.DIHEDRAL>
0

>  <SCORE.SYSTEM.SOLV>
0

>  <SCORE.SYSTEM.norm>
0

>  <SCORE.heavy>
42

>  <SCORE.norm>
-0.280169

>  <RMSD>
4.523

$$$$
ligand
 OpenBabel02271912133D
libRbt.so/2013.1/901 2013/11/27
 42 45  0  0  0  0  0  0  0  0999 V2000
   10.9325   -1.1713    3.7534 C   0  0  2  0  0  0  0  0  0  0  0  0
   11.6019   -0.9917    5.0131 O   0  0  0  0  0  0  0  0  0  0  0  0
   12.2236    2.5627    7.4164 C   0  0  2  0  0  0  0  0  0  0  0  0
   12.6388    3.9232    7.8715 N   0  0  0  0  0  0  0  0  0  0  0  0
    9.0485    2.1514    4.0691 C   0  0  1  0  0  0  0  0  0  0  0  0
    5.0230    3.4399    2.8831 C   0  0  1  0  0  0  0  0  0  0  0  0
   10.5238   -2.6724    3.6653 C   0  0  2  0  0  0  0  0  0  0  0  0
    9.8233   -3.1380    4.8750 N   0  0  0  0  0  0  0  0  0  0  0  0
   13.4798    1.6502    7.1148 C   0  0  0  0  0  0  0  0  0  0  0  0
    8.5480    2.0698    2.5947 C   0  0  2  0  0  0  0  0  0  0  0  0
    9.0372    3.1377    1.7465 O   0  0  0  0  0  0  0  0  0  0  0  0
    4.2675    2.7875    1.6696 C   0  0  2  0  0  0  0  0  0  0  0  0
    4.7249    3.3785    0.3764 N   0  0  0  0  0  0  0  0  0  0  0  0
   11.7386   -3.5983    3.4708 C   0  0  1  0  0  0  0  0  0  0  0  0
   11.3146   -4.9577    3.3557 O   0  0  0  0  0  0  0  0  0  0  0  0
   12.9794    0.2263    6.6623 C   0  0  2  0  0  0  0  0  0  0  0  0
   14.1378   -0.6648    6.3836 N   0  0  0  0  0  0  0  0  0  0  0  0
    7.0326    2.0265    2.7974 C   0  0  2  0  0  0  0  0  0  0  0  0
    6.4521    3.3695    2.8041 O   0  0  0  0  0  0  0  0  0  0  0  0
    2.6890    2.9802    1.8641 C   0  0  1  0  0  0  0  0  0  0  0  0
    2.2339    2.0865    2.9048 O   0  0  0  0  0  0  0  0  0  0  0  0
   12.5357   -3.1483    2.2253 C   0  0  2  0  0  0  0  0  0  0  0  0
   13.6422   -3.9964    2.0236 O   0  0  0  0  0  0  0  0  0  0  0  0
   12.0741    0.3381    5.3724 C   0  0  2  0  0  0  0  0  0  0  0  0
    6.8043    1.3140    4.1412 C   0  0  2  0  0  0  0  0  0  0  0  0
    7.9630    1.6674    4.8929 O   0  0  0  0  0  0  0  0  0  0  0  0
    2.2875    4.4859    2.2372 C   0  0  2  0  0  0  0  0  0  0  0  0
    2.5239    5.2932    1.0845 O   0  0  0  0  0  0  0  0  0  0  0  0
   13.0027   -1.6679    2.4254 C   0  0  2  0  0  0  0  0  0  0  0  0
   11.8381   -0.8098    2.6422 O   0  0  0  0  0  0  0  0  0  0  0  0
   10.8535    1.2622    5.5756 C   0  0  2  0  0  0  0  0  0  0  0  0
   10.2503    1.3933    4.2590 O   0  0  0  0  0  0  0  0  0  0  0  0
    6.6478   -0.2354    4.0463 C   0  0  0  0  0  0  0  0  0  0  0  0
    5.4754   -0.5450    3.2989 O   0  0  0  0  0  0  0  0  0  0  0  0
    3.1458    5.0052    3.4520 C   0  0  1  0  0  0  0  0  0  0  0  0
    4.5551    4.8710    3.0444 O   0  0  0  0  0  0  0  0  0  0  0  0
   13.7880   -1.1415    1.2465 C   0  0  0  0  0  0  0  0  0  0  0  0
   15.0117   -1.8265    1.1341 O   0  0  0  0  0  0  0  0  0  0  0  0
   11.3202    2.6756    6.1235 C   0  0  1  0  0  0  0  0  0  0  0  0
   10.1825    3.4768    6.4544 O   0  0  0  0  0  0  0  0  0  0  0  0
    2.8351    6.5079    3.8691 C   0  0  0  0  0  0  0  0  0  0  0  0
    3.1092    7.5338    2.8256 N   0  0  0  0  0  0  0  0  0  0  0  0
  1  2  1  1  0  0  0
  1  7  1  0  0  0  0
  1 30  1  0  0  0  0
  3  4  1  6  0  0  0
  3  9  1  0  0  0  0
  3 39  1  0  0  0  0
  5 10  1  0  0  0  0
  5 26  1  0  0  0  0
  5 32  1  6  0  0  0
  6 12  1  0  0  0  0
  6 36  1  0  0  0  0
  6 19  1  6  0  0  0
  7  8  1  1  0  0  0
  7 14  1  0  0  0  0
  9 16  1  0  0  0  0
 10 11  1  6  0  0  0
 10 18  1  0  0  0  0
 12 13  1  6  0  0  0
 12 20  1  0  0  0  0
 14 15  1  6  0  0  0
 14 22  1  0  0  0  0
 16 17  1  6  0  0  0
 16 24  1  0  0  0  0
 18 19  1  1  0  0  0
 18 25  1  0  0  0  0
 20 21  1  1  0  0  0
 20 27  1  0  0  0  0
 22 23  1  1  0  0  0
 22 29  1  0  0  0  0
 24  2  1  1  0  0  0
 24 31  1  0  0  0  0
 25 26  1  0  0  0  0
 25 33  1  6  0  0  0
 27 28  1  6  0  0  0
 27 35  1  0  0  0  0
 29 30  1  0  0  0  0
 29 37  1  6  0  0  0
 31 32  1  6  0  0  0
 31 39  1  0  0  0  0
 33 34  1  0  0  0  0
 35 36  1  0  0  0  0
 35 41  1  6  0  0  0
 37 38  1  0  0  0  0
 39 40  1  1  0  0  0
 41 42  1  0  0  0  0
M  END
>  <CHROM.1>
-178.84177254,-170.37797911,175.30219685,-62.43455419,-64.01950129,-66.61914889
177.68115204,-176.35246627,-61.85593927,8.81294095,1.20271131,3.67898874
0.37976032,0.45569319,-2.54934885

>  <Name>
ligand

>  <RI>
0

>  <Rbt.Current_Directory>
/home/itssahil/PROJECTS/Mol_Feturizer/Test_systems_manuscript/rnas/2o3w

>  <Rbt.Executable>
rbdock ($Id: //depot/dev/client3/rdock/2013.1/src/exe/rbdock.cxx#4 $)

>  <Rbt.Library>
libRbt.so (2013.1, Build901 2013/11/27)

>  <Rbt.Parameter_File>
/export/apps/rDock/src/rDock_2013.1_src/data/scripts/dock_solv.prm

>  <Rbt.Receptor>
prm/pocket_docking_7.prm

>  <SCORE>
-13.0693

>  <SCORE.INTER>
-0.0841369

>  <SCORE.INTER.CONST>
1

>  <SCORE.INTER.POLAR>
0

>  <SCORE.INTER.ROT>
9

>  <SCORE.INTER.SOLV>
8.01471

>  <SCORE.INTER.VDW>
-12.3277

>  <SCORE.INTER.norm>
-0.00200326

>  <SCORE.INTRA>
-12.9852

>  <SCORE.INTRA.DIHEDRAL>
-26.8446

>  <SCORE.INTRA.DIHEDRAL.0>
27.8999

>  <SCORE.INTRA.POLAR>
0

>  <SCORE.INTRA.POLAR.0>
0

>  <SCORE.INTRA.REPUL>
0

>  <SCORE.INTRA.REPUL.0>
0

>  <SCORE.INTRA.SOLV>
-3.96219

>  <SCORE.INTRA.SOLV.lig_0>
-104.479

>  <SCORE.INTRA.VDW>
2.41819

>  <SCORE.INTRA.VDW.0>
-6.17816

>  <SCORE.INTRA.norm>
-0.309171

>  <SCORE.RESTR>
0

>  <SCORE.RESTR.CAVITY>
0

>  <SCORE.RESTR.norm>
0

>  <SCORE.SYSTEM>
0

>  <SCORE.SYSTEM.CONST>
0

>  <SCORE.SYSTEM.DIHEDRAL>
0

>  <SCORE.SYSTEM.SOLV>
0

>  <SCORE.SYSTEM.norm>
0

>  <SCORE.heavy>
42

>  <SCORE.norm>
-0.311175

>  <RMSD>
4.581

$$$$
ligand
 OpenBabel02271912133D
libRbt.so/2013.1/901 2013/11/27
 42 45  0  0  0  0  0  0  0  0999 V2000
    7.0860    0.2605    4.5049 C   0  0  2  0  0  0  0  0  0  0  0  0
    7.2223    0.7086    3.1455 O   0  0  0  0  0  0  0  0  0  0  0  0
    4.0992    2.1387    0.5003 C   0  0  2  0  0  0  0  0  0  0  0  0
    3.0605    2.9910   -0.1518 N   0  0  0  0  0  0  0  0  0  0  0  0
    7.7384    4.1988    1.8473 C   0  0  1  0  0  0  0  0  0  0  0  0
    6.7817    6.9368    2.3923 C   0  0  1  0  0  0  0  0  0  0  0  0
    8.5239   -0.0087    5.0416 C   0  0  2  0  0  0  0  0  0  0  0  0
    9.4396    1.1178    4.7903 N   0  0  0  0  0  0  0  0  0  0  0  0
    3.6959    1.7789    1.9868 C   0  0  0  0  0  0  0  0  0  0  0  0
    7.1719    4.2591    3.2986 C   0  0  2  0  0  0  0  0  0  0  0  0
    5.7331    4.4165    3.3635 O   0  0  0  0  0  0  0  0  0  0  0  0
    7.7619    7.6501    1.3928 C   0  0  2  0  0  0  0  0  0  0  0  0
    8.2666    8.9340    1.9654 N   0  0  0  0  0  0  0  0  0  0  0  0
    9.1636   -1.2536    4.3998 C   0  0  1  0  0  0  0  0  0  0  0  0
   10.4620   -1.4847    4.9489 O   0  0  0  0  0  0  0  0  0  0  0  0
    4.8156    0.8633    2.6119 C   0  0  2  0  0  0  0  0  0  0  0  0
    4.4610    0.4929    4.0085 N   0  0  0  0  0  0  0  0  0  0  0  0
    7.9910    5.4075    3.8898 C   0  0  2  0  0  0  0  0  0  0  0  0
    7.3279    6.6971    3.6953 O   0  0  0  0  0  0  0  0  0  0  0  0
    7.0093    7.8976    0.0002 C   0  0  1  0  0  0  0  0  0  0  0  0
    6.8798    6.6352   -0.6916 O   0  0  0  0  0  0  0  0  0  0  0  0
    8.2378   -2.4739    4.6069 C   0  0  2  0  0  0  0  0  0  0  0  0
    8.8172   -3.6257    4.0394 O   0  0  0  0  0  0  0  0  0  0  0  0
    6.2117    1.6025    2.5976 C   0  0  2  0  0  0  0  0  0  0  0  0
    9.3532    5.3682    3.1768 C   0  0  2  0  0  0  0  0  0  0  0  0
    9.0260    4.8558    1.8873 O   0  0  0  0  0  0  0  0  0  0  0  0
    5.5615    8.5588    0.1845 C   0  0  2  0  0  0  0  0  0  0  0  0
    5.7540    9.8988    0.6359 O   0  0  0  0  0  0  0  0  0  0  0  0
    6.8467   -2.1759    3.9546 C   0  0  2  0  0  0  0  0  0  0  0  0
    6.2706   -0.9718    4.5529 O   0  0  0  0  0  0  0  0  0  0  0  0
    6.6456    2.0357    1.1801 C   0  0  2  0  0  0  0  0  0  0  0  0
    7.8354    2.8483    1.3764 O   0  0  0  0  0  0  0  0  0  0  0  0
   10.4353    4.4860    3.8733 C   0  0  0  0  0  0  0  0  0  0  0  0
   10.7548    5.0480    5.1425 O   0  0  0  0  0  0  0  0  0  0  0  0
    4.7093    7.7477    1.2323 C   0  0  1  0  0  0  0  0  0  0  0  0
    5.4968    7.7337    2.4773 O   0  0  0  0  0  0  0  0  0  0  0  0
    5.8718   -3.3192    4.1161 C   0  0  0  0  0  0  0  0  0  0  0  0
    5.5532   -3.4965    5.4750 O   0  0  0  0  0  0  0  0  0  0  0  0
    5.4955    2.8808    0.4883 C   0  0  1  0  0  0  0  0  0  0  0  0
    5.8341    3.1520   -0.8746 O   0  0  0  0  0  0  0  0  0  0  0  0
    3.2651    8.3559    1.5024 C   0  0  0  0  0  0  0  0  0  0  0  0
    2.4061    7.5798    2.4386 N   0  0  0  0  0  0  0  0  0  0  0  0
  1  2  1  6  0  0  0
  1  7  1  0  0  0  0
  1 30  1  0  0  0  0
  3  4  1  1  0  0  0
  3  9  1  0  0  0  0
  3 39  1  0  0  0  0
  5 10  1  0  0  0  0
  5 26  1  0  0  0  0
  5 32  1  1  0  0  0
  6 12  1  0  0  0  0
  6 36  1  0  0  0  0
  6 19  1  1  0  0  0
  7  8  1  6  0  0  0
  7 14  1  0  0  0  0
  9 16  1  0  0  0  0
 10 11  1  6  0  0  0
 10 18  1  0  0  0  0
 12 13  1  1  0  0  0
 12 20  1  0  0  0  0
 14 15  1  1  0  0  0
 14 22  1  0  0  0  0
 16 17  1  1  0  0  0
 16 24  1  0  0  0  0
 18 19  1  6  0  0  0
 18 25  1  0  0  0  0
 20 21  1  1  0  0  0
 20 27  1  0  0  0  0
 22 23  1  6  0  0  0
 22 29  1  0  0  0  0
 24  2  1  6  0  0  0
 24 31  1  0  0  0  0
 25 26  1  0  0  0  0
 25 33  1  1  0  0  0
 27 28  1  1  0  0  0
 27 35  1  0  0  0  0
 29 30  1  0  0  0  0
 29 37  1  1  0  0  0
 31 32  1  1  0  0  0
 31 39  1  0  0  0  0
 33 34  1  0  0  0  0
 35 36  1  0  0  0  0
 35 41  1  1  0  0  0
 37 38  1  0  0  0  0
 39 40  1  6  0  0  0
 41 42  1  0  0  0  0
M  END
>  <CHROM.1>
-151.31659154,-61.69570776,-44.80413326,-91.28232079,-64.84376505,65.60115149
-76.59852857,64.82671867,177.21309425,6.81010401,3.24473007,2.65504031,-1.41117484
-0.43064192,-0.24319197

>  <Name>
ligand

>  <RI>
0

>  <Rbt.Current_Directory>
/home/itssahil/PROJECTS/Mol_Feturizer/Test_systems_manuscript/rnas/2o3w

>  <Rbt.Executable>
rbdock ($Id: //depot/dev/client3/rdock/2013.1/src/exe/rbdock.cxx#4 $)

>  <Rbt.Library>
libRbt.so (2013.1, Build901 2013/11/27)

>  <Rbt.Parameter_File>
/export/apps/rDock/src/rDock_2013.1_src/data/scripts/dock_solv.prm

>  <Rbt.Receptor>
prm/pocket_docking_2.prm

>  <SCORE>
5.00517

>  <SCORE.INTER>
6.48823

>  <SCORE.INTER.CONST>
1

>  <SCORE.INTER.POLAR>
0

>  <SCORE.INTER.ROT>
9

>  <SCORE.INTER.SOLV>
12.0512

>  <SCORE.INTER.VDW>
-9.29157

>  <SCORE.INTER.norm>
0.154482

>  <SCORE.INTRA>
-4.39662

>  <SCORE.INTRA.DIHEDRAL>
-17.9037

>  <SCORE.INTRA.DIHEDRAL.0>
27.8999

>  <SCORE.INTRA.POLAR>
0

>  <SCORE.INTRA.POLAR.0>
0

>  <SCORE.INTRA.REPUL>
0

>  <SCORE.INTRA.REPUL.0>
0

>  <SCORE.INTRA.SOLV>
0.362431

>  <SCORE.INTRA.SOLV.lig_0>
-104.479

>  <SCORE.INTRA.VDW>
4.37403

>  <SCORE.INTRA.VDW.0>
-6.17816

>  <SCORE.INTRA.norm>
-0.104681

>  <SCORE.RESTR>
2.91355

>  <SCORE.RESTR.CAVITY>
2.91355

>  <SCORE.RESTR.norm>
0.0693703

>  <SCORE.SYSTEM>
0

>  <SCORE.SYSTEM.CONST>
0

>  <SCORE.SYSTEM.DIHEDRAL>
0

>  <SCORE.SYSTEM.SOLV>
0

>  <SCORE.SYSTEM.norm>
0

>  <SCORE.heavy>
42

>  <SCORE.norm>
0.119171

>  <RMSD>
4.606

$$$$
ligand
 OpenBabel02271912133D
libRbt.so/2013.1/901 2013/11/27
 42 45  0  0  0  0  0  0  0  0999 V2000
   11.2319   -1.2139    5.2163 C   0  0  2  0  0  0  0  0  0  0  0  0
   12.1506   -0.5969    6.1342 O   0  0  0  0  0  0  0  0  0  0  0  0
   12.1893    3.3993    7.8148 C   0  0  2  0  0  0  0  0  0  0  0  0
   12.2325    4.8847    7.9634 N   0  0  0  0  0  0  0  0  0  0  0  0
    9.9138    1.8147    4.3917 C   0  0  1  0  0  0  0  0  0  0  0  0
    8.5891    3.6939    0.5903 C   0  0  1  0  0  0  0  0  0  0  0  0
   11.2701   -2.7465    5.4953 C   0  0  2  0  0  0  0  0  0  0  0  0
   11.1112   -3.0633    6.9253 N   0  0  0  0  0  0  0  0  0  0  0  0
   13.5404    2.8436    7.2085 C   0  0  0  0  0  0  0  0  0  0  0  0
    9.0030    1.1224    3.3326 C   0  0  2  0  0  0  0  0  0  0  0  0
    9.7022    0.1867    2.4754 O   0  0  0  0  0  0  0  0  0  0  0  0
    9.4251    4.0023   -0.7038 C   0  0  2  0  0  0  0  0  0  0  0  0
   10.7963    4.4789   -0.3520 N   0  0  0  0  0  0  0  0  0  0  0  0
   12.5933   -3.3902    5.0415 C   0  0  1  0  0  0  0  0  0  0  0  0
   12.5685   -4.7986    5.2795 O   0  0  0  0  0  0  0  0  0  0  0  0
   13.4427    1.2750    7.0972 C   0  0  2  0  0  0  0  0  0  0  0  0
   14.7050    0.7159    6.5428 N   0  0  0  0  0  0  0  0  0  0  0  0
    8.3909    2.3348    2.6292 C   0  0  2  0  0  0  0  0  0  0  0  0
    9.2029    2.7623    1.4897 O   0  0  0  0  0  0  0  0  0  0  0  0
    8.6479    5.0882   -1.5891 C   0  0  1  0  0  0  0  0  0  0  0  0
    7.5108    4.4530   -2.2155 O   0  0  0  0  0  0  0  0  0  0  0  0
   12.8347   -3.0743    3.5478 C   0  0  2  0  0  0  0  0  0  0  0  0
   14.0342   -3.6709    3.1124 O   0  0  0  0  0  0  0  0  0  0  0  0
   12.2284    0.8565    6.1772 C   0  0  2  0  0  0  0  0  0  0  0  0
    8.2981    3.4410    3.6937 C   0  0  2  0  0  0  0  0  0  0  0  0
    9.4053    3.1596    4.5465 O   0  0  0  0  0  0  0  0  0  0  0  0
    8.1533    6.3495   -0.7335 C   0  0  2  0  0  0  0  0  0  0  0  0
    9.3111    7.0877   -0.3453 O   0  0  0  0  0  0  0  0  0  0  0  0
   12.8877   -1.5219    3.3563 C   0  0  2  0  0  0  0  0  0  0  0  0
   11.6365   -0.9255    3.8238 O   0  0  0  0  0  0  0  0  0  0  0  0
   10.8778    1.4131    6.6782 C   0  0  2  0  0  0  0  0  0  0  0  0
    9.9209    1.0939    5.6308 O   0  0  0  0  0  0  0  0  0  0  0  0
    6.9621    3.4689    4.4991 C   0  0  0  0  0  0  0  0  0  0  0  0
    6.8813    2.3052    5.3166 O   0  0  0  0  0  0  0  0  0  0  0  0
    7.3547    5.8783    0.5403 C   0  0  1  0  0  0  0  0  0  0  0  0
    8.2652    4.9966    1.2911 O   0  0  0  0  0  0  0  0  0  0  0  0
   13.1152   -1.1209    1.9171 C   0  0  0  0  0  0  0  0  0  0  0  0
   12.0741   -1.6102    1.1071 O   0  0  0  0  0  0  0  0  0  0  0  0
   10.9756    2.9818    6.8912 C   0  0  1  0  0  0  0  0  0  0  0  0
    9.7768    3.4732    7.4970 O   0  0  0  0  0  0  0  0  0  0  0  0
    6.8537    7.0690    1.4676 C   0  0  0  0  0  0  0  0  0  0  0  0
    5.8768    8.0025    0.8425 N   0  0  0  0  0  0  0  0  0  0  0  0
  1  2  1  1  0  0  0
  1  7  1  0  0  0  0
  1 30  1  0  0  0  0
  3  4  1  6  0  0  0
  3  9  1  0  0  0  0
  3 39  1  0  0  0  0
  5 10  1  0  0  0  0
  5 26  1  0  0  0  0
  5 32  1  1  0  0  0
  6 12  1  0  0  0  0
  6 36  1  0  0  0  0
  6 19  1  1  0  0  0
  7  8  1  1  0  0  0
  7 14  1  0  0  0  0
  9 16  1  0  0  0  0
 10 11  1  6  0  0  0
 10 18  1  0  0  0  0
 12 13  1  1  0  0  0
 12 20  1  0  0  0  0
 14 15  1  6  0  0  0
 14 22  1  0  0  0  0
 16 17  1  6  0  0  0
 16 24  1  0  0  0  0
 18 19  1  6  0  0  0
 18 25  1  0  0  0  0
 20 21  1  1  0  0  0
 20 27  1  0  0  0  0
 22 23  1  1  0  0  0
 22 29  1  0  0  0  0
 24  2  1  1  0  0  0
 24 31  1  0  0  0  0
 25 26  1  0  0  0  0
 25 33  1  1  0  0  0
 27 28  1  1  0  0  0
 27 35  1  0  0  0  0
 29 30  1  0  0  0  0
 29 37  1  6  0  0  0
 31 32  1  6  0  0  0
 31 39  1  0  0  0  0
 33 34  1  0  0  0  0
 35 36  1  0  0  0  0
 35 41  1  1  0  0  0
 37 38  1  0  0  0  0
 39 40  1  1  0  0  0
 41 42  1  0  0  0  0
M  END
>  <CHROM.1>
-174.54259813,-171.82733192,166.99231164,-173.34185637,67.58801723,60.07429895
-73.83293811,168.85903345,63.31488700,10.36811853,1.81046587,3.59068496,-0.14004462
1.08112148,-2.02312564

>  <Name>
ligand

>  <RI>
0

>  <Rbt.Current_Directory>
/home/itssahil/PROJECTS/Mol_Feturizer/Test_systems_manuscript/rnas/2o3w

>  <Rbt.Executable>
rbdock ($Id: //depot/dev/client3/rdock/2013.1/src/exe/rbdock.cxx#4 $)

>  <Rbt.Library>
libRbt.so (2013.1, Build901 2013/11/27)

>  <Rbt.Parameter_File>
/export/apps/rDock/src/rDock_2013.1_src/data/scripts/dock_solv.prm

>  <Rbt.Receptor>
prm/pocket_docking_6.prm

>  <SCORE>
-11.5757

>  <SCORE.INTER>
0.629168

>  <SCORE.INTER.CONST>
1

>  <SCORE.INTER.POLAR>
0

>  <SCORE.INTER.ROT>
9

>  <SCORE.INTER.SOLV>
12.7292

>  <SCORE.INTER.VDW>
-13.4236

>  <SCORE.INTER.norm>
0.0149802

>  <SCORE.INTRA>
-12.2049

>  <SCORE.INTRA.DIHEDRAL>
-24.5349

>  <SCORE.INTRA.DIHEDRAL.0>
27.8999

>  <SCORE.INTRA.POLAR>
0

>  <SCORE.INTRA.POLAR.0>
0

>  <SCORE.INTRA.REPUL>
0

>  <SCORE.INTRA.REPUL.0>
0

>  <SCORE.INTRA.SOLV>
-3.83779

>  <SCORE.INTRA.SOLV.lig_0>
-104.479

>  <SCORE.INTRA.VDW>
1.98149

>  <SCORE.INTRA.VDW.0>
-6.17816

>  <SCORE.INTRA.norm>
-0.290592

>  <SCORE.RESTR>
0

>  <SCORE.RESTR.CAVITY>
0

>  <SCORE.RESTR.norm>
0

>  <SCORE.SYSTEM>
0

>  <SCORE.SYSTEM.CONST>
0

>  <SCORE.SYSTEM.DIHEDRAL>
0

>  <SCORE.SYSTEM.SOLV>
0

>  <SCORE.SYSTEM.norm>
0

>  <SCORE.heavy>
42

>  <SCORE.norm>
-0.275612

>  <RMSD>
4.695

$$$$
ligand
 OpenBabel02271912133D
libRbt.so/2013.1/901 2013/11/27
 42 45  0  0  0  0  0  0  0  0999 V2000
    4.7656    0.4558    4.3917 C   0  0  2  0  0  0  0  0  0  0  0  0
    4.7275    1.5680    5.3021 O   0  0  0  0  0  0  0  0  0  0  0  0
    8.1835    3.8304    6.6188 C   0  0  2  0  0  0  0  0  0  0  0  0
    9.3039    4.8157    6.6844 N   0  0  0  0  0  0  0  0  0  0  0  0
    4.2222    4.8219    4.6312 C   0  0  1  0  0  0  0  0  0  0  0  0
    3.7666    7.4599    1.1633 C   0  0  1  0  0  0  0  0  0  0  0  0
    4.4522    1.0183    2.9728 C   0  0  2  0  0  0  0  0  0  0  0  0
    5.2747    2.1938    2.6379 N   0  0  0  0  0  0  0  0  0  0  0  0
    8.3819    2.8144    5.4229 C   0  0  0  0  0  0  0  0  0  0  0  0
    3.0874    5.8877    4.5484 C   0  0  2  0  0  0  0  0  0  0  0  0
    1.7928    5.3436    4.1919 O   0  0  0  0  0  0  0  0  0  0  0  0
    3.2203    8.9250    1.3176 C   0  0  2  0  0  0  0  0  0  0  0  0
    1.7278    8.9345    1.3748 N   0  0  0  0  0  0  0  0  0  0  0  0
    2.9810    1.4488    2.8267 C   0  0  1  0  0  0  0  0  0  0  0  0
    2.7298    1.9196    1.5016 O   0  0  0  0  0  0  0  0  0  0  0  0
    7.1847    1.7902    5.4195 C   0  0  2  0  0  0  0  0  0  0  0  0
    7.3469    0.8083    4.3134 N   0  0  0  0  0  0  0  0  0  0  0  0
    3.6854    6.8815    3.5514 C   0  0  2  0  0  0  0  0  0  0  0  0
    3.3211    6.5472    2.1743 O   0  0  0  0  0  0  0  0  0  0  0  0
    3.7553    9.8196    0.1008 C   0  0  1  0  0  0  0  0  0  0  0  0
    5.1600   10.0926    0.3040 O   0  0  0  0  0  0  0  0  0  0  0  0
    2.0583    0.2627    3.1887 C   0  0  2  0  0  0  0  0  0  0  0  0
    0.7076    0.6356    3.0438 O   0  0  0  0  0  0  0  0  0  0  0  0
    5.8062    2.5453    5.2601 C   0  0  2  0  0  0  0  0  0  0  0  0
    5.2087    6.8222    3.7548 C   0  0  2  0  0  0  0  0  0  0  0  0
    5.4256    5.4741    4.1649 O   0  0  0  0  0  0  0  0  0  0  0  0
    3.5463    9.1192   -1.3251 C   0  0  2  0  0  0  0  0  0  0  0  0
    2.1449    9.0982   -1.5936 O   0  0  0  0  0  0  0  0  0  0  0  0
    2.3541   -0.1840    4.6592 C   0  0  2  0  0  0  0  0  0  0  0  0
    3.7630   -0.5565    4.7862 O   0  0  0  0  0  0  0  0  0  0  0  0
    5.5685    3.5975    6.3653 C   0  0  2  0  0  0  0  0  0  0  0  0
    4.3665    4.3098    5.9624 O   0  0  0  0  0  0  0  0  0  0  0  0
    5.7717    7.8266    4.8077 C   0  0  0  0  0  0  0  0  0  0  0  0
    7.1922    7.7266    4.8407 O   0  0  0  0  0  0  0  0  0  0  0  0
    4.1213    7.6524   -1.3135 C   0  0  1  0  0  0  0  0  0  0  0  0
    3.4267    6.9492   -0.2211 O   0  0  0  0  0  0  0  0  0  0  0  0
    1.4967   -1.3490    5.0967 C   0  0  0  0  0  0  0  0  0  0  0  0
    1.7398   -2.4652    4.2756 O   0  0  0  0  0  0  0  0  0  0  0  0
    6.8046    4.5872    6.4561 C   0  0  1  0  0  0  0  0  0  0  0  0
    6.6532    5.4643    7.5756 O   0  0  0  0  0  0  0  0  0  0  0  0
    3.9253    6.8692   -2.6835 C   0  0  0  0  0  0  0  0  0  0  0  0
    2.5132    6.6389   -3.0953 N   0  0  0  0  0  0  0  0  0  0  0  0
  1  2  1  1  0  0  0
  1  7  1  0  0  0  0
  1 30  1  0  0  0  0
  3  4  1  6  0  0  0
  3  9  1  0  0  0  0
  3 39  1  0  0  0  0
  5 10  1  0  0  0  0
  5 26  1  0  0  0  0
  5 32  1  1  0  0  0
  6 12  1  0  0  0  0
  6 36  1  0  0  0  0
  6 19  1  1  0  0  0
  7  8  1  1  0  0  0
  7 14  1  0  0  0  0
  9 16  1  0  0  0  0
 10 11  1  6  0  0  0
 10 18  1  0  0  0  0
 12 13  1  6  0  0  0
 12 20  1  0  0  0  0
 14 15  1  6  0  0  0
 14 22  1  0  0  0  0
 16 17  1  6  0  0  0
 16 24  1  0  0  0  0
 18 19  1  6  0  0  0
 18 25  1  0  0  0  0
 20 21  1  1  0  0  0
 20 27  1  0  0  0  0
 22 23  1  1  0  0  0
 22 29  1  0  0  0  0
 24  2  1  1  0  0  0
 24 31  1  0  0  0  0
 25 26  1  0  0  0  0
 25 33  1  1  0  0  0
 27 28  1  1  0  0  0
 27 35  1  0  0  0  0
 29 30  1  0  0  0  0
 29 37  1  6  0  0  0
 31 32  1  6  0  0  0
 31 39  1  0  0  0  0
 33 34  1  0  0  0  0
 35 36  1  0  0  0  0
 35 41  1  6  0  0  0
 37 38  1  0  0  0  0
 39 40  1  1  0  0  0
 41 42  1  0  0  0  0
M  END
>  <CHROM.1>
-71.92845191,-54.28911055,176.54996845,-60.43845248,-176.50569293,60.86051311
-49.12675375,-162.96414449,-62.54677224,4.34333163,4.48086917,3.22350179
1.42399792,0.80417463,2.65735921

>  <Name>
ligand

>  <RI>
0

>  <Rbt.Current_Directory>
/home/itssahil/PROJECTS/Mol_Feturizer/Test_systems_manuscript/rnas/2o3w

>  <Rbt.Executable>
rbdock ($Id: //depot/dev/client3/rdock/2013.1/src/exe/rbdock.cxx#4 $)

>  <Rbt.Library>
libRbt.so (2013.1, Build901 2013/11/27)

>  <Rbt.Parameter_File>
/export/apps/rDock/src/rDock_2013.1_src/data/scripts/dock_solv.prm

>  <Rbt.Receptor>
prm/pocket_docking_5.prm

>  <SCORE>
-15.0855

>  <SCORE.INTER>
-8.19049

>  <SCORE.INTER.CONST>
1

>  <SCORE.INTER.POLAR>
0

>  <SCORE.INTER.ROT>
9

>  <SCORE.INTER.SOLV>
16.3509

>  <SCORE.INTER.VDW>
-20.5106

>  <SCORE.INTER.norm>
-0.195012

>  <SCORE.INTRA>
-6.895

>  <SCORE.INTRA.DIHEDRAL>
-24.8807

>  <SCORE.INTRA.DIHEDRAL.0>
27.8999

>  <SCORE.INTRA.POLAR>
0

>  <SCORE.INTRA.POLAR.0>
0

>  <SCORE.INTRA.REPUL>
0

>  <SCORE.INTRA.REPUL.0>
0

>  <SCORE.INTRA.SOLV>
3.00158

>  <SCORE.INTRA.SOLV.lig_0>
-104.479

>  <SCORE.INTRA.VDW>
4.04454

>  <SCORE.INTRA.VDW.0>
-6.17816

>  <SCORE.INTRA.norm>
-0.164167

>  <SCORE.RESTR>
0

>  <SCORE.RESTR.CAVITY>
0

>  <SCORE.RESTR.norm>
0

>  <SCORE.SYSTEM>
0

>  <SCORE.SYSTEM.CONST>
0

>  <SCORE.SYSTEM.DIHEDRAL>
0

>  <SCORE.SYSTEM.SOLV>
0

>  <SCORE.SYSTEM.norm>
0

>  <SCORE.heavy>
42

>  <SCORE.norm>
-0.359178

>  <RMSD>
4.698

$$$$
ligand
 OpenBabel02271912133D
libRbt.so/2013.1/901 2013/11/27
 42 45  0  0  0  0  0  0  0  0999 V2000
   12.4649    0.7494    6.0010 C   0  0  2  0  0  0  0  0  0  0  0  0
   12.2161    1.6217    4.8854 O   0  0  0  0  0  0  0  0  0  0  0  0
   11.2790    5.1993    7.1478 C   0  0  2  0  0  0  0  0  0  0  0  0
   10.9290    6.6033    7.5176 N   0  0  0  0  0  0  0  0  0  0  0  0
    9.3614    3.5118    3.5408 C   0  0  1  0  0  0  0  0  0  0  0  0
    7.8696    4.1214   -0.4594 C   0  0  1  0  0  0  0  0  0  0  0  0
   12.8024   -0.6543    5.4147 C   0  0  2  0  0  0  0  0  0  0  0  0
   13.8318   -0.5931    4.3624 N   0  0  0  0  0  0  0  0  0  0  0  0
   12.6898    5.1279    6.4363 C   0  0  0  0  0  0  0  0  0  0  0  0
    8.4482    2.8021    2.4952 C   0  0  2  0  0  0  0  0  0  0  0  0
    9.1752    2.0598    1.4854 O   0  0  0  0  0  0  0  0  0  0  0  0
    8.4385    4.9424   -1.6723 C   0  0  2  0  0  0  0  0  0  0  0  0
    8.0589    6.3831   -1.5662 N   0  0  0  0  0  0  0  0  0  0  0  0
   11.5714   -1.3394    4.7933 C   0  0  1  0  0  0  0  0  0  0  0  0
   11.9176   -2.6366    4.3052 O   0  0  0  0  0  0  0  0  0  0  0  0
   13.0122    3.6245    6.0920 C   0  0  2  0  0  0  0  0  0  0  0  0
   14.3419    3.5182    5.4330 N   0  0  0  0  0  0  0  0  0  0  0  0
    7.6155    3.9777    1.9817 C   0  0  2  0  0  0  0  0  0  0  0  0
    8.2468    4.6216    0.8295 O   0  0  0  0  0  0  0  0  0  0  0  0
    7.9015    4.3049   -3.0405 C   0  0  1  0  0  0  0  0  0  0  0  0
    8.5959    3.0603   -3.2803 O   0  0  0  0  0  0  0  0  0  0  0  0
   10.4389   -1.4149    5.8425 C   0  0  2  0  0  0  0  0  0  0  0  0
    9.3100   -2.0548    5.2942 O   0  0  0  0  0  0  0  0  0  0  0  0
   11.9015    3.0195    5.1453 C   0  0  2  0  0  0  0  0  0  0  0  0
    7.4849    4.9536    3.1631 C   0  0  2  0  0  0  0  0  0  0  0  0
    8.6989    4.7509    3.8826 O   0  0  0  0  0  0  0  0  0  0  0  0
    6.3208    4.0427   -3.0263 C   0  0  2  0  0  0  0  0  0  0  0  0
    5.6729    5.3141   -3.0414 O   0  0  0  0  0  0  0  0  0  0  0  0
   10.0797    0.0346    6.3112 C   0  0  2  0  0  0  0  0  0  0  0  0
   11.2686    0.6806    6.8671 O   0  0  0  0  0  0  0  0  0  0  0  0
   10.4843    3.1066    5.7529 C   0  0  2  0  0  0  0  0  0  0  0  0
    9.5863    2.6846    4.6898 O   0  0  0  0  0  0  0  0  0  0  0  0
    6.2438    4.7167    4.0784 C   0  0  0  0  0  0  0  0  0  0  0  0
    5.0564    4.8326    3.3002 O   0  0  0  0  0  0  0  0  0  0  0  0
    5.9032    3.2331   -1.7408 C   0  0  1  0  0  0  0  0  0  0  0  0
    6.3638    4.0280   -0.5891 O   0  0  0  0  0  0  0  0  0  0  0  0
    8.9800    0.0549    7.3475 C   0  0  0  0  0  0  0  0  0  0  0  0
    8.7676    1.3687    7.8035 O   0  0  0  0  0  0  0  0  0  0  0  0
   10.1683    4.5958    6.1977 C   0  0  1  0  0  0  0  0  0  0  0  0
    8.9211    4.6482    6.8958 O   0  0  0  0  0  0  0  0  0  0  0  0
    4.3413    2.9568   -1.6285 C   0  0  0  0  0  0  0  0  0  0  0  0
    3.9122    2.1694   -0.4400 N   0  0  0  0  0  0  0  0  0  0  0  0
  1  2  1  6  0  0  0
  1  7  1  0  0  0  0
  1 30  1  0  0  0  0
  3  4  1  6  0  0  0
  3  9  1  0  0  0  0
  3 39  1  0  0  0  0
  5 10  1  0  0  0  0
  5 26  1  0  0  0  0
  5 32  1  1  0  0  0
  6 12  1  0  0  0  0
  6 36  1  0  0  0  0
  6 19  1  1  0  0  0
  7  8  1  6  0  0  0
  7 14  1  0  0  0  0
  9 16  1  0  0  0  0
 10 11  1  6  0  0  0
 10 18  1  0  0  0  0
 12 13  1  1  0  0  0
 12 20  1  0  0  0  0
 14 15  1  1  0  0  0
 14 22  1  0  0  0  0
 16 17  1  6  0  0  0
 16 24  1  0  0  0  0
 18 19  1  6  0  0  0
 18 25  1  0  0  0  0
 20 21  1  1  0  0  0
 20 27  1  0  0  0  0
 22 23  1  6  0  0  0
 22 29  1  0  0  0  0
 24  2  1  1  0  0  0
 24 31  1  0  0  0  0
 25 26  1  0  0  0  0
 25 33  1  1  0  0  0
 27 28  1  1  0  0  0
 27 35  1  0  0  0  0
 29 30  1  0  0  0  0
 29 37  1  1  0  0  0
 31 32  1  6  0  0  0
 31 39  1  0  0  0  0
 33 34  1  0  0  0  0
 35 36  1  0  0  0  0
 35 41  1  1  0  0  0
 37 38  1  0  0  0  0
 39 40  1  1  0  0  0
 41 42  1  0  0  0  0
M  END
>  <CHROM.1>
-178.69061553,52.10821257,91.01868460,173.30701182,-59.31942324,175.66097950
-70.63324943,175.73369097,178.79313060,9.26885346,2.81306162,3.20620409,-0.12362379
1.01576458,-2.63799391

>  <Name>
ligand

>  <RI>
0

>  <Rbt.Current_Directory>
/home/itssahil/PROJECTS/Mol_Feturizer/Test_systems_manuscript/rnas/2o3w

>  <Rbt.Executable>
rbdock ($Id: //depot/dev/client3/rdock/2013.1/src/exe/rbdock.cxx#4 $)

>  <Rbt.Library>
libRbt.so (2013.1, Build901 2013/11/27)

>  <Rbt.Parameter_File>
/export/apps/rDock/src/rDock_2013.1_src/data/scripts/dock_solv.prm

>  <Rbt.Receptor>
prm/pocket_docking_8.prm

>  <SCORE>
-12.3991

>  <SCORE.INTER>
-1.09929

>  <SCORE.INTER.CONST>
1

>  <SCORE.INTER.POLAR>
0

>  <SCORE.INTER.ROT>
9

>  <SCORE.INTER.SOLV>
15.3805

>  <SCORE.INTER.VDW>
-15.4597

>  <SCORE.INTER.norm>
-0.0261735

>  <SCORE.INTRA>
-11.2998

>  <SCORE.INTRA.DIHEDRAL>
-22.7417

>  <SCORE.INTRA.DIHEDRAL.0>
27.8999

>  <SCORE.INTRA.POLAR>
0

>  <SCORE.INTRA.POLAR.0>
0

>  <SCORE.INTRA.REPUL>
0

>  <SCORE.INTRA.REPUL.0>
0

>  <SCORE.INTRA.SOLV>
-4.77751

>  <SCORE.INTRA.SOLV.lig_0>
-104.479

>  <SCORE.INTRA.VDW>
2.45983

>  <SCORE.INTRA.VDW.0>
-6.17816

>  <SCORE.INTRA.norm>
-0.269042

>  <SCORE.RESTR>
0

>  <SCORE.RESTR.CAVITY>
0

>  <SCORE.RESTR.norm>
0

>  <SCORE.SYSTEM>
0

>  <SCORE.SYSTEM.CONST>
0

>  <SCORE.SYSTEM.DIHEDRAL>
0

>  <SCORE.SYSTEM.SOLV>
0

>  <SCORE.SYSTEM.norm>
0

>  <SCORE.heavy>
42

>  <SCORE.norm>
-0.295216

>  <RMSD>
4.764

$$$$
ligand
 OpenBabel02271912133D
libRbt.so/2013.1/901 2013/11/27
 42 45  0  0  0  0  0  0  0  0999 V2000
    9.3094    1.1552    7.2416 C   0  0  2  0  0  0  0  0  0  0  0  0
    8.7597    0.8878    5.9402 O   0  0  0  0  0  0  0  0  0  0  0  0
    7.5056   -2.8295    4.0950 C   0  0  2  0  0  0  0  0  0  0  0  0
    6.7725   -4.0935    3.7864 N   0  0  0  0  0  0  0  0  0  0  0  0
    6.5176    2.1851    4.3078 C   0  0  1  0  0  0  0  0  0  0  0  0
    6.8419    6.0266    2.0514 C   0  0  1  0  0  0  0  0  0  0  0  0
    9.2963    2.7017    7.4322 C   0  0  2  0  0  0  0  0  0  0  0  0
    7.9863    3.2976    7.1168 N   0  0  0  0  0  0  0  0  0  0  0  0
    8.2273   -2.9129    5.5000 C   0  0  0  0  0  0  0  0  0  0  0  0
    6.9462    2.3349    2.8162 C   0  0  2  0  0  0  0  0  0  0  0  0
    8.3778    2.2655    2.6046 O   0  0  0  0  0  0  0  0  0  0  0  0
    7.8573    7.1994    2.3008 C   0  0  2  0  0  0  0  0  0  0  0  0
    8.0394    7.4455    3.7627 N   0  0  0  0  0  0  0  0  0  0  0  0
   10.3330    3.4091    6.5401 C   0  0  1  0  0  0  0  0  0  0  0  0
   10.3135    4.8179    6.7761 O   0  0  0  0  0  0  0  0  0  0  0  0
    8.9991   -1.5638    5.7582 C   0  0  2  0  0  0  0  0  0  0  0  0
    9.7032   -1.6129    7.0679 N   0  0  0  0  0  0  0  0  0  0  0  0
    6.2863    3.6652    2.4498 C   0  0  2  0  0  0  0  0  0  0  0  0
    7.1784    4.7965    2.7050 O   0  0  0  0  0  0  0  0  0  0  0  0
    7.3352    8.5183    1.5559 C   0  0  1  0  0  0  0  0  0  0  0  0
    7.5350    8.3613    0.1331 O   0  0  0  0  0  0  0  0  0  0  0  0
   11.7339    2.8118    6.8045 C   0  0  2  0  0  0  0  0  0  0  0  0
   12.6974    3.4605    6.0074 O   0  0  0  0  0  0  0  0  0  0  0  0
    8.0016   -0.3389    5.7382 C   0  0  2  0  0  0  0  0  0  0  0  0
    5.0116    3.7566    3.3054 C   0  0  2  0  0  0  0  0  0  0  0  0
    5.3655    3.0406    4.4863 O   0  0  0  0  0  0  0  0  0  0  0  0
    5.7907    8.8281    1.8493 C   0  0  2  0  0  0  0  0  0  0  0  0
    5.6824    9.2224    3.2164 O   0  0  0  0  0  0  0  0  0  0  0  0
   11.7018    1.2780    6.4949 C   0  0  2  0  0  0  0  0  0  0  0  0
   10.6885    0.6294    7.3270 O   0  0  0  0  0  0  0  0  0  0  0  0
    7.2169   -0.2271    4.4127 C   0  0  2  0  0  0  0  0  0  0  0  0
    6.2329    0.8195    4.6384 O   0  0  0  0  0  0  0  0  0  0  0  0
    3.7320    3.1547    2.6463 C   0  0  0  0  0  0  0  0  0  0  0  0
    3.4587    3.8464    1.4316 O   0  0  0  0  0  0  0  0  0  0  0  0
    4.9066    7.5526    1.5780 C   0  0  1  0  0  0  0  0  0  0  0  0
    5.4516    6.4868    2.4367 O   0  0  0  0  0  0  0  0  0  0  0  0
   13.0354    0.6085    6.7337 C   0  0  0  0  0  0  0  0  0  0  0  0
   14.0182    1.1750    5.9017 O   0  0  0  0  0  0  0  0  0  0  0  0
    6.5057   -1.6047    4.0779 C   0  0  1  0  0  0  0  0  0  0  0  0
    5.9066   -1.5482    2.7804 O   0  0  0  0  0  0  0  0  0  0  0  0
    3.3589    7.7617    1.8769 C   0  0  0  0  0  0  0  0  0  0  0  0
    2.6491    8.6984    0.9629 N   0  0  0  0  0  0  0  0  0  0  0  0
  1  2  1  6  0  0  0
  1  7  1  0  0  0  0
  1 30  1  0  0  0  0
  3  4  1  1  0  0  0
  3  9  1  0  0  0  0
  3 39  1  0  0  0  0
  5 10  1  0  0  0  0
  5 26  1  0  0  0  0
  5 32  1  6  0  0  0
  6 12  1  0  0  0  0
  6 36  1  0  0  0  0
  6 19  1  1  0  0  0
  7  8  1  6  0  0  0
  7 14  1  0  0  0  0
  9 16  1  0  0  0  0
 10 11  1  1  0  0  0
 10 18  1  0  0  0  0
 12 13  1  1  0  0  0
 12 20  1  0  0  0  0
 14 15  1  1  0  0  0
 14 22  1  0  0  0  0
 16 17  1  1  0  0  0
 16 24  1  0  0  0  0
 18 19  1  1  0  0  0
 18 25  1  0  0  0  0
 20 21  1  6  0  0  0
 20 27  1  0  0  0  0
 22 23  1  6  0  0  0
 22 29  1  0  0  0  0
 24  2  1  6  0  0  0
 24 31  1  0  0  0  0
 25 26  1  0  0  0  0
 25 33  1  6  0  0  0
 27 28  1  1  0  0  0
 27 35  1  0  0  0  0
 29 30  1  0  0  0  0
 29 37  1  1  0  0  0
 31 32  1  1  0  0  0
 31 39  1  0  0  0  0
 33 34  1  0  0  0  0
 35 36  1  0  0  0  0
 35 41  1  1  0  0  0
 37 38  1  0  0  0  0
 39 40  1  6  0  0  0
 41 42  1  0  0  0  0
M  END
>  <CHROM.1>
-147.63728558,-71.45035935,162.27541780,-177.48637934,-60.15719611,-60.65709145
92.12197180,55.25485947,67.76452585,7.70672664,3.01181623,4.19610038,-1.03192204
-0.52327594,-0.19137843

>  <Name>
ligand

>  <RI>
0

>  <Rbt.Current_Directory>
/home/itssahil/PROJECTS/Mol_Feturizer/Test_systems_manuscript/rnas/2o3w

>  <Rbt.Executable>
rbdock ($Id: //depot/dev/client3/rdock/2013.1/src/exe/rbdock.cxx#4 $)

>  <Rbt.Library>
libRbt.so (2013.1, Build901 2013/11/27)

>  <Rbt.Parameter_File>
/export/apps/rDock/src/rDock_2013.1_src/data/scripts/dock_solv.prm

>  <Rbt.Receptor>
prm/pocket_docking_3.prm

>  <SCORE>
-6.31685

>  <SCORE.INTER>
0.527102

>  <SCORE.INTER.CONST>
1

>  <SCORE.INTER.POLAR>
0

>  <SCORE.INTER.ROT>
9

>  <SCORE.INTER.SOLV>
10.9131

>  <SCORE.INTER.VDW>
-12.8863

>  <SCORE.INTER.norm>
0.0125501

>  <SCORE.INTRA>
-6.84395

>  <SCORE.INTRA.DIHEDRAL>
-17.2902

>  <SCORE.INTRA.DIHEDRAL.0>
27.8999

>  <SCORE.INTRA.POLAR>
0

>  <SCORE.INTRA.POLAR.0>
0

>  <SCORE.INTRA.REPUL>
0

>  <SCORE.INTRA.REPUL.0>
0

>  <SCORE.INTRA.SOLV>
-1.14448

>  <SCORE.INTRA.SOLV.lig_0>
-104.479

>  <SCORE.INTRA.VDW>
2.37337

>  <SCORE.INTRA.VDW.0>
-6.17816

>  <SCORE.INTRA.norm>
-0.162951

>  <SCORE.RESTR>
0

>  <SCORE.RESTR.CAVITY>
0

>  <SCORE.RESTR.norm>
0

>  <SCORE.SYSTEM>
0

>  <SCORE.SYSTEM.CONST>
0

>  <SCORE.SYSTEM.DIHEDRAL>
0

>  <SCORE.SYSTEM.SOLV>
0

>  <SCORE.SYSTEM.norm>
0

>  <SCORE.heavy>
42

>  <SCORE.norm>
-0.150401

>  <RMSD>
4.785

$$$$
ligand
 OpenBabel02271912133D
libRbt.so/2013.1/901 2013/11/27
 42 45  0  0  0  0  0  0  0  0999 V2000
    9.2647    1.0255    7.2295 C   0  0  2  0  0  0  0  0  0  0  0  0
    8.7384    0.6943    5.9332 O   0  0  0  0  0  0  0  0  0  0  0  0
    7.5705   -3.1065    4.2050 C   0  0  2  0  0  0  0  0  0  0  0  0
    6.8680   -4.3969    3.9374 N   0  0  0  0  0  0  0  0  0  0  0  0
    6.4909    1.9008    4.3583 C   0  0  1  0  0  0  0  0  0  0  0  0
    6.9023    5.7889    2.2043 C   0  0  1  0  0  0  0  0  0  0  0  0
    9.2215    2.5781    7.3550 C   0  0  2  0  0  0  0  0  0  0  0  0
    7.9058    3.1363    6.9974 N   0  0  0  0  0  0  0  0  0  0  0  0
    8.2989   -3.1300    5.6089 C   0  0  0  0  0  0  0  0  0  0  0  0
    7.0320    2.0841    2.9077 C   0  0  2  0  0  0  0  0  0  0  0  0
    8.4769    2.0461    2.8084 O   0  0  0  0  0  0  0  0  0  0  0  0
    7.7997    7.0042    2.6364 C   0  0  2  0  0  0  0  0  0  0  0  0
    7.7638    7.1938    4.1175 N   0  0  0  0  0  0  0  0  0  0  0  0
   10.2581    3.2667    6.4482 C   0  0  1  0  0  0  0  0  0  0  0  0
   10.2103    4.6835    6.6248 O   0  0  0  0  0  0  0  0  0  0  0  0
    9.0379   -1.7550    5.8234 C   0  0  2  0  0  0  0  0  0  0  0  0
    9.7476   -1.7475    7.1310 N   0  0  0  0  0  0  0  0  0  0  0  0
    6.3755    3.4073    2.5107 C   0  0  2  0  0  0  0  0  0  0  0  0
    7.2211    4.5513    2.8526 O   0  0  0  0  0  0  0  0  0  0  0  0
    7.3044    8.3241    1.8751 C   0  0  1  0  0  0  0  0  0  0  0  0
    7.7071    8.2430    0.4894 O   0  0  0  0  0  0  0  0  0  0  0  0
   11.6655    2.7067    6.7562 C   0  0  2  0  0  0  0  0  0  0  0  0
   12.6285    3.3391    5.9457 O   0  0  0  0  0  0  0  0  0  0  0  0
    8.0102   -0.5563    5.7711 C   0  0  2  0  0  0  0  0  0  0  0  0
    5.0359    3.4594    3.2646 C   0  0  2  0  0  0  0  0  0  0  0  0
    5.3109    2.7306    4.4586 O   0  0  0  0  0  0  0  0  0  0  0  0
    5.7182    8.5335    1.9610 C   0  0  2  0  0  0  0  0  0  0  0  0
    5.3990    8.8590    3.3132 O   0  0  0  0  0  0  0  0  0  0  0  0
   11.6649    1.1609    6.5106 C   0  0  2  0  0  0  0  0  0  0  0  0
   10.6516    0.5290    7.3553 O   0  0  0  0  0  0  0  0  0  0  0  0
    7.2184   -0.5036    4.4461 C   0  0  2  0  0  0  0  0  0  0  0  0
    6.2096    0.5246    4.6446 O   0  0  0  0  0  0  0  0  0  0  0  0
    3.8247    2.8438    2.4976 C   0  0  0  0  0  0  0  0  0  0  0  0
    4.0784    1.4648    2.2468 O   0  0  0  0  0  0  0  0  0  0  0  0
    4.9601    7.2240    1.5218 C   0  0  1  0  0  0  0  0  0  0  0  0
    5.4466    6.1527    2.4083 O   0  0  0  0  0  0  0  0  0  0  0  0
   13.0066    0.5264    6.7951 C   0  0  0  0  0  0  0  0  0  0  0  0
   13.9823    1.0439    5.9236 O   0  0  0  0  0  0  0  0  0  0  0  0
    6.5404   -1.9078    4.1556 C   0  0  1  0  0  0  0  0  0  0  0  0
    5.9357   -1.9050    2.8595 O   0  0  0  0  0  0  0  0  0  0  0  0
    3.3760    7.3326    1.6091 C   0  0  0  0  0  0  0  0  0  0  0  0
    2.8157    7.4590    2.9827 N   0  0  0  0  0  0  0  0  0  0  0  0
  1  2  1  6  0  0  0
  1  7  1  0  0  0  0
  1 30  1  0  0  0  0
  3  4  1  1  0  0  0
  3  9  1  0  0  0  0
  3 39  1  0  0  0  0
  5 10  1  0  0  0  0
  5 26  1  0  0  0  0
  5 32  1  6  0  0  0
  6 12  1  0  0  0  0
  6 36  1  0  0  0  0
  6 19  1  1  0  0  0
  7  8  1  6  0  0  0
  7 14  1  0  0  0  0
  9 16  1  0  0  0  0
 10 11  1  1  0  0  0
 10 18  1  0  0  0  0
 12 13  1  1  0  0  0
 12 20  1  0  0  0  0
 14 15  1  1  0  0  0
 14 22  1  0  0  0  0
 16 17  1  1  0  0  0
 16 24  1  0  0  0  0
 18 19  1  1  0  0  0
 18 25  1  0  0  0  0
 20 21  1  6  0  0  0
 20 27  1  0  0  0  0
 22 23  1  6  0  0  0
 22 29  1  0  0  0  0
 24  2  1  6  0  0  0
 24 31  1  0  0  0  0
 25 26  1  0  0  0  0
 25 33  1  6  0  0  0
 27 28  1  1  0  0  0
 27 35  1  0  0  0  0
 29 30  1  0  0  0  0
 29 37  1  1  0  0  0
 31 32  1  1  0  0  0
 31 39  1  0  0  0  0
 33 34  1  0  0  0  0
 35 36  1  0  0  0  0
 35 41  1  1  0  0  0
 37 38  1  0  0  0  0
 39 40  1  6  0  0  0
 41 42  1  0  0  0  0
M  END
>  <CHROM.1>
-147.90917905,-72.57526654,162.92829209,177.90430710,61.09967845,-62.58489893
87.78459579,53.54443364,-66.97477693,7.71742848,2.70435214,4.31245159,-1.06196815
-0.50729855,-0.17252414

>  <Name>
ligand

>  <RI>
0

>  <Rbt.Current_Directory>
/home/itssahil/PROJECTS/Mol_Feturizer/Test_systems_manuscript/rnas/2o3w

>  <Rbt.Executable>
rbdock ($Id: //depot/dev/client3/rdock/2013.1/src/exe/rbdock.cxx#4 $)

>  <Rbt.Library>
libRbt.so (2013.1, Build901 2013/11/27)

>  <Rbt.Parameter_File>
/export/apps/rDock/src/rDock_2013.1_src/data/scripts/dock_solv.prm

>  <Rbt.Receptor>
prm/pocket_docking_3.prm

>  <SCORE>
-4.86079

>  <SCORE.INTER>
1.71335

>  <SCORE.INTER.CONST>
1

>  <SCORE.INTER.POLAR>
0

>  <SCORE.INTER.ROT>
9

>  <SCORE.INTER.SOLV>
12.0971

>  <SCORE.INTER.VDW>
-12.4901

>  <SCORE.INTER.norm>
0.0407941

>  <SCORE.INTRA>
-6.57415

>  <SCORE.INTRA.DIHEDRAL>
-18.0666

>  <SCORE.INTRA.DIHEDRAL.0>
27.8999

>  <SCORE.INTRA.POLAR>
0

>  <SCORE.INTRA.POLAR.0>
0

>  <SCORE.INTRA.REPUL>
0

>  <SCORE.INTRA.REPUL.0>
0

>  <SCORE.INTRA.SOLV>
1.0073

>  <SCORE.INTRA.SOLV.lig_0>
-104.479

>  <SCORE.INTRA.VDW>
1.95552

>  <SCORE.INTRA.VDW.0>
-6.17816

>  <SCORE.INTRA.norm>
-0.156527

>  <SCORE.RESTR>
0

>  <SCORE.RESTR.CAVITY>
0

>  <SCORE.RESTR.norm>
0

>  <SCORE.SYSTEM>
0

>  <SCORE.SYSTEM.CONST>
0

>  <SCORE.SYSTEM.DIHEDRAL>
0

>  <SCORE.SYSTEM.SOLV>
0

>  <SCORE.SYSTEM.norm>
0

>  <SCORE.heavy>
42

>  <SCORE.norm>
-0.115733

>  <RMSD>
4.793

$$$$
ligand
 OpenBabel02271912133D
libRbt.so/2013.1/901 2013/11/27
 42 45  0  0  0  0  0  0  0  0999 V2000
   10.3493   -1.4956    5.5028 C   0  0  2  0  0  0  0  0  0  0  0  0
    9.8712   -0.9613    4.2565 O   0  0  0  0  0  0  0  0  0  0  0  0
    7.0925   -2.3515    1.2328 C   0  0  2  0  0  0  0  0  0  0  0  0
    5.8732   -2.8754    0.5479 N   0  0  0  0  0  0  0  0  0  0  0  0
    7.1397    1.9010    3.2184 C   0  0  1  0  0  0  0  0  0  0  0  0
    6.5269    6.2132    2.6490 C   0  0  1  0  0  0  0  0  0  0  0  0
    9.4204   -0.9385    6.6230 C   0  0  2  0  0  0  0  0  0  0  0  0
    7.9916   -1.1214    6.3134 N   0  0  0  0  0  0  0  0  0  0  0  0
    7.7024   -3.4259    2.2205 C   0  0  0  0  0  0  0  0  0  0  0  0
    6.7141    2.8456    4.3834 C   0  0  2  0  0  0  0  0  0  0  0  0
    5.3028    2.7849    4.7056 O   0  0  0  0  0  0  0  0  0  0  0  0
    6.7927    7.2362    3.8116 C   0  0  2  0  0  0  0  0  0  0  0  0
    5.6308    7.2926    4.7485 N   0  0  0  0  0  0  0  0  0  0  0  0
    9.6339    0.5673    6.8640 C   0  0  1  0  0  0  0  0  0  0  0  0
    8.7923    1.0257    7.9235 O   0  0  0  0  0  0  0  0  0  0  0  0
    8.9942   -2.8252    2.8935 C   0  0  2  0  0  0  0  0  0  0  0  0
    9.6036   -3.8168    3.8203 N   0  0  0  0  0  0  0  0  0  0  0  0
    7.2189    4.1953    3.8710 C   0  0  2  0  0  0  0  0  0  0  0  0
    6.1984    4.8877    3.0836 O   0  0  0  0  0  0  0  0  0  0  0  0
    7.0985    8.6793    3.1865 C   0  0  1  0  0  0  0  0  0  0  0  0
    8.4222    8.6662    2.6064 O   0  0  0  0  0  0  0  0  0  0  0  0
   11.1250    0.8337    7.1721 C   0  0  2  0  0  0  0  0  0  0  0  0
   11.3343    2.2060    7.4119 O   0  0  0  0  0  0  0  0  0  0  0  0
    8.6462   -1.5033    3.6856 C   0  0  2  0  0  0  0  0  0  0  0  0
    8.4643    3.8884    3.0224 C   0  0  2  0  0  0  0  0  0  0  0  0
    8.1823    2.5942    2.4949 O   0  0  0  0  0  0  0  0  0  0  0  0
    6.0302    9.1144    2.0743 C   0  0  2  0  0  0  0  0  0  0  0  0
    4.7913    9.3587    2.7390 O   0  0  0  0  0  0  0  0  0  0  0  0
   11.9913    0.3450    5.9637 C   0  0  2  0  0  0  0  0  0  0  0  0
   11.7495   -1.0785    5.7290 O   0  0  0  0  0  0  0  0  0  0  0  0
    7.9926   -0.4252    2.7937 C   0  0  2  0  0  0  0  0  0  0  0  0
    7.5775    0.6267    3.7080 O   0  0  0  0  0  0  0  0  0  0  0  0
    9.8128    3.8930    3.8070 C   0  0  0  0  0  0  0  0  0  0  0  0
    9.7372    2.9572    4.8781 O   0  0  0  0  0  0  0  0  0  0  0  0
    5.8560    7.9786    0.9965 C   0  0  1  0  0  0  0  0  0  0  0  0
    5.4541    6.7700    1.7369 O   0  0  0  0  0  0  0  0  0  0  0  0
   13.4706    0.5622    6.1833 C   0  0  0  0  0  0  0  0  0  0  0  0
   13.7534    1.9385    6.2534 O   0  0  0  0  0  0  0  0  0  0  0  0
    6.7423   -1.0302    2.0280 C   0  0  1  0  0  0  0  0  0  0  0  0
    6.2303   -0.0792    1.0904 O   0  0  0  0  0  0  0  0  0  0  0  0
    4.7855    8.3140   -0.1306 C   0  0  0  0  0  0  0  0  0  0  0  0
    5.1237    9.4619   -1.0163 N   0  0  0  0  0  0  0  0  0  0  0  0
  1  2  1  6  0  0  0
  1  7  1  0  0  0  0
  1 30  1  0  0  0  0
  3  4  1  1  0  0  0
  3  9  1  0  0  0  0
  3 39  1  0  0  0  0
  5 10  1  0  0  0  0
  5 26  1  0  0  0  0
  5 32  1  1  0  0  0
  6 12  1  0  0  0  0
  6 36  1  0  0  0  0
  6 19  1  1  0  0  0
  7  8  1  6  0  0  0
  7 14  1  0  0  0  0
  9 16  1  0  0  0  0
 10 11  1  6  0  0  0
 10 18  1  0  0  0  0
 12 13  1  1  0  0  0
 12 20  1  0  0  0  0
 14 15  1  1  0  0  0
 14 22  1  0  0  0  0
 16 17  1  1  0  0  0
 16 24  1  0  0  0  0
 18 19  1  6  0  0  0
 18 25  1  0  0  0  0
 20 21  1  6  0  0  0
 20 27  1  0  0  0  0
 22 23  1  6  0  0  0
 22 29  1  0  0  0  0
 24  2  1  6  0  0  0
 24 31  1  0  0  0  0
 25 26  1  0  0  0  0
 25 33  1  1  0  0  0
 27 28  1  1  0  0  0
 27 35  1  0  0  0  0
 29 30  1  0  0  0  0
 29 37  1  1  0  0  0
 31 32  1  1  0  0  0
 31 39  1  0  0  0  0
 33 34  1  0  0  0  0
 35 36  1  0  0  0  0
 35 41  1  6  0  0  0
 37 38  1  0  0  0  0
 39 40  1  6  0  0  0
 41 42  1  0  0  0  0
M  END
>  <CHROM.1>
-74.27850221,-82.74201523,174.92406879,-61.30681329,56.99893259,-65.05993613
168.98580491,178.55614436,64.89019399,8.13747141,2.48739535,3.75934281,-1.02023168
-0.77578304,0.10918749

>  <Name>
ligand

>  <RI>
0

>  <Rbt.Current_Directory>
/home/itssahil/PROJECTS/Mol_Feturizer/Test_systems_manuscript/rnas/2o3w

>  <Rbt.Executable>
rbdock ($Id: //depot/dev/client3/rdock/2013.1/src/exe/rbdock.cxx#4 $)

>  <Rbt.Library>
libRbt.so (2013.1, Build901 2013/11/27)

>  <Rbt.Parameter_File>
/export/apps/rDock/src/rDock_2013.1_src/data/scripts/dock_solv.prm

>  <Rbt.Receptor>
prm/pocket_docking_4.prm

>  <SCORE>
-7.96231

>  <SCORE.INTER>
2.50214

>  <SCORE.INTER.CONST>
1

>  <SCORE.INTER.POLAR>
0

>  <SCORE.INTER.ROT>
9

>  <SCORE.INTER.SOLV>
14.4419

>  <SCORE.INTER.VDW>
-12.7459

>  <SCORE.INTER.norm>
0.0595747

>  <SCORE.INTRA>
-10.4644

>  <SCORE.INTRA.DIHEDRAL>
-23.6092

>  <SCORE.INTRA.DIHEDRAL.0>
27.8999

>  <SCORE.INTRA.POLAR>
0

>  <SCORE.INTRA.POLAR.0>
0

>  <SCORE.INTRA.REPUL>
0.0100241

>  <SCORE.INTRA.REPUL.0>
0

>  <SCORE.INTRA.SOLV>
-0.214879

>  <SCORE.INTRA.SOLV.lig_0>
-104.479

>  <SCORE.INTRA.VDW>
1.39748

>  <SCORE.INTRA.VDW.0>
-6.17816

>  <SCORE.INTRA.norm>
-0.249154

>  <SCORE.RESTR>
0

>  <SCORE.RESTR.CAVITY>
0

>  <SCORE.RESTR.norm>
0

>  <SCORE.SYSTEM>
0

>  <SCORE.SYSTEM.CONST>
0

>  <SCORE.SYSTEM.DIHEDRAL>
0

>  <SCORE.SYSTEM.SOLV>
0

>  <SCORE.SYSTEM.norm>
0

>  <SCORE.heavy>
42

>  <SCORE.norm>
-0.189579

>  <RMSD>
4.966

$$$$
ligand
 OpenBabel02271912133D
libRbt.so/2013.1/901 2013/11/27
 42 45  0  0  0  0  0  0  0  0999 V2000
    9.2755    0.2746    3.2284 C   0  0  2  0  0  0  0  0  0  0  0  0
    8.9515   -0.8887    2.4481 O   0  0  0  0  0  0  0  0  0  0  0  0
    5.2337   -2.1892    0.6363 C   0  0  2  0  0  0  0  0  0  0  0  0
    3.8130   -2.6025    0.4330 N   0  0  0  0  0  0  0  0  0  0  0  0
    6.0968    2.1345    1.9503 C   0  0  1  0  0  0  0  0  0  0  0  0
    4.8978    6.4199    1.5369 C   0  0  1  0  0  0  0  0  0  0  0  0
   10.8259    0.4275    3.1953 C   0  0  2  0  0  0  0  0  0  0  0  0
   11.3701    0.3583    1.8280 N   0  0  0  0  0  0  0  0  0  0  0  0
    6.0069   -3.2225    1.5507 C   0  0  0  0  0  0  0  0  0  0  0  0
    5.9920    3.1724    3.1091 C   0  0  2  0  0  0  0  0  0  0  0  0
    4.7740    3.0665    3.8866 O   0  0  0  0  0  0  0  0  0  0  0  0
    4.9801    7.4079    2.7558 C   0  0  2  0  0  0  0  0  0  0  0  0
    3.8834    7.1408    3.7340 N   0  0  0  0  0  0  0  0  0  0  0  0
   11.5384   -0.6652    4.0134 C   0  0  1  0  0  0  0  0  0  0  0  0
   12.9524   -0.4631    3.9879 O   0  0  0  0  0  0  0  0  0  0  0  0
    7.5003   -2.7458    1.7093 C   0  0  2  0  0  0  0  0  0  0  0  0
    8.2625   -3.7047    2.5538 N   0  0  0  0  0  0  0  0  0  0  0  0
    6.1803    4.4862    2.3490 C   0  0  2  0  0  0  0  0  0  0  0  0
    4.9018    5.0317    1.8924 O   0  0  0  0  0  0  0  0  0  0  0  0
    4.9178    8.9162    2.2191 C   0  0  1  0  0  0  0  0  0  0  0  0
    6.1796    9.2421    1.5940 O   0  0  0  0  0  0  0  0  0  0  0  0
   10.9941   -0.6635    5.4601 C   0  0  2  0  0  0  0  0  0  0  0  0
   11.6484   -1.6475    6.2269 O   0  0  0  0  0  0  0  0  0  0  0  0
    7.5595   -1.3060    2.3568 C   0  0  2  0  0  0  0  0  0  0  0  0
    7.1033    4.1615    1.1623 C   0  0  2  0  0  0  0  0  0  0  0  0
    6.7809    2.8046    0.8667 O   0  0  0  0  0  0  0  0  0  0  0  0
    3.7252    9.1566    1.1763 C   0  0  2  0  0  0  0  0  0  0  0  0
    2.4974    9.0699    1.8984 O   0  0  0  0  0  0  0  0  0  0  0  0
    9.4513   -0.9247    5.4254 C   0  0  2  0  0  0  0  0  0  0  0  0
    8.7964    0.1032    4.6165 O   0  0  0  0  0  0  0  0  0  0  0  0
    6.7755   -0.2516    1.5451 C   0  0  2  0  0  0  0  0  0  0  0  0
    6.7815    0.9466    2.3689 O   0  0  0  0  0  0  0  0  0  0  0  0
    8.6278    4.3263    1.4500 C   0  0  0  0  0  0  0  0  0  0  0  0
    9.0165    3.4085    2.4676 O   0  0  0  0  0  0  0  0  0  0  0  0
    3.7618    8.0752    0.0311 C   0  0  1  0  0  0  0  0  0  0  0  0
    3.6828    6.7660    0.7019 O   0  0  0  0  0  0  0  0  0  0  0  0
    8.8319   -0.9335    6.8039 C   0  0  0  0  0  0  0  0  0  0  0  0
    9.0013    0.3201    7.4195 O   0  0  0  0  0  0  0  0  0  0  0  0
    5.2917   -0.7492    1.2873 C   0  0  1  0  0  0  0  0  0  0  0  0
    4.6137    0.1542    0.4100 O   0  0  0  0  0  0  0  0  0  0  0  0
    2.5891    8.2191   -1.0332 C   0  0  0  0  0  0  0  0  0  0  0  0
    1.2125    8.0171   -0.5032 N   0  0  0  0  0  0  0  0  0  0  0  0
  1  2  1  6  0  0  0
  1  7  1  0  0  0  0
  1 30  1  0  0  0  0
  3  4  1  1  0  0  0
  3  9  1  0  0  0  0
  3 39  1  0  0  0  0
  5 10  1  0  0  0  0
  5 26  1  0  0  0  0
  5 32  1  1  0  0  0
  6 12  1  0  0  0  0
  6 36  1  0  0  0  0
  6 19  1  1  0  0  0
  7  8  1  6  0  0  0
  7 14  1  0  0  0  0
  9 16  1  0  0  0  0
 10 11  1  6  0  0  0
 10 18  1  0  0  0  0
 12 13  1  1  0  0  0
 12 20  1  0  0  0  0
 14 15  1  1  0  0  0
 14 22  1  0  0  0  0
 16 17  1  1  0  0  0
 16 24  1  0  0  0  0
 18 19  1  6  0  0  0
 18 25  1  0  0  0  0
 20 21  1  6  0  0  0
 20 27  1  0  0  0  0
 22 23  1  1  0  0  0
 22 29  1  0  0  0  0
 24  2  1  6  0  0  0
 24 31  1  0  0  0  0
 25 26  1  0  0  0  0
 25 33  1  1  0  0  0
 27 28  1  1  0  0  0
 27 35  1  0  0  0  0
 29 30  1  0  0  0  0
 29 37  1  1  0  0  0
 31 32  1  1  0  0  0
 31 39  1  0  0  0  0
 33 34  1  0  0  0  0
 35 36  1  0  0  0  0
 35 41  1  6  0  0  0
 37 38  1  0  0  0  0
 39 40  1  6  0  0  0
 41 42  1  0  0  0  0
M  END
>  <CHROM.1>
177.28524218,-168.49069006,161.80941948,-73.10259218,62.83046466,61.78051913
-177.77521885,168.16822379,-63.87793995,6.85240150,2.41159342,2.47038618
-0.90925437,-0.59853543,0.13064972

>  <Name>
ligand

>  <RI>
0

>  <Rbt.Current_Directory>
/home/itssahil/PROJECTS/Mol_Feturizer/Test_systems_manuscript/rnas/2o3w

>  <Rbt.Executable>
rbdock ($Id: //depot/dev/client3/rdock/2013.1/src/exe/rbdock.cxx#4 $)

>  <Rbt.Library>
libRbt.so (2013.1, Build901 2013/11/27)

>  <Rbt.Parameter_File>
/export/apps/rDock/src/rDock_2013.1_src/data/scripts/dock_solv.prm

>  <Rbt.Receptor>
prm/pocket_docking_4.prm

>  <SCORE>
-10.6359

>  <SCORE.INTER>
1.02962

>  <SCORE.INTER.CONST>
1

>  <SCORE.INTER.POLAR>
0

>  <SCORE.INTER.ROT>
9

>  <SCORE.INTER.SOLV>
18.769

>  <SCORE.INTER.VDW>
-15.1699

>  <SCORE.INTER.norm>
0.0245147

>  <SCORE.INTRA>
-11.6678

>  <SCORE.INTRA.DIHEDRAL>
-23.991

>  <SCORE.INTRA.DIHEDRAL.0>
27.8999

>  <SCORE.INTRA.POLAR>
0

>  <SCORE.INTRA.POLAR.0>
0

>  <SCORE.INTRA.REPUL>
0

>  <SCORE.INTRA.REPUL.0>
0

>  <SCORE.INTRA.SOLV>
-3.05917

>  <SCORE.INTRA.SOLV.lig_0>
-104.479

>  <SCORE.INTRA.VDW>
1.85726

>  <SCORE.INTRA.VDW.0>
-6.17816

>  <SCORE.INTRA.norm>
-0.277806

>  <SCORE.RESTR>
0.00232557

>  <SCORE.RESTR.CAVITY>
0.00232557

>  <SCORE.RESTR.norm>
5.53708e-05

>  <SCORE.SYSTEM>
0

>  <SCORE.SYSTEM.CONST>
0

>  <SCORE.SYSTEM.DIHEDRAL>
0

>  <SCORE.SYSTEM.SOLV>
0

>  <SCORE.SYSTEM.norm>
0

>  <SCORE.heavy>
42

>  <SCORE.norm>
-0.253236

>  <RMSD>
5.006

$$$$
ligand
 OpenBabel02271912133D
libRbt.so/2013.1/901 2013/11/27
 42 45  0  0  0  0  0  0  0  0999 V2000
    6.4252   -1.3898    4.1104 C   0  0  2  0  0  0  0  0  0  0  0  0
    6.9985   -1.3473    2.7925 O   0  0  0  0  0  0  0  0  0  0  0  0
   11.1738   -1.1997    3.9503 C   0  0  2  0  0  0  0  0  0  0  0  0
   12.6668   -1.2107    3.9121 N   0  0  0  0  0  0  0  0  0  0  0  0
    8.0802    2.1810    2.1901 C   0  0  1  0  0  0  0  0  0  0  0  0
    8.4175    5.6881    4.2816 C   0  0  1  0  0  0  0  0  0  0  0  0
    4.8902   -1.5906    3.9326 C   0  0  2  0  0  0  0  0  0  0  0  0
    4.5689   -2.7017    3.0200 N   0  0  0  0  0  0  0  0  0  0  0  0
   10.5784   -2.6015    3.5236 C   0  0  0  0  0  0  0  0  0  0  0  0
    9.1749    3.0535    2.8767 C   0  0  2  0  0  0  0  0  0  0  0  0
    9.1316    3.0216    4.3245 O   0  0  0  0  0  0  0  0  0  0  0  0
    7.3085    6.3581    5.1705 C   0  0  2  0  0  0  0  0  0  0  0  0
    6.6279    7.4633    4.4313 N   0  0  0  0  0  0  0  0  0  0  0  0
    4.1985   -0.3365    3.3671 C   0  0  1  0  0  0  0  0  0  0  0  0
    2.7904   -0.5515    3.2584 O   0  0  0  0  0  0  0  0  0  0  0  0
    9.0063   -2.5343    3.6052 C   0  0  2  0  0  0  0  0  0  0  0  0
    8.4120   -3.8438    3.2234 N   0  0  0  0  0  0  0  0  0  0  0  0
    8.9126    4.4174    2.2362 C   0  0  2  0  0  0  0  0  0  0  0  0
    7.9547    5.2024    3.0153 O   0  0  0  0  0  0  0  0  0  0  0  0
    7.9711    6.8955    6.5266 C   0  0  1  0  0  0  0  0  0  0  0  0
    8.2744    5.7672    7.3775 O   0  0  0  0  0  0  0  0  0  0  0  0
    4.5160    0.8782    4.2687 C   0  0  2  0  0  0  0  0  0  0  0  0
    3.8761    2.0315    3.7738 O   0  0  0  0  0  0  0  0  0  0  0  0
    8.4472   -1.4016    2.6564 C   0  0  2  0  0  0  0  0  0  0  0  0
    8.3772    4.1272    0.8239 C   0  0  2  0  0  0  0  0  0  0  0  0
    7.6950    2.8862    0.9878 O   0  0  0  0  0  0  0  0  0  0  0  0
    9.3035    7.7486    6.2725 C   0  0  2  0  0  0  0  0  0  0  0  0
    8.9187    8.9733    5.6494 O   0  0  0  0  0  0  0  0  0  0  0  0
    6.0666    1.0848    4.3196 C   0  0  2  0  0  0  0  0  0  0  0  0
    6.7081   -0.1280    4.8270 O   0  0  0  0  0  0  0  0  0  0  0  0
    9.0304   -0.0084    2.9789 C   0  0  2  0  0  0  0  0  0  0  0  0
    8.5599    0.8592    1.9111 O   0  0  0  0  0  0  0  0  0  0  0  0
    9.4692    4.0251   -0.2858 C   0  0  0  0  0  0  0  0  0  0  0  0
    8.8410    4.0114   -1.5641 O   0  0  0  0  0  0  0  0  0  0  0  0
   10.3026    6.9564    5.3471 C   0  0  1  0  0  0  0  0  0  0  0  0
    9.5648    6.6608    4.1068 O   0  0  0  0  0  0  0  0  0  0  0  0
    6.4693    2.2537    5.1887 C   0  0  0  0  0  0  0  0  0  0  0  0
    6.0146    3.4585    4.6221 O   0  0  0  0  0  0  0  0  0  0  0  0
   10.6153   -0.0677    2.9979 C   0  0  1  0  0  0  0  0  0  0  0  0
   11.1505    1.1815    3.4439 O   0  0  0  0  0  0  0  0  0  0  0  0
   11.6422    7.7461    5.0148 C   0  0  0  0  0  0  0  0  0  0  0  0
   12.5822    7.0556    4.0896 N   0  0  0  0  0  0  0  0  0  0  0  0
  1  2  1  6  0  0  0
  1  7  1  0  0  0  0
  1 30  1  0  0  0  0
  3  4  1  6  0  0  0
  3  9  1  0  0  0  0
  3 39  1  0  0  0  0
  5 10  1  0  0  0  0
  5 26  1  0  0  0  0
  5 32  1  6  0  0  0
  6 12  1  0  0  0  0
  6 36  1  0  0  0  0
  6 19  1  6  0  0  0
  7  8  1  6  0  0  0
  7 14  1  0  0  0  0
  9 16  1  0  0  0  0
 10 11  1  1  0  0  0
 10 18  1  0  0  0  0
 12 13  1  6  0  0  0
 12 20  1  0  0  0  0
 14 15  1  1  0  0  0
 14 22  1  0  0  0  0
 16 17  1  6  0  0  0
 16 24  1  0  0  0  0
 18 19  1  1  0  0  0
 18 25  1  0  0  0  0
 20 21  1  1  0  0  0
 20 27  1  0  0  0  0
 22 23  1  6  0  0  0
 22 29  1  0  0  0  0
 24  2  1  1  0  0  0
 24 31  1  0  0  0  0
 25 26  1  0  0  0  0
 25 33  1  6  0  0  0
 27 28  1  6  0  0  0
 27 35  1  0  0  0  0
 29 30  1  0  0  0  0
 29 37  1  1  0  0  0
 31 32  1  6  0  0  0
 31 39  1  0  0  0  0
 33 34  1  0  0  0  0
 35 36  1  0  0  0  0
 35 41  1  6  0  0  0
 37 38  1  0  0  0  0
 39 40  1  1  0  0  0
 41 42  1  0  0  0  0
M  END
>  <CHROM.1>
-169.40855407,45.08102635,70.01031714,-172.19890454,-169.01709548,-65.96853947
137.61119947,59.40553309,-177.18951987,8.11535142,2.44240764,3.61969843,1.82919471
-0.18832609,-2.92610281

>  <Name>
ligand

>  <RI>
0

>  <Rbt.Current_Directory>
/home/itssahil/PROJECTS/Mol_Feturizer/Test_systems_manuscript/rnas/2o3w

>  <Rbt.Executable>
rbdock ($Id: //depot/dev/client3/rdock/2013.1/src/exe/rbdock.cxx#4 $)

>  <Rbt.Library>
libRbt.so (2013.1, Build901 2013/11/27)

>  <Rbt.Parameter_File>
/export/apps/rDock/src/rDock_2013.1_src/data/scripts/dock_solv.prm

>  <Rbt.Receptor>
prm/pocket_docking_5.prm

>  <SCORE>
-10.6034

>  <SCORE.INTER>
-0.847568

>  <SCORE.INTER.CONST>
1

>  <SCORE.INTER.POLAR>
0

>  <SCORE.INTER.ROT>
9

>  <SCORE.INTER.SOLV>
14.8977

>  <SCORE.INTER.VDW>
-15.131

>  <SCORE.INTER.norm>
-0.0201802

>  <SCORE.INTRA>
-9.75583

>  <SCORE.INTRA.DIHEDRAL>
-19.07

>  <SCORE.INTRA.DIHEDRAL.0>
27.8999

>  <SCORE.INTRA.POLAR>
0

>  <SCORE.INTRA.POLAR.0>
0

>  <SCORE.INTRA.REPUL>
0

>  <SCORE.INTRA.REPUL.0>
0

>  <SCORE.INTRA.SOLV>
-2.31396

>  <SCORE.INTRA.SOLV.lig_0>
-104.479

>  <SCORE.INTRA.VDW>
0.936133

>  <SCORE.INTRA.VDW.0>
-6.17816

>  <SCORE.INTRA.norm>
-0.232282

>  <SCORE.RESTR>
0

>  <SCORE.RESTR.CAVITY>
0

>  <SCORE.RESTR.norm>
0

>  <SCORE.SYSTEM>
0

>  <SCORE.SYSTEM.CONST>
0

>  <SCORE.SYSTEM.DIHEDRAL>
0

>  <SCORE.SYSTEM.SOLV>
0

>  <SCORE.SYSTEM.norm>
0

>  <SCORE.heavy>
42

>  <SCORE.norm>
-0.252462

>  <RMSD>
5.021

$$$$
ligand
 OpenBabel02271912133D
libRbt.so/2013.1/901 2013/11/27
 42 45  0  0  0  0  0  0  0  0999 V2000
    9.1558   -3.0747    2.1213 C   0  0  2  0  0  0  0  0  0  0  0  0
   10.2401   -3.5672    2.9270 O   0  0  0  0  0  0  0  0  0  0  0  0
   13.7376   -1.6376    4.6123 C   0  0  2  0  0  0  0  0  0  0  0  0
   14.9980   -0.8518    4.7684 N   0  0  0  0  0  0  0  0  0  0  0  0
    9.2428    0.0030    3.5631 C   0  0  1  0  0  0  0  0  0  0  0  0
    6.8389    3.2834    5.3922 C   0  0  1  0  0  0  0  0  0  0  0  0
    7.9647   -4.0618    2.3088 C   0  0  2  0  0  0  0  0  0  0  0  0
    7.6804   -4.3390    3.7276 N   0  0  0  0  0  0  0  0  0  0  0  0
   13.9665   -2.9164    3.7101 C   0  0  0  0  0  0  0  0  0  0  0  0
    9.7619    1.0205    4.6242 C   0  0  2  0  0  0  0  0  0  0  0  0
    9.8045    0.4945    5.9735 O   0  0  0  0  0  0  0  0  0  0  0  0
    5.4884    3.0922    6.1723 C   0  0  2  0  0  0  0  0  0  0  0  0
    4.6537    2.0268    5.5404 N   0  0  0  0  0  0  0  0  0  0  0  0
    8.2204   -5.4213    1.6326 C   0  0  1  0  0  0  0  0  0  0  0  0
    7.0892   -6.2784    1.7956 O   0  0  0  0  0  0  0  0  0  0  0  0
   12.6117   -3.7135    3.6014 C   0  0  2  0  0  0  0  0  0  0  0  0
   12.7944   -4.9334    2.7696 N   0  0  0  0  0  0  0  0  0  0  0  0
    8.8079    2.1950    4.4011 C   0  0  2  0  0  0  0  0  0  0  0  0
    7.6179    2.0895    5.2458 O   0  0  0  0  0  0  0  0  0  0  0  0
    4.7024    4.4875    6.2185 C   0  0  1  0  0  0  0  0  0  0  0  0
    5.3667    5.3672    7.1533 O   0  0  0  0  0  0  0  0  0  0  0  0
    8.5505   -5.2001    0.1388 C   0  0  2  0  0  0  0  0  0  0  0  0
    8.7708   -6.4369   -0.4987 O   0  0  0  0  0  0  0  0  0  0  0  0
   11.4813   -2.8070    2.9719 C   0  0  2  0  0  0  0  0  0  0  0  0
    8.4368    2.1629    2.9090 C   0  0  2  0  0  0  0  0  0  0  0  0
    8.4977    0.7741    2.5928 O   0  0  0  0  0  0  0  0  0  0  0  0
    4.6121    5.1983    4.7852 C   0  0  2  0  0  0  0  0  0  0  0  0
    3.7389    4.4167    3.9709 O   0  0  0  0  0  0  0  0  0  0  0  0
    9.8160   -4.2862    0.0254 C   0  0  2  0  0  0  0  0  0  0  0  0
    9.5660   -3.0137    0.7022 O   0  0  0  0  0  0  0  0  0  0  0  0
   11.2410   -1.5077    3.7715 C   0  0  2  0  0  0  0  0  0  0  0  0
   10.3210   -0.7253    2.9615 O   0  0  0  0  0  0  0  0  0  0  0  0
    9.3761    2.9919    1.9791 C   0  0  0  0  0  0  0  0  0  0  0  0
    8.8203    3.0370    0.6684 O   0  0  0  0  0  0  0  0  0  0  0  0
    6.0376    5.2933    4.1211 C   0  0  1  0  0  0  0  0  0  0  0  0
    6.5470    3.9130    4.0463 O   0  0  0  0  0  0  0  0  0  0  0  0
   10.2082   -4.0114   -1.4079 C   0  0  0  0  0  0  0  0  0  0  0  0
   10.6388   -5.1981   -2.0289 O   0  0  0  0  0  0  0  0  0  0  0  0
   12.6078   -0.7303    3.9792 C   0  0  1  0  0  0  0  0  0  0  0  0
   12.4112    0.3905    4.8458 O   0  0  0  0  0  0  0  0  0  0  0  0
    6.0359    5.9575    2.6762 C   0  0  0  0  0  0  0  0  0  0  0  0
    5.6367    7.3910    2.6289 N   0  0  0  0  0  0  0  0  0  0  0  0
  1  2  1  1  0  0  0
  1  7  1  0  0  0  0
  1 30  1  0  0  0  0
  3  4  1  6  0  0  0
  3  9  1  0  0  0  0
  3 39  1  0  0  0  0
  5 10  1  0  0  0  0
  5 26  1  0  0  0  0
  5 32  1  6  0  0  0
  6 12  1  0  0  0  0
  6 36  1  0  0  0  0
  6 19  1  6  0  0  0
  7  8  1  1  0  0  0
  7 14  1  0  0  0  0
  9 16  1  0  0  0  0
 10 11  1  1  0  0  0
 10 18  1  0  0  0  0
 12 13  1  6  0  0  0
 12 20  1  0  0  0  0
 14 15  1  6  0  0  0
 14 22  1  0  0  0  0
 16 17  1  6  0  0  0
 16 24  1  0  0  0  0
 18 19  1  1  0  0  0
 18 25  1  0  0  0  0
 20 21  1  1  0  0  0
 20 27  1  0  0  0  0
 22 23  1  1  0  0  0
 22 29  1  0  0  0  0
 24  2  1  1  0  0  0
 24 31  1  0  0  0  0
 25 26  1  0  0  0  0
 25 33  1  6  0  0  0
 27 28  1  6  0  0  0
 27 35  1  0  0  0  0
 29 30  1  0  0  0  0
 29 37  1  6  0  0  0
 31 32  1  6  0  0  0
 31 39  1  0  0  0  0
 33 34  1  0  0  0  0
 35 36  1  0  0  0  0
 35 41  1  6  0  0  0
 37 38  1  0  0  0  0
 39 40  1  1  0  0  0
 41 42  1  0  0  0  0
M  END
>  <CHROM.1>
-178.19386221,-165.73888427,163.86271255,173.53150713,-171.76239348,-66.48174900
139.24391800,57.55260360,65.10876401,8.88946087,-0.22024631,3.16707148,1.08022303
0.33923504,-2.62891395

>  <Name>
ligand

>  <RI>
0

>  <Rbt.Current_Directory>
/home/itssahil/PROJECTS/Mol_Feturizer/Test_systems_manuscript/rnas/2o3w

>  <Rbt.Executable>
rbdock ($Id: //depot/dev/client3/rdock/2013.1/src/exe/rbdock.cxx#4 $)

>  <Rbt.Library>
libRbt.so (2013.1, Build901 2013/11/27)

>  <Rbt.Parameter_File>
/export/apps/rDock/src/rDock_2013.1_src/data/scripts/dock_solv.prm

>  <Rbt.Receptor>
prm/pocket_docking_7.prm

>  <SCORE>
-6.66714

>  <SCORE.INTER>
3.00763

>  <SCORE.INTER.CONST>
1

>  <SCORE.INTER.POLAR>
0

>  <SCORE.INTER.ROT>
9

>  <SCORE.INTER.SOLV>
11.2352

>  <SCORE.INTER.VDW>
-11.34

>  <SCORE.INTER.norm>
0.0716104

>  <SCORE.INTRA>
-9.67477

>  <SCORE.INTRA.DIHEDRAL>
-19.3582

>  <SCORE.INTRA.DIHEDRAL.0>
27.8999

>  <SCORE.INTRA.POLAR>
0

>  <SCORE.INTRA.POLAR.0>
0

>  <SCORE.INTRA.REPUL>
0.000322231

>  <SCORE.INTRA.REPUL.0>
0

>  <SCORE.INTRA.SOLV>
-5.14909

>  <SCORE.INTRA.SOLV.lig_0>
-104.479

>  <SCORE.INTRA.VDW>
2.57728

>  <SCORE.INTRA.VDW.0>
-6.17816

>  <SCORE.INTRA.norm>
-0.230352

>  <SCORE.RESTR>
0

>  <SCORE.RESTR.CAVITY>
0

>  <SCORE.RESTR.norm>
0

>  <SCORE.SYSTEM>
0

>  <SCORE.SYSTEM.CONST>
0

>  <SCORE.SYSTEM.DIHEDRAL>
0

>  <SCORE.SYSTEM.SOLV>
0

>  <SCORE.SYSTEM.norm>
0

>  <SCORE.heavy>
42

>  <SCORE.norm>
-0.158741

>  <RMSD>
5.126

$$$$
ligand
 OpenBabel02271912133D
libRbt.so/2013.1/901 2013/11/27
 42 45  0  0  0  0  0  0  0  0999 V2000
    6.3990    0.2851    1.0752 C   0  0  2  0  0  0  0  0  0  0  0  0
    5.8115    0.4705    2.3743 O   0  0  0  0  0  0  0  0  0  0  0  0
    6.9551    3.1658    5.5718 C   0  0  2  0  0  0  0  0  0  0  0  0
    7.2004    4.3960    6.3822 N   0  0  0  0  0  0  0  0  0  0  0  0
    3.4592    2.7833    2.6656 C   0  0  1  0  0  0  0  0  0  0  0  0
    1.6263    5.9511    0.1884 C   0  0  1  0  0  0  0  0  0  0  0  0
    5.6355    1.2228    0.0925 C   0  0  2  0  0  0  0  0  0  0  0  0
    5.5320    2.6034    0.5963 N   0  0  0  0  0  0  0  0  0  0  0  0
    7.8516    3.1486    4.2688 C   0  0  0  0  0  0  0  0  0  0  0  0
    1.9221    2.9222    2.4446 C   0  0  2  0  0  0  0  0  0  0  0  0
    1.3818    2.0006    1.4660 O   0  0  0  0  0  0  0  0  0  0  0  0
    1.5619    6.0997   -1.3745 C   0  0  2  0  0  0  0  0  0  0  0  0
    2.8268    5.6212   -2.0084 N   0  0  0  0  0  0  0  0  0  0  0  0
    4.1989    0.7396   -0.1789 C   0  0  1  0  0  0  0  0  0  0  0  0
    3.5513    1.6047   -1.1133 O   0  0  0  0  0  0  0  0  0  0  0  0
    7.5656    1.8209    3.4701 C   0  0  2  0  0  0  0  0  0  0  0  0
    8.4046    1.7644    2.2427 N   0  0  0  0  0  0  0  0  0  0  0  0
    1.8057    4.4059    2.0921 C   0  0  2  0  0  0  0  0  0  0  0  0
    1.9216    4.6271    0.6504 O   0  0  0  0  0  0  0  0  0  0  0  0
    1.2741    7.6308   -1.7486 C   0  0  1  0  0  0  0  0  0  0  0  0
   -0.1068    7.9336   -1.4478 O   0  0  0  0  0  0  0  0  0  0  0  0
    4.2333   -0.7187   -0.6900 C   0  0  2  0  0  0  0  0  0  0  0  0
    2.9264   -1.1706   -0.9591 O   0  0  0  0  0  0  0  0  0  0  0  0
    6.0392    1.7273    3.0735 C   0  0  2  0  0  0  0  0  0  0  0  0
    2.9364    5.1140    2.8572 C   0  0  2  0  0  0  0  0  0  0  0  0
    3.9543    4.1179    2.9201 O   0  0  0  0  0  0  0  0  0  0  0  0
    2.2294    8.6523   -0.9666 C   0  0  2  0  0  0  0  0  0  0  0  0
    3.5503    8.4864   -1.4805 O   0  0  0  0  0  0  0  0  0  0  0  0
    4.9195   -1.6217    0.3886 C   0  0  2  0  0  0  0  0  0  0  0  0
    6.2697   -1.1272    0.6574 O   0  0  0  0  0  0  0  0  0  0  0  0
    5.0976    1.7951    4.2959 C   0  0  2  0  0  0  0  0  0  0  0  0
    3.7565    1.8826    3.7406 O   0  0  0  0  0  0  0  0  0  0  0  0
    2.5525    5.6150    4.2840 C   0  0  0  0  0  0  0  0  0  0  0  0
    3.6325    6.3708    4.8237 O   0  0  0  0  0  0  0  0  0  0  0  0
    2.2061    8.3608    0.5815 C   0  0  1  0  0  0  0  0  0  0  0  0
    2.6170    6.9550    0.7395 O   0  0  0  0  0  0  0  0  0  0  0  0
    5.0020   -3.0705   -0.0330 C   0  0  0  0  0  0  0  0  0  0  0  0
    5.6058   -3.8369    0.9806 O   0  0  0  0  0  0  0  0  0  0  0  0
    5.4277    3.0749    5.1728 C   0  0  1  0  0  0  0  0  0  0  0  0
    4.6613    3.0567    6.3802 O   0  0  0  0  0  0  0  0  0  0  0  0
    3.1556    9.3101    1.4336 C   0  0  0  0  0  0  0  0  0  0  0  0
    4.6069    9.2215    1.1135 N   0  0  0  0  0  0  0  0  0  0  0  0
  1  2  1  1  0  0  0
  1  7  1  0  0  0  0
  1 30  1  0  0  0  0
  3  4  1  6  0  0  0
  3  9  1  0  0  0  0
  3 39  1  0  0  0  0
  5 10  1  0  0  0  0
  5 26  1  0  0  0  0
  5 32  1  1  0  0  0
  6 12  1  0  0  0  0
  6 36  1  0  0  0  0
  6 19  1  6  0  0  0
  7  8  1  1  0  0  0
  7 14  1  0  0  0  0
  9 16  1  0  0  0  0
 10 11  1  6  0  0  0
 10 18  1  0  0  0  0
 12 13  1  6  0  0  0
 12 20  1  0  0  0  0
 14 15  1  6  0  0  0
 14 22  1  0  0  0  0
 16 17  1  6  0  0  0
 16 24  1  0  0  0  0
 18 19  1  6  0  0  0
 18 25  1  0  0  0  0
 20 21  1  1  0  0  0
 20 27  1  0  0  0  0
 22 23  1  1  0  0  0
 22 29  1  0  0  0  0
 24  2  1  1  0  0  0
 24 31  1  0  0  0  0
 25 26  1  0  0  0  0
 25 33  1  1  0  0  0
 27 28  1  6  0  0  0
 27 35  1  0  0  0  0
 29 30  1  0  0  0  0
 29 37  1  6  0  0  0
 31 32  1  6  0  0  0
 31 39  1  0  0  0  0
 33 34  1  0  0  0  0
 35 36  1  0  0  0  0
 35 41  1  1  0  0  0
 37 38  1  0  0  0  0
 39 40  1  1  0  0  0
 41 42  1  0  0  0  0
M  END
>  <CHROM.1>
-70.45162561,-67.63830987,170.89620153,-171.72087984,-173.88578154,-179.03038536
-45.95159063,-167.96599980,-61.71857225,4.07683210,3.39511299,1.58935869
0.77500503,0.99702042,-2.62691770

>  <Name>
ligand

>  <RI>
0

>  <Rbt.Current_Directory>
/home/itssahil/PROJECTS/Mol_Feturizer/Test_systems_manuscript/rnas/2o3w

>  <Rbt.Executable>
rbdock ($Id: //depot/dev/client3/rdock/2013.1/src/exe/rbdock.cxx#4 $)

>  <Rbt.Library>
libRbt.so (2013.1, Build901 2013/11/27)

>  <Rbt.Parameter_File>
/export/apps/rDock/src/rDock_2013.1_src/data/scripts/dock_solv.prm

>  <Rbt.Receptor>
prm/pocket_docking_7.prm

>  <SCORE>
-13.2298

>  <SCORE.INTER>
-4.78762

>  <SCORE.INTER.CONST>
1

>  <SCORE.INTER.POLAR>
0

>  <SCORE.INTER.ROT>
9

>  <SCORE.INTER.SOLV>
11.331

>  <SCORE.INTER.VDW>
-16.5687

>  <SCORE.INTER.norm>
-0.113991

>  <SCORE.INTRA>
-8.44219

>  <SCORE.INTRA.DIHEDRAL>
-24.4538

>  <SCORE.INTRA.DIHEDRAL.0>
27.8999

>  <SCORE.INTRA.POLAR>
0

>  <SCORE.INTRA.POLAR.0>
0

>  <SCORE.INTRA.REPUL>
0.00419223

>  <SCORE.INTRA.REPUL.0>
0

>  <SCORE.INTRA.SOLV>
3.08047

>  <SCORE.INTRA.SOLV.lig_0>
-104.479

>  <SCORE.INTRA.VDW>
2.2235

>  <SCORE.INTRA.VDW.0>
-6.17816

>  <SCORE.INTRA.norm>
-0.201005

>  <SCORE.RESTR>
0

>  <SCORE.RESTR.CAVITY>
0

>  <SCORE.RESTR.norm>
0

>  <SCORE.SYSTEM>
0

>  <SCORE.SYSTEM.CONST>
0

>  <SCORE.SYSTEM.DIHEDRAL>
0

>  <SCORE.SYSTEM.SOLV>
0

>  <SCORE.SYSTEM.norm>
0

>  <SCORE.heavy>
42

>  <SCORE.norm>
-0.314995

>  <RMSD>
5.136

$$$$
ligand
 OpenBabel02271912133D
libRbt.so/2013.1/901 2013/11/27
 42 45  0  0  0  0  0  0  0  0999 V2000
   12.5571    1.9494    7.6693 C   0  0  2  0  0  0  0  0  0  0  0  0
   13.0806    2.4762    6.4382 O   0  0  0  0  0  0  0  0  0  0  0  0
   13.8562    6.5121    7.8188 C   0  0  2  0  0  0  0  0  0  0  0  0
   14.2876    7.9405    7.8828 N   0  0  0  0  0  0  0  0  0  0  0  0
   10.3537    5.2287    5.0209 C   0  0  1  0  0  0  0  0  0  0  0  0
    6.7289    6.8473    3.1802 C   0  0  1  0  0  0  0  0  0  0  0  0
   12.2196    0.4495    7.4153 C   0  0  2  0  0  0  0  0  0  0  0  0
   13.3348   -0.2809    6.7881 N   0  0  0  0  0  0  0  0  0  0  0  0
   15.0954    5.5457    7.6389 C   0  0  0  0  0  0  0  0  0  0  0  0
   10.4162    6.2559    3.8496 C   0  0  2  0  0  0  0  0  0  0  0  0
   10.7039    7.6122    4.2700 O   0  0  0  0  0  0  0  0  0  0  0  0
    5.6822    7.8539    3.7804 C   0  0  2  0  0  0  0  0  0  0  0  0
    5.5738    7.6910    5.2611 N   0  0  0  0  0  0  0  0  0  0  0  0
   10.9984    0.2732    6.4941 C   0  0  1  0  0  0  0  0  0  0  0  0
   10.7019   -1.1136    6.3213 O   0  0  0  0  0  0  0  0  0  0  0  0
   14.5804    4.0572    7.6010 C   0  0  2  0  0  0  0  0  0  0  0  0
   15.7238    3.1178    7.4469 N   0  0  0  0  0  0  0  0  0  0  0  0
    9.0514    6.0414    3.1934 C   0  0  2  0  0  0  0  0  0  0  0  0
    8.0343    6.9234    3.7665 O   0  0  0  0  0  0  0  0  0  0  0  0
    4.2637    7.6271    3.0710 C   0  0  1  0  0  0  0  0  0  0  0  0
    4.3233    8.1562    1.7274 O   0  0  0  0  0  0  0  0  0  0  0  0
    9.7925    1.0390    7.0843 C   0  0  2  0  0  0  0  0  0  0  0  0
    8.6614    0.8737    6.2610 O   0  0  0  0  0  0  0  0  0  0  0  0
   13.5607    3.8507    6.4121 C   0  0  2  0  0  0  0  0  0  0  0  0
    8.6986    4.5619    3.4214 C   0  0  2  0  0  0  0  0  0  0  0  0
    9.3335    4.2682    4.6636 O   0  0  0  0  0  0  0  0  0  0  0  0
    3.8328    6.0845    3.0209 C   0  0  2  0  0  0  0  0  0  0  0  0
    3.5420    5.6747    4.3566 O   0  0  0  0  0  0  0  0  0  0  0  0
   10.1642    2.5536    7.2158 C   0  0  2  0  0  0  0  0  0  0  0  0
   11.3456    2.6981    8.0663 O   0  0  0  0  0  0  0  0  0  0  0  0
   12.3479    4.8037    6.4909 C   0  0  2  0  0  0  0  0  0  0  0  0
   11.6263    4.6075    5.2438 O   0  0  0  0  0  0  0  0  0  0  0  0
    9.1814    3.5899    2.3005 C   0  0  0  0  0  0  0  0  0  0  0  0
    8.7541    2.2666    2.6092 O   0  0  0  0  0  0  0  0  0  0  0  0
    4.9922    5.2028    2.4203 C   0  0  1  0  0  0  0  0  0  0  0  0
    6.1710    5.4424    3.2707 O   0  0  0  0  0  0  0  0  0  0  0  0
    9.0390    3.3805    7.7936 C   0  0  0  0  0  0  0  0  0  0  0  0
    9.4179    4.7336    7.8632 O   0  0  0  0  0  0  0  0  0  0  0  0
   12.8382    6.3060    6.6265 C   0  0  1  0  0  0  0  0  0  0  0  0
   11.7215    7.1710    6.8513 O   0  0  0  0  0  0  0  0  0  0  0  0
    4.6614    3.6485    2.3647 C   0  0  0  0  0  0  0  0  0  0  0  0
    4.4164    2.9965    3.6806 N   0  0  0  0  0  0  0  0  0  0  0  0
  1  2  1  6  0  0  0
  1  7  1  0  0  0  0
  1 30  1  0  0  0  0
  3  4  1  6  0  0  0
  3  9  1  0  0  0  0
  3 39  1  0  0  0  0
  5 10  1  0  0  0  0
  5 26  1  0  0  0  0
  5 32  1  6  0  0  0
  6 12  1  0  0  0  0
  6 36  1  0  0  0  0
  6 19  1  1  0  0  0
  7  8  1  6  0  0  0
  7 14  1  0  0  0  0
  9 16  1  0  0  0  0
 10 11  1  1  0  0  0
 10 18  1  0  0  0  0
 12 13  1  1  0  0  0
 12 20  1  0  0  0  0
 14 15  1  1  0  0  0
 14 22  1  0  0  0  0
 16 17  1  6  0  0  0
 16 24  1  0  0  0  0
 18 19  1  1  0  0  0
 18 25  1  0  0  0  0
 20 21  1  6  0  0  0
 20 27  1  0  0  0  0
 22 23  1  6  0  0  0
 22 29  1  0  0  0  0
 24  2  1  1  0  0  0
 24 31  1  0  0  0  0
 25 26  1  0  0  0  0
 25 33  1  6  0  0  0
 27 28  1  1  0  0  0
 27 35  1  0  0  0  0
 29 30  1  0  0  0  0
 29 37  1  1  0  0  0
 31 32  1  6  0  0  0
 31 39  1  0  0  0  0
 33 34  1  0  0  0  0
 35 36  1  0  0  0  0
 35 41  1  1  0  0  0
 37 38  1  0  0  0  0
 39 40  1  1  0  0  0
 41 42  1  0  0  0  0
M  END
>  <CHROM.1>
-176.20140817,51.47393739,177.25517619,-177.43267319,-178.05428163,-178.79892880
173.27947019,115.76208794,-61.85860259,9.62700178,4.44377463,5.33797796,0.38094153
0.43579969,3.00867417

>  <Name>
ligand

>  <RI>
0

>  <Rbt.Current_Directory>
/home/itssahil/PROJECTS/Mol_Feturizer/Test_systems_manuscript/rnas/2o3w

>  <Rbt.Executable>
rbdock ($Id: //depot/dev/client3/rdock/2013.1/src/exe/rbdock.cxx#4 $)

>  <Rbt.Library>
libRbt.so (2013.1, Build901 2013/11/27)

>  <Rbt.Parameter_File>
/export/apps/rDock/src/rDock_2013.1_src/data/scripts/dock_solv.prm

>  <Rbt.Receptor>
prm/pocket_docking_8.prm

>  <SCORE>
-11.0326

>  <SCORE.INTER>
-0.726834

>  <SCORE.INTER.CONST>
1

>  <SCORE.INTER.POLAR>
0

>  <SCORE.INTER.ROT>
9

>  <SCORE.INTER.SOLV>
11.8163

>  <SCORE.INTER.VDW>
-14.0233

>  <SCORE.INTER.norm>
-0.0173056

>  <SCORE.INTRA>
-10.3057

>  <SCORE.INTRA.DIHEDRAL>
-19.9044

>  <SCORE.INTRA.DIHEDRAL.0>
27.8999

>  <SCORE.INTRA.POLAR>
0

>  <SCORE.INTRA.POLAR.0>
0

>  <SCORE.INTRA.REPUL>
0

>  <SCORE.INTRA.REPUL.0>
0

>  <SCORE.INTRA.SOLV>
-2.0087

>  <SCORE.INTRA.SOLV.lig_0>
-104.479

>  <SCORE.INTRA.VDW>
0.650851

>  <SCORE.INTRA.VDW.0>
-6.17816

>  <SCORE.INTRA.norm>
-0.245374

>  <SCORE.RESTR>
0

>  <SCORE.RESTR.CAVITY>
0

>  <SCORE.RESTR.norm>
0

>  <SCORE.SYSTEM>
0

>  <SCORE.SYSTEM.CONST>
0

>  <SCORE.SYSTEM.DIHEDRAL>
0

>  <SCORE.SYSTEM.SOLV>
0

>  <SCORE.SYSTEM.norm>
0

>  <SCORE.heavy>
42

>  <SCORE.norm>
-0.26268

>  <RMSD>
5.147

$$$$
ligand
 OpenBabel02271912133D
libRbt.so/2013.1/901 2013/11/27
 42 45  0  0  0  0  0  0  0  0999 V2000
    9.6945    0.4320    6.9620 C   0  0  2  0  0  0  0  0  0  0  0  0
    9.1772    0.3344    5.6241 O   0  0  0  0  0  0  0  0  0  0  0  0
    6.1772   -2.2348    3.8366 C   0  0  2  0  0  0  0  0  0  0  0  0
    4.8881   -2.9223    3.5267 N   0  0  0  0  0  0  0  0  0  0  0  0
    6.3284    2.2552    3.1535 C   0  0  1  0  0  0  0  0  0  0  0  0
    4.5377    5.7830    1.7273 C   0  0  1  0  0  0  0  0  0  0  0  0
    9.5152    1.9129    7.4124 C   0  0  2  0  0  0  0  0  0  0  0  0
    8.1488    2.4118    7.1784 N   0  0  0  0  0  0  0  0  0  0  0  0
    6.6887   -2.6011    5.2877 C   0  0  0  0  0  0  0  0  0  0  0  0
    6.4046    3.7986    3.3613 C   0  0  2  0  0  0  0  0  0  0  0  0
    5.3180    4.3412    4.1511 O   0  0  0  0  0  0  0  0  0  0  0  0
    3.0226    5.9075    1.3301 C   0  0  2  0  0  0  0  0  0  0  0  0
    2.8334    5.6711   -0.1325 N   0  0  0  0  0  0  0  0  0  0  0  0
   10.4701    2.8682    6.6731 C   0  0  1  0  0  0  0  0  0  0  0  0
   10.2991    4.2058    7.1448 O   0  0  0  0  0  0  0  0  0  0  0  0
    8.0582   -1.8662    5.5467 C   0  0  2  0  0  0  0  0  0  0  0  0
    8.5769   -2.2006    6.9005 N   0  0  0  0  0  0  0  0  0  0  0  0
    6.4814    4.2895    1.9148 C   0  0  2  0  0  0  0  0  0  0  0  0
    5.1508    4.5408    1.3606 O   0  0  0  0  0  0  0  0  0  0  0  0
    2.4821    7.3550    1.7537 C   0  0  1  0  0  0  0  0  0  0  0  0
    2.3305    7.3950    3.1905 O   0  0  0  0  0  0  0  0  0  0  0  0
   11.9270    2.3863    6.8584 C   0  0  2  0  0  0  0  0  0  0  0  0
   12.8154    3.2601    6.2013 O   0  0  0  0  0  0  0  0  0  0  0  0
    7.8836   -0.3014    5.4175 C   0  0  2  0  0  0  0  0  0  0  0  0
    7.2126    3.1870    1.1305 C   0  0  2  0  0  0  0  0  0  0  0  0
    6.8434    1.9990    1.8268 O   0  0  0  0  0  0  0  0  0  0  0  0
    3.4500    8.5424    1.2837 C   0  0  2  0  0  0  0  0  0  0  0  0
    3.3719    8.6243   -0.1389 O   0  0  0  0  0  0  0  0  0  0  0  0
   12.0601    0.9334    6.2920 C   0  0  2  0  0  0  0  0  0  0  0  0
   11.1222    0.0484    6.9826 O   0  0  0  0  0  0  0  0  0  0  0  0
    7.3317    0.1280    4.0405 C   0  0  2  0  0  0  0  0  0  0  0  0
    7.0633    1.5518    4.1635 O   0  0  0  0  0  0  0  0  0  0  0  0
    8.7639    3.3419    1.0684 C   0  0  0  0  0  0  0  0  0  0  0  0
    9.2950    3.2907    2.3891 O   0  0  0  0  0  0  0  0  0  0  0  0
    4.9336    8.2611    1.7331 C   0  0  1  0  0  0  0  0  0  0  0  0
    5.2978    6.9584    1.1496 O   0  0  0  0  0  0  0  0  0  0  0  0
   13.4579    0.3779    6.4385 C   0  0  0  0  0  0  0  0  0  0  0  0
   13.5176   -0.9281    5.9189 O   0  0  0  0  0  0  0  0  0  0  0  0
    6.0004   -0.6685    3.7100 C   0  0  1  0  0  0  0  0  0  0  0  0
    5.5736   -0.3837    2.3750 O   0  0  0  0  0  0  0  0  0  0  0  0
    5.9709    9.3768    1.2773 C   0  0  0  0  0  0  0  0  0  0  0  0
    7.3968    9.0998    1.6037 N   0  0  0  0  0  0  0  0  0  0  0  0
  1  2  1  6  0  0  0
  1  7  1  0  0  0  0
  1 30  1  0  0  0  0
  3  4  1  1  0  0  0
  3  9  1  0  0  0  0
  3 39  1  0  0  0  0
  5 10  1  0  0  0  0
  5 26  1  0  0  0  0
  5 32  1  1  0  0  0
  6 12  1  0  0  0  0
  6 36  1  0  0  0  0
  6 19  1  6  0  0  0
  7  8  1  6  0  0  0
  7 14  1  0  0  0  0
  9 16  1  0  0  0  0
 10 11  1  6  0  0  0
 10 18  1  0  0  0  0
 12 13  1  6  0  0  0
 12 20  1  0  0  0  0
 14 15  1  1  0  0  0
 14 22  1  0  0  0  0
 16 17  1  1  0  0  0
 16 24  1  0  0  0  0
 18 19  1  6  0  0  0
 18 25  1  0  0  0  0
 20 21  1  1  0  0  0
 20 27  1  0  0  0  0
 22 23  1  6  0  0  0
 22 29  1  0  0  0  0
 24  2  1  6  0  0  0
 24 31  1  0  0  0  0
 25 26  1  0  0  0  0
 25 33  1  1  0  0  0
 27 28  1  6  0  0  0
 27 35  1  0  0  0  0
 29 30  1  0  0  0  0
 29 37  1  1  0  0  0
 31 32  1  1  0  0  0
 31 39  1  0  0  0  0
 33 34  1  0  0  0  0
 35 36  1  0  0  0  0
 35 41  1  6  0  0  0
 37 38  1  0  0  0  0
 39 40  1  6  0  0  0
 41 42  1  0  0  0  0
M  END
>  <CHROM.1>
-104.72667676,-75.77082194,79.82489615,-169.61897814,61.44857995,179.77812717
-169.28632071,-168.96672069,-176.02294581,7.35442453,2.89463595,3.79447444
-0.86824236,-0.50319444,-0.20366946

>  <Name>
ligand

>  <RI>
0

>  <Rbt.Current_Directory>
/home/itssahil/PROJECTS/Mol_Feturizer/Test_systems_manuscript/rnas/2o3w

>  <Rbt.Executable>
rbdock ($Id: //depot/dev/client3/rdock/2013.1/src/exe/rbdock.cxx#4 $)

>  <Rbt.Library>
libRbt.so (2013.1, Build901 2013/11/27)

>  <Rbt.Parameter_File>
/export/apps/rDock/src/rDock_2013.1_src/data/scripts/dock_solv.prm

>  <Rbt.Receptor>
prm/pocket_docking_3.prm

>  <SCORE>
-7.37235

>  <SCORE.INTER>
0.125588

>  <SCORE.INTER.CONST>
1

>  <SCORE.INTER.POLAR>
0

>  <SCORE.INTER.ROT>
9

>  <SCORE.INTER.SOLV>
13.4941

>  <SCORE.INTER.VDW>
-14.0143

>  <SCORE.INTER.norm>
0.0029902

>  <SCORE.INTRA>
-7.51661

>  <SCORE.INTRA.DIHEDRAL>
-17.0177

>  <SCORE.INTRA.DIHEDRAL.0>
27.8999

>  <SCORE.INTRA.POLAR>
0

>  <SCORE.INTRA.POLAR.0>
0

>  <SCORE.INTRA.REPUL>
0.00776429

>  <SCORE.INTRA.REPUL.0>
0

>  <SCORE.INTRA.SOLV>
-2.72046

>  <SCORE.INTRA.SOLV.lig_0>
-104.479

>  <SCORE.INTRA.VDW>
2.31363

>  <SCORE.INTRA.VDW.0>
-6.17816

>  <SCORE.INTRA.norm>
-0.178967

>  <SCORE.RESTR>
0.0186652

>  <SCORE.RESTR.CAVITY>
0.0186652

>  <SCORE.RESTR.norm>
0.00044441

>  <SCORE.SYSTEM>
0

>  <SCORE.SYSTEM.CONST>
0

>  <SCORE.SYSTEM.DIHEDRAL>
0

>  <SCORE.SYSTEM.SOLV>
0

>  <SCORE.SYSTEM.norm>
0

>  <SCORE.heavy>
42

>  <SCORE.norm>
-0.175532

>  <RMSD>
5.151

$$$$
ligand
 OpenBabel02271912133D
libRbt.so/2013.1/901 2013/11/27
 42 45  0  0  0  0  0  0  0  0999 V2000
    9.9207    2.2031    4.2739 C   0  0  2  0  0  0  0  0  0  0  0  0
    8.9852    2.1660    5.3651 O   0  0  0  0  0  0  0  0  0  0  0  0
    6.4756   -1.0353    3.8652 C   0  0  2  0  0  0  0  0  0  0  0  0
    5.3570   -2.0091    3.6901 N   0  0  0  0  0  0  0  0  0  0  0  0
    6.7814    3.9389    3.3345 C   0  0  1  0  0  0  0  0  0  0  0  0
    6.6494    6.7972   -0.0762 C   0  0  1  0  0  0  0  0  0  0  0  0
   11.3447    2.0593    4.8902 C   0  0  2  0  0  0  0  0  0  0  0  0
   11.4423    0.9250    5.8254 N   0  0  0  0  0  0  0  0  0  0  0  0
    7.2389   -1.2771    5.2293 C   0  0  0  0  0  0  0  0  0  0  0  0
    6.5622    3.5431    1.8425 C   0  0  2  0  0  0  0  0  0  0  0  0
    7.7490    3.0306    1.1883 O   0  0  0  0  0  0  0  0  0  0  0  0
    7.7980    7.7922   -0.4758 C   0  0  2  0  0  0  0  0  0  0  0  0
    8.4768    8.3382    0.7375 N   0  0  0  0  0  0  0  0  0  0  0  0
   11.7739    3.3162    5.6692 C   0  0  1  0  0  0  0  0  0  0  0  0
   13.0977    3.1557    6.1818 O   0  0  0  0  0  0  0  0  0  0  0  0
    8.4173   -0.2377    5.3459 C   0  0  2  0  0  0  0  0  0  0  0  0
    9.1677   -0.4462    6.6136 N   0  0  0  0  0  0  0  0  0  0  0  0
    6.0000    4.8449    1.2694 C   0  0  2  0  0  0  0  0  0  0  0  0
    7.0636    5.7154    0.7675 O   0  0  0  0  0  0  0  0  0  0  0  0
    7.1879    8.9709   -1.3733 C   0  0  1  0  0  0  0  0  0  0  0  0
    6.8891    8.4502   -2.6880 O   0  0  0  0  0  0  0  0  0  0  0  0
   11.6713    4.5535    4.7486 C   0  0  2  0  0  0  0  0  0  0  0  0
   12.0770    5.7106    5.4421 O   0  0  0  0  0  0  0  0  0  0  0  0
    7.8630    1.2408    5.2949 C   0  0  2  0  0  0  0  0  0  0  0  0
    5.2267    5.5152    2.4175 C   0  0  2  0  0  0  0  0  0  0  0  0
    5.9401    5.0899    3.5763 O   0  0  0  0  0  0  0  0  0  0  0  0
    5.8651    9.6150   -0.7386 C   0  0  2  0  0  0  0  0  0  0  0  0
    6.2542   10.3328    0.4318 O   0  0  0  0  0  0  0  0  0  0  0  0
   10.1950    4.6972    4.2491 C   0  0  2  0  0  0  0  0  0  0  0  0
    9.7945    3.4811    3.5415 O   0  0  0  0  0  0  0  0  0  0  0  0
    7.0553    1.5337    4.0116 C   0  0  2  0  0  0  0  0  0  0  0  0
    6.4760    2.8515    4.2173 O   0  0  0  0  0  0  0  0  0  0  0  0
    3.7191    5.1246    2.5118 C   0  0  0  0  0  0  0  0  0  0  0  0
    3.6100    3.7257    2.7568 O   0  0  0  0  0  0  0  0  0  0  0  0
    4.8228    8.4929   -0.3688 C   0  0  1  0  0  0  0  0  0  0  0  0
    5.5164    7.5786    0.5550 O   0  0  0  0  0  0  0  0  0  0  0  0
   10.0039    5.8838    3.3331 C   0  0  0  0  0  0  0  0  0  0  0  0
    8.6430    6.2354    3.2724 O   0  0  0  0  0  0  0  0  0  0  0  0
    5.9192    0.4441    3.8173 C   0  0  1  0  0  0  0  0  0  0  0  0
    5.2714    0.6263    2.5552 O   0  0  0  0  0  0  0  0  0  0  0  0
    3.4892    9.0429    0.3002 C   0  0  0  0  0  0  0  0  0  0  0  0
    3.6648    9.7388    1.6047 N   0  0  0  0  0  0  0  0  0  0  0  0
  1  2  1  1  0  0  0
  1  7  1  0  0  0  0
  1 30  1  0  0  0  0
  3  4  1  1  0  0  0
  3  9  1  0  0  0  0
  3 39  1  0  0  0  0
  5 10  1  0  0  0  0
  5 26  1  0  0  0  0
  5 32  1  1  0  0  0
  6 12  1  0  0  0  0
  6 36  1  0  0  0  0
  6 19  1  1  0  0  0
  7  8  1  1  0  0  0
  7 14  1  0  0  0  0
  9 16  1  0  0  0  0
 10 11  1  6  0  0  0
 10 18  1  0  0  0  0
 12 13  1  1  0  0  0
 12 20  1  0  0  0  0
 14 15  1  6  0  0  0
 14 22  1  0  0  0  0
 16 17  1  1  0  0  0
 16 24  1  0  0  0  0
 18 19  1  1  0  0  0
 18 25  1  0  0  0  0
 20 21  1  6  0  0  0
 20 27  1  0  0  0  0
 22 23  1  1  0  0  0
 22 29  1  0  0  0  0
 24  2  1  6  0  0  0
 24 31  1  0  0  0  0
 25 26  1  0  0  0  0
 25 33  1  1  0  0  0
 27 28  1  1  0  0  0
 27 35  1  0  0  0  0
 29 30  1  0  0  0  0
 29 37  1  6  0  0  0
 31 32  1  1  0  0  0
 31 39  1  0  0  0  0
 33 34  1  0  0  0  0
 35 36  1  0  0  0  0
 35 41  1  1  0  0  0
 37 38  1  0  0  0  0
 39 40  1  6  0  0  0
 41 42  1  0  0  0  0
M  END
>  <CHROM.1>
-128.69461787,66.18766161,165.27344275,174.10330192,62.10560072,-160.44910520
119.62768311,51.30019727,-62.46087871,7.55698059,4.35930812,2.82815472,-1.18745446
-0.38028590,-0.45446289

>  <Name>
ligand

>  <RI>
0

>  <Rbt.Current_Directory>
/home/itssahil/PROJECTS/Mol_Feturizer/Test_systems_manuscript/rnas/2o3w

>  <Rbt.Executable>
rbdock ($Id: //depot/dev/client3/rdock/2013.1/src/exe/rbdock.cxx#4 $)

>  <Rbt.Library>
libRbt.so (2013.1, Build901 2013/11/27)

>  <Rbt.Parameter_File>
/export/apps/rDock/src/rDock_2013.1_src/data/scripts/dock_solv.prm

>  <Rbt.Receptor>
prm/pocket_docking_3.prm

>  <SCORE>
-1.23985

>  <SCORE.INTER>
3.20766

>  <SCORE.INTER.CONST>
1

>  <SCORE.INTER.POLAR>
0

>  <SCORE.INTER.ROT>
9

>  <SCORE.INTER.SOLV>
15.432

>  <SCORE.INTER.VDW>
-12.6056

>  <SCORE.INTER.norm>
0.0763729

>  <SCORE.INTRA>
-4.44751

>  <SCORE.INTRA.DIHEDRAL>
-10.6803

>  <SCORE.INTRA.DIHEDRAL.0>
27.8999

>  <SCORE.INTRA.POLAR>
0

>  <SCORE.INTRA.POLAR.0>
0

>  <SCORE.INTRA.REPUL>
0.000740729

>  <SCORE.INTRA.REPUL.0>
0

>  <SCORE.INTRA.SOLV>
2.92535

>  <SCORE.INTRA.SOLV.lig_0>
-104.479

>  <SCORE.INTRA.VDW>
-0.573766

>  <SCORE.INTRA.VDW.0>
-6.17816

>  <SCORE.INTRA.norm>
-0.105893

>  <SCORE.RESTR>
0

>  <SCORE.RESTR.CAVITY>
0

>  <SCORE.RESTR.norm>
0

>  <SCORE.SYSTEM>
0

>  <SCORE.SYSTEM.CONST>
0

>  <SCORE.SYSTEM.DIHEDRAL>
0

>  <SCORE.SYSTEM.SOLV>
0

>  <SCORE.SYSTEM.norm>
0

>  <SCORE.heavy>
42

>  <SCORE.norm>
-0.0295203

>  <RMSD>
5.225

$$$$
ligand
 OpenBabel02271912133D
libRbt.so/2013.1/901 2013/11/27
 42 45  0  0  0  0  0  0  0  0999 V2000
   10.2032    0.9827    7.1444 C   0  0  2  0  0  0  0  0  0  0  0  0
    9.5976    0.6566    5.8818 O   0  0  0  0  0  0  0  0  0  0  0  0
    6.5740   -2.1970    4.6524 C   0  0  2  0  0  0  0  0  0  0  0  0
    5.3022   -2.9730    4.5483 N   0  0  0  0  0  0  0  0  0  0  0  0
    6.5002    2.2621    3.5534 C   0  0  1  0  0  0  0  0  0  0  0  0
    4.6954    5.6489    1.9040 C   0  0  1  0  0  0  0  0  0  0  0  0
    9.6587    2.3815    7.5625 C   0  0  2  0  0  0  0  0  0  0  0  0
    8.1902    2.4637    7.4764 N   0  0  0  0  0  0  0  0  0  0  0  0
    7.2706   -2.4221    6.0545 C   0  0  0  0  0  0  0  0  0  0  0  0
    6.6101    3.8164    3.6074 C   0  0  2  0  0  0  0  0  0  0  0  0
    5.5621    4.4548    4.3776 O   0  0  0  0  0  0  0  0  0  0  0  0
    3.1853    5.7756    1.4888 C   0  0  2  0  0  0  0  0  0  0  0  0
    3.0062    5.4882    0.0341 N   0  0  0  0  0  0  0  0  0  0  0  0
   10.2198    3.5138    6.6826 C   0  0  1  0  0  0  0  0  0  0  0  0
    9.7262    4.7791    7.1257 O   0  0  0  0  0  0  0  0  0  0  0  0
    8.6133   -1.5988    6.0953 C   0  0  2  0  0  0  0  0  0  0  0  0
    9.3039   -1.7993    7.3978 N   0  0  0  0  0  0  0  0  0  0  0  0
    6.6427    4.1637    2.1182 C   0  0  2  0  0  0  0  0  0  0  0  0
    5.2974    4.3873    1.5883 O   0  0  0  0  0  0  0  0  0  0  0  0
    2.6579    7.2436    1.8545 C   0  0  1  0  0  0  0  0  0  0  0  0
    2.4943    7.3377    3.2875 O   0  0  0  0  0  0  0  0  0  0  0  0
   11.7646    3.4699    6.7089 C   0  0  2  0  0  0  0  0  0  0  0  0
   12.2941    4.5109    5.9213 O   0  0  0  0  0  0  0  0  0  0  0  0
    8.3299   -0.0600    5.8769 C   0  0  2  0  0  0  0  0  0  0  0  0
    7.3263    2.9759    1.4202 C   0  0  2  0  0  0  0  0  0  0  0  0
    6.9624    1.8684    2.2409 O   0  0  0  0  0  0  0  0  0  0  0  0
    3.6433    8.4022    1.3504 C   0  0  2  0  0  0  0  0  0  0  0  0
    3.5786    8.4330   -0.0748 O   0  0  0  0  0  0  0  0  0  0  0  0
   12.2449    2.0773    6.1803 C   0  0  2  0  0  0  0  0  0  0  0  0
   11.6749    1.0139    7.0074 O   0  0  0  0  0  0  0  0  0  0  0  0
    7.5980    0.2315    4.5485 C   0  0  2  0  0  0  0  0  0  0  0  0
    7.2593    1.6446    4.6011 O   0  0  0  0  0  0  0  0  0  0  0  0
    8.8767    3.0925    1.2899 C   0  0  0  0  0  0  0  0  0  0  0  0
    9.1990    4.2540    0.5312 O   0  0  0  0  0  0  0  0  0  0  0  0
    5.1197    8.1209    1.8232 C   0  0  1  0  0  0  0  0  0  0  0  0
    5.4740    6.7938    1.2909 O   0  0  0  0  0  0  0  0  0  0  0  0
   13.7502    1.9439    6.1776 C   0  0  0  0  0  0  0  0  0  0  0  0
   14.3243    2.9452    5.3732 O   0  0  0  0  0  0  0  0  0  0  0  0
    6.2887   -0.6567    4.4368 C   0  0  1  0  0  0  0  0  0  0  0  0
    5.6944   -0.4993    3.1454 O   0  0  0  0  0  0  0  0  0  0  0  0
    6.1736    9.2076    1.3366 C   0  0  0  0  0  0  0  0  0  0  0  0
    7.5948    8.9207    1.6752 N   0  0  0  0  0  0  0  0  0  0  0  0
  1  2  1  6  0  0  0
  1  7  1  0  0  0  0
  1 30  1  0  0  0  0
  3  4  1  1  0  0  0
  3  9  1  0  0  0  0
  3 39  1  0  0  0  0
  5 10  1  0  0  0  0
  5 26  1  0  0  0  0
  5 32  1  1  0  0  0
  6 12  1  0  0  0  0
  6 36  1  0  0  0  0
  6 19  1  6  0  0  0
  7  8  1  6  0  0  0
  7 14  1  0  0  0  0
  9 16  1  0  0  0  0
 10 11  1  6  0  0  0
 10 18  1  0  0  0  0
 12 13  1  6  0  0  0
 12 20  1  0  0  0  0
 14 15  1  1  0  0  0
 14 22  1  0  0  0  0
 16 17  1  1  0  0  0
 16 24  1  0  0  0  0
 18 19  1  6  0  0  0
 18 25  1  0  0  0  0
 20 21  1  1  0  0  0
 20 27  1  0  0  0  0
 22 23  1  6  0  0  0
 22 29  1  0  0  0  0
 24  2  1  6  0  0  0
 24 31  1  0  0  0  0
 25 26  1  0  0  0  0
 25 33  1  1  0  0  0
 27 28  1  6  0  0  0
 27 35  1  0  0  0  0
 29 30  1  0  0  0  0
 29 37  1  1  0  0  0
 31 32  1  1  0  0  0
 31 39  1  0  0  0  0
 33 34  1  0  0  0  0
 35 36  1  0  0  0  0
 35 41  1  6  0  0  0
 37 38  1  0  0  0  0
 39 40  1  6  0  0  0
 41 42  1  0  0  0  0
M  END
>  <CHROM.1>
-89.85958493,-80.89021122,77.14075361,-172.02441363,-60.08626142,-58.89842220
-176.66722305,-163.56023632,-175.49967037,7.55641935,3.20142470,3.96613760
-0.88060547,-0.44865402,-0.30757337

>  <Name>
ligand

>  <RI>
0

>  <Rbt.Current_Directory>
/home/itssahil/PROJECTS/Mol_Feturizer/Test_systems_manuscript/rnas/2o3w

>  <Rbt.Executable>
rbdock ($Id: //depot/dev/client3/rdock/2013.1/src/exe/rbdock.cxx#4 $)

>  <Rbt.Library>
libRbt.so (2013.1, Build901 2013/11/27)

>  <Rbt.Parameter_File>
/export/apps/rDock/src/rDock_2013.1_src/data/scripts/dock_solv.prm

>  <Rbt.Receptor>
prm/pocket_docking_3.prm

>  <SCORE>
-8.06455

>  <SCORE.INTER>
0.267618

>  <SCORE.INTER.CONST>
1

>  <SCORE.INTER.POLAR>
0

>  <SCORE.INTER.ROT>
9

>  <SCORE.INTER.SOLV>
16.6575

>  <SCORE.INTER.VDW>
-14.9741

>  <SCORE.INTER.norm>
0.00637187

>  <SCORE.INTRA>
-8.33217

>  <SCORE.INTRA.DIHEDRAL>
-19.2065

>  <SCORE.INTRA.DIHEDRAL.0>
27.8999

>  <SCORE.INTRA.POLAR>
0

>  <SCORE.INTRA.POLAR.0>
0

>  <SCORE.INTRA.REPUL>
0

>  <SCORE.INTRA.REPUL.0>
0

>  <SCORE.INTRA.SOLV>
-2.58005

>  <SCORE.INTRA.SOLV.lig_0>
-104.479

>  <SCORE.INTRA.VDW>
2.56113

>  <SCORE.INTRA.VDW.0>
-6.17816

>  <SCORE.INTRA.norm>
-0.198385

>  <SCORE.RESTR>
0

>  <SCORE.RESTR.CAVITY>
0

>  <SCORE.RESTR.norm>
0

>  <SCORE.SYSTEM>
0

>  <SCORE.SYSTEM.CONST>
0

>  <SCORE.SYSTEM.DIHEDRAL>
0

>  <SCORE.SYSTEM.SOLV>
0

>  <SCORE.SYSTEM.norm>
0

>  <SCORE.heavy>
42

>  <SCORE.norm>
-0.192013

>  <RMSD>
5.318

$$$$
ligand
 OpenBabel02271912133D
libRbt.so/2013.1/901 2013/11/27
 42 45  0  0  0  0  0  0  0  0999 V2000
    7.4157    4.7800    6.8973 C   0  0  2  0  0  0  0  0  0  0  0  0
    8.0429    4.0087    5.8585 O   0  0  0  0  0  0  0  0  0  0  0  0
    9.5090   -0.0712    5.8264 C   0  0  2  0  0  0  0  0  0  0  0  0
    9.5817   -1.5621    5.8765 N   0  0  0  0  0  0  0  0  0  0  0  0
    7.3021    3.5772    2.9840 C   0  0  1  0  0  0  0  0  0  0  0  0
    7.6542    6.6087   -0.2720 C   0  0  1  0  0  0  0  0  0  0  0  0
    5.8761    4.6435    6.6988 C   0  0  2  0  0  0  0  0  0  0  0  0
    5.4494    3.2415    6.5470 N   0  0  0  0  0  0  0  0  0  0  0  0
    9.0297    0.5269    7.2100 C   0  0  0  0  0  0  0  0  0  0  0  0
    8.4104    3.6079    1.8879 C   0  0  2  0  0  0  0  0  0  0  0  0
    9.6705    4.1625    2.3393 O   0  0  0  0  0  0  0  0  0  0  0  0
    8.2765    8.0514   -0.2576 C   0  0  2  0  0  0  0  0  0  0  0  0
    7.8546    8.8020    0.9629 N   0  0  0  0  0  0  0  0  0  0  0  0
    5.3786    5.3973    5.4517 C   0  0  1  0  0  0  0  0  0  0  0  0
    3.9601    5.2782    5.3316 O   0  0  0  0  0  0  0  0  0  0  0  0
    8.9947    2.0984    7.1018 C   0  0  2  0  0  0  0  0  0  0  0  0
    8.5610    2.6964    8.3933 N   0  0  0  0  0  0  0  0  0  0  0  0
    7.7058    4.3848    0.7747 C   0  0  2  0  0  0  0  0  0  0  0  0
    7.9379    5.8246    0.8935 O   0  0  0  0  0  0  0  0  0  0  0  0
    7.8418    8.8280   -1.5898 C   0  0  1  0  0  0  0  0  0  0  0  0
    8.5811    8.2874   -2.7079 O   0  0  0  0  0  0  0  0  0  0  0  0
    5.8157    6.8775    5.5355 C   0  0  2  0  0  0  0  0  0  0  0  0
    5.3534    7.5855    4.4088 O   0  0  0  0  0  0  0  0  0  0  0  0
    8.0146    2.5557    5.9502 C   0  0  2  0  0  0  0  0  0  0  0  0
    6.2105    4.0489    0.9035 C   0  0  2  0  0  0  0  0  0  0  0  0
    6.0511    3.8252    2.3024 O   0  0  0  0  0  0  0  0  0  0  0  0
    6.2705    8.7241   -1.8857 C   0  0  2  0  0  0  0  0  0  0  0  0
    5.5928    9.4871   -0.8882 O   0  0  0  0  0  0  0  0  0  0  0  0
    7.3766    6.9445    5.6286 C   0  0  2  0  0  0  0  0  0  0  0  0
    7.8321    6.1952    6.7994 O   0  0  0  0  0  0  0  0  0  0  0  0
    8.3889    1.9623    4.5744 C   0  0  2  0  0  0  0  0  0  0  0  0
    7.2949    2.3294    3.6896 O   0  0  0  0  0  0  0  0  0  0  0  0
    5.7410    2.8098    0.0798 C   0  0  0  0  0  0  0  0  0  0  0  0
    5.9334    3.0670   -1.3079 O   0  0  0  0  0  0  0  0  0  0  0  0
    5.7945    7.2229   -1.8410 C   0  0  1  0  0  0  0  0  0  0  0  0
    6.1623    6.7166   -0.5073 O   0  0  0  0  0  0  0  0  0  0  0  0
    7.8933    8.3616    5.7210 C   0  0  0  0  0  0  0  0  0  0  0  0
    7.4509    8.9623    6.9138 O   0  0  0  0  0  0  0  0  0  0  0  0
    8.5253    0.3853    4.6755 C   0  0  1  0  0  0  0  0  0  0  0  0
    9.0182   -0.1474    3.4430 O   0  0  0  0  0  0  0  0  0  0  0  0
    4.2361    7.0299   -2.0916 C   0  0  0  0  0  0  0  0  0  0  0  0
    3.7500    5.6230   -2.0608 N   0  0  0  0  0  0  0  0  0  0  0  0
  1  2  1  6  0  0  0
  1  7  1  0  0  0  0
  1 30  1  0  0  0  0
  3  4  1  1  0  0  0
  3  9  1  0  0  0  0
  3 39  1  0  0  0  0
  5 10  1  0  0  0  0
  5 26  1  0  0  0  0
  5 32  1  6  0  0  0
  6 12  1  0  0  0  0
  6 36  1  0  0  0  0
  6 19  1  1  0  0  0
  7  8  1  6  0  0  0
  7 14  1  0  0  0  0
  9 16  1  0  0  0  0
 10 11  1  1  0  0  0
 10 18  1  0  0  0  0
 12 13  1  1  0  0  0
 12 20  1  0  0  0  0
 14 15  1  1  0  0  0
 14 22  1  0  0  0  0
 16 17  1  1  0  0  0
 16 24  1  0  0  0  0
 18 19  1  1  0  0  0
 18 25  1  0  0  0  0
 20 21  1  6  0  0  0
 20 27  1  0  0  0  0
 22 23  1  6  0  0  0
 22 29  1  0  0  0  0
 24  2  1  6  0  0  0
 24 31  1  0  0  0  0
 25 26  1  0  0  0  0
 25 33  1  6  0  0  0
 27 28  1  1  0  0  0
 27 35  1  0  0  0  0
 29 30  1  0  0  0  0
 29 37  1  1  0  0  0
 31 32  1  6  0  0  0
 31 39  1  0  0  0  0
 33 34  1  0  0  0  0
 35 36  1  0  0  0  0
 35 41  1  1  0  0  0
 37 38  1  0  0  0  0
 39 40  1  6  0  0  0
 41 42  1  0  0  0  0
M  END
>  <CHROM.1>
-73.42548552,-72.02947433,163.17348088,-163.75615111,-62.76393004,64.16803316
87.90908059,68.58048535,179.81796389,7.17151140,4.87903466,2.98435622,0.66106630
-1.32802409,1.29749441

>  <Name>
ligand

>  <RI>
0

>  <Rbt.Current_Directory>
/home/itssahil/PROJECTS/Mol_Feturizer/Test_systems_manuscript/rnas/2o3w

>  <Rbt.Executable>
rbdock ($Id: //depot/dev/client3/rdock/2013.1/src/exe/rbdock.cxx#4 $)

>  <Rbt.Library>
libRbt.so (2013.1, Build901 2013/11/27)

>  <Rbt.Parameter_File>
/export/apps/rDock/src/rDock_2013.1_src/data/scripts/dock_solv.prm

>  <Rbt.Receptor>
prm/pocket_docking_5.prm

>  <SCORE>
-8.99494

>  <SCORE.INTER>
-0.544533

>  <SCORE.INTER.CONST>
1

>  <SCORE.INTER.POLAR>
0

>  <SCORE.INTER.ROT>
9

>  <SCORE.INTER.SOLV>
15.917

>  <SCORE.INTER.VDW>
-15.2687

>  <SCORE.INTER.norm>
-0.0129651

>  <SCORE.INTRA>
-8.4504

>  <SCORE.INTRA.DIHEDRAL>
-20.0438

>  <SCORE.INTRA.DIHEDRAL.0>
27.8999

>  <SCORE.INTRA.POLAR>
0

>  <SCORE.INTRA.POLAR.0>
0

>  <SCORE.INTRA.REPUL>
0.00159998

>  <SCORE.INTRA.REPUL.0>
0

>  <SCORE.INTRA.SOLV>
0.31288

>  <SCORE.INTRA.SOLV.lig_0>
-104.479

>  <SCORE.INTRA.VDW>
1.40705

>  <SCORE.INTRA.VDW.0>
-6.17816

>  <SCORE.INTRA.norm>
-0.2012

>  <SCORE.RESTR>
0

>  <SCORE.RESTR.CAVITY>
0

>  <SCORE.RESTR.norm>
0

>  <SCORE.SYSTEM>
0

>  <SCORE.SYSTEM.CONST>
0

>  <SCORE.SYSTEM.DIHEDRAL>
0

>  <SCORE.SYSTEM.SOLV>
0

>  <SCORE.SYSTEM.norm>
0

>  <SCORE.heavy>
42

>  <SCORE.norm>
-0.214165

>  <RMSD>
5.348

$$$$
ligand
 OpenBabel02271912133D
libRbt.so/2013.1/901 2013/11/27
 42 45  0  0  0  0  0  0  0  0999 V2000
    4.1059    1.5392    4.0767 C   0  0  2  0  0  0  0  0  0  0  0  0
    5.1225    0.9666    3.2366 O   0  0  0  0  0  0  0  0  0  0  0  0
    9.4435    1.0934    3.5675 C   0  0  2  0  0  0  0  0  0  0  0  0
   10.8552    1.5740    3.6480 N   0  0  0  0  0  0  0  0  0  0  0  0
    6.3545    3.5403    5.5656 C   0  0  1  0  0  0  0  0  0  0  0  0
    6.1484    6.4218    4.8924 C   0  0  1  0  0  0  0  0  0  0  0  0
    2.8104    0.7011    3.8591 C   0  0  2  0  0  0  0  0  0  0  0  0
    3.0494   -0.7477    3.9797 N   0  0  0  0  0  0  0  0  0  0  0  0
    8.8039    1.4242    2.1592 C   0  0  0  0  0  0  0  0  0  0  0  0
    5.3958    4.1884    6.6103 C   0  0  2  0  0  0  0  0  0  0  0  0
    4.0947    4.5392    6.0782 O   0  0  0  0  0  0  0  0  0  0  0  0
    7.6300    6.3141    4.3805 C   0  0  2  0  0  0  0  0  0  0  0  0
    8.4395    7.4821    4.8404 N   0  0  0  0  0  0  0  0  0  0  0  0
    2.1894    0.9352    2.4697 C   0  0  1  0  0  0  0  0  0  0  0  0
    0.9854    0.1793    2.3292 O   0  0  0  0  0  0  0  0  0  0  0  0
    7.3276    0.8747    2.1274 C   0  0  2  0  0  0  0  0  0  0  0  0
    6.6989    1.1563    0.8087 N   0  0  0  0  0  0  0  0  0  0  0  0
    6.2455    5.3591    7.1071 C   0  0  2  0  0  0  0  0  0  0  0  0
    6.0164    6.5658    6.3121 O   0  0  0  0  0  0  0  0  0  0  0  0
    7.6306    6.2072    2.7819 C   0  0  1  0  0  0  0  0  0  0  0  0
    7.1766    4.8887    2.4017 O   0  0  0  0  0  0  0  0  0  0  0  0
    1.9341    2.4461    2.2670 C   0  0  2  0  0  0  0  0  0  0  0  0
    1.3500    2.6757    1.0058 O   0  0  0  0  0  0  0  0  0  0  0  0
    6.4645    1.5303    3.2769 C   0  0  2  0  0  0  0  0  0  0  0  0
    7.7083    4.8947    7.0062 C   0  0  2  0  0  0  0  0  0  0  0  0
    7.6851    3.9995    5.8969 O   0  0  0  0  0  0  0  0  0  0  0  0
    6.7060    7.3143    2.0841 C   0  0  2  0  0  0  0  0  0  0  0  0
    7.3325    8.5821    2.2759 O   0  0  0  0  0  0  0  0  0  0  0  0
    3.2912    3.2151    2.3963 C   0  0  2  0  0  0  0  0  0  0  0  0
    3.8818    2.9535    3.7087 O   0  0  0  0  0  0  0  0  0  0  0  0
    7.0614    1.2958    4.6819 C   0  0  2  0  0  0  0  0  0  0  0  0
    6.2575    2.1101    5.5792 O   0  0  0  0  0  0  0  0  0  0  0  0
    8.2653    4.1920    8.2830 C   0  0  0  0  0  0  0  0  0  0  0  0
    9.6128    3.7932    8.0505 O   0  0  0  0  0  0  0  0  0  0  0  0
    5.2648    7.3164    2.7206 C   0  0  1  0  0  0  0  0  0  0  0  0
    5.4546    7.5525    4.1623 O   0  0  0  0  0  0  0  0  0  0  0  0
    3.1333    4.7074    2.2174 C   0  0  0  0  0  0  0  0  0  0  0  0
    2.3939    5.2481    3.2852 O   0  0  0  0  0  0  0  0  0  0  0  0
    8.5799    1.7526    4.7165 C   0  0  1  0  0  0  0  0  0  0  0  0
    9.1738    1.3967    5.9680 O   0  0  0  0  0  0  0  0  0  0  0  0
    4.2880    8.4115    2.1082 C   0  0  0  0  0  0  0  0  0  0  0  0
    3.9250    8.2200    0.6771 N   0  0  0  0  0  0  0  0  0  0  0  0
  1  2  1  6  0  0  0
  1  7  1  0  0  0  0
  1 30  1  0  0  0  0
  3  4  1  6  0  0  0
  3  9  1  0  0  0  0
  3 39  1  0  0  0  0
  5 10  1  0  0  0  0
  5 26  1  0  0  0  0
  5 32  1  1  0  0  0
  6 12  1  0  0  0  0
  6 36  1  0  0  0  0
  6 19  1  1  0  0  0
  7  8  1  6  0  0  0
  7 14  1  0  0  0  0
  9 16  1  0  0  0  0
 10 11  1  6  0  0  0
 10 18  1  0  0  0  0
 12 13  1  6  0  0  0
 12 20  1  0  0  0  0
 14 15  1  1  0  0  0
 14 22  1  0  0  0  0
 16 17  1  6  0  0  0
 16 24  1  0  0  0  0
 18 19  1  6  0  0  0
 18 25  1  0  0  0  0
 20 21  1  1  0  0  0
 20 27  1  0  0  0  0
 22 23  1  6  0  0  0
 22 29  1  0  0  0  0
 24  2  1  1  0  0  0
 24 31  1  0  0  0  0
 25 26  1  0  0  0  0
 25 33  1  1  0  0  0
 27 28  1  1  0  0  0
 27 35  1  0  0  0  0
 29 30  1  0  0  0  0
 29 37  1  1  0  0  0
 31 32  1  1  0  0  0
 31 39  1  0  0  0  0
 33 34  1  0  0  0  0
 35 36  1  0  0  0  0
 35 41  1  6  0  0  0
 37 38  1  0  0  0  0
 39 40  1  1  0  0  0
 41 42  1  0  0  0  0
M  END
>  <CHROM.1>
-177.82384925,-171.88619491,-52.36298924,-75.02275473,178.99054245,67.12765132
-70.98421845,179.85289885,65.53769118,5.84404177,3.79781493,3.95703838,-2.58943878
-0.52607046,-0.04724130

>  <Name>
ligand

>  <RI>
0

>  <Rbt.Current_Directory>
/home/itssahil/PROJECTS/Mol_Feturizer/Test_systems_manuscript/rnas/2o3w

>  <Rbt.Executable>
rbdock ($Id: //depot/dev/client3/rdock/2013.1/src/exe/rbdock.cxx#4 $)

>  <Rbt.Library>
libRbt.so (2013.1, Build901 2013/11/27)

>  <Rbt.Parameter_File>
/export/apps/rDock/src/rDock_2013.1_src/data/scripts/dock_solv.prm

>  <Rbt.Receptor>
prm/pocket_docking_7.prm

>  <SCORE>
-15.1061

>  <SCORE.INTER>
-3.59907

>  <SCORE.INTER.CONST>
1

>  <SCORE.INTER.POLAR>
0

>  <SCORE.INTER.ROT>
9

>  <SCORE.INTER.SOLV>
14.8157

>  <SCORE.INTER.VDW>
-16.938

>  <SCORE.INTER.norm>
-0.0856922

>  <SCORE.INTRA>
-11.507

>  <SCORE.INTRA.DIHEDRAL>
-25.2046

>  <SCORE.INTRA.DIHEDRAL.0>
27.8999

>  <SCORE.INTRA.POLAR>
0

>  <SCORE.INTRA.POLAR.0>
0

>  <SCORE.INTRA.REPUL>
0

>  <SCORE.INTRA.REPUL.0>
0

>  <SCORE.INTRA.SOLV>
-0.593079

>  <SCORE.INTRA.SOLV.lig_0>
-104.479

>  <SCORE.INTRA.VDW>
1.39183

>  <SCORE.INTRA.VDW.0>
-6.17816

>  <SCORE.INTRA.norm>
-0.273976

>  <SCORE.RESTR>
0

>  <SCORE.RESTR.CAVITY>
0

>  <SCORE.RESTR.norm>
0

>  <SCORE.SYSTEM>
0

>  <SCORE.SYSTEM.CONST>
0

>  <SCORE.SYSTEM.DIHEDRAL>
0

>  <SCORE.SYSTEM.SOLV>
0

>  <SCORE.SYSTEM.norm>
0

>  <SCORE.heavy>
42

>  <SCORE.norm>
-0.359668

>  <RMSD>
5.365

$$$$
ligand
 OpenBabel02271912133D
libRbt.so/2013.1/901 2013/11/27
 42 45  0  0  0  0  0  0  0  0999 V2000
    6.8086   -0.3069    4.2279 C   0  0  2  0  0  0  0  0  0  0  0  0
    5.8624   -1.1741    3.5798 O   0  0  0  0  0  0  0  0  0  0  0  0
    1.5347   -1.2554    3.3342 C   0  0  2  0  0  0  0  0  0  0  0  0
    0.0842   -1.2249    3.6887 N   0  0  0  0  0  0  0  0  0  0  0  0
    4.8269    2.3964    3.4304 C   0  0  1  0  0  0  0  0  0  0  0  0
    4.2174    6.3546    1.3611 C   0  0  1  0  0  0  0  0  0  0  0  0
    8.1246   -0.3662    3.3956 C   0  0  2  0  0  0  0  0  0  0  0  0
    7.8912   -0.1558    1.9562 N   0  0  0  0  0  0  0  0  0  0  0  0
    2.2579   -2.5038    3.9826 C   0  0  0  0  0  0  0  0  0  0  0  0
    3.5852    3.1959    2.9306 C   0  0  2  0  0  0  0  0  0  0  0  0
    3.1561    2.8423    1.5928 O   0  0  0  0  0  0  0  0  0  0  0  0
    4.4507    7.6264    2.2540 C   0  0  2  0  0  0  0  0  0  0  0  0
    3.8961    7.4239    3.6260 N   0  0  0  0  0  0  0  0  0  0  0  0
    8.8443   -1.7202    3.5362 C   0  0  1  0  0  0  0  0  0  0  0  0
   10.0626   -1.7157    2.7901 O   0  0  0  0  0  0  0  0  0  0  0  0
    3.7745   -2.4935    3.5557 C   0  0  2  0  0  0  0  0  0  0  0  0
    4.4838   -3.6649    4.1374 N   0  0  0  0  0  0  0  0  0  0  0  0
    4.0664    4.6363    3.1127 C   0  0  2  0  0  0  0  0  0  0  0  0
    4.7344    5.1364    1.9109 O   0  0  0  0  0  0  0  0  0  0  0  0
    3.7836    8.8992    1.5456 C   0  0  1  0  0  0  0  0  0  0  0  0
    4.5950    9.2818    0.4124 O   0  0  0  0  0  0  0  0  0  0  0  0
    9.0995   -2.0156    5.0318 C   0  0  2  0  0  0  0  0  0  0  0  0
    9.7730   -3.2443    5.1767 O   0  0  0  0  0  0  0  0  0  0  0  0
    4.4772   -1.1599    4.0285 C   0  0  2  0  0  0  0  0  0  0  0  0
    5.0253    4.6146    4.3150 C   0  0  2  0  0  0  0  0  0  0  0  0
    5.5942    3.3091    4.2485 O   0  0  0  0  0  0  0  0  0  0  0  0
    2.2812    8.6251    1.0609 C   0  0  2  0  0  0  0  0  0  0  0  0
    1.4681    8.5008    2.2271 O   0  0  0  0  0  0  0  0  0  0  0  0
    7.7293   -2.0434    5.7877 C   0  0  2  0  0  0  0  0  0  0  0  0
    7.0458   -0.7618    5.6145 O   0  0  0  0  0  0  0  0  0  0  0  0
    3.7881    0.1079    3.4778 C   0  0  2  0  0  0  0  0  0  0  0  0
    4.4390    1.2198    4.1518 O   0  0  0  0  0  0  0  0  0  0  0  0
    4.3504    4.8630    5.6996 C   0  0  0  0  0  0  0  0  0  0  0  0
    5.3392    4.8000    6.7230 O   0  0  0  0  0  0  0  0  0  0  0  0
    2.2063    7.3071    0.2010 C   0  0  1  0  0  0  0  0  0  0  0  0
    2.7398    6.2310    1.0541 O   0  0  0  0  0  0  0  0  0  0  0  0
    7.8857   -2.3209    7.2650 C   0  0  0  0  0  0  0  0  0  0  0  0
    8.5944   -1.2741    7.8825 O   0  0  0  0  0  0  0  0  0  0  0  0
    2.2376    0.0785    3.8107 C   0  0  1  0  0  0  0  0  0  0  0  0
    1.5750    1.1734    3.1722 O   0  0  0  0  0  0  0  0  0  0  0  0
    0.7408    6.9397   -0.2949 C   0  0  0  0  0  0  0  0  0  0  0  0
    0.6369    5.7221   -1.1453 N   0  0  0  0  0  0  0  0  0  0  0  0
  1  2  1  6  0  0  0
  1  7  1  0  0  0  0
  1 30  1  0  0  0  0
  3  4  1  1  0  0  0
  3  9  1  0  0  0  0
  3 39  1  0  0  0  0
  5 10  1  0  0  0  0
  5 26  1  0  0  0  0
  5 32  1  1  0  0  0
  6 12  1  0  0  0  0
  6 36  1  0  0  0  0
  6 19  1  1  0  0  0
  7  8  1  6  0  0  0
  7 14  1  0  0  0  0
  9 16  1  0  0  0  0
 10 11  1  6  0  0  0
 10 18  1  0  0  0  0
 12 13  1  1  0  0  0
 12 20  1  0  0  0  0
 14 15  1  6  0  0  0
 14 22  1  0  0  0  0
 16 17  1  1  0  0  0
 16 24  1  0  0  0  0
 18 19  1  6  0  0  0
 18 25  1  0  0  0  0
 20 21  1  6  0  0  0
 20 27  1  0  0  0  0
 22 23  1  6  0  0  0
 22 29  1  0  0  0  0
 24  2  1  6  0  0  0
 24 31  1  0  0  0  0
 25 26  1  0  0  0  0
 25 33  1  1  0  0  0
 27 28  1  1  0  0  0
 27 35  1  0  0  0  0
 29 30  1  0  0  0  0
 29 37  1  1  0  0  0
 31 32  1  1  0  0  0
 31 39  1  0  0  0  0
 33 34  1  0  0  0  0
 35 36  1  0  0  0  0
 35 41  1  1  0  0  0
 37 38  1  0  0  0  0
 39 40  1  6  0  0  0
 41 42  1  0  0  0  0
M  END
>  <CHROM.1>
-170.89945569,-160.36329970,125.04346377,67.97129738,179.24578822,64.36649387
136.22429956,67.73921100,178.23184225,4.74355270,2.19847302,3.34767488,-1.13126337
-0.32902098,-0.20588340

>  <Name>
ligand

>  <RI>
0

>  <Rbt.Current_Directory>
/home/itssahil/PROJECTS/Mol_Feturizer/Test_systems_manuscript/rnas/2o3w

>  <Rbt.Executable>
rbdock ($Id: //depot/dev/client3/rdock/2013.1/src/exe/rbdock.cxx#4 $)

>  <Rbt.Library>
libRbt.so (2013.1, Build901 2013/11/27)

>  <Rbt.Parameter_File>
/export/apps/rDock/src/rDock_2013.1_src/data/scripts/dock_solv.prm

>  <Rbt.Receptor>
prm/pocket_docking_5.prm

>  <SCORE>
-8.4603

>  <SCORE.INTER>
-2.86823

>  <SCORE.INTER.CONST>
1

>  <SCORE.INTER.POLAR>
0

>  <SCORE.INTER.ROT>
9

>  <SCORE.INTER.SOLV>
17.1419

>  <SCORE.INTER.VDW>
-17.2261

>  <SCORE.INTER.norm>
-0.0682911

>  <SCORE.INTRA>
-5.59207

>  <SCORE.INTRA.DIHEDRAL>
-11.9173

>  <SCORE.INTRA.DIHEDRAL.0>
27.8999

>  <SCORE.INTRA.POLAR>
0

>  <SCORE.INTRA.POLAR.0>
0

>  <SCORE.INTRA.REPUL>
0

>  <SCORE.INTRA.REPUL.0>
0

>  <SCORE.INTRA.SOLV>
-2.38152

>  <SCORE.INTRA.SOLV.lig_0>
-104.479

>  <SCORE.INTRA.VDW>
1.55736

>  <SCORE.INTRA.VDW.0>
-6.17816

>  <SCORE.INTRA.norm>
-0.133145

>  <SCORE.RESTR>
0

>  <SCORE.RESTR.CAVITY>
0

>  <SCORE.RESTR.norm>
0

>  <SCORE.SYSTEM>
0

>  <SCORE.SYSTEM.CONST>
0

>  <SCORE.SYSTEM.DIHEDRAL>
0

>  <SCORE.SYSTEM.SOLV>
0

>  <SCORE.SYSTEM.norm>
0

>  <SCORE.heavy>
42

>  <SCORE.norm>
-0.201436

>  <RMSD>
5.395

$$$$
ligand
 OpenBabel02271912133D
libRbt.so/2013.1/901 2013/11/27
 42 45  0  0  0  0  0  0  0  0999 V2000
    8.3404    2.9457    4.9279 C   0  0  2  0  0  0  0  0  0  0  0  0
    9.1443    4.1073    4.6604 O   0  0  0  0  0  0  0  0  0  0  0  0
    9.5681    6.3241    0.9587 C   0  0  2  0  0  0  0  0  0  0  0  0
    9.8964    6.7038   -0.4479 N   0  0  0  0  0  0  0  0  0  0  0  0
    6.2080    3.1480    2.1498 C   0  0  1  0  0  0  0  0  0  0  0  0
    3.3346    3.3399    1.2015 C   0  0  1  0  0  0  0  0  0  0  0  0
    8.0160    2.9580    6.4520 C   0  0  2  0  0  0  0  0  0  0  0  0
    7.4956    4.2590    6.9071 N   0  0  0  0  0  0  0  0  0  0  0  0
   10.8784    6.0330    1.7954 C   0  0  0  0  0  0  0  0  0  0  0  0
    5.8422    1.7007    1.7002 C   0  0  2  0  0  0  0  0  0  0  0  0
    5.8580    1.5079    0.2644 O   0  0  0  0  0  0  0  0  0  0  0  0
    2.6172    4.2246    2.2839 C   0  0  2  0  0  0  0  0  0  0  0  0
    1.2365    3.7227    2.5533 N   0  0  0  0  0  0  0  0  0  0  0  0
    9.2526    2.6470    7.3152 C   0  0  1  0  0  0  0  0  0  0  0  0
    8.9011    2.6297    8.6997 O   0  0  0  0  0  0  0  0  0  0  0  0
   10.4695    5.6611    3.2709 C   0  0  2  0  0  0  0  0  0  0  0  0
   11.6812    5.3944    4.0920 N   0  0  0  0  0  0  0  0  0  0  0  0
    4.4842    1.5133    2.3786 C   0  0  2  0  0  0  0  0  0  0  0  0
    3.3861    1.9418    1.5119 O   0  0  0  0  0  0  0  0  0  0  0  0
    2.5893    5.7478    1.7879 C   0  0  1  0  0  0  0  0  0  0  0  0
    3.9190    6.3019    1.9058 O   0  0  0  0  0  0  0  0  0  0  0  0
    9.8653    1.2991    6.8715 C   0  0  2  0  0  0  0  0  0  0  0  0
   10.9890    0.9917    7.6635 O   0  0  0  0  0  0  0  0  0  0  0  0
    9.5296    4.3913    3.2851 C   0  0  2  0  0  0  0  0  0  0  0  0
    4.5351    2.3495    3.6684 C   0  0  2  0  0  0  0  0  0  0  0  0
    5.4049    3.4241    3.3202 O   0  0  0  0  0  0  0  0  0  0  0  0
    2.0769    5.9008    0.2774 C   0  0  2  0  0  0  0  0  0  0  0  0
    0.6867    5.5794    0.2593 O   0  0  0  0  0  0  0  0  0  0  0  0
   10.2623    1.3915    5.3604 C   0  0  2  0  0  0  0  0  0  0  0  0
    9.0822    1.7206    4.5610 O   0  0  0  0  0  0  0  0  0  0  0  0
    8.2517    4.5827    2.4391 C   0  0  2  0  0  0  0  0  0  0  0  0
    7.6110    3.2775    2.4144 O   0  0  0  0  0  0  0  0  0  0  0  0
    5.0584    1.5886    4.9259 C   0  0  0  0  0  0  0  0  0  0  0  0
    6.3097    0.9804    4.6208 O   0  0  0  0  0  0  0  0  0  0  0  0
    2.8724    4.9349   -0.6799 C   0  0  1  0  0  0  0  0  0  0  0  0
    2.6796    3.5766   -0.1431 O   0  0  0  0  0  0  0  0  0  0  0  0
   10.8667    0.1085    4.8385 C   0  0  0  0  0  0  0  0  0  0  0  0
   11.2039    0.2488    3.4799 O   0  0  0  0  0  0  0  0  0  0  0  0
    8.6298    5.0512    0.9718 C   0  0  1  0  0  0  0  0  0  0  0  0
    7.4463    5.3736    0.2364 O   0  0  0  0  0  0  0  0  0  0  0  0
    2.4037    4.9974   -2.1982 C   0  0  0  0  0  0  0  0  0  0  0  0
    3.0938    4.0562   -3.1226 N   0  0  0  0  0  0  0  0  0  0  0  0
  1  2  1  1  0  0  0
  1  7  1  0  0  0  0
  1 30  1  0  0  0  0
  3  4  1  6  0  0  0
  3  9  1  0  0  0  0
  3 39  1  0  0  0  0
  5 10  1  0  0  0  0
  5 26  1  0  0  0  0
  5 32  1  1  0  0  0
  6 12  1  0  0  0  0
  6 36  1  0  0  0  0
  6 19  1  1  0  0  0
  7  8  1  1  0  0  0
  7 14  1  0  0  0  0
  9 16  1  0  0  0  0
 10 11  1  6  0  0  0
 10 18  1  0  0  0  0
 12 13  1  6  0  0  0
 12 20  1  0  0  0  0
 14 15  1  1  0  0  0
 14 22  1  0  0  0  0
 16 17  1  1  0  0  0
 16 24  1  0  0  0  0
 18 19  1  6  0  0  0
 18 25  1  0  0  0  0
 20 21  1  6  0  0  0
 20 27  1  0  0  0  0
 22 23  1  1  0  0  0
 22 29  1  0  0  0  0
 24  2  1  1  0  0  0
 24 31  1  0  0  0  0
 25 26  1  0  0  0  0
 25 33  1  1  0  0  0
 27 28  1  1  0  0  0
 27 35  1  0  0  0  0
 29 30  1  0  0  0  0
 29 37  1  6  0  0  0
 31 32  1  6  0  0  0
 31 39  1  0  0  0  0
 33 34  1  0  0  0  0
 35 36  1  0  0  0  0
 35 41  1  6  0  0  0
 37 38  1  0  0  0  0
 39 40  1  6  0  0  0
 41 42  1  0  0  0  0
M  END
>  <CHROM.1>
-176.39761952,-176.77871113,-65.52004744,-84.07881231,52.40424116,-179.97443112
157.56730848,160.71137560,-177.51469872,6.71061251,3.50786868,2.85110393
0.65406512,0.21066704,2.18973341

>  <Name>
ligand

>  <RI>
0

>  <Rbt.Current_Directory>
/home/itssahil/PROJECTS/Mol_Feturizer/Test_systems_manuscript/rnas/2o3w

>  <Rbt.Executable>
rbdock ($Id: //depot/dev/client3/rdock/2013.1/src/exe/rbdock.cxx#4 $)

>  <Rbt.Library>
libRbt.so (2013.1, Build901 2013/11/27)

>  <Rbt.Parameter_File>
/export/apps/rDock/src/rDock_2013.1_src/data/scripts/dock_solv.prm

>  <Rbt.Receptor>
prm/pocket_docking_5.prm

>  <SCORE>
-8.51269

>  <SCORE.INTER>
1.49804

>  <SCORE.INTER.CONST>
1

>  <SCORE.INTER.POLAR>
0

>  <SCORE.INTER.ROT>
9

>  <SCORE.INTER.SOLV>
18.3363

>  <SCORE.INTER.VDW>
-14.7134

>  <SCORE.INTER.norm>
0.0356676

>  <SCORE.INTRA>
-10.0129

>  <SCORE.INTRA.DIHEDRAL>
-20.8958

>  <SCORE.INTRA.DIHEDRAL.0>
27.8999

>  <SCORE.INTRA.POLAR>
0

>  <SCORE.INTRA.POLAR.0>
0

>  <SCORE.INTRA.REPUL>
0.0302329

>  <SCORE.INTRA.REPUL.0>
0

>  <SCORE.INTRA.SOLV>
-3.2782

>  <SCORE.INTRA.SOLV.lig_0>
-104.479

>  <SCORE.INTRA.VDW>
1.92292

>  <SCORE.INTRA.VDW.0>
-6.17816

>  <SCORE.INTRA.norm>
-0.238403

>  <SCORE.RESTR>
0.00219593

>  <SCORE.RESTR.CAVITY>
0.00219593

>  <SCORE.RESTR.norm>
5.2284e-05

>  <SCORE.SYSTEM>
0

>  <SCORE.SYSTEM.CONST>
0

>  <SCORE.SYSTEM.DIHEDRAL>
0

>  <SCORE.SYSTEM.SOLV>
0

>  <SCORE.SYSTEM.norm>
0

>  <SCORE.heavy>
42

>  <SCORE.norm>
-0.202683

>  <RMSD>
5.419

$$$$
ligand
 OpenBabel02271912133D
libRbt.so/2013.1/901 2013/11/27
 42 45  0  0  0  0  0  0  0  0999 V2000
    8.8973    0.2413    5.0334 C   0  0  2  0  0  0  0  0  0  0  0  0
    7.4948   -0.0266    5.2024 O   0  0  0  0  0  0  0  0  0  0  0  0
    6.6726   -1.4851    1.2033 C   0  0  2  0  0  0  0  0  0  0  0  0
    5.9990   -2.0873    0.0142 N   0  0  0  0  0  0  0  0  0  0  0  0
    5.1040    2.5154    2.9612 C   0  0  1  0  0  0  0  0  0  0  0  0
    3.2224    6.3760    1.9754 C   0  0  1  0  0  0  0  0  0  0  0  0
    9.4013    0.8828    6.3610 C   0  0  2  0  0  0  0  0  0  0  0  0
    8.9997    0.1094    7.5489 N   0  0  0  0  0  0  0  0  0  0  0  0
    6.8823   -2.5563    2.3480 C   0  0  0  0  0  0  0  0  0  0  0  0
    3.6069    2.8307    3.2612 C   0  0  2  0  0  0  0  0  0  0  0  0
    2.6808    2.2542    2.3077 O   0  0  0  0  0  0  0  0  0  0  0  0
    2.4408    6.9216    0.7263 C   0  0  2  0  0  0  0  0  0  0  0  0
    3.0781    6.4624   -0.5441 N   0  0  0  0  0  0  0  0  0  0  0  0
    8.8655    2.3127    6.5593 C   0  0  1  0  0  0  0  0  0  0  0  0
    9.3835    2.8751    7.7660 O   0  0  0  0  0  0  0  0  0  0  0  0
    7.6148   -1.8692    3.5620 C   0  0  2  0  0  0  0  0  0  0  0  0
    7.8418   -2.8540    4.6539 N   0  0  0  0  0  0  0  0  0  0  0  0
    3.6312    4.3589    3.3199 C   0  0  2  0  0  0  0  0  0  0  0  0
    3.3786    4.9518    2.0064 O   0  0  0  0  0  0  0  0  0  0  0  0
    2.3833    8.5212    0.7959 C   0  0  1  0  0  0  0  0  0  0  0  0
    1.4439    8.9107    1.8229 O   0  0  0  0  0  0  0  0  0  0  0  0
    9.2332    3.1761    5.3310 C   0  0  2  0  0  0  0  0  0  0  0  0
    8.7641    4.4930    5.5044 O   0  0  0  0  0  0  0  0  0  0  0  0
    6.7649   -0.6558    4.1108 C   0  0  2  0  0  0  0  0  0  0  0  0
    5.0252    4.7413    3.8452 C   0  0  2  0  0  0  0  0  0  0  0  0
    5.8523    3.6876    3.3574 O   0  0  0  0  0  0  0  0  0  0  0  0
    3.8115    9.1824    1.0972 C   0  0  2  0  0  0  0  0  0  0  0  0
    4.6293    8.9857   -0.0556 O   0  0  0  0  0  0  0  0  0  0  0  0
    8.6094    2.5312    4.0485 C   0  0  2  0  0  0  0  0  0  0  0  0
    9.1037    1.1629    3.8959 O   0  0  0  0  0  0  0  0  0  0  0  0
    6.4716    0.4074    3.0296 C   0  0  2  0  0  0  0  0  0  0  0  0
    5.5414    1.3368    3.6503 O   0  0  0  0  0  0  0  0  0  0  0  0
    5.1323    4.8666    5.3967 C   0  0  0  0  0  0  0  0  0  0  0  0
    4.9469    3.5832    5.9861 O   0  0  0  0  0  0  0  0  0  0  0  0
    4.4780    8.5147    2.3590 C   0  0  1  0  0  0  0  0  0  0  0  0
    4.5633    7.0741    2.0625 O   0  0  0  0  0  0  0  0  0  0  0  0
    8.9259    3.3105    2.7931 C   0  0  0  0  0  0  0  0  0  0  0  0
    8.4126    4.6168    2.8909 O   0  0  0  0  0  0  0  0  0  0  0  0
    5.8195   -0.2726    1.7537 C   0  0  1  0  0  0  0  0  0  0  0  0
    5.6879    0.6834    0.6980 O   0  0  0  0  0  0  0  0  0  0  0  0
    5.9183    9.0895    2.7110 C   0  0  0  0  0  0  0  0  0  0  0  0
    6.5880    8.4682    3.8866 N   0  0  0  0  0  0  0  0  0  0  0  0
  1  2  1  1  0  0  0
  1  7  1  0  0  0  0
  1 30  1  0  0  0  0
  3  4  1  6  0  0  0
  3  9  1  0  0  0  0
  3 39  1  0  0  0  0
  5 10  1  0  0  0  0
  5 26  1  0  0  0  0
  5 32  1  1  0  0  0
  6 12  1  0  0  0  0
  6 36  1  0  0  0  0
  6 19  1  6  0  0  0
  7  8  1  1  0  0  0
  7 14  1  0  0  0  0
  9 16  1  0  0  0  0
 10 11  1  6  0  0  0
 10 18  1  0  0  0  0
 12 13  1  6  0  0  0
 12 20  1  0  0  0  0
 14 15  1  1  0  0  0
 14 22  1  0  0  0  0
 16 17  1  1  0  0  0
 16 24  1  0  0  0  0
 18 19  1  6  0  0  0
 18 25  1  0  0  0  0
 20 21  1  1  0  0  0
 20 27  1  0  0  0  0
 22 23  1  1  0  0  0
 22 29  1  0  0  0  0
 24  2  1  1  0  0  0
 24 31  1  0  0  0  0
 25 26  1  0  0  0  0
 25 33  1  1  0  0  0
 27 28  1  6  0  0  0
 27 35  1  0  0  0  0
 29 30  1  0  0  0  0
 29 37  1  6  0  0  0
 31 32  1  1  0  0  0
 31 39  1  0  0  0  0
 33 34  1  0  0  0  0
 35 36  1  0  0  0  0
 35 41  1  6  0  0  0
 37 38  1  0  0  0  0
 39 40  1  6  0  0  0
 41 42  1  0  0  0  0
M  END
>  <CHROM.1>
-178.91895566,45.86567548,172.89613410,-158.01262376,66.58961837,-60.49173845
176.16254438,142.99418061,-179.15568290,6.02677180,3.33445164,3.27330351
-0.88114061,-0.79106793,0.20320840

>  <Name>
ligand

>  <RI>
0

>  <Rbt.Current_Directory>
/home/itssahil/PROJECTS/Mol_Feturizer/Test_systems_manuscript/rnas/2o3w

>  <Rbt.Executable>
rbdock ($Id: //depot/dev/client3/rdock/2013.1/src/exe/rbdock.cxx#4 $)

>  <Rbt.Library>
libRbt.so (2013.1, Build901 2013/11/27)

>  <Rbt.Parameter_File>
/export/apps/rDock/src/rDock_2013.1_src/data/scripts/dock_solv.prm

>  <Rbt.Receptor>
prm/pocket_docking_4.prm

>  <SCORE>
-11.5431

>  <SCORE.INTER>
-0.874839

>  <SCORE.INTER.CONST>
1

>  <SCORE.INTER.POLAR>
0

>  <SCORE.INTER.ROT>
9

>  <SCORE.INTER.SOLV>
15.7617

>  <SCORE.INTER.VDW>
-15.4371

>  <SCORE.INTER.norm>
-0.0208295

>  <SCORE.INTRA>
-10.6683

>  <SCORE.INTRA.DIHEDRAL>
-19.3567

>  <SCORE.INTRA.DIHEDRAL.0>
27.8999

>  <SCORE.INTRA.POLAR>
0

>  <SCORE.INTRA.POLAR.0>
0

>  <SCORE.INTRA.REPUL>
0

>  <SCORE.INTRA.REPUL.0>
0

>  <SCORE.INTRA.SOLV>
-2.61416

>  <SCORE.INTRA.SOLV.lig_0>
-104.479

>  <SCORE.INTRA.VDW>
0.317181

>  <SCORE.INTRA.VDW.0>
-6.17816

>  <SCORE.INTRA.norm>
-0.254006

>  <SCORE.RESTR>
0

>  <SCORE.RESTR.CAVITY>
0

>  <SCORE.RESTR.norm>
0

>  <SCORE.SYSTEM>
0

>  <SCORE.SYSTEM.CONST>
0

>  <SCORE.SYSTEM.DIHEDRAL>
0

>  <SCORE.SYSTEM.SOLV>
0

>  <SCORE.SYSTEM.norm>
0

>  <SCORE.heavy>
42

>  <SCORE.norm>
-0.274836

>  <RMSD>
5.441

$$$$
ligand
 OpenBabel02271912133D
libRbt.so/2013.1/901 2013/11/27
 42 45  0  0  0  0  0  0  0  0999 V2000
   11.6180    0.9552    6.0112 C   0  0  2  0  0  0  0  0  0  0  0  0
   10.4315    0.4104    6.6135 O   0  0  0  0  0  0  0  0  0  0  0  0
    9.4449   -2.4099    3.4721 C   0  0  2  0  0  0  0  0  0  0  0  0
    8.7569   -3.4552    2.6569 N   0  0  0  0  0  0  0  0  0  0  0  0
    7.9595    2.1582    4.3021 C   0  0  1  0  0  0  0  0  0  0  0  0
    6.5926    5.7359    2.6572 C   0  0  1  0  0  0  0  0  0  0  0  0
   12.4916    1.5304    7.1662 C   0  0  2  0  0  0  0  0  0  0  0  0
   12.6735    0.5692    8.2679 N   0  0  0  0  0  0  0  0  0  0  0  0
    9.9385   -2.9944    4.8565 C   0  0  0  0  0  0  0  0  0  0  0  0
    6.8884    2.0179    3.1780 C   0  0  2  0  0  0  0  0  0  0  0  0
    7.4345    1.6583    1.8851 O   0  0  0  0  0  0  0  0  0  0  0  0
    5.0835    6.0865    2.9193 C   0  0  2  0  0  0  0  0  0  0  0  0
    4.2290    5.6567    1.7721 N   0  0  0  0  0  0  0  0  0  0  0  0
   11.8814    2.8028    7.7823 C   0  0  1  0  0  0  0  0  0  0  0  0
   12.7332    3.3167    8.8076 O   0  0  0  0  0  0  0  0  0  0  0  0
   10.6734   -1.8547    5.6587 C   0  0  2  0  0  0  0  0  0  0  0  0
   11.1648   -2.3745    6.9632 N   0  0  0  0  0  0  0  0  0  0  0  0
    6.2013    3.3825    3.2504 C   0  0  2  0  0  0  0  0  0  0  0  0
    6.8427    4.3554    2.3655 O   0  0  0  0  0  0  0  0  0  0  0  0
    4.9445    7.6608    3.1824 C   0  0  1  0  0  0  0  0  0  0  0  0
    5.4655    7.9627    4.4962 O   0  0  0  0  0  0  0  0  0  0  0  0
   11.6411    3.8497    6.6708 C   0  0  2  0  0  0  0  0  0  0  0  0
   11.0981    5.0273    7.2212 O   0  0  0  0  0  0  0  0  0  0  0  0
    9.7026   -0.6332    5.9065 C   0  0  2  0  0  0  0  0  0  0  0  0
    6.2888    3.8243    4.7209 C   0  0  2  0  0  0  0  0  0  0  0  0
    7.5051    3.2269    5.1639 O   0  0  0  0  0  0  0  0  0  0  0  0
    5.7095    8.5446    2.0863 C   0  0  2  0  0  0  0  0  0  0  0  0
    5.0040    8.4076    0.8535 O   0  0  0  0  0  0  0  0  0  0  0  0
   10.6751    3.2436    5.5989 C   0  0  2  0  0  0  0  0  0  0  0  0
   11.2560    2.0185    5.0499 O   0  0  0  0  0  0  0  0  0  0  0  0
    9.1346   -0.0443    4.5966 C   0  0  2  0  0  0  0  0  0  0  0  0
    8.1373    0.9275    5.0155 O   0  0  0  0  0  0  0  0  0  0  0  0
    5.0883    3.3814    5.6137 C   0  0  0  0  0  0  0  0  0  0  0  0
    4.9541    1.9647    5.5525 O   0  0  0  0  0  0  0  0  0  0  0  0
    7.1983    8.0569    1.9197 C   0  0  1  0  0  0  0  0  0  0  0  0
    7.1237    6.6310    1.5572 O   0  0  0  0  0  0  0  0  0  0  0  0
   10.3890    4.2019    4.4659 C   0  0  0  0  0  0  0  0  0  0  0  0
   11.5925    4.6225    3.8710 O   0  0  0  0  0  0  0  0  0  0  0  0
    8.4712   -1.1893    3.7222 C   0  0  1  0  0  0  0  0  0  0  0  0
    8.0818   -0.6730    2.4465 O   0  0  0  0  0  0  0  0  0  0  0  0
    8.0240    8.8602    0.8235 C   0  0  0  0  0  0  0  0  0  0  0  0
    7.4839    8.7955   -0.5624 N   0  0  0  0  0  0  0  0  0  0  0  0
  1  2  1  1  0  0  0
  1  7  1  0  0  0  0
  1 30  1  0  0  0  0
  3  4  1  1  0  0  0
  3  9  1  0  0  0  0
  3 39  1  0  0  0  0
  5 10  1  0  0  0  0
  5 26  1  0  0  0  0
  5 32  1  1  0  0  0
  6 12  1  0  0  0  0
  6 36  1  0  0  0  0
  6 19  1  6  0  0  0
  7  8  1  1  0  0  0
  7 14  1  0  0  0  0
  9 16  1  0  0  0  0
 10 11  1  6  0  0  0
 10 18  1  0  0  0  0
 12 13  1  6  0  0  0
 12 20  1  0  0  0  0
 14 15  1  1  0  0  0
 14 22  1  0  0  0  0
 16 17  1  1  0  0  0
 16 24  1  0  0  0  0
 18 19  1  6  0  0  0
 18 25  1  0  0  0  0
 20 21  1  1  0  0  0
 20 27  1  0  0  0  0
 22 23  1  1  0  0  0
 22 29  1  0  0  0  0
 24  2  1  6  0  0  0
 24 31  1  0  0  0  0
 25 26  1  0  0  0  0
 25 33  1  1  0  0  0
 27 28  1  6  0  0  0
 27 35  1  0  0  0  0
 29 30  1  0  0  0  0
 29 37  1  6  0  0  0
 31 32  1  1  0  0  0
 31 39  1  0  0  0  0
 33 34  1  0  0  0  0
 35 36  1  0  0  0  0
 35 41  1  6  0  0  0
 37 38  1  0  0  0  0
 39 40  1  6  0  0  0
 41 42  1  0  0  0  0
M  END
>  <CHROM.1>
-155.77840729,58.36383158,-160.22189333,-46.92971735,56.57242322,55.82535041
142.91918151,91.02419078,-60.42956392,8.51732241,3.03672458,4.29617798,-0.91014452
-0.67790390,-0.01843728

>  <Name>
ligand

>  <RI>
0

>  <Rbt.Current_Directory>
/home/itssahil/PROJECTS/Mol_Feturizer/Test_systems_manuscript/rnas/2o3w

>  <Rbt.Executable>
rbdock ($Id: //depot/dev/client3/rdock/2013.1/src/exe/rbdock.cxx#4 $)

>  <Rbt.Library>
libRbt.so (2013.1, Build901 2013/11/27)

>  <Rbt.Parameter_File>
/export/apps/rDock/src/rDock_2013.1_src/data/scripts/dock_solv.prm

>  <Rbt.Receptor>
prm/pocket_docking_3.prm

>  <SCORE>
-1.01364

>  <SCORE.INTER>
3.4247

>  <SCORE.INTER.CONST>
1

>  <SCORE.INTER.POLAR>
0

>  <SCORE.INTER.ROT>
9

>  <SCORE.INTER.SOLV>
12.6275

>  <SCORE.INTER.VDW>
-11.526

>  <SCORE.INTER.norm>
0.0815405

>  <SCORE.INTRA>
-4.45202

>  <SCORE.INTRA.DIHEDRAL>
-13.8556

>  <SCORE.INTRA.DIHEDRAL.0>
27.8999

>  <SCORE.INTRA.POLAR>
0

>  <SCORE.INTRA.POLAR.0>
0

>  <SCORE.INTRA.REPUL>
0

>  <SCORE.INTRA.REPUL.0>
0

>  <SCORE.INTRA.SOLV>
0.0953007

>  <SCORE.INTRA.SOLV.lig_0>
-104.479

>  <SCORE.INTRA.VDW>
2.42811

>  <SCORE.INTRA.VDW.0>
-6.17816

>  <SCORE.INTRA.norm>
-0.106001

>  <SCORE.RESTR>
0.0136823

>  <SCORE.RESTR.CAVITY>
0.0136823

>  <SCORE.RESTR.norm>
0.00032577

>  <SCORE.SYSTEM>
0

>  <SCORE.SYSTEM.CONST>
0

>  <SCORE.SYSTEM.DIHEDRAL>
0

>  <SCORE.SYSTEM.SOLV>
0

>  <SCORE.SYSTEM.norm>
0

>  <SCORE.heavy>
42

>  <SCORE.norm>
-0.0241343

>  <RMSD>
5.455

$$$$
ligand
 OpenBabel02271912133D
libRbt.so/2013.1/901 2013/11/27
 42 45  0  0  0  0  0  0  0  0999 V2000
   10.7930    0.5021    5.2958 C   0  0  2  0  0  0  0  0  0  0  0  0
    9.8019    0.5418    6.3366 O   0  0  0  0  0  0  0  0  0  0  0  0
    6.9336   -2.1415    4.5012 C   0  0  2  0  0  0  0  0  0  0  0  0
    5.7297   -2.9889    4.2502 N   0  0  0  0  0  0  0  0  0  0  0  0
    6.4861    2.4698    4.7512 C   0  0  1  0  0  0  0  0  0  0  0  0
    3.8801    5.6028    3.2912 C   0  0  1  0  0  0  0  0  0  0  0  0
   11.9470    1.4550    5.7297 C   0  0  2  0  0  0  0  0  0  0  0  0
   12.4030    1.1975    7.1068 N   0  0  0  0  0  0  0  0  0  0  0  0
    7.7775   -2.6902    5.7213 C   0  0  0  0  0  0  0  0  0  0  0  0
    5.0231    2.5801    5.2787 C   0  0  2  0  0  0  0  0  0  0  0  0
    4.1076    1.6300    4.6801 O   0  0  0  0  0  0  0  0  0  0  0  0
    3.0094    5.7590    1.9926 C   0  0  2  0  0  0  0  0  0  0  0  0
    3.6230    5.0225    0.8472 N   0  0  0  0  0  0  0  0  0  0  0  0
   11.5354    2.9374    5.6674 C   0  0  1  0  0  0  0  0  0  0  0  0
   12.6335    3.7743    6.0343 O   0  0  0  0  0  0  0  0  0  0  0  0
    9.0416   -1.7713    5.9218 C   0  0  2  0  0  0  0  0  0  0  0  0
    9.8678   -2.2681    7.0550 N   0  0  0  0  0  0  0  0  0  0  0  0
    4.7195    4.0542    5.0062 C   0  0  2  0  0  0  0  0  0  0  0  0
    4.1380    4.2471    3.6775 O   0  0  0  0  0  0  0  0  0  0  0  0
    2.8418    7.3156    1.6525 C   0  0  1  0  0  0  0  0  0  0  0  0
    1.9217    7.9042    2.5990 O   0  0  0  0  0  0  0  0  0  0  0  0
   11.0215    3.2706    4.2482 C   0  0  2  0  0  0  0  0  0  0  0  0
   10.6562    4.6288    4.1698 O   0  0  0  0  0  0  0  0  0  0  0  0
    8.6064   -0.2779    6.1977 C   0  0  2  0  0  0  0  0  0  0  0  0
    6.0602    4.7956    5.1407 C   0  0  2  0  0  0  0  0  0  0  0  0
    7.0111    3.8170    4.7277 O   0  0  0  0  0  0  0  0  0  0  0  0
    4.2311    8.1132    1.6886 C   0  0  2  0  0  0  0  0  0  0  0  0
    5.0110    7.6707    0.5784 O   0  0  0  0  0  0  0  0  0  0  0  0
    9.7999    2.3494    3.9183 C   0  0  2  0  0  0  0  0  0  0  0  0
   10.2015    0.9462    4.0156 O   0  0  0  0  0  0  0  0  0  0  0  0
    7.7288    0.3082    5.0700 C   0  0  2  0  0  0  0  0  0  0  0  0
    7.2755    1.5965    5.5693 O   0  0  0  0  0  0  0  0  0  0  0  0
    6.3813    5.3202    6.5746 C   0  0  0  0  0  0  0  0  0  0  0  0
    7.6400    5.9867    6.5608 O   0  0  0  0  0  0  0  0  0  0  0  0
    4.9963    7.8360    3.0376 C   0  0  1  0  0  0  0  0  0  0  0  0
    5.1707    6.3753    3.1164 O   0  0  0  0  0  0  0  0  0  0  0  0
    9.2351    2.6041    2.5399 C   0  0  0  0  0  0  0  0  0  0  0  0
    8.7649    3.9266    2.4453 O   0  0  0  0  0  0  0  0  0  0  0  0
    6.4967   -0.6476    4.7803 C   0  0  1  0  0  0  0  0  0  0  0  0
    5.7707   -0.1845    3.6384 O   0  0  0  0  0  0  0  0  0  0  0  0
    6.4059    8.5643    3.1440 C   0  0  0  0  0  0  0  0  0  0  0  0
    7.4074    8.1791    2.1119 N   0  0  0  0  0  0  0  0  0  0  0  0
  1  2  1  1  0  0  0
  1  7  1  0  0  0  0
  1 30  1  0  0  0  0
  3  4  1  1  0  0  0
  3  9  1  0  0  0  0
  3 39  1  0  0  0  0
  5 10  1  0  0  0  0
  5 26  1  0  0  0  0
  5 32  1  1  0  0  0
  6 12  1  0  0  0  0
  6 36  1  0  0  0  0
  6 19  1  6  0  0  0
  7  8  1  1  0  0  0
  7 14  1  0  0  0  0
  9 16  1  0  0  0  0
 10 11  1  6  0  0  0
 10 18  1  0  0  0  0
 12 13  1  6  0  0  0
 12 20  1  0  0  0  0
 14 15  1  6  0  0  0
 14 22  1  0  0  0  0
 16 17  1  1  0  0  0
 16 24  1  0  0  0  0
 18 19  1  6  0  0  0
 18 25  1  0  0  0  0
 20 21  1  1  0  0  0
 20 27  1  0  0  0  0
 22 23  1  1  0  0  0
 22 29  1  0  0  0  0
 24  2  1  6  0  0  0
 24 31  1  0  0  0  0
 25 26  1  0  0  0  0
 25 33  1  1  0  0  0
 27 28  1  6  0  0  0
 27 35  1  0  0  0  0
 29 30  1  0  0  0  0
 29 37  1  6  0  0  0
 31 32  1  1  0  0  0
 31 39  1  0  0  0  0
 33 34  1  0  0  0  0
 35 36  1  0  0  0  0
 35 41  1  6  0  0  0
 37 38  1  0  0  0  0
 39 40  1  6  0  0  0
 41 42  1  0  0  0  0
M  END
>  <CHROM.1>
-179.27712604,53.13950255,-176.80779182,-168.71778625,-179.81317354,-61.69161541
176.57727115,110.74190740,-61.19498387,7.23996340,3.14148054,4.29238931,-0.94920658
-0.25894619,-0.23273580

>  <Name>
ligand

>  <RI>
0

>  <Rbt.Current_Directory>
/home/itssahil/PROJECTS/Mol_Feturizer/Test_systems_manuscript/rnas/2o3w

>  <Rbt.Executable>
rbdock ($Id: //depot/dev/client3/rdock/2013.1/src/exe/rbdock.cxx#4 $)

>  <Rbt.Library>
libRbt.so (2013.1, Build901 2013/11/27)

>  <Rbt.Parameter_File>
/export/apps/rDock/src/rDock_2013.1_src/data/scripts/dock_solv.prm

>  <Rbt.Receptor>
prm/pocket_docking_4.prm

>  <SCORE>
-13.5916

>  <SCORE.INTER>
-3.84008

>  <SCORE.INTER.CONST>
1

>  <SCORE.INTER.POLAR>
0

>  <SCORE.INTER.ROT>
9

>  <SCORE.INTER.SOLV>
12.9022

>  <SCORE.INTER.VDW>
-16.4608

>  <SCORE.INTER.norm>
-0.0914305

>  <SCORE.INTRA>
-9.75148

>  <SCORE.INTRA.DIHEDRAL>
-20.0174

>  <SCORE.INTRA.DIHEDRAL.0>
27.8999

>  <SCORE.INTRA.POLAR>
0

>  <SCORE.INTRA.POLAR.0>
0

>  <SCORE.INTRA.REPUL>
0

>  <SCORE.INTRA.REPUL.0>
0

>  <SCORE.INTRA.SOLV>
-2.32481

>  <SCORE.INTRA.SOLV.lig_0>
-104.479

>  <SCORE.INTRA.VDW>
1.41963

>  <SCORE.INTRA.VDW.0>
-6.17816

>  <SCORE.INTRA.norm>
-0.232178

>  <SCORE.RESTR>
0

>  <SCORE.RESTR.CAVITY>
0

>  <SCORE.RESTR.norm>
0

>  <SCORE.SYSTEM>
0

>  <SCORE.SYSTEM.CONST>
0

>  <SCORE.SYSTEM.DIHEDRAL>
0

>  <SCORE.SYSTEM.SOLV>
0

>  <SCORE.SYSTEM.norm>
0

>  <SCORE.heavy>
42

>  <SCORE.norm>
-0.323609

>  <RMSD>
5.483

$$$$
ligand
 OpenBabel02271912133D
libRbt.so/2013.1/901 2013/11/27
 42 45  0  0  0  0  0  0  0  0999 V2000
    9.8485    0.8317    3.9343 C   0  0  2  0  0  0  0  0  0  0  0  0
    9.3061   -0.4271    4.3685 O   0  0  0  0  0  0  0  0  0  0  0  0
    5.8023   -2.6618    3.1332 C   0  0  2  0  0  0  0  0  0  0  0  0
    4.3967   -3.0457    2.8056 N   0  0  0  0  0  0  0  0  0  0  0  0
    6.9655    1.3722    1.9176 C   0  0  1  0  0  0  0  0  0  0  0  0
    4.5792    5.0278    2.6702 C   0  0  1  0  0  0  0  0  0  0  0  0
   11.3475    0.8521    4.3591 C   0  0  2  0  0  0  0  0  0  0  0  0
   12.0652   -0.3688    3.9530 N   0  0  0  0  0  0  0  0  0  0  0  0
    5.9663   -2.3442    4.6741 C   0  0  0  0  0  0  0  0  0  0  0  0
    6.5810    1.8848    3.3389 C   0  0  2  0  0  0  0  0  0  0  0  0
    5.4669    1.1788    3.9385 O   0  0  0  0  0  0  0  0  0  0  0  0
    3.0898    5.2831    2.2396 C   0  0  2  0  0  0  0  0  0  0  0  0
    2.7995    4.6465    0.9200 N   0  0  0  0  0  0  0  0  0  0  0  0
   11.5211    0.9837    5.8835 C   0  0  1  0  0  0  0  0  0  0  0  0
   12.9076    1.0382    6.2233 O   0  0  0  0  0  0  0  0  0  0  0  0
    7.4695   -1.9689    4.9605 C   0  0  2  0  0  0  0  0  0  0  0  0
    7.6635   -1.6775    6.4066 N   0  0  0  0  0  0  0  0  0  0  0  0
    6.3530    3.3724    3.0665 C   0  0  2  0  0  0  0  0  0  0  0  0
    4.9604    3.6471    2.7112 O   0  0  0  0  0  0  0  0  0  0  0  0
    2.8168    6.8610    2.1898 C   0  0  1  0  0  0  0  0  0  0  0  0
    2.7377    7.3643    3.5424 O   0  0  0  0  0  0  0  0  0  0  0  0
   10.7682    2.2383    6.3817 C   0  0  2  0  0  0  0  0  0  0  0  0
   10.9312    2.3825    7.7735 O   0  0  0  0  0  0  0  0  0  0  0  0
    7.9032   -0.7142    4.1041 C   0  0  2  0  0  0  0  0  0  0  0  0
    7.3050    3.7444    1.9174 C   0  0  2  0  0  0  0  0  0  0  0  0
    7.3954    2.5333    1.1706 O   0  0  0  0  0  0  0  0  0  0  0  0
    3.9469    7.6627    1.3849 C   0  0  2  0  0  0  0  0  0  0  0  0
    3.8207    7.3173    0.0060 O   0  0  0  0  0  0  0  0  0  0  0  0
    9.2529    2.1043    6.0133 C   0  0  2  0  0  0  0  0  0  0  0  0
    9.1107    1.9463    4.5660 O   0  0  0  0  0  0  0  0  0  0  0  0
    7.7165   -0.9315    2.5865 C   0  0  2  0  0  0  0  0  0  0  0  0
    7.9818    0.3631    1.9797 O   0  0  0  0  0  0  0  0  0  0  0  0
    8.7171    4.2344    2.3650 C   0  0  0  0  0  0  0  0  0  0  0  0
    9.5006    4.5276    1.2122 O   0  0  0  0  0  0  0  0  0  0  0  0
    5.3815    7.2820    1.9133 C   0  0  1  0  0  0  0  0  0  0  0  0
    5.4979    5.8210    1.7646 O   0  0  0  0  0  0  0  0  0  0  0  0
    8.4383    3.2963    6.4597 C   0  0  0  0  0  0  0  0  0  0  0  0
    8.9073    4.4658    5.8340 O   0  0  0  0  0  0  0  0  0  0  0  0
    6.2342   -1.4039    2.2778 C   0  0  1  0  0  0  0  0  0  0  0  0
    6.1043   -1.7501    0.8962 O   0  0  0  0  0  0  0  0  0  0  0  0
    6.5687    8.0090    1.1447 C   0  0  0  0  0  0  0  0  0  0  0  0
    6.7060    7.6650   -0.2973 N   0  0  0  0  0  0  0  0  0  0  0  0
  1  2  1  1  0  0  0
  1  7  1  0  0  0  0
  1 30  1  0  0  0  0
  3  4  1  1  0  0  0
  3  9  1  0  0  0  0
  3 39  1  0  0  0  0
  5 10  1  0  0  0  0
  5 26  1  0  0  0  0
  5 32  1  1  0  0  0
  6 12  1  0  0  0  0
  6 36  1  0  0  0  0
  6 19  1  6  0  0  0
  7  8  1  1  0  0  0
  7 14  1  0  0  0  0
  9 16  1  0  0  0  0
 10 11  1  6  0  0  0
 10 18  1  0  0  0  0
 12 13  1  6  0  0  0
 12 20  1  0  0  0  0
 14 15  1  6  0  0  0
 14 22  1  0  0  0  0
 16 17  1  1  0  0  0
 16 24  1  0  0  0  0
 18 19  1  6  0  0  0
 18 25  1  0  0  0  0
 20 21  1  1  0  0  0
 20 27  1  0  0  0  0
 22 23  1  1  0  0  0
 22 29  1  0  0  0  0
 24  2  1  6  0  0  0
 24 31  1  0  0  0  0
 25 26  1  0  0  0  0
 25 33  1  1  0  0  0
 27 28  1  6  0  0  0
 27 35  1  0  0  0  0
 29 30  1  0  0  0  0
 29 37  1  6  0  0  0
 31 32  1  6  0  0  0
 31 39  1  0  0  0  0
 33 34  1  0  0  0  0
 35 36  1  0  0  0  0
 35 41  1  6  0  0  0
 37 38  1  0  0  0  0
 39 40  1  6  0  0  0
 41 42  1  0  0  0  0
M  END
>  <CHROM.1>
179.71402961,-166.65775300,169.18048291,178.10623834,179.24493288,60.86156089
-82.62317573,66.20006034,-64.03826994,7.22610717,2.47229121,3.29885578,-0.91493580
-0.50853439,-0.09280581

>  <Name>
ligand

>  <RI>
0

>  <Rbt.Current_Directory>
/home/itssahil/PROJECTS/Mol_Feturizer/Test_systems_manuscript/rnas/2o3w

>  <Rbt.Executable>
rbdock ($Id: //depot/dev/client3/rdock/2013.1/src/exe/rbdock.cxx#4 $)

>  <Rbt.Library>
libRbt.so (2013.1, Build901 2013/11/27)

>  <Rbt.Parameter_File>
/export/apps/rDock/src/rDock_2013.1_src/data/scripts/dock_solv.prm

>  <Rbt.Receptor>
prm/pocket_docking_3.prm

>  <SCORE>
-7.65186

>  <SCORE.INTER>
4.73413

>  <SCORE.INTER.CONST>
1

>  <SCORE.INTER.POLAR>
0

>  <SCORE.INTER.ROT>
9

>  <SCORE.INTER.SOLV>
10.5237

>  <SCORE.INTER.VDW>
-9.9518

>  <SCORE.INTER.norm>
0.112717

>  <SCORE.INTRA>
-12.3998

>  <SCORE.INTRA.DIHEDRAL>
-23.8418

>  <SCORE.INTRA.DIHEDRAL.0>
27.8999

>  <SCORE.INTRA.POLAR>
0

>  <SCORE.INTRA.POLAR.0>
0

>  <SCORE.INTRA.REPUL>
0

>  <SCORE.INTRA.REPUL.0>
0

>  <SCORE.INTRA.SOLV>
-2.63657

>  <SCORE.INTRA.SOLV.lig_0>
-104.479

>  <SCORE.INTRA.VDW>
0.839374

>  <SCORE.INTRA.VDW.0>
-6.17816

>  <SCORE.INTRA.norm>
-0.295234

>  <SCORE.RESTR>
0.0138284

>  <SCORE.RESTR.CAVITY>
0.0138284

>  <SCORE.RESTR.norm>
0.000329247

>  <SCORE.SYSTEM>
0

>  <SCORE.SYSTEM.CONST>
0

>  <SCORE.SYSTEM.DIHEDRAL>
0

>  <SCORE.SYSTEM.SOLV>
0

>  <SCORE.SYSTEM.norm>
0

>  <SCORE.heavy>
42

>  <SCORE.norm>
-0.182187

>  <RMSD>
5.498

$$$$
ligand
 OpenBabel02271912133D
libRbt.so/2013.1/901 2013/11/27
 42 45  0  0  0  0  0  0  0  0999 V2000
    8.1791   -1.8456    6.2515 C   0  0  2  0  0  0  0  0  0  0  0  0
    8.0755   -2.7664    5.1521 O   0  0  0  0  0  0  0  0  0  0  0  0
    5.3010   -3.1278    1.8404 C   0  0  2  0  0  0  0  0  0  0  0  0
    4.0497   -3.2270    1.0312 N   0  0  0  0  0  0  0  0  0  0  0  0
    6.2309    0.8120    4.0686 C   0  0  1  0  0  0  0  0  0  0  0  0
    6.3893    5.1746    3.6092 C   0  0  1  0  0  0  0  0  0  0  0  0
    9.6656   -1.8601    6.7187 C   0  0  2  0  0  0  0  0  0  0  0  0
   10.6096   -1.6865    5.6010 N   0  0  0  0  0  0  0  0  0  0  0  0
    5.4612   -4.3716    2.8043 C   0  0  0  0  0  0  0  0  0  0  0  0
    5.9601    1.7850    5.2563 C   0  0  2  0  0  0  0  0  0  0  0  0
    4.5556    1.9628    5.5640 O   0  0  0  0  0  0  0  0  0  0  0  0
    6.7717    6.1303    4.7962 C   0  0  2  0  0  0  0  0  0  0  0  0
    5.5963    6.3736    5.6851 N   0  0  0  0  0  0  0  0  0  0  0  0
   10.0447   -3.1772    7.4205 C   0  0  1  0  0  0  0  0  0  0  0  0
   11.4012   -3.1308    7.8661 O   0  0  0  0  0  0  0  0  0  0  0  0
    6.8057   -4.2213    3.6120 C   0  0  2  0  0  0  0  0  0  0  0  0
    6.9963   -5.3840    4.5205 N   0  0  0  0  0  0  0  0  0  0  0  0
    6.6993    3.0392    4.7872 C   0  0  2  0  0  0  0  0  0  0  0  0
    5.8258    3.9197    4.0110 O   0  0  0  0  0  0  0  0  0  0  0  0
    7.3406    7.5064    4.2048 C   0  0  1  0  0  0  0  0  0  0  0  0
    8.6673    7.2762    3.6796 O   0  0  0  0  0  0  0  0  0  0  0  0
    9.0733   -3.4337    8.5951 C   0  0  2  0  0  0  0  0  0  0  0  0
    9.4173   -4.6278    9.2586 O   0  0  0  0  0  0  0  0  0  0  0  0
    6.8027   -2.8850    4.4548 C   0  0  2  0  0  0  0  0  0  0  0  0
    7.8838    2.5424    3.9413 C   0  0  2  0  0  0  0  0  0  0  0  0
    7.3881    1.3318    3.3745 O   0  0  0  0  0  0  0  0  0  0  0  0
    6.4088    8.1220    3.0558 C   0  0  2  0  0  0  0  0  0  0  0  0
    5.2005    8.5654    3.6723 O   0  0  0  0  0  0  0  0  0  0  0  0
    7.6114   -3.5102    8.0412 C   0  0  2  0  0  0  0  0  0  0  0  0
    7.2817   -2.2643    7.3493 O   0  0  0  0  0  0  0  0  0  0  0  0
    6.5932   -1.6276    3.5830 C   0  0  2  0  0  0  0  0  0  0  0  0
    6.4333   -0.5317    4.5253 O   0  0  0  0  0  0  0  0  0  0  0  0
    9.2016    2.2909    4.7377 C   0  0  0  0  0  0  0  0  0  0  0  0
    8.9533    1.3419    5.7705 O   0  0  0  0  0  0  0  0  0  0  0  0
    6.0940    7.0391    1.9556 C   0  0  1  0  0  0  0  0  0  0  0  0
    5.4647    5.9095    2.6616 O   0  0  0  0  0  0  0  0  0  0  0  0
    6.5899   -3.7536    9.1279 C   0  0  0  0  0  0  0  0  0  0  0  0
    5.3103   -3.9096    8.5644 O   0  0  0  0  0  0  0  0  0  0  0  0
    5.2954   -1.7915    2.6859 C   0  0  1  0  0  0  0  0  0  0  0  0
    5.1859   -0.6969    1.7719 O   0  0  0  0  0  0  0  0  0  0  0  0
    5.1441    7.5569    0.7903 C   0  0  0  0  0  0  0  0  0  0  0  0
    5.7254    8.6032   -0.0950 N   0  0  0  0  0  0  0  0  0  0  0  0
  1  2  1  6  0  0  0
  1  7  1  0  0  0  0
  1 30  1  0  0  0  0
  3  4  1  1  0  0  0
  3  9  1  0  0  0  0
  3 39  1  0  0  0  0
  5 10  1  0  0  0  0
  5 26  1  0  0  0  0
  5 32  1  1  0  0  0
  6 12  1  0  0  0  0
  6 36  1  0  0  0  0
  6 19  1  1  0  0  0
  7  8  1  6  0  0  0
  7 14  1  0  0  0  0
  9 16  1  0  0  0  0
 10 11  1  6  0  0  0
 10 18  1  0  0  0  0
 12 13  1  6  0  0  0
 12 20  1  0  0  0  0
 14 15  1  1  0  0  0
 14 22  1  0  0  0  0
 16 17  1  1  0  0  0
 16 24  1  0  0  0  0
 18 19  1  6  0  0  0
 18 25  1  0  0  0  0
 20 21  1  6  0  0  0
 20 27  1  0  0  0  0
 22 23  1  6  0  0  0
 22 29  1  0  0  0  0
 24  2  1  6  0  0  0
 24 31  1  0  0  0  0
 25 26  1  0  0  0  0
 25 33  1  1  0  0  0
 27 28  1  1  0  0  0
 27 35  1  0  0  0  0
 29 30  1  0  0  0  0
 29 37  1  1  0  0  0
 31 32  1  1  0  0  0
 31 39  1  0  0  0  0
 33 34  1  0  0  0  0
 35 36  1  0  0  0  0
 35 41  1  6  0  0  0
 37 38  1  0  0  0  0
 39 40  1  6  0  0  0
 41 42  1  0  0  0  0
M  END
>  <CHROM.1>
-175.81815034,-163.17028185,175.35803289,-63.52516152,57.71309144,-175.74768729
179.30164248,174.90824239,67.03117460,6.99288370,0.80131191,4.69967679,-1.31981952
-0.94107140,-0.11789844

>  <Name>
ligand

>  <RI>
0

>  <Rbt.Current_Directory>
/home/itssahil/PROJECTS/Mol_Feturizer/Test_systems_manuscript/rnas/2o3w

>  <Rbt.Executable>
rbdock ($Id: //depot/dev/client3/rdock/2013.1/src/exe/rbdock.cxx#4 $)

>  <Rbt.Library>
libRbt.so (2013.1, Build901 2013/11/27)

>  <Rbt.Parameter_File>
/export/apps/rDock/src/rDock_2013.1_src/data/scripts/dock_solv.prm

>  <Rbt.Receptor>
prm/pocket_docking_7.prm

>  <SCORE>
-11.2839

>  <SCORE.INTER>
1.96733

>  <SCORE.INTER.CONST>
1

>  <SCORE.INTER.POLAR>
0

>  <SCORE.INTER.ROT>
9

>  <SCORE.INTER.SOLV>
11.1021

>  <SCORE.INTER.VDW>
-11.9892

>  <SCORE.INTER.norm>
0.0468412

>  <SCORE.INTRA>
-13.2512

>  <SCORE.INTRA.DIHEDRAL>
-25.8041

>  <SCORE.INTRA.DIHEDRAL.0>
27.8999

>  <SCORE.INTRA.POLAR>
0

>  <SCORE.INTRA.POLAR.0>
0

>  <SCORE.INTRA.REPUL>
0

>  <SCORE.INTRA.REPUL.0>
0

>  <SCORE.INTRA.SOLV>
-4.14456

>  <SCORE.INTRA.SOLV.lig_0>
-104.479

>  <SCORE.INTRA.VDW>
1.72313

>  <SCORE.INTRA.VDW.0>
-6.17816

>  <SCORE.INTRA.norm>
-0.315505

>  <SCORE.RESTR>
0

>  <SCORE.RESTR.CAVITY>
0

>  <SCORE.RESTR.norm>
0

>  <SCORE.SYSTEM>
0

>  <SCORE.SYSTEM.CONST>
0

>  <SCORE.SYSTEM.DIHEDRAL>
0

>  <SCORE.SYSTEM.SOLV>
0

>  <SCORE.SYSTEM.norm>
0

>  <SCORE.heavy>
42

>  <SCORE.norm>
-0.268664

>  <RMSD>
5.518

$$$$
ligand
 OpenBabel02271912133D
libRbt.so/2013.1/901 2013/11/27
 42 45  0  0  0  0  0  0  0  0999 V2000
   10.1203    3.1473    3.9634 C   0  0  2  0  0  0  0  0  0  0  0  0
    8.9058    3.2679    4.7235 O   0  0  0  0  0  0  0  0  0  0  0  0
    8.5607   -0.8763    5.9493 C   0  0  2  0  0  0  0  0  0  0  0  0
    8.1060   -2.1361    6.6101 N   0  0  0  0  0  0  0  0  0  0  0  0
    6.7317    2.9743    3.0768 C   0  0  1  0  0  0  0  0  0  0  0  0
    6.2198    4.7402   -0.5279 C   0  0  1  0  0  0  0  0  0  0  0  0
   10.9216    4.4672    4.1735 C   0  0  2  0  0  0  0  0  0  0  0  0
   11.0481    4.8295    5.5959 N   0  0  0  0  0  0  0  0  0  0  0  0
    9.1140    0.1600    7.0084 C   0  0  0  0  0  0  0  0  0  0  0  0
    5.7589    2.9174    1.8597 C   0  0  2  0  0  0  0  0  0  0  0  0
    6.3392    2.3317    0.6684 O   0  0  0  0  0  0  0  0  0  0  0  0
    7.2421    5.5122   -1.4376 C   0  0  2  0  0  0  0  0  0  0  0  0
    7.0422    6.9886   -1.3307 N   0  0  0  0  0  0  0  0  0  0  0  0
   10.2666    5.6674    3.4654 C   0  0  1  0  0  0  0  0  0  0  0  0
   11.0540    6.8448    3.6512 O   0  0  0  0  0  0  0  0  0  0  0  0
    9.5974    1.4545    6.2513 C   0  0  2  0  0  0  0  0  0  0  0  0
   10.1388    2.4475    7.2180 N   0  0  0  0  0  0  0  0  0  0  0  0
    5.3446    4.3849    1.7418 C   0  0  2  0  0  0  0  0  0  0  0  0
    6.2385    5.1265    0.8519 O   0  0  0  0  0  0  0  0  0  0  0  0
    7.0798    5.0177   -2.9529 C   0  0  1  0  0  0  0  0  0  0  0  0
    7.6435    3.6925   -3.0748 O   0  0  0  0  0  0  0  0  0  0  0  0
   10.0815    5.3430    1.9655 C   0  0  2  0  0  0  0  0  0  0  0  0
    9.4981    6.4387    1.2995 O   0  0  0  0  0  0  0  0  0  0  0  0
    8.4074    2.1010    5.4378 C   0  0  2  0  0  0  0  0  0  0  0  0
    5.3833    4.9531    3.1704 C   0  0  2  0  0  0  0  0  0  0  0  0
    6.4167    4.1917    3.7908 O   0  0  0  0  0  0  0  0  0  0  0  0
    5.5536    4.9980   -3.4406 C   0  0  2  0  0  0  0  0  0  0  0  0
    5.1167    6.3525   -3.5443 O   0  0  0  0  0  0  0  0  0  0  0  0
    9.1835    4.0688    1.8257 C   0  0  2  0  0  0  0  0  0  0  0  0
    9.8050    2.9490    2.5326 O   0  0  0  0  0  0  0  0  0  0  0  0
    7.7780    1.1249    4.4197 C   0  0  2  0  0  0  0  0  0  0  0  0
    6.6039    1.8126    3.9069 O   0  0  0  0  0  0  0  0  0  0  0  0
    4.0448    4.8331    3.9630 C   0  0  0  0  0  0  0  0  0  0  0  0
    4.2050    5.4237    5.2492 O   0  0  0  0  0  0  0  0  0  0  0  0
    4.6525    4.2114   -2.4152 C   0  0  1  0  0  0  0  0  0  0  0  0
    4.8313    4.8814   -1.1154 O   0  0  0  0  0  0  0  0  0  0  0  0
    8.9547    3.6738    0.3851 C   0  0  0  0  0  0  0  0  0  0  0  0
   10.1868    3.4920   -0.2694 O   0  0  0  0  0  0  0  0  0  0  0  0
    7.3679   -0.2285    5.1380 C   0  0  1  0  0  0  0  0  0  0  0  0
    6.9265   -1.1859    4.1715 O   0  0  0  0  0  0  0  0  0  0  0  0
    3.1115    4.1709   -2.8053 C   0  0  0  0  0  0  0  0  0  0  0  0
    2.2212    3.4769   -1.8346 N   0  0  0  0  0  0  0  0  0  0  0  0
  1  2  1  1  0  0  0
  1  7  1  0  0  0  0
  1 30  1  0  0  0  0
  3  4  1  1  0  0  0
  3  9  1  0  0  0  0
  3 39  1  0  0  0  0
  5 10  1  0  0  0  0
  5 26  1  0  0  0  0
  5 32  1  1  0  0  0
  6 12  1  0  0  0  0
  6 36  1  0  0  0  0
  6 19  1  1  0  0  0
  7  8  1  1  0  0  0
  7 14  1  0  0  0  0
  9 16  1  0  0  0  0
 10 11  1  6  0  0  0
 10 18  1  0  0  0  0
 12 13  1  6  0  0  0
 12 20  1  0  0  0  0
 14 15  1  6  0  0  0
 14 22  1  0  0  0  0
 16 17  1  1  0  0  0
 16 24  1  0  0  0  0
 18 19  1  6  0  0  0
 18 25  1  0  0  0  0
 20 21  1  1  0  0  0
 20 27  1  0  0  0  0
 22 23  1  6  0  0  0
 22 29  1  0  0  0  0
 24  2  1  6  0  0  0
 24 31  1  0  0  0  0
 25 26  1  0  0  0  0
 25 33  1  1  0  0  0
 27 28  1  1  0  0  0
 27 35  1  0  0  0  0
 29 30  1  0  0  0  0
 29 37  1  6  0  0  0
 31 32  1  1  0  0  0
 31 39  1  0  0  0  0
 33 34  1  0  0  0  0
 35 36  1  0  0  0  0
 35 41  1  6  0  0  0
 37 38  1  0  0  0  0
 39 40  1  6  0  0  0
 41 42  1  0  0  0  0
M  END
>  <CHROM.1>
-140.62824421,48.14198890,65.73060990,-177.20875132,-178.51867451,55.69513177
68.56290602,135.93326111,-177.93679340,7.46148759,3.59421270,2.10136699,-1.12239369
-0.51545652,-0.91319397

>  <Name>
ligand

>  <RI>
0

>  <Rbt.Current_Directory>
/home/itssahil/PROJECTS/Mol_Feturizer/Test_systems_manuscript/rnas/2o3w

>  <Rbt.Executable>
rbdock ($Id: //depot/dev/client3/rdock/2013.1/src/exe/rbdock.cxx#4 $)

>  <Rbt.Library>
libRbt.so (2013.1, Build901 2013/11/27)

>  <Rbt.Parameter_File>
/export/apps/rDock/src/rDock_2013.1_src/data/scripts/dock_solv.prm

>  <Rbt.Receptor>
prm/pocket_docking_5.prm

>  <SCORE>
-9.16963

>  <SCORE.INTER>
-3.39589

>  <SCORE.INTER.CONST>
1

>  <SCORE.INTER.POLAR>
0

>  <SCORE.INTER.ROT>
9

>  <SCORE.INTER.SOLV>
11.7732

>  <SCORE.INTER.VDW>
-15.7883

>  <SCORE.INTER.norm>
-0.0808545

>  <SCORE.INTRA>
-5.77374

>  <SCORE.INTRA.DIHEDRAL>
-15.1352

>  <SCORE.INTRA.DIHEDRAL.0>
27.8999

>  <SCORE.INTRA.POLAR>
0

>  <SCORE.INTRA.POLAR.0>
0

>  <SCORE.INTRA.REPUL>
0.0978012

>  <SCORE.INTRA.REPUL.0>
0

>  <SCORE.INTRA.SOLV>
-0.0612544

>  <SCORE.INTRA.SOLV.lig_0>
-104.479

>  <SCORE.INTRA.VDW>
1.3355

>  <SCORE.INTRA.VDW.0>
-6.17816

>  <SCORE.INTRA.norm>
-0.13747

>  <SCORE.RESTR>
0

>  <SCORE.RESTR.CAVITY>
0

>  <SCORE.RESTR.norm>
0

>  <SCORE.SYSTEM>
0

>  <SCORE.SYSTEM.CONST>
0

>  <SCORE.SYSTEM.DIHEDRAL>
0

>  <SCORE.SYSTEM.SOLV>
0

>  <SCORE.SYSTEM.norm>
0

>  <SCORE.heavy>
42

>  <SCORE.norm>
-0.218324

>  <RMSD>
5.529

$$$$
ligand
 OpenBabel02271912133D
libRbt.so/2013.1/901 2013/11/27
 42 45  0  0  0  0  0  0  0  0999 V2000
   10.5797   -0.9265    4.7138 C   0  0  2  0  0  0  0  0  0  0  0  0
    9.3809   -1.0893    5.4907 O   0  0  0  0  0  0  0  0  0  0  0  0
    7.1143   -3.4686    2.6628 C   0  0  2  0  0  0  0  0  0  0  0  0
    6.0744   -4.3451    2.0457 N   0  0  0  0  0  0  0  0  0  0  0  0
    6.0192    0.8379    4.0494 C   0  0  1  0  0  0  0  0  0  0  0  0
    3.9395    4.5440    3.0061 C   0  0  1  0  0  0  0  0  0  0  0  0
   11.5295   -0.0004    5.5314 C   0  0  2  0  0  0  0  0  0  0  0  0
   11.6845   -0.4436    6.9279 N   0  0  0  0  0  0  0  0  0  0  0  0
    7.9120   -4.2337    3.7942 C   0  0  0  0  0  0  0  0  0  0  0  0
    5.0358    1.5340    5.0389 C   0  0  2  0  0  0  0  0  0  0  0  0
    3.7259    0.9180    5.0990 O   0  0  0  0  0  0  0  0  0  0  0  0
    2.6586    4.8235    2.1401 C   0  0  2  0  0  0  0  0  0  0  0  0
    2.5579    3.8540    1.0083 N   0  0  0  0  0  0  0  0  0  0  0  0
   11.0280    1.4546    5.5796 C   0  0  1  0  0  0  0  0  0  0  0  0
   11.9474    2.2739    6.3037 O   0  0  0  0  0  0  0  0  0  0  0  0
    9.0056   -3.2681    4.3894 C   0  0  2  0  0  0  0  0  0  0  0  0
    9.7865   -3.9615    5.4492 N   0  0  0  0  0  0  0  0  0  0  0  0
    5.0674    2.9743    4.5252 C   0  0  2  0  0  0  0  0  0  0  0  0
    4.0380    3.2067    3.5117 O   0  0  0  0  0  0  0  0  0  0  0  0
    2.7023    6.3324    1.6032 C   0  0  1  0  0  0  0  0  0  0  0  0
    2.4173    7.2275    2.7016 O   0  0  0  0  0  0  0  0  0  0  0  0
   10.8202    1.9764    4.1396 C   0  0  2  0  0  0  0  0  0  0  0  0
   10.3769    3.3133    4.1661 O   0  0  0  0  0  0  0  0  0  0  0  0
    8.3349   -1.9694    4.9891 C   0  0  2  0  0  0  0  0  0  0  0  0
    6.4766    3.1880    3.9473 C   0  0  2  0  0  0  0  0  0  0  0  0
    6.8319    1.8892    3.4790 O   0  0  0  0  0  0  0  0  0  0  0  0
    4.1128    6.7191    0.9487 C   0  0  2  0  0  0  0  0  0  0  0  0
    4.2366    5.9888   -0.2710 O   0  0  0  0  0  0  0  0  0  0  0  0
    9.7791    1.0628    3.4108 C   0  0  2  0  0  0  0  0  0  0  0  0
   10.2569   -0.3197    3.4048 O   0  0  0  0  0  0  0  0  0  0  0  0
    7.4899   -1.1982    3.9516 C   0  0  2  0  0  0  0  0  0  0  0  0
    6.8104   -0.1592    4.7087 O   0  0  0  0  0  0  0  0  0  0  0  0
    7.5305    3.7256    4.9644 C   0  0  0  0  0  0  0  0  0  0  0  0
    7.1244    5.0098    5.4280 O   0  0  0  0  0  0  0  0  0  0  0  0
    5.2960    6.3568    1.9238 C   0  0  1  0  0  0  0  0  0  0  0  0
    5.1688    4.9161    2.2040 O   0  0  0  0  0  0  0  0  0  0  0  0
    9.5189    1.4986    1.9874 C   0  0  0  0  0  0  0  0  0  0  0  0
    9.0357    2.8198    1.9654 O   0  0  0  0  0  0  0  0  0  0  0  0
    6.4415   -2.1707    3.2654 C   0  0  1  0  0  0  0  0  0  0  0  0
    5.7650   -1.4954    2.2014 O   0  0  0  0  0  0  0  0  0  0  0  0
    6.7392    6.6774    1.3381 C   0  0  0  0  0  0  0  0  0  0  0  0
    7.0351    8.1190    1.1129 N   0  0  0  0  0  0  0  0  0  0  0  0
  1  2  1  1  0  0  0
  1  7  1  0  0  0  0
  1 30  1  0  0  0  0
  3  4  1  1  0  0  0
  3  9  1  0  0  0  0
  3 39  1  0  0  0  0
  5 10  1  0  0  0  0
  5 26  1  0  0  0  0
  5 32  1  1  0  0  0
  6 12  1  0  0  0  0
  6 36  1  0  0  0  0
  6 19  1  6  0  0  0
  7  8  1  1  0  0  0
  7 14  1  0  0  0  0
  9 16  1  0  0  0  0
 10 11  1  6  0  0  0
 10 18  1  0  0  0  0
 12 13  1  6  0  0  0
 12 20  1  0  0  0  0
 14 15  1  6  0  0  0
 14 22  1  0  0  0  0
 16 17  1  1  0  0  0
 16 24  1  0  0  0  0
 18 19  1  6  0  0  0
 18 25  1  0  0  0  0
 20 21  1  1  0  0  0
 20 27  1  0  0  0  0
 22 23  1  1  0  0  0
 22 29  1  0  0  0  0
 24  2  1  6  0  0  0
 24 31  1  0  0  0  0
 25 26  1  0  0  0  0
 25 33  1  1  0  0  0
 27 28  1  6  0  0  0
 27 35  1  0  0  0  0
 29 30  1  0  0  0  0
 29 37  1  6  0  0  0
 31 32  1  1  0  0  0
 31 39  1  0  0  0  0
 33 34  1  0  0  0  0
 35 36  1  0  0  0  0
 35 41  1  6  0  0  0
 37 38  1  0  0  0  0
 39 40  1  6  0  0  0
 41 42  1  0  0  0  0
M  END
>  <CHROM.1>
-177.04371764,41.51497793,177.24302600,-168.61453382,-62.31897738,-59.09579209
174.41100187,161.31179271,65.41769229,7.12272244,1.80695450,3.54216889,-0.95822487
-0.34700837,-0.10406339

>  <Name>
ligand

>  <RI>
0

>  <Rbt.Current_Directory>
/home/itssahil/PROJECTS/Mol_Feturizer/Test_systems_manuscript/rnas/2o3w

>  <Rbt.Executable>
rbdock ($Id: //depot/dev/client3/rdock/2013.1/src/exe/rbdock.cxx#4 $)

>  <Rbt.Library>
libRbt.so (2013.1, Build901 2013/11/27)

>  <Rbt.Parameter_File>
/export/apps/rDock/src/rDock_2013.1_src/data/scripts/dock_solv.prm

>  <Rbt.Receptor>
prm/pocket_docking_3.prm

>  <SCORE>
-10.1895

>  <SCORE.INTER>
2.29057

>  <SCORE.INTER.CONST>
1

>  <SCORE.INTER.POLAR>
0

>  <SCORE.INTER.ROT>
9

>  <SCORE.INTER.SOLV>
9.53639

>  <SCORE.INTER.VDW>
-11.2517

>  <SCORE.INTER.norm>
0.0545374

>  <SCORE.INTRA>
-12.4929

>  <SCORE.INTRA.DIHEDRAL>
-23.6405

>  <SCORE.INTRA.DIHEDRAL.0>
27.8999

>  <SCORE.INTRA.POLAR>
0

>  <SCORE.INTRA.POLAR.0>
0

>  <SCORE.INTRA.REPUL>
0

>  <SCORE.INTRA.REPUL.0>
0

>  <SCORE.INTRA.SOLV>
-3.34987

>  <SCORE.INTRA.SOLV.lig_0>
-104.479

>  <SCORE.INTRA.VDW>
1.0023

>  <SCORE.INTRA.VDW.0>
-6.17816

>  <SCORE.INTRA.norm>
-0.297449

>  <SCORE.RESTR>
0.012778

>  <SCORE.RESTR.CAVITY>
0.012778

>  <SCORE.RESTR.norm>
0.000304238

>  <SCORE.SYSTEM>
0

>  <SCORE.SYSTEM.CONST>
0

>  <SCORE.SYSTEM.DIHEDRAL>
0

>  <SCORE.SYSTEM.SOLV>
0

>  <SCORE.SYSTEM.norm>
0

>  <SCORE.heavy>
42

>  <SCORE.norm>
-0.242608

>  <RMSD>
5.549

$$$$
ligand
 OpenBabel02271912133D
libRbt.so/2013.1/901 2013/11/27
 42 45  0  0  0  0  0  0  0  0999 V2000
    4.4554   -2.3928    3.7675 C   0  0  2  0  0  0  0  0  0  0  0  0
    5.4104   -1.6805    4.5724 O   0  0  0  0  0  0  0  0  0  0  0  0
    8.4494   -3.3122    7.1989 C   0  0  2  0  0  0  0  0  0  0  0  0
    9.6880   -3.9690    7.7136 N   0  0  0  0  0  0  0  0  0  0  0  0
    8.7364    0.7554    4.9677 C   0  0  1  0  0  0  0  0  0  0  0  0
   10.6762    4.6976    4.1109 C   0  0  1  0  0  0  0  0  0  0  0  0
    3.7996   -1.3516    2.8114 C   0  0  2  0  0  0  0  0  0  0  0  0
    4.7967   -0.5277    2.1060 N   0  0  0  0  0  0  0  0  0  0  0  0
    7.5527   -4.3327    6.3889 C   0  0  0  0  0  0  0  0  0  0  0  0
    8.9256    1.6771    3.7245 C   0  0  2  0  0  0  0  0  0  0  0  0
   10.1247    1.3978    2.9609 O   0  0  0  0  0  0  0  0  0  0  0  0
   12.1079    5.1569    4.5667 C   0  0  2  0  0  0  0  0  0  0  0  0
   12.1541    5.3714    6.0442 N   0  0  0  0  0  0  0  0  0  0  0  0
    2.8670   -0.3795    3.5573 C   0  0  1  0  0  0  0  0  0  0  0  0
    2.2586    0.5296    2.6385 O   0  0  0  0  0  0  0  0  0  0  0  0
    6.2550   -3.5896    5.8927 C   0  0  2  0  0  0  0  0  0  0  0  0
    5.3794   -4.5258    5.1375 N   0  0  0  0  0  0  0  0  0  0  0  0
    8.8585    3.0625    4.3690 C   0  0  2  0  0  0  0  0  0  0  0  0
   10.1830    3.5298    4.7792 O   0  0  0  0  0  0  0  0  0  0  0  0
   12.5107    6.4924    3.7785 C   0  0  1  0  0  0  0  0  0  0  0  0
   12.8216    6.1507    2.4090 O   0  0  0  0  0  0  0  0  0  0  0  0
    1.8056   -1.1835    4.3422 C   0  0  2  0  0  0  0  0  0  0  0  0
    0.9333   -0.3073    5.0174 O   0  0  0  0  0  0  0  0  0  0  0  0
    6.6335   -2.3607    4.9749 C   0  0  2  0  0  0  0  0  0  0  0  0
    7.9177    2.9234    5.5776 C   0  0  2  0  0  0  0  0  0  0  0  0
    8.1208    1.5736    5.9889 O   0  0  0  0  0  0  0  0  0  0  0  0
   11.3555    7.6025    3.8049 C   0  0  2  0  0  0  0  0  0  0  0  0
   11.2574    8.0906    5.1423 O   0  0  0  0  0  0  0  0  0  0  0  0
    2.5295   -2.1323    5.3548 C   0  0  2  0  0  0  0  0  0  0  0  0
    3.4354   -3.0244    4.6315 O   0  0  0  0  0  0  0  0  0  0  0  0
    7.5576   -1.3462    5.6834 C   0  0  2  0  0  0  0  0  0  0  0  0
    7.9471   -0.3987    4.6514 O   0  0  0  0  0  0  0  0  0  0  0  0
    6.4119    3.1973    5.2745 C   0  0  0  0  0  0  0  0  0  0  0  0
    5.6636    3.1001    6.4825 O   0  0  0  0  0  0  0  0  0  0  0  0
    9.9802    6.9847    3.3477 C   0  0  1  0  0  0  0  0  0  0  0  0
    9.7147    5.8580    4.2590 O   0  0  0  0  0  0  0  0  0  0  0  0
    1.5628   -2.9651    6.1645 C   0  0  0  0  0  0  0  0  0  0  0  0
    0.8543   -3.8413    5.3221 O   0  0  0  0  0  0  0  0  0  0  0  0
    8.8295   -2.0843    6.2778 C   0  0  1  0  0  0  0  0  0  0  0  0
    9.6064   -1.1746    7.0616 O   0  0  0  0  0  0  0  0  0  0  0  0
    8.7671    8.0124    3.3763 C   0  0  0  0  0  0  0  0  0  0  0  0
    7.4662    7.4842    2.8812 N   0  0  0  0  0  0  0  0  0  0  0  0
  1  2  1  1  0  0  0
  1  7  1  0  0  0  0
  1 30  1  0  0  0  0
  3  4  1  6  0  0  0
  3  9  1  0  0  0  0
  3 39  1  0  0  0  0
  5 10  1  0  0  0  0
  5 26  1  0  0  0  0
  5 32  1  6  0  0  0
  6 12  1  0  0  0  0
  6 36  1  0  0  0  0
  6 19  1  1  0  0  0
  7  8  1  1  0  0  0
  7 14  1  0  0  0  0
  9 16  1  0  0  0  0
 10 11  1  1  0  0  0
 10 18  1  0  0  0  0
 12 13  1  1  0  0  0
 12 20  1  0  0  0  0
 14 15  1  6  0  0  0
 14 22  1  0  0  0  0
 16 17  1  6  0  0  0
 16 24  1  0  0  0  0
 18 19  1  1  0  0  0
 18 25  1  0  0  0  0
 20 21  1  6  0  0  0
 20 27  1  0  0  0  0
 22 23  1  1  0  0  0
 22 29  1  0  0  0  0
 24  2  1  1  0  0  0
 24 31  1  0  0  0  0
 25 26  1  0  0  0  0
 25 33  1  6  0  0  0
 27 28  1  1  0  0  0
 27 35  1  0  0  0  0
 29 30  1  0  0  0  0
 29 37  1  6  0  0  0
 31 32  1  6  0  0  0
 31 39  1  0  0  0  0
 33 34  1  0  0  0  0
 35 36  1  0  0  0  0
 35 41  1  1  0  0  0
 37 38  1  0  0  0  0
 39 40  1  1  0  0  0
 41 42  1  0  0  0  0
M  END
>  <CHROM.1>
-145.94295325,-63.16697007,115.88979007,-179.28929814,-177.18822692,64.32849860
175.37095056,-175.32392055,176.85061227,7.27214681,1.13076455,4.74257227
2.25972229,0.22914790,2.84758174

>  <Name>
ligand

>  <RI>
0

>  <Rbt.Current_Directory>
/home/itssahil/PROJECTS/Mol_Feturizer/Test_systems_manuscript/rnas/2o3w

>  <Rbt.Executable>
rbdock ($Id: //depot/dev/client3/rdock/2013.1/src/exe/rbdock.cxx#4 $)

>  <Rbt.Library>
libRbt.so (2013.1, Build901 2013/11/27)

>  <Rbt.Parameter_File>
/export/apps/rDock/src/rDock_2013.1_src/data/scripts/dock_solv.prm

>  <Rbt.Receptor>
prm/pocket_docking_5.prm

>  <SCORE>
-10.6091

>  <SCORE.INTER>
-4.09259

>  <SCORE.INTER.CONST>
1

>  <SCORE.INTER.POLAR>
0

>  <SCORE.INTER.ROT>
9

>  <SCORE.INTER.SOLV>
13.1282

>  <SCORE.INTER.VDW>
-16.7044

>  <SCORE.INTER.norm>
-0.0974427

>  <SCORE.INTRA>
-6.51647

>  <SCORE.INTRA.DIHEDRAL>
-15.9017

>  <SCORE.INTRA.DIHEDRAL.0>
27.8999

>  <SCORE.INTRA.POLAR>
0

>  <SCORE.INTRA.POLAR.0>
0

>  <SCORE.INTRA.REPUL>
0

>  <SCORE.INTRA.REPUL.0>
0

>  <SCORE.INTRA.SOLV>
-3.54335

>  <SCORE.INTRA.SOLV.lig_0>
-104.479

>  <SCORE.INTRA.VDW>
3.20608

>  <SCORE.INTRA.VDW.0>
-6.17816

>  <SCORE.INTRA.norm>
-0.155154

>  <SCORE.RESTR>
0

>  <SCORE.RESTR.CAVITY>
0

>  <SCORE.RESTR.norm>
0

>  <SCORE.SYSTEM>
0

>  <SCORE.SYSTEM.CONST>
0

>  <SCORE.SYSTEM.DIHEDRAL>
0

>  <SCORE.SYSTEM.SOLV>
0

>  <SCORE.SYSTEM.norm>
0

>  <SCORE.heavy>
42

>  <SCORE.norm>
-0.252597

>  <RMSD>
5.579

$$$$
ligand
 OpenBabel02271912133D
libRbt.so/2013.1/901 2013/11/27
 42 45  0  0  0  0  0  0  0  0999 V2000
   10.5551    3.1055    6.4264 C   0  0  2  0  0  0  0  0  0  0  0  0
   10.1413    2.0218    5.5769 O   0  0  0  0  0  0  0  0  0  0  0  0
   10.4062   -2.2990    5.8155 C   0  0  2  0  0  0  0  0  0  0  0  0
   10.3165   -3.7100    6.2966 N   0  0  0  0  0  0  0  0  0  0  0  0
    7.1368    1.4253    4.6557 C   0  0  1  0  0  0  0  0  0  0  0  0
    4.5492    3.3782    1.8234 C   0  0  1  0  0  0  0  0  0  0  0  0
    9.9489    4.4101    5.8275 C   0  0  2  0  0  0  0  0  0  0  0  0
    8.5083    4.2848    5.5457 N   0  0  0  0  0  0  0  0  0  0  0  0
   11.4012   -1.4511    6.7060 C   0  0  0  0  0  0  0  0  0  0  0  0
    6.7565    0.6905    3.3343 C   0  0  2  0  0  0  0  0  0  0  0  0
    7.7934    0.7222    2.3230 O   0  0  0  0  0  0  0  0  0  0  0  0
    4.6225    4.1359    0.4489 C   0  0  2  0  0  0  0  0  0  0  0  0
    5.8610    4.9665    0.3630 N   0  0  0  0  0  0  0  0  0  0  0  0
   10.6269    4.8163    4.5060 C   0  0  1  0  0  0  0  0  0  0  0  0
   10.0681    6.0359    4.0147 O   0  0  0  0  0  0  0  0  0  0  0  0
   11.4704    0.0167    6.1374 C   0  0  2  0  0  0  0  0  0  0  0  0
   12.4107    0.8403    6.9444 N   0  0  0  0  0  0  0  0  0  0  0  0
    5.4509    1.3973    2.9665 C   0  0  2  0  0  0  0  0  0  0  0  0
    5.6917    2.5649    2.1184 O   0  0  0  0  0  0  0  0  0  0  0  0
    3.3108    5.0387    0.2722 C   0  0  1  0  0  0  0  0  0  0  0  0
    2.1867    4.1777   -0.0179 O   0  0  0  0  0  0  0  0  0  0  0  0
   12.1516    4.9425    4.7262 C   0  0  2  0  0  0  0  0  0  0  0  0
   12.7852    5.3302    3.5293 O   0  0  0  0  0  0  0  0  0  0  0  0
   10.0390    0.6852    6.1457 C   0  0  2  0  0  0  0  0  0  0  0  0
    4.7972    1.8015    4.2987 C   0  0  2  0  0  0  0  0  0  0  0  0
    5.9177    2.0246    5.1515 O   0  0  0  0  0  0  0  0  0  0  0  0
    2.9867    5.9252    1.5671 C   0  0  2  0  0  0  0  0  0  0  0  0
    3.9988    6.9261    1.6684 O   0  0  0  0  0  0  0  0  0  0  0  0
   12.7103    3.5693    5.2280 C   0  0  2  0  0  0  0  0  0  0  0  0
   12.0309    3.1842    6.4649 O   0  0  0  0  0  0  0  0  0  0  0  0
    8.9970   -0.1208    5.3396 C   0  0  2  0  0  0  0  0  0  0  0  0
    7.7229    0.5271    5.6069 O   0  0  0  0  0  0  0  0  0  0  0  0
    3.8316    0.7379    4.9074 C   0  0  0  0  0  0  0  0  0  0  0  0
    2.7489    0.5164    4.0087 O   0  0  0  0  0  0  0  0  0  0  0  0
    2.9729    5.0305    2.8639 C   0  0  1  0  0  0  0  0  0  0  0  0
    4.2942    4.3822    2.9279 O   0  0  0  0  0  0  0  0  0  0  0  0
   14.2005    3.6036    5.4764 C   0  0  0  0  0  0  0  0  0  0  0  0
   14.6643    2.3209    5.8212 O   0  0  0  0  0  0  0  0  0  0  0  0
    8.9735   -1.6299    5.8272 C   0  0  1  0  0  0  0  0  0  0  0  0
    8.1213   -2.4082    4.9824 O   0  0  0  0  0  0  0  0  0  0  0  0
    2.6914    5.8379    4.2047 C   0  0  0  0  0  0  0  0  0  0  0  0
    3.7149    6.8561    4.5682 N   0  0  0  0  0  0  0  0  0  0  0  0
  1  2  1  6  0  0  0
  1  7  1  0  0  0  0
  1 30  1  0  0  0  0
  3  4  1  1  0  0  0
  3  9  1  0  0  0  0
  3 39  1  0  0  0  0
  5 10  1  0  0  0  0
  5 26  1  0  0  0  0
  5 32  1  1  0  0  0
  6 12  1  0  0  0  0
  6 36  1  0  0  0  0
  6 19  1  1  0  0  0
  7  8  1  6  0  0  0
  7 14  1  0  0  0  0
  9 16  1  0  0  0  0
 10 11  1  6  0  0  0
 10 18  1  0  0  0  0
 12 13  1  1  0  0  0
 12 20  1  0  0  0  0
 14 15  1  1  0  0  0
 14 22  1  0  0  0  0
 16 17  1  1  0  0  0
 16 24  1  0  0  0  0
 18 19  1  6  0  0  0
 18 25  1  0  0  0  0
 20 21  1  1  0  0  0
 20 27  1  0  0  0  0
 22 23  1  6  0  0  0
 22 29  1  0  0  0  0
 24  2  1  6  0  0  0
 24 31  1  0  0  0  0
 25 26  1  0  0  0  0
 25 33  1  1  0  0  0
 27 28  1  1  0  0  0
 27 35  1  0  0  0  0
 29 30  1  0  0  0  0
 29 37  1  1  0  0  0
 31 32  1  1  0  0  0
 31 39  1  0  0  0  0
 33 34  1  0  0  0  0
 35 36  1  0  0  0  0
 35 41  1  1  0  0  0
 37 38  1  0  0  0  0
 39 40  1  6  0  0  0
 41 42  1  0  0  0  0
M  END
>  <CHROM.1>
-153.56664178,-83.49537149,-174.03013640,-151.33795445,-61.86441130,-175.32062456
101.14012261,64.66448352,-63.38756738,7.84217587,2.55077452,4.21076129,-0.45457505
-0.31932626,-0.28345625

>  <Name>
ligand

>  <RI>
0

>  <Rbt.Current_Directory>
/home/itssahil/PROJECTS/Mol_Feturizer/Test_systems_manuscript/rnas/2o3w

>  <Rbt.Executable>
rbdock ($Id: //depot/dev/client3/rdock/2013.1/src/exe/rbdock.cxx#4 $)

>  <Rbt.Library>
libRbt.so (2013.1, Build901 2013/11/27)

>  <Rbt.Parameter_File>
/export/apps/rDock/src/rDock_2013.1_src/data/scripts/dock_solv.prm

>  <Rbt.Receptor>
prm/pocket_docking_4.prm

>  <SCORE>
-6.30509

>  <SCORE.INTER>
-2.0922

>  <SCORE.INTER.CONST>
1

>  <SCORE.INTER.POLAR>
0

>  <SCORE.INTER.ROT>
9

>  <SCORE.INTER.SOLV>
13.8492

>  <SCORE.INTER.VDW>
-15.6112

>  <SCORE.INTER.norm>
-0.0498143

>  <SCORE.INTRA>
-4.21298

>  <SCORE.INTRA.DIHEDRAL>
-13.153

>  <SCORE.INTRA.DIHEDRAL.0>
27.8999

>  <SCORE.INTRA.POLAR>
0

>  <SCORE.INTRA.POLAR.0>
0

>  <SCORE.INTRA.REPUL>
0

>  <SCORE.INTRA.REPUL.0>
0

>  <SCORE.INTRA.SOLV>
0.890002

>  <SCORE.INTRA.SOLV.lig_0>
-104.479

>  <SCORE.INTRA.VDW>
1.91852

>  <SCORE.INTRA.VDW.0>
-6.17816

>  <SCORE.INTRA.norm>
-0.100309

>  <SCORE.RESTR>
9.2922e-05

>  <SCORE.RESTR.CAVITY>
9.2922e-05

>  <SCORE.RESTR.norm>
2.21243e-06

>  <SCORE.SYSTEM>
0

>  <SCORE.SYSTEM.CONST>
0

>  <SCORE.SYSTEM.DIHEDRAL>
0

>  <SCORE.SYSTEM.SOLV>
0

>  <SCORE.SYSTEM.norm>
0

>  <SCORE.heavy>
42

>  <SCORE.norm>
-0.150121

>  <RMSD>
5.592

$$$$
ligand
 OpenBabel02271912133D
libRbt.so/2013.1/901 2013/11/27
 42 45  0  0  0  0  0  0  0  0999 V2000
    7.3755   -1.3910    4.2086 C   0  0  2  0  0  0  0  0  0  0  0  0
    6.3495   -2.2947    3.7637 O   0  0  0  0  0  0  0  0  0  0  0  0
    2.0308   -2.0815    4.0793 C   0  0  2  0  0  0  0  0  0  0  0  0
    0.6424   -1.9856    4.6210 N   0  0  0  0  0  0  0  0  0  0  0  0
    5.4599    1.3894    4.0380 C   0  0  1  0  0  0  0  0  0  0  0  0
    5.6973    5.5946    3.0164 C   0  0  1  0  0  0  0  0  0  0  0  0
    8.7080   -1.8541    3.5466 C   0  0  2  0  0  0  0  0  0  0  0  0
    8.5737   -2.0613    2.0942 N   0  0  0  0  0  0  0  0  0  0  0  0
    2.7367   -3.4189    4.5428 C   0  0  0  0  0  0  0  0  0  0  0  0
    4.1590    2.2265    3.8434 C   0  0  2  0  0  0  0  0  0  0  0  0
    3.5124    2.0215    2.5632 O   0  0  0  0  0  0  0  0  0  0  0  0
    4.7154    6.6615    3.6217 C   0  0  2  0  0  0  0  0  0  0  0  0
    3.4549    6.7395    2.8242 N   0  0  0  0  0  0  0  0  0  0  0  0
    9.2255   -3.1779    4.1388 C   0  0  1  0  0  0  0  0  0  0  0  0
   10.4662   -3.5429    3.5319 O   0  0  0  0  0  0  0  0  0  0  0  0
    4.1845   -3.4729    3.9235 C   0  0  2  0  0  0  0  0  0  0  0  0
    4.8739   -4.7278    4.3281 N   0  0  0  0  0  0  0  0  0  0  0  0
    4.6748    3.6423    4.1057 C   0  0  2  0  0  0  0  0  0  0  0  0
    5.1392    4.2823    2.8747 O   0  0  0  0  0  0  0  0  0  0  0  0
    5.4499    8.0843    3.6778 C   0  0  1  0  0  0  0  0  0  0  0  0
    6.4267    8.0641    4.7428 O   0  0  0  0  0  0  0  0  0  0  0  0
    9.3669   -3.0367    5.6715 C   0  0  2  0  0  0  0  0  0  0  0  0
    9.8558   -4.2353    6.2272 O   0  0  0  0  0  0  0  0  0  0  0  0
    5.0362   -2.2264    4.3890 C   0  0  2  0  0  0  0  0  0  0  0  0
    5.8186    3.4956    5.1233 C   0  0  2  0  0  0  0  0  0  0  0  0
    6.3586    2.2124    4.8166 O   0  0  0  0  0  0  0  0  0  0  0  0
    6.1689    8.4679    2.2982 C   0  0  2  0  0  0  0  0  0  0  0  0
    5.1466    8.7230    1.3358 O   0  0  0  0  0  0  0  0  0  0  0  0
    7.9723   -2.6728    6.2816 C   0  0  2  0  0  0  0  0  0  0  0  0
    7.4822   -1.4315    5.6826 O   0  0  0  0  0  0  0  0  0  0  0  0
    4.3777   -0.8793    4.0190 C   0  0  2  0  0  0  0  0  0  0  0  0
    5.1873    0.1347    4.6755 O   0  0  0  0  0  0  0  0  0  0  0  0
    5.3833    3.5784    6.6193 C   0  0  0  0  0  0  0  0  0  0  0  0
    6.5262    3.4077    7.4520 O   0  0  0  0  0  0  0  0  0  0  0  0
    7.0969    7.2922    1.8094 C   0  0  1  0  0  0  0  0  0  0  0  0
    6.2295    6.1070    1.6946 O   0  0  0  0  0  0  0  0  0  0  0  0
    8.0194   -2.5084    7.7831 C   0  0  0  0  0  0  0  0  0  0  0  0
    8.3380   -3.7344    8.3953 O   0  0  0  0  0  0  0  0  0  0  0  0
    2.8832   -0.8350    4.5485 C   0  0  1  0  0  0  0  0  0  0  0  0
    2.2273    0.3451    4.0765 O   0  0  0  0  0  0  0  0  0  0  0  0
    7.8263    7.5756    0.4251 C   0  0  0  0  0  0  0  0  0  0  0  0
    8.7237    6.4920   -0.0616 N   0  0  0  0  0  0  0  0  0  0  0  0
  1  2  1  6  0  0  0
  1  7  1  0  0  0  0
  1 30  1  0  0  0  0
  3  4  1  1  0  0  0
  3  9  1  0  0  0  0
  3 39  1  0  0  0  0
  5 10  1  0  0  0  0
  5 26  1  0  0  0  0
  5 32  1  1  0  0  0
  6 12  1  0  0  0  0
  6 36  1  0  0  0  0
  6 19  1  6  0  0  0
  7  8  1  6  0  0  0
  7 14  1  0  0  0  0
  9 16  1  0  0  0  0
 10 11  1  6  0  0  0
 10 18  1  0  0  0  0
 12 13  1  6  0  0  0
 12 20  1  0  0  0  0
 14 15  1  6  0  0  0
 14 22  1  0  0  0  0
 16 17  1  1  0  0  0
 16 24  1  0  0  0  0
 18 19  1  6  0  0  0
 18 25  1  0  0  0  0
 20 21  1  1  0  0  0
 20 27  1  0  0  0  0
 22 23  1  1  0  0  0
 22 29  1  0  0  0  0
 24  2  1  6  0  0  0
 24 31  1  0  0  0  0
 25 26  1  0  0  0  0
 25 33  1  1  0  0  0
 27 28  1  6  0  0  0
 27 35  1  0  0  0  0
 29 30  1  0  0  0  0
 29 37  1  1  0  0  0
 31 32  1  1  0  0  0
 31 39  1  0  0  0  0
 33 34  1  0  0  0  0
 35 36  1  0  0  0  0
 35 41  1  6  0  0  0
 37 38  1  0  0  0  0
 39 40  1  6  0  0  0
 41 42  1  0  0  0  0
M  END
>  <CHROM.1>
170.57270237,-169.76865534,-177.43627253,-59.90667590,179.08867508,-64.91136415
142.22150510,65.10402458,179.36662711,5.97377446,1.31399050,4.09751289,-1.47284160
-0.02263729,-0.24833628

>  <Name>
ligand

>  <RI>
0

>  <Rbt.Current_Directory>
/home/itssahil/PROJECTS/Mol_Feturizer/Test_systems_manuscript/rnas/2o3w

>  <Rbt.Executable>
rbdock ($Id: //depot/dev/client3/rdock/2013.1/src/exe/rbdock.cxx#4 $)

>  <Rbt.Library>
libRbt.so (2013.1, Build901 2013/11/27)

>  <Rbt.Parameter_File>
/export/apps/rDock/src/rDock_2013.1_src/data/scripts/dock_solv.prm

>  <Rbt.Receptor>
prm/pocket_docking_7.prm

>  <SCORE>
-11.8064

>  <SCORE.INTER>
-2.07269

>  <SCORE.INTER.CONST>
1

>  <SCORE.INTER.POLAR>
0

>  <SCORE.INTER.ROT>
9

>  <SCORE.INTER.SOLV>
12.0014

>  <SCORE.INTER.VDW>
-14.9823

>  <SCORE.INTER.norm>
-0.0493498

>  <SCORE.INTRA>
-9.73372

>  <SCORE.INTRA.DIHEDRAL>
-21.5489

>  <SCORE.INTRA.DIHEDRAL.0>
27.8999

>  <SCORE.INTRA.POLAR>
0

>  <SCORE.INTRA.POLAR.0>
0

>  <SCORE.INTRA.REPUL>
0.0537169

>  <SCORE.INTRA.REPUL.0>
0

>  <SCORE.INTRA.SOLV>
-5.18908

>  <SCORE.INTRA.SOLV.lig_0>
-104.479

>  <SCORE.INTRA.VDW>
3.36668

>  <SCORE.INTRA.VDW.0>
-6.17816

>  <SCORE.INTRA.norm>
-0.231755

>  <SCORE.RESTR>
0

>  <SCORE.RESTR.CAVITY>
0

>  <SCORE.RESTR.norm>
0

>  <SCORE.SYSTEM>
0

>  <SCORE.SYSTEM.CONST>
0

>  <SCORE.SYSTEM.DIHEDRAL>
0

>  <SCORE.SYSTEM.SOLV>
0

>  <SCORE.SYSTEM.norm>
0

>  <SCORE.heavy>
42

>  <SCORE.norm>
-0.281105

>  <RMSD>
5.603

$$$$
ligand
 OpenBabel02271912133D
libRbt.so/2013.1/901 2013/11/27
 42 45  0  0  0  0  0  0  0  0999 V2000
    4.5742   -2.2161    2.2534 C   0  0  2  0  0  0  0  0  0  0  0  0
    5.8246   -2.0029    2.9303 O   0  0  0  0  0  0  0  0  0  0  0  0
    9.8219   -3.4798    2.1323 C   0  0  2  0  0  0  0  0  0  0  0  0
   11.1374   -3.7575    1.4823 N   0  0  0  0  0  0  0  0  0  0  0  0
    8.6934    0.8251    3.6285 C   0  0  1  0  0  0  0  0  0  0  0  0
   10.4160    4.6391    4.0784 C   0  0  1  0  0  0  0  0  0  0  0  0
    4.0764   -0.8218    1.7672 C   0  0  2  0  0  0  0  0  0  0  0  0
    5.1177   -0.0726    1.0426 N   0  0  0  0  0  0  0  0  0  0  0  0
    8.6285   -4.1028    1.3020 C   0  0  0  0  0  0  0  0  0  0  0  0
    8.5744    2.2635    3.0389 C   0  0  2  0  0  0  0  0  0  0  0  0
    9.6327    2.6099    2.1120 O   0  0  0  0  0  0  0  0  0  0  0  0
   11.8491    5.0457    4.5780 C   0  0  2  0  0  0  0  0  0  0  0  0
   11.8491    5.2982    6.0501 N   0  0  0  0  0  0  0  0  0  0  0  0
    3.6145    0.0726    2.9324 C   0  0  1  0  0  0  0  0  0  0  0  0
    3.1305    1.3226    2.4383 O   0  0  0  0  0  0  0  0  0  0  0  0
    7.2742   -3.7971    2.0469 C   0  0  2  0  0  0  0  0  0  0  0  0
    6.1288   -4.3826    1.2993 N   0  0  0  0  0  0  0  0  0  0  0  0
    8.5110    3.1034    4.3155 C   0  0  2  0  0  0  0  0  0  0  0  0
    9.8445    3.5135    4.7565 O   0  0  0  0  0  0  0  0  0  0  0  0
   12.3426    6.3396    3.7722 C   0  0  1  0  0  0  0  0  0  0  0  0
   12.6892    5.9469    2.4251 O   0  0  0  0  0  0  0  0  0  0  0  0
    2.5331   -0.6669    3.7528 C   0  0  2  0  0  0  0  0  0  0  0  0
    2.0875    0.1455    4.8138 O   0  0  0  0  0  0  0  0  0  0  0  0
    7.0641   -2.2391    2.2036 C   0  0  2  0  0  0  0  0  0  0  0  0
    7.8220    2.2212    5.3703 C   0  0  2  0  0  0  0  0  0  0  0  0
    8.2089    0.9032    4.9887 O   0  0  0  0  0  0  0  0  0  0  0  0
   11.2398    7.5011    3.7250 C   0  0  2  0  0  0  0  0  0  0  0  0
   11.1137    8.0295    5.0445 O   0  0  0  0  0  0  0  0  0  0  0  0
    3.1319   -2.0070    4.2960 C   0  0  2  0  0  0  0  0  0  0  0  0
    3.5955   -2.8278    3.1775 O   0  0  0  0  0  0  0  0  0  0  0  0
    8.2229   -1.5515    2.9583 C   0  0  2  0  0  0  0  0  0  0  0  0
    7.9586   -0.1259    2.8470 O   0  0  0  0  0  0  0  0  0  0  0  0
    6.2687    2.3558    5.4279 C   0  0  0  0  0  0  0  0  0  0  0  0
    5.7155    1.9599    4.1765 O   0  0  0  0  0  0  0  0  0  0  0  0
    9.8558    6.9336    3.2303 C   0  0  1  0  0  0  0  0  0  0  0  0
    9.5042    5.8454    4.1590 O   0  0  0  0  0  0  0  0  0  0  0  0
    2.1359   -2.8017    5.1085 C   0  0  0  0  0  0  0  0  0  0  0  0
    1.8025   -2.1042    6.2839 O   0  0  0  0  0  0  0  0  0  0  0  0
    9.6113   -1.9201    2.2857 C   0  0  1  0  0  0  0  0  0  0  0  0
   10.6914   -1.4089    3.0716 O   0  0  0  0  0  0  0  0  0  0  0  0
    8.6912    8.0154    3.1851 C   0  0  0  0  0  0  0  0  0  0  0  0
    8.2020    8.4882    4.5094 N   0  0  0  0  0  0  0  0  0  0  0  0
  1  2  1  1  0  0  0
  1  7  1  0  0  0  0
  1 30  1  0  0  0  0
  3  4  1  6  0  0  0
  3  9  1  0  0  0  0
  3 39  1  0  0  0  0
  5 10  1  0  0  0  0
  5 26  1  0  0  0  0
  5 32  1  6  0  0  0
  6 12  1  0  0  0  0
  6 36  1  0  0  0  0
  6 19  1  1  0  0  0
  7  8  1  1  0  0  0
  7 14  1  0  0  0  0
  9 16  1  0  0  0  0
 10 11  1  6  0  0  0
 10 18  1  0  0  0  0
 12 13  1  1  0  0  0
 12 20  1  0  0  0  0
 14 15  1  6  0  0  0
 14 22  1  0  0  0  0
 16 17  1  6  0  0  0
 16 24  1  0  0  0  0
 18 19  1  1  0  0  0
 18 25  1  0  0  0  0
 20 21  1  6  0  0  0
 20 27  1  0  0  0  0
 22 23  1  1  0  0  0
 22 29  1  0  0  0  0
 24  2  1  1  0  0  0
 24 31  1  0  0  0  0
 25 26  1  0  0  0  0
 25 33  1  6  0  0  0
 27 28  1  1  0  0  0
 27 35  1  0  0  0  0
 29 30  1  0  0  0  0
 29 37  1  6  0  0  0
 31 32  1  6  0  0  0
 31 39  1  0  0  0  0
 33 34  1  0  0  0  0
 35 36  1  0  0  0  0
 35 41  1  1  0  0  0
 37 38  1  0  0  0  0
 39 40  1  1  0  0  0
 41 42  1  0  0  0  0
M  END
>  <CHROM.1>
-98.28836506,-73.71928060,80.18034667,-179.85203520,61.49362737,-65.60978469
168.75145271,162.01501512,-70.07994460,7.57621655,1.23711590,3.47401932,2.18493621
-0.20678511,-2.88368158

>  <Name>
ligand

>  <RI>
0

>  <Rbt.Current_Directory>
/home/itssahil/PROJECTS/Mol_Feturizer/Test_systems_manuscript/rnas/2o3w

>  <Rbt.Executable>
rbdock ($Id: //depot/dev/client3/rdock/2013.1/src/exe/rbdock.cxx#4 $)

>  <Rbt.Library>
libRbt.so (2013.1, Build901 2013/11/27)

>  <Rbt.Parameter_File>
/export/apps/rDock/src/rDock_2013.1_src/data/scripts/dock_solv.prm

>  <Rbt.Receptor>
prm/pocket_docking_5.prm

>  <SCORE>
-7.66807

>  <SCORE.INTER>
-0.202496

>  <SCORE.INTER.CONST>
1

>  <SCORE.INTER.POLAR>
0

>  <SCORE.INTER.ROT>
9

>  <SCORE.INTER.SOLV>
11.993

>  <SCORE.INTER.VDW>
-13.7327

>  <SCORE.INTER.norm>
-0.00482133

>  <SCORE.INTRA>
-7.46557

>  <SCORE.INTRA.DIHEDRAL>
-17.3726

>  <SCORE.INTRA.DIHEDRAL.0>
27.8999

>  <SCORE.INTRA.POLAR>
0

>  <SCORE.INTRA.POLAR.0>
0

>  <SCORE.INTRA.REPUL>
0.00202137

>  <SCORE.INTRA.REPUL.0>
0

>  <SCORE.INTRA.SOLV>
-0.171659

>  <SCORE.INTRA.SOLV.lig_0>
-104.479

>  <SCORE.INTRA.VDW>
1.29645

>  <SCORE.INTRA.VDW.0>
-6.17816

>  <SCORE.INTRA.norm>
-0.177752

>  <SCORE.RESTR>
0

>  <SCORE.RESTR.CAVITY>
0

>  <SCORE.RESTR.norm>
0

>  <SCORE.SYSTEM>
0

>  <SCORE.SYSTEM.CONST>
0

>  <SCORE.SYSTEM.DIHEDRAL>
0

>  <SCORE.SYSTEM.SOLV>
0

>  <SCORE.SYSTEM.norm>
0

>  <SCORE.heavy>
42

>  <SCORE.norm>
-0.182573

>  <RMSD>
5.655

$$$$
ligand
 OpenBabel02271912133D
libRbt.so/2013.1/901 2013/11/27
 42 45  0  0  0  0  0  0  0  0999 V2000
   11.0290    1.9280    6.4155 C   0  0  2  0  0  0  0  0  0  0  0  0
   10.7508    1.1858    5.2159 O   0  0  0  0  0  0  0  0  0  0  0  0
   11.9185   -2.8432    4.1207 C   0  0  2  0  0  0  0  0  0  0  0  0
   12.0328   -4.3313    4.0673 N   0  0  0  0  0  0  0  0  0  0  0  0
    8.3521    0.8249    3.6613 C   0  0  1  0  0  0  0  0  0  0  0  0
    8.2881    4.0441    1.0300 C   0  0  1  0  0  0  0  0  0  0  0  0
   10.1159    3.1905    6.3916 C   0  0  2  0  0  0  0  0  0  0  0  0
    8.7072    2.8621    6.1119 N   0  0  0  0  0  0  0  0  0  0  0  0
   12.4396   -2.2767    5.5025 C   0  0  0  0  0  0  0  0  0  0  0  0
    8.5511    1.1276    2.1449 C   0  0  2  0  0  0  0  0  0  0  0  0
    9.8109    1.7718    1.8330 O   0  0  0  0  0  0  0  0  0  0  0  0
    9.5660    4.7877    1.5616 C   0  0  2  0  0  0  0  0  0  0  0  0
    9.2087    5.7585    2.6390 N   0  0  0  0  0  0  0  0  0  0  0  0
   10.5555    4.2095    5.3242 C   0  0  1  0  0  0  0  0  0  0  0  0
    9.7168    5.3653    5.3647 O   0  0  0  0  0  0  0  0  0  0  0  0
   12.3150   -0.7060    5.4896 C   0  0  2  0  0  0  0  0  0  0  0  0
   12.8110   -0.1371    6.7718 N   0  0  0  0  0  0  0  0  0  0  0  0
    7.2954    1.9451    1.8379 C   0  0  2  0  0  0  0  0  0  0  0  0
    7.5223    3.3763    2.0406 O   0  0  0  0  0  0  0  0  0  0  0  0
   10.2946    5.5258    0.3404 C   0  0  1  0  0  0  0  0  0  0  0  0
   10.9506    4.5337   -0.4808 O   0  0  0  0  0  0  0  0  0  0  0  0
   12.0394    4.5808    5.5460 C   0  0  2  0  0  0  0  0  0  0  0  0
   12.4527    5.5259    4.5866 O   0  0  0  0  0  0  0  0  0  0  0  0
   10.8144   -0.2682    5.2608 C   0  0  2  0  0  0  0  0  0  0  0  0
    6.2027    1.4151    2.7815 C   0  0  2  0  0  0  0  0  0  0  0  0
    6.9418    1.0007    3.9280 O   0  0  0  0  0  0  0  0  0  0  0  0
    9.2842    6.3837   -0.5600 C   0  0  2  0  0  0  0  0  0  0  0  0
    8.8537    7.4991    0.2191 O   0  0  0  0  0  0  0  0  0  0  0  0
   12.9096    3.2831    5.4545 C   0  0  2  0  0  0  0  0  0  0  0  0
   12.4555    2.3149    6.4526 O   0  0  0  0  0  0  0  0  0  0  0  0
   10.2184   -0.8336    3.9529 C   0  0  2  0  0  0  0  0  0  0  0  0
    8.8055   -0.4927    3.9984 O   0  0  0  0  0  0  0  0  0  0  0  0
    5.3510    0.2403    2.2080 C   0  0  0  0  0  0  0  0  0  0  0  0
    6.1949   -0.8839    1.9778 O   0  0  0  0  0  0  0  0  0  0  0  0
    8.0463    5.5103   -0.9923 C   0  0  1  0  0  0  0  0  0  0  0  0
    7.4324    5.0246    0.2557 O   0  0  0  0  0  0  0  0  0  0  0  0
   14.3812    3.5536    5.6668 C   0  0  0  0  0  0  0  0  0  0  0  0
   15.1179    2.3631    5.5282 O   0  0  0  0  0  0  0  0  0  0  0  0
   10.4156   -2.4063    3.8947 C   0  0  1  0  0  0  0  0  0  0  0  0
   10.0017   -2.9086    2.6211 O   0  0  0  0  0  0  0  0  0  0  0  0
    6.9726    6.2952   -1.8638 C   0  0  0  0  0  0  0  0  0  0  0  0
    7.5041    6.9783   -3.0752 N   0  0  0  0  0  0  0  0  0  0  0  0
  1  2  1  6  0  0  0
  1  7  1  0  0  0  0
  1 30  1  0  0  0  0
  3  4  1  1  0  0  0
  3  9  1  0  0  0  0
  3 39  1  0  0  0  0
  5 10  1  0  0  0  0
  5 26  1  0  0  0  0
  5 32  1  6  0  0  0
  6 12  1  0  0  0  0
  6 36  1  0  0  0  0
  6 19  1  1  0  0  0
  7  8  1  6  0  0  0
  7 14  1  0  0  0  0
  9 16  1  0  0  0  0
 10 11  1  1  0  0  0
 10 18  1  0  0  0  0
 12 13  1  1  0  0  0
 12 20  1  0  0  0  0
 14 15  1  1  0  0  0
 14 22  1  0  0  0  0
 16 17  1  1  0  0  0
 16 24  1  0  0  0  0
 18 19  1  1  0  0  0
 18 25  1  0  0  0  0
 20 21  1  6  0  0  0
 20 27  1  0  0  0  0
 22 23  1  6  0  0  0
 22 29  1  0  0  0  0
 24  2  1  6  0  0  0
 24 31  1  0  0  0  0
 25 26  1  0  0  0  0
 25 33  1  6  0  0  0
 27 28  1  1  0  0  0
 27 35  1  0  0  0  0
 29 30  1  0  0  0  0
 29 37  1  1  0  0  0
 31 32  1  1  0  0  0
 31 39  1  0  0  0  0
 33 34  1  0  0  0  0
 35 36  1  0  0  0  0
 35 41  1  1  0  0  0
 37 38  1  0  0  0  0
 39 40  1  6  0  0  0
 41 42  1  0  0  0  0
M  END
>  <CHROM.1>
-145.93789380,-67.54401759,75.40957565,-123.65891353,63.08327345,-177.97701650
79.49788192,68.05534934,53.74835979,9.86700749,2.30824866,3.21037217,-1.02494362
-0.72272049,-0.32536683

>  <Name>
ligand

>  <RI>
0

>  <Rbt.Current_Directory>
/home/itssahil/PROJECTS/Mol_Feturizer/Test_systems_manuscript/rnas/2o3w

>  <Rbt.Executable>
rbdock ($Id: //depot/dev/client3/rdock/2013.1/src/exe/rbdock.cxx#4 $)

>  <Rbt.Library>
libRbt.so (2013.1, Build901 2013/11/27)

>  <Rbt.Parameter_File>
/export/apps/rDock/src/rDock_2013.1_src/data/scripts/dock_solv.prm

>  <Rbt.Receptor>
prm/pocket_docking_4.prm

>  <SCORE>
-4.72224

>  <SCORE.INTER>
-1.03705

>  <SCORE.INTER.CONST>
1

>  <SCORE.INTER.POLAR>
0

>  <SCORE.INTER.ROT>
9

>  <SCORE.INTER.SOLV>
9.94268

>  <SCORE.INTER.VDW>
-13.6056

>  <SCORE.INTER.norm>
-0.0246917

>  <SCORE.INTRA>
-3.68518

>  <SCORE.INTRA.DIHEDRAL>
-12.7701

>  <SCORE.INTRA.DIHEDRAL.0>
27.8999

>  <SCORE.INTRA.POLAR>
0

>  <SCORE.INTRA.POLAR.0>
0

>  <SCORE.INTRA.REPUL>
0

>  <SCORE.INTRA.REPUL.0>
0

>  <SCORE.INTRA.SOLV>
2.66696

>  <SCORE.INTRA.SOLV.lig_0>
-104.479

>  <SCORE.INTRA.VDW>
1.36638

>  <SCORE.INTRA.VDW.0>
-6.17816

>  <SCORE.INTRA.norm>
-0.0877425

>  <SCORE.RESTR>
0

>  <SCORE.RESTR.CAVITY>
0

>  <SCORE.RESTR.norm>
0

>  <SCORE.SYSTEM>
0

>  <SCORE.SYSTEM.CONST>
0

>  <SCORE.SYSTEM.DIHEDRAL>
0

>  <SCORE.SYSTEM.SOLV>
0

>  <SCORE.SYSTEM.norm>
0

>  <SCORE.heavy>
42

>  <SCORE.norm>
-0.112434

>  <RMSD>
5.659

$$$$
ligand
 OpenBabel02271912133D
libRbt.so/2013.1/901 2013/11/27
 42 45  0  0  0  0  0  0  0  0999 V2000
    8.1308    4.8598    6.1907 C   0  0  2  0  0  0  0  0  0  0  0  0
    8.3767    3.6914    5.3897 O   0  0  0  0  0  0  0  0  0  0  0  0
   11.0964    0.3356    5.7605 C   0  0  2  0  0  0  0  0  0  0  0  0
   11.8308   -0.8553    6.2828 N   0  0  0  0  0  0  0  0  0  0  0  0
    6.2953    1.9268    4.8422 C   0  0  1  0  0  0  0  0  0  0  0  0
    4.8100    3.8294    1.5179 C   0  0  1  0  0  0  0  0  0  0  0  0
    6.8470    4.5762    7.0270 C   0  0  2  0  0  0  0  0  0  0  0  0
    6.9029    3.2792    7.7236 N   0  0  0  0  0  0  0  0  0  0  0  0
   11.3902    1.6202    6.6353 C   0  0  0  0  0  0  0  0  0  0  0  0
    6.2493    1.7509    3.2937 C   0  0  2  0  0  0  0  0  0  0  0  0
    7.1031    2.6712    2.5704 O   0  0  0  0  0  0  0  0  0  0  0  0
    4.3705    5.3176    1.2711 C   0  0  2  0  0  0  0  0  0  0  0  0
    2.8887    5.4629    1.3897 N   0  0  0  0  0  0  0  0  0  0  0  0
    5.5756    4.5602    6.1585 C   0  0  1  0  0  0  0  0  0  0  0  0
    4.4215    4.3368    6.9703 O   0  0  0  0  0  0  0  0  0  0  0  0
   10.6084    2.8438    6.0237 C   0  0  2  0  0  0  0  0  0  0  0  0
   10.8739    4.0753    6.8151 N   0  0  0  0  0  0  0  0  0  0  0  0
    4.7500    1.8871    3.0237 C   0  0  2  0  0  0  0  0  0  0  0  0
    4.3738    3.2774    2.7663 O   0  0  0  0  0  0  0  0  0  0  0  0
    4.8810    5.7871   -0.1731 C   0  0  1  0  0  0  0  0  0  0  0  0
    6.3107    5.9924   -0.1192 O   0  0  0  0  0  0  0  0  0  0  0  0
    5.4677    5.8898    5.3777 C   0  0  2  0  0  0  0  0  0  0  0  0
    4.2997    5.8977    4.5901 O   0  0  0  0  0  0  0  0  0  0  0  0
    9.0553    2.5553    5.9972 C   0  0  2  0  0  0  0  0  0  0  0  0
    4.0420    1.3407    4.2749 C   0  0  2  0  0  0  0  0  0  0  0  0
    4.9607    1.6442    5.3220 O   0  0  0  0  0  0  0  0  0  0  0  0
    4.5342    4.7326   -1.3286 C   0  0  2  0  0  0  0  0  0  0  0  0
    3.1198    4.7496   -1.5171 O   0  0  0  0  0  0  0  0  0  0  0  0
    6.7398    6.0605    4.4820 C   0  0  2  0  0  0  0  0  0  0  0  0
    7.9382    6.0394    5.3206 O   0  0  0  0  0  0  0  0  0  0  0  0
    8.6967    1.2789    5.2050 C   0  0  2  0  0  0  0  0  0  0  0  0
    7.2770    1.0699    5.4397 O   0  0  0  0  0  0  0  0  0  0  0  0
    3.7204   -0.1855    4.2354 C   0  0  0  0  0  0  0  0  0  0  0  0
    2.8592   -0.5131    5.3217 O   0  0  0  0  0  0  0  0  0  0  0  0
    5.0130    3.2872   -0.9239 C   0  0  1  0  0  0  0  0  0  0  0  0
    4.3477    2.9785    0.3537 O   0  0  0  0  0  0  0  0  0  0  0  0
    6.7212    7.3438    3.6842 C   0  0  0  0  0  0  0  0  0  0  0  0
    5.6532    7.3301    2.7685 O   0  0  0  0  0  0  0  0  0  0  0  0
    9.5419    0.0468    5.7374 C   0  0  1  0  0  0  0  0  0  0  0  0
    9.3226   -1.0973    4.9077 O   0  0  0  0  0  0  0  0  0  0  0  0
    4.6775    2.1681   -2.0027 C   0  0  0  0  0  0  0  0  0  0  0  0
    3.2336    1.8420   -2.1620 N   0  0  0  0  0  0  0  0  0  0  0  0
  1  2  1  6  0  0  0
  1  7  1  0  0  0  0
  1 30  1  0  0  0  0
  3  4  1  1  0  0  0
  3  9  1  0  0  0  0
  3 39  1  0  0  0  0
  5 10  1  0  0  0  0
  5 26  1  0  0  0  0
  5 32  1  1  0  0  0
  6 12  1  0  0  0  0
  6 36  1  0  0  0  0
  6 19  1  1  0  0  0
  7  8  1  6  0  0  0
  7 14  1  0  0  0  0
  9 16  1  0  0  0  0
 10 11  1  6  0  0  0
 10 18  1  0  0  0  0
 12 13  1  6  0  0  0
 12 20  1  0  0  0  0
 14 15  1  1  0  0  0
 14 22  1  0  0  0  0
 16 17  1  1  0  0  0
 16 24  1  0  0  0  0
 18 19  1  1  0  0  0
 18 25  1  0  0  0  0
 20 21  1  1  0  0  0
 20 27  1  0  0  0  0
 22 23  1  6  0  0  0
 22 29  1  0  0  0  0
 24  2  1  6  0  0  0
 24 31  1  0  0  0  0
 25 26  1  0  0  0  0
 25 33  1  6  0  0  0
 27 28  1  1  0  0  0
 27 35  1  0  0  0  0
 29 30  1  0  0  0  0
 29 37  1  1  0  0  0
 31 32  1  1  0  0  0
 31 39  1  0  0  0  0
 33 34  1  0  0  0  0
 35 36  1  0  0  0  0
 35 41  1  6  0  0  0
 37 38  1  0  0  0  0
 39 40  1  6  0  0  0
 41 42  1  0  0  0  0
M  END
>  <CHROM.1>
-81.60163965,-79.93953743,70.94821563,179.24936657,-169.37394999,-64.11412858
71.92187515,67.55907379,-68.87647643,6.37268715,3.23754590,3.71294131,-0.13131097
-0.90398066,0.22171466

>  <Name>
ligand

>  <RI>
0

>  <Rbt.Current_Directory>
/home/itssahil/PROJECTS/Mol_Feturizer/Test_systems_manuscript/rnas/2o3w

>  <Rbt.Executable>
rbdock ($Id: //depot/dev/client3/rdock/2013.1/src/exe/rbdock.cxx#4 $)

>  <Rbt.Library>
libRbt.so (2013.1, Build901 2013/11/27)

>  <Rbt.Parameter_File>
/export/apps/rDock/src/rDock_2013.1_src/data/scripts/dock_solv.prm

>  <Rbt.Receptor>
prm/pocket_docking_5.prm

>  <SCORE>
-9.42299

>  <SCORE.INTER>
-0.0970536

>  <SCORE.INTER.CONST>
1

>  <SCORE.INTER.POLAR>
0

>  <SCORE.INTER.ROT>
9

>  <SCORE.INTER.SOLV>
12.3529

>  <SCORE.INTER.VDW>
-13.7823

>  <SCORE.INTER.norm>
-0.0023108

>  <SCORE.INTRA>
-9.32594

>  <SCORE.INTRA.DIHEDRAL>
-21.6588

>  <SCORE.INTRA.DIHEDRAL.0>
27.8999

>  <SCORE.INTRA.POLAR>
0

>  <SCORE.INTRA.POLAR.0>
0

>  <SCORE.INTRA.REPUL>
0

>  <SCORE.INTRA.REPUL.0>
0

>  <SCORE.INTRA.SOLV>
3.6807

>  <SCORE.INTRA.SOLV.lig_0>
-104.479

>  <SCORE.INTRA.VDW>
-0.336871

>  <SCORE.INTRA.VDW.0>
-6.17816

>  <SCORE.INTRA.norm>
-0.222046

>  <SCORE.RESTR>
0

>  <SCORE.RESTR.CAVITY>
0

>  <SCORE.RESTR.norm>
0

>  <SCORE.SYSTEM>
0

>  <SCORE.SYSTEM.CONST>
0

>  <SCORE.SYSTEM.DIHEDRAL>
0

>  <SCORE.SYSTEM.SOLV>
0

>  <SCORE.SYSTEM.norm>
0

>  <SCORE.heavy>
42

>  <SCORE.norm>
-0.224357

>  <RMSD>
5.669

$$$$
ligand
 OpenBabel02271912133D
libRbt.so/2013.1/901 2013/11/27
 42 45  0  0  0  0  0  0  0  0999 V2000
    8.0473   -1.9036    3.6439 C   0  0  2  0  0  0  0  0  0  0  0  0
    7.0108   -2.8972    3.5691 O   0  0  0  0  0  0  0  0  0  0  0  0
    2.7109   -2.5113    3.9661 C   0  0  2  0  0  0  0  0  0  0  0  0
    1.3470   -2.2287    4.5050 N   0  0  0  0  0  0  0  0  0  0  0  0
    5.9203    0.8614    2.8853 C   0  0  1  0  0  0  0  0  0  0  0  0
    7.0218    4.9145    1.2380 C   0  0  1  0  0  0  0  0  0  0  0  0
    9.2750   -2.4672    2.8672 C   0  0  2  0  0  0  0  0  0  0  0  0
    8.9143   -2.9677    1.5293 N   0  0  0  0  0  0  0  0  0  0  0  0
    3.4245   -3.6613    4.7846 C   0  0  0  0  0  0  0  0  0  0  0  0
    6.3637    2.1474    3.6471 C   0  0  2  0  0  0  0  0  0  0  0  0
    5.2652    2.9123    4.2015 O   0  0  0  0  0  0  0  0  0  0  0  0
    7.8244    4.6650   -0.0896 C   0  0  2  0  0  0  0  0  0  0  0  0
    8.8199    3.5657    0.0875 N   0  0  0  0  0  0  0  0  0  0  0  0
    9.9516   -3.6335    3.6108 C   0  0  1  0  0  0  0  0  0  0  0  0
   11.0928   -4.0917    2.8837 O   0  0  0  0  0  0  0  0  0  0  0  0
    4.8448   -3.9285    4.1570 C   0  0  2  0  0  0  0  0  0  0  0  0
    5.5401   -5.0172    4.8952 N   0  0  0  0  0  0  0  0  0  0  0  0
    7.1905    2.8579    2.5744 C   0  0  2  0  0  0  0  0  0  0  0  0
    6.3651    3.7550    1.7653 O   0  0  0  0  0  0  0  0  0  0  0  0
    8.5427    6.0255   -0.5367 C   0  0  1  0  0  0  0  0  0  0  0  0
    7.5444    6.9317   -1.0574 O   0  0  0  0  0  0  0  0  0  0  0  0
   10.3360   -3.1813    5.0380 C   0  0  2  0  0  0  0  0  0  0  0  0
   10.9719   -4.2329    5.7265 O   0  0  0  0  0  0  0  0  0  0  0  0
    5.7253   -2.6173    4.1930 C   0  0  2  0  0  0  0  0  0  0  0  0
    7.8140    1.7464    1.7135 C   0  0  2  0  0  0  0  0  0  0  0  0
    6.8447    0.7034    1.7845 O   0  0  0  0  0  0  0  0  0  0  0  0
    9.3358    6.7333    0.6623 C   0  0  2  0  0  0  0  0  0  0  0  0
   10.4630    5.9161    0.9751 O   0  0  0  0  0  0  0  0  0  0  0  0
    9.0438   -2.7263    5.7948 C   0  0  2  0  0  0  0  0  0  0  0  0
    8.3973   -1.6417    5.0562 O   0  0  0  0  0  0  0  0  0  0  0  0
    5.0630   -1.4308    3.4589 C   0  0  2  0  0  0  0  0  0  0  0  0
    5.9074   -0.2830    3.7485 O   0  0  0  0  0  0  0  0  0  0  0  0
    9.2118    1.2473    2.1944 C   0  0  0  0  0  0  0  0  0  0  0  0
    9.9915    2.3635    2.6129 O   0  0  0  0  0  0  0  0  0  0  0  0
    8.4083    6.8897    1.9263 C   0  0  1  0  0  0  0  0  0  0  0  0
    7.9466    5.5325    2.2655 O   0  0  0  0  0  0  0  0  0  0  0  0
    9.3289   -2.2594    7.2035 C   0  0  0  0  0  0  0  0  0  0  0  0
    8.1261   -1.9502    7.8646 O   0  0  0  0  0  0  0  0  0  0  0  0
    3.5922   -1.1990    4.0056 C   0  0  1  0  0  0  0  0  0  0  0  0
    2.9269   -0.2025    3.2245 O   0  0  0  0  0  0  0  0  0  0  0  0
    9.1274    7.5547    3.1789 C   0  0  0  0  0  0  0  0  0  0  0  0
    8.2767    7.7334    4.3877 N   0  0  0  0  0  0  0  0  0  0  0  0
  1  2  1  1  0  0  0
  1  7  1  0  0  0  0
  1 30  1  0  0  0  0
  3  4  1  1  0  0  0
  3  9  1  0  0  0  0
  3 39  1  0  0  0  0
  5 10  1  0  0  0  0
  5 26  1  0  0  0  0
  5 32  1  1  0  0  0
  6 12  1  0  0  0  0
  6 36  1  0  0  0  0
  6 19  1  1  0  0  0
  7  8  1  6  0  0  0
  7 14  1  0  0  0  0
  9 16  1  0  0  0  0
 10 11  1  6  0  0  0
 10 18  1  0  0  0  0
 12 13  1  1  0  0  0
 12 20  1  0  0  0  0
 14 15  1  6  0  0  0
 14 22  1  0  0  0  0
 16 17  1  1  0  0  0
 16 24  1  0  0  0  0
 18 19  1  6  0  0  0
 18 25  1  0  0  0  0
 20 21  1  1  0  0  0
 20 27  1  0  0  0  0
 22 23  1  1  0  0  0
 22 29  1  0  0  0  0
 24  2  1  6  0  0  0
 24 31  1  0  0  0  0
 25 26  1  0  0  0  0
 25 33  1  1  0  0  0
 27 28  1  1  0  0  0
 27 35  1  0  0  0  0
 29 30  1  0  0  0  0
 29 37  1  1  0  0  0
 31 32  1  1  0  0  0
 31 39  1  0  0  0  0
 33 34  1  0  0  0  0
 35 36  1  0  0  0  0
 35 41  1  1  0  0  0
 37 38  1  0  0  0  0
 39 40  1  6  0  0  0
 41 42  1  0  0  0  0
M  END
>  <CHROM.1>
-178.67423780,-171.82523232,149.55247132,82.81722136,-40.76419347,-176.00596655
156.85328739,155.34438114,179.31170044,7.40137416,0.68121675,3.15661879,-1.71780282
0.00732271,-0.35300967

>  <Name>
ligand

>  <RI>
0

>  <Rbt.Current_Directory>
/home/itssahil/PROJECTS/Mol_Feturizer/Test_systems_manuscript/rnas/2o3w

>  <Rbt.Executable>
rbdock ($Id: //depot/dev/client3/rdock/2013.1/src/exe/rbdock.cxx#4 $)

>  <Rbt.Library>
libRbt.so (2013.1, Build901 2013/11/27)

>  <Rbt.Parameter_File>
/export/apps/rDock/src/rDock_2013.1_src/data/scripts/dock_solv.prm

>  <Rbt.Receptor>
prm/pocket_docking_3.prm

>  <SCORE>
-3.51501

>  <SCORE.INTER>
2.4162

>  <SCORE.INTER.CONST>
1

>  <SCORE.INTER.POLAR>
0

>  <SCORE.INTER.ROT>
9

>  <SCORE.INTER.SOLV>
11.3853

>  <SCORE.INTER.VDW>
-11.7843

>  <SCORE.INTER.norm>
0.0575287

>  <SCORE.INTRA>
-6.50436

>  <SCORE.INTRA.DIHEDRAL>
-15.3086

>  <SCORE.INTRA.DIHEDRAL.0>
27.8999

>  <SCORE.INTRA.POLAR>
0

>  <SCORE.INTRA.POLAR.0>
0

>  <SCORE.INTRA.REPUL>
0.0054243

>  <SCORE.INTRA.REPUL.0>
0

>  <SCORE.INTRA.SOLV>
-2.2355

>  <SCORE.INTRA.SOLV.lig_0>
-104.479

>  <SCORE.INTRA.VDW>
2.24056

>  <SCORE.INTRA.VDW.0>
-6.17816

>  <SCORE.INTRA.norm>
-0.154866

>  <SCORE.RESTR>
0.573147

>  <SCORE.RESTR.CAVITY>
0.573147

>  <SCORE.RESTR.norm>
0.0136463

>  <SCORE.SYSTEM>
0

>  <SCORE.SYSTEM.CONST>
0

>  <SCORE.SYSTEM.DIHEDRAL>
0

>  <SCORE.SYSTEM.SOLV>
0

>  <SCORE.SYSTEM.norm>
0

>  <SCORE.heavy>
42

>  <SCORE.norm>
-0.0836908

>  <RMSD>
5.685

$$$$
ligand
 OpenBabel02271912133D
libRbt.so/2013.1/901 2013/11/27
 42 45  0  0  0  0  0  0  0  0999 V2000
    5.2166    1.0125    1.9417 C   0  0  2  0  0  0  0  0  0  0  0  0
    6.5698    1.3669    2.2743 O   0  0  0  0  0  0  0  0  0  0  0  0
    8.2330    4.9096    4.1396 C   0  0  2  0  0  0  0  0  0  0  0  0
    8.6008    6.3256    4.4394 N   0  0  0  0  0  0  0  0  0  0  0  0
    4.2322    3.9847    2.3456 C   0  0  1  0  0  0  0  0  0  0  0  0
    1.4773    6.4089   -0.1836 C   0  0  1  0  0  0  0  0  0  0  0  0
    5.1739   -0.5388    1.8015 C   0  0  2  0  0  0  0  0  0  0  0  0
    5.7893   -1.2259    2.9504 N   0  0  0  0  0  0  0  0  0  0  0  0
    8.8746    4.4260    2.7771 C   0  0  0  0  0  0  0  0  0  0  0  0
    2.7006    3.7380    2.1897 C   0  0  2  0  0  0  0  0  0  0  0  0
    2.3667    2.6646    1.2756 O   0  0  0  0  0  0  0  0  0  0  0  0
   -0.0804    6.2025   -0.1895 C   0  0  2  0  0  0  0  0  0  0  0  0
   -0.4516    4.9644   -0.9378 N   0  0  0  0  0  0  0  0  0  0  0  0
    5.9097   -1.0322    0.5421 C   0  0  1  0  0  0  0  0  0  0  0  0
    5.8112   -2.4532    0.4331 O   0  0  0  0  0  0  0  0  0  0  0  0
    8.4706    2.9237    2.5277 C   0  0  2  0  0  0  0  0  0  0  0  0
    9.0704    2.4305    1.2585 N   0  0  0  0  0  0  0  0  0  0  0  0
    2.2155    5.1300    1.7819 C   0  0  2  0  0  0  0  0  0  0  0  0
    2.2246    5.2986    0.3285 O   0  0  0  0  0  0  0  0  0  0  0  0
   -0.7823    7.4933   -0.8283 C   0  0  1  0  0  0  0  0  0  0  0  0
   -0.7142    8.5804    0.1216 O   0  0  0  0  0  0  0  0  0  0  0  0
    5.3264   -0.3288   -0.7046 C   0  0  2  0  0  0  0  0  0  0  0  0
    5.9782   -0.7822   -1.8682 O   0  0  0  0  0  0  0  0  0  0  0  0
    6.8993    2.7724    2.4654 C   0  0  2  0  0  0  0  0  0  0  0  0
    3.1663    6.1277    2.4645 C   0  0  2  0  0  0  0  0  0  0  0  0
    4.3971    5.4105    2.5218 O   0  0  0  0  0  0  0  0  0  0  0  0
   -0.1105    7.9466   -2.2106 C   0  0  2  0  0  0  0  0  0  0  0  0
   -0.4203    6.9527   -3.1867 O   0  0  0  0  0  0  0  0  0  0  0  0
    5.4953    1.2188   -0.5434 C   0  0  2  0  0  0  0  0  0  0  0  0
    4.8190    1.6632    0.6751 O   0  0  0  0  0  0  0  0  0  0  0  0
    6.1977    3.2791    3.7446 C   0  0  2  0  0  0  0  0  0  0  0  0
    4.7760    3.2384    3.4421 O   0  0  0  0  0  0  0  0  0  0  0  0
    2.7216    6.5938    3.8855 C   0  0  0  0  0  0  0  0  0  0  0  0
    2.7255    5.4770    4.7695 O   0  0  0  0  0  0  0  0  0  0  0  0
    1.4507    8.0856   -2.0506 C   0  0  1  0  0  0  0  0  0  0  0  0
    1.9322    6.7750   -1.5808 O   0  0  0  0  0  0  0  0  0  0  0  0
    4.9435    1.9897   -1.7203 C   0  0  0  0  0  0  0  0  0  0  0  0
    5.2608    3.3548   -1.5976 O   0  0  0  0  0  0  0  0  0  0  0  0
    6.6602    4.7600    4.0744 C   0  0  1  0  0  0  0  0  0  0  0  0
    6.1296    5.1730    5.3367 O   0  0  0  0  0  0  0  0  0  0  0  0
    2.2044    8.5009   -3.3878 C   0  0  0  0  0  0  0  0  0  0  0  0
    1.8609    9.8453   -3.9276 N   0  0  0  0  0  0  0  0  0  0  0  0
  1  2  1  6  0  0  0
  1  7  1  0  0  0  0
  1 30  1  0  0  0  0
  3  4  1  6  0  0  0
  3  9  1  0  0  0  0
  3 39  1  0  0  0  0
  5 10  1  0  0  0  0
  5 26  1  0  0  0  0
  5 32  1  1  0  0  0
  6 12  1  0  0  0  0
  6 36  1  0  0  0  0
  6 19  1  6  0  0  0
  7  8  1  1  0  0  0
  7 14  1  0  0  0  0
  9 16  1  0  0  0  0
 10 11  1  6  0  0  0
 10 18  1  0  0  0  0
 12 13  1  6  0  0  0
 12 20  1  0  0  0  0
 14 15  1  6  0  0  0
 14 22  1  0  0  0  0
 16 17  1  6  0  0  0
 16 24  1  0  0  0  0
 18 19  1  6  0  0  0
 18 25  1  0  0  0  0
 20 21  1  1  0  0  0
 20 27  1  0  0  0  0
 22 23  1  6  0  0  0
 22 29  1  0  0  0  0
 24  2  1  1  0  0  0
 24 31  1  0  0  0  0
 25 26  1  0  0  0  0
 25 33  1  1  0  0  0
 27 28  1  6  0  0  0
 27 35  1  0  0  0  0
 29 30  1  0  0  0  0
 29 37  1  6  0  0  0
 31 32  1  6  0  0  0
 31 39  1  0  0  0  0
 33 34  1  0  0  0  0
 35 36  1  0  0  0  0
 35 41  1  6  0  0  0
 37 38  1  0  0  0  0
 39 40  1  1  0  0  0
 41 42  1  0  0  0  0
M  END
>  <CHROM.1>
179.96027407,-168.66598188,164.35171576,-75.72119969,64.32171582,-173.09618101
-59.00747079,177.81368963,63.98247249,4.10797230,4.05483824,0.97967160,0.33505519
0.80997657,-2.52423302

>  <Name>
ligand

>  <RI>
0

>  <Rbt.Current_Directory>
/home/itssahil/PROJECTS/Mol_Feturizer/Test_systems_manuscript/rnas/2o3w

>  <Rbt.Executable>
rbdock ($Id: //depot/dev/client3/rdock/2013.1/src/exe/rbdock.cxx#4 $)

>  <Rbt.Library>
libRbt.so (2013.1, Build901 2013/11/27)

>  <Rbt.Parameter_File>
/export/apps/rDock/src/rDock_2013.1_src/data/scripts/dock_solv.prm

>  <Rbt.Receptor>
prm/pocket_docking_8.prm

>  <SCORE>
-14.8689

>  <SCORE.INTER>
-2.25429

>  <SCORE.INTER.CONST>
1

>  <SCORE.INTER.POLAR>
0

>  <SCORE.INTER.ROT>
9

>  <SCORE.INTER.SOLV>
13.8843

>  <SCORE.INTER.VDW>
-15.731

>  <SCORE.INTER.norm>
-0.0536736

>  <SCORE.INTRA>
-12.6146

>  <SCORE.INTRA.DIHEDRAL>
-24.5446

>  <SCORE.INTRA.DIHEDRAL.0>
27.8999

>  <SCORE.INTRA.POLAR>
0

>  <SCORE.INTRA.POLAR.0>
0

>  <SCORE.INTRA.REPUL>
0

>  <SCORE.INTRA.REPUL.0>
0

>  <SCORE.INTRA.SOLV>
-4.01827

>  <SCORE.INTRA.SOLV.lig_0>
-104.479

>  <SCORE.INTRA.VDW>
1.6668

>  <SCORE.INTRA.VDW.0>
-6.17816

>  <SCORE.INTRA.norm>
-0.300348

>  <SCORE.RESTR>
0

>  <SCORE.RESTR.CAVITY>
0

>  <SCORE.RESTR.norm>
0

>  <SCORE.SYSTEM>
0

>  <SCORE.SYSTEM.CONST>
0

>  <SCORE.SYSTEM.DIHEDRAL>
0

>  <SCORE.SYSTEM.SOLV>
0

>  <SCORE.SYSTEM.norm>
0

>  <SCORE.heavy>
42

>  <SCORE.norm>
-0.354022

>  <RMSD>
5.726

$$$$
ligand
 OpenBabel02271912133D
libRbt.so/2013.1/901 2013/11/27
 42 45  0  0  0  0  0  0  0  0999 V2000
   11.0942   -0.5982    4.5170 C   0  0  2  0  0  0  0  0  0  0  0  0
   10.0281   -0.9752    5.4049 O   0  0  0  0  0  0  0  0  0  0  0  0
    7.5482   -3.0378    2.5080 C   0  0  2  0  0  0  0  0  0  0  0  0
    6.4617   -3.8451    1.8769 N   0  0  0  0  0  0  0  0  0  0  0  0
    6.6370    1.1285    4.4328 C   0  0  1  0  0  0  0  0  0  0  0  0
    4.0626    4.6457    4.1227 C   0  0  1  0  0  0  0  0  0  0  0  0
   12.0451    0.3394    5.3200 C   0  0  2  0  0  0  0  0  0  0  0  0
   12.4226   -0.2259    6.6271 N   0  0  0  0  0  0  0  0  0  0  0  0
    8.4241   -3.9196    3.4864 C   0  0  0  0  0  0  0  0  0  0  0  0
    5.2153    1.1577    5.0722 C   0  0  2  0  0  0  0  0  0  0  0  0
    4.2083    0.4564    4.3019 O   0  0  0  0  0  0  0  0  0  0  0  0
    3.0403    5.1527    3.0426 C   0  0  2  0  0  0  0  0  0  0  0  0
    3.5027    4.8047    1.6656 N   0  0  0  0  0  0  0  0  0  0  0  0
   11.4121    1.7155    5.5967 C   0  0  1  0  0  0  0  0  0  0  0  0
   12.3315    2.5539    6.2986 O   0  0  0  0  0  0  0  0  0  0  0  0
    9.5628   -3.0211    4.1017 C   0  0  2  0  0  0  0  0  0  0  0  0
   10.4169   -3.8238    5.0181 N   0  0  0  0  0  0  0  0  0  0  0  0
    4.9944    2.6622    5.2367 C   0  0  2  0  0  0  0  0  0  0  0  0
    4.3552    3.2444    4.0564 O   0  0  0  0  0  0  0  0  0  0  0  0
    2.8447    6.7349    3.2013 C   0  0  1  0  0  0  0  0  0  0  0  0
    2.0525    6.9915    4.3827 O   0  0  0  0  0  0  0  0  0  0  0  0
   10.9690    2.3570    4.2621 C   0  0  2  0  0  0  0  0  0  0  0  0
   10.4024    3.6252    4.4966 O   0  0  0  0  0  0  0  0  0  0  0  0
    8.9440   -1.7988    4.8883 C   0  0  2  0  0  0  0  0  0  0  0  0
    6.3862    3.2720    5.4746 C   0  0  2  0  0  0  0  0  0  0  0  0
    7.2470    2.4024    4.7429 O   0  0  0  0  0  0  0  0  0  0  0  0
    4.2341    7.5261    3.3054 C   0  0  2  0  0  0  0  0  0  0  0  0
    4.8682    7.4533    2.0291 O   0  0  0  0  0  0  0  0  0  0  0  0
    9.9383    1.4123    3.5588 C   0  0  2  0  0  0  0  0  0  0  0  0
   10.5462    0.1007    3.3351 O   0  0  0  0  0  0  0  0  0  0  0  0
    8.0281   -0.9214    4.0072 C   0  0  2  0  0  0  0  0  0  0  0  0
    7.4109    0.0255    4.9221 O   0  0  0  0  0  0  0  0  0  0  0  0
    6.8186    3.3612    6.9710 C   0  0  0  0  0  0  0  0  0  0  0  0
    8.0665    4.0422    7.0602 O   0  0  0  0  0  0  0  0  0  0  0  0
    5.1570    6.8857    4.4101 C   0  0  1  0  0  0  0  0  0  0  0  0
    5.3281    5.4723    4.0313 O   0  0  0  0  0  0  0  0  0  0  0  0
    9.4542    1.9612    2.2367 C   0  0  0  0  0  0  0  0  0  0  0  0
    8.8033    3.1930    2.4322 O   0  0  0  0  0  0  0  0  0  0  0  0
    6.9275   -1.8165    3.2977 C   0  0  1  0  0  0  0  0  0  0  0  0
    6.1772   -1.0309    2.3674 O   0  0  0  0  0  0  0  0  0  0  0  0
    6.5748    7.5905    4.5579 C   0  0  0  0  0  0  0  0  0  0  0  0
    7.5009    6.9696    5.5445 N   0  0  0  0  0  0  0  0  0  0  0  0
  1  2  1  1  0  0  0
  1  7  1  0  0  0  0
  1 30  1  0  0  0  0
  3  4  1  1  0  0  0
  3  9  1  0  0  0  0
  3 39  1  0  0  0  0
  5 10  1  0  0  0  0
  5 26  1  0  0  0  0
  5 32  1  1  0  0  0
  6 12  1  0  0  0  0
  6 36  1  0  0  0  0
  6 19  1  6  0  0  0
  7  8  1  1  0  0  0
  7 14  1  0  0  0  0
  9 16  1  0  0  0  0
 10 11  1  6  0  0  0
 10 18  1  0  0  0  0
 12 13  1  6  0  0  0
 12 20  1  0  0  0  0
 14 15  1  6  0  0  0
 14 22  1  0  0  0  0
 16 17  1  1  0  0  0
 16 24  1  0  0  0  0
 18 19  1  6  0  0  0
 18 25  1  0  0  0  0
 20 21  1  1  0  0  0
 20 27  1  0  0  0  0
 22 23  1  1  0  0  0
 22 29  1  0  0  0  0
 24  2  1  6  0  0  0
 24 31  1  0  0  0  0
 25 26  1  0  0  0  0
 25 33  1  1  0  0  0
 27 28  1  6  0  0  0
 27 35  1  0  0  0  0
 29 30  1  0  0  0  0
 29 37  1  6  0  0  0
 31 32  1  1  0  0  0
 31 39  1  0  0  0  0
 33 34  1  0  0  0  0
 35 36  1  0  0  0  0
 35 41  1  6  0  0  0
 37 38  1  0  0  0  0
 39 40  1  6  0  0  0
 41 42  1  0  0  0  0
M  END
>  <CHROM.1>
176.61823598,48.44189295,178.07163182,-163.79254314,-175.12973647,-61.08974273
170.99758013,125.95917168,-177.03639126,7.43522436,2.04410335,4.24487465
-0.91572732,-0.31852735,0.17006309

>  <Name>
ligand

>  <RI>
0

>  <Rbt.Current_Directory>
/home/itssahil/PROJECTS/Mol_Feturizer/Test_systems_manuscript/rnas/2o3w

>  <Rbt.Executable>
rbdock ($Id: //depot/dev/client3/rdock/2013.1/src/exe/rbdock.cxx#4 $)

>  <Rbt.Library>
libRbt.so (2013.1, Build901 2013/11/27)

>  <Rbt.Parameter_File>
/export/apps/rDock/src/rDock_2013.1_src/data/scripts/dock_solv.prm

>  <Rbt.Receptor>
prm/pocket_docking_6.prm

>  <SCORE>
-13.7844

>  <SCORE.INTER>
-4.09857

>  <SCORE.INTER.CONST>
1

>  <SCORE.INTER.POLAR>
0

>  <SCORE.INTER.ROT>
9

>  <SCORE.INTER.SOLV>
9.98441

>  <SCORE.INTER.VDW>
-15.6605

>  <SCORE.INTER.norm>
-0.0975851

>  <SCORE.INTRA>
-9.68581

>  <SCORE.INTRA.DIHEDRAL>
-18.3131

>  <SCORE.INTRA.DIHEDRAL.0>
27.8999

>  <SCORE.INTRA.POLAR>
0

>  <SCORE.INTRA.POLAR.0>
0

>  <SCORE.INTRA.REPUL>
0

>  <SCORE.INTRA.REPUL.0>
0

>  <SCORE.INTRA.SOLV>
-2.09422

>  <SCORE.INTRA.SOLV.lig_0>
-104.479

>  <SCORE.INTRA.VDW>
0.517839

>  <SCORE.INTRA.VDW.0>
-6.17816

>  <SCORE.INTRA.norm>
-0.230614

>  <SCORE.RESTR>
0

>  <SCORE.RESTR.CAVITY>
0

>  <SCORE.RESTR.norm>
0

>  <SCORE.SYSTEM>
0

>  <SCORE.SYSTEM.CONST>
0

>  <SCORE.SYSTEM.DIHEDRAL>
0

>  <SCORE.SYSTEM.SOLV>
0

>  <SCORE.SYSTEM.norm>
0

>  <SCORE.heavy>
42

>  <SCORE.norm>
-0.3282

>  <RMSD>
5.750

$$$$
ligand
 OpenBabel02271912133D
libRbt.so/2013.1/901 2013/11/27
 42 45  0  0  0  0  0  0  0  0999 V2000
    7.1182   -1.5713    4.1146 C   0  0  2  0  0  0  0  0  0  0  0  0
    6.0342   -2.4199    3.6997 O   0  0  0  0  0  0  0  0  0  0  0  0
    1.7452   -1.9812    4.1555 C   0  0  2  0  0  0  0  0  0  0  0  0
    0.3816   -1.8179    4.7423 N   0  0  0  0  0  0  0  0  0  0  0  0
    5.3594    1.2989    4.0344 C   0  0  1  0  0  0  0  0  0  0  0  0
    5.3721    5.5922    2.8713 C   0  0  1  0  0  0  0  0  0  0  0  0
    8.4097   -2.1179    3.4352 C   0  0  2  0  0  0  0  0  0  0  0  0
    8.2371   -2.3345    1.9882 N   0  0  0  0  0  0  0  0  0  0  0  0
    2.3928   -3.3595    4.5830 C   0  0  0  0  0  0  0  0  0  0  0  0
    4.0835    2.1492    3.7515 C   0  0  2  0  0  0  0  0  0  0  0  0
    3.5109    1.9335    2.4382 O   0  0  0  0  0  0  0  0  0  0  0  0
    5.6211    6.2723    1.4769 C   0  0  2  0  0  0  0  0  0  0  0  0
    6.7537    5.6157    0.7579 N   0  0  0  0  0  0  0  0  0  0  0  0
    8.8615   -3.4620    4.0353 C   0  0  1  0  0  0  0  0  0  0  0  0
   10.0679   -3.9048    3.4114 O   0  0  0  0  0  0  0  0  0  0  0  0
    3.8154   -3.4831    3.9171 C   0  0  2  0  0  0  0  0  0  0  0  0
    4.4491   -4.7775    4.2870 N   0  0  0  0  0  0  0  0  0  0  0  0
    4.6018    3.5621    4.0241 C   0  0  2  0  0  0  0  0  0  0  0  0
    5.1465    4.1782    2.8140 O   0  0  0  0  0  0  0  0  0  0  0  0
    5.9051    7.8341    1.6936 C   0  0  1  0  0  0  0  0  0  0  0  0
    4.6639    8.4919    2.0337 O   0  0  0  0  0  0  0  0  0  0  0  0
    9.0389   -3.3108    5.5634 C   0  0  2  0  0  0  0  0  0  0  0  0
    9.4687   -4.5288    6.1258 O   0  0  0  0  0  0  0  0  0  0  0  0
    4.7468   -2.2891    4.3674 C   0  0  2  0  0  0  0  0  0  0  0  0
    5.6815    3.4161    5.1096 C   0  0  2  0  0  0  0  0  0  0  0  0
    6.2215    2.1218    4.8533 O   0  0  0  0  0  0  0  0  0  0  0  0
    6.9919    8.1159    2.8368 C   0  0  2  0  0  0  0  0  0  0  0  0
    8.2566    7.6708    2.3483 O   0  0  0  0  0  0  0  0  0  0  0  0
    7.6788   -2.8602    6.1932 C   0  0  2  0  0  0  0  0  0  0  0  0
    7.2494   -1.6001    5.5869 O   0  0  0  0  0  0  0  0  0  0  0  0
    4.1500   -0.9047    4.0319 C   0  0  2  0  0  0  0  0  0  0  0  0
    5.0329    0.0571    4.6721 O   0  0  0  0  0  0  0  0  0  0  0  0
    5.1598    3.5263    6.5759 C   0  0  0  0  0  0  0  0  0  0  0  0
    4.5477    4.7988    6.7631 O   0  0  0  0  0  0  0  0  0  0  0  0
    6.6178    7.3481    4.1607 C   0  0  1  0  0  0  0  0  0  0  0  0
    6.5249    5.9240    3.7955 O   0  0  0  0  0  0  0  0  0  0  0  0
    7.7628   -2.6809    7.6913 C   0  0  0  0  0  0  0  0  0  0  0  0
    8.4870   -1.5149    8.0002 O   0  0  0  0  0  0  0  0  0  0  0  0
    2.6774   -0.7872    4.6094 C   0  0  1  0  0  0  0  0  0  0  0  0
    2.0710    0.4314    4.1703 O   0  0  0  0  0  0  0  0  0  0  0  0
    7.6644    7.5454    5.3416 C   0  0  0  0  0  0  0  0  0  0  0  0
    7.3545    6.8175    6.6028 N   0  0  0  0  0  0  0  0  0  0  0  0
  1  2  1  1  0  0  0
  1  7  1  0  0  0  0
  1 30  1  0  0  0  0
  3  4  1  1  0  0  0
  3  9  1  0  0  0  0
  3 39  1  0  0  0  0
  5 10  1  0  0  0  0
  5 26  1  0  0  0  0
  5 32  1  1  0  0  0
  6 12  1  0  0  0  0
  6 36  1  0  0  0  0
  6 19  1  6  0  0  0
  7  8  1  6  0  0  0
  7 14  1  0  0  0  0
  9 16  1  0  0  0  0
 10 11  1  6  0  0  0
 10 18  1  0  0  0  0
 12 13  1  1  0  0  0
 12 20  1  0  0  0  0
 14 15  1  6  0  0  0
 14 22  1  0  0  0  0
 16 17  1  1  0  0  0
 16 24  1  0  0  0  0
 18 19  1  6  0  0  0
 18 25  1  0  0  0  0
 20 21  1  1  0  0  0
 20 27  1  0  0  0  0
 22 23  1  1  0  0  0
 22 29  1  0  0  0  0
 24  2  1  6  0  0  0
 24 31  1  0  0  0  0
 25 26  1  0  0  0  0
 25 33  1  1  0  0  0
 27 28  1  6  0  0  0
 27 35  1  0  0  0  0
 29 30  1  0  0  0  0
 29 37  1  1  0  0  0
 31 32  1  1  0  0  0
 31 39  1  0  0  0  0
 33 34  1  0  0  0  0
 35 36  1  0  0  0  0
 35 41  1  1  0  0  0
 37 38  1  0  0  0  0
 39 40  1  6  0  0  0
 41 42  1  0  0  0  0
M  END
>  <CHROM.1>
169.23925371,-170.15985552,166.00065948,-165.95610093,-59.60058904,73.02401427
141.78611810,59.46423055,-179.10783679,5.87739738,1.27694491,4.24522624,-1.53911388
-0.15597413,-0.15112794

>  <Name>
ligand

>  <RI>
0

>  <Rbt.Current_Directory>
/home/itssahil/PROJECTS/Mol_Feturizer/Test_systems_manuscript/rnas/2o3w

>  <Rbt.Executable>
rbdock ($Id: //depot/dev/client3/rdock/2013.1/src/exe/rbdock.cxx#4 $)

>  <Rbt.Library>
libRbt.so (2013.1, Build901 2013/11/27)

>  <Rbt.Parameter_File>
/export/apps/rDock/src/rDock_2013.1_src/data/scripts/dock_solv.prm

>  <Rbt.Receptor>
prm/pocket_docking_6.prm

>  <SCORE>
-10.5339

>  <SCORE.INTER>
-1.74124

>  <SCORE.INTER.CONST>
1

>  <SCORE.INTER.POLAR>
0

>  <SCORE.INTER.ROT>
9

>  <SCORE.INTER.SOLV>
12.7045

>  <SCORE.INTER.VDW>
-14.9957

>  <SCORE.INTER.norm>
-0.041458

>  <SCORE.INTRA>
-8.79266

>  <SCORE.INTRA.DIHEDRAL>
-19.1948

>  <SCORE.INTRA.DIHEDRAL.0>
27.8999

>  <SCORE.INTRA.POLAR>
0

>  <SCORE.INTRA.POLAR.0>
0

>  <SCORE.INTRA.REPUL>
0.049747

>  <SCORE.INTRA.REPUL.0>
0

>  <SCORE.INTRA.SOLV>
-3.6465

>  <SCORE.INTRA.SOLV.lig_0>
-104.479

>  <SCORE.INTRA.VDW>
2.37927

>  <SCORE.INTRA.VDW.0>
-6.17816

>  <SCORE.INTRA.norm>
-0.209349

>  <SCORE.RESTR>
0

>  <SCORE.RESTR.CAVITY>
0

>  <SCORE.RESTR.norm>
0

>  <SCORE.SYSTEM>
0

>  <SCORE.SYSTEM.CONST>
0

>  <SCORE.SYSTEM.DIHEDRAL>
0

>  <SCORE.SYSTEM.SOLV>
0

>  <SCORE.SYSTEM.norm>
0

>  <SCORE.heavy>
42

>  <SCORE.norm>
-0.250807

>  <RMSD>
5.754

$$$$
ligand
 OpenBabel02271912133D
libRbt.so/2013.1/901 2013/11/27
 42 45  0  0  0  0  0  0  0  0999 V2000
    5.3558   -3.3775    2.7005 C   0  0  2  0  0  0  0  0  0  0  0  0
    5.9271   -2.4478    3.6367 O   0  0  0  0  0  0  0  0  0  0  0  0
    7.2268   -3.1150    7.7186 C   0  0  2  0  0  0  0  0  0  0  0  0
    7.9948   -3.5717    8.9153 N   0  0  0  0  0  0  0  0  0  0  0  0
    9.0037    0.0116    4.6845 C   0  0  1  0  0  0  0  0  0  0  0  0
   11.0082    3.9052    3.9763 C   0  0  1  0  0  0  0  0  0  0  0  0
    6.5165   -3.8756    1.7879 C   0  0  2  0  0  0  0  0  0  0  0  0
    7.6866   -4.3279    2.5604 N   0  0  0  0  0  0  0  0  0  0  0  0
    6.6004   -4.3392    6.9371 C   0  0  0  0  0  0  0  0  0  0  0  0
   10.1871    0.2221    3.6914 C   0  0  2  0  0  0  0  0  0  0  0  0
   11.4721   -0.2043    4.2071 O   0  0  0  0  0  0  0  0  0  0  0  0
   12.1928    4.6265    4.7146 C   0  0  2  0  0  0  0  0  0  0  0  0
   12.0562    4.4961    6.1963 N   0  0  0  0  0  0  0  0  0  0  0  0
    7.0146   -2.7810    0.8263 C   0  0  1  0  0  0  0  0  0  0  0  0
    8.0489   -3.2921   -0.0163 O   0  0  0  0  0  0  0  0  0  0  0  0
    5.7868   -3.7942    5.7027 C   0  0  2  0  0  0  0  0  0  0  0  0
    5.1704   -4.9206    4.9512 N   0  0  0  0  0  0  0  0  0  0  0  0
   10.0579    1.7156    3.3877 C   0  0  2  0  0  0  0  0  0  0  0  0
   10.8422    2.5243    4.3214 O   0  0  0  0  0  0  0  0  0  0  0  0
   12.2314    6.1663    4.2736 C   0  0  1  0  0  0  0  0  0  0  0  0
   12.7372    6.2527    2.9225 O   0  0  0  0  0  0  0  0  0  0  0  0
    5.8260   -2.2427   -0.0023 C   0  0  2  0  0  0  0  0  0  0  0  0
    6.2684   -1.2511   -0.8998 O   0  0  0  0  0  0  0  0  0  0  0  0
    6.7251   -2.9650    4.7395 C   0  0  2  0  0  0  0  0  0  0  0  0
    8.5585    2.0417    3.4915 C   0  0  2  0  0  0  0  0  0  0  0  0
    8.0962    1.1175    4.4737 O   0  0  0  0  0  0  0  0  0  0  0  0
   10.7954    6.8726    4.3545 C   0  0  2  0  0  0  0  0  0  0  0  0
   10.4497    6.9895    5.7341 O   0  0  0  0  0  0  0  0  0  0  0  0
    4.7450   -1.6651    0.9710 C   0  0  2  0  0  0  0  0  0  0  0  0
    4.3092   -2.7096    1.8978 O   0  0  0  0  0  0  0  0  0  0  0  0
    7.4181   -1.7821    5.4507 C   0  0  2  0  0  0  0  0  0  0  0  0
    8.3665   -1.2564    4.4817 O   0  0  0  0  0  0  0  0  0  0  0  0
    7.7588    1.8927    2.1601 C   0  0  0  0  0  0  0  0  0  0  0  0
    8.2969    2.7819    1.1862 O   0  0  0  0  0  0  0  0  0  0  0  0
    9.7126    6.0197    3.5914 C   0  0  1  0  0  0  0  0  0  0  0  0
    9.7314    4.6841    4.2129 O   0  0  0  0  0  0  0  0  0  0  0  0
    3.5383   -1.1201    0.2426 C   0  0  0  0  0  0  0  0  0  0  0  0
    2.9110   -2.1442   -0.4902 O   0  0  0  0  0  0  0  0  0  0  0  0
    8.1677   -2.2879    6.7537 C   0  0  1  0  0  0  0  0  0  0  0  0
    8.6799   -1.1749    7.4917 O   0  0  0  0  0  0  0  0  0  0  0  0
    8.2464    6.6325    3.6497 C   0  0  0  0  0  0  0  0  0  0  0  0
    7.2094    5.8910    2.8807 N   0  0  0  0  0  0  0  0  0  0  0  0
  1  2  1  1  0  0  0
  1  7  1  0  0  0  0
  1 30  1  0  0  0  0
  3  4  1  1  0  0  0
  3  9  1  0  0  0  0
  3 39  1  0  0  0  0
  5 10  1  0  0  0  0
  5 26  1  0  0  0  0
  5 32  1  6  0  0  0
  6 12  1  0  0  0  0
  6 36  1  0  0  0  0
  6 19  1  1  0  0  0
  7  8  1  1  0  0  0
  7 14  1  0  0  0  0
  9 16  1  0  0  0  0
 10 11  1  1  0  0  0
 10 18  1  0  0  0  0
 12 13  1  1  0  0  0
 12 20  1  0  0  0  0
 14 15  1  6  0  0  0
 14 22  1  0  0  0  0
 16 17  1  6  0  0  0
 16 24  1  0  0  0  0
 18 19  1  1  0  0  0
 18 25  1  0  0  0  0
 20 21  1  6  0  0  0
 20 27  1  0  0  0  0
 22 23  1  6  0  0  0
 22 29  1  0  0  0  0
 24  2  1  6  0  0  0
 24 31  1  0  0  0  0
 25 26  1  0  0  0  0
 25 33  1  6  0  0  0
 27 28  1  1  0  0  0
 27 35  1  0  0  0  0
 29 30  1  0  0  0  0
 29 37  1  6  0  0  0
 31 32  1  6  0  0  0
 31 39  1  0  0  0  0
 33 34  1  0  0  0  0
 35 36  1  0  0  0  0
 35 41  1  1  0  0  0
 37 38  1  0  0  0  0
 39 40  1  1  0  0  0
 41 42  1  0  0  0  0
M  END
>  <CHROM.1>
-74.87433376,-66.28487372,168.13781796,-161.55871795,-60.50382858,61.21458823
167.31634030,167.78988703,176.97381846,8.11832832,0.35974501,3.64508894,2.56127608
0.94096368,2.39643956

>  <Name>
ligand

>  <RI>
0

>  <Rbt.Current_Directory>
/home/itssahil/PROJECTS/Mol_Feturizer/Test_systems_manuscript/rnas/2o3w

>  <Rbt.Executable>
rbdock ($Id: //depot/dev/client3/rdock/2013.1/src/exe/rbdock.cxx#4 $)

>  <Rbt.Library>
libRbt.so (2013.1, Build901 2013/11/27)

>  <Rbt.Parameter_File>
/export/apps/rDock/src/rDock_2013.1_src/data/scripts/dock_solv.prm

>  <Rbt.Receptor>
prm/pocket_docking_6.prm

>  <SCORE>
-9.64663

>  <SCORE.INTER>
-0.528246

>  <SCORE.INTER.CONST>
1

>  <SCORE.INTER.POLAR>
0

>  <SCORE.INTER.ROT>
9

>  <SCORE.INTER.SOLV>
14.9585

>  <SCORE.INTER.VDW>
-14.9383

>  <SCORE.INTER.norm>
-0.0125773

>  <SCORE.INTRA>
-9.11839

>  <SCORE.INTRA.DIHEDRAL>
-22.8079

>  <SCORE.INTRA.DIHEDRAL.0>
27.8999

>  <SCORE.INTRA.POLAR>
0

>  <SCORE.INTRA.POLAR.0>
0

>  <SCORE.INTRA.REPUL>
0

>  <SCORE.INTRA.REPUL.0>
0

>  <SCORE.INTRA.SOLV>
-0.455993

>  <SCORE.INTRA.SOLV.lig_0>
-104.479

>  <SCORE.INTRA.VDW>
2.51358

>  <SCORE.INTRA.VDW.0>
-6.17816

>  <SCORE.INTRA.norm>
-0.217104

>  <SCORE.RESTR>
0

>  <SCORE.RESTR.CAVITY>
0

>  <SCORE.RESTR.norm>
0

>  <SCORE.SYSTEM>
0

>  <SCORE.SYSTEM.CONST>
0

>  <SCORE.SYSTEM.DIHEDRAL>
0

>  <SCORE.SYSTEM.SOLV>
0

>  <SCORE.SYSTEM.norm>
0

>  <SCORE.heavy>
42

>  <SCORE.norm>
-0.229682

>  <RMSD>
5.773

$$$$
ligand
 OpenBabel02271912133D
libRbt.so/2013.1/901 2013/11/27
 42 45  0  0  0  0  0  0  0  0999 V2000
    5.0244    0.1295    1.7727 C   0  0  2  0  0  0  0  0  0  0  0  0
    5.2867   -1.2842    1.7733 O   0  0  0  0  0  0  0  0  0  0  0  0
    9.0423   -3.3217    2.5081 C   0  0  2  0  0  0  0  0  0  0  0  0
   10.4425   -3.8247    2.3778 N   0  0  0  0  0  0  0  0  0  0  0  0
    8.2315    1.2064    3.2490 C   0  0  1  0  0  0  0  0  0  0  0  0
   10.0245    4.9136    3.9643 C   0  0  1  0  0  0  0  0  0  0  0  0
    3.4969    0.3089    2.0230 C   0  0  2  0  0  0  0  0  0  0  0  0
    3.0207   -0.4660    3.1820 N   0  0  0  0  0  0  0  0  0  0  0  0
    8.1251   -3.8688    1.3414 C   0  0  0  0  0  0  0  0  0  0  0  0
    8.2367    2.6574    2.6784 C   0  0  2  0  0  0  0  0  0  0  0  0
    9.4196    2.9835    1.9082 O   0  0  0  0  0  0  0  0  0  0  0  0
   11.4334    5.2002    4.5980 C   0  0  2  0  0  0  0  0  0  0  0  0
   11.3174    5.4478    6.0664 N   0  0  0  0  0  0  0  0  0  0  0  0
    2.6509   -0.1329    0.8147 C   0  0  1  0  0  0  0  0  0  0  0  0
    1.2629    0.0858    1.0727 O   0  0  0  0  0  0  0  0  0  0  0  0
    6.6608   -3.3240    1.5454 C   0  0  2  0  0  0  0  0  0  0  0  0
    5.7654   -3.8319    0.4711 N   0  0  0  0  0  0  0  0  0  0  0  0
    8.0287    3.4781    3.9522 C   0  0  2  0  0  0  0  0  0  0  0  0
    9.3030    3.8366    4.5753 O   0  0  0  0  0  0  0  0  0  0  0  0
   12.1029    6.4515    3.8544 C   0  0  1  0  0  0  0  0  0  0  0  0
   12.5398    6.0355    2.5411 O   0  0  0  0  0  0  0  0  0  0  0  0
    3.1171    0.6284   -0.4471 C   0  0  2  0  0  0  0  0  0  0  0  0
    2.3411    0.2473   -1.5593 O   0  0  0  0  0  0  0  0  0  0  0  0
    6.6489   -1.7442    1.5425 C   0  0  2  0  0  0  0  0  0  0  0  0
    7.1780    2.6023    4.8873 C   0  0  2  0  0  0  0  0  0  0  0  0
    7.5718    1.2785    4.5338 O   0  0  0  0  0  0  0  0  0  0  0  0
   11.1072    7.6994    3.7177 C   0  0  2  0  0  0  0  0  0  0  0  0
   10.9027    8.2328    5.0254 O   0  0  0  0  0  0  0  0  0  0  0  0
    4.6313    0.3216   -0.6981 C   0  0  2  0  0  0  0  0  0  0  0  0
    5.4138    0.7167    0.4730 O   0  0  0  0  0  0  0  0  0  0  0  0
    7.5698   -1.1364    2.6232 C   0  0  2  0  0  0  0  0  0  0  0  0
    7.5792    0.2931    2.3571 O   0  0  0  0  0  0  0  0  0  0  0  0
    5.6358    2.7872    4.7401 C   0  0  0  0  0  0  0  0  0  0  0  0
    4.9700    1.9601    5.6896 O   0  0  0  0  0  0  0  0  0  0  0  0
    9.7335    7.2485    3.0918 C   0  0  1  0  0  0  0  0  0  0  0  0
    9.2101    6.1902    3.9729 O   0  0  0  0  0  0  0  0  0  0  0  0
    5.1749    1.0338   -1.9150 C   0  0  0  0  0  0  0  0  0  0  0  0
    5.1342    2.4265   -1.7203 O   0  0  0  0  0  0  0  0  0  0  0  0
    9.0314   -1.7404    2.5019 C   0  0  1  0  0  0  0  0  0  0  0  0
    9.8418   -1.2940    3.5925 O   0  0  0  0  0  0  0  0  0  0  0  0
    8.6698    8.4220    2.9506 C   0  0  0  0  0  0  0  0  0  0  0  0
    7.3791    8.0455    2.3110 N   0  0  0  0  0  0  0  0  0  0  0  0
  1  2  1  6  0  0  0
  1  7  1  0  0  0  0
  1 30  1  0  0  0  0
  3  4  1  6  0  0  0
  3  9  1  0  0  0  0
  3 39  1  0  0  0  0
  5 10  1  0  0  0  0
  5 26  1  0  0  0  0
  5 32  1  6  0  0  0
  6 12  1  0  0  0  0
  6 36  1  0  0  0  0
  6 19  1  1  0  0  0
  7  8  1  1  0  0  0
  7 14  1  0  0  0  0
  9 16  1  0  0  0  0
 10 11  1  1  0  0  0
 10 18  1  0  0  0  0
 12 13  1  1  0  0  0
 12 20  1  0  0  0  0
 14 15  1  1  0  0  0
 14 22  1  0  0  0  0
 16 17  1  6  0  0  0
 16 24  1  0  0  0  0
 18 19  1  1  0  0  0
 18 25  1  0  0  0  0
 20 21  1  6  0  0  0
 20 27  1  0  0  0  0
 22 23  1  6  0  0  0
 22 29  1  0  0  0  0
 24  2  1  1  0  0  0
 24 31  1  0  0  0  0
 25 26  1  0  0  0  0
 25 33  1  6  0  0  0
 27 28  1  1  0  0  0
 27 35  1  0  0  0  0
 29 30  1  0  0  0  0
 29 37  1  6  0  0  0
 31 32  1  6  0  0  0
 31 39  1  0  0  0  0
 33 34  1  0  0  0  0
 35 36  1  0  0  0  0
 35 41  1  1  0  0  0
 37 38  1  0  0  0  0
 39 40  1  1  0  0  0
 41 42  1  0  0  0  0
M  END
>  <CHROM.1>
179.24864132,-178.16412545,77.37386685,-175.81333762,-177.92205620,64.22045617
173.77356358,173.99441727,177.57487522,7.37225969,1.85676782,2.47137980,2.21636463
0.44492477,-3.07213214

>  <Name>
ligand

>  <RI>
0

>  <Rbt.Current_Directory>
/home/itssahil/PROJECTS/Mol_Feturizer/Test_systems_manuscript/rnas/2o3w

>  <Rbt.Executable>
rbdock ($Id: //depot/dev/client3/rdock/2013.1/src/exe/rbdock.cxx#4 $)

>  <Rbt.Library>
libRbt.so (2013.1, Build901 2013/11/27)

>  <Rbt.Parameter_File>
/export/apps/rDock/src/rDock_2013.1_src/data/scripts/dock_solv.prm

>  <Rbt.Receptor>
prm/pocket_docking_7.prm

>  <SCORE>
-14.679

>  <SCORE.INTER>
-1.55944

>  <SCORE.INTER.CONST>
1

>  <SCORE.INTER.POLAR>
0

>  <SCORE.INTER.ROT>
9

>  <SCORE.INTER.SOLV>
10.1683

>  <SCORE.INTER.VDW>
-14.0291

>  <SCORE.INTER.norm>
-0.0371294

>  <SCORE.INTRA>
-13.1196

>  <SCORE.INTRA.DIHEDRAL>
-25.7937

>  <SCORE.INTRA.DIHEDRAL.0>
27.8999

>  <SCORE.INTRA.POLAR>
0

>  <SCORE.INTRA.POLAR.0>
0

>  <SCORE.INTRA.REPUL>
0

>  <SCORE.INTRA.REPUL.0>
0

>  <SCORE.INTRA.SOLV>
-5.8567

>  <SCORE.INTRA.SOLV.lig_0>
-104.479

>  <SCORE.INTRA.VDW>
2.70563

>  <SCORE.INTRA.VDW.0>
-6.17816

>  <SCORE.INTRA.norm>
-0.312371

>  <SCORE.RESTR>
0

>  <SCORE.RESTR.CAVITY>
0

>  <SCORE.RESTR.norm>
0

>  <SCORE.SYSTEM>
0

>  <SCORE.SYSTEM.CONST>
0

>  <SCORE.SYSTEM.DIHEDRAL>
0

>  <SCORE.SYSTEM.SOLV>
0

>  <SCORE.SYSTEM.norm>
0

>  <SCORE.heavy>
42

>  <SCORE.norm>
-0.3495

>  <RMSD>
5.809

$$$$
ligand
 OpenBabel02271912133D
libRbt.so/2013.1/901 2013/11/27
 42 45  0  0  0  0  0  0  0  0999 V2000
    8.2764   -2.0779    4.3845 C   0  0  2  0  0  0  0  0  0  0  0  0
    7.3218   -3.0419    3.9084 O   0  0  0  0  0  0  0  0  0  0  0  0
    3.1646   -2.7219    2.7204 C   0  0  2  0  0  0  0  0  0  0  0  0
    1.7024   -2.4180    2.7105 N   0  0  0  0  0  0  0  0  0  0  0  0
    6.4930    0.6474    2.5163 C   0  0  1  0  0  0  0  0  0  0  0  0
    8.1320    4.0723    0.4504 C   0  0  1  0  0  0  0  0  0  0  0  0
    9.6929   -2.6662    4.1094 C   0  0  2  0  0  0  0  0  0  0  0  0
    9.8466   -3.1414    2.7233 N   0  0  0  0  0  0  0  0  0  0  0  0
    3.5269   -3.7624    3.8553 C   0  0  0  0  0  0  0  0  0  0  0  0
    6.7633    1.9702    3.2961 C   0  0  2  0  0  0  0  0  0  0  0  0
    5.5761    2.7643    3.5389 O   0  0  0  0  0  0  0  0  0  0  0  0
    9.2334    4.9900    1.0934 C   0  0  2  0  0  0  0  0  0  0  0  0
    8.6137    6.0593    1.9322 N   0  0  0  0  0  0  0  0  0  0  0  0
   10.0187   -3.8589    5.0271 C   0  0  1  0  0  0  0  0  0  0  0  0
   11.3387   -4.3398    4.7680 O   0  0  0  0  0  0  0  0  0  0  0  0
    5.0734   -4.0588    3.8010 C   0  0  2  0  0  0  0  0  0  0  0  0
    5.4478   -5.0472    4.8482 N   0  0  0  0  0  0  0  0  0  0  0  0
    7.8277    2.6233    2.4130 C   0  0  2  0  0  0  0  0  0  0  0  0
    7.2266    3.4789    1.3895 O   0  0  0  0  0  0  0  0  0  0  0  0
   10.1391    5.6216   -0.0675 C   0  0  1  0  0  0  0  0  0  0  0  0
   11.0025    4.5917   -0.5990 O   0  0  0  0  0  0  0  0  0  0  0  0
    9.8527   -3.4335    6.5039 C   0  0  2  0  0  0  0  0  0  0  0  0
   10.1636   -4.5099    7.3577 O   0  0  0  0  0  0  0  0  0  0  0  0
    5.9028   -2.7299    4.0055 C   0  0  2  0  0  0  0  0  0  0  0  0
    8.6202    1.4680    1.7785 C   0  0  2  0  0  0  0  0  0  0  0  0
    7.6470    0.4315    1.6721 O   0  0  0  0  0  0  0  0  0  0  0  0
    9.2726    6.2600   -1.2546 C   0  0  2  0  0  0  0  0  0  0  0  0
    8.6305    7.4261   -0.7405 O   0  0  0  0  0  0  0  0  0  0  0  0
    8.3814   -2.9520    6.7342 C   0  0  2  0  0  0  0  0  0  0  0  0
    8.0800   -1.8418    5.8306 O   0  0  0  0  0  0  0  0  0  0  0  0
    5.5592   -1.6431    2.9633 C   0  0  2  0  0  0  0  0  0  0  0  0
    6.2630   -0.4510    3.4083 O   0  0  0  0  0  0  0  0  0  0  0  0
    9.8597    0.9921    2.5978 C   0  0  0  0  0  0  0  0  0  0  0  0
   10.5683    0.0083    1.8502 O   0  0  0  0  0  0  0  0  0  0  0  0
    8.1991    5.2308   -1.7747 C   0  0  1  0  0  0  0  0  0  0  0  0
    7.3848    4.8620   -0.6037 O   0  0  0  0  0  0  0  0  0  0  0  0
    8.1306   -2.5091    8.1571 C   0  0  0  0  0  0  0  0  0  0  0  0
    8.2419   -3.6046    9.0327 O   0  0  0  0  0  0  0  0  0  0  0  0
    3.9936   -1.3915    2.9283 C   0  0  1  0  0  0  0  0  0  0  0  0
    3.6610   -0.4986    1.8617 O   0  0  0  0  0  0  0  0  0  0  0  0
    7.2694    5.7954   -2.9347 C   0  0  0  0  0  0  0  0  0  0  0  0
    7.9832    6.4042   -4.0908 N   0  0  0  0  0  0  0  0  0  0  0  0
  1  2  1  1  0  0  0
  1  7  1  0  0  0  0
  1 30  1  0  0  0  0
  3  4  1  1  0  0  0
  3  9  1  0  0  0  0
  3 39  1  0  0  0  0
  5 10  1  0  0  0  0
  5 26  1  0  0  0  0
  5 32  1  1  0  0  0
  6 12  1  0  0  0  0
  6 36  1  0  0  0  0
  6 19  1  1  0  0  0
  7  8  1  6  0  0  0
  7 14  1  0  0  0  0
  9 16  1  0  0  0  0
 10 11  1  6  0  0  0
 10 18  1  0  0  0  0
 12 13  1  6  0  0  0
 12 20  1  0  0  0  0
 14 15  1  1  0  0  0
 14 22  1  0  0  0  0
 16 17  1  1  0  0  0
 16 24  1  0  0  0  0
 18 19  1  6  0  0  0
 18 25  1  0  0  0  0
 20 21  1  6  0  0  0
 20 27  1  0  0  0  0
 22 23  1  1  0  0  0
 22 29  1  0  0  0  0
 24  2  1  6  0  0  0
 24 31  1  0  0  0  0
 25 26  1  0  0  0  0
 25 33  1  1  0  0  0
 27 28  1  1  0  0  0
 27 35  1  0  0  0  0
 29 30  1  0  0  0  0
 29 37  1  1  0  0  0
 31 32  1  1  0  0  0
 31 39  1  0  0  0  0
 33 34  1  0  0  0  0
 35 36  1  0  0  0  0
 35 41  1  6  0  0  0
 37 38  1  0  0  0  0
 39 40  1  6  0  0  0
 41 42  1  0  0  0  0
M  END
>  <CHROM.1>
-178.23475513,-164.66513731,-176.06827249,-59.31420929,-174.88491173,-65.81474663
162.36102294,158.83941543,51.48182767,7.64266881,0.31347567,2.73221630,-1.66428403
-0.25342367,-0.63430066

>  <Name>
ligand

>  <RI>
0

>  <Rbt.Current_Directory>
/home/itssahil/PROJECTS/Mol_Feturizer/Test_systems_manuscript/rnas/2o3w

>  <Rbt.Executable>
rbdock ($Id: //depot/dev/client3/rdock/2013.1/src/exe/rbdock.cxx#4 $)

>  <Rbt.Library>
libRbt.so (2013.1, Build901 2013/11/27)

>  <Rbt.Parameter_File>
/export/apps/rDock/src/rDock_2013.1_src/data/scripts/dock_solv.prm

>  <Rbt.Receptor>
prm/pocket_docking_5.prm

>  <SCORE>
-12.6365

>  <SCORE.INTER>
-1.12194

>  <SCORE.INTER.CONST>
1

>  <SCORE.INTER.POLAR>
0

>  <SCORE.INTER.ROT>
9

>  <SCORE.INTER.SOLV>
15.0868

>  <SCORE.INTER.VDW>
-15.3769

>  <SCORE.INTER.norm>
-0.0267128

>  <SCORE.INTRA>
-11.5146

>  <SCORE.INTRA.DIHEDRAL>
-22.6874

>  <SCORE.INTRA.DIHEDRAL.0>
27.8999

>  <SCORE.INTRA.POLAR>
0

>  <SCORE.INTRA.POLAR.0>
0

>  <SCORE.INTRA.REPUL>
0

>  <SCORE.INTRA.REPUL.0>
0

>  <SCORE.INTRA.SOLV>
-4.09478

>  <SCORE.INTRA.SOLV.lig_0>
-104.479

>  <SCORE.INTRA.VDW>
1.87646

>  <SCORE.INTRA.VDW.0>
-6.17816

>  <SCORE.INTRA.norm>
-0.274157

>  <SCORE.RESTR>
0

>  <SCORE.RESTR.CAVITY>
0

>  <SCORE.RESTR.norm>
0

>  <SCORE.SYSTEM>
0

>  <SCORE.SYSTEM.CONST>
0

>  <SCORE.SYSTEM.DIHEDRAL>
0

>  <SCORE.SYSTEM.SOLV>
0

>  <SCORE.SYSTEM.norm>
0

>  <SCORE.heavy>
42

>  <SCORE.norm>
-0.30087

>  <RMSD>
5.873

$$$$
ligand
 OpenBabel02271912133D
libRbt.so/2013.1/901 2013/11/27
 42 45  0  0  0  0  0  0  0  0999 V2000
    7.4937   -1.5112    2.4739 C   0  0  2  0  0  0  0  0  0  0  0  0
    6.6488   -2.2102    3.4038 O   0  0  0  0  0  0  0  0  0  0  0  0
    7.1424   -3.1814    7.6001 C   0  0  2  0  0  0  0  0  0  0  0  0
    7.6868   -3.6996    8.8907 N   0  0  0  0  0  0  0  0  0  0  0  0
    9.1451    0.3858    5.1947 C   0  0  1  0  0  0  0  0  0  0  0  0
   10.7999    4.4926    5.0559 C   0  0  1  0  0  0  0  0  0  0  0  0
    6.5710   -0.9631    1.3441 C   0  0  2  0  0  0  0  0  0  0  0  0
    5.4028   -0.2374    1.8725 N   0  0  0  0  0  0  0  0  0  0  0  0
    6.7951   -4.3632    6.6079 C   0  0  0  0  0  0  0  0  0  0  0  0
   10.5559    0.7383    4.6324 C   0  0  2  0  0  0  0  0  0  0  0  0
   11.6422    0.4603    5.5498 O   0  0  0  0  0  0  0  0  0  0  0  0
   12.0239    4.8830    4.1512 C   0  0  2  0  0  0  0  0  0  0  0  0
   13.3070    4.4244    4.7628 N   0  0  0  0  0  0  0  0  0  0  0  0
    6.0264   -2.0837    0.4392 C   0  0  1  0  0  0  0  0  0  0  0  0
    5.2199   -1.5332   -0.6035 O   0  0  0  0  0  0  0  0  0  0  0  0
    6.2063   -3.7567    5.2782 C   0  0  2  0  0  0  0  0  0  0  0  0
    5.8542   -4.8437    4.3253 N   0  0  0  0  0  0  0  0  0  0  0  0
   10.3667    2.2087    4.2560 C   0  0  2  0  0  0  0  0  0  0  0  0
   10.7091    3.0968    5.3673 O   0  0  0  0  0  0  0  0  0  0  0  0
   12.0290    6.4691    3.9244 C   0  0  1  0  0  0  0  0  0  0  0  0
   10.9666    6.8133    3.0070 O   0  0  0  0  0  0  0  0  0  0  0  0
    7.2055   -2.9037   -0.1323 C   0  0  2  0  0  0  0  0  0  0  0  0
    6.7244   -3.9236   -0.9765 O   0  0  0  0  0  0  0  0  0  0  0  0
    7.2468   -2.7773    4.6043 C   0  0  2  0  0  0  0  0  0  0  0  0
    8.8887    2.3583    3.8581 C   0  0  2  0  0  0  0  0  0  0  0  0
    8.2381    1.3805    4.6663 O   0  0  0  0  0  0  0  0  0  0  0  0
   11.8485    7.2928    5.2869 C   0  0  2  0  0  0  0  0  0  0  0  0
   13.0383    7.1203    6.0557 O   0  0  0  0  0  0  0  0  0  0  0  0
    8.0284   -3.5093    1.0533 C   0  0  2  0  0  0  0  0  0  0  0  0
    8.5083   -2.4327    1.9196 O   0  0  0  0  0  0  0  0  0  0  0  0
    7.6769   -1.6253    5.5386 C   0  0  2  0  0  0  0  0  0  0  0  0
    8.7542   -0.9462    4.8368 O   0  0  0  0  0  0  0  0  0  0  0  0
    8.5877    2.1261    2.3449 C   0  0  0  0  0  0  0  0  0  0  0  0
    9.2805    3.1020    1.5724 O   0  0  0  0  0  0  0  0  0  0  0  0
   10.5989    6.7697    6.0913 C   0  0  1  0  0  0  0  0  0  0  0  0
   10.8294    5.3321    6.3158 O   0  0  0  0  0  0  0  0  0  0  0  0
    9.2103   -4.3255    0.5837 C   0  0  0  0  0  0  0  0  0  0  0  0
   10.1122   -3.5100   -0.1241 O   0  0  0  0  0  0  0  0  0  0  0  0
    8.1859   -2.2038    6.9250 C   0  0  1  0  0  0  0  0  0  0  0  0
    8.4402   -1.1358    7.8418 O   0  0  0  0  0  0  0  0  0  0  0  0
   10.3644    7.5118    7.4780 C   0  0  0  0  0  0  0  0  0  0  0  0
   10.0907    8.9724    7.3865 N   0  0  0  0  0  0  0  0  0  0  0  0
  1  2  1  1  0  0  0
  1  7  1  0  0  0  0
  1 30  1  0  0  0  0
  3  4  1  1  0  0  0
  3  9  1  0  0  0  0
  3 39  1  0  0  0  0
  5 10  1  0  0  0  0
  5 26  1  0  0  0  0
  5 32  1  6  0  0  0
  6 12  1  0  0  0  0
  6 36  1  0  0  0  0
  6 19  1  1  0  0  0
  7  8  1  1  0  0  0
  7 14  1  0  0  0  0
  9 16  1  0  0  0  0
 10 11  1  1  0  0  0
 10 18  1  0  0  0  0
 12 13  1  1  0  0  0
 12 20  1  0  0  0  0
 14 15  1  6  0  0  0
 14 22  1  0  0  0  0
 16 17  1  6  0  0  0
 16 24  1  0  0  0  0
 18 19  1  1  0  0  0
 18 25  1  0  0  0  0
 20 21  1  6  0  0  0
 20 27  1  0  0  0  0
 22 23  1  6  0  0  0
 22 29  1  0  0  0  0
 24  2  1  6  0  0  0
 24 31  1  0  0  0  0
 25 26  1  0  0  0  0
 25 33  1  6  0  0  0
 27 28  1  1  0  0  0
 27 35  1  0  0  0  0
 29 30  1  0  0  0  0
 29 37  1  6  0  0  0
 31 32  1  6  0  0  0
 31 39  1  0  0  0  0
 33 34  1  0  0  0  0
 35 36  1  0  0  0  0
 35 41  1  1  0  0  0
 37 38  1  0  0  0  0
 39 40  1  1  0  0  0
 41 42  1  0  0  0  0
M  END
>  <CHROM.1>
-177.17850876,-167.17612482,169.20350393,-69.34075279,-62.15347016,62.43163531
161.62521968,162.67350894,61.98359246,8.93203611,0.68296107,4.03586782,-3.00373418
1.16118413,1.72028345

>  <Name>
ligand

>  <RI>
0

>  <Rbt.Current_Directory>
/home/itssahil/PROJECTS/Mol_Feturizer/Test_systems_manuscript/rnas/2o3w

>  <Rbt.Executable>
rbdock ($Id: //depot/dev/client3/rdock/2013.1/src/exe/rbdock.cxx#4 $)

>  <Rbt.Library>
libRbt.so (2013.1, Build901 2013/11/27)

>  <Rbt.Parameter_File>
/export/apps/rDock/src/rDock_2013.1_src/data/scripts/dock_solv.prm

>  <Rbt.Receptor>
prm/pocket_docking_7.prm

>  <SCORE>
-13.0375

>  <SCORE.INTER>
-0.684298

>  <SCORE.INTER.CONST>
1

>  <SCORE.INTER.POLAR>
0

>  <SCORE.INTER.ROT>
9

>  <SCORE.INTER.SOLV>
18.4242

>  <SCORE.INTER.VDW>
-16.1976

>  <SCORE.INTER.norm>
-0.0162928

>  <SCORE.INTRA>
-12.3532

>  <SCORE.INTRA.DIHEDRAL>
-22.9841

>  <SCORE.INTRA.DIHEDRAL.0>
27.8999

>  <SCORE.INTRA.POLAR>
0

>  <SCORE.INTRA.POLAR.0>
0

>  <SCORE.INTRA.REPUL>
0

>  <SCORE.INTRA.REPUL.0>
0

>  <SCORE.INTRA.SOLV>
-5.1441

>  <SCORE.INTRA.SOLV.lig_0>
-104.479

>  <SCORE.INTRA.VDW>
1.71088

>  <SCORE.INTRA.VDW.0>
-6.17816

>  <SCORE.INTRA.norm>
-0.294124

>  <SCORE.RESTR>
0

>  <SCORE.RESTR.CAVITY>
0

>  <SCORE.RESTR.norm>
0

>  <SCORE.SYSTEM>
0

>  <SCORE.SYSTEM.CONST>
0

>  <SCORE.SYSTEM.DIHEDRAL>
0

>  <SCORE.SYSTEM.SOLV>
0

>  <SCORE.SYSTEM.norm>
0

>  <SCORE.heavy>
42

>  <SCORE.norm>
-0.310417

>  <RMSD>
5.878

$$$$
ligand
 OpenBabel02271912133D
libRbt.so/2013.1/901 2013/11/27
 42 45  0  0  0  0  0  0  0  0999 V2000
    4.2607   -1.8870    1.9260 C   0  0  2  0  0  0  0  0  0  0  0  0
    5.4989   -1.8711    2.6567 O   0  0  0  0  0  0  0  0  0  0  0  0
    9.2329   -4.0367    2.2520 C   0  0  2  0  0  0  0  0  0  0  0  0
   10.4964   -4.6126    1.7022 N   0  0  0  0  0  0  0  0  0  0  0  0
    8.5626    0.6138    3.1283 C   0  0  1  0  0  0  0  0  0  0  0  0
   10.2953    4.5195    3.6384 C   0  0  1  0  0  0  0  0  0  0  0  0
    4.3448   -0.7503    0.8634 C   0  0  2  0  0  0  0  0  0  0  0  0
    5.5918   -0.8015    0.0805 N   0  0  0  0  0  0  0  0  0  0  0  0
    7.9656   -4.6091    1.4982 C   0  0  0  0  0  0  0  0  0  0  0  0
    8.5974    1.9990    2.4135 C   0  0  2  0  0  0  0  0  0  0  0  0
    9.7874    2.2218    1.6177 O   0  0  0  0  0  0  0  0  0  0  0  0
   11.7177    4.8488    4.2191 C   0  0  2  0  0  0  0  0  0  0  0  0
   11.6743    4.9551    5.7083 N   0  0  0  0  0  0  0  0  0  0  0  0
    4.2762    0.6503    1.4994 C   0  0  1  0  0  0  0  0  0  0  0  0
    4.3166    1.6584    0.4879 O   0  0  0  0  0  0  0  0  0  0  0  0
    6.6673   -3.9840    2.1355 C   0  0  2  0  0  0  0  0  0  0  0  0
    5.4525   -4.5127    1.4585 N   0  0  0  0  0  0  0  0  0  0  0  0
    8.4047    2.9487    3.5968 C   0  0  2  0  0  0  0  0  0  0  0  0
    9.6854    3.3432    4.1842 O   0  0  0  0  0  0  0  0  0  0  0  0
   12.2563    6.2065    3.5607 C   0  0  1  0  0  0  0  0  0  0  0  0
   12.6398    5.9421    2.1925 O   0  0  0  0  0  0  0  0  0  0  0  0
    2.9966    0.7642    2.3589 C   0  0  2  0  0  0  0  0  0  0  0  0
    2.9103    2.0469    2.9350 O   0  0  0  0  0  0  0  0  0  0  0  0
    6.6942   -2.4085    2.0218 C   0  0  2  0  0  0  0  0  0  0  0  0
    7.5357    2.1893    4.6135 C   0  0  2  0  0  0  0  0  0  0  0  0
    7.9033    0.8289    4.3972 O   0  0  0  0  0  0  0  0  0  0  0  0
   11.1732    7.3869    3.5952 C   0  0  2  0  0  0  0  0  0  0  0  0
   11.0130    7.7850    4.9562 O   0  0  0  0  0  0  0  0  0  0  0  0
    3.0269   -0.3394    3.4684 C   0  0  2  0  0  0  0  0  0  0  0  0
    3.1263   -1.6596    2.8463 O   0  0  0  0  0  0  0  0  0  0  0  0
    7.9376   -1.7810    2.6891 C   0  0  2  0  0  0  0  0  0  0  0  0
    7.8930   -0.3722    2.3317 O   0  0  0  0  0  0  0  0  0  0  0  0
    5.9977    2.3889    4.4437 C   0  0  0  0  0  0  0  0  0  0  0  0
    5.3155    1.6942    5.4834 O   0  0  0  0  0  0  0  0  0  0  0  0
    9.7973    6.8962    3.0050 C   0  0  1  0  0  0  0  0  0  0  0  0
    9.3997    5.7285    3.8103 O   0  0  0  0  0  0  0  0  0  0  0  0
    1.8043   -0.3054    4.3559 C   0  0  0  0  0  0  0  0  0  0  0  0
    1.9152   -1.2728    5.3713 O   0  0  0  0  0  0  0  0  0  0  0  0
    9.2595   -2.4600    2.1348 C   0  0  1  0  0  0  0  0  0  0  0  0
   10.3983   -1.9875    2.8598 O   0  0  0  0  0  0  0  0  0  0  0  0
    8.6513    7.9982    3.0318 C   0  0  0  0  0  0  0  0  0  0  0  0
    8.2579    8.4830    4.3834 N   0  0  0  0  0  0  0  0  0  0  0  0
  1  2  1  1  0  0  0
  1  7  1  0  0  0  0
  1 30  1  0  0  0  0
  3  4  1  6  0  0  0
  3  9  1  0  0  0  0
  3 39  1  0  0  0  0
  5 10  1  0  0  0  0
  5 26  1  0  0  0  0
  5 32  1  6  0  0  0
  6 12  1  0  0  0  0
  6 36  1  0  0  0  0
  6 19  1  1  0  0  0
  7  8  1  1  0  0  0
  7 14  1  0  0  0  0
  9 16  1  0  0  0  0
 10 11  1  1  0  0  0
 10 18  1  0  0  0  0
 12 13  1  1  0  0  0
 12 20  1  0  0  0  0
 14 15  1  6  0  0  0
 14 22  1  0  0  0  0
 16 17  1  6  0  0  0
 16 24  1  0  0  0  0
 18 19  1  1  0  0  0
 18 25  1  0  0  0  0
 20 21  1  6  0  0  0
 20 27  1  0  0  0  0
 22 23  1  1  0  0  0
 22 29  1  0  0  0  0
 24  2  1  1  0  0  0
 24 31  1  0  0  0  0
 25 26  1  0  0  0  0
 25 33  1  6  0  0  0
 27 28  1  1  0  0  0
 27 35  1  0  0  0  0
 29 30  1  0  0  0  0
 29 37  1  6  0  0  0
 31 32  1  6  0  0  0
 31 39  1  0  0  0  0
 33 34  1  0  0  0  0
 35 36  1  0  0  0  0
 35 41  1  1  0  0  0
 37 38  1  0  0  0  0
 39 40  1  1  0  0  0
 41 42  1  0  0  0  0
M  END
>  <CHROM.1>
-75.28568762,-79.98026434,89.95041005,-175.60897678,-176.95221470,-177.14535093
156.84533460,169.44096662,-62.03091331,7.47534704,1.32152651,3.01818480,2.12502277
-0.06766476,-2.92739612

>  <Name>
ligand

>  <RI>
0

>  <Rbt.Current_Directory>
/home/itssahil/PROJECTS/Mol_Feturizer/Test_systems_manuscript/rnas/2o3w

>  <Rbt.Executable>
rbdock ($Id: //depot/dev/client3/rdock/2013.1/src/exe/rbdock.cxx#4 $)

>  <Rbt.Library>
libRbt.so (2013.1, Build901 2013/11/27)

>  <Rbt.Parameter_File>
/export/apps/rDock/src/rDock_2013.1_src/data/scripts/dock_solv.prm

>  <Rbt.Receptor>
prm/pocket_docking_4.prm

>  <SCORE>
-9.0249

>  <SCORE.INTER>
-0.615507

>  <SCORE.INTER.CONST>
1

>  <SCORE.INTER.POLAR>
0

>  <SCORE.INTER.ROT>
9

>  <SCORE.INTER.SOLV>
14.3552

>  <SCORE.INTER.VDW>
-14.7954

>  <SCORE.INTER.norm>
-0.0146549

>  <SCORE.INTRA>
-8.4094

>  <SCORE.INTRA.DIHEDRAL>
-18.2582

>  <SCORE.INTRA.DIHEDRAL.0>
27.8999

>  <SCORE.INTRA.POLAR>
0

>  <SCORE.INTRA.POLAR.0>
0

>  <SCORE.INTRA.REPUL>
0

>  <SCORE.INTRA.REPUL.0>
0

>  <SCORE.INTRA.SOLV>
-0.411418

>  <SCORE.INTRA.SOLV.lig_0>
-104.479

>  <SCORE.INTRA.VDW>
0.925399

>  <SCORE.INTRA.VDW.0>
-6.17816

>  <SCORE.INTRA.norm>
-0.200224

>  <SCORE.RESTR>
0

>  <SCORE.RESTR.CAVITY>
0

>  <SCORE.RESTR.norm>
0

>  <SCORE.SYSTEM>
0

>  <SCORE.SYSTEM.CONST>
0

>  <SCORE.SYSTEM.DIHEDRAL>
0

>  <SCORE.SYSTEM.SOLV>
0

>  <SCORE.SYSTEM.norm>
0

>  <SCORE.heavy>
42

>  <SCORE.norm>
-0.214879

>  <RMSD>
5.890

$$$$
ligand
 OpenBabel02271912133D
libRbt.so/2013.1/901 2013/11/27
 42 45  0  0  0  0  0  0  0  0999 V2000
    7.7132    3.7602    4.2707 C   0  0  2  0  0  0  0  0  0  0  0  0
    7.1255    2.5407    3.7863 O   0  0  0  0  0  0  0  0  0  0  0  0
    3.0805    1.7298    2.4533 C   0  0  2  0  0  0  0  0  0  0  0  0
    1.5965    1.5671    2.4138 N   0  0  0  0  0  0  0  0  0  0  0  0
    4.9546    5.9606    2.9571 C   0  0  1  0  0  0  0  0  0  0  0  0
    3.8159    8.2524    1.3061 C   0  0  1  0  0  0  0  0  0  0  0  0
    9.2304    3.7049    3.9197 C   0  0  2  0  0  0  0  0  0  0  0  0
    9.4703    3.3530    2.5093 N   0  0  0  0  0  0  0  0  0  0  0  0
    3.7442    0.7020    3.4558 C   0  0  0  0  0  0  0  0  0  0  0  0
    4.5741    7.0464    4.0093 C   0  0  2  0  0  0  0  0  0  0  0  0
    3.1591    7.0997    4.3157 O   0  0  0  0  0  0  0  0  0  0  0  0
    4.7446    8.5171    0.0667 C   0  0  2  0  0  0  0  0  0  0  0  0
    4.8295    9.9776   -0.2340 N   0  0  0  0  0  0  0  0  0  0  0  0
    9.9899    2.6710    4.7714 C   0  0  1  0  0  0  0  0  0  0  0  0
   11.3805    2.6826    4.4445 O   0  0  0  0  0  0  0  0  0  0  0  0
    5.3063    0.9069    3.4368 C   0  0  2  0  0  0  0  0  0  0  0  0
    5.9656   -0.0558    4.3600 N   0  0  0  0  0  0  0  0  0  0  0  0
    5.1598    8.3033    3.3641 C   0  0  2  0  0  0  0  0  0  0  0  0
    4.1874    8.9641    2.4932 O   0  0  0  0  0  0  0  0  0  0  0  0
    4.1880    7.7012   -1.1948 C   0  0  1  0  0  0  0  0  0  0  0  0
    4.4763    6.2974   -1.0075 O   0  0  0  0  0  0  0  0  0  0  0  0
    9.7599    2.9692    6.2705 C   0  0  2  0  0  0  0  0  0  0  0  0
   10.4625    2.0412    7.0641 O   0  0  0  0  0  0  0  0  0  0  0  0
    5.6795    2.3837    3.8559 C   0  0  2  0  0  0  0  0  0  0  0  0
    6.3926    7.8382    2.5708 C   0  0  2  0  0  0  0  0  0  0  0  0
    6.0412    6.5131    2.1793 O   0  0  0  0  0  0  0  0  0  0  0  0
    2.6139    7.8998   -1.4187 C   0  0  2  0  0  0  0  0  0  0  0  0
    2.4059    9.2452   -1.8468 O   0  0  0  0  0  0  0  0  0  0  0  0
    8.2258    2.9068    6.5740 C   0  0  2  0  0  0  0  0  0  0  0  0
    7.5182    3.8712    5.7320 O   0  0  0  0  0  0  0  0  0  0  0  0
    5.0188    3.4477    2.9522 C   0  0  2  0  0  0  0  0  0  0  0  0
    5.3143    4.7231    3.5851 O   0  0  0  0  0  0  0  0  0  0  0  0
    7.7326    7.8507    3.3698 C   0  0  0  0  0  0  0  0  0  0  0  0
    7.6812    6.8580    4.3901 O   0  0  0  0  0  0  0  0  0  0  0  0
    1.8234    7.6239   -0.0841 C   0  0  1  0  0  0  0  0  0  0  0  0
    2.3814    8.5461    0.9201 O   0  0  0  0  0  0  0  0  0  0  0  0
    7.9076    3.1937    8.0232 C   0  0  0  0  0  0  0  0  0  0  0  0
    8.3845    4.4680    8.3812 O   0  0  0  0  0  0  0  0  0  0  0  0
    3.4529    3.2074    2.8759 C   0  0  1  0  0  0  0  0  0  0  0  0
    2.8632    4.0959    1.9228 O   0  0  0  0  0  0  0  0  0  0  0  0
    0.2517    7.8314   -0.2076 C   0  0  0  0  0  0  0  0  0  0  0  0
   -0.4443    6.9176   -1.1548 N   0  0  0  0  0  0  0  0  0  0  0  0
  1  2  1  1  0  0  0
  1  7  1  0  0  0  0
  1 30  1  0  0  0  0
  3  4  1  1  0  0  0
  3  9  1  0  0  0  0
  3 39  1  0  0  0  0
  5 10  1  0  0  0  0
  5 26  1  0  0  0  0
  5 32  1  1  0  0  0
  6 12  1  0  0  0  0
  6 36  1  0  0  0  0
  6 19  1  1  0  0  0
  7  8  1  6  0  0  0
  7 14  1  0  0  0  0
  9 16  1  0  0  0  0
 10 11  1  6  0  0  0
 10 18  1  0  0  0  0
 12 13  1  6  0  0  0
 12 20  1  0  0  0  0
 14 15  1  1  0  0  0
 14 22  1  0  0  0  0
 16 17  1  1  0  0  0
 16 24  1  0  0  0  0
 18 19  1  6  0  0  0
 18 25  1  0  0  0  0
 20 21  1  1  0  0  0
 20 27  1  0  0  0  0
 22 23  1  1  0  0  0
 22 29  1  0  0  0  0
 24  2  1  6  0  0  0
 24 31  1  0  0  0  0
 25 26  1  0  0  0  0
 25 33  1  1  0  0  0
 27 28  1  1  0  0  0
 27 35  1  0  0  0  0
 29 30  1  0  0  0  0
 29 37  1  1  0  0  0
 31 32  1  1  0  0  0
 31 39  1  0  0  0  0
 33 34  1  0  0  0  0
 35 36  1  0  0  0  0
 35 41  1  6  0  0  0
 37 38  1  0  0  0  0
 39 40  1  6  0  0  0
 41 42  1  0  0  0  0
M  END
>  <CHROM.1>
-173.66998048,-173.00248148,-67.44263787,-87.82570431,67.54111155,58.58589125
174.46665675,146.64543085,63.11707996,5.49946352,5.16679853,2.92408474,-0.77186975
-0.54172803,-0.33722035

>  <Name>
ligand

>  <RI>
0

>  <Rbt.Current_Directory>
/home/itssahil/PROJECTS/Mol_Feturizer/Test_systems_manuscript/rnas/2o3w

>  <Rbt.Executable>
rbdock ($Id: //depot/dev/client3/rdock/2013.1/src/exe/rbdock.cxx#4 $)

>  <Rbt.Library>
libRbt.so (2013.1, Build901 2013/11/27)

>  <Rbt.Parameter_File>
/export/apps/rDock/src/rDock_2013.1_src/data/scripts/dock_solv.prm

>  <Rbt.Receptor>
prm/pocket_docking_4.prm

>  <SCORE>
-10.3453

>  <SCORE.INTER>
-1.17745

>  <SCORE.INTER.CONST>
1

>  <SCORE.INTER.POLAR>
0

>  <SCORE.INTER.ROT>
9

>  <SCORE.INTER.SOLV>
14.8747

>  <SCORE.INTER.VDW>
-15.3432

>  <SCORE.INTER.norm>
-0.0280345

>  <SCORE.INTRA>
-9.17472

>  <SCORE.INTRA.DIHEDRAL>
-19.2971

>  <SCORE.INTRA.DIHEDRAL.0>
27.8999

>  <SCORE.INTRA.POLAR>
0

>  <SCORE.INTRA.POLAR.0>
0

>  <SCORE.INTRA.REPUL>
0.0194639

>  <SCORE.INTRA.REPUL.0>
0

>  <SCORE.INTRA.SOLV>
-3.35297

>  <SCORE.INTRA.SOLV.lig_0>
-104.479

>  <SCORE.INTRA.VDW>
2.05301

>  <SCORE.INTRA.VDW.0>
-6.17816

>  <SCORE.INTRA.norm>
-0.218446

>  <SCORE.RESTR>
0.0068532

>  <SCORE.RESTR.CAVITY>
0.0068532

>  <SCORE.RESTR.norm>
0.000163172

>  <SCORE.SYSTEM>
0

>  <SCORE.SYSTEM.CONST>
0

>  <SCORE.SYSTEM.DIHEDRAL>
0

>  <SCORE.SYSTEM.SOLV>
0

>  <SCORE.SYSTEM.norm>
0

>  <SCORE.heavy>
42

>  <SCORE.norm>
-0.246317

>  <RMSD>
5.916

$$$$
ligand
 OpenBabel02271912133D
libRbt.so/2013.1/901 2013/11/27
 42 45  0  0  0  0  0  0  0  0999 V2000
   13.0389    3.6339    5.8021 C   0  0  2  0  0  0  0  0  0  0  0  0
   12.3356    2.4623    5.3550 O   0  0  0  0  0  0  0  0  0  0  0  0
   12.2967   -1.5486    7.0004 C   0  0  2  0  0  0  0  0  0  0  0  0
   12.0660   -2.7221    7.8949 N   0  0  0  0  0  0  0  0  0  0  0  0
    9.5946    2.0058    4.4667 C   0  0  1  0  0  0  0  0  0  0  0  0
    8.3281    3.4388    0.3823 C   0  0  1  0  0  0  0  0  0  0  0  0
   12.1076    4.3647    6.8154 C   0  0  2  0  0  0  0  0  0  0  0  0
   11.5787    3.4587    7.8497 N   0  0  0  0  0  0  0  0  0  0  0  0
   13.2430   -0.4822    7.6852 C   0  0  0  0  0  0  0  0  0  0  0  0
    9.6233    1.2443    3.1065 C   0  0  2  0  0  0  0  0  0  0  0  0
   10.9221    1.2331    2.4647 O   0  0  0  0  0  0  0  0  0  0  0  0
    8.9639    4.6162   -0.4414 C   0  0  2  0  0  0  0  0  0  0  0  0
    9.1133    5.8386    0.4037 N   0  0  0  0  0  0  0  0  0  0  0  0
   10.8918    5.0136    6.1285 C   0  0  1  0  0  0  0  0  0  0  0  0
   10.0889    5.7042    7.0873 O   0  0  0  0  0  0  0  0  0  0  0  0
   13.4663    0.7170    6.6879 C   0  0  2  0  0  0  0  0  0  0  0  0
   14.3657    1.7346    7.2953 N   0  0  0  0  0  0  0  0  0  0  0  0
    8.5121    1.9634    2.3401 C   0  0  2  0  0  0  0  0  0  0  0  0
    9.0304    3.1051    1.5860 O   0  0  0  0  0  0  0  0  0  0  0  0
    8.0552    4.9129   -1.7272 C   0  0  1  0  0  0  0  0  0  0  0  0
    8.2462    3.8513   -2.6892 O   0  0  0  0  0  0  0  0  0  0  0  0
   11.3776    5.9634    5.0101 C   0  0  2  0  0  0  0  0  0  0  0  0
   10.2766    6.5785    4.3823 O   0  0  0  0  0  0  0  0  0  0  0  0
   12.0879    1.3880    6.3063 C   0  0  2  0  0  0  0  0  0  0  0  0
    7.4890    2.4120    3.3972 C   0  0  2  0  0  0  0  0  0  0  0  0
    8.2966    2.6378    4.5502 O   0  0  0  0  0  0  0  0  0  0  0  0
    6.4980    5.0408   -1.3722 C   0  0  2  0  0  0  0  0  0  0  0  0
    6.3233    6.2453   -0.6272 O   0  0  0  0  0  0  0  0  0  0  0  0
   12.2184    5.1448    3.9745 C   0  0  2  0  0  0  0  0  0  0  0  0
   13.3486    4.5089    4.6513 O   0  0  0  0  0  0  0  0  0  0  0  0
   11.0885    0.3899    5.6816 C   0  0  2  0  0  0  0  0  0  0  0  0
    9.8372    1.1222    5.5692 O   0  0  0  0  0  0  0  0  0  0  0  0
    6.3577    1.3804    3.6977 C   0  0  0  0  0  0  0  0  0  0  0  0
    6.9376    0.1772    4.1926 O   0  0  0  0  0  0  0  0  0  0  0  0
    6.0171    3.8018   -0.5261 C   0  0  1  0  0  0  0  0  0  0  0  0
    6.8773    3.7640    0.6693 O   0  0  0  0  0  0  0  0  0  0  0  0
   12.7413    6.0005    2.8439 C   0  0  0  0  0  0  0  0  0  0  0  0
   11.6988    6.3188    1.9545 O   0  0  0  0  0  0  0  0  0  0  0  0
   10.9166   -0.8759    6.6218 C   0  0  1  0  0  0  0  0  0  0  0  0
   10.1115   -1.8653    5.9749 O   0  0  0  0  0  0  0  0  0  0  0  0
    4.4863    3.8634   -0.1000 C   0  0  0  0  0  0  0  0  0  0  0  0
    3.5064    3.8418   -1.2207 N   0  0  0  0  0  0  0  0  0  0  0  0
  1  2  1  6  0  0  0
  1  7  1  0  0  0  0
  1 30  1  0  0  0  0
  3  4  1  1  0  0  0
  3  9  1  0  0  0  0
  3 39  1  0  0  0  0
  5 10  1  0  0  0  0
  5 26  1  0  0  0  0
  5 32  1  1  0  0  0
  6 12  1  0  0  0  0
  6 36  1  0  0  0  0
  6 19  1  1  0  0  0
  7  8  1  1  0  0  0
  7 14  1  0  0  0  0
  9 16  1  0  0  0  0
 10 11  1  6  0  0  0
 10 18  1  0  0  0  0
 12 13  1  1  0  0  0
 12 20  1  0  0  0  0
 14 15  1  1  0  0  0
 14 22  1  0  0  0  0
 16 17  1  1  0  0  0
 16 24  1  0  0  0  0
 18 19  1  1  0  0  0
 18 25  1  0  0  0  0
 20 21  1  6  0  0  0
 20 27  1  0  0  0  0
 22 23  1  6  0  0  0
 22 29  1  0  0  0  0
 24  2  1  6  0  0  0
 24 31  1  0  0  0  0
 25 26  1  0  0  0  0
 25 33  1  1  0  0  0
 27 28  1  1  0  0  0
 27 35  1  0  0  0  0
 29 30  1  0  0  0  0
 29 37  1  6  0  0  0
 31 32  1  1  0  0  0
 31 39  1  0  0  0  0
 33 34  1  0  0  0  0
 35 36  1  0  0  0  0
 35 41  1  1  0  0  0
 37 38  1  0  0  0  0
 39 40  1  6  0  0  0
 41 42  1  0  0  0  0
M  END
>  <CHROM.1>
-67.48166290,-67.98370037,150.20749063,-176.61807630,60.78711474,-74.55202648
82.13199668,61.25886712,63.50379681,9.84453087,2.93358679,3.57854182,-0.74952699
-0.70478051,-0.51934994

>  <Name>
ligand

>  <RI>
0

>  <Rbt.Current_Directory>
/home/itssahil/PROJECTS/Mol_Feturizer/Test_systems_manuscript/rnas/2o3w

>  <Rbt.Executable>
rbdock ($Id: //depot/dev/client3/rdock/2013.1/src/exe/rbdock.cxx#4 $)

>  <Rbt.Library>
libRbt.so (2013.1, Build901 2013/11/27)

>  <Rbt.Parameter_File>
/export/apps/rDock/src/rDock_2013.1_src/data/scripts/dock_solv.prm

>  <Rbt.Receptor>
prm/pocket_docking_5.prm

>  <SCORE>
-11.287

>  <SCORE.INTER>
-3.61

>  <SCORE.INTER.CONST>
1

>  <SCORE.INTER.POLAR>
0

>  <SCORE.INTER.ROT>
9

>  <SCORE.INTER.SOLV>
12.4813

>  <SCORE.INTER.VDW>
-16.1671

>  <SCORE.INTER.norm>
-0.0859523

>  <SCORE.INTRA>
-7.67698

>  <SCORE.INTRA.DIHEDRAL>
-20.6337

>  <SCORE.INTRA.DIHEDRAL.0>
27.8999

>  <SCORE.INTRA.POLAR>
0

>  <SCORE.INTRA.POLAR.0>
0

>  <SCORE.INTRA.REPUL>
0.0208269

>  <SCORE.INTRA.REPUL.0>
0

>  <SCORE.INTRA.SOLV>
1.35406

>  <SCORE.INTRA.SOLV.lig_0>
-104.479

>  <SCORE.INTRA.VDW>
1.8587

>  <SCORE.INTRA.VDW.0>
-6.17816

>  <SCORE.INTRA.norm>
-0.182785

>  <SCORE.RESTR>
0

>  <SCORE.RESTR.CAVITY>
0

>  <SCORE.RESTR.norm>
0

>  <SCORE.SYSTEM>
0

>  <SCORE.SYSTEM.CONST>
0

>  <SCORE.SYSTEM.DIHEDRAL>
0

>  <SCORE.SYSTEM.SOLV>
0

>  <SCORE.SYSTEM.norm>
0

>  <SCORE.heavy>
42

>  <SCORE.norm>
-0.268737

>  <RMSD>
5.945

$$$$
ligand
 OpenBabel02271912133D
libRbt.so/2013.1/901 2013/11/27
 42 45  0  0  0  0  0  0  0  0999 V2000
    4.9833    3.2800    5.8637 C   0  0  2  0  0  0  0  0  0  0  0  0
    5.3200    3.1116    4.4760 O   0  0  0  0  0  0  0  0  0  0  0  0
    6.5106   -1.0524    4.6763 C   0  0  2  0  0  0  0  0  0  0  0  0
    6.9774   -2.4226    4.3087 N   0  0  0  0  0  0  0  0  0  0  0  0
    8.0613    2.6329    2.5455 C   0  0  1  0  0  0  0  0  0  0  0  0
    6.9437    4.5692   -1.3431 C   0  0  1  0  0  0  0  0  0  0  0  0
    4.6681    4.7913    6.0752 C   0  0  2  0  0  0  0  0  0  0  0  0
    3.7146    5.3130    5.0806 N   0  0  0  0  0  0  0  0  0  0  0  0
    5.1237   -0.7163    3.9942 C   0  0  0  0  0  0  0  0  0  0  0  0
    7.0539    3.7298    2.0843 C   0  0  2  0  0  0  0  0  0  0  0  0
    5.7432    3.2182    1.7384 O   0  0  0  0  0  0  0  0  0  0  0  0
    6.8688    3.9182   -2.7711 C   0  0  2  0  0  0  0  0  0  0  0  0
    8.2221    3.4854   -3.2317 N   0  0  0  0  0  0  0  0  0  0  0  0
    5.9297    5.6695    5.9852 C   0  0  1  0  0  0  0  0  0  0  0  0
    5.6006    7.0389    6.2241 O   0  0  0  0  0  0  0  0  0  0  0  0
    4.6743    0.7278    4.4362 C   0  0  2  0  0  0  0  0  0  0  0  0
    3.3631    1.0720    3.8231 N   0  0  0  0  0  0  0  0  0  0  0  0
    7.8313    4.3858    0.9421 C   0  0  2  0  0  0  0  0  0  0  0  0
    7.5479    3.7421   -0.3409 O   0  0  0  0  0  0  0  0  0  0  0  0
    6.2196    4.9647   -3.7959 C   0  0  1  0  0  0  0  0  0  0  0  0
    4.8022    5.0609   -3.5302 O   0  0  0  0  0  0  0  0  0  0  0  0
    6.9862    5.1590    6.9914 C   0  0  2  0  0  0  0  0  0  0  0  0
    8.1414    5.9630    6.9332 O   0  0  0  0  0  0  0  0  0  0  0  0
    5.7546    1.8007    4.0145 C   0  0  2  0  0  0  0  0  0  0  0  0
    9.3185    4.2586    1.3129 C   0  0  2  0  0  0  0  0  0  0  0  0
    9.3600    3.0464    2.0623 O   0  0  0  0  0  0  0  0  0  0  0  0
    6.8825    6.4204   -3.7018 C   0  0  2  0  0  0  0  0  0  0  0  0
    8.2115    6.3226   -4.2124 O   0  0  0  0  0  0  0  0  0  0  0  0
    7.3316    3.6695    6.6574 C   0  0  2  0  0  0  0  0  0  0  0  0
    6.1160    2.8578    6.7148 O   0  0  0  0  0  0  0  0  0  0  0  0
    7.1528    1.5047    4.5998 C   0  0  2  0  0  0  0  0  0  0  0  0
    8.0424    2.4668    3.9692 O   0  0  0  0  0  0  0  0  0  0  0  0
    9.8949    5.4496    2.1397 C   0  0  0  0  0  0  0  0  0  0  0  0
    9.8379    6.6375    1.3558 O   0  0  0  0  0  0  0  0  0  0  0  0
    6.9076    6.9243   -2.2092 C   0  0  1  0  0  0  0  0  0  0  0  0
    7.6488    5.9054   -1.4458 O   0  0  0  0  0  0  0  0  0  0  0  0
    8.3574    3.0849    7.6005 C   0  0  0  0  0  0  0  0  0  0  0  0
    7.8450    3.0451    8.9102 O   0  0  0  0  0  0  0  0  0  0  0  0
    7.5912    0.0209    4.2509 C   0  0  1  0  0  0  0  0  0  0  0  0
    8.8140   -0.3023    4.9187 O   0  0  0  0  0  0  0  0  0  0  0  0
    7.5817    8.3519   -2.0189 C   0  0  0  0  0  0  0  0  0  0  0  0
    7.5386    8.9033   -0.6366 N   0  0  0  0  0  0  0  0  0  0  0  0
  1  2  1  6  0  0  0
  1  7  1  0  0  0  0
  1 30  1  0  0  0  0
  3  4  1  6  0  0  0
  3  9  1  0  0  0  0
  3 39  1  0  0  0  0
  5 10  1  0  0  0  0
  5 26  1  0  0  0  0
  5 32  1  1  0  0  0
  6 12  1  0  0  0  0
  6 36  1  0  0  0  0
  6 19  1  1  0  0  0
  7  8  1  6  0  0  0
  7 14  1  0  0  0  0
  9 16  1  0  0  0  0
 10 11  1  6  0  0  0
 10 18  1  0  0  0  0
 12 13  1  6  0  0  0
 12 20  1  0  0  0  0
 14 15  1  1  0  0  0
 14 22  1  0  0  0  0
 16 17  1  6  0  0  0
 16 24  1  0  0  0  0
 18 19  1  6  0  0  0
 18 25  1  0  0  0  0
 20 21  1  1  0  0  0
 20 27  1  0  0  0  0
 22 23  1  6  0  0  0
 22 29  1  0  0  0  0
 24  2  1  1  0  0  0
 24 31  1  0  0  0  0
 25 26  1  0  0  0  0
 25 33  1  1  0  0  0
 27 28  1  1  0  0  0
 27 35  1  0  0  0  0
 29 30  1  0  0  0  0
 29 37  1  1  0  0  0
 31 32  1  6  0  0  0
 31 39  1  0  0  0  0
 33 34  1  0  0  0  0
 35 36  1  0  0  0  0
 35 41  1  6  0  0  0
 37 38  1  0  0  0  0
 39 40  1  1  0  0  0
 41 42  1  0  0  0  0
M  END
>  <CHROM.1>
175.68749068,53.50246335,118.11513084,170.52353090,-63.66609222,63.63442376
-50.84584026,90.67744996,175.89411965,6.96648129,3.78712544,2.52125123,-2.33612930
-1.44691034,-1.93589221

>  <Name>
ligand

>  <RI>
0

>  <Rbt.Current_Directory>
/home/itssahil/PROJECTS/Mol_Feturizer/Test_systems_manuscript/rnas/2o3w

>  <Rbt.Executable>
rbdock ($Id: //depot/dev/client3/rdock/2013.1/src/exe/rbdock.cxx#4 $)

>  <Rbt.Library>
libRbt.so (2013.1, Build901 2013/11/27)

>  <Rbt.Parameter_File>
/export/apps/rDock/src/rDock_2013.1_src/data/scripts/dock_solv.prm

>  <Rbt.Receptor>
prm/pocket_docking_6.prm

>  <SCORE>
-13.5279

>  <SCORE.INTER>
-7.09691

>  <SCORE.INTER.CONST>
1

>  <SCORE.INTER.POLAR>
0

>  <SCORE.INTER.ROT>
9

>  <SCORE.INTER.SOLV>
22.4907

>  <SCORE.INTER.VDW>
-21.8282

>  <SCORE.INTER.norm>
-0.168974

>  <SCORE.INTRA>
-6.4374

>  <SCORE.INTRA.DIHEDRAL>
-15.5741

>  <SCORE.INTRA.DIHEDRAL.0>
27.8999

>  <SCORE.INTRA.POLAR>
0

>  <SCORE.INTRA.POLAR.0>
0

>  <SCORE.INTRA.REPUL>
0

>  <SCORE.INTRA.REPUL.0>
0

>  <SCORE.INTRA.SOLV>
-4.11587

>  <SCORE.INTRA.SOLV.lig_0>
-104.479

>  <SCORE.INTRA.VDW>
3.40759

>  <SCORE.INTRA.VDW.0>
-6.17816

>  <SCORE.INTRA.norm>
-0.153271

>  <SCORE.RESTR>
0.00641361

>  <SCORE.RESTR.CAVITY>
0.00641361

>  <SCORE.RESTR.norm>
0.000152705

>  <SCORE.SYSTEM>
0

>  <SCORE.SYSTEM.CONST>
0

>  <SCORE.SYSTEM.DIHEDRAL>
0

>  <SCORE.SYSTEM.SOLV>
0

>  <SCORE.SYSTEM.norm>
0

>  <SCORE.heavy>
42

>  <SCORE.norm>
-0.322093

>  <RMSD>
5.985

$$$$
ligand
 OpenBabel02271912133D
libRbt.so/2013.1/901 2013/11/27
 42 45  0  0  0  0  0  0  0  0999 V2000
   10.1924    2.0922    6.3750 C   0  0  2  0  0  0  0  0  0  0  0  0
   10.5387    0.8603    5.7194 O   0  0  0  0  0  0  0  0  0  0  0  0
    9.7981   -3.3966    6.0745 C   0  0  2  0  0  0  0  0  0  0  0  0
    9.3560   -4.7312    6.5783 N   0  0  0  0  0  0  0  0  0  0  0  0
    7.3734    0.7209    4.4806 C   0  0  1  0  0  0  0  0  0  0  0  0
    6.9255    2.6910    2.2562 C   0  0  1  0  0  0  0  0  0  0  0  0
   10.4331    3.2381    5.3468 C   0  0  2  0  0  0  0  0  0  0  0  0
    9.8036    2.9668    4.0427 N   0  0  0  0  0  0  0  0  0  0  0  0
   10.8928   -2.7593    7.0216 C   0  0  0  0  0  0  0  0  0  0  0  0
    7.3040   -0.1341    3.1788 C   0  0  2  0  0  0  0  0  0  0  0  0
    8.5021   -0.0698    2.3668 O   0  0  0  0  0  0  0  0  0  0  0  0
    5.9381    3.5659    3.1098 C   0  0  2  0  0  0  0  0  0  0  0  0
    4.7621    3.9928    2.2939 N   0  0  0  0  0  0  0  0  0  0  0  0
   11.9302    3.4762    5.0770 C   0  0  1  0  0  0  0  0  0  0  0  0
   12.1046    4.5589    4.1614 O   0  0  0  0  0  0  0  0  0  0  0  0
   11.3341   -1.3682    6.4278 C   0  0  2  0  0  0  0  0  0  0  0  0
   12.3763   -0.7456    7.2879 N   0  0  0  0  0  0  0  0  0  0  0  0
    6.0334    0.4165    2.5292 C   0  0  2  0  0  0  0  0  0  0  0  0
    6.3271    1.5426    1.6424 O   0  0  0  0  0  0  0  0  0  0  0  0
    6.7247    4.8339    3.6931 C   0  0  1  0  0  0  0  0  0  0  0  0
    7.5960    4.3935    4.7588 O   0  0  0  0  0  0  0  0  0  0  0  0
   12.6587    3.7446    6.4136 C   0  0  2  0  0  0  0  0  0  0  0  0
   14.0279    3.9812    6.1821 O   0  0  0  0  0  0  0  0  0  0  0  0
   10.0950   -0.3955    6.3080 C   0  0  2  0  0  0  0  0  0  0  0  0
    5.1156    0.8436    3.6870 C   0  0  2  0  0  0  0  0  0  0  0  0
    6.0385    1.2309    4.7022 O   0  0  0  0  0  0  0  0  0  0  0  0
    7.5852    5.5987    2.5786 C   0  0  2  0  0  0  0  0  0  0  0  0
    6.6692    6.2297    1.6847 O   0  0  0  0  0  0  0  0  0  0  0  0
   12.4624    2.5123    7.3584 C   0  0  2  0  0  0  0  0  0  0  0  0
   11.0343    2.2814    7.5755 O   0  0  0  0  0  0  0  0  0  0  0  0
    8.9579   -0.9781    5.4403 C   0  0  2  0  0  0  0  0  0  0  0  0
    7.8484   -0.0506    5.5916 O   0  0  0  0  0  0  0  0  0  0  0  0
    4.1470   -0.2656    4.2026 C   0  0  0  0  0  0  0  0  0  0  0  0
    3.2054    0.3127    5.1014 O   0  0  0  0  0  0  0  0  0  0  0  0
    8.5033    4.5869    1.7941 C   0  0  1  0  0  0  0  0  0  0  0  0
    7.6003    3.5713    1.2254 O   0  0  0  0  0  0  0  0  0  0  0  0
   13.1399    2.6923    8.6972 C   0  0  0  0  0  0  0  0  0  0  0  0
   13.1426    1.4773    9.4065 O   0  0  0  0  0  0  0  0  0  0  0  0
    8.5576   -2.4229    5.9580 C   0  0  1  0  0  0  0  0  0  0  0  0
    7.6139   -3.0227    5.0661 O   0  0  0  0  0  0  0  0  0  0  0  0
    9.3703    5.2582    0.6424 C   0  0  0  0  0  0  0  0  0  0  0  0
    8.5993    6.0039   -0.3901 N   0  0  0  0  0  0  0  0  0  0  0  0
  1  2  1  6  0  0  0
  1  7  1  0  0  0  0
  1 30  1  0  0  0  0
  3  4  1  1  0  0  0
  3  9  1  0  0  0  0
  3 39  1  0  0  0  0
  5 10  1  0  0  0  0
  5 26  1  0  0  0  0
  5 32  1  1  0  0  0
  6 12  1  0  0  0  0
  6 36  1  0  0  0  0
  6 19  1  6  0  0  0
  7  8  1  6  0  0  0
  7 14  1  0  0  0  0
  9 16  1  0  0  0  0
 10 11  1  6  0  0  0
 10 18  1  0  0  0  0
 12 13  1  6  0  0  0
 12 20  1  0  0  0  0
 14 15  1  6  0  0  0
 14 22  1  0  0  0  0
 16 17  1  1  0  0  0
 16 24  1  0  0  0  0
 18 19  1  6  0  0  0
 18 25  1  0  0  0  0
 20 21  1  1  0  0  0
 20 27  1  0  0  0  0
 22 23  1  6  0  0  0
 22 29  1  0  0  0  0
 24  2  1  6  0  0  0
 24 31  1  0  0  0  0
 25 26  1  0  0  0  0
 25 33  1  1  0  0  0
 27 28  1  6  0  0  0
 27 35  1  0  0  0  0
 29 30  1  0  0  0  0
 29 37  1  1  0  0  0
 31 32  1  1  0  0  0
 31 39  1  0  0  0  0
 33 34  1  0  0  0  0
 35 36  1  0  0  0  0
 35 41  1  6  0  0  0
 37 38  1  0  0  0  0
 39 40  1  6  0  0  0
 41 42  1  0  0  0  0
M  END
>  <CHROM.1>
-164.38438444,-129.39311563,-61.17525378,-75.04600857,-170.06656457,-169.30903958
114.35156016,42.07006343,-56.58376941,8.86648597,1.66760074,4.61205007,-0.79218144
-0.51905907,-0.45366109

>  <Name>
ligand

>  <RI>
0

>  <Rbt.Current_Directory>
/home/itssahil/PROJECTS/Mol_Feturizer/Test_systems_manuscript/rnas/2o3w

>  <Rbt.Executable>
rbdock ($Id: //depot/dev/client3/rdock/2013.1/src/exe/rbdock.cxx#4 $)

>  <Rbt.Library>
libRbt.so (2013.1, Build901 2013/11/27)

>  <Rbt.Parameter_File>
/export/apps/rDock/src/rDock_2013.1_src/data/scripts/dock_solv.prm

>  <Rbt.Receptor>
prm/pocket_docking_3.prm

>  <SCORE>
-0.751591

>  <SCORE.INTER>
0.374655

>  <SCORE.INTER.CONST>
1

>  <SCORE.INTER.POLAR>
0

>  <SCORE.INTER.ROT>
9

>  <SCORE.INTER.SOLV>
11.0953

>  <SCORE.INTER.VDW>
-13.0487

>  <SCORE.INTER.norm>
0.00892036

>  <SCORE.INTRA>
-1.12762

>  <SCORE.INTRA.DIHEDRAL>
-9.55907

>  <SCORE.INTRA.DIHEDRAL.0>
27.8999

>  <SCORE.INTRA.POLAR>
0

>  <SCORE.INTRA.POLAR.0>
0

>  <SCORE.INTRA.REPUL>
0

>  <SCORE.INTRA.REPUL.0>
0

>  <SCORE.INTRA.SOLV>
6.09979

>  <SCORE.INTRA.SOLV.lig_0>
-104.479

>  <SCORE.INTRA.VDW>
0.602017

>  <SCORE.INTRA.VDW.0>
-6.17816

>  <SCORE.INTRA.norm>
-0.0268481

>  <SCORE.RESTR>
0.00137491

>  <SCORE.RESTR.CAVITY>
0.00137491

>  <SCORE.RESTR.norm>
3.2736e-05

>  <SCORE.SYSTEM>
0

>  <SCORE.SYSTEM.CONST>
0

>  <SCORE.SYSTEM.DIHEDRAL>
0

>  <SCORE.SYSTEM.SOLV>
0

>  <SCORE.SYSTEM.norm>
0

>  <SCORE.heavy>
42

>  <SCORE.norm>
-0.017895

>  <RMSD>
6.023

$$$$
ligand
 OpenBabel02271912133D
libRbt.so/2013.1/901 2013/11/27
 42 45  0  0  0  0  0  0  0  0999 V2000
    8.1422   -0.9235    4.9522 C   0  0  2  0  0  0  0  0  0  0  0  0
    7.0655   -1.4764    4.1761 O   0  0  0  0  0  0  0  0  0  0  0  0
    3.0148   -0.1246    3.4274 C   0  0  2  0  0  0  0  0  0  0  0  0
    1.6108    0.3489    3.6142 N   0  0  0  0  0  0  0  0  0  0  0  0
    6.6182    2.5930    4.6247 C   0  0  1  0  0  0  0  0  0  0  0  0
    8.0546    6.3451    5.8916 C   0  0  1  0  0  0  0  0  0  0  0  0
    9.4587   -1.5766    4.4340 C   0  0  2  0  0  0  0  0  0  0  0  0
    9.5807   -1.5119    2.9672 N   0  0  0  0  0  0  0  0  0  0  0  0
    3.2081   -1.5869    3.9984 C   0  0  0  0  0  0  0  0  0  0  0  0
    7.6092    3.2008    5.6637 C   0  0  2  0  0  0  0  0  0  0  0  0
    6.9640    3.7811    6.8238 O   0  0  0  0  0  0  0  0  0  0  0  0
    7.3469    7.7473    5.8471 C   0  0  2  0  0  0  0  0  0  0  0  0
    7.6811    8.4736    4.5855 N   0  0  0  0  0  0  0  0  0  0  0  0
    9.5669   -3.0622    4.8242 C   0  0  1  0  0  0  0  0  0  0  0  0
   10.8042   -3.6084    4.3640 O   0  0  0  0  0  0  0  0  0  0  0  0
    4.6977   -2.0378    3.7527 C   0  0  2  0  0  0  0  0  0  0  0  0
    4.9118   -3.4179    4.2657 N   0  0  0  0  0  0  0  0  0  0  0  0
    8.3974    4.1755    4.7874 C   0  0  2  0  0  0  0  0  0  0  0  0
    7.7787    5.5013    4.7667 O   0  0  0  0  0  0  0  0  0  0  0  0
    7.7796    8.5989    7.1334 C   0  0  1  0  0  0  0  0  0  0  0  0
    7.1127    8.0596    8.2967 O   0  0  0  0  0  0  0  0  0  0  0  0
    9.4222   -3.2047    6.3565 C   0  0  2  0  0  0  0  0  0  0  0  0
    9.5358   -4.5577    6.7318 O   0  0  0  0  0  0  0  0  0  0  0  0
    5.7037   -1.0469    4.4612 C   0  0  2  0  0  0  0  0  0  0  0  0
    8.4281    3.5529    3.3814 C   0  0  2  0  0  0  0  0  0  0  0  0
    7.1990    2.8329    3.3223 O   0  0  0  0  0  0  0  0  0  0  0  0
    9.3636    8.5987    7.3755 C   0  0  2  0  0  0  0  0  0  0  0  0
    9.9599    9.3609    6.3268 O   0  0  0  0  0  0  0  0  0  0  0  0
    8.0366   -2.6236    6.7946 C   0  0  2  0  0  0  0  0  0  0  0  0
    7.9391   -1.2225    6.3857 O   0  0  0  0  0  0  0  0  0  0  0  0
    5.5339    0.4150    3.9929 C   0  0  2  0  0  0  0  0  0  0  0  0
    6.3924    1.1982    4.8670 O   0  0  0  0  0  0  0  0  0  0  0  0
    9.6427    2.6137    3.1039 C   0  0  0  0  0  0  0  0  0  0  0  0
    9.5686    2.1318    1.7656 O   0  0  0  0  0  0  0  0  0  0  0  0
    9.9268    7.1274    7.3683 C   0  0  1  0  0  0  0  0  0  0  0  0
    9.5446    6.5493    6.0683 O   0  0  0  0  0  0  0  0  0  0  0  0
    7.8124   -2.7166    8.2862 C   0  0  0  0  0  0  0  0  0  0  0  0
    7.6918   -4.0632    8.6754 O   0  0  0  0  0  0  0  0  0  0  0  0
    4.0205    0.8663    4.1397 C   0  0  1  0  0  0  0  0  0  0  0  0
    3.8347    2.1635    3.5668 O   0  0  0  0  0  0  0  0  0  0  0  0
   11.5016    7.0358    7.5688 C   0  0  0  0  0  0  0  0  0  0  0  0
   12.0121    7.5288    8.8776 N   0  0  0  0  0  0  0  0  0  0  0  0
  1  2  1  6  0  0  0
  1  7  1  0  0  0  0
  1 30  1  0  0  0  0
  3  4  1  1  0  0  0
  3  9  1  0  0  0  0
  3 39  1  0  0  0  0
  5 10  1  0  0  0  0
  5 26  1  0  0  0  0
  5 32  1  1  0  0  0
  6 12  1  0  0  0  0
  6 36  1  0  0  0  0
  6 19  1  6  0  0  0
  7  8  1  6  0  0  0
  7 14  1  0  0  0  0
  9 16  1  0  0  0  0
 10 11  1  1  0  0  0
 10 18  1  0  0  0  0
 12 13  1  6  0  0  0
 12 20  1  0  0  0  0
 14 15  1  1  0  0  0
 14 22  1  0  0  0  0
 16 17  1  1  0  0  0
 16 24  1  0  0  0  0
 18 19  1  6  0  0  0
 18 25  1  0  0  0  0
 20 21  1  1  0  0  0
 20 27  1  0  0  0  0
 22 23  1  6  0  0  0
 22 29  1  0  0  0  0
 24  2  1  6  0  0  0
 24 31  1  0  0  0  0
 25 26  1  0  0  0  0
 25 33  1  1  0  0  0
 27 28  1  6  0  0  0
 27 35  1  0  0  0  0
 29 30  1  0  0  0  0
 29 37  1  1  0  0  0
 31 32  1  1  0  0  0
 31 39  1  0  0  0  0
 33 34  1  0  0  0  0
 35 36  1  0  0  0  0
 35 41  1  6  0  0  0
 37 38  1  0  0  0  0
 39 40  1  6  0  0  0
 41 42  1  0  0  0  0
M  END
>  <CHROM.1>
179.37950303,-165.92978770,80.52091549,-178.71045902,-178.63419629,-67.28486287
172.36327774,-178.02170916,63.60026009,7.65198954,1.94840553,5.30928823,-1.77919882
-0.43664662,0.05247996

>  <Name>
ligand

>  <RI>
0

>  <Rbt.Current_Directory>
/home/itssahil/PROJECTS/Mol_Feturizer/Test_systems_manuscript/rnas/2o3w

>  <Rbt.Executable>
rbdock ($Id: //depot/dev/client3/rdock/2013.1/src/exe/rbdock.cxx#4 $)

>  <Rbt.Library>
libRbt.so (2013.1, Build901 2013/11/27)

>  <Rbt.Parameter_File>
/export/apps/rDock/src/rDock_2013.1_src/data/scripts/dock_solv.prm

>  <Rbt.Receptor>
prm/pocket_docking_8.prm

>  <SCORE>
-10.8961

>  <SCORE.INTER>
1.85648

>  <SCORE.INTER.CONST>
1

>  <SCORE.INTER.POLAR>
0

>  <SCORE.INTER.ROT>
9

>  <SCORE.INTER.SOLV>
16.8941

>  <SCORE.INTER.VDW>
-13.9937

>  <SCORE.INTER.norm>
0.0442019

>  <SCORE.INTRA>
-12.7525

>  <SCORE.INTRA.DIHEDRAL>
-24.3946

>  <SCORE.INTRA.DIHEDRAL.0>
27.8999

>  <SCORE.INTRA.POLAR>
0

>  <SCORE.INTRA.POLAR.0>
0

>  <SCORE.INTRA.REPUL>
0

>  <SCORE.INTRA.REPUL.0>
0

>  <SCORE.INTRA.SOLV>
-5.10468

>  <SCORE.INTRA.SOLV.lig_0>
-104.479

>  <SCORE.INTRA.VDW>
1.99711

>  <SCORE.INTRA.VDW.0>
-6.17816

>  <SCORE.INTRA.norm>
-0.303632

>  <SCORE.RESTR>
0

>  <SCORE.RESTR.CAVITY>
0

>  <SCORE.RESTR.norm>
0

>  <SCORE.SYSTEM>
0

>  <SCORE.SYSTEM.CONST>
0

>  <SCORE.SYSTEM.DIHEDRAL>
0

>  <SCORE.SYSTEM.SOLV>
0

>  <SCORE.SYSTEM.norm>
0

>  <SCORE.heavy>
42

>  <SCORE.norm>
-0.25943

>  <RMSD>
6.163

$$$$
ligand
 OpenBabel02271912133D
libRbt.so/2013.1/901 2013/11/27
 42 45  0  0  0  0  0  0  0  0999 V2000
    6.3509   -2.2835    3.4843 C   0  0  2  0  0  0  0  0  0  0  0  0
    6.3671   -3.0835    2.2897 O   0  0  0  0  0  0  0  0  0  0  0  0
    5.1553   -2.1917   -1.7763 C   0  0  2  0  0  0  0  0  0  0  0  0
    4.3529   -1.7961   -2.9722 N   0  0  0  0  0  0  0  0  0  0  0  0
    6.2619    0.9545    1.4934 C   0  0  1  0  0  0  0  0  0  0  0  0
    8.2993    4.7631    2.1312 C   0  0  1  0  0  0  0  0  0  0  0  0
    7.2571   -3.0043    4.5270 C   0  0  2  0  0  0  0  0  0  0  0  0
    8.5740   -3.3667    3.9745 N   0  0  0  0  0  0  0  0  0  0  0  0
    4.5822   -3.5068   -1.1100 C   0  0  0  0  0  0  0  0  0  0  0  0
    6.0651    1.7716    2.8066 C   0  0  2  0  0  0  0  0  0  0  0  0
    4.8256    2.5203    2.8547 O   0  0  0  0  0  0  0  0  0  0  0  0
    8.7704    5.2372    3.5532 C   0  0  2  0  0  0  0  0  0  0  0  0
    7.6478    5.8792    4.3005 N   0  0  0  0  0  0  0  0  0  0  0  0
    6.6223   -4.3049    5.0529 C   0  0  1  0  0  0  0  0  0  0  0  0
    7.4674   -4.9099    6.0330 O   0  0  0  0  0  0  0  0  0  0  0  0
    5.4805   -3.8847    0.1280 C   0  0  2  0  0  0  0  0  0  0  0  0
    4.9776   -5.1283    0.7717 N   0  0  0  0  0  0  0  0  0  0  0  0
    7.3454    2.6080    2.8307 C   0  0  2  0  0  0  0  0  0  0  0  0
    7.1667    3.8852    2.1396 O   0  0  0  0  0  0  0  0  0  0  0  0
   10.0053    6.2451    3.3922 C   0  0  1  0  0  0  0  0  0  0  0  0
   11.1795    5.4896    3.0189 O   0  0  0  0  0  0  0  0  0  0  0  0
    5.2206   -3.9987    5.6279 C   0  0  2  0  0  0  0  0  0  0  0  0
    4.6326   -5.1767    6.1289 O   0  0  0  0  0  0  0  0  0  0  0  0
    5.4960   -2.7100    1.1842 C   0  0  2  0  0  0  0  0  0  0  0  0
    8.4250    1.7513    2.1481 C   0  0  2  0  0  0  0  0  0  0  0  0
    7.6786    0.9856    1.2052 O   0  0  0  0  0  0  0  0  0  0  0  0
    9.7361    7.3899    2.3038 C   0  0  2  0  0  0  0  0  0  0  0  0
    8.7366    8.2605    2.8323 O   0  0  0  0  0  0  0  0  0  0  0  0
    4.3323   -3.3730    4.5014 C   0  0  2  0  0  0  0  0  0  0  0  0
    4.9678   -2.1582    3.9914 O   0  0  0  0  0  0  0  0  0  0  0  0
    5.9928   -1.3748    0.5877 C   0  0  2  0  0  0  0  0  0  0  0  0
    5.7671   -0.3842    1.6281 O   0  0  0  0  0  0  0  0  0  0  0  0
    9.2346    0.8253    3.1079 C   0  0  0  0  0  0  0  0  0  0  0  0
   10.2516    0.1557    2.3688 O   0  0  0  0  0  0  0  0  0  0  0  0
    9.2477    6.7606    0.9445 C   0  0  1  0  0  0  0  0  0  0  0  0
    8.0413    5.9786    1.2658 O   0  0  0  0  0  0  0  0  0  0  0  0
    2.9393   -3.0347    4.9799 C   0  0  0  0  0  0  0  0  0  0  0  0
    2.1826   -2.4925    3.9251 O   0  0  0  0  0  0  0  0  0  0  0  0
    5.1674   -1.0163   -0.7184 C   0  0  1  0  0  0  0  0  0  0  0  0
    5.7256    0.1371   -1.3538 O   0  0  0  0  0  0  0  0  0  0  0  0
    8.9238    7.8315   -0.1855 C   0  0  0  0  0  0  0  0  0  0  0  0
    8.3608    7.2814   -1.4492 N   0  0  0  0  0  0  0  0  0  0  0  0
  1  2  1  6  0  0  0
  1  7  1  0  0  0  0
  1 30  1  0  0  0  0
  3  4  1  6  0  0  0
  3  9  1  0  0  0  0
  3 39  1  0  0  0  0
  5 10  1  0  0  0  0
  5 26  1  0  0  0  0
  5 32  1  1  0  0  0
  6 12  1  0  0  0  0
  6 36  1  0  0  0  0
  6 19  1  1  0  0  0
  7  8  1  6  0  0  0
  7 14  1  0  0  0  0
  9 16  1  0  0  0  0
 10 11  1  6  0  0  0
 10 18  1  0  0  0  0
 12 13  1  6  0  0  0
 12 20  1  0  0  0  0
 14 15  1  1  0  0  0
 14 22  1  0  0  0  0
 16 17  1  1  0  0  0
 16 24  1  0  0  0  0
 18 19  1  6  0  0  0
 18 25  1  0  0  0  0
 20 21  1  6  0  0  0
 20 27  1  0  0  0  0
 22 23  1  6  0  0  0
 22 29  1  0  0  0  0
 24  2  1  1  0  0  0
 24 31  1  0  0  0  0
 25 26  1  0  0  0  0
 25 33  1  1  0  0  0
 27 28  1  1  0  0  0
 27 35  1  0  0  0  0
 29 30  1  0  0  0  0
 29 37  1  1  0  0  0
 31 32  1  1  0  0  0
 31 39  1  0  0  0  0
 33 34  1  0  0  0  0
 35 36  1  0  0  0  0
 35 41  1  6  0  0  0
 37 38  1  0  0  0  0
 39 40  1  6  0  0  0
 41 42  1  0  0  0  0
M  END
>  <CHROM.1>
174.17923759,-168.76973308,178.53209900,-61.89411255,-176.29535179,-179.28608202
172.20515351,-172.36728893,-175.52102127,6.80091095,0.56697862,2.25735574
-2.44034240,-1.10044558,-0.93423483

>  <Name>
ligand

>  <RI>
0

>  <Rbt.Current_Directory>
/home/itssahil/PROJECTS/Mol_Feturizer/Test_systems_manuscript/rnas/2o3w

>  <Rbt.Executable>
rbdock ($Id: //depot/dev/client3/rdock/2013.1/src/exe/rbdock.cxx#4 $)

>  <Rbt.Library>
libRbt.so (2013.1, Build901 2013/11/27)

>  <Rbt.Parameter_File>
/export/apps/rDock/src/rDock_2013.1_src/data/scripts/dock_solv.prm

>  <Rbt.Receptor>
prm/pocket_docking_8.prm

>  <SCORE>
-11.0484

>  <SCORE.INTER>
2.75306

>  <SCORE.INTER.CONST>
1

>  <SCORE.INTER.POLAR>
0

>  <SCORE.INTER.ROT>
9

>  <SCORE.INTER.SOLV>
12.1077

>  <SCORE.INTER.VDW>
-11.8005

>  <SCORE.INTER.norm>
0.0655489

>  <SCORE.INTRA>
-13.8015

>  <SCORE.INTRA.DIHEDRAL>
-26.2575

>  <SCORE.INTRA.DIHEDRAL.0>
27.8999

>  <SCORE.INTRA.POLAR>
0

>  <SCORE.INTRA.POLAR.0>
0

>  <SCORE.INTRA.REPUL>
0

>  <SCORE.INTRA.REPUL.0>
0

>  <SCORE.INTRA.SOLV>
-5.92955

>  <SCORE.INTRA.SOLV.lig_0>
-104.479

>  <SCORE.INTRA.VDW>
2.29205

>  <SCORE.INTRA.VDW.0>
-6.17816

>  <SCORE.INTRA.norm>
-0.328607

>  <SCORE.RESTR>
0

>  <SCORE.RESTR.CAVITY>
0

>  <SCORE.RESTR.norm>
0

>  <SCORE.SYSTEM>
0

>  <SCORE.SYSTEM.CONST>
0

>  <SCORE.SYSTEM.DIHEDRAL>
0

>  <SCORE.SYSTEM.SOLV>
0

>  <SCORE.SYSTEM.norm>
0

>  <SCORE.heavy>
42

>  <SCORE.norm>
-0.263058

>  <RMSD>
6.177

$$$$
ligand
 OpenBabel02271912133D
libRbt.so/2013.1/901 2013/11/27
 42 45  0  0  0  0  0  0  0  0999 V2000
    9.1593    2.4558    2.8221 C   0  0  2  0  0  0  0  0  0  0  0  0
    7.8660    2.4237    3.4493 O   0  0  0  0  0  0  0  0  0  0  0  0
    5.4131    1.3476    0.0403 C   0  0  2  0  0  0  0  0  0  0  0  0
    4.2966    0.8375   -0.8104 N   0  0  0  0  0  0  0  0  0  0  0  0
    4.6616    5.0075    2.7472 C   0  0  1  0  0  0  0  0  0  0  0  0
    2.9915    7.2269    1.5473 C   0  0  1  0  0  0  0  0  0  0  0  0
   10.1318    3.1535    3.8200 C   0  0  2  0  0  0  0  0  0  0  0  0
   10.0527    2.5833    5.1762 N   0  0  0  0  0  0  0  0  0  0  0  0
    6.0968    0.1757    0.8533 C   0  0  0  0  0  0  0  0  0  0  0  0
    3.4380    5.1479    3.7031 C   0  0  2  0  0  0  0  0  0  0  0  0
    2.2217    4.5459    3.1958 O   0  0  0  0  0  0  0  0  0  0  0  0
    3.9457    8.3904    1.0951 C   0  0  2  0  0  0  0  0  0  0  0  0
    3.3099    9.7221    1.3261 N   0  0  0  0  0  0  0  0  0  0  0  0
    9.8487    4.6611    3.9542 C   0  0  1  0  0  0  0  0  0  0  0  0
   10.7866    5.2658    4.8461 O   0  0  0  0  0  0  0  0  0  0  0  0
    7.2769    0.7706    1.7112 C   0  0  2  0  0  0  0  0  0  0  0  0
    7.9534   -0.3090    2.4796 N   0  0  0  0  0  0  0  0  0  0  0  0
    3.3921    6.6631    3.9064 C   0  0  2  0  0  0  0  0  0  0  0  0
    2.5457    7.3146    2.9064 O   0  0  0  0  0  0  0  0  0  0  0  0
    4.3244    8.1936   -0.4492 C   0  0  1  0  0  0  0  0  0  0  0  0
    5.2565    7.0952   -0.5653 O   0  0  0  0  0  0  0  0  0  0  0  0
    9.8927    5.3204    2.5569 C   0  0  2  0  0  0  0  0  0  0  0  0
    9.6520    6.7042    2.6643 O   0  0  0  0  0  0  0  0  0  0  0  0
    6.7405    1.8737    2.7069 C   0  0  2  0  0  0  0  0  0  0  0  0
    4.8478    7.1491    3.8063 C   0  0  2  0  0  0  0  0  0  0  0  0
    5.4346    6.2204    2.8976 O   0  0  0  0  0  0  0  0  0  0  0  0
    3.0454    7.9111   -1.3721 C   0  0  2  0  0  0  0  0  0  0  0  0
    2.2795    9.1139   -1.4271 O   0  0  0  0  0  0  0  0  0  0  0  0
    8.8220    4.6424    1.6385 C   0  0  2  0  0  0  0  0  0  0  0  0
    9.0874    3.2066    1.5506 O   0  0  0  0  0  0  0  0  0  0  0  0
    6.0084    3.0265    1.9855 C   0  0  2  0  0  0  0  0  0  0  0  0
    5.4312    3.8358    3.0468 O   0  0  0  0  0  0  0  0  0  0  0  0
    5.6260    7.1794    5.1582 C   0  0  0  0  0  0  0  0  0  0  0  0
    6.9325    7.7021    4.9374 O   0  0  0  0  0  0  0  0  0  0  0  0
    2.1778    6.7390   -0.7760 C   0  0  1  0  0  0  0  0  0  0  0  0
    1.8188    7.1506    0.5922 O   0  0  0  0  0  0  0  0  0  0  0  0
    8.7999    5.2241    0.2439 C   0  0  0  0  0  0  0  0  0  0  0  0
   10.0385    5.0131   -0.3891 O   0  0  0  0  0  0  0  0  0  0  0  0
    4.8744    2.4493    1.0386 C   0  0  1  0  0  0  0  0  0  0  0  0
    4.2998    3.5016    0.2589 O   0  0  0  0  0  0  0  0  0  0  0  0
    0.8661    6.4133   -1.6139 C   0  0  0  0  0  0  0  0  0  0  0  0
   -0.1119    7.5292   -1.7355 N   0  0  0  0  0  0  0  0  0  0  0  0
  1  2  1  1  0  0  0
  1  7  1  0  0  0  0
  1 30  1  0  0  0  0
  3  4  1  1  0  0  0
  3  9  1  0  0  0  0
  3 39  1  0  0  0  0
  5 10  1  0  0  0  0
  5 26  1  0  0  0  0
  5 32  1  1  0  0  0
  6 12  1  0  0  0  0
  6 36  1  0  0  0  0
  6 19  1  1  0  0  0
  7  8  1  1  0  0  0
  7 14  1  0  0  0  0
  9 16  1  0  0  0  0
 10 11  1  6  0  0  0
 10 18  1  0  0  0  0
 12 13  1  6  0  0  0
 12 20  1  0  0  0  0
 14 15  1  1  0  0  0
 14 22  1  0  0  0  0
 16 17  1  1  0  0  0
 16 24  1  0  0  0  0
 18 19  1  6  0  0  0
 18 25  1  0  0  0  0
 20 21  1  1  0  0  0
 20 27  1  0  0  0  0
 22 23  1  1  0  0  0
 22 29  1  0  0  0  0
 24  2  1  6  0  0  0
 24 31  1  0  0  0  0
 25 26  1  0  0  0  0
 25 33  1  1  0  0  0
 27 28  1  1  0  0  0
 27 35  1  0  0  0  0
 29 30  1  0  0  0  0
 29 37  1  6  0  0  0
 31 32  1  1  0  0  0
 31 39  1  0  0  0  0
 33 34  1  0  0  0  0
 35 36  1  0  0  0  0
 35 41  1  6  0  0  0
 37 38  1  0  0  0  0
 39 40  1  6  0  0  0
 41 42  1  0  0  0  0
M  END
>  <CHROM.1>
177.27354190,29.79104602,-64.58790898,-89.39870228,-177.38800035,62.05850232
-179.68967821,141.06145264,-60.76156330,5.75834138,5.04860249,1.80356908
0.41673423,0.53429120,-2.83516891

>  <Name>
ligand

>  <RI>
0

>  <Rbt.Current_Directory>
/home/itssahil/PROJECTS/Mol_Feturizer/Test_systems_manuscript/rnas/2o3w

>  <Rbt.Executable>
rbdock ($Id: //depot/dev/client3/rdock/2013.1/src/exe/rbdock.cxx#4 $)

>  <Rbt.Library>
libRbt.so (2013.1, Build901 2013/11/27)

>  <Rbt.Parameter_File>
/export/apps/rDock/src/rDock_2013.1_src/data/scripts/dock_solv.prm

>  <Rbt.Receptor>
prm/pocket_docking_5.prm

>  <SCORE>
-9.66158

>  <SCORE.INTER>
-3.4925

>  <SCORE.INTER.CONST>
1

>  <SCORE.INTER.POLAR>
0

>  <SCORE.INTER.ROT>
9

>  <SCORE.INTER.SOLV>
12.2281

>  <SCORE.INTER.VDW>
-16.0044

>  <SCORE.INTER.norm>
-0.0831547

>  <SCORE.INTRA>
-6.16908

>  <SCORE.INTRA.DIHEDRAL>
-15.3147

>  <SCORE.INTRA.DIHEDRAL.0>
27.8999

>  <SCORE.INTRA.POLAR>
0

>  <SCORE.INTRA.POLAR.0>
0

>  <SCORE.INTRA.REPUL>
0.0298874

>  <SCORE.INTRA.REPUL.0>
0

>  <SCORE.INTRA.SOLV>
-1.60145

>  <SCORE.INTRA.SOLV.lig_0>
-104.479

>  <SCORE.INTRA.VDW>
2.13956

>  <SCORE.INTRA.VDW.0>
-6.17816

>  <SCORE.INTRA.norm>
-0.146883

>  <SCORE.RESTR>
0

>  <SCORE.RESTR.CAVITY>
0

>  <SCORE.RESTR.norm>
0

>  <SCORE.SYSTEM>
0

>  <SCORE.SYSTEM.CONST>
0

>  <SCORE.SYSTEM.DIHEDRAL>
0

>  <SCORE.SYSTEM.SOLV>
0

>  <SCORE.SYSTEM.norm>
0

>  <SCORE.heavy>
42

>  <SCORE.norm>
-0.230038

>  <RMSD>
6.202

$$$$
ligand
 OpenBabel02271912133D
libRbt.so/2013.1/901 2013/11/27
 42 45  0  0  0  0  0  0  0  0999 V2000
   10.6825    5.1364    6.6136 C   0  0  2  0  0  0  0  0  0  0  0  0
    9.3114    5.1170    6.1814 O   0  0  0  0  0  0  0  0  0  0  0  0
    9.2714    1.0815    4.5975 C   0  0  2  0  0  0  0  0  0  0  0  0
    8.8505   -0.1832    3.9239 N   0  0  0  0  0  0  0  0  0  0  0  0
    8.0671    4.7764    2.5865 C   0  0  1  0  0  0  0  0  0  0  0  0
    4.9413    6.8411    0.7827 C   0  0  1  0  0  0  0  0  0  0  0  0
   10.9191    6.5075    7.3154 C   0  0  2  0  0  0  0  0  0  0  0  0
    9.8886    6.8098    8.3240 N   0  0  0  0  0  0  0  0  0  0  0  0
    8.3744    1.3827    5.8650 C   0  0  0  0  0  0  0  0  0  0  0  0
    7.7481    6.1907    2.0132 C   0  0  2  0  0  0  0  0  0  0  0  0
    6.8863    6.9895    2.8607 O   0  0  0  0  0  0  0  0  0  0  0  0
    3.3912    6.5981    0.8672 C   0  0  2  0  0  0  0  0  0  0  0  0
    2.9164    5.7767   -0.2864 N   0  0  0  0  0  0  0  0  0  0  0  0
   10.9235    7.6810    6.3185 C   0  0  1  0  0  0  0  0  0  0  0  0
   11.1827    8.9103    6.9987 O   0  0  0  0  0  0  0  0  0  0  0  0
    8.8795    2.7121    6.5432 C   0  0  2  0  0  0  0  0  0  0  0  0
    8.0655    3.0189    7.7502 N   0  0  0  0  0  0  0  0  0  0  0  0
    7.1789    5.8329    0.6395 C   0  0  2  0  0  0  0  0  0  0  0  0
    5.7284    5.6472    0.6898 O   0  0  0  0  0  0  0  0  0  0  0  0
    2.6367    8.0106    0.9171 C   0  0  1  0  0  0  0  0  0  0  0  0
    2.8323    8.5989    2.2226 O   0  0  0  0  0  0  0  0  0  0  0  0
   11.9716    7.4153    5.2140 C   0  0  2  0  0  0  0  0  0  0  0  0
   12.0000    8.4888    4.3022 O   0  0  0  0  0  0  0  0  0  0  0  0
    8.7992    3.9204    5.5286 C   0  0  2  0  0  0  0  0  0  0  0  0
    7.8915    4.5399    0.2083 C   0  0  2  0  0  0  0  0  0  0  0  0
    8.1512    3.8875    1.4490 O   0  0  0  0  0  0  0  0  0  0  0  0
    3.1460    9.0281   -0.2111 C   0  0  2  0  0  0  0  0  0  0  0  0
    2.7085    8.5262   -1.4733 O   0  0  0  0  0  0  0  0  0  0  0  0
   11.6152    6.0781    4.4830 C   0  0  2  0  0  0  0  0  0  0  0  0
   11.5826    4.9819    5.4510 O   0  0  0  0  0  0  0  0  0  0  0  0
    9.6087    3.6725    4.2368 C   0  0  2  0  0  0  0  0  0  0  0  0
    9.2752    4.7822    3.3582 O   0  0  0  0  0  0  0  0  0  0  0  0
    9.2087    4.7527   -0.6004 C   0  0  0  0  0  0  0  0  0  0  0  0
    9.8371    3.4928   -0.8160 O   0  0  0  0  0  0  0  0  0  0  0  0
    4.7169    9.1453   -0.1857 C   0  0  1  0  0  0  0  0  0  0  0  0
    5.2323    7.7777   -0.3710 O   0  0  0  0  0  0  0  0  0  0  0  0
   12.5965    5.7356    3.3860 C   0  0  0  0  0  0  0  0  0  0  0  0
   12.3272    6.5024    2.2376 O   0  0  0  0  0  0  0  0  0  0  0  0
    9.1876    2.2907    3.5819 C   0  0  1  0  0  0  0  0  0  0  0  0
   10.0401    1.9898    2.4736 O   0  0  0  0  0  0  0  0  0  0  0  0
    5.3122   10.1125   -1.2987 C   0  0  0  0  0  0  0  0  0  0  0  0
    4.8552   11.5278   -1.2307 N   0  0  0  0  0  0  0  0  0  0  0  0
  1  2  1  6  0  0  0
  1  7  1  0  0  0  0
  1 30  1  0  0  0  0
  3  4  1  6  0  0  0
  3  9  1  0  0  0  0
  3 39  1  0  0  0  0
  5 10  1  0  0  0  0
  5 26  1  0  0  0  0
  5 32  1  6  0  0  0
  6 12  1  0  0  0  0
  6 36  1  0  0  0  0
  6 19  1  6  0  0  0
  7  8  1  1  0  0  0
  7 14  1  0  0  0  0
  9 16  1  0  0  0  0
 10 11  1  1  0  0  0
 10 18  1  0  0  0  0
 12 13  1  6  0  0  0
 12 20  1  0  0  0  0
 14 15  1  1  0  0  0
 14 22  1  0  0  0  0
 16 17  1  1  0  0  0
 16 24  1  0  0  0  0
 18 19  1  1  0  0  0
 18 25  1  0  0  0  0
 20 21  1  1  0  0  0
 20 27  1  0  0  0  0
 22 23  1  6  0  0  0
 22 29  1  0  0  0  0
 24  2  1  1  0  0  0
 24 31  1  0  0  0  0
 25 26  1  0  0  0  0
 25 33  1  1  0  0  0
 27 28  1  6  0  0  0
 27 35  1  0  0  0  0
 29 30  1  0  0  0  0
 29 37  1  6  0  0  0
 31 32  1  6  0  0  0
 31 39  1  0  0  0  0
 33 34  1  0  0  0  0
 35 36  1  0  0  0  0
 35 41  1  6  0  0  0
 37 38  1  0  0  0  0
 39 40  1  6  0  0  0
 41 42  1  0  0  0  0
M  END
>  <CHROM.1>
-177.87735867,62.23605570,75.36384605,-178.68602917,174.03104973,-78.45189669
-81.22087281,165.64496796,60.13707268,8.08203348,5.78395103,2.91019463,-0.34810739
-0.76151205,0.06526184

>  <Name>
ligand

>  <RI>
0

>  <Rbt.Current_Directory>
/home/itssahil/PROJECTS/Mol_Feturizer/Test_systems_manuscript/rnas/2o3w

>  <Rbt.Executable>
rbdock ($Id: //depot/dev/client3/rdock/2013.1/src/exe/rbdock.cxx#4 $)

>  <Rbt.Library>
libRbt.so (2013.1, Build901 2013/11/27)

>  <Rbt.Parameter_File>
/export/apps/rDock/src/rDock_2013.1_src/data/scripts/dock_solv.prm

>  <Rbt.Receptor>
prm/pocket_docking_8.prm

>  <SCORE>
-12.1993

>  <SCORE.INTER>
-1.87235

>  <SCORE.INTER.CONST>
1

>  <SCORE.INTER.POLAR>
0

>  <SCORE.INTER.ROT>
9

>  <SCORE.INTER.SOLV>
13.1956

>  <SCORE.INTER.VDW>
-15.2468

>  <SCORE.INTER.norm>
-0.0445798

>  <SCORE.INTRA>
-10.3269

>  <SCORE.INTRA.DIHEDRAL>
-22.3649

>  <SCORE.INTRA.DIHEDRAL.0>
27.8999

>  <SCORE.INTRA.POLAR>
0

>  <SCORE.INTRA.POLAR.0>
0

>  <SCORE.INTRA.REPUL>
0

>  <SCORE.INTRA.REPUL.0>
0

>  <SCORE.INTRA.SOLV>
-4.45348

>  <SCORE.INTRA.SOLV.lig_0>
-104.479

>  <SCORE.INTRA.VDW>
3.08226

>  <SCORE.INTRA.VDW.0>
-6.17816

>  <SCORE.INTRA.norm>
-0.245879

>  <SCORE.RESTR>
0

>  <SCORE.RESTR.CAVITY>
0

>  <SCORE.RESTR.norm>
0

>  <SCORE.SYSTEM>
0

>  <SCORE.SYSTEM.CONST>
0

>  <SCORE.SYSTEM.DIHEDRAL>
0

>  <SCORE.SYSTEM.SOLV>
0

>  <SCORE.SYSTEM.norm>
0

>  <SCORE.heavy>
42

>  <SCORE.norm>
-0.290459

>  <RMSD>
6.217

$$$$
ligand
 OpenBabel02271912133D
libRbt.so/2013.1/901 2013/11/27
 42 45  0  0  0  0  0  0  0  0999 V2000
    9.0606    4.8341    2.8599 C   0  0  2  0  0  0  0  0  0  0  0  0
    9.4295    3.5301    2.3793 O   0  0  0  0  0  0  0  0  0  0  0  0
    7.1600   -0.1166    1.7901 C   0  0  2  0  0  0  0  0  0  0  0  0
    6.2731   -1.2973    2.0128 N   0  0  0  0  0  0  0  0  0  0  0  0
    5.3053    4.0941    1.9464 C   0  0  1  0  0  0  0  0  0  0  0  0
    1.9891    6.2653    0.2334 C   0  0  1  0  0  0  0  0  0  0  0  0
   10.1890    5.8160    2.4231 C   0  0  2  0  0  0  0  0  0  0  0  0
   10.5217    5.6923    0.9932 N   0  0  0  0  0  0  0  0  0  0  0  0
    8.4580   -0.1958    2.6906 C   0  0  0  0  0  0  0  0  0  0  0  0
    4.8482    5.4407    2.5856 C   0  0  2  0  0  0  0  0  0  0  0  0
    4.0469    5.2829    3.7824 O   0  0  0  0  0  0  0  0  0  0  0  0
    2.0426    7.8248    0.0496 C   0  0  2  0  0  0  0  0  0  0  0  0
    1.5843    8.5239    1.2874 N   0  0  0  0  0  0  0  0  0  0  0  0
   11.4960    5.5892    3.2050 C   0  0  1  0  0  0  0  0  0  0  0  0
   12.4877    6.5348    2.8011 O   0  0  0  0  0  0  0  0  0  0  0  0
    9.3611    1.0611    2.3956 C   0  0  2  0  0  0  0  0  0  0  0  0
   10.6008    1.0117    3.2169 N   0  0  0  0  0  0  0  0  0  0  0  0
    4.1463    6.1082    1.4019 C   0  0  2  0  0  0  0  0  0  0  0  0
    2.7230    5.7716    1.3609 O   0  0  0  0  0  0  0  0  0  0  0  0
    1.1455    8.2397   -1.2114 C   0  0  1  0  0  0  0  0  0  0  0  0
    1.8362    7.8578   -2.4221 O   0  0  0  0  0  0  0  0  0  0  0  0
   11.2122    5.6821    4.7216 C   0  0  2  0  0  0  0  0  0  0  0  0
   12.4022    5.4933    5.4514 O   0  0  0  0  0  0  0  0  0  0  0  0
    8.5747    2.3965    2.7026 C   0  0  2  0  0  0  0  0  0  0  0  0
    4.8733    5.6101    0.1415 C   0  0  2  0  0  0  0  0  0  0  0  0
    5.3068    4.3045    0.5157 O   0  0  0  0  0  0  0  0  0  0  0  0
   -0.3084    7.5665   -1.1887 C   0  0  2  0  0  0  0  0  0  0  0  0
   -1.0426    8.1623   -0.1199 O   0  0  0  0  0  0  0  0  0  0  0  0
   10.1485    4.6013    5.1091 C   0  0  2  0  0  0  0  0  0  0  0  0
    8.9272    4.8125    4.3321 O   0  0  0  0  0  0  0  0  0  0  0  0
    7.2620    2.5169    1.8979 C   0  0  2  0  0  0  0  0  0  0  0  0
    6.5913    3.6903    2.4345 O   0  0  0  0  0  0  0  0  0  0  0  0
    6.0767    6.4915   -0.3158 C   0  0  0  0  0  0  0  0  0  0  0  0
    5.6079    7.7976   -0.6373 O   0  0  0  0  0  0  0  0  0  0  0  0
   -0.1969    6.0099   -0.9724 C   0  0  1  0  0  0  0  0  0  0  0  0
    0.5416    5.8239    0.2887 O   0  0  0  0  0  0  0  0  0  0  0  0
    9.8047    4.6251    6.5805 C   0  0  0  0  0  0  0  0  0  0  0  0
    8.9502    3.5529    6.8961 O   0  0  0  0  0  0  0  0  0  0  0  0
    6.3728    1.2192    2.1008 C   0  0  1  0  0  0  0  0  0  0  0  0
    5.2314    1.2637    1.2400 O   0  0  0  0  0  0  0  0  0  0  0  0
   -1.5993    5.2635   -0.9031 C   0  0  0  0  0  0  0  0  0  0  0  0
   -1.5328    3.7860   -0.7329 N   0  0  0  0  0  0  0  0  0  0  0  0
  1  2  1  1  0  0  0
  1  7  1  0  0  0  0
  1 30  1  0  0  0  0
  3  4  1  1  0  0  0
  3  9  1  0  0  0  0
  3 39  1  0  0  0  0
  5 10  1  0  0  0  0
  5 26  1  0  0  0  0
  5 32  1  1  0  0  0
  6 12  1  0  0  0  0
  6 36  1  0  0  0  0
  6 19  1  1  0  0  0
  7  8  1  6  0  0  0
  7 14  1  0  0  0  0
  9 16  1  0  0  0  0
 10 11  1  1  0  0  0
 10 18  1  0  0  0  0
 12 13  1  1  0  0  0
 12 20  1  0  0  0  0
 14 15  1  6  0  0  0
 14 22  1  0  0  0  0
 16 17  1  1  0  0  0
 16 24  1  0  0  0  0
 18 19  1  6  0  0  0
 18 25  1  0  0  0  0
 20 21  1  6  0  0  0
 20 27  1  0  0  0  0
 22 23  1  1  0  0  0
 22 29  1  0  0  0  0
 24  2  1  6  0  0  0
 24 31  1  0  0  0  0
 25 26  1  0  0  0  0
 25 33  1  1  0  0  0
 27 28  1  1  0  0  0
 27 35  1  0  0  0  0
 29 30  1  0  0  0  0
 29 37  1  1  0  0  0
 31 32  1  1  0  0  0
 31 39  1  0  0  0  0
 33 34  1  0  0  0  0
 35 36  1  0  0  0  0
 35 41  1  1  0  0  0
 37 38  1  0  0  0  0
 39 40  1  6  0  0  0
 41 42  1  0  0  0  0
M  END
>  <CHROM.1>
177.17842416,-165.68021895,-175.55201579,-57.21065574,-61.60875287,-174.15142092
-178.22237154,-175.18337976,178.55641499,5.89970761,4.75113488,1.80723420
-0.30683143,-0.39917808,-0.07826800

>  <Name>
ligand

>  <RI>
0

>  <Rbt.Current_Directory>
/home/itssahil/PROJECTS/Mol_Feturizer/Test_systems_manuscript/rnas/2o3w

>  <Rbt.Executable>
rbdock ($Id: //depot/dev/client3/rdock/2013.1/src/exe/rbdock.cxx#4 $)

>  <Rbt.Library>
libRbt.so (2013.1, Build901 2013/11/27)

>  <Rbt.Parameter_File>
/export/apps/rDock/src/rDock_2013.1_src/data/scripts/dock_solv.prm

>  <Rbt.Receptor>
prm/pocket_docking_7.prm

>  <SCORE>
-13.3388

>  <SCORE.INTER>
0.290161

>  <SCORE.INTER.CONST>
1

>  <SCORE.INTER.POLAR>
0

>  <SCORE.INTER.ROT>
9

>  <SCORE.INTER.SOLV>
17.2768

>  <SCORE.INTER.VDW>
-15.1655

>  <SCORE.INTER.norm>
0.0069086

>  <SCORE.INTRA>
-13.629

>  <SCORE.INTRA.DIHEDRAL>
-26.346

>  <SCORE.INTRA.DIHEDRAL.0>
27.8999

>  <SCORE.INTRA.POLAR>
0

>  <SCORE.INTRA.POLAR.0>
0

>  <SCORE.INTRA.REPUL>
0

>  <SCORE.INTRA.REPUL.0>
0

>  <SCORE.INTRA.SOLV>
-5.90043

>  <SCORE.INTRA.SOLV.lig_0>
-104.479

>  <SCORE.INTRA.VDW>
2.49427

>  <SCORE.INTRA.VDW.0>
-6.17816

>  <SCORE.INTRA.norm>
-0.324499

>  <SCORE.RESTR>
0

>  <SCORE.RESTR.CAVITY>
0

>  <SCORE.RESTR.norm>
0

>  <SCORE.SYSTEM>
0

>  <SCORE.SYSTEM.CONST>
0

>  <SCORE.SYSTEM.DIHEDRAL>
0

>  <SCORE.SYSTEM.SOLV>
0

>  <SCORE.SYSTEM.norm>
0

>  <SCORE.heavy>
42

>  <SCORE.norm>
-0.31759

>  <RMSD>
6.283

$$$$
ligand
 OpenBabel02271912133D
libRbt.so/2013.1/901 2013/11/27
 42 45  0  0  0  0  0  0  0  0999 V2000
    6.2142    3.0045    3.3500 C   0  0  2  0  0  0  0  0  0  0  0  0
    5.5341    1.7378    3.3623 O   0  0  0  0  0  0  0  0  0  0  0  0
    3.9916   -0.7701    0.1800 C   0  0  2  0  0  0  0  0  0  0  0  0
    3.2511   -1.2560   -1.0225 N   0  0  0  0  0  0  0  0  0  0  0  0
    5.5657    3.3721    0.1057 C   0  0  1  0  0  0  0  0  0  0  0  0
    4.9690    7.5419   -1.2405 C   0  0  1  0  0  0  0  0  0  0  0  0
    7.0477    3.0863    4.6641 C   0  0  2  0  0  0  0  0  0  0  0  0
    7.8664    1.8821    4.8883 N   0  0  0  0  0  0  0  0  0  0  0  0
    2.9970   -0.3576    1.3386 C   0  0  0  0  0  0  0  0  0  0  0  0
    6.3796    4.7007    0.0493 C   0  0  2  0  0  0  0  0  0  0  0  0
    6.1858    5.5598    1.1996 O   0  0  0  0  0  0  0  0  0  0  0  0
    5.5991    8.2020    0.0386 C   0  0  2  0  0  0  0  0  0  0  0  0
    4.7691    7.9205    1.2480 N   0  0  0  0  0  0  0  0  0  0  0  0
    6.1591    3.2582    5.9098 C   0  0  1  0  0  0  0  0  0  0  0  0
    6.9650    3.3683    7.0843 O   0  0  0  0  0  0  0  0  0  0  0  0
    3.8349    0.1233    2.5833 C   0  0  2  0  0  0  0  0  0  0  0  0
    2.9293    0.5063    3.7000 N   0  0  0  0  0  0  0  0  0  0  0  0
    5.9185    5.2748   -1.2913 C   0  0  2  0  0  0  0  0  0  0  0  0
    4.7424    6.1309   -1.1340 O   0  0  0  0  0  0  0  0  0  0  0  0
    5.7512    9.7788   -0.2007 C   0  0  1  0  0  0  0  0  0  0  0  0
    6.8427   10.0088   -1.1198 O   0  0  0  0  0  0  0  0  0  0  0  0
    5.2523    4.4969    5.7294 C   0  0  2  0  0  0  0  0  0  0  0  0
    4.4441    4.6779    6.8690 O   0  0  0  0  0  0  0  0  0  0  0  0
    4.7499    1.3521    2.1976 C   0  0  2  0  0  0  0  0  0  0  0  0
    5.6104    4.0640   -2.1882 C   0  0  2  0  0  0  0  0  0  0  0  0
    5.1795    3.0752   -1.2559 O   0  0  0  0  0  0  0  0  0  0  0  0
    4.4157   10.4525   -0.7754 C   0  0  2  0  0  0  0  0  0  0  0  0
    3.4375   10.4242    0.2632 O   0  0  0  0  0  0  0  0  0  0  0  0
    4.3704    4.3021    4.4512 C   0  0  2  0  0  0  0  0  0  0  0  0
    5.2312    4.1068    3.2847 O   0  0  0  0  0  0  0  0  0  0  0  0
    5.7119    1.0394    1.0306 C   0  0  2  0  0  0  0  0  0  0  0  0
    6.3302    2.3117    0.6939 O   0  0  0  0  0  0  0  0  0  0  0  0
    6.8150    3.5492   -3.0356 C   0  0  0  0  0  0  0  0  0  0  0  0
    7.3967    4.6427   -3.7390 O   0  0  0  0  0  0  0  0  0  0  0  0
    3.8946    9.6654   -2.0368 C   0  0  1  0  0  0  0  0  0  0  0  0
    3.6922    8.2743   -1.5962 O   0  0  0  0  0  0  0  0  0  0  0  0
    3.4529    5.4750    4.1936 C   0  0  0  0  0  0  0  0  0  0  0  0
    2.6084    5.1995    3.1026 O   0  0  0  0  0  0  0  0  0  0  0  0
    4.9046    0.4618   -0.2065 C   0  0  1  0  0  0  0  0  0  0  0  0
    5.8085    0.0317   -1.2282 O   0  0  0  0  0  0  0  0  0  0  0  0
    2.5495   10.2478   -2.6534 C   0  0  0  0  0  0  0  0  0  0  0  0
    2.6541   11.6055   -3.2552 N   0  0  0  0  0  0  0  0  0  0  0  0
  1  2  1  1  0  0  0
  1  7  1  0  0  0  0
  1 30  1  0  0  0  0
  3  4  1  6  0  0  0
  3  9  1  0  0  0  0
  3 39  1  0  0  0  0
  5 10  1  0  0  0  0
  5 26  1  0  0  0  0
  5 32  1  6  0  0  0
  6 12  1  0  0  0  0
  6 36  1  0  0  0  0
  6 19  1  1  0  0  0
  7  8  1  1  0  0  0
  7 14  1  0  0  0  0
  9 16  1  0  0  0  0
 10 11  1  1  0  0  0
 10 18  1  0  0  0  0
 12 13  1  1  0  0  0
 12 20  1  0  0  0  0
 14 15  1  1  0  0  0
 14 22  1  0  0  0  0
 16 17  1  1  0  0  0
 16 24  1  0  0  0  0
 18 19  1  1  0  0  0
 18 25  1  0  0  0  0
 20 21  1  6  0  0  0
 20 27  1  0  0  0  0
 22 23  1  1  0  0  0
 22 29  1  0  0  0  0
 24  2  1  1  0  0  0
 24 31  1  0  0  0  0
 25 26  1  0  0  0  0
 25 33  1  1  0  0  0
 27 28  1  1  0  0  0
 27 35  1  0  0  0  0
 29 30  1  0  0  0  0
 29 37  1  6  0  0  0
 31 32  1  6  0  0  0
 31 39  1  0  0  0  0
 33 34  1  0  0  0  0
 35 36  1  0  0  0  0
 35 41  1  1  0  0  0
 37 38  1  0  0  0  0
 39 40  1  6  0  0  0
 41 42  1  0  0  0  0
M  END
>  <CHROM.1>
-175.65354483,-166.27562340,105.63440868,-77.78130995,-51.08905267,-175.11070824
-68.17936913,170.78785169,66.32608007,5.05313191,4.60806833,1.03634729,0.12048637
-1.49953121,1.15429912

>  <Name>
ligand

>  <RI>
0

>  <Rbt.Current_Directory>
/home/itssahil/PROJECTS/Mol_Feturizer/Test_systems_manuscript/rnas/2o3w

>  <Rbt.Executable>
rbdock ($Id: //depot/dev/client3/rdock/2013.1/src/exe/rbdock.cxx#4 $)

>  <Rbt.Library>
libRbt.so (2013.1, Build901 2013/11/27)

>  <Rbt.Parameter_File>
/export/apps/rDock/src/rDock_2013.1_src/data/scripts/dock_solv.prm

>  <Rbt.Receptor>
prm/pocket_docking_7.prm

>  <SCORE>
-12.4124

>  <SCORE.INTER>
-3.69101

>  <SCORE.INTER.CONST>
1

>  <SCORE.INTER.POLAR>
0

>  <SCORE.INTER.ROT>
9

>  <SCORE.INTER.SOLV>
11.9017

>  <SCORE.INTER.VDW>
-16.0279

>  <SCORE.INTER.norm>
-0.0878812

>  <SCORE.INTRA>
-8.72139

>  <SCORE.INTRA.DIHEDRAL>
-17.8995

>  <SCORE.INTRA.DIHEDRAL.0>
27.8999

>  <SCORE.INTRA.POLAR>
0

>  <SCORE.INTRA.POLAR.0>
0

>  <SCORE.INTRA.REPUL>
0

>  <SCORE.INTRA.REPUL.0>
0

>  <SCORE.INTRA.SOLV>
-2.78414

>  <SCORE.INTRA.SOLV.lig_0>
-104.479

>  <SCORE.INTRA.VDW>
1.62043

>  <SCORE.INTRA.VDW.0>
-6.17816

>  <SCORE.INTRA.norm>
-0.207652

>  <SCORE.RESTR>
0

>  <SCORE.RESTR.CAVITY>
0

>  <SCORE.RESTR.norm>
0

>  <SCORE.SYSTEM>
0

>  <SCORE.SYSTEM.CONST>
0

>  <SCORE.SYSTEM.DIHEDRAL>
0

>  <SCORE.SYSTEM.SOLV>
0

>  <SCORE.SYSTEM.norm>
0

>  <SCORE.heavy>
42

>  <SCORE.norm>
-0.295533

>  <RMSD>
6.315

$$$$
ligand
 OpenBabel02271912133D
libRbt.so/2013.1/901 2013/11/27
 42 45  0  0  0  0  0  0  0  0999 V2000
    7.3142    5.6803    6.7645 C   0  0  2  0  0  0  0  0  0  0  0  0
    8.2216    5.3467    5.7003 O   0  0  0  0  0  0  0  0  0  0  0  0
    7.8952    2.3918    2.5447 C   0  0  2  0  0  0  0  0  0  0  0  0
    7.4527    1.6435    1.3303 N   0  0  0  0  0  0  0  0  0  0  0  0
    7.7931    6.8254    2.4132 C   0  0  1  0  0  0  0  0  0  0  0  0
    5.5002    9.8417    0.0220 C   0  0  1  0  0  0  0  0  0  0  0  0
    7.8128    7.0202    7.3844 C   0  0  2  0  0  0  0  0  0  0  0  0
    8.0670    8.0529    6.3649 N   0  0  0  0  0  0  0  0  0  0  0  0
    6.7616    2.4180    3.6474 C   0  0  0  0  0  0  0  0  0  0  0  0
    8.0408    8.3642    2.3724 C   0  0  2  0  0  0  0  0  0  0  0  0
    7.4828    9.0810    3.5011 O   0  0  0  0  0  0  0  0  0  0  0  0
    3.9621   10.1426    0.1340 C   0  0  2  0  0  0  0  0  0  0  0  0
    3.1801    8.8778    0.2746 N   0  0  0  0  0  0  0  0  0  0  0  0
    9.1213    6.8461    8.1770 C   0  0  1  0  0  0  0  0  0  0  0  0
    9.5192    8.0885    8.7593 O   0  0  0  0  0  0  0  0  0  0  0  0
    7.2940    3.1989    4.9081 C   0  0  2  0  0  0  0  0  0  0  0  0
    6.2560    3.2307    5.9735 N   0  0  0  0  0  0  0  0  0  0  0  0
    7.4560    8.7230    1.0054 C   0  0  2  0  0  0  0  0  0  0  0  0
    6.0367    9.0652    1.1004 O   0  0  0  0  0  0  0  0  0  0  0  0
    3.4903   10.9709   -1.1536 C   0  0  1  0  0  0  0  0  0  0  0  0
    3.9817   12.3256   -1.0435 O   0  0  0  0  0  0  0  0  0  0  0  0
    8.9305    5.7536    9.2537 C   0  0  2  0  0  0  0  0  0  0  0  0
   10.1149    5.5939    9.9995 O   0  0  0  0  0  0  0  0  0  0  0  0
    7.6991    4.6754    4.5185 C   0  0  2  0  0  0  0  0  0  0  0  0
    7.6733    7.4889    0.1136 C   0  0  2  0  0  0  0  0  0  0  0  0
    7.6107    6.4078    1.0408 O   0  0  0  0  0  0  0  0  0  0  0  0
    3.9998   10.3260   -2.5291 C   0  0  2  0  0  0  0  0  0  0  0  0
    3.2954    9.0993   -2.7170 O   0  0  0  0  0  0  0  0  0  0  0  0
    8.5321    4.4115    8.5542 C   0  0  2  0  0  0  0  0  0  0  0  0
    7.3065    4.6054    7.7796 O   0  0  0  0  0  0  0  0  0  0  0  0
    8.7655    4.7292    3.4026 C   0  0  2  0  0  0  0  0  0  0  0  0
    8.8771    6.1351    3.0484 O   0  0  0  0  0  0  0  0  0  0  0  0
    9.0197    7.4752   -0.6745 C   0  0  0  0  0  0  0  0  0  0  0  0
    9.0443    8.5720   -1.5829 O   0  0  0  0  0  0  0  0  0  0  0  0
    5.5520   10.0610   -2.4774 C   0  0  1  0  0  0  0  0  0  0  0  0
    5.7792    9.1861   -1.3141 O   0  0  0  0  0  0  0  0  0  0  0  0
    8.3182    3.2843    9.5378 C   0  0  0  0  0  0  0  0  0  0  0  0
    8.1149    2.0734    8.8509 O   0  0  0  0  0  0  0  0  0  0  0  0
    8.2973    3.8704    2.1540 C   0  0  1  0  0  0  0  0  0  0  0  0
    9.3467    3.7959    1.1850 O   0  0  0  0  0  0  0  0  0  0  0  0
    6.1385    9.3887   -3.7936 C   0  0  0  0  0  0  0  0  0  0  0  0
    5.9455   10.1626   -5.0508 N   0  0  0  0  0  0  0  0  0  0  0  0
  1  2  1  6  0  0  0
  1  7  1  0  0  0  0
  1 30  1  0  0  0  0
  3  4  1  6  0  0  0
  3  9  1  0  0  0  0
  3 39  1  0  0  0  0
  5 10  1  0  0  0  0
  5 26  1  0  0  0  0
  5 32  1  6  0  0  0
  6 12  1  0  0  0  0
  6 36  1  0  0  0  0
  6 19  1  1  0  0  0
  7  8  1  6  0  0  0
  7 14  1  0  0  0  0
  9 16  1  0  0  0  0
 10 11  1  1  0  0  0
 10 18  1  0  0  0  0
 12 13  1  6  0  0  0
 12 20  1  0  0  0  0
 14 15  1  1  0  0  0
 14 22  1  0  0  0  0
 16 17  1  1  0  0  0
 16 24  1  0  0  0  0
 18 19  1  1  0  0  0
 18 25  1  0  0  0  0
 20 21  1  1  0  0  0
 20 27  1  0  0  0  0
 22 23  1  6  0  0  0
 22 29  1  0  0  0  0
 24  2  1  1  0  0  0
 24 31  1  0  0  0  0
 25 26  1  0  0  0  0
 25 33  1  1  0  0  0
 27 28  1  1  0  0  0
 27 35  1  0  0  0  0
 29 30  1  0  0  0  0
 29 37  1  1  0  0  0
 31 32  1  6  0  0  0
 31 39  1  0  0  0  0
 33 34  1  0  0  0  0
 35 36  1  0  0  0  0
 35 41  1  6  0  0  0
 37 38  1  0  0  0  0
 39 40  1  6  0  0  0
 41 42  1  0  0  0  0
M  END
>  <CHROM.1>
-145.81573531,-70.07156793,159.27337453,177.81882958,-63.26708905,-173.26379938
-67.18747706,169.45904890,59.46928227,7.18312125,6.80161175,2.85380087,0.48714354
-1.25301670,1.00430733

>  <Name>
ligand

>  <RI>
0

>  <Rbt.Current_Directory>
/home/itssahil/PROJECTS/Mol_Feturizer/Test_systems_manuscript/rnas/2o3w

>  <Rbt.Executable>
rbdock ($Id: //depot/dev/client3/rdock/2013.1/src/exe/rbdock.cxx#4 $)

>  <Rbt.Library>
libRbt.so (2013.1, Build901 2013/11/27)

>  <Rbt.Parameter_File>
/export/apps/rDock/src/rDock_2013.1_src/data/scripts/dock_solv.prm

>  <Rbt.Receptor>
prm/pocket_docking_7.prm

>  <SCORE>
-11.6761

>  <SCORE.INTER>
-3.80495

>  <SCORE.INTER.CONST>
1

>  <SCORE.INTER.POLAR>
0

>  <SCORE.INTER.ROT>
9

>  <SCORE.INTER.SOLV>
17.5478

>  <SCORE.INTER.VDW>
-17.9859

>  <SCORE.INTER.norm>
-0.0905941

>  <SCORE.INTRA>
-7.87115

>  <SCORE.INTRA.DIHEDRAL>
-19.9513

>  <SCORE.INTRA.DIHEDRAL.0>
27.8999

>  <SCORE.INTRA.POLAR>
0

>  <SCORE.INTRA.POLAR.0>
0

>  <SCORE.INTRA.REPUL>
0

>  <SCORE.INTRA.REPUL.0>
0

>  <SCORE.INTRA.SOLV>
-0.482627

>  <SCORE.INTRA.SOLV.lig_0>
-104.479

>  <SCORE.INTRA.VDW>
2.34582

>  <SCORE.INTRA.VDW.0>
-6.17816

>  <SCORE.INTRA.norm>
-0.187408

>  <SCORE.RESTR>
0

>  <SCORE.RESTR.CAVITY>
0

>  <SCORE.RESTR.norm>
0

>  <SCORE.SYSTEM>
0

>  <SCORE.SYSTEM.CONST>
0

>  <SCORE.SYSTEM.DIHEDRAL>
0

>  <SCORE.SYSTEM.SOLV>
0

>  <SCORE.SYSTEM.norm>
0

>  <SCORE.heavy>
42

>  <SCORE.norm>
-0.278002

>  <RMSD>
6.366

$$$$
ligand
 OpenBabel02271912133D
libRbt.so/2013.1/901 2013/11/27
 42 45  0  0  0  0  0  0  0  0999 V2000
   12.2451    4.5252    5.3368 C   0  0  2  0  0  0  0  0  0  0  0  0
   10.9965    4.2161    5.9794 O   0  0  0  0  0  0  0  0  0  0  0  0
    9.5000    1.3108    3.1307 C   0  0  2  0  0  0  0  0  0  0  0  0
    8.7051    0.2239    2.4846 N   0  0  0  0  0  0  0  0  0  0  0  0
    7.2748    5.1272    4.1756 C   0  0  1  0  0  0  0  0  0  0  0  0
    4.1183    7.7331    2.6043 C   0  0  1  0  0  0  0  0  0  0  0  0
   12.8974    5.6869    6.1449 C   0  0  2  0  0  0  0  0  0  0  0  0
   12.9316    5.4168    7.5928 N   0  0  0  0  0  0  0  0  0  0  0  0
   10.3043    0.7685    4.3801 C   0  0  0  0  0  0  0  0  0  0  0  0
    6.2850    5.8861    5.1111 C   0  0  2  0  0  0  0  0  0  0  0  0
    5.2160    5.0591    5.6330 O   0  0  0  0  0  0  0  0  0  0  0  0
    2.7661    7.3662    1.8933 C   0  0  2  0  0  0  0  0  0  0  0  0
    2.9109    6.1206    1.0819 N   0  0  0  0  0  0  0  0  0  0  0  0
   12.1497    7.0200    5.9587 C   0  0  1  0  0  0  0  0  0  0  0  0
   12.8040    8.0627    6.6838 O   0  0  0  0  0  0  0  0  0  0  0  0
   11.1377    1.9517    5.0031 C   0  0  2  0  0  0  0  0  0  0  0  0
   11.9198    1.4729    6.1747 N   0  0  0  0  0  0  0  0  0  0  0  0
    5.8485    7.0404    4.2077 C   0  0  2  0  0  0  0  0  0  0  0  0
    4.6648    6.6907    3.4220 O   0  0  0  0  0  0  0  0  0  0  0  0
    2.2981    8.5967    0.9801 C   0  0  1  0  0  0  0  0  0  0  0  0
    1.8098    9.6542    1.8357 O   0  0  0  0  0  0  0  0  0  0  0  0
   12.0565    7.3529    4.4522 C   0  0  2  0  0  0  0  0  0  0  0  0
   11.3891    8.5794    4.2656 O   0  0  0  0  0  0  0  0  0  0  0  0
   10.1846    3.1305    5.4478 C   0  0  2  0  0  0  0  0  0  0  0  0
    7.0506    7.3459    3.2983 C   0  0  2  0  0  0  0  0  0  0  0  0
    7.6805    6.0743    3.1610 O   0  0  0  0  0  0  0  0  0  0  0  0
    3.4725    9.1610    0.0474 C   0  0  2  0  0  0  0  0  0  0  0  0
    3.7490    8.1719   -0.9433 O   0  0  0  0  0  0  0  0  0  0  0  0
   11.3006    6.1948    3.7193 C   0  0  2  0  0  0  0  0  0  0  0  0
   12.0067    4.9322    3.9356 O   0  0  0  0  0  0  0  0  0  0  0  0
    9.3234    3.6748    4.2870 C   0  0  2  0  0  0  0  0  0  0  0  0
    8.3929    4.6054    4.9055 O   0  0  0  0  0  0  0  0  0  0  0  0
    8.0466    8.4080    3.8587 C   0  0  0  0  0  0  0  0  0  0  0  0
    8.9965    8.7402    2.8506 O   0  0  0  0  0  0  0  0  0  0  0  0
    4.7649    9.4565    0.8986 C   0  0  1  0  0  0  0  0  0  0  0  0
    5.1170    8.1887    1.5613 O   0  0  0  0  0  0  0  0  0  0  0  0
   11.1688    6.4355    2.2332 C   0  0  0  0  0  0  0  0  0  0  0  0
   10.4011    5.4149    1.6430 O   0  0  0  0  0  0  0  0  0  0  0  0
    8.5447    2.4887    3.5783 C   0  0  1  0  0  0  0  0  0  0  0  0
    7.8685    2.9691    2.4131 O   0  0  0  0  0  0  0  0  0  0  0  0
    5.9952    9.9902    0.0440 C   0  0  0  0  0  0  0  0  0  0  0  0
    6.4805    9.0740   -1.0245 N   0  0  0  0  0  0  0  0  0  0  0  0
  1  2  1  1  0  0  0
  1  7  1  0  0  0  0
  1 30  1  0  0  0  0
  3  4  1  1  0  0  0
  3  9  1  0  0  0  0
  3 39  1  0  0  0  0
  5 10  1  0  0  0  0
  5 26  1  0  0  0  0
  5 32  1  1  0  0  0
  6 12  1  0  0  0  0
  6 36  1  0  0  0  0
  6 19  1  6  0  0  0
  7  8  1  1  0  0  0
  7 14  1  0  0  0  0
  9 16  1  0  0  0  0
 10 11  1  6  0  0  0
 10 18  1  0  0  0  0
 12 13  1  6  0  0  0
 12 20  1  0  0  0  0
 14 15  1  1  0  0  0
 14 22  1  0  0  0  0
 16 17  1  1  0  0  0
 16 24  1  0  0  0  0
 18 19  1  6  0  0  0
 18 25  1  0  0  0  0
 20 21  1  1  0  0  0
 20 27  1  0  0  0  0
 22 23  1  1  0  0  0
 22 29  1  0  0  0  0
 24  2  1  6  0  0  0
 24 31  1  0  0  0  0
 25 26  1  0  0  0  0
 25 33  1  1  0  0  0
 27 28  1  6  0  0  0
 27 35  1  0  0  0  0
 29 30  1  0  0  0  0
 29 37  1  6  0  0  0
 31 32  1  1  0  0  0
 31 39  1  0  0  0  0
 33 34  1  0  0  0  0
 35 36  1  0  0  0  0
 35 41  1  6  0  0  0
 37 38  1  0  0  0  0
 39 40  1  6  0  0  0
 41 42  1  0  0  0  0
M  END
>  <CHROM.1>
-178.37423136,39.01902357,176.07280637,-173.94988206,-171.64131227,-175.79514782
-168.57572544,169.53487577,-60.04720142,8.15386639,5.99006086,3.42827609
-0.52052823,-0.42391556,-0.13703355

>  <Name>
ligand

>  <RI>
0

>  <Rbt.Current_Directory>
/home/itssahil/PROJECTS/Mol_Feturizer/Test_systems_manuscript/rnas/2o3w

>  <Rbt.Executable>
rbdock ($Id: //depot/dev/client3/rdock/2013.1/src/exe/rbdock.cxx#4 $)

>  <Rbt.Library>
libRbt.so (2013.1, Build901 2013/11/27)

>  <Rbt.Parameter_File>
/export/apps/rDock/src/rDock_2013.1_src/data/scripts/dock_solv.prm

>  <Rbt.Receptor>
prm/pocket_docking_6.prm

>  <SCORE>
-18.3621

>  <SCORE.INTER>
-6.41852

>  <SCORE.INTER.CONST>
1

>  <SCORE.INTER.POLAR>
0

>  <SCORE.INTER.ROT>
9

>  <SCORE.INTER.SOLV>
13.7911

>  <SCORE.INTER.VDW>
-18.4761

>  <SCORE.INTER.norm>
-0.152822

>  <SCORE.INTRA>
-11.9436

>  <SCORE.INTRA.DIHEDRAL>
-24.0874

>  <SCORE.INTRA.DIHEDRAL.0>
27.8999

>  <SCORE.INTRA.POLAR>
0

>  <SCORE.INTRA.POLAR.0>
0

>  <SCORE.INTRA.REPUL>
0

>  <SCORE.INTRA.REPUL.0>
0

>  <SCORE.INTRA.SOLV>
-1.76276

>  <SCORE.INTRA.SOLV.lig_0>
-104.479

>  <SCORE.INTRA.VDW>
0.981492

>  <SCORE.INTRA.VDW.0>
-6.17816

>  <SCORE.INTRA.norm>
-0.284371

>  <SCORE.RESTR>
0

>  <SCORE.RESTR.CAVITY>
0

>  <SCORE.RESTR.norm>
0

>  <SCORE.SYSTEM>
0

>  <SCORE.SYSTEM.CONST>
0

>  <SCORE.SYSTEM.DIHEDRAL>
0

>  <SCORE.SYSTEM.SOLV>
0

>  <SCORE.SYSTEM.norm>
0

>  <SCORE.heavy>
42

>  <SCORE.norm>
-0.437193

>  <RMSD>
6.390

$$$$
ligand
 OpenBabel02271912133D
libRbt.so/2013.1/901 2013/11/27
 42 45  0  0  0  0  0  0  0  0999 V2000
   13.3712   -0.3967    5.9856 C   0  0  2  0  0  0  0  0  0  0  0  0
   13.7582    0.1087    7.2749 O   0  0  0  0  0  0  0  0  0  0  0  0
   12.8059    3.8122    9.3178 C   0  0  2  0  0  0  0  0  0  0  0  0
   12.6517    5.2600    9.6499 N   0  0  0  0  0  0  0  0  0  0  0  0
   10.3192    1.5787    5.9093 C   0  0  1  0  0  0  0  0  0  0  0  0
    6.6648    3.2033    5.0761 C   0  0  1  0  0  0  0  0  0  0  0  0
   13.4826   -1.9495    6.0533 C   0  0  2  0  0  0  0  0  0  0  0  0
   12.8012   -2.5127    7.2319 N   0  0  0  0  0  0  0  0  0  0  0  0
   14.3310    3.4104    9.1968 C   0  0  0  0  0  0  0  0  0  0  0  0
    9.7096    2.8307    5.2081 C   0  0  2  0  0  0  0  0  0  0  0  0
    9.1316    3.7949    6.1220 O   0  0  0  0  0  0  0  0  0  0  0  0
    5.3023    2.9855    5.8278 C   0  0  2  0  0  0  0  0  0  0  0  0
    4.4408    2.0077    5.0979 N   0  0  0  0  0  0  0  0  0  0  0  0
   14.9448   -2.4283    6.1139 C   0  0  1  0  0  0  0  0  0  0  0  0
   15.0003   -3.8557    6.1346 O   0  0  0  0  0  0  0  0  0  0  0  0
   14.4290    1.8724    8.8686 C   0  0  2  0  0  0  0  0  0  0  0  0
   15.8533    1.4559    8.7618 N   0  0  0  0  0  0  0  0  0  0  0  0
    8.7322    2.1768    4.2301 C   0  0  2  0  0  0  0  0  0  0  0  0
    7.4080    2.0035    4.8279 O   0  0  0  0  0  0  0  0  0  0  0  0
    4.5591    4.3950    5.9943 C   0  0  1  0  0  0  0  0  0  0  0  0
    5.2417    5.1662    7.0083 O   0  0  0  0  0  0  0  0  0  0  0  0
   15.7268   -1.8505    4.9124 C   0  0  2  0  0  0  0  0  0  0  0  0
   17.0637   -2.2933    4.9440 O   0  0  0  0  0  0  0  0  0  0  0  0
   13.6774    1.5419    7.5189 C   0  0  2  0  0  0  0  0  0  0  0  0
    9.3539    0.8223    3.8506 C   0  0  2  0  0  0  0  0  0  0  0  0
   10.0770    0.4606    5.0248 O   0  0  0  0  0  0  0  0  0  0  0  0
    4.5031    5.2337    4.6301 C   0  0  2  0  0  0  0  0  0  0  0  0
    3.6136    4.5559    3.7437 O   0  0  0  0  0  0  0  0  0  0  0  0
   15.6605   -0.2876    4.9640 C   0  0  2  0  0  0  0  0  0  0  0  0
   14.2638    0.1466    4.9397 O   0  0  0  0  0  0  0  0  0  0  0  0
   12.1909    1.9602    7.5433 C   0  0  2  0  0  0  0  0  0  0  0  0
   11.7147    1.7576    6.1843 O   0  0  0  0  0  0  0  0  0  0  0  0
   10.2897    0.8542    2.6026 C   0  0  0  0  0  0  0  0  0  0  0  0
   10.8066   -0.4524    2.3687 O   0  0  0  0  0  0  0  0  0  0  0  0
    5.9366    5.3431    3.9857 C   0  0  1  0  0  0  0  0  0  0  0  0
    6.4041    3.9597    3.7905 O   0  0  0  0  0  0  0  0  0  0  0  0
   16.3973    0.3639    3.8167 C   0  0  0  0  0  0  0  0  0  0  0  0
   16.4342    1.7591    3.9940 O   0  0  0  0  0  0  0  0  0  0  0  0
   12.0560    3.4832    7.9651 C   0  0  1  0  0  0  0  0  0  0  0  0
   10.6783    3.8281    8.1346 O   0  0  0  0  0  0  0  0  0  0  0  0
    5.9680    6.1337    2.6064 C   0  0  0  0  0  0  0  0  0  0  0  0
    7.3145    6.3042    1.9944 N   0  0  0  0  0  0  0  0  0  0  0  0
  1  2  1  1  0  0  0
  1  7  1  0  0  0  0
  1 30  1  0  0  0  0
  3  4  1  6  0  0  0
  3  9  1  0  0  0  0
  3 39  1  0  0  0  0
  5 10  1  0  0  0  0
  5 26  1  0  0  0  0
  5 32  1  6  0  0  0
  6 12  1  0  0  0  0
  6 36  1  0  0  0  0
  6 19  1  6  0  0  0
  7  8  1  1  0  0  0
  7 14  1  0  0  0  0
  9 16  1  0  0  0  0
 10 11  1  1  0  0  0
 10 18  1  0  0  0  0
 12 13  1  6  0  0  0
 12 20  1  0  0  0  0
 14 15  1  6  0  0  0
 14 22  1  0  0  0  0
 16 17  1  6  0  0  0
 16 24  1  0  0  0  0
 18 19  1  1  0  0  0
 18 25  1  0  0  0  0
 20 21  1  1  0  0  0
 20 27  1  0  0  0  0
 22 23  1  1  0  0  0
 22 29  1  0  0  0  0
 24  2  1  1  0  0  0
 24 31  1  0  0  0  0
 25 26  1  0  0  0  0
 25 33  1  6  0  0  0
 27 28  1  6  0  0  0
 27 35  1  0  0  0  0
 29 30  1  0  0  0  0
 29 37  1  6  0  0  0
 31 32  1  6  0  0  0
 31 39  1  0  0  0  0
 33 34  1  0  0  0  0
 35 36  1  0  0  0  0
 35 41  1  6  0  0  0
 37 38  1  0  0  0  0
 39 40  1  1  0  0  0
 41 42  1  0  0  0  0
M  END
>  <CHROM.1>
-176.71942412,-168.26469416,68.97461031,-175.09255140,179.42492657,-173.38334093
157.65502750,108.08024390,177.66621457,10.83882153,1.85469297,5.67291460
0.20492775,0.45786307,-2.32817425

>  <Name>
ligand

>  <RI>
0

>  <Rbt.Current_Directory>
/home/itssahil/PROJECTS/Mol_Feturizer/Test_systems_manuscript/rnas/2o3w

>  <Rbt.Executable>
rbdock ($Id: //depot/dev/client3/rdock/2013.1/src/exe/rbdock.cxx#4 $)

>  <Rbt.Library>
libRbt.so (2013.1, Build901 2013/11/27)

>  <Rbt.Parameter_File>
/export/apps/rDock/src/rDock_2013.1_src/data/scripts/dock_solv.prm

>  <Rbt.Receptor>
prm/pocket_docking_7.prm

>  <SCORE>
-9.09416

>  <SCORE.INTER>
0.121956

>  <SCORE.INTER.CONST>
1

>  <SCORE.INTER.POLAR>
0

>  <SCORE.INTER.ROT>
9

>  <SCORE.INTER.SOLV>
12.563

>  <SCORE.INTER.VDW>
-13.7064

>  <SCORE.INTER.norm>
0.00290371

>  <SCORE.INTRA>
-9.21612

>  <SCORE.INTRA.DIHEDRAL>
-17.6478

>  <SCORE.INTRA.DIHEDRAL.0>
27.8999

>  <SCORE.INTRA.POLAR>
0

>  <SCORE.INTRA.POLAR.0>
0

>  <SCORE.INTRA.REPUL>
0

>  <SCORE.INTRA.REPUL.0>
0

>  <SCORE.INTRA.SOLV>
-5.80665

>  <SCORE.INTRA.SOLV.lig_0>
-104.479

>  <SCORE.INTRA.VDW>
2.51113

>  <SCORE.INTRA.VDW.0>
-6.17816

>  <SCORE.INTRA.norm>
-0.219431

>  <SCORE.RESTR>
0

>  <SCORE.RESTR.CAVITY>
0

>  <SCORE.RESTR.norm>
0

>  <SCORE.SYSTEM>
0

>  <SCORE.SYSTEM.CONST>
0

>  <SCORE.SYSTEM.DIHEDRAL>
0

>  <SCORE.SYSTEM.SOLV>
0

>  <SCORE.SYSTEM.norm>
0

>  <SCORE.heavy>
42

>  <SCORE.norm>
-0.216528

>  <RMSD>
6.390

$$$$
ligand
 OpenBabel02271912133D
libRbt.so/2013.1/901 2013/11/27
 42 45  0  0  0  0  0  0  0  0999 V2000
   12.0235   -3.0292    4.0120 C   0  0  2  0  0  0  0  0  0  0  0  0
   10.9879   -3.9355    4.4285 O   0  0  0  0  0  0  0  0  0  0  0  0
    7.9376   -3.4913    7.4772 C   0  0  2  0  0  0  0  0  0  0  0  0
    7.2461   -3.3028    8.7874 N   0  0  0  0  0  0  0  0  0  0  0  0
   10.4225   -0.0206    5.5995 C   0  0  1  0  0  0  0  0  0  0  0  0
   10.6529    4.2965    4.4176 C   0  0  1  0  0  0  0  0  0  0  0  0
   12.4977   -3.4966    2.6032 C   0  0  2  0  0  0  0  0  0  0  0  0
   11.3753   -3.7130    1.6736 N   0  0  0  0  0  0  0  0  0  0  0  0
    8.7600   -4.8421    7.4513 C   0  0  0  0  0  0  0  0  0  0  0  0
   11.7127    0.8466    5.4799 C   0  0  2  0  0  0  0  0  0  0  0  0
   12.2100    1.3410    6.7477 O   0  0  0  0  0  0  0  0  0  0  0  0
   12.0583    4.9695    4.2158 C   0  0  2  0  0  0  0  0  0  0  0  0
   12.7330    5.1997    5.5283 N   0  0  0  0  0  0  0  0  0  0  0  0
   13.2882   -4.8167    2.6609 C   0  0  1  0  0  0  0  0  0  0  0  0
   13.7361   -5.1857    1.3555 O   0  0  0  0  0  0  0  0  0  0  0  0
    9.4459   -4.9950    6.0411 C   0  0  2  0  0  0  0  0  0  0  0  0
   10.2180   -6.2652    5.9763 N   0  0  0  0  0  0  0  0  0  0  0  0
   11.2609    1.9153    4.4834 C   0  0  2  0  0  0  0  0  0  0  0  0
   10.6787    3.0728    5.1631 O   0  0  0  0  0  0  0  0  0  0  0  0
   11.8757    6.3444    3.4136 C   0  0  1  0  0  0  0  0  0  0  0  0
   11.5823    6.0430    2.0309 O   0  0  0  0  0  0  0  0  0  0  0  0
   14.4727   -4.6658    3.6424 C   0  0  2  0  0  0  0  0  0  0  0  0
   15.2166   -5.8610    3.6940 O   0  0  0  0  0  0  0  0  0  0  0  0
   10.4076   -3.7748    5.7543 C   0  0  2  0  0  0  0  0  0  0  0  0
   10.2328    1.2326    3.5657 C   0  0  2  0  0  0  0  0  0  0  0  0
    9.6335    0.2622    4.4210 O   0  0  0  0  0  0  0  0  0  0  0  0
   10.7148    7.2682    4.0189 C   0  0  2  0  0  0  0  0  0  0  0  0
   11.1615    7.7461    5.2871 O   0  0  0  0  0  0  0  0  0  0  0  0
   13.9183   -4.2979    5.0590 C   0  0  2  0  0  0  0  0  0  0  0  0
   13.1427   -3.0603    4.9775 O   0  0  0  0  0  0  0  0  0  0  0  0
    9.6825   -2.4128    5.8191 C   0  0  2  0  0  0  0  0  0  0  0  0
   10.7351   -1.4145    5.7187 O   0  0  0  0  0  0  0  0  0  0  0  0
   10.8316    0.5630    2.2900 C   0  0  0  0  0  0  0  0  0  0  0  0
   11.8379   -0.3682    2.6758 O   0  0  0  0  0  0  0  0  0  0  0  0
    9.3806    6.4469    4.1848 C   0  0  1  0  0  0  0  0  0  0  0  0
    9.7107    5.3001    5.0485 O   0  0  0  0  0  0  0  0  0  0  0  0
   15.0140   -4.1240    6.0851 C   0  0  0  0  0  0  0  0  0  0  0  0
   14.4567   -3.8588    7.3494 O   0  0  0  0  0  0  0  0  0  0  0  0
    8.9022   -2.2710    7.1927 C   0  0  1  0  0  0  0  0  0  0  0  0
    8.1104   -1.0799    7.1897 O   0  0  0  0  0  0  0  0  0  0  0  0
    8.1808    7.2805    4.8128 C   0  0  0  0  0  0  0  0  0  0  0  0
    6.8994    6.5400    4.9738 N   0  0  0  0  0  0  0  0  0  0  0  0
  1  2  1  1  0  0  0
  1  7  1  0  0  0  0
  1 30  1  0  0  0  0
  3  4  1  1  0  0  0
  3  9  1  0  0  0  0
  3 39  1  0  0  0  0
  5 10  1  0  0  0  0
  5 26  1  0  0  0  0
  5 32  1  6  0  0  0
  6 12  1  0  0  0  0
  6 36  1  0  0  0  0
  6 19  1  1  0  0  0
  7  8  1  6  0  0  0
  7 14  1  0  0  0  0
  9 16  1  0  0  0  0
 10 11  1  1  0  0  0
 10 18  1  0  0  0  0
 12 13  1  1  0  0  0
 12 20  1  0  0  0  0
 14 15  1  6  0  0  0
 14 22  1  0  0  0  0
 16 17  1  1  0  0  0
 16 24  1  0  0  0  0
 18 19  1  1  0  0  0
 18 25  1  0  0  0  0
 20 21  1  6  0  0  0
 20 27  1  0  0  0  0
 22 23  1  1  0  0  0
 22 29  1  0  0  0  0
 24  2  1  6  0  0  0
 24 31  1  0  0  0  0
 25 26  1  0  0  0  0
 25 33  1  6  0  0  0
 27 28  1  1  0  0  0
 27 35  1  0  0  0  0
 29 30  1  0  0  0  0
 29 37  1  1  0  0  0
 31 32  1  1  0  0  0
 31 39  1  0  0  0  0
 33 34  1  0  0  0  0
 35 36  1  0  0  0  0
 35 41  1  1  0  0  0
 37 38  1  0  0  0  0
 39 40  1  6  0  0  0
 41 42  1  0  0  0  0
M  END
>  <CHROM.1>
176.75462415,-172.48390524,158.90926998,-71.38759963,55.63618828,-177.17208634
173.23088613,-178.89700458,179.49401471,11.10595760,-0.17533149,4.83893673
-1.36134358,0.63187630,-0.17200461

>  <Name>
ligand

>  <RI>
0

>  <Rbt.Current_Directory>
/home/itssahil/PROJECTS/Mol_Feturizer/Test_systems_manuscript/rnas/2o3w

>  <Rbt.Executable>
rbdock ($Id: //depot/dev/client3/rdock/2013.1/src/exe/rbdock.cxx#4 $)

>  <Rbt.Library>
libRbt.so (2013.1, Build901 2013/11/27)

>  <Rbt.Parameter_File>
/export/apps/rDock/src/rDock_2013.1_src/data/scripts/dock_solv.prm

>  <Rbt.Receptor>
prm/pocket_docking_8.prm

>  <SCORE>
-10.9915

>  <SCORE.INTER>
1.57946

>  <SCORE.INTER.CONST>
1

>  <SCORE.INTER.POLAR>
0

>  <SCORE.INTER.ROT>
9

>  <SCORE.INTER.SOLV>
14.3149

>  <SCORE.INTER.VDW>
-13.3187

>  <SCORE.INTER.norm>
0.0376062

>  <SCORE.INTRA>
-12.571

>  <SCORE.INTRA.DIHEDRAL>
-24.505

>  <SCORE.INTRA.DIHEDRAL.0>
27.8999

>  <SCORE.INTRA.POLAR>
0

>  <SCORE.INTRA.POLAR.0>
0

>  <SCORE.INTRA.REPUL>
0

>  <SCORE.INTRA.REPUL.0>
0

>  <SCORE.INTRA.SOLV>
-4.3596

>  <SCORE.INTRA.SOLV.lig_0>
-104.479

>  <SCORE.INTRA.VDW>
1.86132

>  <SCORE.INTRA.VDW.0>
-6.17816

>  <SCORE.INTRA.norm>
-0.299309

>  <SCORE.RESTR>
0

>  <SCORE.RESTR.CAVITY>
0

>  <SCORE.RESTR.norm>
0

>  <SCORE.SYSTEM>
0

>  <SCORE.SYSTEM.CONST>
0

>  <SCORE.SYSTEM.DIHEDRAL>
0

>  <SCORE.SYSTEM.SOLV>
0

>  <SCORE.SYSTEM.norm>
0

>  <SCORE.heavy>
42

>  <SCORE.norm>
-0.261702

>  <RMSD>
6.519

$$$$
ligand
 OpenBabel02271912133D
libRbt.so/2013.1/901 2013/11/27
 42 45  0  0  0  0  0  0  0  0999 V2000
   11.9274    4.3559    5.6918 C   0  0  2  0  0  0  0  0  0  0  0  0
   10.5320    4.0224    5.7867 O   0  0  0  0  0  0  0  0  0  0  0  0
   10.6725    0.3407    3.5017 C   0  0  2  0  0  0  0  0  0  0  0  0
   10.2829   -0.9137    2.7910 N   0  0  0  0  0  0  0  0  0  0  0  0
    7.9506    3.6943    2.9097 C   0  0  1  0  0  0  0  0  0  0  0  0
    3.6491    3.6094    2.7410 C   0  0  1  0  0  0  0  0  0  0  0  0
   12.1786    5.5443    6.6678 C   0  0  2  0  0  0  0  0  0  0  0  0
   11.6341    5.2934    8.0136 N   0  0  0  0  0  0  0  0  0  0  0  0
   10.3903    0.2321    5.0542 C   0  0  0  0  0  0  0  0  0  0  0  0
    7.1412    3.3423    4.1948 C   0  0  2  0  0  0  0  0  0  0  0  0
    7.1005    1.9257    4.4960 O   0  0  0  0  0  0  0  0  0  0  0  0
    2.6052    2.5408    2.2541 C   0  0  2  0  0  0  0  0  0  0  0  0
    3.1885    1.6723    1.1881 N   0  0  0  0  0  0  0  0  0  0  0  0
   11.5433    6.8550    6.1683 C   0  0  1  0  0  0  0  0  0  0  0  0
   11.8318    7.9235    7.0717 O   0  0  0  0  0  0  0  0  0  0  0  0
   10.8411    1.5721    5.7498 C   0  0  2  0  0  0  0  0  0  0  0  0
   10.6028    1.4992    7.2166 N   0  0  0  0  0  0  0  0  0  0  0  0
    5.7921    3.9921    3.8834 C   0  0  2  0  0  0  0  0  0  0  0  0
    4.8936    3.0639    3.1964 O   0  0  0  0  0  0  0  0  0  0  0  0
    1.2883    3.2883    1.7309 C   0  0  1  0  0  0  0  0  0  0  0  0
    0.5573    3.7983    2.8687 O   0  0  0  0  0  0  0  0  0  0  0  0
   12.0561    7.1664    4.7438 C   0  0  2  0  0  0  0  0  0  0  0  0
   11.4965    8.3725    4.2784 O   0  0  0  0  0  0  0  0  0  0  0  0
   10.0576    2.8039    5.1460 C   0  0  2  0  0  0  0  0  0  0  0  0
    6.1032    5.2175    3.0077 C   0  0  2  0  0  0  0  0  0  0  0  0
    7.2737    4.8169    2.2992 O   0  0  0  0  0  0  0  0  0  0  0  0
    1.6142    4.4890    0.7212 C   0  0  2  0  0  0  0  0  0  0  0  0
    2.1039    3.9133   -0.4892 O   0  0  0  0  0  0  0  0  0  0  0  0
   11.6798    5.9798    3.7950 C   0  0  2  0  0  0  0  0  0  0  0  0
   12.2636    4.7389    4.3040 O   0  0  0  0  0  0  0  0  0  0  0  0
   10.2413    2.9402    3.6186 C   0  0  2  0  0  0  0  0  0  0  0  0
    9.3197    3.9901    3.2152 O   0  0  0  0  0  0  0  0  0  0  0  0
    6.3489    6.5428    3.7935 C   0  0  0  0  0  0  0  0  0  0  0  0
    6.3411    7.6380    2.8829 O   0  0  0  0  0  0  0  0  0  0  0  0
    2.6920    5.4578    1.3392 C   0  0  1  0  0  0  0  0  0  0  0  0
    3.8688    4.6235    1.6381 O   0  0  0  0  0  0  0  0  0  0  0  0
   12.1508    6.1982    2.3758 C   0  0  0  0  0  0  0  0  0  0  0  0
   13.5568    6.2176    2.3291 O   0  0  0  0  0  0  0  0  0  0  0  0
    9.8853    1.5725    2.8987 C   0  0  1  0  0  0  0  0  0  0  0  0
   10.1995    1.6518    1.5056 O   0  0  0  0  0  0  0  0  0  0  0  0
    3.1009    6.6637    0.3868 C   0  0  0  0  0  0  0  0  0  0  0  0
    2.0256    7.6549    0.1079 N   0  0  0  0  0  0  0  0  0  0  0  0
  1  2  1  6  0  0  0
  1  7  1  0  0  0  0
  1 30  1  0  0  0  0
  3  4  1  6  0  0  0
  3  9  1  0  0  0  0
  3 39  1  0  0  0  0
  5 10  1  0  0  0  0
  5 26  1  0  0  0  0
  5 32  1  1  0  0  0
  6 12  1  0  0  0  0
  6 36  1  0  0  0  0
  6 19  1  6  0  0  0
  7  8  1  1  0  0  0
  7 14  1  0  0  0  0
  9 16  1  0  0  0  0
 10 11  1  6  0  0  0
 10 18  1  0  0  0  0
 12 13  1  6  0  0  0
 12 20  1  0  0  0  0
 14 15  1  1  0  0  0
 14 22  1  0  0  0  0
 16 17  1  1  0  0  0
 16 24  1  0  0  0  0
 18 19  1  6  0  0  0
 18 25  1  0  0  0  0
 20 21  1  1  0  0  0
 20 27  1  0  0  0  0
 22 23  1  6  0  0  0
 22 29  1  0  0  0  0
 24  2  1  1  0  0  0
 24 31  1  0  0  0  0
 25 26  1  0  0  0  0
 25 33  1  1  0  0  0
 27 28  1  6  0  0  0
 27 35  1  0  0  0  0
 29 30  1  0  0  0  0
 29 37  1  6  0  0  0
 31 32  1  6  0  0  0
 31 39  1  0  0  0  0
 33 34  1  0  0  0  0
 35 36  1  0  0  0  0
 35 41  1  6  0  0  0
 37 38  1  0  0  0  0
 39 40  1  6  0  0  0
 41 42  1  0  0  0  0
M  END
>  <CHROM.1>
-170.07073416,58.74317981,-174.12785742,-169.11087304,-167.73256495,65.21658742
-86.08433871,71.59489724,66.09644705,7.88360956,4.23245433,3.48253843,-0.02198916
0.38026585,3.11193261

>  <Name>
ligand

>  <RI>
0

>  <Rbt.Current_Directory>
/home/itssahil/PROJECTS/Mol_Feturizer/Test_systems_manuscript/rnas/2o3w

>  <Rbt.Executable>
rbdock ($Id: //depot/dev/client3/rdock/2013.1/src/exe/rbdock.cxx#4 $)

>  <Rbt.Library>
libRbt.so (2013.1, Build901 2013/11/27)

>  <Rbt.Parameter_File>
/export/apps/rDock/src/rDock_2013.1_src/data/scripts/dock_solv.prm

>  <Rbt.Receptor>
prm/pocket_docking_7.prm

>  <SCORE>
-12.5416

>  <SCORE.INTER>
-2.14038

>  <SCORE.INTER.CONST>
1

>  <SCORE.INTER.POLAR>
0

>  <SCORE.INTER.ROT>
9

>  <SCORE.INTER.SOLV>
15.1306

>  <SCORE.INTER.VDW>
-16.0704

>  <SCORE.INTER.norm>
-0.0509613

>  <SCORE.INTRA>
-10.4012

>  <SCORE.INTRA.DIHEDRAL>
-22.287

>  <SCORE.INTRA.DIHEDRAL.0>
27.8999

>  <SCORE.INTRA.POLAR>
0

>  <SCORE.INTRA.POLAR.0>
0

>  <SCORE.INTRA.REPUL>
0

>  <SCORE.INTRA.REPUL.0>
0

>  <SCORE.INTRA.SOLV>
-4.06259

>  <SCORE.INTRA.SOLV.lig_0>
-104.479

>  <SCORE.INTRA.VDW>
2.77356

>  <SCORE.INTRA.VDW.0>
-6.17816

>  <SCORE.INTRA.norm>
-0.247649

>  <SCORE.RESTR>
0

>  <SCORE.RESTR.CAVITY>
0

>  <SCORE.RESTR.norm>
0

>  <SCORE.SYSTEM>
0

>  <SCORE.SYSTEM.CONST>
0

>  <SCORE.SYSTEM.DIHEDRAL>
0

>  <SCORE.SYSTEM.SOLV>
0

>  <SCORE.SYSTEM.norm>
0

>  <SCORE.heavy>
42

>  <SCORE.norm>
-0.29861

>  <RMSD>
6.568

$$$$
ligand
 OpenBabel02271912133D
libRbt.so/2013.1/901 2013/11/27
 42 45  0  0  0  0  0  0  0  0999 V2000
   11.4248    5.0844    6.5851 C   0  0  2  0  0  0  0  0  0  0  0  0
   11.3533    4.3971    5.3242 O   0  0  0  0  0  0  0  0  0  0  0  0
   11.7510    0.1832    4.3858 C   0  0  2  0  0  0  0  0  0  0  0  0
   11.5103   -1.2881    4.2967 N   0  0  0  0  0  0  0  0  0  0  0  0
    8.9944    3.3733    2.2204 C   0  0  1  0  0  0  0  0  0  0  0  0
    6.7379    4.8331   -1.3675 C   0  0  1  0  0  0  0  0  0  0  0  0
    9.9604    5.2791    7.0809 C   0  0  2  0  0  0  0  0  0  0  0  0
    9.1791    4.0309    7.0353 N   0  0  0  0  0  0  0  0  0  0  0  0
   12.0160    0.6320    5.8791 C   0  0  0  0  0  0  0  0  0  0  0  0
    7.4851    3.7593    2.1590 C   0  0  2  0  0  0  0  0  0  0  0  0
    6.5907    2.6249    2.0490 O   0  0  0  0  0  0  0  0  0  0  0  0
    6.7430    4.1206   -2.7679 C   0  0  2  0  0  0  0  0  0  0  0  0
    8.1086    3.6192   -3.1064 N   0  0  0  0  0  0  0  0  0  0  0  0
    9.1920    6.3157    6.2407 C   0  0  1  0  0  0  0  0  0  0  0  0
    7.8704    6.4909    6.7540 O   0  0  0  0  0  0  0  0  0  0  0  0
   12.2844    2.1844    5.9054 C   0  0  2  0  0  0  0  0  0  0  0  0
   12.5526    2.6397    7.2962 N   0  0  0  0  0  0  0  0  0  0  0  0
    7.4743    4.7283    0.9757 C   0  0  2  0  0  0  0  0  0  0  0  0
    7.2341    4.0315   -0.2882 O   0  0  0  0  0  0  0  0  0  0  0  0
    6.2122    5.1418   -3.8825 C   0  0  1  0  0  0  0  0  0  0  0  0
    4.7840    5.3006   -3.7285 O   0  0  0  0  0  0  0  0  0  0  0  0
    9.9734    7.6493    6.2265 C   0  0  2  0  0  0  0  0  0  0  0  0
    9.2745    8.6143    5.4750 O   0  0  0  0  0  0  0  0  0  0  0  0
   11.0479    2.9734    5.3185 C   0  0  2  0  0  0  0  0  0  0  0  0
    8.8490    5.4180    0.9792 C   0  0  2  0  0  0  0  0  0  0  0  0
    9.7087    4.4176    1.5201 O   0  0  0  0  0  0  0  0  0  0  0  0
    6.9227    6.5758   -3.8012 C   0  0  2  0  0  0  0  0  0  0  0  0
    8.2808    6.4073   -4.2058 O   0  0  0  0  0  0  0  0  0  0  0  0
   11.3956    7.4013    5.6222 C   0  0  2  0  0  0  0  0  0  0  0  0
   12.0967    6.3900    6.4131 O   0  0  0  0  0  0  0  0  0  0  0  0
   10.6938    2.5456    3.8773 C   0  0  2  0  0  0  0  0  0  0  0  0
    9.4444    3.2246    3.5734 O   0  0  0  0  0  0  0  0  0  0  0  0
    8.9232    6.7335    1.8149 C   0  0  0  0  0  0  0  0  0  0  0  0
    8.6145    6.4448    3.1751 O   0  0  0  0  0  0  0  0  0  0  0  0
    6.8576    7.1459   -2.3339 C   0  0  1  0  0  0  0  0  0  0  0  0
    7.5003    6.1371   -1.4740 O   0  0  0  0  0  0  0  0  0  0  0  0
   12.2349    8.6573    5.5759 C   0  0  0  0  0  0  0  0  0  0  0  0
   13.4352    8.4132    4.8839 O   0  0  0  0  0  0  0  0  0  0  0  0
   10.5114    0.9719    3.8010 C   0  0  1  0  0  0  0  0  0  0  0  0
   10.3339    0.5610    2.4426 O   0  0  0  0  0  0  0  0  0  0  0  0
    7.5710    8.5557   -2.1547 C   0  0  0  0  0  0  0  0  0  0  0  0
    6.8724    9.7130   -2.7787 N   0  0  0  0  0  0  0  0  0  0  0  0
  1  2  1  6  0  0  0
  1  7  1  0  0  0  0
  1 30  1  0  0  0  0
  3  4  1  1  0  0  0
  3  9  1  0  0  0  0
  3 39  1  0  0  0  0
  5 10  1  0  0  0  0
  5 26  1  0  0  0  0
  5 32  1  1  0  0  0
  6 12  1  0  0  0  0
  6 36  1  0  0  0  0
  6 19  1  1  0  0  0
  7  8  1  6  0  0  0
  7 14  1  0  0  0  0
  9 16  1  0  0  0  0
 10 11  1  6  0  0  0
 10 18  1  0  0  0  0
 12 13  1  6  0  0  0
 12 20  1  0  0  0  0
 14 15  1  1  0  0  0
 14 22  1  0  0  0  0
 16 17  1  1  0  0  0
 16 24  1  0  0  0  0
 18 19  1  6  0  0  0
 18 25  1  0  0  0  0
 20 21  1  1  0  0  0
 20 27  1  0  0  0  0
 22 23  1  6  0  0  0
 22 29  1  0  0  0  0
 24  2  1  6  0  0  0
 24 31  1  0  0  0  0
 25 26  1  0  0  0  0
 25 33  1  1  0  0  0
 27 28  1  1  0  0  0
 27 35  1  0  0  0  0
 29 30  1  0  0  0  0
 29 37  1  1  0  0  0
 31 32  1  1  0  0  0
 31 39  1  0  0  0  0
 33 34  1  0  0  0  0
 35 36  1  0  0  0  0
 35 41  1  6  0  0  0
 37 38  1  0  0  0  0
 39 40  1  6  0  0  0
 41 42  1  0  0  0  0
M  END
>  <CHROM.1>
-75.19785062,-70.18162139,158.65395052,169.26324785,60.47592920,-173.07281302
162.48443776,164.06478437,71.21972046,9.27741243,4.84968549,2.44324103,-0.02118062
-1.11536432,0.18709765

>  <Name>
ligand

>  <RI>
0

>  <Rbt.Current_Directory>
/home/itssahil/PROJECTS/Mol_Feturizer/Test_systems_manuscript/rnas/2o3w

>  <Rbt.Executable>
rbdock ($Id: //depot/dev/client3/rdock/2013.1/src/exe/rbdock.cxx#4 $)

>  <Rbt.Library>
libRbt.so (2013.1, Build901 2013/11/27)

>  <Rbt.Parameter_File>
/export/apps/rDock/src/rDock_2013.1_src/data/scripts/dock_solv.prm

>  <Rbt.Receptor>
prm/pocket_docking_7.prm

>  <SCORE>
-10.559

>  <SCORE.INTER>
-1.78228

>  <SCORE.INTER.CONST>
1

>  <SCORE.INTER.POLAR>
0

>  <SCORE.INTER.ROT>
9

>  <SCORE.INTER.SOLV>
17.1771

>  <SCORE.INTER.VDW>
-16.5139

>  <SCORE.INTER.norm>
-0.0424352

>  <SCORE.INTRA>
-8.77671

>  <SCORE.INTRA.DIHEDRAL>
-20.3991

>  <SCORE.INTRA.DIHEDRAL.0>
27.8999

>  <SCORE.INTRA.POLAR>
0

>  <SCORE.INTRA.POLAR.0>
0

>  <SCORE.INTRA.REPUL>
0

>  <SCORE.INTRA.REPUL.0>
0

>  <SCORE.INTRA.SOLV>
-0.620164

>  <SCORE.INTRA.SOLV.lig_0>
-104.479

>  <SCORE.INTRA.VDW>
1.73293

>  <SCORE.INTRA.VDW.0>
-6.17816

>  <SCORE.INTRA.norm>
-0.208969

>  <SCORE.RESTR>
0

>  <SCORE.RESTR.CAVITY>
0

>  <SCORE.RESTR.norm>
0

>  <SCORE.SYSTEM>
0

>  <SCORE.SYSTEM.CONST>
0

>  <SCORE.SYSTEM.DIHEDRAL>
0

>  <SCORE.SYSTEM.SOLV>
0

>  <SCORE.SYSTEM.norm>
0

>  <SCORE.heavy>
42

>  <SCORE.norm>
-0.251404

>  <RMSD>
6.573

$$$$
ligand
 OpenBabel02271912133D
libRbt.so/2013.1/901 2013/11/27
 42 45  0  0  0  0  0  0  0  0999 V2000
    9.0263    4.2203    4.1275 C   0  0  2  0  0  0  0  0  0  0  0  0
    9.6556    5.0780    3.1603 O   0  0  0  0  0  0  0  0  0  0  0  0
    8.0936    8.3263    0.7510 C   0  0  2  0  0  0  0  0  0  0  0  0
    7.2757    9.1252   -0.2099 N   0  0  0  0  0  0  0  0  0  0  0  0
    6.0513    5.2163    3.1829 C   0  0  1  0  0  0  0  0  0  0  0  0
    2.3381    3.1772    2.2398 C   0  0  1  0  0  0  0  0  0  0  0  0
   10.1583    3.6457    5.0310 C   0  0  2  0  0  0  0  0  0  0  0  0
   11.0584    4.6940    5.5423 N   0  0  0  0  0  0  0  0  0  0  0  0
    8.8920    7.1794    0.0101 C   0  0  0  0  0  0  0  0  0  0  0  0
    5.2929    4.4064    4.2782 C   0  0  2  0  0  0  0  0  0  0  0  0
    5.8608    3.1003    4.5444 O   0  0  0  0  0  0  0  0  0  0  0  0
    1.9873    1.7767    1.6200 C   0  0  2  0  0  0  0  0  0  0  0  0
    3.0295    1.3517    0.6381 N   0  0  0  0  0  0  0  0  0  0  0  0
   11.0403    2.6269    4.2859 C   0  0  1  0  0  0  0  0  0  0  0  0
   12.0374    2.0979    5.1615 O   0  0  0  0  0  0  0  0  0  0  0  0
    9.7500    6.3889    1.0690 C   0  0  2  0  0  0  0  0  0  0  0  0
   10.5271    5.3090    0.4030 N   0  0  0  0  0  0  0  0  0  0  0  0
    3.8701    4.4080    3.7170 C   0  0  2  0  0  0  0  0  0  0  0  0
    3.6313    3.2517    2.8529 O   0  0  0  0  0  0  0  0  0  0  0  0
    0.5430    1.8505    0.9304 C   0  0  1  0  0  0  0  0  0  0  0  0
   -0.4668    1.8860    1.9638 O   0  0  0  0  0  0  0  0  0  0  0  0
   10.1512    1.5062    3.7004 C   0  0  2  0  0  0  0  0  0  0  0  0
   10.9456    0.5561    3.0291 O   0  0  0  0  0  0  0  0  0  0  0  0
    8.8212    5.7635    2.1835 C   0  0  2  0  0  0  0  0  0  0  0  0
    3.7225    5.7258    2.9379 C   0  0  2  0  0  0  0  0  0  0  0  0
    5.0460    5.9707    2.4678 O   0  0  0  0  0  0  0  0  0  0  0  0
    0.3752    3.1244   -0.0270 C   0  0  2  0  0  0  0  0  0  0  0  0
    1.2137    2.9224   -1.1639 O   0  0  0  0  0  0  0  0  0  0  0  0
    9.1055    2.1415    2.7245 C   0  0  2  0  0  0  0  0  0  0  0  0
    8.3004    3.1300    3.4417 O   0  0  0  0  0  0  0  0  0  0  0  0
    7.9663    6.8222    2.9139 C   0  0  2  0  0  0  0  0  0  0  0  0
    7.0559    6.0630    3.7562 O   0  0  0  0  0  0  0  0  0  0  0  0
    3.1929    6.9302    3.7764 C   0  0  0  0  0  0  0  0  0  0  0  0
    1.9611    6.5684    4.3934 O   0  0  0  0  0  0  0  0  0  0  0  0
    0.7879    4.4446    0.7272 C   0  0  1  0  0  0  0  0  0  0  0  0
    2.1764    4.2426    1.1759 O   0  0  0  0  0  0  0  0  0  0  0  0
    8.1857    1.1130    2.1080 C   0  0  0  0  0  0  0  0  0  0  0  0
    7.4547    0.4523    3.1123 O   0  0  0  0  0  0  0  0  0  0  0  0
    7.1625    7.6983    1.8642 C   0  0  1  0  0  0  0  0  0  0  0  0
    6.4913    8.7722    2.5289 O   0  0  0  0  0  0  0  0  0  0  0  0
    0.6835    5.7584   -0.1627 C   0  0  0  0  0  0  0  0  0  0  0  0
   -0.6794    6.0891   -0.6623 N   0  0  0  0  0  0  0  0  0  0  0  0
  1  2  1  6  0  0  0
  1  7  1  0  0  0  0
  1 30  1  0  0  0  0
  3  4  1  6  0  0  0
  3  9  1  0  0  0  0
  3 39  1  0  0  0  0
  5 10  1  0  0  0  0
  5 26  1  0  0  0  0
  5 32  1  1  0  0  0
  6 12  1  0  0  0  0
  6 36  1  0  0  0  0
  6 19  1  6  0  0  0
  7  8  1  6  0  0  0
  7 14  1  0  0  0  0
  9 16  1  0  0  0  0
 10 11  1  6  0  0  0
 10 18  1  0  0  0  0
 12 13  1  6  0  0  0
 12 20  1  0  0  0  0
 14 15  1  1  0  0  0
 14 22  1  0  0  0  0
 16 17  1  6  0  0  0
 16 24  1  0  0  0  0
 18 19  1  6  0  0  0
 18 25  1  0  0  0  0
 20 21  1  1  0  0  0
 20 27  1  0  0  0  0
 22 23  1  6  0  0  0
 22 29  1  0  0  0  0
 24  2  1  1  0  0  0
 24 31  1  0  0  0  0
 25 26  1  0  0  0  0
 25 33  1  1  0  0  0
 27 28  1  6  0  0  0
 27 35  1  0  0  0  0
 29 30  1  0  0  0  0
 29 37  1  1  0  0  0
 31 32  1  1  0  0  0
 31 39  1  0  0  0  0
 33 34  1  0  0  0  0
 35 36  1  0  0  0  0
 35 41  1  6  0  0  0
 37 38  1  0  0  0  0
 39 40  1  1  0  0  0
 41 42  1  0  0  0  0
M  END
>  <CHROM.1>
-179.54864455,-168.40275014,-178.14856154,-165.56063817,-54.78914008,60.91464457
-65.60466672,174.54778891,61.75577350,5.93517421,4.37821373,2.40240077,0.06873428
0.24650050,2.92392936

>  <Name>
ligand

>  <RI>
0

>  <Rbt.Current_Directory>
/home/itssahil/PROJECTS/Mol_Feturizer/Test_systems_manuscript/rnas/2o3w

>  <Rbt.Executable>
rbdock ($Id: //depot/dev/client3/rdock/2013.1/src/exe/rbdock.cxx#4 $)

>  <Rbt.Library>
libRbt.so (2013.1, Build901 2013/11/27)

>  <Rbt.Parameter_File>
/export/apps/rDock/src/rDock_2013.1_src/data/scripts/dock_solv.prm

>  <Rbt.Receptor>
prm/pocket_docking_6.prm

>  <SCORE>
-13.8167

>  <SCORE.INTER>
-0.94483

>  <SCORE.INTER.CONST>
1

>  <SCORE.INTER.POLAR>
0

>  <SCORE.INTER.ROT>
9

>  <SCORE.INTER.SOLV>
16.961

>  <SCORE.INTER.VDW>
-15.8836

>  <SCORE.INTER.norm>
-0.0224959

>  <SCORE.INTRA>
-12.8718

>  <SCORE.INTRA.DIHEDRAL>
-25.7238

>  <SCORE.INTRA.DIHEDRAL.0>
27.8999

>  <SCORE.INTRA.POLAR>
0

>  <SCORE.INTRA.POLAR.0>
0

>  <SCORE.INTRA.REPUL>
0

>  <SCORE.INTRA.REPUL.0>
0

>  <SCORE.INTRA.SOLV>
-4.34477

>  <SCORE.INTRA.SOLV.lig_0>
-104.479

>  <SCORE.INTRA.VDW>
2.16248

>  <SCORE.INTRA.VDW.0>
-6.17816

>  <SCORE.INTRA.norm>
-0.306472

>  <SCORE.RESTR>
0

>  <SCORE.RESTR.CAVITY>
0

>  <SCORE.RESTR.norm>
0

>  <SCORE.SYSTEM>
0

>  <SCORE.SYSTEM.CONST>
0

>  <SCORE.SYSTEM.DIHEDRAL>
0

>  <SCORE.SYSTEM.SOLV>
0

>  <SCORE.SYSTEM.norm>
0

>  <SCORE.heavy>
42

>  <SCORE.norm>
-0.328968

>  <RMSD>
6.597

$$$$
ligand
 OpenBabel02271912133D
libRbt.so/2013.1/901 2013/11/27
 42 45  0  0  0  0  0  0  0  0999 V2000
    9.3928    2.7323    5.7705 C   0  0  2  0  0  0  0  0  0  0  0  0
   10.2192    1.5604    5.8754 O   0  0  0  0  0  0  0  0  0  0  0  0
    9.0253   -2.6061    5.7724 C   0  0  2  0  0  0  0  0  0  0  0  0
    8.4170   -3.9255    6.1185 N   0  0  0  0  0  0  0  0  0  0  0  0
    6.2779    0.9738    4.7054 C   0  0  1  0  0  0  0  0  0  0  0  0
    2.9810    2.2095    2.0754 C   0  0  1  0  0  0  0  0  0  0  0  0
   10.3457    3.9405    5.5248 C   0  0  2  0  0  0  0  0  0  0  0  0
   11.3041    3.6900    4.4342 N   0  0  0  0  0  0  0  0  0  0  0  0
   10.1152   -2.1797    6.8364 C   0  0  0  0  0  0  0  0  0  0  0  0
    5.4074    2.2357    4.9898 C   0  0  2  0  0  0  0  0  0  0  0  0
    4.3935    2.0355    6.0052 O   0  0  0  0  0  0  0  0  0  0  0  0
    1.4977    1.7068    1.9492 C   0  0  2  0  0  0  0  0  0  0  0  0
    1.4124    0.2335    2.1794 N   0  0  0  0  0  0  0  0  0  0  0  0
   11.1750    4.2940    6.7731 C   0  0  1  0  0  0  0  0  0  0  0  0
   12.0030    5.4292    6.5151 O   0  0  0  0  0  0  0  0  0  0  0  0
   10.7344   -0.7962    6.4063 C   0  0  2  0  0  0  0  0  0  0  0  0
   11.7763   -0.3707    7.3794 N   0  0  0  0  0  0  0  0  0  0  0  0
    4.8867    2.5593    3.5886 C   0  0  2  0  0  0  0  0  0  0  0  0
    3.6188    1.8818    3.3161 O   0  0  0  0  0  0  0  0  0  0  0  0
    0.9283    2.0973    0.5034 C   0  0  1  0  0  0  0  0  0  0  0  0
    0.6756    3.5199    0.4694 O   0  0  0  0  0  0  0  0  0  0  0  0
   10.2268    4.5468    7.9674 C   0  0  2  0  0  0  0  0  0  0  0  0
   10.9699    4.8882    9.1144 O   0  0  0  0  0  0  0  0  0  0  0  0
    9.6118    0.3115    6.3133 C   0  0  2  0  0  0  0  0  0  0  0  0
    5.9836    2.1026    2.6121 C   0  0  2  0  0  0  0  0  0  0  0  0
    6.5792    0.9997    3.2913 O   0  0  0  0  0  0  0  0  0  0  0  0
    1.9267    1.7017   -0.6859 C   0  0  2  0  0  0  0  0  0  0  0  0
    1.9493    0.2776   -0.7738 O   0  0  0  0  0  0  0  0  0  0  0  0
    9.3741    3.2597    8.2236 C   0  0  2  0  0  0  0  0  0  0  0  0
    8.6201    2.9207    7.0168 O   0  0  0  0  0  0  0  0  0  0  0  0
    8.4803   -0.0634    5.3312 C   0  0  2  0  0  0  0  0  0  0  0  0
    7.4640    0.9610    5.5104 O   0  0  0  0  0  0  0  0  0  0  0  0
    7.0483    3.1886    2.2638 C   0  0  0  0  0  0  0  0  0  0  0  0
    8.0359    2.6217    1.4080 O   0  0  0  0  0  0  0  0  0  0  0  0
    3.3749    2.2536   -0.4026 C   0  0  1  0  0  0  0  0  0  0  0  0
    3.7798    1.6919    0.8977 O   0  0  0  0  0  0  0  0  0  0  0  0
    8.4098    3.4208    9.3760 C   0  0  0  0  0  0  0  0  0  0  0  0
    7.6898    2.2289    9.5761 O   0  0  0  0  0  0  0  0  0  0  0  0
    7.9012   -1.4976    5.6827 C   0  0  1  0  0  0  0  0  0  0  0  0
    6.9616   -1.9082    4.6857 O   0  0  0  0  0  0  0  0  0  0  0  0
    4.4416    1.8769   -1.5202 C   0  0  0  0  0  0  0  0  0  0  0  0
    4.6756    0.4202   -1.7196 N   0  0  0  0  0  0  0  0  0  0  0  0
  1  2  1  1  0  0  0
  1  7  1  0  0  0  0
  1 30  1  0  0  0  0
  3  4  1  1  0  0  0
  3  9  1  0  0  0  0
  3 39  1  0  0  0  0
  5 10  1  0  0  0  0
  5 26  1  0  0  0  0
  5 32  1  1  0  0  0
  6 12  1  0  0  0  0
  6 36  1  0  0  0  0
  6 19  1  1  0  0  0
  7  8  1  6  0  0  0
  7 14  1  0  0  0  0
  9 16  1  0  0  0  0
 10 11  1  1  0  0  0
 10 18  1  0  0  0  0
 12 13  1  6  0  0  0
 12 20  1  0  0  0  0
 14 15  1  6  0  0  0
 14 22  1  0  0  0  0
 16 17  1  1  0  0  0
 16 24  1  0  0  0  0
 18 19  1  6  0  0  0
 18 25  1  0  0  0  0
 20 21  1  1  0  0  0
 20 27  1  0  0  0  0
 22 23  1  1  0  0  0
 22 29  1  0  0  0  0
 24  2  1  6  0  0  0
 24 31  1  0  0  0  0
 25 26  1  0  0  0  0
 25 33  1  1  0  0  0
 27 28  1  1  0  0  0
 27 35  1  0  0  0  0
 29 30  1  0  0  0  0
 29 37  1  1  0  0  0
 31 32  1  1  0  0  0
 31 39  1  0  0  0  0
 33 34  1  0  0  0  0
 35 36  1  0  0  0  0
 35 41  1  6  0  0  0
 37 38  1  0  0  0  0
 39 40  1  6  0  0  0
 41 42  1  0  0  0  0
M  END
>  <CHROM.1>
170.53294323,-177.49797190,174.62432551,-167.78259191,177.22484279,-178.91214382
176.94634658,-174.70744793,-61.11480793,6.89737133,1.62504650,4.32444802
0.04631820,-0.73298559,-0.00506839

>  <Name>
ligand

>  <RI>
0

>  <Rbt.Current_Directory>
/home/itssahil/PROJECTS/Mol_Feturizer/Test_systems_manuscript/rnas/2o3w

>  <Rbt.Executable>
rbdock ($Id: //depot/dev/client3/rdock/2013.1/src/exe/rbdock.cxx#4 $)

>  <Rbt.Library>
libRbt.so (2013.1, Build901 2013/11/27)

>  <Rbt.Parameter_File>
/export/apps/rDock/src/rDock_2013.1_src/data/scripts/dock_solv.prm

>  <Rbt.Receptor>
prm/pocket_docking_8.prm

>  <SCORE>
-13.6675

>  <SCORE.INTER>
-0.690613

>  <SCORE.INTER.CONST>
1

>  <SCORE.INTER.POLAR>
0

>  <SCORE.INTER.ROT>
9

>  <SCORE.INTER.SOLV>
17.7589

>  <SCORE.INTER.VDW>
-15.98

>  <SCORE.INTER.norm>
-0.0164432

>  <SCORE.INTRA>
-12.9769

>  <SCORE.INTRA.DIHEDRAL>
-26.2207

>  <SCORE.INTRA.DIHEDRAL.0>
27.8999

>  <SCORE.INTRA.POLAR>
0

>  <SCORE.INTRA.POLAR.0>
0

>  <SCORE.INTRA.REPUL>
0

>  <SCORE.INTRA.REPUL.0>
0

>  <SCORE.INTRA.SOLV>
-4.87365

>  <SCORE.INTRA.SOLV.lig_0>
-104.479

>  <SCORE.INTRA.VDW>
2.57027

>  <SCORE.INTRA.VDW.0>
-6.17816

>  <SCORE.INTRA.norm>
-0.308974

>  <SCORE.RESTR>
0

>  <SCORE.RESTR.CAVITY>
0

>  <SCORE.RESTR.norm>
0

>  <SCORE.SYSTEM>
0

>  <SCORE.SYSTEM.CONST>
0

>  <SCORE.SYSTEM.DIHEDRAL>
0

>  <SCORE.SYSTEM.SOLV>
0

>  <SCORE.SYSTEM.norm>
0

>  <SCORE.heavy>
42

>  <SCORE.norm>
-0.325417

>  <RMSD>
6.618

$$$$
ligand
 OpenBabel02271912133D
libRbt.so/2013.1/901 2013/11/27
 42 45  0  0  0  0  0  0  0  0999 V2000
    3.3497    0.7396    4.0124 C   0  0  2  0  0  0  0  0  0  0  0  0
    2.9348    0.8142    2.6377 O   0  0  0  0  0  0  0  0  0  0  0  0
    1.2511    3.9102    0.1127 C   0  0  2  0  0  0  0  0  0  0  0  0
    0.4251    5.0470   -0.3932 N   0  0  0  0  0  0  0  0  0  0  0  0
    4.1839    4.7104    3.5570 C   0  0  1  0  0  0  0  0  0  0  0  0
    5.7580    7.2790    3.3729 C   0  0  1  0  0  0  0  0  0  0  0  0
    4.4101   -0.3983    4.1065 C   0  0  2  0  0  0  0  0  0  0  0  0
    5.4669   -0.2699    3.0880 N   0  0  0  0  0  0  0  0  0  0  0  0
    0.3569    2.6410    0.4151 C   0  0  0  0  0  0  0  0  0  0  0  0
    3.4965    5.6787    4.5674 C   0  0  2  0  0  0  0  0  0  0  0  0
    2.6477    6.6743    3.9451 O   0  0  0  0  0  0  0  0  0  0  0  0
    7.2019    6.6633    3.3027 C   0  0  2  0  0  0  0  0  0  0  0  0
    8.1617    7.4590    4.1252 N   0  0  0  0  0  0  0  0  0  0  0  0
    3.7864   -1.7946    3.9266 C   0  0  1  0  0  0  0  0  0  0  0  0
    4.7858   -2.8067    4.0597 O   0  0  0  0  0  0  0  0  0  0  0  0
    1.2843    1.4725    0.9221 C   0  0  2  0  0  0  0  0  0  0  0  0
    0.4762    0.2553    1.2030 N   0  0  0  0  0  0  0  0  0  0  0  0
    4.7069    6.2224    5.3281 C   0  0  2  0  0  0  0  0  0  0  0  0
    5.2383    7.4321    4.6996 O   0  0  0  0  0  0  0  0  0  0  0  0
    7.6737    6.5950    1.7731 C   0  0  1  0  0  0  0  0  0  0  0  0
    6.9549    5.5311    1.1095 O   0  0  0  0  0  0  0  0  0  0  0  0
    2.6479   -1.9870    4.9542 C   0  0  2  0  0  0  0  0  0  0  0  0
    2.0774   -3.2674    4.8137 O   0  0  0  0  0  0  0  0  0  0  0  0
    2.0622    1.9053    2.2273 C   0  0  2  0  0  0  0  0  0  0  0  0
    5.7496    5.0918    5.3307 C   0  0  2  0  0  0  0  0  0  0  0  0
    5.4879    4.4109    4.1058 O   0  0  0  0  0  0  0  0  0  0  0  0
    7.4386    7.9717    0.9876 C   0  0  2  0  0  0  0  0  0  0  0  0
    8.3537    8.9309    1.5159 O   0  0  0  0  0  0  0  0  0  0  0  0
    1.5695   -0.8740    4.7358 C   0  0  2  0  0  0  0  0  0  0  0  0
    2.1875    0.4443    4.8771 O   0  0  0  0  0  0  0  0  0  0  0  0
    2.9159    3.1758    2.0222 C   0  0  2  0  0  0  0  0  0  0  0  0
    3.4015    3.5277    3.3469 O   0  0  0  0  0  0  0  0  0  0  0  0
    5.6598    4.1166    6.5452 C   0  0  0  0  0  0  0  0  0  0  0  0
    4.3432    3.5782    6.6200 O   0  0  0  0  0  0  0  0  0  0  0  0
    5.9563    8.4719    1.1740 C   0  0  1  0  0  0  0  0  0  0  0  0
    5.7462    8.5967    2.6268 O   0  0  0  0  0  0  0  0  0  0  0  0
    0.4168   -0.9826    5.7069 C   0  0  0  0  0  0  0  0  0  0  0  0
   -0.2781   -2.1886    5.5018 O   0  0  0  0  0  0  0  0  0  0  0  0
    2.0267    4.3435    1.4209 C   0  0  1  0  0  0  0  0  0  0  0  0
    2.8466    5.4678    1.0902 O   0  0  0  0  0  0  0  0  0  0  0  0
    5.6438    9.8543    0.4528 C   0  0  0  0  0  0  0  0  0  0  0  0
    5.6835    9.8257   -1.0352 N   0  0  0  0  0  0  0  0  0  0  0  0
  1  2  1  6  0  0  0
  1  7  1  0  0  0  0
  1 30  1  0  0  0  0
  3  4  1  1  0  0  0
  3  9  1  0  0  0  0
  3 39  1  0  0  0  0
  5 10  1  0  0  0  0
  5 26  1  0  0  0  0
  5 32  1  1  0  0  0
  6 12  1  0  0  0  0
  6 36  1  0  0  0  0
  6 19  1  1  0  0  0
  7  8  1  6  0  0  0
  7 14  1  0  0  0  0
  9 16  1  0  0  0  0
 10 11  1  6  0  0  0
 10 18  1  0  0  0  0
 12 13  1  1  0  0  0
 12 20  1  0  0  0  0
 14 15  1  1  0  0  0
 14 22  1  0  0  0  0
 16 17  1  1  0  0  0
 16 24  1  0  0  0  0
 18 19  1  6  0  0  0
 18 25  1  0  0  0  0
 20 21  1  6  0  0  0
 20 27  1  0  0  0  0
 22 23  1  6  0  0  0
 22 29  1  0  0  0  0
 24  2  1  6  0  0  0
 24 31  1  0  0  0  0
 25 26  1  0  0  0  0
 25 33  1  1  0  0  0
 27 28  1  1  0  0  0
 27 35  1  0  0  0  0
 29 30  1  0  0  0  0
 29 37  1  1  0  0  0
 31 32  1  1  0  0  0
 31 39  1  0  0  0  0
 33 34  1  0  0  0  0
 35 36  1  0  0  0  0
 35 41  1  6  0  0  0
 37 38  1  0  0  0  0
 39 40  1  6  0  0  0
 41 42  1  0  0  0  0
M  END
>  <CHROM.1>
-172.64363279,-156.77193088,-63.40923907,-79.06630063,55.23253476,-63.87474865
-176.80011632,120.47848155,66.75714270,3.96440367,3.65984913,3.09629095,-2.12978454
-0.69205502,-0.60545239

>  <Name>
ligand

>  <RI>
0

>  <Rbt.Current_Directory>
/home/itssahil/PROJECTS/Mol_Feturizer/Test_systems_manuscript/rnas/2o3w

>  <Rbt.Executable>
rbdock ($Id: //depot/dev/client3/rdock/2013.1/src/exe/rbdock.cxx#4 $)

>  <Rbt.Library>
libRbt.so (2013.1, Build901 2013/11/27)

>  <Rbt.Parameter_File>
/export/apps/rDock/src/rDock_2013.1_src/data/scripts/dock_solv.prm

>  <Rbt.Receptor>
prm/pocket_docking_6.prm

>  <SCORE>
-13.8225

>  <SCORE.INTER>
-7.0293

>  <SCORE.INTER.CONST>
1

>  <SCORE.INTER.POLAR>
0

>  <SCORE.INTER.ROT>
9

>  <SCORE.INTER.SOLV>
13.561

>  <SCORE.INTER.VDW>
-18.8065

>  <SCORE.INTER.norm>
-0.167364

>  <SCORE.INTRA>
-6.79318

>  <SCORE.INTRA.DIHEDRAL>
-15.9317

>  <SCORE.INTRA.DIHEDRAL.0>
27.8999

>  <SCORE.INTRA.POLAR>
0

>  <SCORE.INTRA.POLAR.0>
0

>  <SCORE.INTRA.REPUL>
0.0319101

>  <SCORE.INTRA.REPUL.0>
0

>  <SCORE.INTRA.SOLV>
-2.60173

>  <SCORE.INTRA.SOLV.lig_0>
-104.479

>  <SCORE.INTRA.VDW>
2.31396

>  <SCORE.INTRA.VDW.0>
-6.17816

>  <SCORE.INTRA.norm>
-0.161742

>  <SCORE.RESTR>
0

>  <SCORE.RESTR.CAVITY>
0

>  <SCORE.RESTR.norm>
0

>  <SCORE.SYSTEM>
0

>  <SCORE.SYSTEM.CONST>
0

>  <SCORE.SYSTEM.DIHEDRAL>
0

>  <SCORE.SYSTEM.SOLV>
0

>  <SCORE.SYSTEM.norm>
0

>  <SCORE.heavy>
42

>  <SCORE.norm>
-0.329107

>  <RMSD>
6.653

$$$$
ligand
 OpenBabel02271912133D
libRbt.so/2013.1/901 2013/11/27
 42 45  0  0  0  0  0  0  0  0999 V2000
    4.3684    0.5102    4.0340 C   0  0  2  0  0  0  0  0  0  0  0  0
    3.2697    1.3548    3.6511 O   0  0  0  0  0  0  0  0  0  0  0  0
    1.4382   -1.2464    0.7056 C   0  0  2  0  0  0  0  0  0  0  0  0
    0.4696   -1.8585   -0.2522 N   0  0  0  0  0  0  0  0  0  0  0  0
    3.8302    3.0359    0.3759 C   0  0  1  0  0  0  0  0  0  0  0  0
    6.2840    5.2216   -2.4844 C   0  0  1  0  0  0  0  0  0  0  0  0
    5.3845    1.4064    4.8038 C   0  0  2  0  0  0  0  0  0  0  0  0
    4.7431    2.2028    5.8645 N   0  0  0  0  0  0  0  0  0  0  0  0
    0.9053   -1.3294    2.1925 C   0  0  0  0  0  0  0  0  0  0  0  0
    3.8470    2.6458   -1.1335 C   0  0  2  0  0  0  0  0  0  0  0  0
    4.6649    1.4883   -1.4339 O   0  0  0  0  0  0  0  0  0  0  0  0
    7.7903    5.1217   -2.9200 C   0  0  2  0  0  0  0  0  0  0  0  0
    8.6520    4.7123   -1.7707 N   0  0  0  0  0  0  0  0  0  0  0  0
    6.1065    2.4007    3.8760 C   0  0  1  0  0  0  0  0  0  0  0  0
    7.0546    3.1723    4.6153 O   0  0  0  0  0  0  0  0  0  0  0  0
    1.9766   -0.6903    3.1550 C   0  0  2  0  0  0  0  0  0  0  0  0
    1.5133   -0.7646    4.5670 N   0  0  0  0  0  0  0  0  0  0  0  0
    4.2973    3.9593   -1.7748 C   0  0  2  0  0  0  0  0  0  0  0  0
    5.7542    4.0300   -1.8902 O   0  0  0  0  0  0  0  0  0  0  0  0
    8.2619    6.5306   -3.5196 C   0  0  1  0  0  0  0  0  0  0  0  0
    7.6719    6.7026   -4.8278 O   0  0  0  0  0  0  0  0  0  0  0  0
    6.7847    1.6291    2.7211 C   0  0  2  0  0  0  0  0  0  0  0  0
    7.4644    2.5240    1.8716 O   0  0  0  0  0  0  0  0  0  0  0  0
    2.2476    0.8163    2.7647 C   0  0  2  0  0  0  0  0  0  0  0  0
    3.7549    5.0802   -0.8722 C   0  0  2  0  0  0  0  0  0  0  0  0
    3.7540    4.4793    0.4206 O   0  0  0  0  0  0  0  0  0  0  0  0
    7.8630    7.7693   -2.5847 C   0  0  2  0  0  0  0  0  0  0  0  0
    8.6598    7.6917   -1.4034 O   0  0  0  0  0  0  0  0  0  0  0  0
    5.6940    0.8344    1.9283 C   0  0  2  0  0  0  0  0  0  0  0  0
    4.9968   -0.0797    2.8328 O   0  0  0  0  0  0  0  0  0  0  0  0
    2.7188    0.9808    1.3031 C   0  0  2  0  0  0  0  0  0  0  0  0
    2.7383    2.4156    1.0672 O   0  0  0  0  0  0  0  0  0  0  0  0
    2.3332    5.5999   -1.2505 C   0  0  0  0  0  0  0  0  0  0  0  0
    1.9763    6.6696   -0.3803 O   0  0  0  0  0  0  0  0  0  0  0  0
    6.3325    7.7161   -2.2146 C   0  0  1  0  0  0  0  0  0  0  0  0
    6.1138    6.4123   -1.5645 O   0  0  0  0  0  0  0  0  0  0  0  0
    6.2724    0.0419    0.7790 C   0  0  0  0  0  0  0  0  0  0  0  0
    5.2518   -0.6597    0.1115 O   0  0  0  0  0  0  0  0  0  0  0  0
    1.7063    0.2625    0.3158 C   0  0  1  0  0  0  0  0  0  0  0  0
    2.2197    0.2840   -1.0190 O   0  0  0  0  0  0  0  0  0  0  0  0
    5.8562    8.8938   -1.2582 C   0  0  0  0  0  0  0  0  0  0  0  0
    6.5118    8.9413    0.0777 N   0  0  0  0  0  0  0  0  0  0  0  0
  1  2  1  6  0  0  0
  1  7  1  0  0  0  0
  1 30  1  0  0  0  0
  3  4  1  6  0  0  0
  3  9  1  0  0  0  0
  3 39  1  0  0  0  0
  5 10  1  0  0  0  0
  5 26  1  0  0  0  0
  5 32  1  1  0  0  0
  6 12  1  0  0  0  0
  6 36  1  0  0  0  0
  6 19  1  1  0  0  0
  7  8  1  1  0  0  0
  7 14  1  0  0  0  0
  9 16  1  0  0  0  0
 10 11  1  1  0  0  0
 10 18  1  0  0  0  0
 12 13  1  1  0  0  0
 12 20  1  0  0  0  0
 14 15  1  1  0  0  0
 14 22  1  0  0  0  0
 16 17  1  1  0  0  0
 16 24  1  0  0  0  0
 18 19  1  1  0  0  0
 18 25  1  0  0  0  0
 20 21  1  6  0  0  0
 20 27  1  0  0  0  0
 22 23  1  6  0  0  0
 22 29  1  0  0  0  0
 24  2  1  1  0  0  0
 24 31  1  0  0  0  0
 25 26  1  0  0  0  0
 25 33  1  6  0  0  0
 27 28  1  1  0  0  0
 27 35  1  0  0  0  0
 29 30  1  0  0  0  0
 29 37  1  6  0  0  0
 31 32  1  6  0  0  0
 31 39  1  0  0  0  0
 33 34  1  0  0  0  0
 35 36  1  0  0  0  0
 35 41  1  1  0  0  0
 37 38  1  0  0  0  0
 39 40  1  6  0  0  0
 41 42  1  0  0  0  0
M  END
>  <CHROM.1>
172.17694628,38.39754601,179.77525565,-165.42993898,-177.41437958,179.47451777
136.46422229,69.53262715,-61.45660354,4.76692766,3.04129456,0.44948693,-2.14665387
-0.67865713,-0.98990856

>  <Name>
ligand

>  <RI>
0

>  <Rbt.Current_Directory>
/home/itssahil/PROJECTS/Mol_Feturizer/Test_systems_manuscript/rnas/2o3w

>  <Rbt.Executable>
rbdock ($Id: //depot/dev/client3/rdock/2013.1/src/exe/rbdock.cxx#4 $)

>  <Rbt.Library>
libRbt.so (2013.1, Build901 2013/11/27)

>  <Rbt.Parameter_File>
/export/apps/rDock/src/rDock_2013.1_src/data/scripts/dock_solv.prm

>  <Rbt.Receptor>
prm/pocket_docking_6.prm

>  <SCORE>
-7.13771

>  <SCORE.INTER>
1.84859

>  <SCORE.INTER.CONST>
1

>  <SCORE.INTER.POLAR>
0

>  <SCORE.INTER.ROT>
9

>  <SCORE.INTER.SOLV>
16.6361

>  <SCORE.INTER.VDW>
-13.913

>  <SCORE.INTER.norm>
0.044014

>  <SCORE.INTRA>
-8.9863

>  <SCORE.INTRA.DIHEDRAL>
-18.0154

>  <SCORE.INTRA.DIHEDRAL.0>
27.8999

>  <SCORE.INTRA.POLAR>
0

>  <SCORE.INTRA.POLAR.0>
0

>  <SCORE.INTRA.REPUL>
0.0120955

>  <SCORE.INTRA.REPUL.0>
0

>  <SCORE.INTRA.SOLV>
-1.62055

>  <SCORE.INTRA.SOLV.lig_0>
-104.479

>  <SCORE.INTRA.VDW>
0.771211

>  <SCORE.INTRA.VDW.0>
-6.17816

>  <SCORE.INTRA.norm>
-0.21396

>  <SCORE.RESTR>
0

>  <SCORE.RESTR.CAVITY>
0

>  <SCORE.RESTR.norm>
0

>  <SCORE.SYSTEM>
0

>  <SCORE.SYSTEM.CONST>
0

>  <SCORE.SYSTEM.DIHEDRAL>
0

>  <SCORE.SYSTEM.SOLV>
0

>  <SCORE.SYSTEM.norm>
0

>  <SCORE.heavy>
42

>  <SCORE.norm>
-0.169946

>  <RMSD>
6.781

$$$$
ligand
 OpenBabel02271912133D
libRbt.so/2013.1/901 2013/11/27
 42 45  0  0  0  0  0  0  0  0999 V2000
    8.7433    4.6398    3.2522 C   0  0  2  0  0  0  0  0  0  0  0  0
    8.9751    3.8828    2.0520 O   0  0  0  0  0  0  0  0  0  0  0  0
    7.8656    6.9427   -0.8118 C   0  0  2  0  0  0  0  0  0  0  0  0
    7.6452    7.6955   -2.0827 N   0  0  0  0  0  0  0  0  0  0  0  0
    5.5257    3.0743   -0.2472 C   0  0  1  0  0  0  0  0  0  0  0  0
    2.6466    3.1512   -1.1386 C   0  0  1  0  0  0  0  0  0  0  0  0
    8.9385    3.6634    4.4509 C   0  0  2  0  0  0  0  0  0  0  0  0
   10.1997    2.9071    4.3623 N   0  0  0  0  0  0  0  0  0  0  0  0
    9.4069    6.7147   -0.5396 C   0  0  0  0  0  0  0  0  0  0  0  0
    5.5536    2.6518   -1.7477 C   0  0  2  0  0  0  0  0  0  0  0  0
    5.4006    3.7556   -2.6737 O   0  0  0  0  0  0  0  0  0  0  0  0
    1.8337    2.5245    0.0511 C   0  0  2  0  0  0  0  0  0  0  0  0
    0.7041    1.6893   -0.4562 N   0  0  0  0  0  0  0  0  0  0  0  0
    7.8043    2.6268    4.5508 C   0  0  1  0  0  0  0  0  0  0  0  0
    8.0029    1.7800    5.6841 O   0  0  0  0  0  0  0  0  0  0  0  0
    9.5754    5.9383    0.8211 C   0  0  2  0  0  0  0  0  0  0  0  0
   11.0170    5.7188    1.1165 N   0  0  0  0  0  0  0  0  0  0  0  0
    4.4430    1.6008   -1.7810 C   0  0  2  0  0  0  0  0  0  0  0  0
    3.1440    2.2001   -2.0881 O   0  0  0  0  0  0  0  0  0  0  0  0
    1.2999    3.6978    1.0027 C   0  0  1  0  0  0  0  0  0  0  0  0
    2.4114    4.2281    1.7590 O   0  0  0  0  0  0  0  0  0  0  0  0
    6.4437    3.3565    4.6231 C   0  0  2  0  0  0  0  0  0  0  0  0
    5.3957    2.4215    4.7318 O   0  0  0  0  0  0  0  0  0  0  0  0
    8.8281    4.5475    0.7649 C   0  0  2  0  0  0  0  0  0  0  0  0
    4.4387    0.9435   -0.3906 C   0  0  2  0  0  0  0  0  0  0  0  0
    4.8720    1.9986    0.4646 O   0  0  0  0  0  0  0  0  0  0  0  0
    0.5902    4.8829    0.1906 C   0  0  2  0  0  0  0  0  0  0  0  0
   -0.6356    4.3729   -0.3327 O   0  0  0  0  0  0  0  0  0  0  0  0
    6.2681    4.2374    3.3414 C   0  0  2  0  0  0  0  0  0  0  0  0
    7.3720    5.1924    3.2459 O   0  0  0  0  0  0  0  0  0  0  0  0
    7.3235    4.6885    0.4459 C   0  0  2  0  0  0  0  0  0  0  0  0
    6.8451    3.3291    0.2519 O   0  0  0  0  0  0  0  0  0  0  0  0
    5.3613   -0.3070   -0.2509 C   0  0  0  0  0  0  0  0  0  0  0  0
    4.8614   -1.3550   -1.0759 O   0  0  0  0  0  0  0  0  0  0  0  0
    1.5158    5.3860   -0.9809 C   0  0  1  0  0  0  0  0  0  0  0  0
    1.7967    4.2055   -1.8162 O   0  0  0  0  0  0  0  0  0  0  0  0
    4.9608    4.9954    3.3314 C   0  0  0  0  0  0  0  0  0  0  0  0
    4.8767    5.8019    2.1817 O   0  0  0  0  0  0  0  0  0  0  0  0
    7.1198    5.5495   -0.8704 C   0  0  1  0  0  0  0  0  0  0  0  0
    5.7288    5.8074   -1.0810 O   0  0  0  0  0  0  0  0  0  0  0  0
    0.8733    6.5429   -1.8626 C   0  0  0  0  0  0  0  0  0  0  0  0
    1.7390    7.0783   -2.9491 N   0  0  0  0  0  0  0  0  0  0  0  0
  1  2  1  6  0  0  0
  1  7  1  0  0  0  0
  1 30  1  0  0  0  0
  3  4  1  6  0  0  0
  3  9  1  0  0  0  0
  3 39  1  0  0  0  0
  5 10  1  0  0  0  0
  5 26  1  0  0  0  0
  5 32  1  1  0  0  0
  6 12  1  0  0  0  0
  6 36  1  0  0  0  0
  6 19  1  6  0  0  0
  7  8  1  6  0  0  0
  7 14  1  0  0  0  0
  9 16  1  0  0  0  0
 10 11  1  6  0  0  0
 10 18  1  0  0  0  0
 12 13  1  6  0  0  0
 12 20  1  0  0  0  0
 14 15  1  1  0  0  0
 14 22  1  0  0  0  0
 16 17  1  6  0  0  0
 16 24  1  0  0  0  0
 18 19  1  1  0  0  0
 18 25  1  0  0  0  0
 20 21  1  6  0  0  0
 20 27  1  0  0  0  0
 22 23  1  6  0  0  0
 22 29  1  0  0  0  0
 24  2  1  1  0  0  0
 24 31  1  0  0  0  0
 25 26  1  0  0  0  0
 25 33  1  6  0  0  0
 27 28  1  6  0  0  0
 27 35  1  0  0  0  0
 29 30  1  0  0  0  0
 29 37  1  1  0  0  0
 31 32  1  6  0  0  0
 31 39  1  0  0  0  0
 33 34  1  0  0  0  0
 35 36  1  0  0  0  0
 35 41  1  6  0  0  0
 37 38  1  0  0  0  0
 39 40  1  1  0  0  0
 41 42  1  0  0  0  0
M  END
>  <CHROM.1>
178.61118270,46.39570584,-62.86567979,-86.72130086,-66.03773067,178.05235284
-171.12363476,103.55529045,177.86526205,5.39259691,3.89928358,0.65669566
-0.32604541,-0.41816394,-0.79479164

>  <Name>
ligand

>  <RI>
0

>  <Rbt.Current_Directory>
/home/itssahil/PROJECTS/Mol_Feturizer/Test_systems_manuscript/rnas/2o3w

>  <Rbt.Executable>
rbdock ($Id: //depot/dev/client3/rdock/2013.1/src/exe/rbdock.cxx#4 $)

>  <Rbt.Library>
libRbt.so (2013.1, Build901 2013/11/27)

>  <Rbt.Parameter_File>
/export/apps/rDock/src/rDock_2013.1_src/data/scripts/dock_solv.prm

>  <Rbt.Receptor>
prm/pocket_docking_5.prm

>  <SCORE>
-7.75556

>  <SCORE.INTER>
0.62191

>  <SCORE.INTER.CONST>
1

>  <SCORE.INTER.POLAR>
0

>  <SCORE.INTER.ROT>
9

>  <SCORE.INTER.SOLV>
9.59441

>  <SCORE.INTER.VDW>
-12.3835

>  <SCORE.INTER.norm>
0.0148074

>  <SCORE.INTRA>
-8.37747

>  <SCORE.INTRA.DIHEDRAL>
-17.4077

>  <SCORE.INTRA.DIHEDRAL.0>
27.8999

>  <SCORE.INTRA.POLAR>
0

>  <SCORE.INTRA.POLAR.0>
0

>  <SCORE.INTRA.REPUL>
0

>  <SCORE.INTRA.REPUL.0>
0

>  <SCORE.INTRA.SOLV>
-2.36926

>  <SCORE.INTRA.SOLV.lig_0>
-104.479

>  <SCORE.INTRA.VDW>
1.51102

>  <SCORE.INTRA.VDW.0>
-6.17816

>  <SCORE.INTRA.norm>
-0.199464

>  <SCORE.RESTR>
0

>  <SCORE.RESTR.CAVITY>
0

>  <SCORE.RESTR.norm>
0

>  <SCORE.SYSTEM>
0

>  <SCORE.SYSTEM.CONST>
0

>  <SCORE.SYSTEM.DIHEDRAL>
0

>  <SCORE.SYSTEM.SOLV>
0

>  <SCORE.SYSTEM.norm>
0

>  <SCORE.heavy>
42

>  <SCORE.norm>
-0.184656

>  <RMSD>
6.888

$$$$
ligand
 OpenBabel02271912133D
libRbt.so/2013.1/901 2013/11/27
 42 45  0  0  0  0  0  0  0  0999 V2000
   13.1706    3.7784    6.0757 C   0  0  2  0  0  0  0  0  0  0  0  0
   13.2812    4.6468    7.2163 O   0  0  0  0  0  0  0  0  0  0  0  0
   12.7699    8.9273    7.6768 C   0  0  2  0  0  0  0  0  0  0  0  0
   12.8940   10.4059    7.5071 N   0  0  0  0  0  0  0  0  0  0  0  0
   10.8009    5.5452    4.6629 C   0  0  1  0  0  0  0  0  0  0  0  0
    6.8549    5.0435    2.6931 C   0  0  1  0  0  0  0  0  0  0  0  0
   12.7669    2.3721    6.6119 C   0  0  2  0  0  0  0  0  0  0  0  0
   11.6177    2.4282    7.5321 N   0  0  0  0  0  0  0  0  0  0  0  0
   14.1285    8.2910    8.1779 C   0  0  0  0  0  0  0  0  0  0  0  0
    9.6837    6.6324    4.6391 C   0  0  2  0  0  0  0  0  0  0  0  0
    8.9184    6.7179    5.8663 O   0  0  0  0  0  0  0  0  0  0  0  0
    5.7240    4.0242    3.0816 C   0  0  2  0  0  0  0  0  0  0  0  0
    6.3081    2.7242    3.5285 N   0  0  0  0  0  0  0  0  0  0  0  0
   13.9148    1.6862    7.3752 C   0  0  1  0  0  0  0  0  0  0  0  0
   13.5143    0.3867    7.8132 O   0  0  0  0  0  0  0  0  0  0  0  0
   13.9288    6.7386    8.3589 C   0  0  2  0  0  0  0  0  0  0  0  0
   15.1860    6.1084    8.8445 N   0  0  0  0  0  0  0  0  0  0  0  0
    8.8956    6.2213    3.3944 C   0  0  2  0  0  0  0  0  0  0  0  0
    7.8222    5.2829    3.7229 O   0  0  0  0  0  0  0  0  0  0  0  0
    4.7470    3.8157    1.8290 C   0  0  1  0  0  0  0  0  0  0  0  0
    3.9272    4.9960    1.6744 O   0  0  0  0  0  0  0  0  0  0  0  0
   15.1661    1.6160    6.4705 C   0  0  2  0  0  0  0  0  0  0  0  0
   16.2214    0.9754    7.1490 O   0  0  0  0  0  0  0  0  0  0  0  0
   13.4931    6.0704    6.9953 C   0  0  2  0  0  0  0  0  0  0  0  0
    9.9170    5.5862    2.4359 C   0  0  2  0  0  0  0  0  0  0  0  0
   10.8729    5.0087    3.3219 O   0  0  0  0  0  0  0  0  0  0  0  0
    5.5372    3.5296    0.4647 C   0  0  2  0  0  0  0  0  0  0  0  0
    6.1278    2.2350    0.5722 O   0  0  0  0  0  0  0  0  0  0  0  0
   15.5769    3.0676    6.0538 C   0  0  2  0  0  0  0  0  0  0  0  0
   14.4629    3.7142    5.3605 O   0  0  0  0  0  0  0  0  0  0  0  0
   12.1994    6.6825    6.4149 C   0  0  2  0  0  0  0  0  0  0  0  0
   12.0548    6.0893    5.0951 O   0  0  0  0  0  0  0  0  0  0  0  0
   10.5985    6.5818    1.4465 C   0  0  0  0  0  0  0  0  0  0  0  0
    9.6147    7.1191    0.5677 O   0  0  0  0  0  0  0  0  0  0  0  0
    6.6505    4.6189    0.2282 C   0  0  1  0  0  0  0  0  0  0  0  0
    7.5216    4.5782    1.4156 O   0  0  0  0  0  0  0  0  0  0  0  0
   16.7939    3.0931    5.1582 C   0  0  0  0  0  0  0  0  0  0  0  0
   16.5802    2.2848    4.0266 O   0  0  0  0  0  0  0  0  0  0  0  0
   12.3369    8.2592    6.3105 C   0  0  1  0  0  0  0  0  0  0  0  0
   11.0896    8.8383    5.9173 O   0  0  0  0  0  0  0  0  0  0  0  0
    7.5088    4.3920   -1.0911 C   0  0  0  0  0  0  0  0  0  0  0  0
    6.7412    4.4047   -2.3667 N   0  0  0  0  0  0  0  0  0  0  0  0
  1  2  1  1  0  0  0
  1  7  1  0  0  0  0
  1 30  1  0  0  0  0
  3  4  1  6  0  0  0
  3  9  1  0  0  0  0
  3 39  1  0  0  0  0
  5 10  1  0  0  0  0
  5 26  1  0  0  0  0
  5 32  1  6  0  0  0
  6 12  1  0  0  0  0
  6 36  1  0  0  0  0
  6 19  1  1  0  0  0
  7  8  1  1  0  0  0
  7 14  1  0  0  0  0
  9 16  1  0  0  0  0
 10 11  1  1  0  0  0
 10 18  1  0  0  0  0
 12 13  1  6  0  0  0
 12 20  1  0  0  0  0
 14 15  1  6  0  0  0
 14 22  1  0  0  0  0
 16 17  1  6  0  0  0
 16 24  1  0  0  0  0
 18 19  1  1  0  0  0
 18 25  1  0  0  0  0
 20 21  1  6  0  0  0
 20 27  1  0  0  0  0
 22 23  1  1  0  0  0
 22 29  1  0  0  0  0
 24  2  1  1  0  0  0
 24 31  1  0  0  0  0
 25 26  1  0  0  0  0
 25 33  1  6  0  0  0
 27 28  1  1  0  0  0
 27 35  1  0  0  0  0
 29 30  1  0  0  0  0
 29 37  1  6  0  0  0
 31 32  1  6  0  0  0
 31 39  1  0  0  0  0
 33 34  1  0  0  0  0
 35 36  1  0  0  0  0
 35 41  1  6  0  0  0
 37 38  1  0  0  0  0
 39 40  1  1  0  0  0
 41 42  1  0  0  0  0
M  END
>  <CHROM.1>
-172.76712254,-166.30946808,167.66856538,179.65777238,-64.43842948,55.46776136
132.65120405,60.83969446,60.51961472,10.90593050,4.87253652,4.50733861,-0.18529857
0.61377502,-2.81022414

>  <Name>
ligand

>  <RI>
0

>  <Rbt.Current_Directory>
/home/itssahil/PROJECTS/Mol_Feturizer/Test_systems_manuscript/rnas/2o3w

>  <Rbt.Executable>
rbdock ($Id: //depot/dev/client3/rdock/2013.1/src/exe/rbdock.cxx#4 $)

>  <Rbt.Library>
libRbt.so (2013.1, Build901 2013/11/27)

>  <Rbt.Parameter_File>
/export/apps/rDock/src/rDock_2013.1_src/data/scripts/dock_solv.prm

>  <Rbt.Receptor>
prm/pocket_docking_8.prm

>  <SCORE>
-10.601

>  <SCORE.INTER>
-0.664296

>  <SCORE.INTER.CONST>
1

>  <SCORE.INTER.POLAR>
0

>  <SCORE.INTER.ROT>
9

>  <SCORE.INTER.SOLV>
11.9065

>  <SCORE.INTER.VDW>
-14.0117

>  <SCORE.INTER.norm>
-0.0158166

>  <SCORE.INTRA>
-9.94339

>  <SCORE.INTRA.DIHEDRAL>
-19.309

>  <SCORE.INTRA.DIHEDRAL.0>
27.8999

>  <SCORE.INTRA.POLAR>
0

>  <SCORE.INTRA.POLAR.0>
0

>  <SCORE.INTRA.REPUL>
0

>  <SCORE.INTRA.REPUL.0>
0

>  <SCORE.INTRA.SOLV>
-4.47306

>  <SCORE.INTRA.SOLV.lig_0>
-104.479

>  <SCORE.INTRA.VDW>
1.94765

>  <SCORE.INTRA.VDW.0>
-6.17816

>  <SCORE.INTRA.norm>
-0.236747

>  <SCORE.RESTR>
0.00670698

>  <SCORE.RESTR.CAVITY>
0.00670698

>  <SCORE.RESTR.norm>
0.00015969

>  <SCORE.SYSTEM>
0

>  <SCORE.SYSTEM.CONST>
0

>  <SCORE.SYSTEM.DIHEDRAL>
0

>  <SCORE.SYSTEM.SOLV>
0

>  <SCORE.SYSTEM.norm>
0

>  <SCORE.heavy>
42

>  <SCORE.norm>
-0.252404

>  <RMSD>
6.896

$$$$
ligand
 OpenBabel02271912133D
libRbt.so/2013.1/901 2013/11/27
 42 45  0  0  0  0  0  0  0  0999 V2000
    7.1950    5.9158    6.3638 C   0  0  2  0  0  0  0  0  0  0  0  0
    7.8245    5.1128    5.3508 O   0  0  0  0  0  0  0  0  0  0  0  0
    6.9534    1.5854    2.9855 C   0  0  2  0  0  0  0  0  0  0  0  0
    6.3646    0.3009    2.5020 N   0  0  0  0  0  0  0  0  0  0  0  0
    4.3888    5.4942    3.1284 C   0  0  1  0  0  0  0  0  0  0  0  0
    2.3968    6.0549    0.9455 C   0  0  1  0  0  0  0  0  0  0  0  0
    7.9376    7.2856    6.3853 C   0  0  2  0  0  0  0  0  0  0  0  0
    8.0714    7.8755    5.0419 N   0  0  0  0  0  0  0  0  0  0  0  0
    7.7312    1.3834    4.3478 C   0  0  0  0  0  0  0  0  0  0  0  0
    3.2673    6.3414    3.8029 C   0  0  2  0  0  0  0  0  0  0  0  0
    2.0559    5.5982    4.0843 O   0  0  0  0  0  0  0  0  0  0  0  0
    1.9950    6.2380   -0.5624 C   0  0  2  0  0  0  0  0  0  0  0  0
    0.5550    6.6143   -0.6888 N   0  0  0  0  0  0  0  0  0  0  0  0
    9.3599    7.1701    6.9639 C   0  0  1  0  0  0  0  0  0  0  0  0
    9.9873    8.4530    7.0013 O   0  0  0  0  0  0  0  0  0  0  0  0
    8.3464    2.7637    4.7937 C   0  0  2  0  0  0  0  0  0  0  0  0
    9.0992    2.6073    6.0675 N   0  0  0  0  0  0  0  0  0  0  0  0
    3.1222    7.4909    2.8044 C   0  0  2  0  0  0  0  0  0  0  0  0
    2.1242    7.1891    1.7779 O   0  0  0  0  0  0  0  0  0  0  0  0
    2.3084    4.8850   -1.3612 C   0  0  1  0  0  0  0  0  0  0  0  0
    3.7383    4.7651   -1.5340 O   0  0  0  0  0  0  0  0  0  0  0  0
    9.2940    6.5329    8.3706 C   0  0  2  0  0  0  0  0  0  0  0  0
   10.5870    6.4355    8.9213 O   0  0  0  0  0  0  0  0  0  0  0  0
    7.2105    3.8460    4.9788 C   0  0  2  0  0  0  0  0  0  0  0  0
    4.5152    7.6933    2.1849 C   0  0  2  0  0  0  0  0  0  0  0  0
    5.0738    6.3820    2.2153 O   0  0  0  0  0  0  0  0  0  0  0  0
    1.7469    3.5804   -0.6193 C   0  0  2  0  0  0  0  0  0  0  0  0
    0.3225    3.6214   -0.6946 O   0  0  0  0  0  0  0  0  0  0  0  0
    8.6321    5.1189    8.2601 C   0  0  2  0  0  0  0  0  0  0  0  0
    7.2962    5.2454    7.6775 O   0  0  0  0  0  0  0  0  0  0  0  0
    6.3697    4.0563    3.7004 C   0  0  2  0  0  0  0  0  0  0  0  0
    5.2775    4.9287    4.1009 O   0  0  0  0  0  0  0  0  0  0  0  0
    5.4287    8.7101    2.9372 C   0  0  0  0  0  0  0  0  0  0  0  0
    6.6790    8.8082    2.2620 O   0  0  0  0  0  0  0  0  0  0  0  0
    2.2129    3.5528    0.8854 C   0  0  1  0  0  0  0  0  0  0  0  0
    1.7294    4.8079    1.4865 O   0  0  0  0  0  0  0  0  0  0  0  0
    8.5210    4.4228    9.5968 C   0  0  0  0  0  0  0  0  0  0  0  0
    9.8015    4.1086   10.0877 O   0  0  0  0  0  0  0  0  0  0  0  0
    5.8151    2.6669    3.1734 C   0  0  1  0  0  0  0  0  0  0  0  0
    5.1662    2.8416    1.9109 O   0  0  0  0  0  0  0  0  0  0  0  0
    1.6709    2.3048    1.7084 C   0  0  0  0  0  0  0  0  0  0  0  0
    2.3944    2.0078    2.9753 N   0  0  0  0  0  0  0  0  0  0  0  0
  1  2  1  6  0  0  0
  1  7  1  0  0  0  0
  1 30  1  0  0  0  0
  3  4  1  1  0  0  0
  3  9  1  0  0  0  0
  3 39  1  0  0  0  0
  5 10  1  0  0  0  0
  5 26  1  0  0  0  0
  5 32  1  1  0  0  0
  6 12  1  0  0  0  0
  6 36  1  0  0  0  0
  6 19  1  1  0  0  0
  7  8  1  6  0  0  0
  7 14  1  0  0  0  0
  9 16  1  0  0  0  0
 10 11  1  6  0  0  0
 10 18  1  0  0  0  0
 12 13  1  1  0  0  0
 12 20  1  0  0  0  0
 14 15  1  1  0  0  0
 14 22  1  0  0  0  0
 16 17  1  1  0  0  0
 16 24  1  0  0  0  0
 18 19  1  6  0  0  0
 18 25  1  0  0  0  0
 20 21  1  1  0  0  0
 20 27  1  0  0  0  0
 22 23  1  6  0  0  0
 22 29  1  0  0  0  0
 24  2  1  6  0  0  0
 24 31  1  0  0  0  0
 25 26  1  0  0  0  0
 25 33  1  1  0  0  0
 27 28  1  1  0  0  0
 27 35  1  0  0  0  0
 29 30  1  0  0  0  0
 29 37  1  1  0  0  0
 31 32  1  1  0  0  0
 31 39  1  0  0  0  0
 33 34  1  0  0  0  0
 35 36  1  0  0  0  0
 35 41  1  1  0  0  0
 37 38  1  0  0  0  0
 39 40  1  6  0  0  0
 41 42  1  0  0  0  0
M  END
>  <CHROM.1>
-171.29442868,-138.84207141,-61.68997322,-141.66440740,-179.77218876,-66.86076158
171.27375391,177.55538870,162.13717465,5.49447812,5.08773262,3.73634875,0.11677014
-0.80130153,0.06714893

>  <Name>
ligand

>  <RI>
0

>  <Rbt.Current_Directory>
/home/itssahil/PROJECTS/Mol_Feturizer/Test_systems_manuscript/rnas/2o3w

>  <Rbt.Executable>
rbdock ($Id: //depot/dev/client3/rdock/2013.1/src/exe/rbdock.cxx#4 $)

>  <Rbt.Library>
libRbt.so (2013.1, Build901 2013/11/27)

>  <Rbt.Parameter_File>
/export/apps/rDock/src/rDock_2013.1_src/data/scripts/dock_solv.prm

>  <Rbt.Receptor>
prm/pocket_docking_5.prm

>  <SCORE>
-6.49516

>  <SCORE.INTER>
0.499191

>  <SCORE.INTER.CONST>
1

>  <SCORE.INTER.POLAR>
0

>  <SCORE.INTER.ROT>
9

>  <SCORE.INTER.SOLV>
11.0144

>  <SCORE.INTER.VDW>
-12.9387

>  <SCORE.INTER.norm>
0.0118855

>  <SCORE.INTRA>
-6.99435

>  <SCORE.INTRA.DIHEDRAL>
-15.166

>  <SCORE.INTRA.DIHEDRAL.0>
27.8999

>  <SCORE.INTRA.POLAR>
0

>  <SCORE.INTRA.POLAR.0>
0

>  <SCORE.INTRA.REPUL>
0

>  <SCORE.INTRA.REPUL.0>
0

>  <SCORE.INTRA.SOLV>
0.77432

>  <SCORE.INTRA.SOLV.lig_0>
-104.479

>  <SCORE.INTRA.VDW>
0.201515

>  <SCORE.INTRA.VDW.0>
-6.17816

>  <SCORE.INTRA.norm>
-0.166532

>  <SCORE.RESTR>
0

>  <SCORE.RESTR.CAVITY>
0

>  <SCORE.RESTR.norm>
0

>  <SCORE.SYSTEM>
0

>  <SCORE.SYSTEM.CONST>
0

>  <SCORE.SYSTEM.DIHEDRAL>
0

>  <SCORE.SYSTEM.SOLV>
0

>  <SCORE.SYSTEM.norm>
0

>  <SCORE.heavy>
42

>  <SCORE.norm>
-0.154647

>  <RMSD>
6.953

$$$$
ligand
 OpenBabel02271912133D
libRbt.so/2013.1/901 2013/11/27
 42 45  0  0  0  0  0  0  0  0999 V2000
    3.2107    0.0162    4.2551 C   0  0  2  0  0  0  0  0  0  0  0  0
    2.8191    0.4508    2.9417 O   0  0  0  0  0  0  0  0  0  0  0  0
    2.2104    4.2962    1.0343 C   0  0  2  0  0  0  0  0  0  0  0  0
    1.8042    5.7083    0.7667 N   0  0  0  0  0  0  0  0  0  0  0  0
    5.3668    3.4815    4.2892 C   0  0  1  0  0  0  0  0  0  0  0  0
    9.3135    4.8818    5.0058 C   0  0  1  0  0  0  0  0  0  0  0  0
    3.8088   -1.4145    4.1015 C   0  0  2  0  0  0  0  0  0  0  0  0
    4.8222   -1.4904    3.0347 N   0  0  0  0  0  0  0  0  0  0  0  0
    0.9482    3.3624    1.2255 C   0  0  0  0  0  0  0  0  0  0  0  0
    6.1159    2.9304    5.5405 C   0  0  2  0  0  0  0  0  0  0  0  0
    5.7129    3.5476    6.7878 O   0  0  0  0  0  0  0  0  0  0  0  0
   10.0469    6.0047    5.8243 C   0  0  2  0  0  0  0  0  0  0  0  0
    9.1620    7.1934    6.0104 N   0  0  0  0  0  0  0  0  0  0  0  0
    2.7332   -2.4648    3.7686 C   0  0  1  0  0  0  0  0  0  0  0  0
    3.3190   -3.7646    3.6764 O   0  0  0  0  0  0  0  0  0  0  0  0
    1.4389    1.8871    1.4813 C   0  0  2  0  0  0  0  0  0  0  0  0
    0.2746    0.9767    1.6516 N   0  0  0  0  0  0  0  0  0  0  0  0
    7.5740    3.1492    5.1341 C   0  0  2  0  0  0  0  0  0  0  0  0
    8.0596    4.4625    5.5587 O   0  0  0  0  0  0  0  0  0  0  0  0
   11.4021    6.4084    5.0711 C   0  0  1  0  0  0  0  0  0  0  0  0
   12.3687    5.3486    5.2484 O   0  0  0  0  0  0  0  0  0  0  0  0
    1.6211   -2.4218    4.8412 C   0  0  2  0  0  0  0  0  0  0  0  0
    0.6367   -3.3893    4.5600 O   0  0  0  0  0  0  0  0  0  0  0  0
    2.3565    1.8202    2.7656 C   0  0  2  0  0  0  0  0  0  0  0  0
    7.6137    3.0087    3.6031 C   0  0  2  0  0  0  0  0  0  0  0  0
    6.3238    3.4673    3.2051 O   0  0  0  0  0  0  0  0  0  0  0  0
   11.1868    6.6812    3.5069 C   0  0  2  0  0  0  0  0  0  0  0  0
   10.4313    7.8851    3.3794 O   0  0  0  0  0  0  0  0  0  0  0  0
    0.9948   -0.9877    4.8700 C   0  0  2  0  0  0  0  0  0  0  0  0
    2.0371   -0.0014    5.1539 O   0  0  0  0  0  0  0  0  0  0  0  0
    3.5841    2.7529    2.6738 C   0  0  2  0  0  0  0  0  0  0  0  0
    4.2001    2.7041    3.9901 O   0  0  0  0  0  0  0  0  0  0  0  0
    7.8808    1.5627    3.0816 C   0  0  0  0  0  0  0  0  0  0  0  0
    9.1861    1.1532    3.4782 O   0  0  0  0  0  0  0  0  0  0  0  0
   10.4185    5.4815    2.8340 C   0  0  1  0  0  0  0  0  0  0  0  0
    9.1514    5.3416    3.5722 O   0  0  0  0  0  0  0  0  0  0  0  0
   -0.1025   -0.8530    5.9002 C   0  0  0  0  0  0  0  0  0  0  0  0
    0.3266   -1.3701    7.1363 O   0  0  0  0  0  0  0  0  0  0  0  0
    3.1261    4.2300    2.3218 C   0  0  1  0  0  0  0  0  0  0  0  0
    4.2685    5.0583    2.0881 O   0  0  0  0  0  0  0  0  0  0  0  0
   10.1316    5.6845    1.2832 C   0  0  0  0  0  0  0  0  0  0  0  0
    9.2385    6.8250    0.9392 N   0  0  0  0  0  0  0  0  0  0  0  0
  1  2  1  6  0  0  0
  1  7  1  0  0  0  0
  1 30  1  0  0  0  0
  3  4  1  1  0  0  0
  3  9  1  0  0  0  0
  3 39  1  0  0  0  0
  5 10  1  0  0  0  0
  5 26  1  0  0  0  0
  5 32  1  6  0  0  0
  6 12  1  0  0  0  0
  6 36  1  0  0  0  0
  6 19  1  1  0  0  0
  7  8  1  6  0  0  0
  7 14  1  0  0  0  0
  9 16  1  0  0  0  0
 10 11  1  1  0  0  0
 10 18  1  0  0  0  0
 12 13  1  6  0  0  0
 12 20  1  0  0  0  0
 14 15  1  1  0  0  0
 14 22  1  0  0  0  0
 16 17  1  1  0  0  0
 16 24  1  0  0  0  0
 18 19  1  6  0  0  0
 18 25  1  0  0  0  0
 20 21  1  6  0  0  0
 20 27  1  0  0  0  0
 22 23  1  6  0  0  0
 22 29  1  0  0  0  0
 24  2  1  6  0  0  0
 24 31  1  0  0  0  0
 25 26  1  0  0  0  0
 25 33  1  1  0  0  0
 27 28  1  1  0  0  0
 27 35  1  0  0  0  0
 29 30  1  0  0  0  0
 29 37  1  1  0  0  0
 31 32  1  1  0  0  0
 31 39  1  0  0  0  0
 33 34  1  0  0  0  0
 35 36  1  0  0  0  0
 35 41  1  6  0  0  0
 37 38  1  0  0  0  0
 39 40  1  6  0  0  0
 41 42  1  0  0  0  0
M  END
>  <CHROM.1>
-173.47509327,-156.05949209,-168.00054742,-159.41831518,-64.63001542,48.39888769
-178.64997727,-160.80350621,-63.48891365,5.41577714,2.59053355,3.77687314
-2.57377582,-0.37952848,-0.53709868

>  <Name>
ligand

>  <RI>
0

>  <Rbt.Current_Directory>
/home/itssahil/PROJECTS/Mol_Feturizer/Test_systems_manuscript/rnas/2o3w

>  <Rbt.Executable>
rbdock ($Id: //depot/dev/client3/rdock/2013.1/src/exe/rbdock.cxx#4 $)

>  <Rbt.Library>
libRbt.so (2013.1, Build901 2013/11/27)

>  <Rbt.Parameter_File>
/export/apps/rDock/src/rDock_2013.1_src/data/scripts/dock_solv.prm

>  <Rbt.Receptor>
prm/pocket_docking_6.prm

>  <SCORE>
-12.3356

>  <SCORE.INTER>
-2.82942

>  <SCORE.INTER.CONST>
1

>  <SCORE.INTER.POLAR>
0

>  <SCORE.INTER.ROT>
9

>  <SCORE.INTER.SOLV>
11.118

>  <SCORE.INTER.VDW>
-15.1923

>  <SCORE.INTER.norm>
-0.0673672

>  <SCORE.INTRA>
-9.50617

>  <SCORE.INTRA.DIHEDRAL>
-20.2712

>  <SCORE.INTRA.DIHEDRAL.0>
27.8999

>  <SCORE.INTRA.POLAR>
0

>  <SCORE.INTRA.POLAR.0>
0

>  <SCORE.INTRA.REPUL>
0

>  <SCORE.INTRA.REPUL.0>
0

>  <SCORE.INTRA.SOLV>
-3.47018

>  <SCORE.INTRA.SOLV.lig_0>
-104.479

>  <SCORE.INTRA.VDW>
2.36451

>  <SCORE.INTRA.VDW.0>
-6.17816

>  <SCORE.INTRA.norm>
-0.226337

>  <SCORE.RESTR>
0

>  <SCORE.RESTR.CAVITY>
0

>  <SCORE.RESTR.norm>
0

>  <SCORE.SYSTEM>
0

>  <SCORE.SYSTEM.CONST>
0

>  <SCORE.SYSTEM.DIHEDRAL>
0

>  <SCORE.SYSTEM.SOLV>
0

>  <SCORE.SYSTEM.norm>
0

>  <SCORE.heavy>
42

>  <SCORE.norm>
-0.293705

>  <RMSD>
6.971

$$$$
ligand
 OpenBabel02271912133D
libRbt.so/2013.1/901 2013/11/27
 42 45  0  0  0  0  0  0  0  0999 V2000
   10.4920    6.9322    5.3318 C   0  0  2  0  0  0  0  0  0  0  0  0
   11.1062    5.6880    5.7085 O   0  0  0  0  0  0  0  0  0  0  0  0
    9.2575    1.7675    5.7992 C   0  0  2  0  0  0  0  0  0  0  0  0
    8.4056    0.5996    6.1744 N   0  0  0  0  0  0  0  0  0  0  0  0
    7.2249    5.5734    4.1689 C   0  0  1  0  0  0  0  0  0  0  0  0
    4.2528    6.9177    1.2867 C   0  0  1  0  0  0  0  0  0  0  0  0
   11.5943    7.7949    4.6472 C   0  0  2  0  0  0  0  0  0  0  0  0
   12.3195    7.0552    3.5996 N   0  0  0  0  0  0  0  0  0  0  0  0
   10.2820    2.1240    6.9503 C   0  0  0  0  0  0  0  0  0  0  0  0
    6.3887    6.8646    4.4225 C   0  0  2  0  0  0  0  0  0  0  0  0
    5.2935    6.6840    5.3536 O   0  0  0  0  0  0  0  0  0  0  0  0
    3.9872    8.4401    1.0026 C   0  0  2  0  0  0  0  0  0  0  0  0
    3.0340    9.0106    2.0010 N   0  0  0  0  0  0  0  0  0  0  0  0
   12.6502    8.2965    5.6493 C   0  0  1  0  0  0  0  0  0  0  0  0
   13.6164    9.1138    4.9865 O   0  0  0  0  0  0  0  0  0  0  0  0
   11.1642    3.3450    6.4881 C   0  0  2  0  0  0  0  0  0  0  0  0
   12.1513    3.6990    7.5435 N   0  0  0  0  0  0  0  0  0  0  0  0
    5.9893    7.2448    2.9959 C   0  0  2  0  0  0  0  0  0  0  0  0
    4.7186    6.6301    2.6111 O   0  0  0  0  0  0  0  0  0  0  0  0
    3.4281    8.6098   -0.4892 C   0  0  1  0  0  0  0  0  0  0  0  0
    4.5135    8.4045   -1.4212 O   0  0  0  0  0  0  0  0  0  0  0  0
   11.9509    9.0649    6.7937 C   0  0  2  0  0  0  0  0  0  0  0  0
   12.9057    9.5453    7.7113 O   0  0  0  0  0  0  0  0  0  0  0  0
   10.2570    4.5983    6.1689 C   0  0  2  0  0  0  0  0  0  0  0  0
    7.1370    6.7649    2.0916 C   0  0  2  0  0  0  0  0  0  0  0  0
    7.6332    5.6208    2.7824 O   0  0  0  0  0  0  0  0  0  0  0  0
    2.2341    7.5953   -0.8252 C   0  0  2  0  0  0  0  0  0  0  0  0
    1.0995    7.9960   -0.0581 O   0  0  0  0  0  0  0  0  0  0  0  0
   10.9338    8.1099    7.5030 C   0  0  2  0  0  0  0  0  0  0  0  0
    9.9599    7.6175    6.5289 O   0  0  0  0  0  0  0  0  0  0  0  0
    9.1914    4.3070    5.0896 C   0  0  2  0  0  0  0  0  0  0  0  0
    8.3452    5.4892    5.0594 O   0  0  0  0  0  0  0  0  0  0  0  0
    8.2692    7.8117    1.8537 C   0  0  0  0  0  0  0  0  0  0  0  0
    7.7224    8.9576    1.2081 O   0  0  0  0  0  0  0  0  0  0  0  0
    2.6424    6.1172   -0.4635 C   0  0  1  0  0  0  0  0  0  0  0  0
    3.0004    6.1295    0.9654 O   0  0  0  0  0  0  0  0  0  0  0  0
   10.1964    8.7843    8.6368 C   0  0  0  0  0  0  0  0  0  0  0  0
    9.3169    7.8748    9.2520 O   0  0  0  0  0  0  0  0  0  0  0  0
    8.3486    3.0223    5.4830 C   0  0  1  0  0  0  0  0  0  0  0  0
    7.4667    2.6647    4.4152 O   0  0  0  0  0  0  0  0  0  0  0  0
    1.4998    5.0450   -0.7346 C   0  0  0  0  0  0  0  0  0  0  0  0
    0.2336    5.2508    0.0210 N   0  0  0  0  0  0  0  0  0  0  0  0
  1  2  1  1  0  0  0
  1  7  1  0  0  0  0
  1 30  1  0  0  0  0
  3  4  1  1  0  0  0
  3  9  1  0  0  0  0
  3 39  1  0  0  0  0
  5 10  1  0  0  0  0
  5 26  1  0  0  0  0
  5 32  1  1  0  0  0
  6 12  1  0  0  0  0
  6 36  1  0  0  0  0
  6 19  1  1  0  0  0
  7  8  1  6  0  0  0
  7 14  1  0  0  0  0
  9 16  1  0  0  0  0
 10 11  1  1  0  0  0
 10 18  1  0  0  0  0
 12 13  1  1  0  0  0
 12 20  1  0  0  0  0
 14 15  1  6  0  0  0
 14 22  1  0  0  0  0
 16 17  1  1  0  0  0
 16 24  1  0  0  0  0
 18 19  1  6  0  0  0
 18 25  1  0  0  0  0
 20 21  1  6  0  0  0
 20 27  1  0  0  0  0
 22 23  1  1  0  0  0
 22 29  1  0  0  0  0
 24  2  1  6  0  0  0
 24 31  1  0  0  0  0
 25 26  1  0  0  0  0
 25 33  1  1  0  0  0
 27 28  1  1  0  0  0
 27 35  1  0  0  0  0
 29 30  1  0  0  0  0
 29 37  1  1  0  0  0
 31 32  1  1  0  0  0
 31 39  1  0  0  0  0
 33 34  1  0  0  0  0
 35 36  1  0  0  0  0
 35 41  1  1  0  0  0
 37 38  1  0  0  0  0
 39 40  1  6  0  0  0
 41 42  1  0  0  0  0
M  END
>  <CHROM.1>
-169.83280788,178.80825898,-179.76104136,-60.93234795,-61.35321372,-178.89966371
-179.48901912,174.08897273,-60.21952108,7.66382664,6.43821861,3.91485041
-0.25247439,-0.60667387,-0.31917396

>  <Name>
ligand

>  <RI>
0

>  <Rbt.Current_Directory>
/home/itssahil/PROJECTS/Mol_Feturizer/Test_systems_manuscript/rnas/2o3w

>  <Rbt.Executable>
rbdock ($Id: //depot/dev/client3/rdock/2013.1/src/exe/rbdock.cxx#4 $)

>  <Rbt.Library>
libRbt.so (2013.1, Build901 2013/11/27)

>  <Rbt.Parameter_File>
/export/apps/rDock/src/rDock_2013.1_src/data/scripts/dock_solv.prm

>  <Rbt.Receptor>
prm/pocket_docking_8.prm

>  <SCORE>
-10.1295

>  <SCORE.INTER>
2.38955

>  <SCORE.INTER.CONST>
1

>  <SCORE.INTER.POLAR>
0

>  <SCORE.INTER.ROT>
9

>  <SCORE.INTER.SOLV>
15.9025

>  <SCORE.INTER.VDW>
-13.3078

>  <SCORE.INTER.norm>
0.056894

>  <SCORE.INTRA>
-12.519

>  <SCORE.INTRA.DIHEDRAL>
-27.0542

>  <SCORE.INTRA.DIHEDRAL.0>
27.8999

>  <SCORE.INTRA.POLAR>
0

>  <SCORE.INTRA.POLAR.0>
0

>  <SCORE.INTRA.REPUL>
0

>  <SCORE.INTRA.REPUL.0>
0

>  <SCORE.INTRA.SOLV>
-4.39434

>  <SCORE.INTRA.SOLV.lig_0>
-104.479

>  <SCORE.INTRA.VDW>
3.20526

>  <SCORE.INTRA.VDW.0>
-6.17816

>  <SCORE.INTRA.norm>
-0.298072

>  <SCORE.RESTR>
0

>  <SCORE.RESTR.CAVITY>
0

>  <SCORE.RESTR.norm>
0

>  <SCORE.SYSTEM>
0

>  <SCORE.SYSTEM.CONST>
0

>  <SCORE.SYSTEM.DIHEDRAL>
0

>  <SCORE.SYSTEM.SOLV>
0

>  <SCORE.SYSTEM.norm>
0

>  <SCORE.heavy>
42

>  <SCORE.norm>
-0.241178

>  <RMSD>
6.990

$$$$
ligand
 OpenBabel02271912133D
libRbt.so/2013.1/901 2013/11/27
 42 45  0  0  0  0  0  0  0  0999 V2000
   10.8062    6.6085    5.8754 C   0  0  2  0  0  0  0  0  0  0  0  0
   11.3960    5.2996    5.7965 O   0  0  0  0  0  0  0  0  0  0  0  0
    9.5265    1.3927    5.9873 C   0  0  2  0  0  0  0  0  0  0  0  0
    8.7725    0.1928    6.4586 N   0  0  0  0  0  0  0  0  0  0  0  0
    7.4694    5.5804    5.0570 C   0  0  1  0  0  0  0  0  0  0  0  0
    4.5974    8.1668    2.7866 C   0  0  1  0  0  0  0  0  0  0  0  0
   11.7314    7.5736    5.0750 C   0  0  2  0  0  0  0  0  0  0  0  0
   12.0569    7.0591    3.7333 N   0  0  0  0  0  0  0  0  0  0  0  0
   10.8311    1.6264    6.8506 C   0  0  0  0  0  0  0  0  0  0  0  0
    6.8645    6.9389    5.5255 C   0  0  2  0  0  0  0  0  0  0  0  0
    5.7529    6.8033    6.4447 O   0  0  0  0  0  0  0  0  0  0  0  0
    3.1454    7.7781    2.3289 C   0  0  2  0  0  0  0  0  0  0  0  0
    3.1105    6.3846    1.7921 N   0  0  0  0  0  0  0  0  0  0  0  0
   13.0708    7.8270    5.7911 C   0  0  1  0  0  0  0  0  0  0  0  0
   13.8688    8.7459    5.0430 O   0  0  0  0  0  0  0  0  0  0  0  0
   11.5926    2.8881    6.2931 C   0  0  2  0  0  0  0  0  0  0  0  0
   12.8355    3.1293    7.0746 N   0  0  0  0  0  0  0  0  0  0  0  0
    6.5381    7.5970    4.1840 C   0  0  2  0  0  0  0  0  0  0  0  0
    5.1820    7.2720    3.7411 O   0  0  0  0  0  0  0  0  0  0  0  0
    2.6373    8.8300    1.2325 C   0  0  1  0  0  0  0  0  0  0  0  0
    2.3267   10.0783    1.8915 O   0  0  0  0  0  0  0  0  0  0  0  0
   12.8004    8.3482    7.2209 C   0  0  2  0  0  0  0  0  0  0  0  0
   14.0171    8.6011    7.8844 O   0  0  0  0  0  0  0  0  0  0  0  0
   10.6696    4.1687    6.3565 C   0  0  2  0  0  0  0  0  0  0  0  0
    7.5890    7.0766    3.1889 C   0  0  2  0  0  0  0  0  0  0  0  0
    7.8821    5.7723    3.6845 O   0  0  0  0  0  0  0  0  0  0  0  0
    3.7129    9.0889    0.0734 C   0  0  2  0  0  0  0  0  0  0  0  0
    3.8004    7.8976   -0.7072 O   0  0  0  0  0  0  0  0  0  0  0  0
   11.9558    7.2859    8.0004 C   0  0  2  0  0  0  0  0  0  0  0  0
   10.7035    7.0338    7.2876 O   0  0  0  0  0  0  0  0  0  0  0  0
    9.3465    3.9924    5.5796 C   0  0  2  0  0  0  0  0  0  0  0  0
    8.5574    5.1720    5.8963 O   0  0  0  0  0  0  0  0  0  0  0  0
    8.8832    7.9418    3.0860 C   0  0  0  0  0  0  0  0  0  0  0  0
    8.5600    9.2055    2.5138 O   0  0  0  0  0  0  0  0  0  0  0  0
    5.1195    9.4419    0.6892 C   0  0  1  0  0  0  0  0  0  0  0  0
    5.4785    8.3120    1.5637 O   0  0  0  0  0  0  0  0  0  0  0  0
   11.6382    7.7184    9.4132 C   0  0  0  0  0  0  0  0  0  0  0  0
   10.9140    6.7116   10.0773 O   0  0  0  0  0  0  0  0  0  0  0  0
    8.6027    2.6744    6.0542 C   0  0  1  0  0  0  0  0  0  0  0  0
    7.4578    2.4307    5.2323 O   0  0  0  0  0  0  0  0  0  0  0  0
    6.2587    9.6822   -0.3939 C   0  0  0  0  0  0  0  0  0  0  0  0
    6.5607    8.5219   -1.2766 N   0  0  0  0  0  0  0  0  0  0  0  0
  1  2  1  1  0  0  0
  1  7  1  0  0  0  0
  1 30  1  0  0  0  0
  3  4  1  1  0  0  0
  3  9  1  0  0  0  0
  3 39  1  0  0  0  0
  5 10  1  0  0  0  0
  5 26  1  0  0  0  0
  5 32  1  1  0  0  0
  6 12  1  0  0  0  0
  6 36  1  0  0  0  0
  6 19  1  1  0  0  0
  7  8  1  6  0  0  0
  7 14  1  0  0  0  0
  9 16  1  0  0  0  0
 10 11  1  1  0  0  0
 10 18  1  0  0  0  0
 12 13  1  6  0  0  0
 12 20  1  0  0  0  0
 14 15  1  6  0  0  0
 14 22  1  0  0  0  0
 16 17  1  1  0  0  0
 16 24  1  0  0  0  0
 18 19  1  6  0  0  0
 18 25  1  0  0  0  0
 20 21  1  1  0  0  0
 20 27  1  0  0  0  0
 22 23  1  1  0  0  0
 22 29  1  0  0  0  0
 24  2  1  6  0  0  0
 24 31  1  0  0  0  0
 25 26  1  0  0  0  0
 25 33  1  1  0  0  0
 27 28  1  1  0  0  0
 27 35  1  0  0  0  0
 29 30  1  0  0  0  0
 29 37  1  1  0  0  0
 31 32  1  1  0  0  0
 31 39  1  0  0  0  0
 33 34  1  0  0  0  0
 35 36  1  0  0  0  0
 35 41  1  6  0  0  0
 37 38  1  0  0  0  0
 39 40  1  6  0  0  0
 41 42  1  0  0  0  0
M  END
>  <CHROM.1>
-174.31741209,-173.58375771,158.73403591,179.59129489,-66.97601436,-178.25389745
159.96976856,-174.67399732,-60.88735213,8.44014472,6.57161587,4.54073427
-0.54626832,-0.52083018,-0.40519048

>  <Name>
ligand

>  <RI>
0

>  <Rbt.Current_Directory>
/home/itssahil/PROJECTS/Mol_Feturizer/Test_systems_manuscript/rnas/2o3w

>  <Rbt.Executable>
rbdock ($Id: //depot/dev/client3/rdock/2013.1/src/exe/rbdock.cxx#4 $)

>  <Rbt.Library>
libRbt.so (2013.1, Build901 2013/11/27)

>  <Rbt.Parameter_File>
/export/apps/rDock/src/rDock_2013.1_src/data/scripts/dock_solv.prm

>  <Rbt.Receptor>
prm/pocket_docking_8.prm

>  <SCORE>
-15.9847

>  <SCORE.INTER>
-3.77663

>  <SCORE.INTER.CONST>
1

>  <SCORE.INTER.POLAR>
0

>  <SCORE.INTER.ROT>
9

>  <SCORE.INTER.SOLV>
14.5594

>  <SCORE.INTER.VDW>
-16.9709

>  <SCORE.INTER.norm>
-0.0899198

>  <SCORE.INTRA>
-12.2081

>  <SCORE.INTRA.DIHEDRAL>
-23.2493

>  <SCORE.INTRA.DIHEDRAL.0>
27.8999

>  <SCORE.INTRA.POLAR>
0

>  <SCORE.INTRA.POLAR.0>
0

>  <SCORE.INTRA.REPUL>
0

>  <SCORE.INTRA.REPUL.0>
0

>  <SCORE.INTRA.SOLV>
-3.5155

>  <SCORE.INTRA.SOLV.lig_0>
-104.479

>  <SCORE.INTRA.VDW>
1.17434

>  <SCORE.INTRA.VDW.0>
-6.17816

>  <SCORE.INTRA.norm>
-0.290669

>  <SCORE.RESTR>
0

>  <SCORE.RESTR.CAVITY>
0

>  <SCORE.RESTR.norm>
0

>  <SCORE.SYSTEM>
0

>  <SCORE.SYSTEM.CONST>
0

>  <SCORE.SYSTEM.DIHEDRAL>
0

>  <SCORE.SYSTEM.SOLV>
0

>  <SCORE.SYSTEM.norm>
0

>  <SCORE.heavy>
42

>  <SCORE.norm>
-0.380588

>  <RMSD>
7.019

$$$$
ligand
 OpenBabel02271912133D
libRbt.so/2013.1/901 2013/11/27
 42 45  0  0  0  0  0  0  0  0999 V2000
    5.7431    0.1812    3.8382 C   0  0  2  0  0  0  0  0  0  0  0  0
    5.5738   -1.0509    4.5597 O   0  0  0  0  0  0  0  0  0  0  0  0
    8.4487   -3.5944    6.5750 C   0  0  2  0  0  0  0  0  0  0  0  0
    9.6184   -4.4774    6.8622 N   0  0  0  0  0  0  0  0  0  0  0  0
    9.2876    0.7456    5.3863 C   0  0  1  0  0  0  0  0  0  0  0  0
   11.7144    4.2210    6.6167 C   0  0  1  0  0  0  0  0  0  0  0  0
    4.4002    0.9634    3.9521 C   0  0  2  0  0  0  0  0  0  0  0  0
    3.9170    1.0548    5.3409 N   0  0  0  0  0  0  0  0  0  0  0  0
    7.4509   -4.2771    5.5552 C   0  0  0  0  0  0  0  0  0  0  0  0
    9.5022    2.0007    4.4866 C   0  0  2  0  0  0  0  0  0  0  0  0
   10.4916    1.8164    3.4444 O   0  0  0  0  0  0  0  0  0  0  0  0
   13.2749    4.3705    6.7226 C   0  0  2  0  0  0  0  0  0  0  0  0
   13.9020    3.0986    7.1916 N   0  0  0  0  0  0  0  0  0  0  0  0
    3.2727    0.3112    3.1309 C   0  0  1  0  0  0  0  0  0  0  0  0
    2.0739    1.0816    3.2324 O   0  0  0  0  0  0  0  0  0  0  0  0
    6.2310   -3.3105    5.3102 C   0  0  2  0  0  0  0  0  0  0  0  0
    5.2629   -3.9286    4.3646 N   0  0  0  0  0  0  0  0  0  0  0  0
    9.8344    3.0640    5.5346 C   0  0  2  0  0  0  0  0  0  0  0  0
   11.2733    3.1371    5.7895 O   0  0  0  0  0  0  0  0  0  0  0  0
   13.6240    5.5827    7.7104 C   0  0  1  0  0  0  0  0  0  0  0  0
   13.3348    6.8299    7.0398 O   0  0  0  0  0  0  0  0  0  0  0  0
    3.7253    0.1626    1.6605 C   0  0  2  0  0  0  0  0  0  0  0  0
    2.6975   -0.4178    0.8916 O   0  0  0  0  0  0  0  0  0  0  0  0
    6.7252   -1.9254    4.7330 C   0  0  2  0  0  0  0  0  0  0  0  0
    9.0632    2.6646    6.8039 C   0  0  2  0  0  0  0  0  0  0  0  0
    9.0167    1.2424    6.7171 O   0  0  0  0  0  0  0  0  0  0  0  0
   12.8116    5.5148    9.0898 C   0  0  2  0  0  0  0  0  0  0  0  0
   13.3122    4.4026    9.8305 O   0  0  0  0  0  0  0  0  0  0  0  0
    5.0181   -0.7183    1.6108 C   0  0  2  0  0  0  0  0  0  0  0  0
    6.0659   -0.1004    2.4232 O   0  0  0  0  0  0  0  0  0  0  0  0
    7.7492   -1.2245    5.6525 C   0  0  2  0  0  0  0  0  0  0  0  0
    8.2257   -0.0806    4.8915 O   0  0  0  0  0  0  0  0  0  0  0  0
    7.6287    3.2671    6.9193 C   0  0  0  0  0  0  0  0  0  0  0  0
    6.8313    2.7941    5.8379 O   0  0  0  0  0  0  0  0  0  0  0  0
   11.2695    5.3397    8.8186 C   0  0  1  0  0  0  0  0  0  0  0  0
   11.1326    4.1154    8.0107 O   0  0  0  0  0  0  0  0  0  0  0  0
    5.5366   -0.9111    0.2044 C   0  0  0  0  0  0  0  0  0  0  0  0
    6.5859   -1.8482    0.1988 O   0  0  0  0  0  0  0  0  0  0  0  0
    8.9444   -2.2096    5.9944 C   0  0  1  0  0  0  0  0  0  0  0  0
    9.8119   -1.6151    6.9637 O   0  0  0  0  0  0  0  0  0  0  0  0
   10.3884    5.2292   10.1377 C   0  0  0  0  0  0  0  0  0  0  0  0
   10.3231    6.4609   10.9715 N   0  0  0  0  0  0  0  0  0  0  0  0
  1  2  1  1  0  0  0
  1  7  1  0  0  0  0
  1 30  1  0  0  0  0
  3  4  1  6  0  0  0
  3  9  1  0  0  0  0
  3 39  1  0  0  0  0
  5 10  1  0  0  0  0
  5 26  1  0  0  0  0
  5 32  1  6  0  0  0
  6 12  1  0  0  0  0
  6 36  1  0  0  0  0
  6 19  1  6  0  0  0
  7  8  1  1  0  0  0
  7 14  1  0  0  0  0
  9 16  1  0  0  0  0
 10 11  1  6  0  0  0
 10 18  1  0  0  0  0
 12 13  1  1  0  0  0
 12 20  1  0  0  0  0
 14 15  1  6  0  0  0
 14 22  1  0  0  0  0
 16 17  1  6  0  0  0
 16 24  1  0  0  0  0
 18 19  1  1  0  0  0
 18 25  1  0  0  0  0
 20 21  1  6  0  0  0
 20 27  1  0  0  0  0
 22 23  1  6  0  0  0
 22 29  1  0  0  0  0
 24  2  1  1  0  0  0
 24 31  1  0  0  0  0
 25 26  1  0  0  0  0
 25 33  1  6  0  0  0
 27 28  1  1  0  0  0
 27 35  1  0  0  0  0
 29 30  1  0  0  0  0
 29 37  1  6  0  0  0
 31 32  1  6  0  0  0
 31 39  1  0  0  0  0
 33 34  1  0  0  0  0
 35 36  1  0  0  0  0
 35 41  1  1  0  0  0
 37 38  1  0  0  0  0
 39 40  1  1  0  0  0
 41 42  1  0  0  0  0
M  END
>  <CHROM.1>
-173.90226754,-169.64390143,171.77373839,-172.81666806,62.21531549,-172.21198346
-174.33008955,-173.01286065,67.06341658,8.35430546,1.15558826,5.47767738
2.52095677,0.61590272,-3.11361995

>  <Name>
ligand

>  <RI>
0

>  <Rbt.Current_Directory>
/home/itssahil/PROJECTS/Mol_Feturizer/Test_systems_manuscript/rnas/2o3w

>  <Rbt.Executable>
rbdock ($Id: //depot/dev/client3/rdock/2013.1/src/exe/rbdock.cxx#4 $)

>  <Rbt.Library>
libRbt.so (2013.1, Build901 2013/11/27)

>  <Rbt.Parameter_File>
/export/apps/rDock/src/rDock_2013.1_src/data/scripts/dock_solv.prm

>  <Rbt.Receptor>
prm/pocket_docking_8.prm

>  <SCORE>
-12.2207

>  <SCORE.INTER>
0.777343

>  <SCORE.INTER.CONST>
1

>  <SCORE.INTER.POLAR>
0

>  <SCORE.INTER.ROT>
9

>  <SCORE.INTER.SOLV>
14.4072

>  <SCORE.INTER.VDW>
-13.8842

>  <SCORE.INTER.norm>
0.0185082

>  <SCORE.INTRA>
-12.9981

>  <SCORE.INTRA.DIHEDRAL>
-25.6696

>  <SCORE.INTRA.DIHEDRAL.0>
27.8999

>  <SCORE.INTRA.POLAR>
0

>  <SCORE.INTRA.POLAR.0>
0

>  <SCORE.INTRA.REPUL>
0

>  <SCORE.INTRA.REPUL.0>
0

>  <SCORE.INTRA.SOLV>
-4.59809

>  <SCORE.INTRA.SOLV.lig_0>
-104.479

>  <SCORE.INTRA.VDW>
2.13578

>  <SCORE.INTRA.VDW.0>
-6.17816

>  <SCORE.INTRA.norm>
-0.309478

>  <SCORE.RESTR>
0

>  <SCORE.RESTR.CAVITY>
0

>  <SCORE.RESTR.norm>
0

>  <SCORE.SYSTEM>
0

>  <SCORE.SYSTEM.CONST>
0

>  <SCORE.SYSTEM.DIHEDRAL>
0

>  <SCORE.SYSTEM.SOLV>
0

>  <SCORE.SYSTEM.norm>
0

>  <SCORE.heavy>
42

>  <SCORE.norm>
-0.290969

>  <RMSD>
7.026

$$$$
ligand
 OpenBabel02271912133D
libRbt.so/2013.1/901 2013/11/27
 42 45  0  0  0  0  0  0  0  0999 V2000
    7.3799   -2.1430    2.0898 C   0  0  2  0  0  0  0  0  0  0  0  0
    6.7502   -2.0497    0.8006 O   0  0  0  0  0  0  0  0  0  0  0  0
    4.8824    1.3585   -1.1207 C   0  0  2  0  0  0  0  0  0  0  0  0
    3.9657    2.4953   -1.4335 N   0  0  0  0  0  0  0  0  0  0  0  0
    7.6604    1.5561    2.6084 C   0  0  1  0  0  0  0  0  0  0  0  0
   10.6913    3.9615    4.6928 C   0  0  1  0  0  0  0  0  0  0  0  0
    8.2507   -3.4351    2.0785 C   0  0  2  0  0  0  0  0  0  0  0  0
    9.1223   -3.5172    0.8935 N   0  0  0  0  0  0  0  0  0  0  0  0
    4.1196   -0.0260   -1.1762 C   0  0  0  0  0  0  0  0  0  0  0  0
    7.9229    1.4293    4.1400 C   0  0  2  0  0  0  0  0  0  0  0  0
    6.9503    2.1183    4.9636 O   0  0  0  0  0  0  0  0  0  0  0  0
   11.4331    3.4121    5.9643 C   0  0  2  0  0  0  0  0  0  0  0  0
   10.5915    3.5796    7.1869 N   0  0  0  0  0  0  0  0  0  0  0  0
    7.3961   -4.7159    2.0916 C   0  0  1  0  0  0  0  0  0  0  0  0
    8.2340   -5.8726    2.1208 O   0  0  0  0  0  0  0  0  0  0  0  0
    5.1404   -1.1840   -0.8608 C   0  0  2  0  0  0  0  0  0  0  0  0
    4.4584   -2.5050   -0.9188 N   0  0  0  0  0  0  0  0  0  0  0  0
    9.3591    1.9458    4.2390 C   0  0  2  0  0  0  0  0  0  0  0  0
    9.3968    3.3911    4.4640 O   0  0  0  0  0  0  0  0  0  0  0  0
   12.8373    4.1668    6.1245 C   0  0  1  0  0  0  0  0  0  0  0  0
   13.7491    3.6760    5.1162 O   0  0  0  0  0  0  0  0  0  0  0  0
    6.4367   -4.6832    3.3030 C   0  0  2  0  0  0  0  0  0  0  0  0
    5.6586   -5.8570    3.3388 O   0  0  0  0  0  0  0  0  0  0  0  0
    5.7866   -0.9833    0.5668 C   0  0  2  0  0  0  0  0  0  0  0  0
   10.0376    1.5708    2.9107 C   0  0  2  0  0  0  0  0  0  0  0  0
    8.9605    1.6106    1.9775 O   0  0  0  0  0  0  0  0  0  0  0  0
   12.7058    5.7588    5.9989 C   0  0  2  0  0  0  0  0  0  0  0  0
   12.0085    6.2259    7.1530 O   0  0  0  0  0  0  0  0  0  0  0  0
    5.5229   -3.4170    3.1965 C   0  0  2  0  0  0  0  0  0  0  0  0
    6.3532   -2.2135    3.1513 O   0  0  0  0  0  0  0  0  0  0  0  0
    6.5034    0.3768    0.7139 C   0  0  2  0  0  0  0  0  0  0  0  0
    6.8676    0.4667    2.1188 O   0  0  0  0  0  0  0  0  0  0  0  0
   10.7382    0.1768    2.9001 C   0  0  0  0  0  0  0  0  0  0  0  0
   11.3887   -0.0133    1.6472 O   0  0  0  0  0  0  0  0  0  0  0  0
   11.9193    6.1501    4.6910 C   0  0  1  0  0  0  0  0  0  0  0  0
   10.6148    5.4714    4.7796 O   0  0  0  0  0  0  0  0  0  0  0  0
    4.5529   -3.3013    4.3495 C   0  0  0  0  0  0  0  0  0  0  0  0
    3.6540   -4.3835    4.3374 O   0  0  0  0  0  0  0  0  0  0  0  0
    5.5261    1.5589    0.3097 C   0  0  1  0  0  0  0  0  0  0  0  0
    6.2331    2.8022    0.3001 O   0  0  0  0  0  0  0  0  0  0  0  0
   11.7128    7.7156    4.5035 C   0  0  0  0  0  0  0  0  0  0  0  0
   10.9617    8.3992    5.5920 N   0  0  0  0  0  0  0  0  0  0  0  0
  1  2  1  6  0  0  0
  1  7  1  0  0  0  0
  1 30  1  0  0  0  0
  3  4  1  1  0  0  0
  3  9  1  0  0  0  0
  3 39  1  0  0  0  0
  5 10  1  0  0  0  0
  5 26  1  0  0  0  0
  5 32  1  6  0  0  0
  6 12  1  0  0  0  0
  6 36  1  0  0  0  0
  6 19  1  1  0  0  0
  7  8  1  6  0  0  0
  7 14  1  0  0  0  0
  9 16  1  0  0  0  0
 10 11  1  1  0  0  0
 10 18  1  0  0  0  0
 12 13  1  1  0  0  0
 12 20  1  0  0  0  0
 14 15  1  1  0  0  0
 14 22  1  0  0  0  0
 16 17  1  1  0  0  0
 16 24  1  0  0  0  0
 18 19  1  6  0  0  0
 18 25  1  0  0  0  0
 20 21  1  6  0  0  0
 20 27  1  0  0  0  0
 22 23  1  6  0  0  0
 22 29  1  0  0  0  0
 24  2  1  6  0  0  0
 24 31  1  0  0  0  0
 25 26  1  0  0  0  0
 25 33  1  1  0  0  0
 27 28  1  1  0  0  0
 27 35  1  0  0  0  0
 29 30  1  0  0  0  0
 29 37  1  1  0  0  0
 31 32  1  1  0  0  0
 31 39  1  0  0  0  0
 33 34  1  0  0  0  0
 35 36  1  0  0  0  0
 35 41  1  1  0  0  0
 37 38  1  0  0  0  0
 39 40  1  6  0  0  0
 41 42  1  0  0  0  0
M  END
>  <CHROM.1>
175.17811377,-174.48641955,174.56392279,-61.24983749,-176.65696708,-63.88910599
174.50590575,-179.77206296,-59.61615274,8.20485350,0.72554387,2.92355797
-2.40948161,-0.76870702,-0.22481068

>  <Name>
ligand

>  <RI>
0

>  <Rbt.Current_Directory>
/home/itssahil/PROJECTS/Mol_Feturizer/Test_systems_manuscript/rnas/2o3w

>  <Rbt.Executable>
rbdock ($Id: //depot/dev/client3/rdock/2013.1/src/exe/rbdock.cxx#4 $)

>  <Rbt.Library>
libRbt.so (2013.1, Build901 2013/11/27)

>  <Rbt.Parameter_File>
/export/apps/rDock/src/rDock_2013.1_src/data/scripts/dock_solv.prm

>  <Rbt.Receptor>
prm/pocket_docking_5.prm

>  <SCORE>
-13.4984

>  <SCORE.INTER>
-0.54294

>  <SCORE.INTER.CONST>
1

>  <SCORE.INTER.POLAR>
0

>  <SCORE.INTER.ROT>
9

>  <SCORE.INTER.SOLV>
14.2988

>  <SCORE.INTER.VDW>
-14.7282

>  <SCORE.INTER.norm>
-0.0129271

>  <SCORE.INTRA>
-12.9555

>  <SCORE.INTRA.DIHEDRAL>
-27.099

>  <SCORE.INTRA.DIHEDRAL.0>
27.8999

>  <SCORE.INTRA.POLAR>
0

>  <SCORE.INTRA.POLAR.0>
0

>  <SCORE.INTRA.REPUL>
0

>  <SCORE.INTRA.REPUL.0>
0

>  <SCORE.INTRA.SOLV>
-4.18816

>  <SCORE.INTRA.SOLV.lig_0>
-104.479

>  <SCORE.INTRA.VDW>
2.6881

>  <SCORE.INTRA.VDW.0>
-6.17816

>  <SCORE.INTRA.norm>
-0.308464

>  <SCORE.RESTR>
0

>  <SCORE.RESTR.CAVITY>
0

>  <SCORE.RESTR.norm>
0

>  <SCORE.SYSTEM>
0

>  <SCORE.SYSTEM.CONST>
0

>  <SCORE.SYSTEM.DIHEDRAL>
0

>  <SCORE.SYSTEM.SOLV>
0

>  <SCORE.SYSTEM.norm>
0

>  <SCORE.heavy>
42

>  <SCORE.norm>
-0.321391

>  <RMSD>
7.032

$$$$
ligand
 OpenBabel02271912133D
libRbt.so/2013.1/901 2013/11/27
 42 45  0  0  0  0  0  0  0  0999 V2000
   13.3847    1.8824    8.3866 C   0  0  2  0  0  0  0  0  0  0  0  0
   13.9991    1.3000    7.2244 O   0  0  0  0  0  0  0  0  0  0  0  0
   12.4118   -0.9281    3.8611 C   0  0  2  0  0  0  0  0  0  0  0  0
   11.6889   -1.9378    3.0315 N   0  0  0  0  0  0  0  0  0  0  0  0
    9.9500    1.9895    6.4413 C   0  0  1  0  0  0  0  0  0  0  0  0
    6.7558    4.8184    5.7784 C   0  0  1  0  0  0  0  0  0  0  0  0
   14.3972    2.9145    8.9677 C   0  0  2  0  0  0  0  0  0  0  0  0
   14.9126    3.8377    7.9418 N   0  0  0  0  0  0  0  0  0  0  0  0
   13.5620   -1.6020    4.7124 C   0  0  0  0  0  0  0  0  0  0  0  0
    9.3812    2.8101    7.6388 C   0  0  2  0  0  0  0  0  0  0  0  0
    8.4655    2.0669    8.4804 O   0  0  0  0  0  0  0  0  0  0  0  0
    5.1916    4.7029    5.6841 C   0  0  2  0  0  0  0  0  0  0  0  0
    4.7864    3.3662    5.1551 N   0  0  0  0  0  0  0  0  0  0  0  0
   15.6208    2.2348    9.6094 C   0  0  1  0  0  0  0  0  0  0  0  0
   16.5008    3.2148   10.1628 O   0  0  0  0  0  0  0  0  0  0  0  0
   14.2998   -0.4871    5.5462 C   0  0  2  0  0  0  0  0  0  0  0  0
   15.4000   -1.0850    6.3498 N   0  0  0  0  0  0  0  0  0  0  0  0
    8.7834    4.0172    6.9143 C   0  0  2  0  0  0  0  0  0  0  0  0
    7.3850    3.7879    6.5502 O   0  0  0  0  0  0  0  0  0  0  0  0
    4.6291    5.8830    4.7580 C   0  0  1  0  0  0  0  0  0  0  0  0
    4.7080    7.1279    5.4880 O   0  0  0  0  0  0  0  0  0  0  0  0
   15.1477    1.2299   10.6843 C   0  0  2  0  0  0  0  0  0  0  0  0
   16.2571    0.6111   11.2933 O   0  0  0  0  0  0  0  0  0  0  0  0
   13.2860    0.2544    6.5044 C   0  0  2  0  0  0  0  0  0  0  0  0
    9.6551    4.2380    5.6666 C   0  0  2  0  0  0  0  0  0  0  0  0
   10.0933    2.9203    5.3439 O   0  0  0  0  0  0  0  0  0  0  0  0
    5.4259    6.0215    3.3746 C   0  0  2  0  0  0  0  0  0  0  0  0
    5.1149    4.8766    2.5817 O   0  0  0  0  0  0  0  0  0  0  0  0
   14.2193    0.1636   10.0130 C   0  0  2  0  0  0  0  0  0  0  0  0
   13.0815    0.8307    9.3803 O   0  0  0  0  0  0  0  0  0  0  0  0
   12.1013    0.8913    5.7454 C   0  0  2  0  0  0  0  0  0  0  0  0
   11.1915    1.3577    6.7795 O   0  0  0  0  0  0  0  0  0  0  0  0
   10.8677    5.1980    5.8724 C   0  0  0  0  0  0  0  0  0  0  0  0
   10.3907    6.4795    6.2714 O   0  0  0  0  0  0  0  0  0  0  0  0
    6.9780    6.1008    3.6327 C   0  0  1  0  0  0  0  0  0  0  0  0
    7.3315    4.8809    4.3792 O   0  0  0  0  0  0  0  0  0  0  0  0
   13.7031   -0.8602   10.9974 C   0  0  0  0  0  0  0  0  0  0  0  0
   14.7743   -1.5896   11.5449 O   0  0  0  0  0  0  0  0  0  0  0  0
   11.3966   -0.1888    4.8220 C   0  0  1  0  0  0  0  0  0  0  0  0
   10.3990    0.4337    4.0077 O   0  0  0  0  0  0  0  0  0  0  0  0
    7.8504    6.2063    2.3074 C   0  0  0  0  0  0  0  0  0  0  0  0
    7.6111    7.4178    1.4758 N   0  0  0  0  0  0  0  0  0  0  0  0
  1  2  1  6  0  0  0
  1  7  1  0  0  0  0
  1 30  1  0  0  0  0
  3  4  1  1  0  0  0
  3  9  1  0  0  0  0
  3 39  1  0  0  0  0
  5 10  1  0  0  0  0
  5 26  1  0  0  0  0
  5 32  1  1  0  0  0
  6 12  1  0  0  0  0
  6 36  1  0  0  0  0
  6 19  1  6  0  0  0
  7  8  1  6  0  0  0
  7 14  1  0  0  0  0
  9 16  1  0  0  0  0
 10 11  1  6  0  0  0
 10 18  1  0  0  0  0
 12 13  1  6  0  0  0
 12 20  1  0  0  0  0
 14 15  1  1  0  0  0
 14 22  1  0  0  0  0
 16 17  1  1  0  0  0
 16 24  1  0  0  0  0
 18 19  1  6  0  0  0
 18 25  1  0  0  0  0
 20 21  1  1  0  0  0
 20 27  1  0  0  0  0
 22 23  1  6  0  0  0
 22 29  1  0  0  0  0
 24  2  1  6  0  0  0
 24 31  1  0  0  0  0
 25 26  1  0  0  0  0
 25 33  1  1  0  0  0
 27 28  1  6  0  0  0
 27 35  1  0  0  0  0
 29 30  1  0  0  0  0
 29 37  1  1  0  0  0
 31 32  1  1  0  0  0
 31 39  1  0  0  0  0
 33 34  1  0  0  0  0
 35 36  1  0  0  0  0
 35 41  1  6  0  0  0
 37 38  1  0  0  0  0
 39 40  1  6  0  0  0
 41 42  1  0  0  0  0
M  END
>  <CHROM.1>
177.72422897,-164.44749888,-175.54350133,-166.74933737,-60.04859637,-62.65236371
-178.79737708,-161.09243058,62.17689608,10.78671167,2.56520487,6.48892760
0.02077915,-0.68868193,0.84871723

>  <Name>
ligand

>  <RI>
0

>  <Rbt.Current_Directory>
/home/itssahil/PROJECTS/Mol_Feturizer/Test_systems_manuscript/rnas/2o3w

>  <Rbt.Executable>
rbdock ($Id: //depot/dev/client3/rdock/2013.1/src/exe/rbdock.cxx#4 $)

>  <Rbt.Library>
libRbt.so (2013.1, Build901 2013/11/27)

>  <Rbt.Parameter_File>
/export/apps/rDock/src/rDock_2013.1_src/data/scripts/dock_solv.prm

>  <Rbt.Receptor>
prm/pocket_docking_7.prm

>  <SCORE>
-12.4903

>  <SCORE.INTER>
-0.569299

>  <SCORE.INTER.CONST>
1

>  <SCORE.INTER.POLAR>
0

>  <SCORE.INTER.ROT>
9

>  <SCORE.INTER.SOLV>
9.13924

>  <SCORE.INTER.VDW>
-13.0259

>  <SCORE.INTER.norm>
-0.0135547

>  <SCORE.INTRA>
-11.921

>  <SCORE.INTRA.DIHEDRAL>
-24.0176

>  <SCORE.INTRA.DIHEDRAL.0>
27.8999

>  <SCORE.INTRA.POLAR>
0

>  <SCORE.INTRA.POLAR.0>
0

>  <SCORE.INTRA.REPUL>
0

>  <SCORE.INTRA.REPUL.0>
0

>  <SCORE.INTRA.SOLV>
-5.39616

>  <SCORE.INTRA.SOLV.lig_0>
-104.479

>  <SCORE.INTRA.VDW>
2.78587

>  <SCORE.INTRA.VDW.0>
-6.17816

>  <SCORE.INTRA.norm>
-0.283833

>  <SCORE.RESTR>
0

>  <SCORE.RESTR.CAVITY>
0

>  <SCORE.RESTR.norm>
0

>  <SCORE.SYSTEM>
0

>  <SCORE.SYSTEM.CONST>
0

>  <SCORE.SYSTEM.DIHEDRAL>
0

>  <SCORE.SYSTEM.SOLV>
0

>  <SCORE.SYSTEM.norm>
0

>  <SCORE.heavy>
42

>  <SCORE.norm>
-0.297388

>  <RMSD>
7.142

$$$$
ligand
 OpenBabel02271912133D
libRbt.so/2013.1/901 2013/11/27
 42 45  0  0  0  0  0  0  0  0999 V2000
    8.6138    5.8955    2.4490 C   0  0  2  0  0  0  0  0  0  0  0  0
    8.2029    4.8452    3.3408 O   0  0  0  0  0  0  0  0  0  0  0  0
    5.6467    1.3749    2.8728 C   0  0  2  0  0  0  0  0  0  0  0  0
    4.4927    0.4866    2.5418 N   0  0  0  0  0  0  0  0  0  0  0  0
    6.5438    4.6164    0.0242 C   0  0  1  0  0  0  0  0  0  0  0  0
    3.9423    6.3799   -2.9336 C   0  0  1  0  0  0  0  0  0  0  0  0
    9.8837    6.5500    3.0713 C   0  0  2  0  0  0  0  0  0  0  0  0
   10.8995    5.5550    3.4566 N   0  0  0  0  0  0  0  0  0  0  0  0
    5.2585    2.4293    3.9862 C   0  0  0  0  0  0  0  0  0  0  0  0
    7.0665    5.7838   -0.8672 C   0  0  2  0  0  0  0  0  0  0  0  0
    7.0829    7.0710   -0.2024 O   0  0  0  0  0  0  0  0  0  0  0  0
    4.4634    6.7009   -4.3808 C   0  0  2  0  0  0  0  0  0  0  0  0
    5.0885    8.0563   -4.4343 N   0  0  0  0  0  0  0  0  0  0  0  0
    9.5599    7.3674    4.3354 C   0  0  1  0  0  0  0  0  0  0  0  0
   10.7440    7.9804    4.8482 O   0  0  0  0  0  0  0  0  0  0  0  0
    6.5183    3.3193    4.3075 C   0  0  2  0  0  0  0  0  0  0  0  0
    6.1924    4.3152    5.3638 N   0  0  0  0  0  0  0  0  0  0  0  0
    6.1356    5.6745   -2.0758 C   0  0  2  0  0  0  0  0  0  0  0  0
    4.9332    6.4904   -1.9043 O   0  0  0  0  0  0  0  0  0  0  0  0
    3.2476    6.5865   -5.4180 C   0  0  1  0  0  0  0  0  0  0  0  0
    2.9277    5.1903   -5.6106 O   0  0  0  0  0  0  0  0  0  0  0  0
    8.4770    8.4199    4.0056 C   0  0  2  0  0  0  0  0  0  0  0  0
    8.1812    9.1880    5.1488 O   0  0  0  0  0  0  0  0  0  0  0  0
    7.0170    4.0681    3.0088 C   0  0  2  0  0  0  0  0  0  0  0  0
    5.7830    4.1832   -2.2065 C   0  0  2  0  0  0  0  0  0  0  0  0
    5.8244    3.7241   -0.8575 O   0  0  0  0  0  0  0  0  0  0  0  0
    1.9394    7.3740   -4.9322 C   0  0  2  0  0  0  0  0  0  0  0  0
    2.2276    8.7701   -4.9980 O   0  0  0  0  0  0  0  0  0  0  0  0
    7.1955    7.6879    3.4844 C   0  0  2  0  0  0  0  0  0  0  0  0
    7.5300    6.8906    2.3045 O   0  0  0  0  0  0  0  0  0  0  0  0
    7.3620    3.1009    1.8552 C   0  0  2  0  0  0  0  0  0  0  0  0
    7.6171    3.9536    0.7053 O   0  0  0  0  0  0  0  0  0  0  0  0
    6.7481    3.3556   -3.1109 C   0  0  0  0  0  0  0  0  0  0  0  0
    8.0951    3.6392   -2.7446 O   0  0  0  0  0  0  0  0  0  0  0  0
    1.5591    6.9646   -3.4591 C   0  0  1  0  0  0  0  0  0  0  0  0
    2.7444    7.2565   -2.6344 O   0  0  0  0  0  0  0  0  0  0  0  0
    6.0820    8.6462    3.1301 C   0  0  0  0  0  0  0  0  0  0  0  0
    4.9478    7.9337    2.6995 O   0  0  0  0  0  0  0  0  0  0  0  0
    6.1430    2.1262    1.5729 C   0  0  1  0  0  0  0  0  0  0  0  0
    6.5161    1.1352    0.6115 O   0  0  0  0  0  0  0  0  0  0  0  0
    0.2876    7.7262   -2.8830 C   0  0  0  0  0  0  0  0  0  0  0  0
   -0.0807    7.3910   -1.4800 N   0  0  0  0  0  0  0  0  0  0  0  0
  1  2  1  1  0  0  0
  1  7  1  0  0  0  0
  1 30  1  0  0  0  0
  3  4  1  6  0  0  0
  3  9  1  0  0  0  0
  3 39  1  0  0  0  0
  5 10  1  0  0  0  0
  5 26  1  0  0  0  0
  5 32  1  6  0  0  0
  6 12  1  0  0  0  0
  6 36  1  0  0  0  0
  6 19  1  1  0  0  0
  7  8  1  1  0  0  0
  7 14  1  0  0  0  0
  9 16  1  0  0  0  0
 10 11  1  1  0  0  0
 10 18  1  0  0  0  0
 12 13  1  1  0  0  0
 12 20  1  0  0  0  0
 14 15  1  6  0  0  0
 14 22  1  0  0  0  0
 16 17  1  1  0  0  0
 16 24  1  0  0  0  0
 18 19  1  1  0  0  0
 18 25  1  0  0  0  0
 20 21  1  1  0  0  0
 20 27  1  0  0  0  0
 22 23  1  1  0  0  0
 22 29  1  0  0  0  0
 24  2  1  1  0  0  0
 24 31  1  0  0  0  0
 25 26  1  0  0  0  0
 25 33  1  6  0  0  0
 27 28  1  1  0  0  0
 27 35  1  0  0  0  0
 29 30  1  0  0  0  0
 29 37  1  6  0  0  0
 31 32  1  6  0  0  0
 31 39  1  0  0  0  0
 33 34  1  0  0  0  0
 35 36  1  0  0  0  0
 35 41  1  1  0  0  0
 37 38  1  0  0  0  0
 39 40  1  6  0  0  0
 41 42  1  0  0  0  0
M  END
>  <CHROM.1>
179.26688538,-162.43263738,-175.29354938,-56.50900086,48.14907373,-178.59220730
-73.32469623,162.66396892,-178.46387887,5.95130010,5.64610931,0.27571049
-0.10288232,-0.97550423,0.01685393

>  <Name>
ligand

>  <RI>
0

>  <Rbt.Current_Directory>
/home/itssahil/PROJECTS/Mol_Feturizer/Test_systems_manuscript/rnas/2o3w

>  <Rbt.Executable>
rbdock ($Id: //depot/dev/client3/rdock/2013.1/src/exe/rbdock.cxx#4 $)

>  <Rbt.Library>
libRbt.so (2013.1, Build901 2013/11/27)

>  <Rbt.Parameter_File>
/export/apps/rDock/src/rDock_2013.1_src/data/scripts/dock_solv.prm

>  <Rbt.Receptor>
prm/pocket_docking_7.prm

>  <SCORE>
-11.0075

>  <SCORE.INTER>
0.746798

>  <SCORE.INTER.CONST>
1

>  <SCORE.INTER.POLAR>
0

>  <SCORE.INTER.ROT>
9

>  <SCORE.INTER.SOLV>
9.51993

>  <SCORE.INTER.VDW>
-12.2754

>  <SCORE.INTER.norm>
0.0177809

>  <SCORE.INTRA>
-11.7543

>  <SCORE.INTRA.DIHEDRAL>
-23.435

>  <SCORE.INTRA.DIHEDRAL.0>
27.8999

>  <SCORE.INTRA.POLAR>
0

>  <SCORE.INTRA.POLAR.0>
0

>  <SCORE.INTRA.REPUL>
0

>  <SCORE.INTRA.REPUL.0>
0

>  <SCORE.INTRA.SOLV>
-4.19428

>  <SCORE.INTRA.SOLV.lig_0>
-104.479

>  <SCORE.INTRA.VDW>
2.06037

>  <SCORE.INTRA.VDW.0>
-6.17816

>  <SCORE.INTRA.norm>
-0.279864

>  <SCORE.RESTR>
0

>  <SCORE.RESTR.CAVITY>
0

>  <SCORE.RESTR.norm>
0

>  <SCORE.SYSTEM>
0

>  <SCORE.SYSTEM.CONST>
0

>  <SCORE.SYSTEM.DIHEDRAL>
0

>  <SCORE.SYSTEM.SOLV>
0

>  <SCORE.SYSTEM.norm>
0

>  <SCORE.heavy>
42

>  <SCORE.norm>
-0.262083

>  <RMSD>
7.291

$$$$
ligand
 OpenBabel02271912133D
libRbt.so/2013.1/901 2013/11/27
 42 45  0  0  0  0  0  0  0  0999 V2000
    3.9831    2.1879    1.7046 C   0  0  2  0  0  0  0  0  0  0  0  0
    3.2297    3.4043    1.8461 O   0  0  0  0  0  0  0  0  0  0  0  0
    4.3775    7.5544    1.3406 C   0  0  2  0  0  0  0  0  0  0  0  0
    5.0703    8.8704    1.4772 N   0  0  0  0  0  0  0  0  0  0  0  0
    6.7356    3.7720    1.7361 C   0  0  1  0  0  0  0  0  0  0  0  0
   10.4500    3.3006    3.9834 C   0  0  1  0  0  0  0  0  0  0  0  0
    2.9556    1.0167    1.6779 C   0  0  2  0  0  0  0  0  0  0  0  0
    1.8612    1.2487    0.7193 N   0  0  0  0  0  0  0  0  0  0  0  0
    3.6360    7.1545    2.6793 C   0  0  0  0  0  0  0  0  0  0  0  0
    7.7961    2.7004    1.3389 C   0  0  2  0  0  0  0  0  0  0  0  0
    7.4640    1.3562    1.7653 O   0  0  0  0  0  0  0  0  0  0  0  0
   10.7196    2.6506    5.3883 C   0  0  2  0  0  0  0  0  0  0  0  0
    9.5427    2.8246    6.2913 N   0  0  0  0  0  0  0  0  0  0  0  0
    2.3012    0.7821    3.0518 C   0  0  1  0  0  0  0  0  0  0  0  0
    1.3984   -0.3234    2.9904 O   0  0  0  0  0  0  0  0  0  0  0  0
    2.9081    5.7734    2.4665 C   0  0  2  0  0  0  0  0  0  0  0  0
    2.1865    5.3726    3.7043 N   0  0  0  0  0  0  0  0  0  0  0  0
    9.0642    3.2956    1.9528 C   0  0  2  0  0  0  0  0  0  0  0  0
    9.2680    2.8290    3.3245 O   0  0  0  0  0  0  0  0  0  0  0  0
   12.0368    3.3012    6.0278 C   0  0  1  0  0  0  0  0  0  0  0  0
   13.1955    2.7913    5.3304 O   0  0  0  0  0  0  0  0  0  0  0  0
    3.4005    0.5546    4.1144 C   0  0  2  0  0  0  0  0  0  0  0  0
    2.8171    0.3216    5.3753 O   0  0  0  0  0  0  0  0  0  0  0  0
    3.9475    4.6510    2.0718 C   0  0  2  0  0  0  0  0  0  0  0  0
    8.8830    4.8222    1.9046 C   0  0  2  0  0  0  0  0  0  0  0  0
    7.4717    4.9820    2.0280 O   0  0  0  0  0  0  0  0  0  0  0  0
   12.0339    4.9022    5.9634 C   0  0  2  0  0  0  0  0  0  0  0  0
   11.0306    5.3680    6.8650 O   0  0  0  0  0  0  0  0  0  0  0  0
    4.3337    1.8102    4.1604 C   0  0  2  0  0  0  0  0  0  0  0  0
    4.9190    2.0367    2.8391 O   0  0  0  0  0  0  0  0  0  0  0  0
    4.7519    5.0000    0.8005 C   0  0  2  0  0  0  0  0  0  0  0  0
    5.7685    3.9656    0.6958 O   0  0  0  0  0  0  0  0  0  0  0  0
    9.4142    5.5073    0.6075 C   0  0  0  0  0  0  0  0  0  0  0  0
   10.8129    5.2662    0.4870 O   0  0  0  0  0  0  0  0  0  0  0  0
   11.7254    5.3991    4.5004 C   0  0  1  0  0  0  0  0  0  0  0  0
   10.4275    4.8073    4.1325 O   0  0  0  0  0  0  0  0  0  0  0  0
    5.4466    1.6708    5.1732 C   0  0  0  0  0  0  0  0  0  0  0  0
    6.1608    2.8783    5.2781 O   0  0  0  0  0  0  0  0  0  0  0  0
    5.4193    6.4312    0.9488 C   0  0  1  0  0  0  0  0  0  0  0  0
    6.0360    6.8180   -0.2824 O   0  0  0  0  0  0  0  0  0  0  0  0
   11.6699    6.9813    4.3521 C   0  0  0  0  0  0  0  0  0  0  0  0
   11.1648    7.4866    3.0459 N   0  0  0  0  0  0  0  0  0  0  0  0
  1  2  1  1  0  0  0
  1  7  1  0  0  0  0
  1 30  1  0  0  0  0
  3  4  1  1  0  0  0
  3  9  1  0  0  0  0
  3 39  1  0  0  0  0
  5 10  1  0  0  0  0
  5 26  1  0  0  0  0
  5 32  1  6  0  0  0
  6 12  1  0  0  0  0
  6 36  1  0  0  0  0
  6 19  1  1  0  0  0
  7  8  1  6  0  0  0
  7 14  1  0  0  0  0
  9 16  1  0  0  0  0
 10 11  1  1  0  0  0
 10 18  1  0  0  0  0
 12 13  1  1  0  0  0
 12 20  1  0  0  0  0
 14 15  1  6  0  0  0
 14 22  1  0  0  0  0
 16 17  1  1  0  0  0
 16 24  1  0  0  0  0
 18 19  1  1  0  0  0
 18 25  1  0  0  0  0
 20 21  1  6  0  0  0
 20 27  1  0  0  0  0
 22 23  1  1  0  0  0
 22 29  1  0  0  0  0
 24  2  1  6  0  0  0
 24 31  1  0  0  0  0
 25 26  1  0  0  0  0
 25 33  1  6  0  0  0
 27 28  1  1  0  0  0
 27 35  1  0  0  0  0
 29 30  1  0  0  0  0
 29 37  1  1  0  0  0
 31 32  1  1  0  0  0
 31 39  1  0  0  0  0
 33 34  1  0  0  0  0
 35 36  1  0  0  0  0
 35 41  1  1  0  0  0
 37 38  1  0  0  0  0
 39 40  1  6  0  0  0
 41 42  1  0  0  0  0
M  END
>  <CHROM.1>
172.21209131,-169.23661424,178.44413012,-173.29330000,-60.57845973,-173.48867425
-60.11851371,-174.68148213,-170.40118211,6.87030718,3.87363186,3.00204411
-3.05372565,-0.32126775,-0.56037774

>  <Name>
ligand

>  <RI>
0

>  <Rbt.Current_Directory>
/home/itssahil/PROJECTS/Mol_Feturizer/Test_systems_manuscript/rnas/2o3w

>  <Rbt.Executable>
rbdock ($Id: //depot/dev/client3/rdock/2013.1/src/exe/rbdock.cxx#4 $)

>  <Rbt.Library>
libRbt.so (2013.1, Build901 2013/11/27)

>  <Rbt.Parameter_File>
/export/apps/rDock/src/rDock_2013.1_src/data/scripts/dock_solv.prm

>  <Rbt.Receptor>
prm/pocket_docking_5.prm

>  <SCORE>
-12.747

>  <SCORE.INTER>
-0.734556

>  <SCORE.INTER.CONST>
1

>  <SCORE.INTER.POLAR>
0

>  <SCORE.INTER.ROT>
9

>  <SCORE.INTER.SOLV>
18.0233

>  <SCORE.INTER.VDW>
-16.0975

>  <SCORE.INTER.norm>
-0.0174894

>  <SCORE.INTRA>
-12.0124

>  <SCORE.INTRA.DIHEDRAL>
-26.0503

>  <SCORE.INTRA.DIHEDRAL.0>
27.8999

>  <SCORE.INTRA.POLAR>
0

>  <SCORE.INTRA.POLAR.0>
0

>  <SCORE.INTRA.REPUL>
0

>  <SCORE.INTRA.REPUL.0>
0

>  <SCORE.INTRA.SOLV>
-1.62356

>  <SCORE.INTRA.SOLV.lig_0>
-104.479

>  <SCORE.INTRA.VDW>
1.82451

>  <SCORE.INTRA.VDW.0>
-6.17816

>  <SCORE.INTRA.norm>
-0.286009

>  <SCORE.RESTR>
0

>  <SCORE.RESTR.CAVITY>
0

>  <SCORE.RESTR.norm>
0

>  <SCORE.SYSTEM>
0

>  <SCORE.SYSTEM.CONST>
0

>  <SCORE.SYSTEM.DIHEDRAL>
0

>  <SCORE.SYSTEM.SOLV>
0

>  <SCORE.SYSTEM.norm>
0

>  <SCORE.heavy>
42

>  <SCORE.norm>
-0.303499

>  <RMSD>
7.301

$$$$
ligand
 OpenBabel02271912133D
libRbt.so/2013.1/901 2013/11/27
 42 45  0  0  0  0  0  0  0  0999 V2000
    8.7118    5.7721    1.9481 C   0  0  2  0  0  0  0  0  0  0  0  0
    8.9783    4.5073    2.5779 O   0  0  0  0  0  0  0  0  0  0  0  0
    6.8514    0.7580    2.1144 C   0  0  2  0  0  0  0  0  0  0  0  0
    5.7968   -0.2988    2.1526 N   0  0  0  0  0  0  0  0  0  0  0  0
    6.5276    4.6197   -0.6172 C   0  0  1  0  0  0  0  0  0  0  0  0
    4.3027    6.3319   -3.5922 C   0  0  1  0  0  0  0  0  0  0  0  0
    9.9820    6.6536    2.1421 C   0  0  2  0  0  0  0  0  0  0  0  0
   11.2188    5.9533    1.7545 N   0  0  0  0  0  0  0  0  0  0  0  0
    7.3019    1.1722    3.5729 C   0  0  0  0  0  0  0  0  0  0  0  0
    5.6708    5.8969   -0.8732 C   0  0  2  0  0  0  0  0  0  0  0  0
    4.2445    5.6485   -0.9277 O   0  0  0  0  0  0  0  0  0  0  0  0
    3.6631    5.7993   -4.9249 C   0  0  2  0  0  0  0  0  0  0  0  0
    4.5246    6.1299   -6.0994 N   0  0  0  0  0  0  0  0  0  0  0  0
   10.1643    7.1021    3.6039 C   0  0  1  0  0  0  0  0  0  0  0  0
   11.3158    7.9385    3.7276 O   0  0  0  0  0  0  0  0  0  0  0  0
    8.4275    2.2696    3.4669 C   0  0  2  0  0  0  0  0  0  0  0  0
    8.8862    2.6731    4.8235 N   0  0  0  0  0  0  0  0  0  0  0  0
    6.3011    6.4238   -2.1633 C   0  0  2  0  0  0  0  0  0  0  0  0
    5.6393    5.8765   -3.3479 O   0  0  0  0  0  0  0  0  0  0  0  0
    2.1967    6.4223   -5.0934 C   0  0  1  0  0  0  0  0  0  0  0  0
    1.3049    5.7783   -4.1560 O   0  0  0  0  0  0  0  0  0  0  0  0
    8.8862    7.8266    4.0841 C   0  0  2  0  0  0  0  0  0  0  0  0
    9.0434    8.2584    5.4158 O   0  0  0  0  0  0  0  0  0  0  0  0
    7.8975    3.5376    2.6876 C   0  0  2  0  0  0  0  0  0  0  0  0
    7.7818    6.0112   -2.1117 C   0  0  2  0  0  0  0  0  0  0  0  0
    7.7504    4.7946   -1.3691 O   0  0  0  0  0  0  0  0  0  0  0  0
    2.1639    8.0075   -4.8619 C   0  0  2  0  0  0  0  0  0  0  0  0
    2.8497    8.6169   -5.9549 O   0  0  0  0  0  0  0  0  0  0  0  0
    7.6687    6.8511    3.9591 C   0  0  2  0  0  0  0  0  0  0  0  0
    7.5324    6.4099    2.5711 O   0  0  0  0  0  0  0  0  0  0  0  0
    7.3862    3.1989    1.2702 C   0  0  2  0  0  0  0  0  0  0  0  0
    6.7763    4.4250    0.7811 O   0  0  0  0  0  0  0  0  0  0  0  0
    8.7321    7.0525   -1.4431 C   0  0  0  0  0  0  0  0  0  0  0  0
   10.0678    6.5587   -1.4750 O   0  0  0  0  0  0  0  0  0  0  0  0
    2.8625    8.3850   -3.5012 C   0  0  1  0  0  0  0  0  0  0  0  0
    4.2307    7.8444   -3.5798 O   0  0  0  0  0  0  0  0  0  0  0  0
    6.3696    7.4824    4.4036 C   0  0  0  0  0  0  0  0  0  0  0  0
    5.3168    6.5561    4.2908 O   0  0  0  0  0  0  0  0  0  0  0  0
    6.3187    2.0277    1.3370 C   0  0  1  0  0  0  0  0  0  0  0  0
    5.9589    1.6121    0.0166 O   0  0  0  0  0  0  0  0  0  0  0  0
    2.9049    9.9471   -3.2065 C   0  0  0  0  0  0  0  0  0  0  0  0
    3.5329   10.3402   -1.9151 N   0  0  0  0  0  0  0  0  0  0  0  0
  1  2  1  1  0  0  0
  1  7  1  0  0  0  0
  1 30  1  0  0  0  0
  3  4  1  1  0  0  0
  3  9  1  0  0  0  0
  3 39  1  0  0  0  0
  5 10  1  0  0  0  0
  5 26  1  0  0  0  0
  5 32  1  1  0  0  0
  6 12  1  0  0  0  0
  6 36  1  0  0  0  0
  6 19  1  6  0  0  0
  7  8  1  1  0  0  0
  7 14  1  0  0  0  0
  9 16  1  0  0  0  0
 10 11  1  6  0  0  0
 10 18  1  0  0  0  0
 12 13  1  6  0  0  0
 12 20  1  0  0  0  0
 14 15  1  6  0  0  0
 14 22  1  0  0  0  0
 16 17  1  1  0  0  0
 16 24  1  0  0  0  0
 18 19  1  6  0  0  0
 18 25  1  0  0  0  0
 20 21  1  1  0  0  0
 20 27  1  0  0  0  0
 22 23  1  1  0  0  0
 22 29  1  0  0  0  0
 24  2  1  6  0  0  0
 24 31  1  0  0  0  0
 25 26  1  0  0  0  0
 25 33  1  1  0  0  0
 27 28  1  6  0  0  0
 27 35  1  0  0  0  0
 29 30  1  0  0  0  0
 29 37  1  6  0  0  0
 31 32  1  1  0  0  0
 31 39  1  0  0  0  0
 33 34  1  0  0  0  0
 35 36  1  0  0  0  0
 35 41  1  6  0  0  0
 37 38  1  0  0  0  0
 39 40  1  6  0  0  0
 41 42  1  0  0  0  0
M  END
>  <CHROM.1>
172.82336998,-177.56907792,69.42923605,175.97184682,-179.27002520,-179.03301694
162.24783558,170.98861227,178.78229155,6.52398268,5.71880437,0.03208452,-0.46110141
-0.91308608,-0.25129008

>  <Name>
ligand

>  <RI>
0

>  <Rbt.Current_Directory>
/home/itssahil/PROJECTS/Mol_Feturizer/Test_systems_manuscript/rnas/2o3w

>  <Rbt.Executable>
rbdock ($Id: //depot/dev/client3/rdock/2013.1/src/exe/rbdock.cxx#4 $)

>  <Rbt.Library>
libRbt.so (2013.1, Build901 2013/11/27)

>  <Rbt.Parameter_File>
/export/apps/rDock/src/rDock_2013.1_src/data/scripts/dock_solv.prm

>  <Rbt.Receptor>
prm/pocket_docking_7.prm

>  <SCORE>
-11.3759

>  <SCORE.INTER>
1.463

>  <SCORE.INTER.CONST>
1

>  <SCORE.INTER.POLAR>
0

>  <SCORE.INTER.ROT>
9

>  <SCORE.INTER.SOLV>
12.7595

>  <SCORE.INTER.VDW>
-12.8778

>  <SCORE.INTER.norm>
0.0348334

>  <SCORE.INTRA>
-12.8389

>  <SCORE.INTRA.DIHEDRAL>
-25.1137

>  <SCORE.INTRA.DIHEDRAL.0>
27.8999

>  <SCORE.INTRA.POLAR>
0

>  <SCORE.INTRA.POLAR.0>
0

>  <SCORE.INTRA.REPUL>
0

>  <SCORE.INTRA.REPUL.0>
0

>  <SCORE.INTRA.SOLV>
-5.15604

>  <SCORE.INTRA.SOLV.lig_0>
-104.479

>  <SCORE.INTRA.VDW>
2.29601

>  <SCORE.INTRA.VDW.0>
-6.17816

>  <SCORE.INTRA.norm>
-0.305687

>  <SCORE.RESTR>
0

>  <SCORE.RESTR.CAVITY>
0

>  <SCORE.RESTR.norm>
0

>  <SCORE.SYSTEM>
0

>  <SCORE.SYSTEM.CONST>
0

>  <SCORE.SYSTEM.DIHEDRAL>
0

>  <SCORE.SYSTEM.SOLV>
0

>  <SCORE.SYSTEM.norm>
0

>  <SCORE.heavy>
42

>  <SCORE.norm>
-0.270854

>  <RMSD>
7.303

$$$$
ligand
 OpenBabel02271912133D
libRbt.so/2013.1/901 2013/11/27
 42 45  0  0  0  0  0  0  0  0999 V2000
    6.3048   -2.3859    0.7008 C   0  0  2  0  0  0  0  0  0  0  0  0
    5.5825   -3.5680    1.0859 O   0  0  0  0  0  0  0  0  0  0  0  0
    5.5082   -5.7216    4.8478 C   0  0  2  0  0  0  0  0  0  0  0  0
    5.9164   -6.5028    6.0535 N   0  0  0  0  0  0  0  0  0  0  0  0
    7.0965   -1.4179    4.3256 C   0  0  1  0  0  0  0  0  0  0  0  0
    9.1838    1.8430    5.8138 C   0  0  1  0  0  0  0  0  0  0  0  0
    5.5565   -1.7731   -0.5209 C   0  0  2  0  0  0  0  0  0  0  0  0
    4.1092   -1.6330   -0.2832 N   0  0  0  0  0  0  0  0  0  0  0  0
    5.7113   -6.5621    3.5234 C   0  0  0  0  0  0  0  0  0  0  0  0
    8.0012   -0.2525    3.8214 C   0  0  2  0  0  0  0  0  0  0  0  0
    9.4072   -0.4238    4.1262 O   0  0  0  0  0  0  0  0  0  0  0  0
    9.8177    1.9900    7.2440 C   0  0  2  0  0  0  0  0  0  0  0  0
    8.9041    2.7390    8.1580 N   0  0  0  0  0  0  0  0  0  0  0  0
    5.7177   -2.6260   -1.7928 C   0  0  1  0  0  0  0  0  0  0  0  0
    5.0504   -2.0076   -2.8942 O   0  0  0  0  0  0  0  0  0  0  0  0
    5.2439   -5.6962    2.2928 C   0  0  2  0  0  0  0  0  0  0  0  0
    5.4079   -6.4631    1.0285 N   0  0  0  0  0  0  0  0  0  0  0  0
    7.3240    0.9532    4.4746 C   0  0  2  0  0  0  0  0  0  0  0  0
    7.8860    1.2355    5.7957 O   0  0  0  0  0  0  0  0  0  0  0  0
   11.2366    2.7238    7.1205 C   0  0  1  0  0  0  0  0  0  0  0  0
   12.1933    1.7988    6.5565 O   0  0  0  0  0  0  0  0  0  0  0  0
    7.2208   -2.8330   -2.0876 C   0  0  2  0  0  0  0  0  0  0  0  0
    7.3856   -3.5982   -3.2589 O   0  0  0  0  0  0  0  0  0  0  0  0
    6.0724   -4.3536    2.2097 C   0  0  2  0  0  0  0  0  0  0  0  0
    5.8297    0.6017    4.5683 C   0  0  2  0  0  0  0  0  0  0  0  0
    5.8422   -0.8158    4.7197 O   0  0  0  0  0  0  0  0  0  0  0  0
   11.1759    4.0477    6.2198 C   0  0  2  0  0  0  0  0  0  0  0  0
   10.4224    5.0235    6.9383 O   0  0  0  0  0  0  0  0  0  0  0  0
    7.8879   -3.5447   -0.8636 C   0  0  2  0  0  0  0  0  0  0  0  0
    7.6951   -2.7365    0.3403 O   0  0  0  0  0  0  0  0  0  0  0  0
    5.9667   -3.5041    3.4952 C   0  0  2  0  0  0  0  0  0  0  0  0
    6.9208   -2.4213    3.3170 O   0  0  0  0  0  0  0  0  0  0  0  0
    4.9750    1.0268    3.3341 C   0  0  0  0  0  0  0  0  0  0  0  0
    3.6253    0.6173    3.5330 O   0  0  0  0  0  0  0  0  0  0  0  0
   10.4937    3.7452    4.8323 C   0  0  1  0  0  0  0  0  0  0  0  0
    9.1606    3.1998    5.1420 O   0  0  0  0  0  0  0  0  0  0  0  0
    9.3668   -3.7821   -1.0642 C   0  0  0  0  0  0  0  0  0  0  0  0
    9.9154   -4.4088    0.0697 O   0  0  0  0  0  0  0  0  0  0  0  0
    6.3403   -4.3795    4.7640 C   0  0  1  0  0  0  0  0  0  0  0  0
    6.0968   -3.6392    5.9632 O   0  0  0  0  0  0  0  0  0  0  0  0
   10.3613    5.0156    3.8851 C   0  0  0  0  0  0  0  0  0  0  0  0
    9.6290    4.7912    2.6084 N   0  0  0  0  0  0  0  0  0  0  0  0
  1  2  1  6  0  0  0
  1  7  1  0  0  0  0
  1 30  1  0  0  0  0
  3  4  1  1  0  0  0
  3  9  1  0  0  0  0
  3 39  1  0  0  0  0
  5 10  1  0  0  0  0
  5 26  1  0  0  0  0
  5 32  1  6  0  0  0
  6 12  1  0  0  0  0
  6 36  1  0  0  0  0
  6 19  1  1  0  0  0
  7  8  1  1  0  0  0
  7 14  1  0  0  0  0
  9 16  1  0  0  0  0
 10 11  1  1  0  0  0
 10 18  1  0  0  0  0
 12 13  1  1  0  0  0
 12 20  1  0  0  0  0
 14 15  1  6  0  0  0
 14 22  1  0  0  0  0
 16 17  1  6  0  0  0
 16 24  1  0  0  0  0
 18 19  1  1  0  0  0
 18 25  1  0  0  0  0
 20 21  1  6  0  0  0
 20 27  1  0  0  0  0
 22 23  1  6  0  0  0
 22 29  1  0  0  0  0
 24  2  1  6  0  0  0
 24 31  1  0  0  0  0
 25 26  1  0  0  0  0
 25 33  1  6  0  0  0
 27 28  1  1  0  0  0
 27 35  1  0  0  0  0
 29 30  1  0  0  0  0
 29 37  1  6  0  0  0
 31 32  1  6  0  0  0
 31 39  1  0  0  0  0
 33 34  1  0  0  0  0
 35 36  1  0  0  0  0
 35 41  1  6  0  0  0
 37 38  1  0  0  0  0
 39 40  1  1  0  0  0
 41 42  1  0  0  0  0
M  END
>  <CHROM.1>
179.58101509,-171.66163927,74.46135578,-173.79357667,178.63037958,179.34119331
179.83505497,-171.23219099,-175.53549500,7.47399879,-1.07325765,3.08778665
-2.57729457,1.11218535,1.60461228

>  <Name>
ligand

>  <RI>
0

>  <Rbt.Current_Directory>
/home/itssahil/PROJECTS/Mol_Feturizer/Test_systems_manuscript/rnas/2o3w

>  <Rbt.Executable>
rbdock ($Id: //depot/dev/client3/rdock/2013.1/src/exe/rbdock.cxx#4 $)

>  <Rbt.Library>
libRbt.so (2013.1, Build901 2013/11/27)

>  <Rbt.Parameter_File>
/export/apps/rDock/src/rDock_2013.1_src/data/scripts/dock_solv.prm

>  <Rbt.Receptor>
prm/pocket_docking_7.prm

>  <SCORE>
-10.6512

>  <SCORE.INTER>
2.67871

>  <SCORE.INTER.CONST>
1

>  <SCORE.INTER.POLAR>
0

>  <SCORE.INTER.ROT>
9

>  <SCORE.INTER.SOLV>
10.9994

>  <SCORE.INTER.VDW>
-11.4807

>  <SCORE.INTER.norm>
0.0637788

>  <SCORE.INTRA>
-13.3299

>  <SCORE.INTRA.DIHEDRAL>
-25.7931

>  <SCORE.INTRA.DIHEDRAL.0>
27.8999

>  <SCORE.INTRA.POLAR>
0

>  <SCORE.INTRA.POLAR.0>
0

>  <SCORE.INTRA.REPUL>
0

>  <SCORE.INTRA.REPUL.0>
0

>  <SCORE.INTRA.SOLV>
-6.27228

>  <SCORE.INTRA.SOLV.lig_0>
-104.479

>  <SCORE.INTRA.VDW>
2.70282

>  <SCORE.INTRA.VDW.0>
-6.17816

>  <SCORE.INTRA.norm>
-0.317378

>  <SCORE.RESTR>
0

>  <SCORE.RESTR.CAVITY>
0

>  <SCORE.RESTR.norm>
0

>  <SCORE.SYSTEM>
0

>  <SCORE.SYSTEM.CONST>
0

>  <SCORE.SYSTEM.DIHEDRAL>
0

>  <SCORE.SYSTEM.SOLV>
0

>  <SCORE.SYSTEM.norm>
0

>  <SCORE.heavy>
42

>  <SCORE.norm>
-0.253599

>  <RMSD>
7.305

$$$$
ligand
 OpenBabel02271912133D
libRbt.so/2013.1/901 2013/11/27
 42 45  0  0  0  0  0  0  0  0999 V2000
   10.4680    4.5165    7.1959 C   0  0  2  0  0  0  0  0  0  0  0  0
   11.1685    5.3315    6.2407 O   0  0  0  0  0  0  0  0  0  0  0  0
   10.0575    7.1022    2.4426 C   0  0  2  0  0  0  0  0  0  0  0  0
    9.5319    7.2978    1.0584 N   0  0  0  0  0  0  0  0  0  0  0  0
    8.0253    4.2548    5.2745 C   0  0  1  0  0  0  0  0  0  0  0  0
    5.7790    0.6627    4.2386 C   0  0  1  0  0  0  0  0  0  0  0  0
   11.2854    4.5649    8.5216 C   0  0  2  0  0  0  0  0  0  0  0  0
   11.6226    5.9408    8.9261 N   0  0  0  0  0  0  0  0  0  0  0  0
   11.2791    6.0976    2.4560 C   0  0  0  0  0  0  0  0  0  0  0  0
    6.9060    3.7032    6.2092 C   0  0  2  0  0  0  0  0  0  0  0  0
    7.4035    2.9657    7.3528 O   0  0  0  0  0  0  0  0  0  0  0  0
    6.0784   -0.8713    4.4000 C   0  0  2  0  0  0  0  0  0  0  0  0
    7.5391   -1.1477    4.2563 N   0  0  0  0  0  0  0  0  0  0  0  0
   12.6141    3.7937    8.4173 C   0  0  1  0  0  0  0  0  0  0  0  0
   13.3101    3.8311    9.6644 O   0  0  0  0  0  0  0  0  0  0  0  0
   11.8021    5.9501    3.9349 C   0  0  2  0  0  0  0  0  0  0  0  0
   12.9633    5.0210    3.9828 N   0  0  0  0  0  0  0  0  0  0  0  0
    6.0617    2.8993    5.2192 C   0  0  2  0  0  0  0  0  0  0  0  0
    6.5160    1.5115    5.1274 O   0  0  0  0  0  0  0  0  0  0  0  0
    5.2281   -1.6926    3.3187 C   0  0  1  0  0  0  0  0  0  0  0  0
    3.8408   -1.7016    3.7242 O   0  0  0  0  0  0  0  0  0  0  0  0
   12.3333    2.3408    7.9710 C   0  0  2  0  0  0  0  0  0  0  0  0
   13.5386    1.6164    7.8869 O   0  0  0  0  0  0  0  0  0  0  0  0
   10.6554    5.4146    4.8805 C   0  0  2  0  0  0  0  0  0  0  0  0
    6.1932    3.6194    3.8666 C   0  0  2  0  0  0  0  0  0  0  0  0
    7.5014    4.1827    3.9286 O   0  0  0  0  0  0  0  0  0  0  0  0
    5.3504   -1.0864    1.8405 C   0  0  2  0  0  0  0  0  0  0  0  0
    6.6813   -1.3267    1.3850 O   0  0  0  0  0  0  0  0  0  0  0  0
   11.6042    2.3639    6.5863 C   0  0  2  0  0  0  0  0  0  0  0  0
   10.3622    3.1288    6.6971 O   0  0  0  0  0  0  0  0  0  0  0  0
    9.4033    6.3187    4.8747 C   0  0  2  0  0  0  0  0  0  0  0  0
    8.4022    5.5897    5.6367 O   0  0  0  0  0  0  0  0  0  0  0  0
    5.1202    4.7202    3.5999 C   0  0  0  0  0  0  0  0  0  0  0  0
    3.8253    4.1270    3.6094 O   0  0  0  0  0  0  0  0  0  0  0  0
    5.0471    0.4596    1.8468 C   0  0  1  0  0  0  0  0  0  0  0  0
    6.0018    1.0601    2.7945 O   0  0  0  0  0  0  0  0  0  0  0  0
   11.2837    0.9785    6.0747 C   0  0  0  0  0  0  0  0  0  0  0  0
   10.3922    0.3323    6.9505 O   0  0  0  0  0  0  0  0  0  0  0  0
    8.9097    6.5632    3.3873 C   0  0  1  0  0  0  0  0  0  0  0  0
    7.8460    7.5193    3.3713 O   0  0  0  0  0  0  0  0  0  0  0  0
    5.1791    1.1513    0.4210 C   0  0  0  0  0  0  0  0  0  0  0  0
    4.2713    0.6245   -0.6349 N   0  0  0  0  0  0  0  0  0  0  0  0
  1  2  1  6  0  0  0
  1  7  1  0  0  0  0
  1 30  1  0  0  0  0
  3  4  1  6  0  0  0
  3  9  1  0  0  0  0
  3 39  1  0  0  0  0
  5 10  1  0  0  0  0
  5 26  1  0  0  0  0
  5 32  1  1  0  0  0
  6 12  1  0  0  0  0
  6 36  1  0  0  0  0
  6 19  1  1  0  0  0
  7  8  1  6  0  0  0
  7 14  1  0  0  0  0
  9 16  1  0  0  0  0
 10 11  1  1  0  0  0
 10 18  1  0  0  0  0
 12 13  1  6  0  0  0
 12 20  1  0  0  0  0
 14 15  1  1  0  0  0
 14 22  1  0  0  0  0
 16 17  1  6  0  0  0
 16 24  1  0  0  0  0
 18 19  1  6  0  0  0
 18 25  1  0  0  0  0
 20 21  1  1  0  0  0
 20 27  1  0  0  0  0
 22 23  1  6  0  0  0
 22 29  1  0  0  0  0
 24  2  1  1  0  0  0
 24 31  1  0  0  0  0
 25 26  1  0  0  0  0
 25 33  1  1  0  0  0
 27 28  1  1  0  0  0
 27 35  1  0  0  0  0
 29 30  1  0  0  0  0
 29 37  1  1  0  0  0
 31 32  1  1  0  0  0
 31 39  1  0  0  0  0
 33 34  1  0  0  0  0
 35 36  1  0  0  0  0
 35 41  1  6  0  0  0
 37 38  1  0  0  0  0
 39 40  1  1  0  0  0
 41 42  1  0  0  0  0
M  END
>  <CHROM.1>
177.06701530,-161.78232561,179.14690295,-166.99780315,-60.76936618,62.88564937
-55.66045728,-178.15637456,60.29798789,8.54462705,3.06826188,4.75591041,-0.23803047
0.71556448,2.72031256

>  <Name>
ligand

>  <RI>
0

>  <Rbt.Current_Directory>
/home/itssahil/PROJECTS/Mol_Feturizer/Test_systems_manuscript/rnas/2o3w

>  <Rbt.Executable>
rbdock ($Id: //depot/dev/client3/rdock/2013.1/src/exe/rbdock.cxx#4 $)

>  <Rbt.Library>
libRbt.so (2013.1, Build901 2013/11/27)

>  <Rbt.Parameter_File>
/export/apps/rDock/src/rDock_2013.1_src/data/scripts/dock_solv.prm

>  <Rbt.Receptor>
prm/pocket_docking_4.prm

>  <SCORE>
-10.9522

>  <SCORE.INTER>
1.90153

>  <SCORE.INTER.CONST>
1

>  <SCORE.INTER.POLAR>
0

>  <SCORE.INTER.ROT>
9

>  <SCORE.INTER.SOLV>
14.292

>  <SCORE.INTER.VDW>
-13.0963

>  <SCORE.INTER.norm>
0.0452746

>  <SCORE.INTRA>
-12.8537

>  <SCORE.INTRA.DIHEDRAL>
-25.2669

>  <SCORE.INTRA.DIHEDRAL.0>
27.8999

>  <SCORE.INTRA.POLAR>
0

>  <SCORE.INTRA.POLAR.0>
0

>  <SCORE.INTRA.REPUL>
0

>  <SCORE.INTRA.REPUL.0>
0

>  <SCORE.INTRA.SOLV>
-4.32206

>  <SCORE.INTRA.SOLV.lig_0>
-104.479

>  <SCORE.INTRA.VDW>
1.94077

>  <SCORE.INTRA.VDW.0>
-6.17816

>  <SCORE.INTRA.norm>
-0.30604

>  <SCORE.RESTR>
0

>  <SCORE.RESTR.CAVITY>
0

>  <SCORE.RESTR.norm>
0

>  <SCORE.SYSTEM>
0

>  <SCORE.SYSTEM.CONST>
0

>  <SCORE.SYSTEM.DIHEDRAL>
0

>  <SCORE.SYSTEM.SOLV>
0

>  <SCORE.SYSTEM.norm>
0

>  <SCORE.heavy>
42

>  <SCORE.norm>
-0.260766

>  <RMSD>
7.391

$$$$
ligand
 OpenBabel02271912133D
libRbt.so/2013.1/901 2013/11/27
 42 45  0  0  0  0  0  0  0  0999 V2000
    3.6633    0.9521    3.7864 C   0  0  2  0  0  0  0  0  0  0  0  0
    3.6108    0.9563    2.3495 O   0  0  0  0  0  0  0  0  0  0  0  0
    2.5814    4.0017   -0.5593 C   0  0  2  0  0  0  0  0  0  0  0  0
    1.8666    5.0824   -1.3022 N   0  0  0  0  0  0  0  0  0  0  0  0
    4.4482    4.6277    3.7596 C   0  0  1  0  0  0  0  0  0  0  0  0
    6.7430    7.1401    6.6088 C   0  0  1  0  0  0  0  0  0  0  0  0
    4.6913   -0.1431    4.2010 C   0  0  2  0  0  0  0  0  0  0  0  0
    5.9693   -0.0192    3.4786 N   0  0  0  0  0  0  0  0  0  0  0  0
    1.7680    2.6456   -0.5955 C   0  0  0  0  0  0  0  0  0  0  0  0
    3.8215    5.3760    4.9753 C   0  0  2  0  0  0  0  0  0  0  0  0
    3.1486    6.6102    4.6244 O   0  0  0  0  0  0  0  0  0  0  0  0
    7.6287    8.3735    6.2047 C   0  0  2  0  0  0  0  0  0  0  0  0
    8.2903    8.1456    4.8852 N   0  0  0  0  0  0  0  0  0  0  0  0
    4.1671   -1.5666    3.9363 C   0  0  1  0  0  0  0  0  0  0  0  0
    5.1232   -2.5368    4.3670 O   0  0  0  0  0  0  0  0  0  0  0  0
    2.5804    1.5424    0.1826 C   0  0  2  0  0  0  0  0  0  0  0  0
    1.8496    0.2467    0.1562 N   0  0  0  0  0  0  0  0  0  0  0  0
    5.0364    5.5219    5.8928 C   0  0  2  0  0  0  0  0  0  0  0  0
    5.7570    6.7693    5.6372 O   0  0  0  0  0  0  0  0  0  0  0  0
    8.7127    8.6448    7.3529 C   0  0  1  0  0  0  0  0  0  0  0  0
    8.0465    9.2254    8.4965 O   0  0  0  0  0  0  0  0  0  0  0  0
    2.8092   -1.7570    4.6498 C   0  0  2  0  0  0  0  0  0  0  0  0
    2.3237   -3.0611    4.4310 O   0  0  0  0  0  0  0  0  0  0  0  0
    2.8246    1.9829    1.6800 C   0  0  2  0  0  0  0  0  0  0  0  0
    5.9260    4.2979    5.6170 C   0  0  2  0  0  0  0  0  0  0  0  0
    5.6641    4.0133    4.2449 O   0  0  0  0  0  0  0  0  0  0  0  0
    9.4888    7.3168    7.8018 C   0  0  2  0  0  0  0  0  0  0  0  0
   10.3284    6.9211    6.7179 O   0  0  0  0  0  0  0  0  0  0  0  0
    1.7961   -0.6922    4.1117 C   0  0  2  0  0  0  0  0  0  0  0  0
    2.3265    0.6516    4.3415 O   0  0  0  0  0  0  0  0  0  0  0  0
    3.5672    3.3323    1.7938 C   0  0  2  0  0  0  0  0  0  0  0  0
    3.5393    3.6655    3.2090 O   0  0  0  0  0  0  0  0  0  0  0  0
    5.6324    3.0555    6.5139 C   0  0  0  0  0  0  0  0  0  0  0  0
    4.2868    2.6352    6.3096 O   0  0  0  0  0  0  0  0  0  0  0  0
    8.4688    6.1674    8.1493 C   0  0  1  0  0  0  0  0  0  0  0  0
    7.6464    5.9717    6.9428 O   0  0  0  0  0  0  0  0  0  0  0  0
    0.4369   -0.8017    4.7631 C   0  0  0  0  0  0  0  0  0  0  0  0
    0.5493   -0.6188    6.1535 O   0  0  0  0  0  0  0  0  0  0  0  0
    2.8224    4.4424    0.9401 C   0  0  1  0  0  0  0  0  0  0  0  0
    3.5902    5.6490    0.9225 O   0  0  0  0  0  0  0  0  0  0  0  0
    9.1564    4.7979    8.5740 C   0  0  0  0  0  0  0  0  0  0  0  0
    9.9611    4.8444    9.8257 N   0  0  0  0  0  0  0  0  0  0  0  0
  1  2  1  6  0  0  0
  1  7  1  0  0  0  0
  1 30  1  0  0  0  0
  3  4  1  6  0  0  0
  3  9  1  0  0  0  0
  3 39  1  0  0  0  0
  5 10  1  0  0  0  0
  5 26  1  0  0  0  0
  5 32  1  1  0  0  0
  6 12  1  0  0  0  0
  6 36  1  0  0  0  0
  6 19  1  6  0  0  0
  7  8  1  6  0  0  0
  7 14  1  0  0  0  0
  9 16  1  0  0  0  0
 10 11  1  6  0  0  0
 10 18  1  0  0  0  0
 12 13  1  6  0  0  0
 12 20  1  0  0  0  0
 14 15  1  1  0  0  0
 14 22  1  0  0  0  0
 16 17  1  1  0  0  0
 16 24  1  0  0  0  0
 18 19  1  6  0  0  0
 18 25  1  0  0  0  0
 20 21  1  1  0  0  0
 20 27  1  0  0  0  0
 22 23  1  6  0  0  0
 22 29  1  0  0  0  0
 24  2  1  6  0  0  0
 24 31  1  0  0  0  0
 25 26  1  0  0  0  0
 25 33  1  1  0  0  0
 27 28  1  6  0  0  0
 27 35  1  0  0  0  0
 29 30  1  0  0  0  0
 29 37  1  1  0  0  0
 31 32  1  1  0  0  0
 31 39  1  0  0  0  0
 33 34  1  0  0  0  0
 35 36  1  0  0  0  0
 35 41  1  6  0  0  0
 37 38  1  0  0  0  0
 39 40  1  6  0  0  0
 41 42  1  0  0  0  0
M  END
>  <CHROM.1>
-173.83325058,-163.79756631,167.80323940,172.04415231,60.20924656,59.81530124
161.51005723,149.58352339,63.86428694,4.81935528,3.42691684,4.45925265,-2.75543344
-0.90218797,-0.49776583

>  <Name>
ligand

>  <RI>
0

>  <Rbt.Current_Directory>
/home/itssahil/PROJECTS/Mol_Feturizer/Test_systems_manuscript/rnas/2o3w

>  <Rbt.Executable>
rbdock ($Id: //depot/dev/client3/rdock/2013.1/src/exe/rbdock.cxx#4 $)

>  <Rbt.Library>
libRbt.so (2013.1, Build901 2013/11/27)

>  <Rbt.Parameter_File>
/export/apps/rDock/src/rDock_2013.1_src/data/scripts/dock_solv.prm

>  <Rbt.Receptor>
prm/pocket_docking_8.prm

>  <SCORE>
-14.8882

>  <SCORE.INTER>
-4.16007

>  <SCORE.INTER.CONST>
1

>  <SCORE.INTER.POLAR>
0

>  <SCORE.INTER.ROT>
9

>  <SCORE.INTER.SOLV>
14.4662

>  <SCORE.INTER.VDW>
-17.1954

>  <SCORE.INTER.norm>
-0.0990492

>  <SCORE.INTRA>
-10.7282

>  <SCORE.INTRA.DIHEDRAL>
-20.0569

>  <SCORE.INTRA.DIHEDRAL.0>
27.8999

>  <SCORE.INTRA.POLAR>
0

>  <SCORE.INTRA.POLAR.0>
0

>  <SCORE.INTRA.REPUL>
0

>  <SCORE.INTRA.REPUL.0>
0

>  <SCORE.INTRA.SOLV>
-4.02247

>  <SCORE.INTRA.SOLV.lig_0>
-104.479

>  <SCORE.INTRA.VDW>
1.31152

>  <SCORE.INTRA.VDW.0>
-6.17816

>  <SCORE.INTRA.norm>
-0.255433

>  <SCORE.RESTR>
0

>  <SCORE.RESTR.CAVITY>
0

>  <SCORE.RESTR.norm>
0

>  <SCORE.SYSTEM>
0

>  <SCORE.SYSTEM.CONST>
0

>  <SCORE.SYSTEM.DIHEDRAL>
0

>  <SCORE.SYSTEM.SOLV>
0

>  <SCORE.SYSTEM.norm>
0

>  <SCORE.heavy>
42

>  <SCORE.norm>
-0.354482

>  <RMSD>
7.406

$$$$
ligand
 OpenBabel02271912133D
libRbt.so/2013.1/901 2013/11/27
 42 45  0  0  0  0  0  0  0  0999 V2000
    5.6493   -0.0759    4.0807 C   0  0  2  0  0  0  0  0  0  0  0  0
    5.7626    0.0719    2.6550 O   0  0  0  0  0  0  0  0  0  0  0  0
    6.3297    3.6347    0.2507 C   0  0  2  0  0  0  0  0  0  0  0  0
    6.1355    4.9691   -0.3913 N   0  0  0  0  0  0  0  0  0  0  0  0
    7.0444    3.3653    4.8285 C   0  0  1  0  0  0  0  0  0  0  0  0
    9.5907    4.8922    8.0121 C   0  0  1  0  0  0  0  0  0  0  0  0
    6.0508   -1.5430    4.4194 C   0  0  2  0  0  0  0  0  0  0  0  0
    7.3281   -1.9355    3.7990 N   0  0  0  0  0  0  0  0  0  0  0  0
    5.2126    2.6112   -0.2037 C   0  0  0  0  0  0  0  0  0  0  0  0
    6.5881    3.3067    6.3182 C   0  0  2  0  0  0  0  0  0  0  0  0
    5.6398    4.3388    6.6851 O   0  0  0  0  0  0  0  0  0  0  0  0
    9.6669    4.2025    9.4218 C   0  0  2  0  0  0  0  0  0  0  0  0
    8.5593    4.6731   10.3064 N   0  0  0  0  0  0  0  0  0  0  0  0
    4.9960   -2.5610    3.9481 C   0  0  1  0  0  0  0  0  0  0  0  0
    5.3854   -3.8860    4.3138 O   0  0  0  0  0  0  0  0  0  0  0  0
    5.4832    1.2209    0.4865 C   0  0  2  0  0  0  0  0  0  0  0  0
    4.4571    0.2277    0.0691 N   0  0  0  0  0  0  0  0  0  0  0  0
    7.9340    3.3559    7.0432 C   0  0  2  0  0  0  0  0  0  0  0  0
    8.3375    4.7315    7.3358 O   0  0  0  0  0  0  0  0  0  0  0  0
   11.0963    4.5021   10.0804 C   0  0  1  0  0  0  0  0  0  0  0  0
   12.0983    3.7122    9.4014 O   0  0  0  0  0  0  0  0  0  0  0  0
    3.6195   -2.1918    4.5465 C   0  0  2  0  0  0  0  0  0  0  0  0
    2.6458   -3.1242    4.1380 O   0  0  0  0  0  0  0  0  0  0  0  0
    5.4696    1.3680    2.0594 C   0  0  2  0  0  0  0  0  0  0  0  0
    8.9437    2.6653    6.1111 C   0  0  2  0  0  0  0  0  0  0  0  0
    8.4300    2.9519    4.8124 O   0  0  0  0  0  0  0  0  0  0  0  0
   11.4994    6.0515   10.0138 C   0  0  2  0  0  0  0  0  0  0  0  0
   10.6337    6.7605   10.8994 O   0  0  0  0  0  0  0  0  0  0  0  0
    3.2318   -0.7481    4.0828 C   0  0  2  0  0  0  0  0  0  0  0  0
    4.2615    0.1989    4.5100 O   0  0  0  0  0  0  0  0  0  0  0  0
    6.5002    2.3970    2.5736 C   0  0  2  0  0  0  0  0  0  0  0  0
    6.2238    2.5372    3.9943 O   0  0  0  0  0  0  0  0  0  0  0  0
    9.0948    1.1276    6.3280 C   0  0  0  0  0  0  0  0  0  0  0  0
    9.5557    0.8826    7.6533 O   0  0  0  0  0  0  0  0  0  0  0  0
   11.3478    6.6026    8.5456 C   0  0  1  0  0  0  0  0  0  0  0  0
    9.9478    6.3564    8.1587 O   0  0  0  0  0  0  0  0  0  0  0  0
    1.8959   -0.3008    4.6296 C   0  0  0  0  0  0  0  0  0  0  0  0
    0.8621   -1.0843    4.0850 O   0  0  0  0  0  0  0  0  0  0  0  0
    6.3128    3.7827    1.8249 C   0  0  1  0  0  0  0  0  0  0  0  0
    7.3597    4.6862    2.1898 O   0  0  0  0  0  0  0  0  0  0  0  0
   11.6964    8.1467    8.3943 C   0  0  0  0  0  0  0  0  0  0  0  0
   11.6099    8.6921    7.0117 N   0  0  0  0  0  0  0  0  0  0  0  0
  1  2  1  6  0  0  0
  1  7  1  0  0  0  0
  1 30  1  0  0  0  0
  3  4  1  6  0  0  0
  3  9  1  0  0  0  0
  3 39  1  0  0  0  0
  5 10  1  0  0  0  0
  5 26  1  0  0  0  0
  5 32  1  6  0  0  0
  6 12  1  0  0  0  0
  6 36  1  0  0  0  0
  6 19  1  1  0  0  0
  7  8  1  6  0  0  0
  7 14  1  0  0  0  0
  9 16  1  0  0  0  0
 10 11  1  1  0  0  0
 10 18  1  0  0  0  0
 12 13  1  1  0  0  0
 12 20  1  0  0  0  0
 14 15  1  1  0  0  0
 14 22  1  0  0  0  0
 16 17  1  1  0  0  0
 16 24  1  0  0  0  0
 18 19  1  6  0  0  0
 18 25  1  0  0  0  0
 20 21  1  6  0  0  0
 20 27  1  0  0  0  0
 22 23  1  6  0  0  0
 22 29  1  0  0  0  0
 24  2  1  1  0  0  0
 24 31  1  0  0  0  0
 25 26  1  0  0  0  0
 25 33  1  1  0  0  0
 27 28  1  1  0  0  0
 27 35  1  0  0  0  0
 29 30  1  0  0  0  0
 29 37  1  1  0  0  0
 31 32  1  1  0  0  0
 31 39  1  0  0  0  0
 33 34  1  0  0  0  0
 35 36  1  0  0  0  0
 35 41  1  1  0  0  0
 37 38  1  0  0  0  0
 39 40  1  6  0  0  0
 41 42  1  0  0  0  0
M  END
>  <CHROM.1>
-178.76386583,-172.74366227,-179.79539457,-60.35622876,-61.10212536,-66.20512516
176.38064962,-177.54862907,177.96902398,7.14202023,2.40554279,5.25095886
3.05203651,-0.94117472,-0.92775443

>  <Name>
ligand

>  <RI>
0

>  <Rbt.Current_Directory>
/home/itssahil/PROJECTS/Mol_Feturizer/Test_systems_manuscript/rnas/2o3w

>  <Rbt.Executable>
rbdock ($Id: //depot/dev/client3/rdock/2013.1/src/exe/rbdock.cxx#4 $)

>  <Rbt.Library>
libRbt.so (2013.1, Build901 2013/11/27)

>  <Rbt.Parameter_File>
/export/apps/rDock/src/rDock_2013.1_src/data/scripts/dock_solv.prm

>  <Rbt.Receptor>
prm/pocket_docking_8.prm

>  <SCORE>
-13.9243

>  <SCORE.INTER>
-0.268105

>  <SCORE.INTER.CONST>
1

>  <SCORE.INTER.POLAR>
0

>  <SCORE.INTER.ROT>
9

>  <SCORE.INTER.SOLV>
12.3435

>  <SCORE.INTER.VDW>
-13.8932

>  <SCORE.INTER.norm>
-0.00638346

>  <SCORE.INTRA>
-13.6562

>  <SCORE.INTRA.DIHEDRAL>
-27.2389

>  <SCORE.INTRA.DIHEDRAL.0>
27.8999

>  <SCORE.INTRA.POLAR>
0

>  <SCORE.INTRA.POLAR.0>
0

>  <SCORE.INTRA.REPUL>
0

>  <SCORE.INTRA.REPUL.0>
0

>  <SCORE.INTRA.SOLV>
-5.61231

>  <SCORE.INTRA.SOLV.lig_0>
-104.479

>  <SCORE.INTRA.VDW>
2.76943

>  <SCORE.INTRA.VDW.0>
-6.17816

>  <SCORE.INTRA.norm>
-0.325147

>  <SCORE.RESTR>
0

>  <SCORE.RESTR.CAVITY>
0

>  <SCORE.RESTR.norm>
0

>  <SCORE.SYSTEM>
0

>  <SCORE.SYSTEM.CONST>
0

>  <SCORE.SYSTEM.DIHEDRAL>
0

>  <SCORE.SYSTEM.SOLV>
0

>  <SCORE.SYSTEM.norm>
0

>  <SCORE.heavy>
42

>  <SCORE.norm>
-0.331531

>  <RMSD>
7.433

$$$$
ligand
 OpenBabel02271912133D
libRbt.so/2013.1/901 2013/11/27
 42 45  0  0  0  0  0  0  0  0999 V2000
    2.8505    4.4406    2.8287 C   0  0  2  0  0  0  0  0  0  0  0  0
    4.2359    4.2712    2.4834 O   0  0  0  0  0  0  0  0  0  0  0  0
    5.8946    7.0792    5.3400 C   0  0  2  0  0  0  0  0  0  0  0  0
    6.8470    7.8894    6.1566 N   0  0  0  0  0  0  0  0  0  0  0  0
    5.3410    7.7016    0.6752 C   0  0  1  0  0  0  0  0  0  0  0  0
    5.7775   10.9144   -2.4208 C   0  0  1  0  0  0  0  0  0  0  0  0
    2.0208    3.6164    1.7990 C   0  0  2  0  0  0  0  0  0  0  0  0
    2.5162    2.2369    1.6508 N   0  0  0  0  0  0  0  0  0  0  0  0
    6.0316    5.5365    5.6610 C   0  0  0  0  0  0  0  0  0  0  0  0
    6.6539    8.4395    0.2723 C   0  0  2  0  0  0  0  0  0  0  0  0
    7.0368    9.5002    1.1820 O   0  0  0  0  0  0  0  0  0  0  0  0
    4.8686   12.1937   -2.4997 C   0  0  2  0  0  0  0  0  0  0  0  0
    3.4437   11.8545   -2.2072 N   0  0  0  0  0  0  0  0  0  0  0  0
    2.0382    4.2484    0.3949 C   0  0  1  0  0  0  0  0  0  0  0  0
    1.2345    3.4833   -0.5048 O   0  0  0  0  0  0  0  0  0  0  0  0
    4.9897    4.7392    4.7885 C   0  0  2  0  0  0  0  0  0  0  0  0
    5.0811    3.2823    5.0763 N   0  0  0  0  0  0  0  0  0  0  0  0
    6.3219    8.8786   -1.1547 C   0  0  2  0  0  0  0  0  0  0  0  0
    5.7005   10.2030   -1.1792 O   0  0  0  0  0  0  0  0  0  0  0  0
    5.0160   12.8584   -3.9500 C   0  0  1  0  0  0  0  0  0  0  0  0
    6.3050   13.5061   -4.0382 O   0  0  0  0  0  0  0  0  0  0  0  0
    1.5500    5.7123    0.4823 C   0  0  2  0  0  0  0  0  0  0  0  0
    1.5441    6.3001   -0.7978 O   0  0  0  0  0  0  0  0  0  0  0  0
    5.2424    4.9924    3.2497 C   0  0  2  0  0  0  0  0  0  0  0  0
    5.3733    7.8075   -1.7186 C   0  0  2  0  0  0  0  0  0  0  0  0
    4.6749    7.3555   -0.5608 O   0  0  0  0  0  0  0  0  0  0  0  0
    4.8679   11.7951   -5.1395 C   0  0  2  0  0  0  0  0  0  0  0  0
    3.5066   11.3681   -5.1689 O   0  0  0  0  0  0  0  0  0  0  0  0
    2.4882    6.5064    1.4512 C   0  0  2  0  0  0  0  0  0  0  0  0
    2.4848    5.8719    2.7692 O   0  0  0  0  0  0  0  0  0  0  0  0
    5.1798    6.4883    2.8707 C   0  0  2  0  0  0  0  0  0  0  0  0
    5.6123    6.5494    1.4838 O   0  0  0  0  0  0  0  0  0  0  0  0
    6.0784    6.6217   -2.4473 C   0  0  0  0  0  0  0  0  0  0  0  0
    5.0920    5.7294   -2.9571 O   0  0  0  0  0  0  0  0  0  0  0  0
    5.8210   10.5626   -4.9052 C   0  0  1  0  0  0  0  0  0  0  0  0
    5.4563   10.0075   -3.5902 O   0  0  0  0  0  0  0  0  0  0  0  0
    2.0783    7.9532    1.6017 C   0  0  0  0  0  0  0  0  0  0  0  0
    2.2167    8.6265    0.3742 O   0  0  0  0  0  0  0  0  0  0  0  0
    6.1505    7.3310    3.7999 C   0  0  1  0  0  0  0  0  0  0  0  0
    5.9801    8.7293    3.5520 O   0  0  0  0  0  0  0  0  0  0  0  0
    5.7136    9.4388   -6.0251 C   0  0  0  0  0  0  0  0  0  0  0  0
    6.6886    8.3198   -5.9076 N   0  0  0  0  0  0  0  0  0  0  0  0
  1  2  1  6  0  0  0
  1  7  1  0  0  0  0
  1 30  1  0  0  0  0
  3  4  1  1  0  0  0
  3  9  1  0  0  0  0
  3 39  1  0  0  0  0
  5 10  1  0  0  0  0
  5 26  1  0  0  0  0
  5 32  1  6  0  0  0
  6 12  1  0  0  0  0
  6 36  1  0  0  0  0
  6 19  1  1  0  0  0
  7  8  1  6  0  0  0
  7 14  1  0  0  0  0
  9 16  1  0  0  0  0
 10 11  1  1  0  0  0
 10 18  1  0  0  0  0
 12 13  1  6  0  0  0
 12 20  1  0  0  0  0
 14 15  1  6  0  0  0
 14 22  1  0  0  0  0
 16 17  1  6  0  0  0
 16 24  1  0  0  0  0
 18 19  1  1  0  0  0
 18 25  1  0  0  0  0
 20 21  1  1  0  0  0
 20 27  1  0  0  0  0
 22 23  1  6  0  0  0
 22 29  1  0  0  0  0
 24  2  1  6  0  0  0
 24 31  1  0  0  0  0
 25 26  1  0  0  0  0
 25 33  1  1  0  0  0
 27 28  1  1  0  0  0
 27 35  1  0  0  0  0
 29 30  1  0  0  0  0
 29 37  1  1  0  0  0
 31 32  1  6  0  0  0
 31 39  1  0  0  0  0
 33 34  1  0  0  0  0
 35 36  1  0  0  0  0
 35 41  1  6  0  0  0
 37 38  1  0  0  0  0
 39 40  1  1  0  0  0
 41 42  1  0  0  0  0
M  END
>  <CHROM.1>
177.02753177,50.79465797,158.59223723,168.58260758,-178.09521494,-64.64879045
162.64202084,114.28103354,174.49075329,4.60611404,7.65463041,0.03152797,1.76639125
0.90640363,2.08232937

>  <Name>
ligand

>  <RI>
0

>  <Rbt.Current_Directory>
/home/itssahil/PROJECTS/Mol_Feturizer/Test_systems_manuscript/rnas/2o3w

>  <Rbt.Executable>
rbdock ($Id: //depot/dev/client3/rdock/2013.1/src/exe/rbdock.cxx#4 $)

>  <Rbt.Library>
libRbt.so (2013.1, Build901 2013/11/27)

>  <Rbt.Parameter_File>
/export/apps/rDock/src/rDock_2013.1_src/data/scripts/dock_solv.prm

>  <Rbt.Receptor>
prm/pocket_docking_8.prm

>  <SCORE>
-11.139

>  <SCORE.INTER>
-2.30874

>  <SCORE.INTER.CONST>
1

>  <SCORE.INTER.POLAR>
0

>  <SCORE.INTER.ROT>
9

>  <SCORE.INTER.SOLV>
13.0787

>  <SCORE.INTER.VDW>
-15.4987

>  <SCORE.INTER.norm>
-0.05497

>  <SCORE.INTRA>
-8.83024

>  <SCORE.INTRA.DIHEDRAL>
-16.0435

>  <SCORE.INTRA.DIHEDRAL.0>
27.8999

>  <SCORE.INTRA.POLAR>
0

>  <SCORE.INTRA.POLAR.0>
0

>  <SCORE.INTRA.REPUL>
0.0263522

>  <SCORE.INTRA.REPUL.0>
0

>  <SCORE.INTRA.SOLV>
-3.09251

>  <SCORE.INTRA.SOLV.lig_0>
-104.479

>  <SCORE.INTRA.VDW>
0.605996

>  <SCORE.INTRA.VDW.0>
-6.17816

>  <SCORE.INTRA.norm>
-0.210244

>  <SCORE.RESTR>
0

>  <SCORE.RESTR.CAVITY>
0

>  <SCORE.RESTR.norm>
0

>  <SCORE.SYSTEM>
0

>  <SCORE.SYSTEM.CONST>
0

>  <SCORE.SYSTEM.DIHEDRAL>
0

>  <SCORE.SYSTEM.SOLV>
0

>  <SCORE.SYSTEM.norm>
0

>  <SCORE.heavy>
42

>  <SCORE.norm>
-0.265214

>  <RMSD>
7.507

$$$$
ligand
 OpenBabel02271912133D
libRbt.so/2013.1/901 2013/11/27
 42 45  0  0  0  0  0  0  0  0999 V2000
    5.8688    4.2091    2.6963 C   0  0  2  0  0  0  0  0  0  0  0  0
    5.5874    2.8935    3.2035 O   0  0  0  0  0  0  0  0  0  0  0  0
    2.6876   -0.0592    1.9119 C   0  0  2  0  0  0  0  0  0  0  0  0
    1.4071   -0.7477    1.5701 N   0  0  0  0  0  0  0  0  0  0  0  0
    4.0473    3.5845   -0.5993 C   0  0  1  0  0  0  0  0  0  0  0  0
    4.2794    5.7677   -4.5541 C   0  0  1  0  0  0  0  0  0  0  0  0
    7.1747    4.6959    3.3933 C   0  0  2  0  0  0  0  0  0  0  0  0
    8.2570    3.6988    3.3223 N   0  0  0  0  0  0  0  0  0  0  0  0
    2.7721    0.2607    3.4586 C   0  0  0  0  0  0  0  0  0  0  0  0
    4.0042    5.0958   -0.9803 C   0  0  2  0  0  0  0  0  0  0  0  0
    2.6648    5.6328   -1.1101 O   0  0  0  0  0  0  0  0  0  0  0  0
    5.7349    5.6753   -5.1388 C   0  0  2  0  0  0  0  0  0  0  0  0
    6.7540    5.9113   -4.0727 N   0  0  0  0  0  0  0  0  0  0  0  0
    6.9581    5.0118    4.8847 C   0  0  1  0  0  0  0  0  0  0  0  0
    8.1688    5.4911    5.4725 O   0  0  0  0  0  0  0  0  0  0  0  0
    4.1497    0.9637    3.7598 C   0  0  2  0  0  0  0  0  0  0  0  0
    4.2695    1.2666    5.2115 N   0  0  0  0  0  0  0  0  0  0  0  0
    4.8478    5.1047   -2.2560 C   0  0  2  0  0  0  0  0  0  0  0  0
    4.0244    4.8942   -3.4470 O   0  0  0  0  0  0  0  0  0  0  0  0
    5.8938    6.7335   -6.3312 C   0  0  1  0  0  0  0  0  0  0  0  0
    5.1689    6.2502   -7.4844 O   0  0  0  0  0  0  0  0  0  0  0  0
    5.8131    6.0394    5.0331 C   0  0  2  0  0  0  0  0  0  0  0  0
    5.6135    6.3520    6.3921 O   0  0  0  0  0  0  0  0  0  0  0  0
    4.2875    2.2988    2.9265 C   0  0  2  0  0  0  0  0  0  0  0  0
    5.8829    3.9796   -2.0883 C   0  0  2  0  0  0  0  0  0  0  0  0
    5.1940    3.0271   -1.2816 O   0  0  0  0  0  0  0  0  0  0  0  0
    5.3659    8.1950   -5.9403 C   0  0  2  0  0  0  0  0  0  0  0  0
    6.2654    8.7334   -4.9721 O   0  0  0  0  0  0  0  0  0  0  0  0
    4.5088    5.4447    4.4050 C   0  0  2  0  0  0  0  0  0  0  0  0
    4.7441    5.1199    2.9982 O   0  0  0  0  0  0  0  0  0  0  0  0
    4.1580    2.0709    1.4045 C   0  0  2  0  0  0  0  0  0  0  0  0
    4.1222    3.4022    0.8206 O   0  0  0  0  0  0  0  0  0  0  0  0
    7.2248    4.4140   -1.4213 C   0  0  0  0  0  0  0  0  0  0  0  0
    6.9661    4.8687   -0.0965 O   0  0  0  0  0  0  0  0  0  0  0  0
    3.9082    8.1193   -5.3474 C   0  0  1  0  0  0  0  0  0  0  0  0
    3.9829    7.2079   -4.1925 O   0  0  0  0  0  0  0  0  0  0  0  0
    3.3338    6.3903    4.5007 C   0  0  0  0  0  0  0  0  0  0  0  0
    2.1536    5.7396    4.0973 O   0  0  0  0  0  0  0  0  0  0  0  0
    2.8229    1.2786    1.0797 C   0  0  1  0  0  0  0  0  0  0  0  0
    2.7778    0.9359   -0.3081 O   0  0  0  0  0  0  0  0  0  0  0  0
    3.3171    9.5262   -4.9000 C   0  0  0  0  0  0  0  0  0  0  0  0
    4.0845   10.2377   -3.8411 N   0  0  0  0  0  0  0  0  0  0  0  0
  1  2  1  1  0  0  0
  1  7  1  0  0  0  0
  1 30  1  0  0  0  0
  3  4  1  1  0  0  0
  3  9  1  0  0  0  0
  3 39  1  0  0  0  0
  5 10  1  0  0  0  0
  5 26  1  0  0  0  0
  5 32  1  1  0  0  0
  6 12  1  0  0  0  0
  6 36  1  0  0  0  0
  6 19  1  1  0  0  0
  7  8  1  1  0  0  0
  7 14  1  0  0  0  0
  9 16  1  0  0  0  0
 10 11  1  6  0  0  0
 10 18  1  0  0  0  0
 12 13  1  1  0  0  0
 12 20  1  0  0  0  0
 14 15  1  6  0  0  0
 14 22  1  0  0  0  0
 16 17  1  1  0  0  0
 16 24  1  0  0  0  0
 18 19  1  6  0  0  0
 18 25  1  0  0  0  0
 20 21  1  6  0  0  0
 20 27  1  0  0  0  0
 22 23  1  1  0  0  0
 22 29  1  0  0  0  0
 24  2  1  6  0  0  0
 24 31  1  0  0  0  0
 25 26  1  0  0  0  0
 25 33  1  1  0  0  0
 27 28  1  1  0  0  0
 27 35  1  0  0  0  0
 29 30  1  0  0  0  0
 29 37  1  6  0  0  0
 31 32  1  6  0  0  0
 31 39  1  0  0  0  0
 33 34  1  0  0  0  0
 35 36  1  0  0  0  0
 35 41  1  1  0  0  0
 37 38  1  0  0  0  0
 39 40  1  6  0  0  0
 41 42  1  0  0  0  0
M  END
>  <CHROM.1>
168.08735183,-171.76792972,134.39703333,61.15657406,62.61543996,-171.70765596
178.04853944,179.31699237,-60.32603463,4.79045646,4.68482129,0.05432384,-1.61500319
-1.10792271,-1.19778443

>  <Name>
ligand

>  <RI>
0

>  <Rbt.Current_Directory>
/home/itssahil/PROJECTS/Mol_Feturizer/Test_systems_manuscript/rnas/2o3w

>  <Rbt.Executable>
rbdock ($Id: //depot/dev/client3/rdock/2013.1/src/exe/rbdock.cxx#4 $)

>  <Rbt.Library>
libRbt.so (2013.1, Build901 2013/11/27)

>  <Rbt.Parameter_File>
/export/apps/rDock/src/rDock_2013.1_src/data/scripts/dock_solv.prm

>  <Rbt.Receptor>
prm/pocket_docking_8.prm

>  <SCORE>
-8.7445

>  <SCORE.INTER>
-0.541611

>  <SCORE.INTER.CONST>
1

>  <SCORE.INTER.POLAR>
0

>  <SCORE.INTER.ROT>
9

>  <SCORE.INTER.SOLV>
11.2763

>  <SCORE.INTER.VDW>
-13.7198

>  <SCORE.INTER.norm>
-0.0128955

>  <SCORE.INTRA>
-8.20289

>  <SCORE.INTRA.DIHEDRAL>
-20.2413

>  <SCORE.INTRA.DIHEDRAL.0>
27.8999

>  <SCORE.INTRA.POLAR>
0

>  <SCORE.INTRA.POLAR.0>
0

>  <SCORE.INTRA.REPUL>
0

>  <SCORE.INTRA.REPUL.0>
0

>  <SCORE.INTRA.SOLV>
-0.300546

>  <SCORE.INTRA.SOLV.lig_0>
-104.479

>  <SCORE.INTRA.VDW>
2.06805

>  <SCORE.INTRA.VDW.0>
-6.17816

>  <SCORE.INTRA.norm>
-0.195307

>  <SCORE.RESTR>
0

>  <SCORE.RESTR.CAVITY>
0

>  <SCORE.RESTR.norm>
0

>  <SCORE.SYSTEM>
0

>  <SCORE.SYSTEM.CONST>
0

>  <SCORE.SYSTEM.DIHEDRAL>
0

>  <SCORE.SYSTEM.SOLV>
0

>  <SCORE.SYSTEM.norm>
0

>  <SCORE.heavy>
42

>  <SCORE.norm>
-0.208202

>  <RMSD>
7.513

$$$$
ligand
 OpenBabel02271912133D
libRbt.so/2013.1/901 2013/11/27
 42 45  0  0  0  0  0  0  0  0999 V2000
   10.6961    3.1823    6.2553 C   0  0  2  0  0  0  0  0  0  0  0  0
   10.5133    4.4765    5.6562 O   0  0  0  0  0  0  0  0  0  0  0  0
    9.5451    5.7457    1.6253 C   0  0  2  0  0  0  0  0  0  0  0  0
    9.5550    5.9166    0.1417 N   0  0  0  0  0  0  0  0  0  0  0  0
    8.3264    1.7671    4.1974 C   0  0  1  0  0  0  0  0  0  0  0  0
    4.5189    0.3398    3.2651 C   0  0  1  0  0  0  0  0  0  0  0  0
   10.4533    3.3508    7.7853 C   0  0  2  0  0  0  0  0  0  0  0  0
    9.1972    4.0611    8.0819 N   0  0  0  0  0  0  0  0  0  0  0  0
   10.8685    6.3156    2.2776 C   0  0  0  0  0  0  0  0  0  0  0  0
    7.4343    1.4788    2.9518 C   0  0  2  0  0  0  0  0  0  0  0  0
    6.3867    2.4566    2.7381 O   0  0  0  0  0  0  0  0  0  0  0  0
    3.2071    0.3968    4.1280 C   0  0  2  0  0  0  0  0  0  0  0  0
    3.0198   -0.8692    4.8982 N   0  0  0  0  0  0  0  0  0  0  0  0
   11.5832    4.1393    8.4729 C   0  0  1  0  0  0  0  0  0  0  0  0
   11.3396    4.2350    9.8773 O   0  0  0  0  0  0  0  0  0  0  0  0
   10.7893    6.1275    3.8400 C   0  0  2  0  0  0  0  0  0  0  0  0
   12.0146    6.6671    4.4889 N   0  0  0  0  0  0  0  0  0  0  0  0
    6.9607    0.0551    3.2487 C   0  0  2  0  0  0  0  0  0  0  0  0
    5.7100    0.0514    4.0079 O   0  0  0  0  0  0  0  0  0  0  0  0
    1.9550    0.6772    3.1686 C   0  0  1  0  0  0  0  0  0  0  0  0
    1.9918    2.0583    2.7440 O   0  0  0  0  0  0  0  0  0  0  0  0
   12.9394    3.4579    8.1804 C   0  0  2  0  0  0  0  0  0  0  0  0
   13.9827    4.1584    8.8170 O   0  0  0  0  0  0  0  0  0  0  0  0
   10.6224    4.6006    4.2094 C   0  0  2  0  0  0  0  0  0  0  0  0
    8.0962   -0.6131    4.0422 C   0  0  2  0  0  0  0  0  0  0  0  0
    8.6778    0.4784    4.7514 O   0  0  0  0  0  0  0  0  0  0  0  0
    1.9303   -0.2783    1.8826 C   0  0  2  0  0  0  0  0  0  0  0  0
    1.6411   -1.6009    2.3339 O   0  0  0  0  0  0  0  0  0  0  0  0
   13.1659    3.4151    6.6324 C   0  0  2  0  0  0  0  0  0  0  0  0
   12.0662    2.6919    5.9941 O   0  0  0  0  0  0  0  0  0  0  0  0
    9.3767    3.9598    3.5591 C   0  0  2  0  0  0  0  0  0  0  0  0
    9.4831    2.5387    3.8485 O   0  0  0  0  0  0  0  0  0  0  0  0
    9.1621   -1.3492    3.1727 C   0  0  0  0  0  0  0  0  0  0  0  0
    9.8401   -0.3996    2.3557 O   0  0  0  0  0  0  0  0  0  0  0  0
    3.3196   -0.2471    1.1402 C   0  0  1  0  0  0  0  0  0  0  0  0
    4.3256   -0.6522    2.1373 O   0  0  0  0  0  0  0  0  0  0  0  0
   14.4721    2.7561    6.2538 C   0  0  0  0  0  0  0  0  0  0  0  0
   14.4790    1.4145    6.6772 O   0  0  0  0  0  0  0  0  0  0  0  0
    9.3811    4.2167    1.9939 C   0  0  1  0  0  0  0  0  0  0  0  0
    8.1568    3.7569    1.4150 O   0  0  0  0  0  0  0  0  0  0  0  0
    3.3949   -1.1964   -0.1333 C   0  0  0  0  0  0  0  0  0  0  0  0
    4.7031   -1.2154   -0.8437 N   0  0  0  0  0  0  0  0  0  0  0  0
  1  2  1  6  0  0  0
  1  7  1  0  0  0  0
  1 30  1  0  0  0  0
  3  4  1  6  0  0  0
  3  9  1  0  0  0  0
  3 39  1  0  0  0  0
  5 10  1  0  0  0  0
  5 26  1  0  0  0  0
  5 32  1  6  0  0  0
  6 12  1  0  0  0  0
  6 36  1  0  0  0  0
  6 19  1  1  0  0  0
  7  8  1  6  0  0  0
  7 14  1  0  0  0  0
  9 16  1  0  0  0  0
 10 11  1  1  0  0  0
 10 18  1  0  0  0  0
 12 13  1  6  0  0  0
 12 20  1  0  0  0  0
 14 15  1  1  0  0  0
 14 22  1  0  0  0  0
 16 17  1  1  0  0  0
 16 24  1  0  0  0  0
 18 19  1  1  0  0  0
 18 25  1  0  0  0  0
 20 21  1  6  0  0  0
 20 27  1  0  0  0  0
 22 23  1  1  0  0  0
 22 29  1  0  0  0  0
 24  2  1  1  0  0  0
 24 31  1  0  0  0  0
 25 26  1  0  0  0  0
 25 33  1  6  0  0  0
 27 28  1  1  0  0  0
 27 35  1  0  0  0  0
 29 30  1  0  0  0  0
 29 37  1  1  0  0  0
 31 32  1  6  0  0  0
 31 39  1  0  0  0  0
 33 34  1  0  0  0  0
 35 36  1  0  0  0  0
 35 41  1  6  0  0  0
 37 38  1  0  0  0  0
 39 40  1  1  0  0  0
 41 42  1  0  0  0  0
M  END
>  <CHROM.1>
-177.27172683,-164.28545896,76.64552661,-177.10419228,64.12310859,62.24749595
140.30305045,74.78975254,-178.73110850,8.32975268,2.17909384,4.11691076,0.12655956
0.60220701,2.15667176

>  <Name>
ligand

>  <RI>
0

>  <Rbt.Current_Directory>
/home/itssahil/PROJECTS/Mol_Feturizer/Test_systems_manuscript/rnas/2o3w

>  <Rbt.Executable>
rbdock ($Id: //depot/dev/client3/rdock/2013.1/src/exe/rbdock.cxx#4 $)

>  <Rbt.Library>
libRbt.so (2013.1, Build901 2013/11/27)

>  <Rbt.Parameter_File>
/export/apps/rDock/src/rDock_2013.1_src/data/scripts/dock_solv.prm

>  <Rbt.Receptor>
prm/pocket_docking_5.prm

>  <SCORE>
-9.75976

>  <SCORE.INTER>
-0.192999

>  <SCORE.INTER.CONST>
1

>  <SCORE.INTER.POLAR>
0

>  <SCORE.INTER.ROT>
9

>  <SCORE.INTER.SOLV>
11.1702

>  <SCORE.INTER.VDW>
-13.4521

>  <SCORE.INTER.norm>
-0.00459521

>  <SCORE.INTRA>
-9.56676

>  <SCORE.INTRA.DIHEDRAL>
-18.7991

>  <SCORE.INTRA.DIHEDRAL.0>
27.8999

>  <SCORE.INTRA.POLAR>
0

>  <SCORE.INTRA.POLAR.0>
0

>  <SCORE.INTRA.REPUL>
0

>  <SCORE.INTRA.REPUL.0>
0

>  <SCORE.INTRA.SOLV>
-4.64804

>  <SCORE.INTRA.SOLV.lig_0>
-104.479

>  <SCORE.INTRA.VDW>
2.1568

>  <SCORE.INTRA.VDW.0>
-6.17816

>  <SCORE.INTRA.norm>
-0.22778

>  <SCORE.RESTR>
0

>  <SCORE.RESTR.CAVITY>
0

>  <SCORE.RESTR.norm>
0

>  <SCORE.SYSTEM>
0

>  <SCORE.SYSTEM.CONST>
0

>  <SCORE.SYSTEM.DIHEDRAL>
0

>  <SCORE.SYSTEM.SOLV>
0

>  <SCORE.SYSTEM.norm>
0

>  <SCORE.heavy>
42

>  <SCORE.norm>
-0.232375

>  <RMSD>
7.556

$$$$
ligand
 OpenBabel02271912133D
libRbt.so/2013.1/901 2013/11/27
 42 45  0  0  0  0  0  0  0  0999 V2000
    5.2818   -2.2247    3.7640 C   0  0  2  0  0  0  0  0  0  0  0  0
    6.0565   -1.9940    4.9531 O   0  0  0  0  0  0  0  0  0  0  0  0
    7.7777   -4.7570    7.8166 C   0  0  2  0  0  0  0  0  0  0  0  0
    8.6072   -5.8278    8.4456 N   0  0  0  0  0  0  0  0  0  0  0  0
    9.6569   -0.6987    6.3347 C   0  0  1  0  0  0  0  0  0  0  0  0
   11.8678    2.9263    7.4317 C   0  0  1  0  0  0  0  0  0  0  0  0
    5.9921   -1.4648    2.6037 C   0  0  2  0  0  0  0  0  0  0  0  0
    7.4345   -1.7577    2.5377 N   0  0  0  0  0  0  0  0  0  0  0  0
    6.8198   -5.3504    6.7067 C   0  0  0  0  0  0  0  0  0  0  0  0
   10.4625    0.1300    5.2882 C   0  0  2  0  0  0  0  0  0  0  0  0
   11.7498   -0.4415    4.9487 O   0  0  0  0  0  0  0  0  0  0  0  0
   13.1810    3.0612    8.2839 C   0  0  2  0  0  0  0  0  0  0  0  0
   13.2507    1.9961    9.3286 N   0  0  0  0  0  0  0  0  0  0  0  0
    5.8541    0.0632    2.7352 C   0  0  1  0  0  0  0  0  0  0  0  0
    6.4842    0.7163    1.6319 O   0  0  0  0  0  0  0  0  0  0  0  0
    5.9577   -4.1805    6.0980 C   0  0  2  0  0  0  0  0  0  0  0  0
    5.0326   -4.7063    5.0581 N   0  0  0  0  0  0  0  0  0  0  0  0
   10.5043    1.5014    5.9640 C   0  0  2  0  0  0  0  0  0  0  0  0
   11.6823    1.6438    6.8200 O   0  0  0  0  0  0  0  0  0  0  0  0
   13.2350    4.5198    8.9446 C   0  0  1  0  0  0  0  0  0  0  0  0
   13.5467    5.4870    7.9169 O   0  0  0  0  0  0  0  0  0  0  0  0
    4.3581    0.4391    2.8341 C   0  0  2  0  0  0  0  0  0  0  0  0
    4.2138    1.8365    2.9382 O   0  0  0  0  0  0  0  0  0  0  0  0
    6.8898   -3.0721    5.4667 C   0  0  2  0  0  0  0  0  0  0  0  0
    9.2056    1.6122    6.7804 C   0  0  2  0  0  0  0  0  0  0  0  0
    8.9397    0.2600    7.1456 O   0  0  0  0  0  0  0  0  0  0  0  0
   11.8633    4.9272    9.6657 C   0  0  2  0  0  0  0  0  0  0  0  0
   11.7244    4.1048   10.8237 O   0  0  0  0  0  0  0  0  0  0  0  0
    3.7332   -0.2756    4.0784 C   0  0  2  0  0  0  0  0  0  0  0  0
    3.9039   -1.7229    3.9515 O   0  0  0  0  0  0  0  0  0  0  0  0
    7.8942   -2.4847    6.4823 C   0  0  2  0  0  0  0  0  0  0  0  0
    8.7764   -1.6346    5.6990 O   0  0  0  0  0  0  0  0  0  0  0  0
    7.9974    2.2345    6.0140 C   0  0  0  0  0  0  0  0  0  0  0  0
    8.3411    3.5470    5.5803 O   0  0  0  0  0  0  0  0  0  0  0  0
   10.6405    4.7136    8.6955 C   0  0  1  0  0  0  0  0  0  0  0  0
   10.6793    3.2968    8.2939 O   0  0  0  0  0  0  0  0  0  0  0  0
    2.2635    0.0324    4.2487 C   0  0  0  0  0  0  0  0  0  0  0  0
    1.7815   -0.5456    5.4373 O   0  0  0  0  0  0  0  0  0  0  0  0
    8.7117   -3.6498    7.1823 C   0  0  1  0  0  0  0  0  0  0  0  0
    9.5310   -3.1186    8.2275 O   0  0  0  0  0  0  0  0  0  0  0  0
    9.2309    5.0628    9.3434 C   0  0  0  0  0  0  0  0  0  0  0  0
    8.0594    4.9503    8.4316 N   0  0  0  0  0  0  0  0  0  0  0  0
  1  2  1  1  0  0  0
  1  7  1  0  0  0  0
  1 30  1  0  0  0  0
  3  4  1  6  0  0  0
  3  9  1  0  0  0  0
  3 39  1  0  0  0  0
  5 10  1  0  0  0  0
  5 26  1  0  0  0  0
  5 32  1  6  0  0  0
  6 12  1  0  0  0  0
  6 36  1  0  0  0  0
  6 19  1  1  0  0  0
  7  8  1  1  0  0  0
  7 14  1  0  0  0  0
  9 16  1  0  0  0  0
 10 11  1  1  0  0  0
 10 18  1  0  0  0  0
 12 13  1  1  0  0  0
 12 20  1  0  0  0  0
 14 15  1  6  0  0  0
 14 22  1  0  0  0  0
 16 17  1  6  0  0  0
 16 24  1  0  0  0  0
 18 19  1  1  0  0  0
 18 25  1  0  0  0  0
 20 21  1  6  0  0  0
 20 27  1  0  0  0  0
 22 23  1  1  0  0  0
 22 29  1  0  0  0  0
 24  2  1  1  0  0  0
 24 31  1  0  0  0  0
 25 26  1  0  0  0  0
 25 33  1  6  0  0  0
 27 28  1  1  0  0  0
 27 35  1  0  0  0  0
 29 30  1  0  0  0  0
 29 37  1  6  0  0  0
 31 32  1  6  0  0  0
 31 39  1  0  0  0  0
 33 34  1  0  0  0  0
 35 36  1  0  0  0  0
 35 41  1  1  0  0  0
 37 38  1  0  0  0  0
 39 40  1  1  0  0  0
 41 42  1  0  0  0  0
M  END
>  <CHROM.1>
-105.37450554,-72.08214036,175.92022642,-177.05339813,-59.18845613,-175.25567958
166.46456430,-177.98441625,176.52998052,8.30838517,0.25102826,6.20664006
2.53524705,0.60372143,3.04914797

>  <Name>
ligand

>  <RI>
0

>  <Rbt.Current_Directory>
/home/itssahil/PROJECTS/Mol_Feturizer/Test_systems_manuscript/rnas/2o3w

>  <Rbt.Executable>
rbdock ($Id: //depot/dev/client3/rdock/2013.1/src/exe/rbdock.cxx#4 $)

>  <Rbt.Library>
libRbt.so (2013.1, Build901 2013/11/27)

>  <Rbt.Parameter_File>
/export/apps/rDock/src/rDock_2013.1_src/data/scripts/dock_solv.prm

>  <Rbt.Receptor>
prm/pocket_docking_5.prm

>  <SCORE>
-9.26402

>  <SCORE.INTER>
-0.750469

>  <SCORE.INTER.CONST>
1

>  <SCORE.INTER.POLAR>
0

>  <SCORE.INTER.ROT>
9

>  <SCORE.INTER.SOLV>
15.6407

>  <SCORE.INTER.VDW>
-15.3139

>  <SCORE.INTER.norm>
-0.0178683

>  <SCORE.INTRA>
-8.51355

>  <SCORE.INTRA.DIHEDRAL>
-19.7275

>  <SCORE.INTRA.DIHEDRAL.0>
27.8999

>  <SCORE.INTRA.POLAR>
0

>  <SCORE.INTRA.POLAR.0>
0

>  <SCORE.INTRA.REPUL>
0

>  <SCORE.INTRA.REPUL.0>
0

>  <SCORE.INTRA.SOLV>
-1.3564

>  <SCORE.INTRA.SOLV.lig_0>
-104.479

>  <SCORE.INTRA.VDW>
2.02842

>  <SCORE.INTRA.VDW.0>
-6.17816

>  <SCORE.INTRA.norm>
-0.202704

>  <SCORE.RESTR>
0

>  <SCORE.RESTR.CAVITY>
0

>  <SCORE.RESTR.norm>
0

>  <SCORE.SYSTEM>
0

>  <SCORE.SYSTEM.CONST>
0

>  <SCORE.SYSTEM.DIHEDRAL>
0

>  <SCORE.SYSTEM.SOLV>
0

>  <SCORE.SYSTEM.norm>
0

>  <SCORE.heavy>
42

>  <SCORE.norm>
-0.220572

>  <RMSD>
7.655

$$$$
ligand
 OpenBabel02271912133D
libRbt.so/2013.1/901 2013/11/27
 42 45  0  0  0  0  0  0  0  0999 V2000
    5.4582    4.0362    4.4780 C   0  0  2  0  0  0  0  0  0  0  0  0
    4.9173    4.0293    3.1458 O   0  0  0  0  0  0  0  0  0  0  0  0
    1.3923    2.3663    1.2473 C   0  0  2  0  0  0  0  0  0  0  0  0
   -0.0176    1.9731    0.9501 N   0  0  0  0  0  0  0  0  0  0  0  0
    3.0203    6.8628    1.1200 C   0  0  1  0  0  0  0  0  0  0  0  0
    2.7388    8.7320   -1.2795 C   0  0  1  0  0  0  0  0  0  0  0  0
    4.9263    5.3226    5.1784 C   0  0  2  0  0  0  0  0  0  0  0  0
    3.4677    5.4774    5.0407 N   0  0  0  0  0  0  0  0  0  0  0  0
    1.9185    1.6647    2.5636 C   0  0  0  0  0  0  0  0  0  0  0  0
    2.8000    8.2707    1.7525 C   0  0  2  0  0  0  0  0  0  0  0  0
    1.4180    8.7056    1.7555 O   0  0  0  0  0  0  0  0  0  0  0  0
    3.8220    8.5242   -2.3986 C   0  0  2  0  0  0  0  0  0  0  0  0
    4.1888    9.8253   -3.0339 N   0  0  0  0  0  0  0  0  0  0  0  0
    5.5650    6.6036    4.6106 C   0  0  1  0  0  0  0  0  0  0  0  0
    5.0792    7.7523    5.3072 O   0  0  0  0  0  0  0  0  0  0  0  0
    3.4126    2.0993    2.8111 C   0  0  2  0  0  0  0  0  0  0  0  0
    3.9456    1.4450    4.0364 N   0  0  0  0  0  0  0  0  0  0  0  0
    3.7607    9.1231    0.9220 C   0  0  2  0  0  0  0  0  0  0  0  0
    3.1035    9.6743   -0.2633 O   0  0  0  0  0  0  0  0  0  0  0  0
    3.2656    7.4888   -3.4872 C   0  0  1  0  0  0  0  0  0  0  0  0
    3.2858    6.1593   -2.9206 O   0  0  0  0  0  0  0  0  0  0  0  0
    7.1042    6.4967    4.7028 C   0  0  2  0  0  0  0  0  0  0  0  0
    7.7038    7.6691    4.2022 O   0  0  0  0  0  0  0  0  0  0  0  0
    3.5189    3.6686    2.9591 C   0  0  2  0  0  0  0  0  0  0  0  0
    4.9239    8.1950    0.5333 C   0  0  2  0  0  0  0  0  0  0  0  0
    4.2995    6.9162    0.4476 O   0  0  0  0  0  0  0  0  0  0  0  0
    1.7811    7.8398   -3.9778 C   0  0  2  0  0  0  0  0  0  0  0  0
    1.8543    9.0382   -4.7491 O   0  0  0  0  0  0  0  0  0  0  0  0
    7.5784    5.2440    3.8932 C   0  0  2  0  0  0  0  0  0  0  0  0
    6.9357    4.0424    4.4250 O   0  0  0  0  0  0  0  0  0  0  0  0
    2.9693    4.4247    1.7298 C   0  0  2  0  0  0  0  0  0  0  0  0
    2.9737    5.8280    2.1110 O   0  0  0  0  0  0  0  0  0  0  0  0
    6.1133    8.1723    1.5427 C   0  0  0  0  0  0  0  0  0  0  0  0
    6.7654    9.4386    1.5300 O   0  0  0  0  0  0  0  0  0  0  0  0
    0.8216    8.0427   -2.7448 C   0  0  1  0  0  0  0  0  0  0  0  0
    1.4243    9.1109   -1.9287 O   0  0  0  0  0  0  0  0  0  0  0  0
    9.0776    5.0582    3.9347 C   0  0  0  0  0  0  0  0  0  0  0  0
    9.7160    6.1149    3.2600 O   0  0  0  0  0  0  0  0  0  0  0  0
    1.4969    3.9369    1.3984 C   0  0  1  0  0  0  0  0  0  0  0  0
    1.0461    4.5242    0.1747 O   0  0  0  0  0  0  0  0  0  0  0  0
   -0.6693    8.4285   -3.1410 C   0  0  0  0  0  0  0  0  0  0  0  0
   -1.5277    7.2978   -3.5896 N   0  0  0  0  0  0  0  0  0  0  0  0
  1  2  1  6  0  0  0
  1  7  1  0  0  0  0
  1 30  1  0  0  0  0
  3  4  1  1  0  0  0
  3  9  1  0  0  0  0
  3 39  1  0  0  0  0
  5 10  1  0  0  0  0
  5 26  1  0  0  0  0
  5 32  1  1  0  0  0
  6 12  1  0  0  0  0
  6 36  1  0  0  0  0
  6 19  1  1  0  0  0
  7  8  1  6  0  0  0
  7 14  1  0  0  0  0
  9 16  1  0  0  0  0
 10 11  1  6  0  0  0
 10 18  1  0  0  0  0
 12 13  1  6  0  0  0
 12 20  1  0  0  0  0
 14 15  1  1  0  0  0
 14 22  1  0  0  0  0
 16 17  1  1  0  0  0
 16 24  1  0  0  0  0
 18 19  1  6  0  0  0
 18 25  1  0  0  0  0
 20 21  1  1  0  0  0
 20 27  1  0  0  0  0
 22 23  1  6  0  0  0
 22 29  1  0  0  0  0
 24  2  1  6  0  0  0
 24 31  1  0  0  0  0
 25 26  1  0  0  0  0
 25 33  1  1  0  0  0
 27 28  1  1  0  0  0
 27 35  1  0  0  0  0
 29 30  1  0  0  0  0
 29 37  1  1  0  0  0
 31 32  1  1  0  0  0
 31 39  1  0  0  0  0
 33 34  1  0  0  0  0
 35 36  1  0  0  0  0
 35 41  1  6  0  0  0
 37 38  1  0  0  0  0
 39 40  1  6  0  0  0
 41 42  1  0  0  0  0
M  END
>  <CHROM.1>
-75.76078928,-87.35185656,-68.67904385,-92.37441802,-67.51465958,-66.30229458
156.23430224,171.42879595,78.93075181,3.77536221,6.36397580,1.14750934,0.87784043
0.62437717,2.45790598

>  <Name>
ligand

>  <RI>
0

>  <Rbt.Current_Directory>
/home/itssahil/PROJECTS/Mol_Feturizer/Test_systems_manuscript/rnas/2o3w

>  <Rbt.Executable>
rbdock ($Id: //depot/dev/client3/rdock/2013.1/src/exe/rbdock.cxx#4 $)

>  <Rbt.Library>
libRbt.so (2013.1, Build901 2013/11/27)

>  <Rbt.Parameter_File>
/export/apps/rDock/src/rDock_2013.1_src/data/scripts/dock_solv.prm

>  <Rbt.Receptor>
prm/pocket_docking_6.prm

>  <SCORE>
-6.3894

>  <SCORE.INTER>
0.0301024

>  <SCORE.INTER.CONST>
1

>  <SCORE.INTER.POLAR>
0

>  <SCORE.INTER.ROT>
9

>  <SCORE.INTER.SOLV>
11.2906

>  <SCORE.INTER.VDW>
-13.3435

>  <SCORE.INTER.norm>
0.000716724

>  <SCORE.INTRA>
-6.43386

>  <SCORE.INTRA.DIHEDRAL>
-14.8296

>  <SCORE.INTRA.DIHEDRAL.0>
27.8999

>  <SCORE.INTRA.POLAR>
0

>  <SCORE.INTRA.POLAR.0>
0

>  <SCORE.INTRA.REPUL>
0.0294284

>  <SCORE.INTRA.REPUL.0>
0

>  <SCORE.INTRA.SOLV>
-0.523038

>  <SCORE.INTRA.SOLV.lig_0>
-104.479

>  <SCORE.INTRA.VDW>
1.09532

>  <SCORE.INTRA.VDW.0>
-6.17816

>  <SCORE.INTRA.norm>
-0.153187

>  <SCORE.RESTR>
0.0143657

>  <SCORE.RESTR.CAVITY>
0.0143657

>  <SCORE.RESTR.norm>
0.000342042

>  <SCORE.SYSTEM>
0

>  <SCORE.SYSTEM.CONST>
0

>  <SCORE.SYSTEM.DIHEDRAL>
0

>  <SCORE.SYSTEM.SOLV>
0

>  <SCORE.SYSTEM.norm>
0

>  <SCORE.heavy>
42

>  <SCORE.norm>
-0.152128

>  <RMSD>
7.688

$$$$
ligand
 OpenBabel02271912133D
libRbt.so/2013.1/901 2013/11/27
 42 45  0  0  0  0  0  0  0  0999 V2000
    4.1366    4.0250    3.9502 C   0  0  2  0  0  0  0  0  0  0  0  0
    5.1652    3.7862    2.9743 O   0  0  0  0  0  0  0  0  0  0  0  0
    6.9863    0.3460    4.8834 C   0  0  2  0  0  0  0  0  0  0  0  0
    7.8615   -0.8293    5.1717 N   0  0  0  0  0  0  0  0  0  0  0  0
    8.9392    4.4881    4.6839 C   0  0  1  0  0  0  0  0  0  0  0  0
   12.4783    6.5363    6.1571 C   0  0  1  0  0  0  0  0  0  0  0  0
    3.2562    5.1905    3.4074 C   0  0  2  0  0  0  0  0  0  0  0  0
    2.8284    4.9724    2.0145 N   0  0  0  0  0  0  0  0  0  0  0  0
    6.0778    0.0875    3.6146 C   0  0  0  0  0  0  0  0  0  0  0  0
   10.3004    4.3658    3.9337 C   0  0  2  0  0  0  0  0  0  0  0  0
   11.0031    3.1242    4.1862 O   0  0  0  0  0  0  0  0  0  0  0  0
   13.5131    6.1963    7.2896 C   0  0  2  0  0  0  0  0  0  0  0  0
   12.8603    5.4378    8.3984 N   0  0  0  0  0  0  0  0  0  0  0  0
    3.9919    6.5427    3.4401 C   0  0  1  0  0  0  0  0  0  0  0  0
    3.1358    7.5862    2.9721 O   0  0  0  0  0  0  0  0  0  0  0  0
    5.1646    1.3490    3.3755 C   0  0  2  0  0  0  0  0  0  0  0  0
    4.2843    1.1342    2.1954 N   0  0  0  0  0  0  0  0  0  0  0  0
   11.0122    5.6364    4.4008 C   0  0  2  0  0  0  0  0  0  0  0  0
   11.7882    5.4016    5.6188 O   0  0  0  0  0  0  0  0  0  0  0  0
   14.1706    7.5537    7.8299 C   0  0  1  0  0  0  0  0  0  0  0  0
   15.0956    8.0520    6.8376 O   0  0  0  0  0  0  0  0  0  0  0  0
    4.4911    6.8235    4.8757 C   0  0  2  0  0  0  0  0  0  0  0  0
    5.1526    8.0663    4.9262 O   0  0  0  0  0  0  0  0  0  0  0  0
    6.0464    2.6405    3.1510 C   0  0  2  0  0  0  0  0  0  0  0  0
    9.9072    6.6798    4.6366 C   0  0  2  0  0  0  0  0  0  0  0  0
    8.7934    5.8835    5.0342 O   0  0  0  0  0  0  0  0  0  0  0  0
   13.0828    8.6821    8.1632 C   0  0  2  0  0  0  0  0  0  0  0  0
   12.3541    8.2521    9.3123 O   0  0  0  0  0  0  0  0  0  0  0  0
    5.4500    5.6683    5.3179 C   0  0  2  0  0  0  0  0  0  0  0  0
    4.7440    4.3891    5.2480 O   0  0  0  0  0  0  0  0  0  0  0  0
    7.0030    2.9248    4.3297 C   0  0  2  0  0  0  0  0  0  0  0  0
    7.8509    4.0166    3.8787 O   0  0  0  0  0  0  0  0  0  0  0  0
    9.5551    7.5575    3.3957 C   0  0  0  0  0  0  0  0  0  0  0  0
    8.5313    8.4827    3.7490 O   0  0  0  0  0  0  0  0  0  0  0  0
   12.1062    8.8899    6.9445 C   0  0  1  0  0  0  0  0  0  0  0  0
   11.5033    7.5732    6.6741 O   0  0  0  0  0  0  0  0  0  0  0  0
    5.9829    5.8591    6.7192 C   0  0  0  0  0  0  0  0  0  0  0  0
    6.8949    4.8354    7.0347 O   0  0  0  0  0  0  0  0  0  0  0  0
    7.8701    1.6373    4.6558 C   0  0  1  0  0  0  0  0  0  0  0  0
    8.6444    1.8507    5.8392 O   0  0  0  0  0  0  0  0  0  0  0  0
   10.9700    9.9721    7.2023 C   0  0  0  0  0  0  0  0  0  0  0  0
    9.9539    9.6050    8.2267 N   0  0  0  0  0  0  0  0  0  0  0  0
  1  2  1  6  0  0  0
  1  7  1  0  0  0  0
  1 30  1  0  0  0  0
  3  4  1  6  0  0  0
  3  9  1  0  0  0  0
  3 39  1  0  0  0  0
  5 10  1  0  0  0  0
  5 26  1  0  0  0  0
  5 32  1  6  0  0  0
  6 12  1  0  0  0  0
  6 36  1  0  0  0  0
  6 19  1  1  0  0  0
  7  8  1  6  0  0  0
  7 14  1  0  0  0  0
  9 16  1  0  0  0  0
 10 11  1  1  0  0  0
 10 18  1  0  0  0  0
 12 13  1  1  0  0  0
 12 20  1  0  0  0  0
 14 15  1  1  0  0  0
 14 22  1  0  0  0  0
 16 17  1  6  0  0  0
 16 24  1  0  0  0  0
 18 19  1  1  0  0  0
 18 25  1  0  0  0  0
 20 21  1  6  0  0  0
 20 27  1  0  0  0  0
 22 23  1  6  0  0  0
 22 29  1  0  0  0  0
 24  2  1  1  0  0  0
 24 31  1  0  0  0  0
 25 26  1  0  0  0  0
 25 33  1  6  0  0  0
 27 28  1  1  0  0  0
 27 35  1  0  0  0  0
 29 30  1  0  0  0  0
 29 37  1  1  0  0  0
 31 32  1  6  0  0  0
 31 39  1  0  0  0  0
 33 34  1  0  0  0  0
 35 36  1  0  0  0  0
 35 41  1  1  0  0  0
 37 38  1  0  0  0  0
 39 40  1  1  0  0  0
 41 42  1  0  0  0  0
M  END
>  <CHROM.1>
-173.00723936,51.61076529,-178.93982603,-168.75807186,-179.59058764,-176.68063354
-175.28825192,120.98367262,-67.34274117,8.36599139,5.30010723,5.16951231
2.60456809,0.34598877,-2.97241268

>  <Name>
ligand

>  <RI>
0

>  <Rbt.Current_Directory>
/home/itssahil/PROJECTS/Mol_Feturizer/Test_systems_manuscript/rnas/2o3w

>  <Rbt.Executable>
rbdock ($Id: //depot/dev/client3/rdock/2013.1/src/exe/rbdock.cxx#4 $)

>  <Rbt.Library>
libRbt.so (2013.1, Build901 2013/11/27)

>  <Rbt.Parameter_File>
/export/apps/rDock/src/rDock_2013.1_src/data/scripts/dock_solv.prm

>  <Rbt.Receptor>
prm/pocket_docking_7.prm

>  <SCORE>
-12.2383

>  <SCORE.INTER>
-2.52135

>  <SCORE.INTER.CONST>
1

>  <SCORE.INTER.POLAR>
0

>  <SCORE.INTER.ROT>
9

>  <SCORE.INTER.SOLV>
12.6038

>  <SCORE.INTER.VDW>
-15.4822

>  <SCORE.INTER.norm>
-0.0600322

>  <SCORE.INTRA>
-9.72194

>  <SCORE.INTRA.DIHEDRAL>
-19.0396

>  <SCORE.INTRA.DIHEDRAL.0>
27.8999

>  <SCORE.INTRA.POLAR>
0

>  <SCORE.INTRA.POLAR.0>
0

>  <SCORE.INTRA.REPUL>
0.0275422

>  <SCORE.INTRA.REPUL.0>
0

>  <SCORE.INTRA.SOLV>
-2.10583

>  <SCORE.INTRA.SOLV.lig_0>
-104.479

>  <SCORE.INTRA.VDW>
0.71307

>  <SCORE.INTRA.VDW.0>
-6.17816

>  <SCORE.INTRA.norm>
-0.231475

>  <SCORE.RESTR>
0.00500437

>  <SCORE.RESTR.CAVITY>
0.00500437

>  <SCORE.RESTR.norm>
0.000119152

>  <SCORE.SYSTEM>
0

>  <SCORE.SYSTEM.CONST>
0

>  <SCORE.SYSTEM.DIHEDRAL>
0

>  <SCORE.SYSTEM.SOLV>
0

>  <SCORE.SYSTEM.norm>
0

>  <SCORE.heavy>
42

>  <SCORE.norm>
-0.291388

>  <RMSD>
7.698

$$$$
ligand
 OpenBabel02271912133D
libRbt.so/2013.1/901 2013/11/27
 42 45  0  0  0  0  0  0  0  0999 V2000
    5.9408    0.6802    1.9946 C   0  0  2  0  0  0  0  0  0  0  0  0
    5.1740   -0.2220    2.8104 O   0  0  0  0  0  0  0  0  0  0  0  0
    6.2487   -3.3791    5.5806 C   0  0  2  0  0  0  0  0  0  0  0  0
    6.8728   -4.5906    6.1913 N   0  0  0  0  0  0  0  0  0  0  0  0
    8.9684    0.1710    4.5712 C   0  0  1  0  0  0  0  0  0  0  0  0
   12.1663    2.6708    6.3136 C   0  0  1  0  0  0  0  0  0  0  0  0
    5.0374    1.9180    1.7124 C   0  0  2  0  0  0  0  0  0  0  0  0
    4.4316    2.4653    2.9389 N   0  0  0  0  0  0  0  0  0  0  0  0
    5.3385   -3.7632    4.3453 C   0  0  0  0  0  0  0  0  0  0  0  0
    9.8730    1.1195    3.7270 C   0  0  2  0  0  0  0  0  0  0  0  0
   10.9408    0.4411    3.0207 O   0  0  0  0  0  0  0  0  0  0  0  0
   13.6390    2.3263    6.7391 C   0  0  2  0  0  0  0  0  0  0  0  0
   13.7108    0.9714    7.3636 N   0  0  0  0  0  0  0  0  0  0  0  0
    3.8789    1.5894    0.7528 C   0  0  1  0  0  0  0  0  0  0  0  0
    3.1022    2.7595    0.4916 O   0  0  0  0  0  0  0  0  0  0  0  0
    4.6925   -2.4508    3.7598 C   0  0  2  0  0  0  0  0  0  0  0  0
    3.8163   -2.7772    2.6025 N   0  0  0  0  0  0  0  0  0  0  0  0
   10.3168    2.1284    4.7874 C   0  0  2  0  0  0  0  0  0  0  0  0
   11.5563    1.7100    5.4427 O   0  0  0  0  0  0  0  0  0  0  0  0
   14.1761    3.4525    7.7442 C   0  0  1  0  0  0  0  0  0  0  0  0
   14.4467    4.6577    6.9938 O   0  0  0  0  0  0  0  0  0  0  0  0
    4.4460    0.9855   -0.5522 C   0  0  2  0  0  0  0  0  0  0  0  0
    3.3989    0.6945   -1.4485 O   0  0  0  0  0  0  0  0  0  0  0  0
    5.8125   -1.4331    3.3063 C   0  0  2  0  0  0  0  0  0  0  0  0
    9.1584    2.2228    5.7946 C   0  0  2  0  0  0  0  0  0  0  0  0
    8.5862    0.9178    5.7491 O   0  0  0  0  0  0  0  0  0  0  0  0
   13.1424    3.7768    8.9247 C   0  0  2  0  0  0  0  0  0  0  0  0
   13.0987    2.6384    9.7841 O   0  0  0  0  0  0  0  0  0  0  0  0
    5.2541   -0.3095   -0.2065 C   0  0  2  0  0  0  0  0  0  0  0  0
    6.3281    0.0165    0.7316 O   0  0  0  0  0  0  0  0  0  0  0  0
    6.7770   -1.0546    4.4516 C   0  0  2  0  0  0  0  0  0  0  0  0
    7.8307   -0.2752    3.8217 O   0  0  0  0  0  0  0  0  0  0  0  0
    8.0921    3.3148    5.4708 C   0  0  0  0  0  0  0  0  0  0  0  0
    8.7037    4.6000    5.5244 O   0  0  0  0  0  0  0  0  0  0  0  0
   11.7093    4.0756    8.3422 C   0  0  1  0  0  0  0  0  0  0  0  0
   11.3307    2.8876    7.5577 O   0  0  0  0  0  0  0  0  0  0  0  0
    5.8525   -0.9653   -1.4295 C   0  0  0  0  0  0  0  0  0  0  0  0
    4.8357   -1.5144   -2.2318 O   0  0  0  0  0  0  0  0  0  0  0  0
    7.3707   -2.3626    5.1242 C   0  0  1  0  0  0  0  0  0  0  0  0
    8.1426   -2.0175    6.2777 O   0  0  0  0  0  0  0  0  0  0  0  0
   10.6094    4.3758    9.4507 C   0  0  0  0  0  0  0  0  0  0  0  0
    9.2470    4.6853    8.9362 N   0  0  0  0  0  0  0  0  0  0  0  0
  1  2  1  1  0  0  0
  1  7  1  0  0  0  0
  1 30  1  0  0  0  0
  3  4  1  6  0  0  0
  3  9  1  0  0  0  0
  3 39  1  0  0  0  0
  5 10  1  0  0  0  0
  5 26  1  0  0  0  0
  5 32  1  6  0  0  0
  6 12  1  0  0  0  0
  6 36  1  0  0  0  0
  6 19  1  1  0  0  0
  7  8  1  1  0  0  0
  7 14  1  0  0  0  0
  9 16  1  0  0  0  0
 10 11  1  1  0  0  0
 10 18  1  0  0  0  0
 12 13  1  1  0  0  0
 12 20  1  0  0  0  0
 14 15  1  6  0  0  0
 14 22  1  0  0  0  0
 16 17  1  6  0  0  0
 16 24  1  0  0  0  0
 18 19  1  1  0  0  0
 18 25  1  0  0  0  0
 20 21  1  6  0  0  0
 20 27  1  0  0  0  0
 22 23  1  6  0  0  0
 22 29  1  0  0  0  0
 24  2  1  1  0  0  0
 24 31  1  0  0  0  0
 25 26  1  0  0  0  0
 25 33  1  6  0  0  0
 27 28  1  1  0  0  0
 27 35  1  0  0  0  0
 29 30  1  0  0  0  0
 29 37  1  6  0  0  0
 31 32  1  6  0  0  0
 31 39  1  0  0  0  0
 33 34  1  0  0  0  0
 35 36  1  0  0  0  0
 35 41  1  1  0  0  0
 37 38  1  0  0  0  0
 39 40  1  1  0  0  0
 41 42  1  0  0  0  0
M  END
>  <CHROM.1>
-175.75289761,-162.17404831,171.25873974,-166.78509476,-63.43398760,-69.12005682
-175.42119618,-173.47580007,179.01489163,8.19607992,0.90170837,4.34157860
3.10726192,0.79401353,2.69553437

>  <Name>
ligand

>  <RI>
0

>  <Rbt.Current_Directory>
/home/itssahil/PROJECTS/Mol_Feturizer/Test_systems_manuscript/rnas/2o3w

>  <Rbt.Executable>
rbdock ($Id: //depot/dev/client3/rdock/2013.1/src/exe/rbdock.cxx#4 $)

>  <Rbt.Library>
libRbt.so (2013.1, Build901 2013/11/27)

>  <Rbt.Parameter_File>
/export/apps/rDock/src/rDock_2013.1_src/data/scripts/dock_solv.prm

>  <Rbt.Receptor>
prm/pocket_docking_6.prm

>  <SCORE>
-11.8138

>  <SCORE.INTER>
0.450666

>  <SCORE.INTER.CONST>
1

>  <SCORE.INTER.POLAR>
0

>  <SCORE.INTER.ROT>
9

>  <SCORE.INTER.SOLV>
10.1736

>  <SCORE.INTER.VDW>
-12.6908

>  <SCORE.INTER.norm>
0.0107301

>  <SCORE.INTRA>
-12.2645

>  <SCORE.INTRA.DIHEDRAL>
-24.3845

>  <SCORE.INTRA.DIHEDRAL.0>
27.8999

>  <SCORE.INTRA.POLAR>
0

>  <SCORE.INTRA.POLAR.0>
0

>  <SCORE.INTRA.REPUL>
0

>  <SCORE.INTRA.REPUL.0>
0

>  <SCORE.INTRA.SOLV>
-3.90106

>  <SCORE.INTRA.SOLV.lig_0>
-104.479

>  <SCORE.INTRA.VDW>
1.87831

>  <SCORE.INTRA.VDW.0>
-6.17816

>  <SCORE.INTRA.norm>
-0.292011

>  <SCORE.RESTR>
0

>  <SCORE.RESTR.CAVITY>
0

>  <SCORE.RESTR.norm>
0

>  <SCORE.SYSTEM>
0

>  <SCORE.SYSTEM.CONST>
0

>  <SCORE.SYSTEM.DIHEDRAL>
0

>  <SCORE.SYSTEM.SOLV>
0

>  <SCORE.SYSTEM.norm>
0

>  <SCORE.heavy>
42

>  <SCORE.norm>
-0.281281

>  <RMSD>
7.719

$$$$
ligand
 OpenBabel02271912133D
libRbt.so/2013.1/901 2013/11/27
 42 45  0  0  0  0  0  0  0  0999 V2000
    6.3300   -7.6793    8.0479 C   0  0  2  0  0  0  0  0  0  0  0  0
    7.4600   -7.4884    7.1796 O   0  0  0  0  0  0  0  0  0  0  0  0
   10.1555   -5.6623   10.0425 C   0  0  2  0  0  0  0  0  0  0  0  0
   11.3775   -5.1162   10.7049 N   0  0  0  0  0  0  0  0  0  0  0  0
    8.3432   -3.5783    6.2691 C   0  0  1  0  0  0  0  0  0  0  0  0
    7.1798    0.2073    4.3330 C   0  0  1  0  0  0  0  0  0  0  0  0
    5.1397   -8.1359    7.1518 C   0  0  2  0  0  0  0  0  0  0  0  0
    5.5015   -9.2505    6.2588 N   0  0  0  0  0  0  0  0  0  0  0  0
   10.2776   -7.2219    9.8090 C   0  0  0  0  0  0  0  0  0  0  0  0
    8.8226   -3.1705    4.8427 C   0  0  2  0  0  0  0  0  0  0  0  0
   10.1756   -2.6539    4.8010 O   0  0  0  0  0  0  0  0  0  0  0  0
    7.6777    1.6746    4.5939 C   0  0  2  0  0  0  0  0  0  0  0  0
    7.9509    1.8949    6.0457 N   0  0  0  0  0  0  0  0  0  0  0  0
    4.6143   -7.0000    6.2548 C   0  0  1  0  0  0  0  0  0  0  0  0
    3.5009   -7.4513    5.4817 O   0  0  0  0  0  0  0  0  0  0  0  0
    8.9539   -7.7414    9.1303 C   0  0  2  0  0  0  0  0  0  0  0  0
    9.0284   -9.2108    8.9086 N   0  0  0  0  0  0  0  0  0  0  0  0
    7.7256   -2.1878    4.4303 C   0  0  2  0  0  0  0  0  0  0  0  0
    8.0597   -0.8161    4.8147 O   0  0  0  0  0  0  0  0  0  0  0  0
    6.5815    2.7093    4.0511 C   0  0  1  0  0  0  0  0  0  0  0  0
    6.6260    2.7220    2.6065 O   0  0  0  0  0  0  0  0  0  0  0  0
    4.2372   -5.7837    7.1309 C   0  0  2  0  0  0  0  0  0  0  0  0
    3.7384   -4.7407    6.3260 O   0  0  0  0  0  0  0  0  0  0  0  0
    8.7103   -7.0090    7.7518 C   0  0  2  0  0  0  0  0  0  0  0  0
    6.4423   -2.6658    5.1304 C   0  0  2  0  0  0  0  0  0  0  0  0
    6.9334   -3.2620    6.3287 O   0  0  0  0  0  0  0  0  0  0  0  0
    5.0967    2.3550    4.5384 C   0  0  2  0  0  0  0  0  0  0  0  0
    5.0345    2.5990    5.9430 O   0  0  0  0  0  0  0  0  0  0  0  0
    5.5021   -5.3139    7.9239 C   0  0  2  0  0  0  0  0  0  0  0  0
    6.0061   -6.4157    8.7435 O   0  0  0  0  0  0  0  0  0  0  0  0
    8.6362   -5.4730    7.8947 C   0  0  2  0  0  0  0  0  0  0  0  0
    8.5976   -4.9642    6.5331 O   0  0  0  0  0  0  0  0  0  0  0  0
    5.5836   -3.6783    4.3108 C   0  0  0  0  0  0  0  0  0  0  0  0
    5.2254   -3.0902    3.0639 O   0  0  0  0  0  0  0  0  0  0  0  0
    4.7556    0.8479    4.2311 C   0  0  1  0  0  0  0  0  0  0  0  0
    5.7891    0.0477    4.9105 O   0  0  0  0  0  0  0  0  0  0  0  0
    5.2214   -4.1267    8.8159 C   0  0  0  0  0  0  0  0  0  0  0  0
    6.4088   -3.6927    9.4332 O   0  0  0  0  0  0  0  0  0  0  0  0
    9.9144   -4.9307    8.6615 C   0  0  1  0  0  0  0  0  0  0  0  0
    9.7742   -3.5323    8.9268 O   0  0  0  0  0  0  0  0  0  0  0  0
    3.3081    0.4001    4.7138 C   0  0  0  0  0  0  0  0  0  0  0  0
    2.8618   -0.9413    4.2469 N   0  0  0  0  0  0  0  0  0  0  0  0
  1  2  1  6  0  0  0
  1  7  1  0  0  0  0
  1 30  1  0  0  0  0
  3  4  1  6  0  0  0
  3  9  1  0  0  0  0
  3 39  1  0  0  0  0
  5 10  1  0  0  0  0
  5 26  1  0  0  0  0
  5 32  1  6  0  0  0
  6 12  1  0  0  0  0
  6 36  1  0  0  0  0
  6 19  1  1  0  0  0
  7  8  1  6  0  0  0
  7 14  1  0  0  0  0
  9 16  1  0  0  0  0
 10 11  1  1  0  0  0
 10 18  1  0  0  0  0
 12 13  1  1  0  0  0
 12 20  1  0  0  0  0
 14 15  1  1  0  0  0
 14 22  1  0  0  0  0
 16 17  1  6  0  0  0
 16 24  1  0  0  0  0
 18 19  1  1  0  0  0
 18 25  1  0  0  0  0
 20 21  1  6  0  0  0
 20 27  1  0  0  0  0
 22 23  1  6  0  0  0
 22 29  1  0  0  0  0
 24  2  1  1  0  0  0
 24 31  1  0  0  0  0
 25 26  1  0  0  0  0
 25 33  1  6  0  0  0
 27 28  1  1  0  0  0
 27 35  1  0  0  0  0
 29 30  1  0  0  0  0
 29 37  1  1  0  0  0
 31 32  1  6  0  0  0
 31 39  1  0  0  0  0
 33 34  1  0  0  0  0
 35 36  1  0  0  0  0
 35 41  1  1  0  0  0
 37 38  1  0  0  0  0
 39 40  1  1  0  0  0
 41 42  1  0  0  0  0
M  END
>  <CHROM.1>
177.77810579,41.38411967,172.62850768,-171.85411688,-57.77926677,-176.06223007
171.41344890,160.40075859,170.34025162,6.87015150,-3.51156505,6.44269122
1.35089214,0.43732311,2.78526563

>  <Name>
ligand

>  <RI>
0

>  <Rbt.Current_Directory>
/home/itssahil/PROJECTS/Mol_Feturizer/Test_systems_manuscript/rnas/2o3w

>  <Rbt.Executable>
rbdock ($Id: //depot/dev/client3/rdock/2013.1/src/exe/rbdock.cxx#4 $)

>  <Rbt.Library>
libRbt.so (2013.1, Build901 2013/11/27)

>  <Rbt.Parameter_File>
/export/apps/rDock/src/rDock_2013.1_src/data/scripts/dock_solv.prm

>  <Rbt.Receptor>
prm/pocket_docking_8.prm

>  <SCORE>
-8.14436

>  <SCORE.INTER>
4.19801

>  <SCORE.INTER.CONST>
1

>  <SCORE.INTER.POLAR>
0

>  <SCORE.INTER.ROT>
9

>  <SCORE.INTER.SOLV>
8.83372

>  <SCORE.INTER.VDW>
-9.7459

>  <SCORE.INTER.norm>
0.0999527

>  <SCORE.INTRA>
-12.3424

>  <SCORE.INTRA.DIHEDRAL>
-23.0879

>  <SCORE.INTRA.DIHEDRAL.0>
27.8999

>  <SCORE.INTRA.POLAR>
0

>  <SCORE.INTRA.POLAR.0>
0

>  <SCORE.INTRA.REPUL>
0.00559701

>  <SCORE.INTRA.REPUL.0>
0

>  <SCORE.INTRA.SOLV>
-1.98787

>  <SCORE.INTRA.SOLV.lig_0>
-104.479

>  <SCORE.INTRA.VDW>
0.167518

>  <SCORE.INTRA.VDW.0>
-6.17816

>  <SCORE.INTRA.norm>
-0.293866

>  <SCORE.RESTR>
0

>  <SCORE.RESTR.CAVITY>
0

>  <SCORE.RESTR.norm>
0

>  <SCORE.SYSTEM>
0

>  <SCORE.SYSTEM.CONST>
0

>  <SCORE.SYSTEM.DIHEDRAL>
0

>  <SCORE.SYSTEM.SOLV>
0

>  <SCORE.SYSTEM.norm>
0

>  <SCORE.heavy>
42

>  <SCORE.norm>
-0.193913

>  <RMSD>
7.742

$$$$
ligand
 OpenBabel02271912133D
libRbt.so/2013.1/901 2013/11/27
 42 45  0  0  0  0  0  0  0  0999 V2000
    4.5259    5.6574    3.5730 C   0  0  2  0  0  0  0  0  0  0  0  0
    5.4810    4.9872    2.7329 O   0  0  0  0  0  0  0  0  0  0  0  0
    5.5165    1.9098   -0.3208 C   0  0  2  0  0  0  0  0  0  0  0  0
    5.1495    0.7369   -1.1693 N   0  0  0  0  0  0  0  0  0  0  0  0
    3.0873    5.9996   -0.3162 C   0  0  1  0  0  0  0  0  0  0  0  0
    1.3389    9.4705   -2.4409 C   0  0  1  0  0  0  0  0  0  0  0  0
    5.2223    6.9393    4.1208 C   0  0  2  0  0  0  0  0  0  0  0  0
    5.8599    7.7333    3.0561 N   0  0  0  0  0  0  0  0  0  0  0  0
    5.8118    1.4701    1.1696 C   0  0  0  0  0  0  0  0  0  0  0  0
    1.6395    6.5271   -0.0786 C   0  0  2  0  0  0  0  0  0  0  0  0
    0.6132    5.7528   -0.7467 O   0  0  0  0  0  0  0  0  0  0  0  0
    0.9617    9.5848   -3.9619 C   0  0  2  0  0  0  0  0  0  0  0  0
    1.9443    8.8482   -4.8120 N   0  0  0  0  0  0  0  0  0  0  0  0
    6.3199    6.6132    5.1503 C   0  0  1  0  0  0  0  0  0  0  0  0
    6.9026    7.8164    5.6540 O   0  0  0  0  0  0  0  0  0  0  0  0
    6.2137    2.7428    2.0071 C   0  0  2  0  0  0  0  0  0  0  0  0
    6.5132    2.3630    3.4141 N   0  0  0  0  0  0  0  0  0  0  0  0
    1.7744    7.9808   -0.5344 C   0  0  2  0  0  0  0  0  0  0  0  0
    1.4759    8.1278   -1.9592 O   0  0  0  0  0  0  0  0  0  0  0  0
    0.8898   11.1314   -4.3740 C   0  0  1  0  0  0  0  0  0  0  0  0
   -0.3098   11.7094   -3.8121 O   0  0  0  0  0  0  0  0  0  0  0  0
    5.7209    5.7566    6.2889 C   0  0  2  0  0  0  0  0  0  0  0  0
    6.7095    5.4636    7.2487 O   0  0  0  0  0  0  0  0  0  0  0  0
    5.0533    3.8146    1.9828 C   0  0  2  0  0  0  0  0  0  0  0  0
    3.2239    8.3903   -0.2236 C   0  0  2  0  0  0  0  0  0  0  0  0
    3.9407    7.1660   -0.3646 O   0  0  0  0  0  0  0  0  0  0  0  0
    2.1670   11.9657   -3.8839 C   0  0  2  0  0  0  0  0  0  0  0  0
    3.2880   11.5278   -4.6507 O   0  0  0  0  0  0  0  0  0  0  0  0
    5.1322    4.4398    5.6815 C   0  0  2  0  0  0  0  0  0  0  0  0
    4.1162    4.7702    4.6824 O   0  0  0  0  0  0  0  0  0  0  0  0
    4.6709    4.2510    0.5515 C   0  0  2  0  0  0  0  0  0  0  0  0
    3.4867    5.0801    0.7085 O   0  0  0  0  0  0  0  0  0  0  0  0
    3.4438    9.0096    1.1915 C   0  0  0  0  0  0  0  0  0  0  0  0
    2.5951   10.1431    1.3460 O   0  0  0  0  0  0  0  0  0  0  0  0
    2.4303   11.7284   -2.3488 C   0  0  1  0  0  0  0  0  0  0  0  0
    2.5960   10.2741   -2.1821 O   0  0  0  0  0  0  0  0  0  0  0  0
    4.5169    3.5407    6.7288 C   0  0  0  0  0  0  0  0  0  0  0  0
    4.3104    2.2528    6.2015 O   0  0  0  0  0  0  0  0  0  0  0  0
    4.3530    2.9805   -0.3432 C   0  0  1  0  0  0  0  0  0  0  0  0
    4.1476    3.3735   -1.7030 O   0  0  0  0  0  0  0  0  0  0  0  0
    3.7040   12.4949   -1.7841 C   0  0  0  0  0  0  0  0  0  0  0  0
    4.9992   12.1540   -2.4341 N   0  0  0  0  0  0  0  0  0  0  0  0
  1  2  1  6  0  0  0
  1  7  1  0  0  0  0
  1 30  1  0  0  0  0
  3  4  1  6  0  0  0
  3  9  1  0  0  0  0
  3 39  1  0  0  0  0
  5 10  1  0  0  0  0
  5 26  1  0  0  0  0
  5 32  1  1  0  0  0
  6 12  1  0  0  0  0
  6 36  1  0  0  0  0
  6 19  1  6  0  0  0
  7  8  1  6  0  0  0
  7 14  1  0  0  0  0
  9 16  1  0  0  0  0
 10 11  1  6  0  0  0
 10 18  1  0  0  0  0
 12 13  1  6  0  0  0
 12 20  1  0  0  0  0
 14 15  1  1  0  0  0
 14 22  1  0  0  0  0
 16 17  1  1  0  0  0
 16 24  1  0  0  0  0
 18 19  1  6  0  0  0
 18 25  1  0  0  0  0
 20 21  1  1  0  0  0
 20 27  1  0  0  0  0
 22 23  1  1  0  0  0
 22 29  1  0  0  0  0
 24  2  1  1  0  0  0
 24 31  1  0  0  0  0
 25 26  1  0  0  0  0
 25 33  1  1  0  0  0
 27 28  1  6  0  0  0
 27 35  1  0  0  0  0
 29 30  1  0  0  0  0
 29 37  1  1  0  0  0
 31 32  1  1  0  0  0
 31 39  1  0  0  0  0
 33 34  1  0  0  0  0
 35 36  1  0  0  0  0
 35 41  1  6  0  0  0
 37 38  1  0  0  0  0
 39 40  1  6  0  0  0
 41 42  1  0  0  0  0
M  END
>  <CHROM.1>
-174.28450103,-140.46927575,169.30403216,-177.65281043,-56.92258472,-165.33715126
160.06174735,166.92690834,-59.25441057,3.83589440,6.79139079,0.70762732,-0.37941207
-1.20410039,0.32942435

>  <Name>
ligand

>  <RI>
0

>  <Rbt.Current_Directory>
/home/itssahil/PROJECTS/Mol_Feturizer/Test_systems_manuscript/rnas/2o3w

>  <Rbt.Executable>
rbdock ($Id: //depot/dev/client3/rdock/2013.1/src/exe/rbdock.cxx#4 $)

>  <Rbt.Library>
libRbt.so (2013.1, Build901 2013/11/27)

>  <Rbt.Parameter_File>
/export/apps/rDock/src/rDock_2013.1_src/data/scripts/dock_solv.prm

>  <Rbt.Receptor>
prm/pocket_docking_8.prm

>  <SCORE>
-15.8065

>  <SCORE.INTER>
-6.64849

>  <SCORE.INTER.CONST>
1

>  <SCORE.INTER.POLAR>
0

>  <SCORE.INTER.ROT>
9

>  <SCORE.INTER.SOLV>
16.2834

>  <SCORE.INTER.VDW>
-19.4601

>  <SCORE.INTER.norm>
-0.158297

>  <SCORE.INTRA>
-9.15799

>  <SCORE.INTRA.DIHEDRAL>
-18.3664

>  <SCORE.INTRA.DIHEDRAL.0>
27.8999

>  <SCORE.INTRA.POLAR>
0

>  <SCORE.INTRA.POLAR.0>
0

>  <SCORE.INTRA.REPUL>
0

>  <SCORE.INTRA.REPUL.0>
0

>  <SCORE.INTRA.SOLV>
-1.20685

>  <SCORE.INTRA.SOLV.lig_0>
-104.479

>  <SCORE.INTRA.VDW>
0.628643

>  <SCORE.INTRA.VDW.0>
-6.17816

>  <SCORE.INTRA.norm>
-0.218047

>  <SCORE.RESTR>
0

>  <SCORE.RESTR.CAVITY>
0

>  <SCORE.RESTR.norm>
0

>  <SCORE.SYSTEM>
0

>  <SCORE.SYSTEM.CONST>
0

>  <SCORE.SYSTEM.DIHEDRAL>
0

>  <SCORE.SYSTEM.SOLV>
0

>  <SCORE.SYSTEM.norm>
0

>  <SCORE.heavy>
42

>  <SCORE.norm>
-0.376345

>  <RMSD>
7.747

$$$$
ligand
 OpenBabel02271912133D
libRbt.so/2013.1/901 2013/11/27
 42 45  0  0  0  0  0  0  0  0999 V2000
    2.6362    2.2420   -1.7027 C   0  0  2  0  0  0  0  0  0  0  0  0
    2.3687    2.4413   -0.3041 O   0  0  0  0  0  0  0  0  0  0  0  0
    4.4373    4.3041    3.0196 C   0  0  2  0  0  0  0  0  0  0  0  0
    5.2104    5.2656    3.8612 N   0  0  0  0  0  0  0  0  0  0  0  0
    1.5664    5.6974   -0.2153 C   0  0  1  0  0  0  0  0  0  0  0  0
    1.8779    9.2731   -2.7546 C   0  0  1  0  0  0  0  0  0  0  0  0
    1.3267    1.6904   -2.3423 C   0  0  2  0  0  0  0  0  0  0  0  0
    0.1442    2.4949   -1.9887 N   0  0  0  0  0  0  0  0  0  0  0  0
    5.3137    3.7560    1.8224 C   0  0  0  0  0  0  0  0  0  0  0  0
    0.3181    6.5052   -0.6843 C   0  0  2  0  0  0  0  0  0  0  0  0
   -0.3929    5.9006   -1.7924 O   0  0  0  0  0  0  0  0  0  0  0  0
    0.7560   10.3428   -3.0112 C   0  0  2  0  0  0  0  0  0  0  0  0
   -0.2361    9.8461   -4.0112 N   0  0  0  0  0  0  0  0  0  0  0  0
    1.0274    0.2443   -1.9060 C   0  0  1  0  0  0  0  0  0  0  0  0
   -0.1573   -0.2331   -2.5458 O   0  0  0  0  0  0  0  0  0  0  0  0
    4.4540    2.7333    0.9871 C   0  0  2  0  0  0  0  0  0  0  0  0
    5.2538    2.1855   -0.1415 N   0  0  0  0  0  0  0  0  0  0  0  0
    0.9387    7.8749   -0.9639 C   0  0  2  0  0  0  0  0  0  0  0  0
    1.3943    7.9863   -2.3498 O   0  0  0  0  0  0  0  0  0  0  0  0
    1.4315   11.7104   -3.5012 C   0  0  1  0  0  0  0  0  0  0  0  0
    2.0765   12.3433   -2.3732 O   0  0  0  0  0  0  0  0  0  0  0  0
    2.2437   -0.6536   -2.2280 C   0  0  2  0  0  0  0  0  0  0  0  0
    1.9792   -1.9845   -1.8498 O   0  0  0  0  0  0  0  0  0  0  0  0
    3.1516    3.4290    0.4253 C   0  0  2  0  0  0  0  0  0  0  0  0
    2.1108    8.0190    0.0213 C   0  0  2  0  0  0  0  0  0  0  0  0
    2.5498    6.6741    0.1969 O   0  0  0  0  0  0  0  0  0  0  0  0
    2.4995   11.4908   -4.6754 C   0  0  2  0  0  0  0  0  0  0  0  0
    1.7800   11.1039   -5.8455 O   0  0  0  0  0  0  0  0  0  0  0  0
    3.4989   -0.1030   -1.4724 C   0  0  2  0  0  0  0  0  0  0  0  0
    3.7469    1.2815   -1.8743 O   0  0  0  0  0  0  0  0  0  0  0  0
    2.2714    4.0396    1.5378 C   0  0  2  0  0  0  0  0  0  0  0  0
    1.2360    4.7849    0.8399 O   0  0  0  0  0  0  0  0  0  0  0  0
    1.7438    8.6728    1.3896 C   0  0  0  0  0  0  0  0  0  0  0  0
    2.9202    8.7944    2.1835 O   0  0  0  0  0  0  0  0  0  0  0  0
    3.5385   10.3744   -4.2801 C   0  0  1  0  0  0  0  0  0  0  0  0
    2.7489    9.1654   -3.9886 O   0  0  0  0  0  0  0  0  0  0  0  0
    4.7418   -0.9211   -1.7365 C   0  0  0  0  0  0  0  0  0  0  0  0
    5.8233   -0.4138   -0.9933 O   0  0  0  0  0  0  0  0  0  0  0  0
    3.1356    5.0024    2.4552 C   0  0  1  0  0  0  0  0  0  0  0  0
    2.3602    5.4478    3.5714 O   0  0  0  0  0  0  0  0  0  0  0  0
    4.6188   10.0672   -5.4059 C   0  0  0  0  0  0  0  0  0  0  0  0
    5.6442    9.0480   -5.0509 N   0  0  0  0  0  0  0  0  0  0  0  0
  1  2  1  1  0  0  0
  1  7  1  0  0  0  0
  1 30  1  0  0  0  0
  3  4  1  6  0  0  0
  3  9  1  0  0  0  0
  3 39  1  0  0  0  0
  5 10  1  0  0  0  0
  5 26  1  0  0  0  0
  5 32  1  1  0  0  0
  6 12  1  0  0  0  0
  6 36  1  0  0  0  0
  6 19  1  6  0  0  0
  7  8  1  1  0  0  0
  7 14  1  0  0  0  0
  9 16  1  0  0  0  0
 10 11  1  6  0  0  0
 10 18  1  0  0  0  0
 12 13  1  6  0  0  0
 12 20  1  0  0  0  0
 14 15  1  6  0  0  0
 14 22  1  0  0  0  0
 16 17  1  6  0  0  0
 16 24  1  0  0  0  0
 18 19  1  6  0  0  0
 18 25  1  0  0  0  0
 20 21  1  1  0  0  0
 20 27  1  0  0  0  0
 22 23  1  1  0  0  0
 22 29  1  0  0  0  0
 24  2  1  1  0  0  0
 24 31  1  0  0  0  0
 25 26  1  0  0  0  0
 25 33  1  1  0  0  0
 27 28  1  6  0  0  0
 27 35  1  0  0  0  0
 29 30  1  0  0  0  0
 29 37  1  6  0  0  0
 31 32  1  6  0  0  0
 31 39  1  0  0  0  0
 33 34  1  0  0  0  0
 35 36  1  0  0  0  0
 35 41  1  6  0  0  0
 37 38  1  0  0  0  0
 39 40  1  1  0  0  0
 41 42  1  0  0  0  0
M  END
>  <CHROM.1>
-154.54315758,-88.35707659,174.32611220,-75.84065594,-177.75626991,-177.69790581
-48.74262567,-172.82503486,178.12364142,2.51758140,5.41596338,-1.18661237
1.13758216,1.34763826,-2.98431265

>  <Name>
ligand

>  <RI>
0

>  <Rbt.Current_Directory>
/home/itssahil/PROJECTS/Mol_Feturizer/Test_systems_manuscript/rnas/2o3w

>  <Rbt.Executable>
rbdock ($Id: //depot/dev/client3/rdock/2013.1/src/exe/rbdock.cxx#4 $)

>  <Rbt.Library>
libRbt.so (2013.1, Build901 2013/11/27)

>  <Rbt.Parameter_File>
/export/apps/rDock/src/rDock_2013.1_src/data/scripts/dock_solv.prm

>  <Rbt.Receptor>
prm/pocket_docking_8.prm

>  <SCORE>
-9.54766

>  <SCORE.INTER>
-1.9421

>  <SCORE.INTER.CONST>
1

>  <SCORE.INTER.POLAR>
0

>  <SCORE.INTER.ROT>
9

>  <SCORE.INTER.SOLV>
10.3165

>  <SCORE.INTER.VDW>
-14.3336

>  <SCORE.INTER.norm>
-0.0462405

>  <SCORE.INTRA>
-7.60556

>  <SCORE.INTRA.DIHEDRAL>
-19.5261

>  <SCORE.INTRA.DIHEDRAL.0>
27.8999

>  <SCORE.INTRA.POLAR>
0

>  <SCORE.INTRA.POLAR.0>
0

>  <SCORE.INTRA.REPUL>
0

>  <SCORE.INTRA.REPUL.0>
0

>  <SCORE.INTRA.SOLV>
-0.293578

>  <SCORE.INTRA.SOLV.lig_0>
-104.479

>  <SCORE.INTRA.VDW>
2.30428

>  <SCORE.INTRA.VDW.0>
-6.17816

>  <SCORE.INTRA.norm>
-0.181085

>  <SCORE.RESTR>
0

>  <SCORE.RESTR.CAVITY>
0

>  <SCORE.RESTR.norm>
0

>  <SCORE.SYSTEM>
0

>  <SCORE.SYSTEM.CONST>
0

>  <SCORE.SYSTEM.DIHEDRAL>
0

>  <SCORE.SYSTEM.SOLV>
0

>  <SCORE.SYSTEM.norm>
0

>  <SCORE.heavy>
42

>  <SCORE.norm>
-0.227325

>  <RMSD>
7.823

$$$$
ligand
 OpenBabel02271912133D
libRbt.so/2013.1/901 2013/11/27
 42 45  0  0  0  0  0  0  0  0999 V2000
    3.1875   -0.1319    4.0871 C   0  0  2  0  0  0  0  0  0  0  0  0
    2.8093    0.3219    2.7763 O   0  0  0  0  0  0  0  0  0  0  0  0
    2.5122    4.2655    0.9997 C   0  0  2  0  0  0  0  0  0  0  0  0
    2.1627    5.6959    0.7505 N   0  0  0  0  0  0  0  0  0  0  0  0
    5.1725    3.2481    4.6145 C   0  0  1  0  0  0  0  0  0  0  0  0
    8.8154    4.4771    6.7385 C   0  0  1  0  0  0  0  0  0  0  0  0
    3.7486   -1.5765    3.9241 C   0  0  2  0  0  0  0  0  0  0  0  0
    4.7613   -1.6711    2.8582 N   0  0  0  0  0  0  0  0  0  0  0  0
    1.2252    3.3464    0.9690 C   0  0  0  0  0  0  0  0  0  0  0  0
    5.3458    3.0617    6.1527 C   0  0  2  0  0  0  0  0  0  0  0  0
    4.6602    4.0597    6.9483 O   0  0  0  0  0  0  0  0  0  0  0  0
    9.3073    3.7019    8.0136 C   0  0  2  0  0  0  0  0  0  0  0  0
    8.5622    4.1472    9.2291 N   0  0  0  0  0  0  0  0  0  0  0  0
    2.6467   -2.5963    3.5824 C   0  0  1  0  0  0  0  0  0  0  0  0
    3.1987   -3.9100    3.4817 O   0  0  0  0  0  0  0  0  0  0  0  0
    1.6595    1.8519    1.2149 C   0  0  2  0  0  0  0  0  0  0  0  0
    0.4726    0.9556    1.1782 N   0  0  0  0  0  0  0  0  0  0  0  0
    6.8699    3.0457    6.2800 C   0  0  2  0  0  0  0  0  0  0  0  0
    7.4060    4.3902    6.4939 O   0  0  0  0  0  0  0  0  0  0  0  0
   10.8840    3.9238    8.1917 C   0  0  1  0  0  0  0  0  0  0  0  0
   11.5808    3.1504    7.1891 O   0  0  0  0  0  0  0  0  0  0  0  0
    1.5344   -2.5320    4.6538 C   0  0  2  0  0  0  0  0  0  0  0  0
    0.5257   -3.4717    4.3645 O   0  0  0  0  0  0  0  0  0  0  0  0
    2.3907    1.7064    2.6077 C   0  0  2  0  0  0  0  0  0  0  0  0
    7.3989    2.4366    4.9706 C   0  0  2  0  0  0  0  0  0  0  0  0
    6.4210    2.8354    4.0130 O   0  0  0  0  0  0  0  0  0  0  0  0
   11.3126    5.4633    8.0745 C   0  0  2  0  0  0  0  0  0  0  0  0
   10.8073    6.1401    9.2247 O   0  0  0  0  0  0  0  0  0  0  0  0
    0.9454   -1.0824    4.6920 C   0  0  2  0  0  0  0  0  0  0  0  0
    2.0124   -0.1254    4.9843 O   0  0  0  0  0  0  0  0  0  0  0  0
    3.6297    2.6201    2.7320 C   0  0  2  0  0  0  0  0  0  0  0  0
    4.0581    2.4966    4.1161 O   0  0  0  0  0  0  0  0  0  0  0  0
    7.5683    0.8857    4.9875 C   0  0  0  0  0  0  0  0  0  0  0  0
    6.2846    0.2731    5.0618 O   0  0  0  0  0  0  0  0  0  0  0  0
   10.7245    6.1057    6.7617 C   0  0  1  0  0  0  0  0  0  0  0  0
    9.2648    5.9199    6.8337 O   0  0  0  0  0  0  0  0  0  0  0  0
   -0.1496   -0.9266    5.7217 C   0  0  0  0  0  0  0  0  0  0  0  0
    0.3202   -1.3105    6.9910 O   0  0  0  0  0  0  0  0  0  0  0  0
    3.2412    4.1206    2.3954 C   0  0  1  0  0  0  0  0  0  0  0  0
    4.4141    4.9384    2.3624 O   0  0  0  0  0  0  0  0  0  0  0  0
   11.0742    7.6465    6.5817 C   0  0  0  0  0  0  0  0  0  0  0  0
   12.5214    7.9635    6.4341 N   0  0  0  0  0  0  0  0  0  0  0  0
  1  2  1  6  0  0  0
  1  7  1  0  0  0  0
  1 30  1  0  0  0  0
  3  4  1  1  0  0  0
  3  9  1  0  0  0  0
  3 39  1  0  0  0  0
  5 10  1  0  0  0  0
  5 26  1  0  0  0  0
  5 32  1  6  0  0  0
  6 12  1  0  0  0  0
  6 36  1  0  0  0  0
  6 19  1  1  0  0  0
  7  8  1  6  0  0  0
  7 14  1  0  0  0  0
  9 16  1  0  0  0  0
 10 11  1  1  0  0  0
 10 18  1  0  0  0  0
 12 13  1  1  0  0  0
 12 20  1  0  0  0  0
 14 15  1  1  0  0  0
 14 22  1  0  0  0  0
 16 17  1  1  0  0  0
 16 24  1  0  0  0  0
 18 19  1  6  0  0  0
 18 25  1  0  0  0  0
 20 21  1  6  0  0  0
 20 27  1  0  0  0  0
 22 23  1  6  0  0  0
 22 29  1  0  0  0  0
 24  2  1  6  0  0  0
 24 31  1  0  0  0  0
 25 26  1  0  0  0  0
 25 33  1  1  0  0  0
 27 28  1  1  0  0  0
 27 35  1  0  0  0  0
 29 30  1  0  0  0  0
 29 37  1  1  0  0  0
 31 32  1  1  0  0  0
 31 39  1  0  0  0  0
 33 34  1  0  0  0  0
 35 36  1  0  0  0  0
 35 41  1  1  0  0  0
 37 38  1  0  0  0  0
 39 40  1  6  0  0  0
 41 42  1  0  0  0  0
M  END
>  <CHROM.1>
-173.08438244,-164.44742954,174.96784100,-60.34879058,67.79561696,55.63864380
-177.98016805,174.06216149,63.38535645,5.31359383,2.26369282,4.88813918,-2.83797633
-0.63206356,-0.50745545

>  <Name>
ligand

>  <RI>
0

>  <Rbt.Current_Directory>
/home/itssahil/PROJECTS/Mol_Feturizer/Test_systems_manuscript/rnas/2o3w

>  <Rbt.Executable>
rbdock ($Id: //depot/dev/client3/rdock/2013.1/src/exe/rbdock.cxx#4 $)

>  <Rbt.Library>
libRbt.so (2013.1, Build901 2013/11/27)

>  <Rbt.Parameter_File>
/export/apps/rDock/src/rDock_2013.1_src/data/scripts/dock_solv.prm

>  <Rbt.Receptor>
prm/pocket_docking_7.prm

>  <SCORE>
-14.5756

>  <SCORE.INTER>
-1.83755

>  <SCORE.INTER.CONST>
1

>  <SCORE.INTER.POLAR>
0

>  <SCORE.INTER.ROT>
9

>  <SCORE.INTER.SOLV>
11.59

>  <SCORE.INTER.VDW>
-14.6884

>  <SCORE.INTER.norm>
-0.0437511

>  <SCORE.INTRA>
-12.7381

>  <SCORE.INTRA.DIHEDRAL>
-25.7676

>  <SCORE.INTRA.DIHEDRAL.0>
27.8999

>  <SCORE.INTRA.POLAR>
0

>  <SCORE.INTRA.POLAR.0>
0

>  <SCORE.INTRA.REPUL>
0

>  <SCORE.INTRA.REPUL.0>
0

>  <SCORE.INTRA.SOLV>
-3.54639

>  <SCORE.INTRA.SOLV.lig_0>
-104.479

>  <SCORE.INTRA.VDW>
1.91888

>  <SCORE.INTRA.VDW.0>
-6.17816

>  <SCORE.INTRA.norm>
-0.303288

>  <SCORE.RESTR>
0

>  <SCORE.RESTR.CAVITY>
0

>  <SCORE.RESTR.norm>
0

>  <SCORE.SYSTEM>
0

>  <SCORE.SYSTEM.CONST>
0

>  <SCORE.SYSTEM.DIHEDRAL>
0

>  <SCORE.SYSTEM.SOLV>
0

>  <SCORE.SYSTEM.norm>
0

>  <SCORE.heavy>
42

>  <SCORE.norm>
-0.347039

>  <RMSD>
7.860

$$$$
ligand
 OpenBabel02271912133D
libRbt.so/2013.1/901 2013/11/27
 42 45  0  0  0  0  0  0  0  0999 V2000
    4.7603    1.6992    1.0110 C   0  0  2  0  0  0  0  0  0  0  0  0
    4.9510    3.1003    1.2715 O   0  0  0  0  0  0  0  0  0  0  0  0
    7.4453    4.0346   -2.1493 C   0  0  2  0  0  0  0  0  0  0  0  0
    8.2188    4.7717   -3.1928 N   0  0  0  0  0  0  0  0  0  0  0  0
    8.8064    4.1368    2.3099 C   0  0  1  0  0  0  0  0  0  0  0  0
   12.1712    3.7924    5.1431 C   0  0  1  0  0  0  0  0  0  0  0  0
    3.7015    1.1863    2.0328 C   0  0  2  0  0  0  0  0  0  0  0  0
    2.4985    2.0359    2.0725 N   0  0  0  0  0  0  0  0  0  0  0  0
    5.8963    4.3327   -2.2656 C   0  0  0  0  0  0  0  0  0  0  0  0
    9.0227    5.1179    3.5021 C   0  0  2  0  0  0  0  0  0  0  0  0
    9.6128    6.3855    3.1226 O   0  0  0  0  0  0  0  0  0  0  0  0
   11.9630    4.2478    6.6325 C   0  0  2  0  0  0  0  0  0  0  0  0
   12.0714    5.7323    6.7565 N   0  0  0  0  0  0  0  0  0  0  0  0
    4.2544    1.1309    3.4689 C   0  0  1  0  0  0  0  0  0  0  0  0
    3.2651    0.6189    4.3633 O   0  0  0  0  0  0  0  0  0  0  0  0
    5.1342    3.5124   -1.1570 C   0  0  2  0  0  0  0  0  0  0  0  0
    3.6695    3.7582   -1.2466 N   0  0  0  0  0  0  0  0  0  0  0  0
    9.8588    4.2553    4.4487 C   0  0  2  0  0  0  0  0  0  0  0  0
   11.2915    4.4166    4.1996 O   0  0  0  0  0  0  0  0  0  0  0  0
   13.0381    3.5123    7.5654 C   0  0  1  0  0  0  0  0  0  0  0  0
   12.6591    2.1252    7.7108 O   0  0  0  0  0  0  0  0  0  0  0  0
    5.5380    0.2702    3.4944 C   0  0  2  0  0  0  0  0  0  0  0  0
    6.0475    0.1957    4.8056 O   0  0  0  0  0  0  0  0  0  0  0  0
    5.6510    3.9080    0.2826 C   0  0  2  0  0  0  0  0  0  0  0  0
    9.4111    2.8038    4.2072 C   0  0  2  0  0  0  0  0  0  0  0  0
    9.0367    2.8080    2.8316 O   0  0  0  0  0  0  0  0  0  0  0  0
   14.5294    3.6026    6.9862 C   0  0  2  0  0  0  0  0  0  0  0  0
   14.9527    4.9610    7.0957 O   0  0  0  0  0  0  0  0  0  0  0  0
    6.5940    0.8994    2.5257 C   0  0  2  0  0  0  0  0  0  0  0  0
    6.0387    0.9747    1.1745 O   0  0  0  0  0  0  0  0  0  0  0  0
    7.1714    3.6961    0.4521 C   0  0  2  0  0  0  0  0  0  0  0  0
    7.4959    4.2760    1.7456 O   0  0  0  0  0  0  0  0  0  0  0  0
    8.2328    2.3200    5.1081 C   0  0  0  0  0  0  0  0  0  0  0  0
    8.6374    2.3592    6.4732 O   0  0  0  0  0  0  0  0  0  0  0  0
   14.5703    3.1383    5.4812 C   0  0  1  0  0  0  0  0  0  0  0  0
   13.6209    4.0038    4.7601 O   0  0  0  0  0  0  0  0  0  0  0  0
    7.8846    0.1144    2.4831 C   0  0  0  0  0  0  0  0  0  0  0  0
    7.6308   -1.2156    2.1011 O   0  0  0  0  0  0  0  0  0  0  0  0
    7.9613    4.4337   -0.7088 C   0  0  1  0  0  0  0  0  0  0  0  0
    9.3534    4.1132   -0.6394 O   0  0  0  0  0  0  0  0  0  0  0  0
   16.0112    3.2281    4.8147 C   0  0  0  0  0  0  0  0  0  0  0  0
   17.0471    2.3342    5.4016 N   0  0  0  0  0  0  0  0  0  0  0  0
  1  2  1  1  0  0  0
  1  7  1  0  0  0  0
  1 30  1  0  0  0  0
  3  4  1  6  0  0  0
  3  9  1  0  0  0  0
  3 39  1  0  0  0  0
  5 10  1  0  0  0  0
  5 26  1  0  0  0  0
  5 32  1  1  0  0  0
  6 12  1  0  0  0  0
  6 36  1  0  0  0  0
  6 19  1  6  0  0  0
  7  8  1  1  0  0  0
  7 14  1  0  0  0  0
  9 16  1  0  0  0  0
 10 11  1  6  0  0  0
 10 18  1  0  0  0  0
 12 13  1  6  0  0  0
 12 20  1  0  0  0  0
 14 15  1  1  0  0  0
 14 22  1  0  0  0  0
 16 17  1  1  0  0  0
 16 24  1  0  0  0  0
 18 19  1  6  0  0  0
 18 25  1  0  0  0  0
 20 21  1  6  0  0  0
 20 27  1  0  0  0  0
 22 23  1  1  0  0  0
 22 29  1  0  0  0  0
 24  2  1  1  0  0  0
 24 31  1  0  0  0  0
 25 26  1  0  0  0  0
 25 33  1  1  0  0  0
 27 28  1  6  0  0  0
 27 35  1  0  0  0  0
 29 30  1  0  0  0  0
 29 37  1  6  0  0  0
 31 32  1  1  0  0  0
 31 39  1  0  0  0  0
 33 34  1  0  0  0  0
 35 36  1  0  0  0  0
 35 41  1  6  0  0  0
 37 38  1  0  0  0  0
 39 40  1  6  0  0  0
 41 42  1  0  0  0  0
M  END
>  <CHROM.1>
-166.14940247,42.90203431,172.01829738,-57.12889926,-62.24537787,57.43745798
173.21516202,165.85656541,64.30393908,8.76962886,3.01285049,3.04360439,2.71306757
-0.40162807,-1.08989027

>  <Name>
ligand

>  <RI>
0

>  <Rbt.Current_Directory>
/home/itssahil/PROJECTS/Mol_Feturizer/Test_systems_manuscript/rnas/2o3w

>  <Rbt.Executable>
rbdock ($Id: //depot/dev/client3/rdock/2013.1/src/exe/rbdock.cxx#4 $)

>  <Rbt.Library>
libRbt.so (2013.1, Build901 2013/11/27)

>  <Rbt.Parameter_File>
/export/apps/rDock/src/rDock_2013.1_src/data/scripts/dock_solv.prm

>  <Rbt.Receptor>
prm/pocket_docking_7.prm

>  <SCORE>
-14.5225

>  <SCORE.INTER>
-2.25512

>  <SCORE.INTER.CONST>
1

>  <SCORE.INTER.POLAR>
0

>  <SCORE.INTER.ROT>
9

>  <SCORE.INTER.SOLV>
16.463

>  <SCORE.INTER.VDW>
-16.5911

>  <SCORE.INTER.norm>
-0.0536933

>  <SCORE.INTRA>
-12.2674

>  <SCORE.INTRA.DIHEDRAL>
-23.882

>  <SCORE.INTRA.DIHEDRAL.0>
27.8999

>  <SCORE.INTRA.POLAR>
0

>  <SCORE.INTRA.POLAR.0>
0

>  <SCORE.INTRA.REPUL>
0

>  <SCORE.INTRA.REPUL.0>
0

>  <SCORE.INTRA.SOLV>
-3.2531

>  <SCORE.INTRA.SOLV.lig_0>
-104.479

>  <SCORE.INTRA.VDW>
1.30016

>  <SCORE.INTRA.VDW.0>
-6.17816

>  <SCORE.INTRA.norm>
-0.292081

>  <SCORE.RESTR>
0

>  <SCORE.RESTR.CAVITY>
0

>  <SCORE.RESTR.norm>
0

>  <SCORE.SYSTEM>
0

>  <SCORE.SYSTEM.CONST>
0

>  <SCORE.SYSTEM.DIHEDRAL>
0

>  <SCORE.SYSTEM.SOLV>
0

>  <SCORE.SYSTEM.norm>
0

>  <SCORE.heavy>
42

>  <SCORE.norm>
-0.345774

>  <RMSD>
7.907

$$$$
ligand
 OpenBabel02271912133D
libRbt.so/2013.1/901 2013/11/27
 42 45  0  0  0  0  0  0  0  0999 V2000
    5.6671    1.8199    2.1180 C   0  0  2  0  0  0  0  0  0  0  0  0
    4.9583    0.5838    2.3098 O   0  0  0  0  0  0  0  0  0  0  0  0
    6.3505   -3.5208    2.4121 C   0  0  2  0  0  0  0  0  0  0  0  0
    6.9766   -4.8252    2.0419 N   0  0  0  0  0  0  0  0  0  0  0  0
    8.8788    0.4055    3.2252 C   0  0  1  0  0  0  0  0  0  0  0  0
   12.1601    2.5659    5.3328 C   0  0  1  0  0  0  0  0  0  0  0  0
    4.8554    2.9286    2.8529 C   0  0  2  0  0  0  0  0  0  0  0  0
    4.5132    2.5537    4.2360 N   0  0  0  0  0  0  0  0  0  0  0  0
    5.1276   -3.1826    1.4677 C   0  0  0  0  0  0  0  0  0  0  0  0
    9.8459    1.4383    2.5703 C   0  0  2  0  0  0  0  0  0  0  0  0
   10.9233    0.8374    1.8106 O   0  0  0  0  0  0  0  0  0  0  0  0
   13.4232    1.9232    6.0111 C   0  0  2  0  0  0  0  0  0  0  0  0
   13.0669    0.6477    6.7017 N   0  0  0  0  0  0  0  0  0  0  0  0
    3.5300    3.2526    2.1392 C   0  0  1  0  0  0  0  0  0  0  0  0
    2.8394    4.2993    2.8236 O   0  0  0  0  0  0  0  0  0  0  0  0
    4.4972   -1.8114    1.9204 C   0  0  2  0  0  0  0  0  0  0  0  0
    3.3324   -1.4685    1.0606 N   0  0  0  0  0  0  0  0  0  0  0  0
   10.2722    2.2597    3.7881 C   0  0  2  0  0  0  0  0  0  0  0  0
   11.4697    1.7043    4.4192 O   0  0  0  0  0  0  0  0  0  0  0  0
   14.0643    2.9735    7.0371 C   0  0  1  0  0  0  0  0  0  0  0  0
   14.7306    4.0131    6.2860 O   0  0  0  0  0  0  0  0  0  0  0  0
    3.8159    3.6327    0.6685 C   0  0  2  0  0  0  0  0  0  0  0  0
    2.6138    3.9486    0.0054 O   0  0  0  0  0  0  0  0  0  0  0  0
    5.5698   -0.6538    1.8462 C   0  0  2  0  0  0  0  0  0  0  0  0
    9.0745    2.2415    4.7527 C   0  0  2  0  0  0  0  0  0  0  0  0
    8.4677    0.9790    4.4874 O   0  0  0  0  0  0  0  0  0  0  0  0
   12.9779    3.6308    8.0144 C   0  0  2  0  0  0  0  0  0  0  0  0
   12.5290    2.6120    8.9072 O   0  0  0  0  0  0  0  0  0  0  0  0
    4.5388    2.4369   -0.0366 C   0  0  2  0  0  0  0  0  0  0  0  0
    5.7774    2.1222    0.6750 O   0  0  0  0  0  0  0  0  0  0  0  0
    6.8222   -0.9420    2.7028 C   0  0  2  0  0  0  0  0  0  0  0  0
    7.7623    0.1173    2.3735 O   0  0  0  0  0  0  0  0  0  0  0  0
    8.0549    3.4063    4.5581 C   0  0  0  0  0  0  0  0  0  0  0  0
    7.0509    3.3259    5.5652 O   0  0  0  0  0  0  0  0  0  0  0  0
   11.7649    4.2066    7.1901 C   0  0  1  0  0  0  0  0  0  0  0  0
   11.2276    3.0780    6.4104 O   0  0  0  0  0  0  0  0  0  0  0  0
    4.8637    2.7257   -1.4840 C   0  0  0  0  0  0  0  0  0  0  0  0
    5.4190    1.5855   -2.0931 O   0  0  0  0  0  0  0  0  0  0  0  0
    7.4242   -2.3625    2.3345 C   0  0  1  0  0  0  0  0  0  0  0  0
    8.4896   -2.6940    3.2293 O   0  0  0  0  0  0  0  0  0  0  0  0
   10.6199    4.8498    8.0866 C   0  0  0  0  0  0  0  0  0  0  0  0
    9.8862    3.9014    8.9691 N   0  0  0  0  0  0  0  0  0  0  0  0
  1  2  1  6  0  0  0
  1  7  1  0  0  0  0
  1 30  1  0  0  0  0
  3  4  1  6  0  0  0
  3  9  1  0  0  0  0
  3 39  1  0  0  0  0
  5 10  1  0  0  0  0
  5 26  1  0  0  0  0
  5 32  1  6  0  0  0
  6 12  1  0  0  0  0
  6 36  1  0  0  0  0
  6 19  1  1  0  0  0
  7  8  1  1  0  0  0
  7 14  1  0  0  0  0
  9 16  1  0  0  0  0
 10 11  1  1  0  0  0
 10 18  1  0  0  0  0
 12 13  1  1  0  0  0
 12 20  1  0  0  0  0
 14 15  1  1  0  0  0
 14 22  1  0  0  0  0
 16 17  1  6  0  0  0
 16 24  1  0  0  0  0
 18 19  1  1  0  0  0
 18 25  1  0  0  0  0
 20 21  1  6  0  0  0
 20 27  1  0  0  0  0
 22 23  1  6  0  0  0
 22 29  1  0  0  0  0
 24  2  1  1  0  0  0
 24 31  1  0  0  0  0
 25 26  1  0  0  0  0
 25 33  1  6  0  0  0
 27 28  1  1  0  0  0
 27 35  1  0  0  0  0
 29 30  1  0  0  0  0
 29 37  1  6  0  0  0
 31 32  1  6  0  0  0
 31 39  1  0  0  0  0
 33 34  1  0  0  0  0
 35 36  1  0  0  0  0
 35 41  1  1  0  0  0
 37 38  1  0  0  0  0
 39 40  1  1  0  0  0
 41 42  1  0  0  0  0
M  END
>  <CHROM.1>
-173.53104756,-169.42765321,164.06888626,178.82171883,-176.05793156,-175.59945919
162.40772223,172.13026427,-65.68922926,8.00704556,1.48779008,3.55727955,2.73477783
0.56282334,-2.82230511

>  <Name>
ligand

>  <RI>
0

>  <Rbt.Current_Directory>
/home/itssahil/PROJECTS/Mol_Feturizer/Test_systems_manuscript/rnas/2o3w

>  <Rbt.Executable>
rbdock ($Id: //depot/dev/client3/rdock/2013.1/src/exe/rbdock.cxx#4 $)

>  <Rbt.Library>
libRbt.so (2013.1, Build901 2013/11/27)

>  <Rbt.Parameter_File>
/export/apps/rDock/src/rDock_2013.1_src/data/scripts/dock_solv.prm

>  <Rbt.Receptor>
prm/pocket_docking_4.prm

>  <SCORE>
-8.89291

>  <SCORE.INTER>
3.44372

>  <SCORE.INTER.CONST>
1

>  <SCORE.INTER.POLAR>
0

>  <SCORE.INTER.ROT>
9

>  <SCORE.INTER.SOLV>
11.9059

>  <SCORE.INTER.VDW>
-11.2728

>  <SCORE.INTER.norm>
0.0819933

>  <SCORE.INTRA>
-12.3366

>  <SCORE.INTRA.DIHEDRAL>
-23.8675

>  <SCORE.INTRA.DIHEDRAL.0>
27.8999

>  <SCORE.INTRA.POLAR>
0

>  <SCORE.INTRA.POLAR.0>
0

>  <SCORE.INTRA.REPUL>
0

>  <SCORE.INTRA.REPUL.0>
0

>  <SCORE.INTRA.SOLV>
-3.09125

>  <SCORE.INTRA.SOLV.lig_0>
-104.479

>  <SCORE.INTRA.VDW>
1.14277

>  <SCORE.INTRA.VDW.0>
-6.17816

>  <SCORE.INTRA.norm>
-0.293729

>  <SCORE.RESTR>
0

>  <SCORE.RESTR.CAVITY>
0

>  <SCORE.RESTR.norm>
0

>  <SCORE.SYSTEM>
0

>  <SCORE.SYSTEM.CONST>
0

>  <SCORE.SYSTEM.DIHEDRAL>
0

>  <SCORE.SYSTEM.SOLV>
0

>  <SCORE.SYSTEM.norm>
0

>  <SCORE.heavy>
42

>  <SCORE.norm>
-0.211736

>  <RMSD>
7.945

$$$$
ligand
 OpenBabel02271912133D
libRbt.so/2013.1/901 2013/11/27
 42 45  0  0  0  0  0  0  0  0999 V2000
    7.4576    3.4240    1.6216 C   0  0  2  0  0  0  0  0  0  0  0  0
    7.8245    3.5086    0.2340 O   0  0  0  0  0  0  0  0  0  0  0  0
    8.3640    6.7868   -2.5514 C   0  0  2  0  0  0  0  0  0  0  0  0
    8.1621    8.0429   -3.3336 N   0  0  0  0  0  0  0  0  0  0  0  0
    9.2124    5.6996    2.3158 C   0  0  1  0  0  0  0  0  0  0  0  0
   12.2391    5.7657    5.5598 C   0  0  1  0  0  0  0  0  0  0  0  0
    8.0200    2.0740    2.1595 C   0  0  2  0  0  0  0  0  0  0  0  0
    9.4416    1.8818    1.8238 N   0  0  0  0  0  0  0  0  0  0  0  0
    7.2436    5.7197   -2.8799 C   0  0  0  0  0  0  0  0  0  0  0  0
   10.5232    6.5429    2.2780 C   0  0  2  0  0  0  0  0  0  0  0  0
   11.5781    5.9567    1.4764 O   0  0  0  0  0  0  0  0  0  0  0  0
   13.1881    4.6007    6.0190 C   0  0  2  0  0  0  0  0  0  0  0  0
   12.4885    3.2830    5.9468 N   0  0  0  0  0  0  0  0  0  0  0  0
    7.2614    0.8587    1.5952 C   0  0  1  0  0  0  0  0  0  0  0  0
    7.7835   -0.3524    2.1445 O   0  0  0  0  0  0  0  0  0  0  0  0
    7.5225    4.4133   -2.0444 C   0  0  2  0  0  0  0  0  0  0  0  0
    6.4934    3.3804   -2.3404 N   0  0  0  0  0  0  0  0  0  0  0  0
   10.8273    6.6864    3.7701 C   0  0  2  0  0  0  0  0  0  0  0  0
   11.6737    5.5954    4.2540 O   0  0  0  0  0  0  0  0  0  0  0  0
   13.7067    4.8963    7.5059 C   0  0  1  0  0  0  0  0  0  0  0  0
   14.6830    5.9608    7.4571 O   0  0  0  0  0  0  0  0  0  0  0  0
    5.7522    1.0090    1.8931 C   0  0  2  0  0  0  0  0  0  0  0  0
    5.0455   -0.1042    1.3974 O   0  0  0  0  0  0  0  0  0  0  0  0
    7.5243    4.7317   -0.4970 C   0  0  2  0  0  0  0  0  0  0  0  0
    9.4642    6.6922    4.4824 C   0  0  2  0  0  0  0  0  0  0  0  0
    8.6586    5.8707    3.6407 O   0  0  0  0  0  0  0  0  0  0  0  0
   12.5237    5.2995    8.5086 C   0  0  2  0  0  0  0  0  0  0  0  0
   11.7241    4.1368    8.7214 O   0  0  0  0  0  0  0  0  0  0  0  0
    5.2316    2.3314    1.2374 C   0  0  2  0  0  0  0  0  0  0  0  0
    5.9864    3.4701    1.7604 O   0  0  0  0  0  0  0  0  0  0  0  0
    8.5588    5.8108   -0.1088 C   0  0  2  0  0  0  0  0  0  0  0  0
    8.2963    6.1056    1.2907 O   0  0  0  0  0  0  0  0  0  0  0  0
    8.8247    8.1031    4.6681 C   0  0  0  0  0  0  0  0  0  0  0  0
    8.5558    8.6698    3.3892 O   0  0  0  0  0  0  0  0  0  0  0  0
   11.6487    6.4588    7.8983 C   0  0  1  0  0  0  0  0  0  0  0  0
   11.1576    5.9615    6.6014 O   0  0  0  0  0  0  0  0  0  0  0  0
    3.7590    2.5628    1.4853 C   0  0  0  0  0  0  0  0  0  0  0  0
    3.3516    3.7719    0.8925 O   0  0  0  0  0  0  0  0  0  0  0  0
    8.3625    7.1062   -1.0027 C   0  0  1  0  0  0  0  0  0  0  0  0
    9.4120    8.0442   -0.7493 O   0  0  0  0  0  0  0  0  0  0  0  0
   10.4272    6.9001    8.8159 C   0  0  0  0  0  0  0  0  0  0  0  0
    9.4312    5.8348    9.1153 N   0  0  0  0  0  0  0  0  0  0  0  0
  1  2  1  6  0  0  0
  1  7  1  0  0  0  0
  1 30  1  0  0  0  0
  3  4  1  6  0  0  0
  3  9  1  0  0  0  0
  3 39  1  0  0  0  0
  5 10  1  0  0  0  0
  5 26  1  0  0  0  0
  5 32  1  6  0  0  0
  6 12  1  0  0  0  0
  6 36  1  0  0  0  0
  6 19  1  6  0  0  0
  7  8  1  6  0  0  0
  7 14  1  0  0  0  0
  9 16  1  0  0  0  0
 10 11  1  6  0  0  0
 10 18  1  0  0  0  0
 12 13  1  1  0  0  0
 12 20  1  0  0  0  0
 14 15  1  1  0  0  0
 14 22  1  0  0  0  0
 16 17  1  1  0  0  0
 16 24  1  0  0  0  0
 18 19  1  1  0  0  0
 18 25  1  0  0  0  0
 20 21  1  6  0  0  0
 20 27  1  0  0  0  0
 22 23  1  6  0  0  0
 22 29  1  0  0  0  0
 24  2  1  1  0  0  0
 24 31  1  0  0  0  0
 25 26  1  0  0  0  0
 25 33  1  6  0  0  0
 27 28  1  6  0  0  0
 27 35  1  0  0  0  0
 29 30  1  0  0  0  0
 29 37  1  1  0  0  0
 31 32  1  1  0  0  0
 31 39  1  0  0  0  0
 33 34  1  0  0  0  0
 35 36  1  0  0  0  0
 35 41  1  1  0  0  0
 37 38  1  0  0  0  0
 39 40  1  6  0  0  0
 41 42  1  0  0  0  0
M  END
>  <CHROM.1>
-174.74956507,-159.63844302,167.96874956,-177.61684728,63.16207450,179.10174384
109.39084739,71.38334563,-60.27963246,9.02093099,4.84249480,2.78839135,2.61220203
-0.85171749,-0.89375997

>  <Name>
ligand

>  <RI>
0

>  <Rbt.Current_Directory>
/home/itssahil/PROJECTS/Mol_Feturizer/Test_systems_manuscript/rnas/2o3w

>  <Rbt.Executable>
rbdock ($Id: //depot/dev/client3/rdock/2013.1/src/exe/rbdock.cxx#4 $)

>  <Rbt.Library>
libRbt.so (2013.1, Build901 2013/11/27)

>  <Rbt.Parameter_File>
/export/apps/rDock/src/rDock_2013.1_src/data/scripts/dock_solv.prm

>  <Rbt.Receptor>
prm/pocket_docking_8.prm

>  <SCORE>
-9.80684

>  <SCORE.INTER>
-0.813747

>  <SCORE.INTER.CONST>
1

>  <SCORE.INTER.POLAR>
0

>  <SCORE.INTER.ROT>
9

>  <SCORE.INTER.SOLV>
18.3889

>  <SCORE.INTER.VDW>
-16.2721

>  <SCORE.INTER.norm>
-0.0193749

>  <SCORE.INTRA>
-8.99309

>  <SCORE.INTRA.DIHEDRAL>
-17.7478

>  <SCORE.INTRA.DIHEDRAL.0>
27.8999

>  <SCORE.INTRA.POLAR>
0

>  <SCORE.INTRA.POLAR.0>
0

>  <SCORE.INTRA.REPUL>
0

>  <SCORE.INTRA.REPUL.0>
0

>  <SCORE.INTRA.SOLV>
-3.08733

>  <SCORE.INTRA.SOLV.lig_0>
-104.479

>  <SCORE.INTRA.VDW>
1.42449

>  <SCORE.INTRA.VDW.0>
-6.17816

>  <SCORE.INTRA.norm>
-0.214121

>  <SCORE.RESTR>
0

>  <SCORE.RESTR.CAVITY>
0

>  <SCORE.RESTR.norm>
0

>  <SCORE.SYSTEM>
0

>  <SCORE.SYSTEM.CONST>
0

>  <SCORE.SYSTEM.DIHEDRAL>
0

>  <SCORE.SYSTEM.SOLV>
0

>  <SCORE.SYSTEM.norm>
0

>  <SCORE.heavy>
42

>  <SCORE.norm>
-0.233496

>  <RMSD>
7.950

$$$$
ligand
 OpenBabel02271912133D
libRbt.so/2013.1/901 2013/11/27
 42 45  0  0  0  0  0  0  0  0999 V2000
    3.9579    1.9976    0.2875 C   0  0  2  0  0  0  0  0  0  0  0  0
    4.9975    2.1214    1.2729 O   0  0  0  0  0  0  0  0  0  0  0  0
    3.9479   -1.3505    3.6478 C   0  0  2  0  0  0  0  0  0  0  0  0
    3.9380   -2.4092    4.7011 N   0  0  0  0  0  0  0  0  0  0  0  0
    5.0634    2.7583    4.8682 C   0  0  1  0  0  0  0  0  0  0  0  0
    9.2000    3.0280    5.8875 C   0  0  1  0  0  0  0  0  0  0  0  0
    4.1982    3.1161   -0.7706 C   0  0  2  0  0  0  0  0  0  0  0  0
    5.5890    3.1437   -1.2558 N   0  0  0  0  0  0  0  0  0  0  0  0
    5.2563   -1.4332    2.7630 C   0  0  0  0  0  0  0  0  0  0  0  0
    6.4508    2.9229    4.1762 C   0  0  2  0  0  0  0  0  0  0  0  0
    7.1940    1.6862    4.0444 O   0  0  0  0  0  0  0  0  0  0  0  0
    9.9592    2.3684    7.0947 C   0  0  2  0  0  0  0  0  0  0  0  0
    9.9213    3.2541    8.2968 N   0  0  0  0  0  0  0  0  0  0  0  0
    3.8925    4.5199   -0.2166 C   0  0  1  0  0  0  0  0  0  0  0  0
    4.0878    5.5078   -1.2298 O   0  0  0  0  0  0  0  0  0  0  0  0
    5.1982   -0.3098    1.6598 C   0  0  2  0  0  0  0  0  0  0  0  0
    6.4096   -0.3678    0.7979 N   0  0  0  0  0  0  0  0  0  0  0  0
    7.0970    3.9933    5.0571 C   0  0  2  0  0  0  0  0  0  0  0  0
    7.8440    3.3986    6.1658 O   0  0  0  0  0  0  0  0  0  0  0  0
   11.4685    2.0515    6.6606 C   0  0  1  0  0  0  0  0  0  0  0  0
   11.4685    0.9186    5.7632 O   0  0  0  0  0  0  0  0  0  0  0  0
    2.4486    4.5538    0.3339 C   0  0  2  0  0  0  0  0  0  0  0  0
    2.1473    5.8374    0.8298 O   0  0  0  0  0  0  0  0  0  0  0  0
    5.0888    1.1189    2.3250 C   0  0  2  0  0  0  0  0  0  0  0  0
    5.9448    4.8733    5.5700 C   0  0  2  0  0  0  0  0  0  0  0  0
    4.8518    3.9609    5.6429 O   0  0  0  0  0  0  0  0  0  0  0  0
   12.1863    3.2966    5.9519 C   0  0  2  0  0  0  0  0  0  0  0  0
   12.3901    4.2996    6.9462 O   0  0  0  0  0  0  0  0  0  0  0  0
    2.3068    3.4779    1.4617 C   0  0  2  0  0  0  0  0  0  0  0  0
    2.6336    2.1569    0.9252 O   0  0  0  0  0  0  0  0  0  0  0  0
    3.8606    1.2557    3.2514 C   0  0  2  0  0  0  0  0  0  0  0  0
    4.0199    2.5427    3.9093 O   0  0  0  0  0  0  0  0  0  0  0  0
    5.5964    6.0952    4.6645 C   0  0  0  0  0  0  0  0  0  0  0  0
    4.4606    6.7682    5.1990 O   0  0  0  0  0  0  0  0  0  0  0  0
   11.2936    3.8611    4.7828 C   0  0  1  0  0  0  0  0  0  0  0  0
    9.9990    4.2144    5.3905 O   0  0  0  0  0  0  0  0  0  0  0  0
    0.9175    3.4370    2.0549 C   0  0  0  0  0  0  0  0  0  0  0  0
   -0.0179    3.0608    1.0737 O   0  0  0  0  0  0  0  0  0  0  0  0
    3.8415    0.0792    4.3150 C   0  0  1  0  0  0  0  0  0  0  0  0
    2.6289    0.1185    5.0724 O   0  0  0  0  0  0  0  0  0  0  0  0
   11.9168    5.1237    4.0439 C   0  0  0  0  0  0  0  0  0  0  0  0
   11.9874    6.3713    4.8533 N   0  0  0  0  0  0  0  0  0  0  0  0
  1  2  1  1  0  0  0
  1  7  1  0  0  0  0
  1 30  1  0  0  0  0
  3  4  1  1  0  0  0
  3  9  1  0  0  0  0
  3 39  1  0  0  0  0
  5 10  1  0  0  0  0
  5 26  1  0  0  0  0
  5 32  1  6  0  0  0
  6 12  1  0  0  0  0
  6 36  1  0  0  0  0
  6 19  1  1  0  0  0
  7  8  1  1  0  0  0
  7 14  1  0  0  0  0
  9 16  1  0  0  0  0
 10 11  1  1  0  0  0
 10 18  1  0  0  0  0
 12 13  1  1  0  0  0
 12 20  1  0  0  0  0
 14 15  1  6  0  0  0
 14 22  1  0  0  0  0
 16 17  1  1  0  0  0
 16 24  1  0  0  0  0
 18 19  1  1  0  0  0
 18 25  1  0  0  0  0
 20 21  1  6  0  0  0
 20 27  1  0  0  0  0
 22 23  1  1  0  0  0
 22 29  1  0  0  0  0
 24  2  1  6  0  0  0
 24 31  1  0  0  0  0
 25 26  1  0  0  0  0
 25 33  1  6  0  0  0
 27 28  1  1  0  0  0
 27 35  1  0  0  0  0
 29 30  1  0  0  0  0
 29 37  1  6  0  0  0
 31 32  1  1  0  0  0
 31 39  1  0  0  0  0
 33 34  1  0  0  0  0
 35 36  1  0  0  0  0
 35 41  1  1  0  0  0
 37 38  1  0  0  0  0
 39 40  1  6  0  0  0
 41 42  1  0  0  0  0
M  END
>  <CHROM.1>
-174.53371537,55.35150674,86.20549622,-178.89221606,175.96305589,63.16608641
-68.74529373,75.54593640,-68.22635864,6.10896112,2.82972847,3.53668757,-3.06619979
0.55041907,2.80716046

>  <Name>
ligand

>  <RI>
0

>  <Rbt.Current_Directory>
/home/itssahil/PROJECTS/Mol_Feturizer/Test_systems_manuscript/rnas/2o3w

>  <Rbt.Executable>
rbdock ($Id: //depot/dev/client3/rdock/2013.1/src/exe/rbdock.cxx#4 $)

>  <Rbt.Library>
libRbt.so (2013.1, Build901 2013/11/27)

>  <Rbt.Parameter_File>
/export/apps/rDock/src/rDock_2013.1_src/data/scripts/dock_solv.prm

>  <Rbt.Receptor>
prm/pocket_docking_7.prm

>  <SCORE>
-9.39534

>  <SCORE.INTER>
0.658606

>  <SCORE.INTER.CONST>
1

>  <SCORE.INTER.POLAR>
0

>  <SCORE.INTER.ROT>
9

>  <SCORE.INTER.SOLV>
14.0612

>  <SCORE.INTER.VDW>
-13.848

>  <SCORE.INTER.norm>
0.0156811

>  <SCORE.INTRA>
-10.0539

>  <SCORE.INTRA.DIHEDRAL>
-22.7736

>  <SCORE.INTRA.DIHEDRAL.0>
27.8999

>  <SCORE.INTRA.POLAR>
0

>  <SCORE.INTRA.POLAR.0>
0

>  <SCORE.INTRA.REPUL>
0

>  <SCORE.INTRA.REPUL.0>
0

>  <SCORE.INTRA.SOLV>
-2.72013

>  <SCORE.INTRA.SOLV.lig_0>
-104.479

>  <SCORE.INTRA.VDW>
2.6929

>  <SCORE.INTRA.VDW.0>
-6.17816

>  <SCORE.INTRA.norm>
-0.23938

>  <SCORE.RESTR>
0

>  <SCORE.RESTR.CAVITY>
0

>  <SCORE.RESTR.norm>
0

>  <SCORE.SYSTEM>
0

>  <SCORE.SYSTEM.CONST>
0

>  <SCORE.SYSTEM.DIHEDRAL>
0

>  <SCORE.SYSTEM.SOLV>
0

>  <SCORE.SYSTEM.norm>
0

>  <SCORE.heavy>
42

>  <SCORE.norm>
-0.223699

>  <RMSD>
7.969

$$$$
ligand
 OpenBabel02271912133D
libRbt.so/2013.1/901 2013/11/27
 42 45  0  0  0  0  0  0  0  0999 V2000
    8.5645    3.3083    1.0374 C   0  0  2  0  0  0  0  0  0  0  0  0
    9.4367    3.7993    2.0696 O   0  0  0  0  0  0  0  0  0  0  0  0
   11.5890    1.6401    5.1520 C   0  0  2  0  0  0  0  0  0  0  0  0
   11.9159    0.7895    6.3352 N   0  0  0  0  0  0  0  0  0  0  0  0
    8.3108    0.1887    2.6464 C   0  0  1  0  0  0  0  0  0  0  0  0
    4.6009   -1.4806    3.8977 C   0  0  1  0  0  0  0  0  0  0  0  0
    8.6749    4.2984   -0.1608 C   0  0  2  0  0  0  0  0  0  0  0  0
   10.0724    4.5784   -0.5339 N   0  0  0  0  0  0  0  0  0  0  0  0
   10.7984    2.9411    5.5813 C   0  0  0  0  0  0  0  0  0  0  0  0
    7.3441    1.0925    3.4706 C   0  0  2  0  0  0  0  0  0  0  0  0
    7.7078    1.2250    4.8668 O   0  0  0  0  0  0  0  0  0  0  0  0
    3.2005   -0.7684    3.8752 C   0  0  2  0  0  0  0  0  0  0  0  0
    2.9449   -0.0535    5.1614 N   0  0  0  0  0  0  0  0  0  0  0  0
    8.0145    5.6564    0.1406 C   0  0  1  0  0  0  0  0  0  0  0  0
    8.1043    6.5164   -0.9965 O   0  0  0  0  0  0  0  0  0  0  0  0
   10.5030    3.8055    4.2975 C   0  0  2  0  0  0  0  0  0  0  0  0
    9.7713    5.0472    4.6670 N   0  0  0  0  0  0  0  0  0  0  0  0
    5.9998    0.4159    3.1977 C   0  0  2  0  0  0  0  0  0  0  0  0
    5.7054   -0.6163    4.1920 O   0  0  0  0  0  0  0  0  0  0  0  0
    2.0595   -1.8548    3.5840 C   0  0  1  0  0  0  0  0  0  0  0  0
    2.1257   -2.2404    2.1926 O   0  0  0  0  0  0  0  0  0  0  0  0
    6.5449    5.4323    0.5641 C   0  0  2  0  0  0  0  0  0  0  0  0
    5.9211    6.6676    0.8275 O   0  0  0  0  0  0  0  0  0  0  0  0
    9.6522    2.9796    3.2536 C   0  0  2  0  0  0  0  0  0  0  0  0
    6.1057   -0.1845    1.7858 C   0  0  2  0  0  0  0  0  0  0  0  0
    7.4915   -0.5003    1.6742 O   0  0  0  0  0  0  0  0  0  0  0  0
    2.1904   -3.1573    4.5080 C   0  0  2  0  0  0  0  0  0  0  0  0
    1.8698   -2.7719    5.8440 O   0  0  0  0  0  0  0  0  0  0  0  0
    6.5132    4.5152    1.8320 C   0  0  2  0  0  0  0  0  0  0  0  0
    7.1744    3.2443    1.5365 O   0  0  0  0  0  0  0  0  0  0  0  0
   10.3387    1.6627    2.8296 C   0  0  2  0  0  0  0  0  0  0  0  0
    9.3509    0.9577    2.0285 O   0  0  0  0  0  0  0  0  0  0  0  0
    5.6512    0.7624    0.6321 C   0  0  0  0  0  0  0  0  0  0  0  0
    5.5829    0.0235   -0.5837 O   0  0  0  0  0  0  0  0  0  0  0  0
    3.6532   -3.7390    4.4445 C   0  0  1  0  0  0  0  0  0  0  0  0
    4.5470   -2.6455    4.8636 O   0  0  0  0  0  0  0  0  0  0  0  0
    5.1080    4.2373    2.3137 C   0  0  0  0  0  0  0  0  0  0  0  0
    4.3719    3.5821    1.3096 O   0  0  0  0  0  0  0  0  0  0  0  0
   10.7347    0.8134    4.1093 C   0  0  1  0  0  0  0  0  0  0  0  0
   11.5029   -0.3300    3.7243 O   0  0  0  0  0  0  0  0  0  0  0  0
    3.8820   -5.0179    5.3614 C   0  0  0  0  0  0  0  0  0  0  0  0
    3.4266   -6.3122    4.7836 N   0  0  0  0  0  0  0  0  0  0  0  0
  1  2  1  1  0  0  0
  1  7  1  0  0  0  0
  1 30  1  0  0  0  0
  3  4  1  1  0  0  0
  3  9  1  0  0  0  0
  3 39  1  0  0  0  0
  5 10  1  0  0  0  0
  5 26  1  0  0  0  0
  5 32  1  6  0  0  0
  6 12  1  0  0  0  0
  6 36  1  0  0  0  0
  6 19  1  1  0  0  0
  7  8  1  1  0  0  0
  7 14  1  0  0  0  0
  9 16  1  0  0  0  0
 10 11  1  1  0  0  0
 10 18  1  0  0  0  0
 12 13  1  1  0  0  0
 12 20  1  0  0  0  0
 14 15  1  6  0  0  0
 14 22  1  0  0  0  0
 16 17  1  1  0  0  0
 16 24  1  0  0  0  0
 18 19  1  1  0  0  0
 18 25  1  0  0  0  0
 20 21  1  6  0  0  0
 20 27  1  0  0  0  0
 22 23  1  1  0  0  0
 22 29  1  0  0  0  0
 24  2  1  6  0  0  0
 24 31  1  0  0  0  0
 25 26  1  0  0  0  0
 25 33  1  6  0  0  0
 27 28  1  1  0  0  0
 27 35  1  0  0  0  0
 29 30  1  0  0  0  0
 29 37  1  6  0  0  0
 31 32  1  6  0  0  0
 31 39  1  0  0  0  0
 33 34  1  0  0  0  0
 35 36  1  0  0  0  0
 35 41  1  1  0  0  0
 37 38  1  0  0  0  0
 39 40  1  6  0  0  0
 41 42  1  0  0  0  0
M  END
>  <CHROM.1>
-172.88633810,-173.48497486,-168.79390240,-65.84996228,-170.29172756,60.45579773
-81.73682896,64.74382483,81.41375246,6.85769790,1.15294794,2.88970741,0.88298597
-0.33192422,-0.60002256

>  <Name>
ligand

>  <RI>
0

>  <Rbt.Current_Directory>
/home/itssahil/PROJECTS/Mol_Feturizer/Test_systems_manuscript/rnas/2o3w

>  <Rbt.Executable>
rbdock ($Id: //depot/dev/client3/rdock/2013.1/src/exe/rbdock.cxx#4 $)

>  <Rbt.Library>
libRbt.so (2013.1, Build901 2013/11/27)

>  <Rbt.Parameter_File>
/export/apps/rDock/src/rDock_2013.1_src/data/scripts/dock_solv.prm

>  <Rbt.Receptor>
prm/pocket_docking_4.prm

>  <SCORE>
-8.77196

>  <SCORE.INTER>
2.80141

>  <SCORE.INTER.CONST>
1

>  <SCORE.INTER.POLAR>
0

>  <SCORE.INTER.ROT>
9

>  <SCORE.INTER.SOLV>
18.0721

>  <SCORE.INTER.VDW>
-13.7564

>  <SCORE.INTER.norm>
0.0667003

>  <SCORE.INTRA>
-11.5734

>  <SCORE.INTRA.DIHEDRAL>
-22.516

>  <SCORE.INTRA.DIHEDRAL.0>
27.8999

>  <SCORE.INTRA.POLAR>
0

>  <SCORE.INTRA.POLAR.0>
0

>  <SCORE.INTRA.REPUL>
0

>  <SCORE.INTRA.REPUL.0>
0

>  <SCORE.INTRA.SOLV>
-4.28318

>  <SCORE.INTRA.SOLV.lig_0>
-104.479

>  <SCORE.INTRA.VDW>
1.82621

>  <SCORE.INTRA.VDW.0>
-6.17816

>  <SCORE.INTRA.norm>
-0.275556

>  <SCORE.RESTR>
0

>  <SCORE.RESTR.CAVITY>
0

>  <SCORE.RESTR.norm>
0

>  <SCORE.SYSTEM>
0

>  <SCORE.SYSTEM.CONST>
0

>  <SCORE.SYSTEM.DIHEDRAL>
0

>  <SCORE.SYSTEM.SOLV>
0

>  <SCORE.SYSTEM.norm>
0

>  <SCORE.heavy>
42

>  <SCORE.norm>
-0.208856

>  <RMSD>
8.005

$$$$
ligand
 OpenBabel02271912133D
libRbt.so/2013.1/901 2013/11/27
 42 45  0  0  0  0  0  0  0  0999 V2000
   10.0431    5.8155    3.2003 C   0  0  2  0  0  0  0  0  0  0  0  0
    8.9796    4.9894    3.7041 O   0  0  0  0  0  0  0  0  0  0  0  0
   11.3915    1.5479    4.7696 C   0  0  2  0  0  0  0  0  0  0  0  0
   11.8217    0.1952    5.2337 N   0  0  0  0  0  0  0  0  0  0  0  0
    7.6880    1.7132    2.4077 C   0  0  1  0  0  0  0  0  0  0  0  0
    6.0379   -0.5424    3.4125 C   0  0  1  0  0  0  0  0  0  0  0  0
    9.4918    7.2711    3.1248 C   0  0  2  0  0  0  0  0  0  0  0  0
    8.8438    7.6942    4.3784 N   0  0  0  0  0  0  0  0  0  0  0  0
   10.7300    2.3744    5.9449 C   0  0  0  0  0  0  0  0  0  0  0  0
    6.6485    2.3195    3.3989 C   0  0  2  0  0  0  0  0  0  0  0  0
    6.9223    2.0277    4.7914 O   0  0  0  0  0  0  0  0  0  0  0  0
    6.1345   -1.3098    2.0448 C   0  0  2  0  0  0  0  0  0  0  0  0
    4.8201   -1.9189    1.6809 N   0  0  0  0  0  0  0  0  0  0  0  0
    8.4492    7.4437    2.0049 C   0  0  1  0  0  0  0  0  0  0  0  0
    8.0016    8.7991    1.9467 O   0  0  0  0  0  0  0  0  0  0  0  0
   10.3190    3.7950    5.4013 C   0  0  2  0  0  0  0  0  0  0  0  0
    9.7053    4.6067    6.4867 N   0  0  0  0  0  0  0  0  0  0  0  0
    5.3423    1.7466    2.8466 C   0  0  2  0  0  0  0  0  0  0  0  0
    5.0156    0.4606    3.4633 O   0  0  0  0  0  0  0  0  0  0  0  0
    7.2784   -2.4271    2.1451 C   0  0  1  0  0  0  0  0  0  0  0  0
    8.5693   -1.7777    2.1176 O   0  0  0  0  0  0  0  0  0  0  0  0
    9.0594    6.9924    0.6584 C   0  0  2  0  0  0  0  0  0  0  0  0
    8.1226    7.1600   -0.3804 O   0  0  0  0  0  0  0  0  0  0  0  0
    9.3011    3.6589    4.2008 C   0  0  2  0  0  0  0  0  0  0  0  0
    5.5507    1.6004    1.3299 C   0  0  2  0  0  0  0  0  0  0  0  0
    6.9488    1.3432    1.2212 O   0  0  0  0  0  0  0  0  0  0  0  0
    7.1577   -3.3240    3.4674 C   0  0  2  0  0  0  0  0  0  0  0  0
    5.9912   -4.1350    3.3330 O   0  0  0  0  0  0  0  0  0  0  0  0
    9.4964    5.4939    0.7725 C   0  0  2  0  0  0  0  0  0  0  0  0
   10.4604    5.3443    1.8625 O   0  0  0  0  0  0  0  0  0  0  0  0
    9.8593    2.8134    3.0352 C   0  0  2  0  0  0  0  0  0  0  0  0
    8.7428    2.6404    2.1198 O   0  0  0  0  0  0  0  0  0  0  0  0
    5.1422    2.8476    0.4861 C   0  0  0  0  0  0  0  0  0  0  0  0
    5.3353    2.5641   -0.8963 O   0  0  0  0  0  0  0  0  0  0  0  0
    7.0442   -2.4135    4.7481 C   0  0  1  0  0  0  0  0  0  0  0  0
    5.8717   -1.5481    4.5324 O   0  0  0  0  0  0  0  0  0  0  0  0
   10.1127    4.9691   -0.5036 C   0  0  0  0  0  0  0  0  0  0  0  0
   10.2898    3.5760   -0.4194 O   0  0  0  0  0  0  0  0  0  0  0  0
   10.3702    1.4103    3.5702 C   0  0  1  0  0  0  0  0  0  0  0  0
   11.0233    0.6903    2.5211 O   0  0  0  0  0  0  0  0  0  0  0  0
    6.8863   -3.2242    6.1070 C   0  0  0  0  0  0  0  0  0  0  0  0
    8.0797   -4.0074    6.5300 N   0  0  0  0  0  0  0  0  0  0  0  0
  1  2  1  6  0  0  0
  1  7  1  0  0  0  0
  1 30  1  0  0  0  0
  3  4  1  1  0  0  0
  3  9  1  0  0  0  0
  3 39  1  0  0  0  0
  5 10  1  0  0  0  0
  5 26  1  0  0  0  0
  5 32  1  6  0  0  0
  6 12  1  0  0  0  0
  6 36  1  0  0  0  0
  6 19  1  6  0  0  0
  7  8  1  1  0  0  0
  7 14  1  0  0  0  0
  9 16  1  0  0  0  0
 10 11  1  1  0  0  0
 10 18  1  0  0  0  0
 12 13  1  1  0  0  0
 12 20  1  0  0  0  0
 14 15  1  6  0  0  0
 14 22  1  0  0  0  0
 16 17  1  1  0  0  0
 16 24  1  0  0  0  0
 18 19  1  1  0  0  0
 18 25  1  0  0  0  0
 20 21  1  1  0  0  0
 20 27  1  0  0  0  0
 22 23  1  6  0  0  0
 22 29  1  0  0  0  0
 24  2  1  6  0  0  0
 24 31  1  0  0  0  0
 25 26  1  0  0  0  0
 25 33  1  6  0  0  0
 27 28  1  6  0  0  0
 27 35  1  0  0  0  0
 29 30  1  0  0  0  0
 29 37  1  6  0  0  0
 31 32  1  6  0  0  0
 31 39  1  0  0  0  0
 33 34  1  0  0  0  0
 35 36  1  0  0  0  0
 35 41  1  1  0  0  0
 37 38  1  0  0  0  0
 39 40  1  6  0  0  0
 41 42  1  0  0  0  0
M  END
>  <CHROM.1>
-164.42391202,59.97686420,-53.50672442,-80.47584489,-177.78272258,-170.67242446
-76.08532250,81.08426059,68.16380052,8.15252057,2.12816952,2.88543879,-1.20059835
0.75776856,2.67126530

>  <Name>
ligand

>  <RI>
0

>  <Rbt.Current_Directory>
/home/itssahil/PROJECTS/Mol_Feturizer/Test_systems_manuscript/rnas/2o3w

>  <Rbt.Executable>
rbdock ($Id: //depot/dev/client3/rdock/2013.1/src/exe/rbdock.cxx#4 $)

>  <Rbt.Library>
libRbt.so (2013.1, Build901 2013/11/27)

>  <Rbt.Parameter_File>
/export/apps/rDock/src/rDock_2013.1_src/data/scripts/dock_solv.prm

>  <Rbt.Receptor>
prm/pocket_docking_4.prm

>  <SCORE>
-10.6069

>  <SCORE.INTER>
-1.3409

>  <SCORE.INTER.CONST>
1

>  <SCORE.INTER.POLAR>
0

>  <SCORE.INTER.ROT>
9

>  <SCORE.INTER.SOLV>
11.5165

>  <SCORE.INTER.VDW>
-14.3328

>  <SCORE.INTER.norm>
-0.0319262

>  <SCORE.INTRA>
-9.266

>  <SCORE.INTRA.DIHEDRAL>
-20.815

>  <SCORE.INTRA.DIHEDRAL.0>
27.8999

>  <SCORE.INTRA.POLAR>
0

>  <SCORE.INTRA.POLAR.0>
0

>  <SCORE.INTRA.REPUL>
0

>  <SCORE.INTRA.REPUL.0>
0

>  <SCORE.INTRA.SOLV>
-1.83251

>  <SCORE.INTRA.SOLV.lig_0>
-104.479

>  <SCORE.INTRA.VDW>
2.05776

>  <SCORE.INTRA.VDW.0>
-6.17816

>  <SCORE.INTRA.norm>
-0.220619

>  <SCORE.RESTR>
0

>  <SCORE.RESTR.CAVITY>
0

>  <SCORE.RESTR.norm>
0

>  <SCORE.SYSTEM>
0

>  <SCORE.SYSTEM.CONST>
0

>  <SCORE.SYSTEM.DIHEDRAL>
0

>  <SCORE.SYSTEM.SOLV>
0

>  <SCORE.SYSTEM.norm>
0

>  <SCORE.heavy>
42

>  <SCORE.norm>
-0.252545

>  <RMSD>
8.068

$$$$
ligand
 OpenBabel02271912133D
libRbt.so/2013.1/901 2013/11/27
 42 45  0  0  0  0  0  0  0  0999 V2000
    8.4943    6.3724    0.6176 C   0  0  2  0  0  0  0  0  0  0  0  0
    7.5475    6.1829   -0.4478 O   0  0  0  0  0  0  0  0  0  0  0  0
    5.8775   10.1838   -0.4499 C   0  0  2  0  0  0  0  0  0  0  0  0
    5.0168   11.3709   -0.7334 N   0  0  0  0  0  0  0  0  0  0  0  0
    3.8648    6.2671   -0.1467 C   0  0  1  0  0  0  0  0  0  0  0  0
    1.5142    6.3654   -1.9734 C   0  0  1  0  0  0  0  0  0  0  0  0
    9.4114    5.1128    0.6407 C   0  0  2  0  0  0  0  0  0  0  0  0
    9.9495    4.7827   -0.6905 N   0  0  0  0  0  0  0  0  0  0  0  0
    6.6415    9.7053   -1.7496 C   0  0  0  0  0  0  0  0  0  0  0  0
    4.3313    5.6451   -1.4981 C   0  0  2  0  0  0  0  0  0  0  0  0
    4.5357    6.6156   -2.5542 O   0  0  0  0  0  0  0  0  0  0  0  0
    0.4846    6.0930   -0.8183 C   0  0  2  0  0  0  0  0  0  0  0  0
   -0.5780    5.1425   -1.2639 N   0  0  0  0  0  0  0  0  0  0  0  0
    8.6710    3.8601    1.1443 C   0  0  1  0  0  0  0  0  0  0  0  0
    9.5584    2.7413    1.1865 O   0  0  0  0  0  0  0  0  0  0  0  0
    7.5468    8.4689   -1.3832 C   0  0  2  0  0  0  0  0  0  0  0  0
    8.2930    8.0006   -2.5822 N   0  0  0  0  0  0  0  0  0  0  0  0
    3.2273    4.6166   -1.7484 C   0  0  2  0  0  0  0  0  0  0  0  0
    2.1235    5.1890   -2.5197 O   0  0  0  0  0  0  0  0  0  0  0  0
   -0.1512    7.4830   -0.3380 C   0  0  1  0  0  0  0  0  0  0  0  0
    0.8379    8.2105    0.4243 O   0  0  0  0  0  0  0  0  0  0  0  0
    8.0582    4.1472    2.5339 C   0  0  2  0  0  0  0  0  0  0  0  0
    7.3908    3.0044    3.0165 O   0  0  0  0  0  0  0  0  0  0  0  0
    6.6696    7.2868   -0.8097 C   0  0  2  0  0  0  0  0  0  0  0  0
    2.7556    4.1536   -0.3597 C   0  0  2  0  0  0  0  0  0  0  0  0
    2.9627    5.3079    0.4510 O   0  0  0  0  0  0  0  0  0  0  0  0
   -0.6602    8.3886   -1.5580 C   0  0  2  0  0  0  0  0  0  0  0  0
   -1.8005    7.7453   -2.1258 O   0  0  0  0  0  0  0  0  0  0  0  0
    7.0708    5.3559    2.4166 C   0  0  2  0  0  0  0  0  0  0  0  0
    7.7843    6.5261    1.9052 O   0  0  0  0  0  0  0  0  0  0  0  0
    5.8486    7.6982    0.4321 C   0  0  2  0  0  0  0  0  0  0  0  0
    4.9775    6.5666    0.7061 O   0  0  0  0  0  0  0  0  0  0  0  0
    3.5167    2.9194    0.2162 C   0  0  0  0  0  0  0  0  0  0  0  0
    2.9728    2.5834    1.4891 O   0  0  0  0  0  0  0  0  0  0  0  0
    0.4719    8.5481   -2.6420 C   0  0  1  0  0  0  0  0  0  0  0  0
    0.8386    7.1823   -3.0547 O   0  0  0  0  0  0  0  0  0  0  0  0
    6.4274    5.7115    3.7370 C   0  0  0  0  0  0  0  0  0  0  0  0
    5.5758    4.6732    4.1566 O   0  0  0  0  0  0  0  0  0  0  0  0
    4.9979    9.0002    0.1211 C   0  0  1  0  0  0  0  0  0  0  0  0
    4.3575    9.4672    1.3116 O   0  0  0  0  0  0  0  0  0  0  0  0
    0.0397    9.4076   -3.9082 C   0  0  0  0  0  0  0  0  0  0  0  0
   -0.2765   10.8369   -3.6367 N   0  0  0  0  0  0  0  0  0  0  0  0
  1  2  1  6  0  0  0
  1  7  1  0  0  0  0
  1 30  1  0  0  0  0
  3  4  1  6  0  0  0
  3  9  1  0  0  0  0
  3 39  1  0  0  0  0
  5 10  1  0  0  0  0
  5 26  1  0  0  0  0
  5 32  1  1  0  0  0
  6 12  1  0  0  0  0
  6 36  1  0  0  0  0
  6 19  1  6  0  0  0
  7  8  1  6  0  0  0
  7 14  1  0  0  0  0
  9 16  1  0  0  0  0
 10 11  1  6  0  0  0
 10 18  1  0  0  0  0
 12 13  1  6  0  0  0
 12 20  1  0  0  0  0
 14 15  1  1  0  0  0
 14 22  1  0  0  0  0
 16 17  1  6  0  0  0
 16 24  1  0  0  0  0
 18 19  1  1  0  0  0
 18 25  1  0  0  0  0
 20 21  1  6  0  0  0
 20 27  1  0  0  0  0
 22 23  1  6  0  0  0
 22 29  1  0  0  0  0
 24  2  1  1  0  0  0
 24 31  1  0  0  0  0
 25 26  1  0  0  0  0
 25 33  1  1  0  0  0
 27 28  1  6  0  0  0
 27 35  1  0  0  0  0
 29 30  1  0  0  0  0
 29 37  1  1  0  0  0
 31 32  1  6  0  0  0
 31 39  1  0  0  0  0
 33 34  1  0  0  0  0
 35 36  1  0  0  0  0
 35 41  1  6  0  0  0
 37 38  1  0  0  0  0
 39 40  1  1  0  0  0
 41 42  1  0  0  0  0
M  END
>  <CHROM.1>
-172.29007204,65.00482909,-55.75268516,-79.78706360,-179.13704803,-66.67536212
-71.90453695,73.89395688,64.35931114,4.44115790,6.51247862,-0.26996835,-0.48681427
-0.21292585,-0.47815472

>  <Name>
ligand

>  <RI>
0

>  <Rbt.Current_Directory>
/home/itssahil/PROJECTS/Mol_Feturizer/Test_systems_manuscript/rnas/2o3w

>  <Rbt.Executable>
rbdock ($Id: //depot/dev/client3/rdock/2013.1/src/exe/rbdock.cxx#4 $)

>  <Rbt.Library>
libRbt.so (2013.1, Build901 2013/11/27)

>  <Rbt.Parameter_File>
/export/apps/rDock/src/rDock_2013.1_src/data/scripts/dock_solv.prm

>  <Rbt.Receptor>
prm/pocket_docking_8.prm

>  <SCORE>
-6.32125

>  <SCORE.INTER>
3.39511

>  <SCORE.INTER.CONST>
1

>  <SCORE.INTER.POLAR>
0

>  <SCORE.INTER.ROT>
9

>  <SCORE.INTER.SOLV>
20.3096

>  <SCORE.INTER.VDW>
-14.1065

>  <SCORE.INTER.norm>
0.0808359

>  <SCORE.INTRA>
-9.71635

>  <SCORE.INTRA.DIHEDRAL>
-23.6991

>  <SCORE.INTRA.DIHEDRAL.0>
27.8999

>  <SCORE.INTRA.POLAR>
0

>  <SCORE.INTRA.POLAR.0>
0

>  <SCORE.INTRA.REPUL>
0

>  <SCORE.INTRA.REPUL.0>
0

>  <SCORE.INTRA.SOLV>
-2.12861

>  <SCORE.INTRA.SOLV.lig_0>
-104.479

>  <SCORE.INTRA.VDW>
3.1975

>  <SCORE.INTRA.VDW.0>
-6.17816

>  <SCORE.INTRA.norm>
-0.231342

>  <SCORE.RESTR>
0

>  <SCORE.RESTR.CAVITY>
0

>  <SCORE.RESTR.norm>
0

>  <SCORE.SYSTEM>
0

>  <SCORE.SYSTEM.CONST>
0

>  <SCORE.SYSTEM.DIHEDRAL>
0

>  <SCORE.SYSTEM.SOLV>
0

>  <SCORE.SYSTEM.norm>
0

>  <SCORE.heavy>
42

>  <SCORE.norm>
-0.150506

>  <RMSD>
8.081

$$$$
ligand
 OpenBabel02271912133D
libRbt.so/2013.1/901 2013/11/27
 42 45  0  0  0  0  0  0  0  0999 V2000
    2.8904    0.8527    2.3158 C   0  0  2  0  0  0  0  0  0  0  0  0
    3.0435    0.3518    0.9767 O   0  0  0  0  0  0  0  0  0  0  0  0
    5.9449   -2.3781   -0.7337 C   0  0  2  0  0  0  0  0  0  0  0  0
    7.2259   -3.0095   -1.1705 N   0  0  0  0  0  0  0  0  0  0  0  0
    6.0312   -0.4837    3.2089 C   0  0  1  0  0  0  0  0  0  0  0  0
    9.1472    2.2070    4.6943 C   0  0  1  0  0  0  0  0  0  0  0  0
    1.3837    1.2051    2.5003 C   0  0  2  0  0  0  0  0  0  0  0  0
    0.4930    0.1081    2.0835 N   0  0  0  0  0  0  0  0  0  0  0  0
    5.6980   -1.0054   -1.4798 C   0  0  0  0  0  0  0  0  0  0  0  0
    6.3722    0.8559    2.4879 C   0  0  2  0  0  0  0  0  0  0  0  0
    7.1954    0.6964    1.3064 O   0  0  0  0  0  0  0  0  0  0  0  0
    9.0723    3.7652    4.5073 C   0  0  2  0  0  0  0  0  0  0  0  0
    9.5550    4.1635    3.1511 N   0  0  0  0  0  0  0  0  0  0  0  0
    0.9704    2.4465    1.6885 C   0  0  1  0  0  0  0  0  0  0  0  0
   -0.4053    2.7556    1.9182 O   0  0  0  0  0  0  0  0  0  0  0  0
    4.3259   -0.4010   -0.9954 C   0  0  2  0  0  0  0  0  0  0  0  0
    4.0541    0.8868   -1.6894 N   0  0  0  0  0  0  0  0  0  0  0  0
    7.0007    1.6562    3.6298 C   0  0  2  0  0  0  0  0  0  0  0  0
    8.4480    1.4518    3.6971 O   0  0  0  0  0  0  0  0  0  0  0  0
    9.9321    4.4776    5.6563 C   0  0  1  0  0  0  0  0  0  0  0  0
    9.2144    4.3776    6.9068 O   0  0  0  0  0  0  0  0  0  0  0  0
    1.8858    3.6348    2.0615 C   0  0  2  0  0  0  0  0  0  0  0  0
    1.5095    4.7840    1.3388 O   0  0  0  0  0  0  0  0  0  0  0  0
    4.3404   -0.1684    0.5671 C   0  0  2  0  0  0  0  0  0  0  0  0
    6.3095    1.1744    4.9165 C   0  0  2  0  0  0  0  0  0  0  0  0
    5.9977   -0.1856    4.6235 O   0  0  0  0  0  0  0  0  0  0  0  0
   11.3932    3.8416    5.8246 C   0  0  2  0  0  0  0  0  0  0  0  0
   12.1484    4.1835    4.6630 O   0  0  0  0  0  0  0  0  0  0  0  0
    3.3717    3.2506    1.7547 C   0  0  2  0  0  0  0  0  0  0  0  0
    3.7351    2.0507    2.5083 O   0  0  0  0  0  0  0  0  0  0  0  0
    4.6329   -1.4597    1.3621 C   0  0  2  0  0  0  0  0  0  0  0  0
    4.7910   -1.0309    2.7426 O   0  0  0  0  0  0  0  0  0  0  0  0
    5.0280    1.9711    5.3131 C   0  0  0  0  0  0  0  0  0  0  0  0
    5.3816    3.3226    5.5909 O   0  0  0  0  0  0  0  0  0  0  0  0
   11.3039    2.2759    5.9756 C   0  0  1  0  0  0  0  0  0  0  0  0
   10.6002    1.7887    4.7765 O   0  0  0  0  0  0  0  0  0  0  0  0
    4.3413    4.3580    2.0972 C   0  0  0  0  0  0  0  0  0  0  0  0
    4.2317    4.6945    3.4588 O   0  0  0  0  0  0  0  0  0  0  0  0
    5.9618   -2.1428    0.8299 C   0  0  1  0  0  0  0  0  0  0  0  0
    6.1505   -3.4127    1.4605 O   0  0  0  0  0  0  0  0  0  0  0  0
   12.7155    1.5571    6.1145 C   0  0  0  0  0  0  0  0  0  0  0  0
   13.4873    1.8897    7.3435 N   0  0  0  0  0  0  0  0  0  0  0  0
  1  2  1  6  0  0  0
  1  7  1  0  0  0  0
  1 30  1  0  0  0  0
  3  4  1  6  0  0  0
  3  9  1  0  0  0  0
  3 39  1  0  0  0  0
  5 10  1  0  0  0  0
  5 26  1  0  0  0  0
  5 32  1  6  0  0  0
  6 12  1  0  0  0  0
  6 36  1  0  0  0  0
  6 19  1  6  0  0  0
  7  8  1  6  0  0  0
  7 14  1  0  0  0  0
  9 16  1  0  0  0  0
 10 11  1  6  0  0  0
 10 18  1  0  0  0  0
 12 13  1  6  0  0  0
 12 20  1  0  0  0  0
 14 15  1  1  0  0  0
 14 22  1  0  0  0  0
 16 17  1  6  0  0  0
 16 24  1  0  0  0  0
 18 19  1  1  0  0  0
 18 25  1  0  0  0  0
 20 21  1  1  0  0  0
 20 27  1  0  0  0  0
 22 23  1  6  0  0  0
 22 29  1  0  0  0  0
 24  2  1  1  0  0  0
 24 31  1  0  0  0  0
 25 26  1  0  0  0  0
 25 33  1  6  0  0  0
 27 28  1  6  0  0  0
 27 35  1  0  0  0  0
 29 30  1  0  0  0  0
 29 37  1  1  0  0  0
 31 32  1  1  0  0  0
 31 39  1  0  0  0  0
 33 34  1  0  0  0  0
 35 36  1  0  0  0  0
 35 41  1  6  0  0  0
 37 38  1  0  0  0  0
 39 40  1  1  0  0  0
 41 42  1  0  0  0  0
M  END
>  <CHROM.1>
-174.64179086,-169.62399020,177.13148151,-62.65386047,-63.26909291,58.32445678
-81.43041105,63.89018360,65.02340686,6.11155302,1.48405377,2.88004533,2.67016259
0.30893453,-2.53478780

>  <Name>
ligand

>  <RI>
0

>  <Rbt.Current_Directory>
/home/itssahil/PROJECTS/Mol_Feturizer/Test_systems_manuscript/rnas/2o3w

>  <Rbt.Executable>
rbdock ($Id: //depot/dev/client3/rdock/2013.1/src/exe/rbdock.cxx#4 $)

>  <Rbt.Library>
libRbt.so (2013.1, Build901 2013/11/27)

>  <Rbt.Parameter_File>
/export/apps/rDock/src/rDock_2013.1_src/data/scripts/dock_solv.prm

>  <Rbt.Receptor>
prm/pocket_docking_6.prm

>  <SCORE>
-12.5522

>  <SCORE.INTER>
0.511143

>  <SCORE.INTER.CONST>
1

>  <SCORE.INTER.POLAR>
0

>  <SCORE.INTER.ROT>
9

>  <SCORE.INTER.SOLV>
14.3094

>  <SCORE.INTER.VDW>
-14.029

>  <SCORE.INTER.norm>
0.0121701

>  <SCORE.INTRA>
-13.0633

>  <SCORE.INTRA.DIHEDRAL>
-24.7665

>  <SCORE.INTRA.DIHEDRAL.0>
27.8999

>  <SCORE.INTRA.POLAR>
0

>  <SCORE.INTRA.POLAR.0>
0

>  <SCORE.INTRA.REPUL>
0

>  <SCORE.INTRA.REPUL.0>
0

>  <SCORE.INTRA.SOLV>
-3.18574

>  <SCORE.INTRA.SOLV.lig_0>
-104.479

>  <SCORE.INTRA.VDW>
0.912828

>  <SCORE.INTRA.VDW.0>
-6.17816

>  <SCORE.INTRA.norm>
-0.311031

>  <SCORE.RESTR>
0

>  <SCORE.RESTR.CAVITY>
0

>  <SCORE.RESTR.norm>
0

>  <SCORE.SYSTEM>
0

>  <SCORE.SYSTEM.CONST>
0

>  <SCORE.SYSTEM.DIHEDRAL>
0

>  <SCORE.SYSTEM.SOLV>
0

>  <SCORE.SYSTEM.norm>
0

>  <SCORE.heavy>
42

>  <SCORE.norm>
-0.298861

>  <RMSD>
8.082

$$$$
ligand
 OpenBabel02271912133D
libRbt.so/2013.1/901 2013/11/27
 42 45  0  0  0  0  0  0  0  0999 V2000
    5.4097    2.7167    1.5232 C   0  0  2  0  0  0  0  0  0  0  0  0
    5.3851    2.9136    0.0992 O   0  0  0  0  0  0  0  0  0  0  0  0
    7.8821    5.2896   -2.5305 C   0  0  2  0  0  0  0  0  0  0  0  0
    8.6127    6.4307   -3.1588 N   0  0  0  0  0  0  0  0  0  0  0  0
    8.9527    3.4119    1.7422 C   0  0  1  0  0  0  0  0  0  0  0  0
   11.7257    2.8493    5.0414 C   0  0  1  0  0  0  0  0  0  0  0  0
    4.5486    1.4530    1.8228 C   0  0  2  0  0  0  0  0  0  0  0  0
    4.9179    0.3054    0.9758 N   0  0  0  0  0  0  0  0  0  0  0  0
    6.3159    5.4889   -2.6256 C   0  0  0  0  0  0  0  0  0  0  0  0
    9.0781    3.7740    3.2535 C   0  0  2  0  0  0  0  0  0  0  0  0
    9.8785    4.9535    3.5125 O   0  0  0  0  0  0  0  0  0  0  0  0
   11.4152    1.9355    6.2813 C   0  0  2  0  0  0  0  0  0  0  0  0
    9.9429    1.8243    6.5066 N   0  0  0  0  0  0  0  0  0  0  0  0
    3.0457    1.7039    1.6011 C   0  0  1  0  0  0  0  0  0  0  0  0
    2.2929    0.5337    1.9250 O   0  0  0  0  0  0  0  0  0  0  0  0
    5.6027    4.2470   -1.9685 C   0  0  2  0  0  0  0  0  0  0  0  0
    4.1247    4.3945   -2.0535 N   0  0  0  0  0  0  0  0  0  0  0  0
    9.6222    2.4652    3.8283 C   0  0  2  0  0  0  0  0  0  0  0  0
   11.0852    2.4434    3.8254 O   0  0  0  0  0  0  0  0  0  0  0  0
   12.1520    2.5299    7.5739 C   0  0  1  0  0  0  0  0  0  0  0  0
   13.5693    2.2687    7.4653 O   0  0  0  0  0  0  0  0  0  0  0  0
    2.5952    2.9168    2.4468 C   0  0  2  0  0  0  0  0  0  0  0  0
    1.2175    3.1495    2.2679 O   0  0  0  0  0  0  0  0  0  0  0  0
    6.0340    4.0927   -0.4566 C   0  0  2  0  0  0  0  0  0  0  0  0
    9.0465    1.3431    2.9480 C   0  0  2  0  0  0  0  0  0  0  0  0
    8.9214    1.9679    1.6727 O   0  0  0  0  0  0  0  0  0  0  0  0
   11.9096    4.1029    7.7597 C   0  0  2  0  0  0  0  0  0  0  0  0
   10.5396    4.2890    8.1131 O   0  0  0  0  0  0  0  0  0  0  0  0
    3.4278    4.1724    2.0227 C   0  0  2  0  0  0  0  0  0  0  0  0
    4.8535    3.9029    2.2084 O   0  0  0  0  0  0  0  0  0  0  0  0
    7.5618    3.9498   -0.2812 C   0  0  2  0  0  0  0  0  0  0  0  0
    7.7885    4.0066    1.1540 O   0  0  0  0  0  0  0  0  0  0  0  0
    7.6781    0.7670    3.4274 C   0  0  0  0  0  0  0  0  0  0  0  0
    7.8364    0.1944    4.7220 O   0  0  0  0  0  0  0  0  0  0  0  0
   12.2392    4.8772    6.4277 C   0  0  1  0  0  0  0  0  0  0  0  0
   11.3827    4.2833    5.3865 O   0  0  0  0  0  0  0  0  0  0  0  0
    3.0556    5.4091    2.8074 C   0  0  0  0  0  0  0  0  0  0  0  0
    3.3997    5.2459    4.1618 O   0  0  0  0  0  0  0  0  0  0  0  0
    8.3123    5.1381   -1.0164 C   0  0  1  0  0  0  0  0  0  0  0  0
    9.7260    4.9243   -0.9834 O   0  0  0  0  0  0  0  0  0  0  0  0
   11.9933    6.4459    6.5128 C   0  0  0  0  0  0  0  0  0  0  0  0
   10.6033    6.8609    6.8477 N   0  0  0  0  0  0  0  0  0  0  0  0
  1  2  1  6  0  0  0
  1  7  1  0  0  0  0
  1 30  1  0  0  0  0
  3  4  1  1  0  0  0
  3  9  1  0  0  0  0
  3 39  1  0  0  0  0
  5 10  1  0  0  0  0
  5 26  1  0  0  0  0
  5 32  1  1  0  0  0
  6 12  1  0  0  0  0
  6 36  1  0  0  0  0
  6 19  1  6  0  0  0
  7  8  1  6  0  0  0
  7 14  1  0  0  0  0
  9 16  1  0  0  0  0
 10 11  1  6  0  0  0
 10 18  1  0  0  0  0
 12 13  1  1  0  0  0
 12 20  1  0  0  0  0
 14 15  1  1  0  0  0
 14 22  1  0  0  0  0
 16 17  1  1  0  0  0
 16 24  1  0  0  0  0
 18 19  1  6  0  0  0
 18 25  1  0  0  0  0
 20 21  1  6  0  0  0
 20 27  1  0  0  0  0
 22 23  1  6  0  0  0
 22 29  1  0  0  0  0
 24  2  1  6  0  0  0
 24 31  1  0  0  0  0
 25 26  1  0  0  0  0
 25 33  1  1  0  0  0
 27 28  1  6  0  0  0
 27 35  1  0  0  0  0
 29 30  1  0  0  0  0
 29 37  1  1  0  0  0
 31 32  1  1  0  0  0
 31 39  1  0  0  0  0
 33 34  1  0  0  0  0
 35 36  1  0  0  0  0
 35 41  1  1  0  0  0
 37 38  1  0  0  0  0
 39 40  1  6  0  0  0
 41 42  1  0  0  0  0
M  END
>  <CHROM.1>
175.52226824,-167.69341269,95.04036365,62.70453934,-61.53759331,65.70806569
155.59120855,171.92137548,-59.01504561,7.74664582,3.46879990,2.71688236,2.47371398
-0.29998426,-1.21406290

>  <Name>
ligand

>  <RI>
0

>  <Rbt.Current_Directory>
/home/itssahil/PROJECTS/Mol_Feturizer/Test_systems_manuscript/rnas/2o3w

>  <Rbt.Executable>
rbdock ($Id: //depot/dev/client3/rdock/2013.1/src/exe/rbdock.cxx#4 $)

>  <Rbt.Library>
libRbt.so (2013.1, Build901 2013/11/27)

>  <Rbt.Parameter_File>
/export/apps/rDock/src/rDock_2013.1_src/data/scripts/dock_solv.prm

>  <Rbt.Receptor>
prm/pocket_docking_6.prm

>  <SCORE>
-9.86458

>  <SCORE.INTER>
-1.60818

>  <SCORE.INTER.CONST>
1

>  <SCORE.INTER.POLAR>
0

>  <SCORE.INTER.ROT>
9

>  <SCORE.INTER.SOLV>
11.1201

>  <SCORE.INTER.VDW>
-14.3788

>  <SCORE.INTER.norm>
-0.03829

>  <SCORE.INTRA>
-8.25639

>  <SCORE.INTRA.DIHEDRAL>
-19.3649

>  <SCORE.INTRA.DIHEDRAL.0>
27.8999

>  <SCORE.INTRA.POLAR>
0

>  <SCORE.INTRA.POLAR.0>
0

>  <SCORE.INTRA.REPUL>
0

>  <SCORE.INTRA.REPUL.0>
0

>  <SCORE.INTRA.SOLV>
-0.134658

>  <SCORE.INTRA.SOLV.lig_0>
-104.479

>  <SCORE.INTRA.VDW>
1.49337

>  <SCORE.INTRA.VDW.0>
-6.17816

>  <SCORE.INTRA.norm>
-0.196581

>  <SCORE.RESTR>
0

>  <SCORE.RESTR.CAVITY>
0

>  <SCORE.RESTR.norm>
0

>  <SCORE.SYSTEM>
0

>  <SCORE.SYSTEM.CONST>
0

>  <SCORE.SYSTEM.DIHEDRAL>
0

>  <SCORE.SYSTEM.SOLV>
0

>  <SCORE.SYSTEM.norm>
0

>  <SCORE.heavy>
42

>  <SCORE.norm>
-0.234871

>  <RMSD>
8.084

$$$$
ligand
 OpenBabel02271912133D
libRbt.so/2013.1/901 2013/11/27
 42 45  0  0  0  0  0  0  0  0999 V2000
    9.1306    4.7220    2.9376 C   0  0  2  0  0  0  0  0  0  0  0  0
   10.5026    4.8399    3.3511 O   0  0  0  0  0  0  0  0  0  0  0  0
   12.8446    2.1312    5.7953 C   0  0  2  0  0  0  0  0  0  0  0  0
   13.3556    1.3255    6.9443 N   0  0  0  0  0  0  0  0  0  0  0  0
    8.6869    1.3022    3.6050 C   0  0  1  0  0  0  0  0  0  0  0  0
    5.7161   -1.5067    3.4308 C   0  0  1  0  0  0  0  0  0  0  0  0
    8.9576    5.6175    1.6741 C   0  0  2  0  0  0  0  0  0  0  0  0
    9.9936    5.3644    0.6576 N   0  0  0  0  0  0  0  0  0  0  0  0
   12.9868    3.6818    6.0733 C   0  0  0  0  0  0  0  0  0  0  0  0
    7.1848    1.1379    3.9890 C   0  0  2  0  0  0  0  0  0  0  0  0
    6.9590    0.2707    5.1275 O   0  0  0  0  0  0  0  0  0  0  0  0
    5.7166   -3.0666    3.2423 C   0  0  2  0  0  0  0  0  0  0  0  0
    5.4246   -3.4325    1.8239 N   0  0  0  0  0  0  0  0  0  0  0  0
    9.0206    7.1191    2.0091 C   0  0  1  0  0  0  0  0  0  0  0  0
    8.8181    7.9005    0.8304 O   0  0  0  0  0  0  0  0  0  0  0  0
   12.4539    4.4757    4.8210 C   0  0  2  0  0  0  0  0  0  0  0  0
   12.5865    5.9409    5.0425 N   0  0  0  0  0  0  0  0  0  0  0  0
    6.5900    0.6594    2.6637 C   0  0  2  0  0  0  0  0  0  0  0  0
    6.6094   -0.8000    2.5611 O   0  0  0  0  0  0  0  0  0  0  0  0
    4.6443   -3.7197    4.2375 C   0  0  1  0  0  0  0  0  0  0  0  0
    5.1646   -3.6670    5.5848 O   0  0  0  0  0  0  0  0  0  0  0  0
    7.9697    7.4501    3.0931 C   0  0  2  0  0  0  0  0  0  0  0  0
    8.0031    8.8247    3.3991 O   0  0  0  0  0  0  0  0  0  0  0  0
   10.9418    4.1172    4.5365 C   0  0  2  0  0  0  0  0  0  0  0  0
    7.4407    1.3071    1.5582 C   0  0  2  0  0  0  0  0  0  0  0  0
    8.7269    1.4139    2.1638 O   0  0  0  0  0  0  0  0  0  0  0  0
    3.2197   -2.9880    4.1841 C   0  0  2  0  0  0  0  0  0  0  0  0
    2.6328   -3.2795    2.9165 O   0  0  0  0  0  0  0  0  0  0  0  0
    8.2644    6.5923    4.3687 C   0  0  2  0  0  0  0  0  0  0  0  0
    8.2337    5.1711    4.0237 O   0  0  0  0  0  0  0  0  0  0  0  0
   10.7169    2.6060    4.3106 C   0  0  2  0  0  0  0  0  0  0  0  0
    9.2735    2.4393    4.2515 O   0  0  0  0  0  0  0  0  0  0  0  0
    6.9338    2.6989    1.0680 C   0  0  0  0  0  0  0  0  0  0  0  0
    5.6519    2.5473    0.4659 O   0  0  0  0  0  0  0  0  0  0  0  0
    3.3872   -1.4316    4.3625 C   0  0  1  0  0  0  0  0  0  0  0  0
    4.2986   -0.9927    3.2915 O   0  0  0  0  0  0  0  0  0  0  0  0
    7.2763    6.8487    5.4829 C   0  0  0  0  0  0  0  0  0  0  0  0
    7.5388    5.9949    6.5698 O   0  0  0  0  0  0  0  0  0  0  0  0
   11.3301    1.7739    5.5135 C   0  0  1  0  0  0  0  0  0  0  0  0
   11.2569    0.3734    5.2326 O   0  0  0  0  0  0  0  0  0  0  0  0
    2.0214   -0.6206    4.2887 C   0  0  0  0  0  0  0  0  0  0  0  0
    1.2459   -0.7822    3.0281 N   0  0  0  0  0  0  0  0  0  0  0  0
  1  2  1  1  0  0  0
  1  7  1  0  0  0  0
  1 30  1  0  0  0  0
  3  4  1  1  0  0  0
  3  9  1  0  0  0  0
  3 39  1  0  0  0  0
  5 10  1  0  0  0  0
  5 26  1  0  0  0  0
  5 32  1  1  0  0  0
  6 12  1  0  0  0  0
  6 36  1  0  0  0  0
  6 19  1  6  0  0  0
  7  8  1  6  0  0  0
  7 14  1  0  0  0  0
  9 16  1  0  0  0  0
 10 11  1  1  0  0  0
 10 18  1  0  0  0  0
 12 13  1  6  0  0  0
 12 20  1  0  0  0  0
 14 15  1  6  0  0  0
 14 22  1  0  0  0  0
 16 17  1  1  0  0  0
 16 24  1  0  0  0  0
 18 19  1  1  0  0  0
 18 25  1  0  0  0  0
 20 21  1  1  0  0  0
 20 27  1  0  0  0  0
 22 23  1  1  0  0  0
 22 29  1  0  0  0  0
 24  2  1  6  0  0  0
 24 31  1  0  0  0  0
 25 26  1  0  0  0  0
 25 33  1  1  0  0  0
 27 28  1  6  0  0  0
 27 35  1  0  0  0  0
 29 30  1  0  0  0  0
 29 37  1  1  0  0  0
 31 32  1  1  0  0  0
 31 39  1  0  0  0  0
 33 34  1  0  0  0  0
 35 36  1  0  0  0  0
 35 41  1  6  0  0  0
 37 38  1  0  0  0  0
 39 40  1  6  0  0  0
 41 42  1  0  0  0  0
M  END
>  <CHROM.1>
178.92199187,-176.83284881,69.57011349,177.20302521,-63.78054059,176.40942801
157.94108826,164.79809967,-58.20521588,7.82102864,2.15888914,3.67240368,0.84814908
-0.39401485,-0.27599546

>  <Name>
ligand

>  <RI>
0

>  <Rbt.Current_Directory>
/home/itssahil/PROJECTS/Mol_Feturizer/Test_systems_manuscript/rnas/2o3w

>  <Rbt.Executable>
rbdock ($Id: //depot/dev/client3/rdock/2013.1/src/exe/rbdock.cxx#4 $)

>  <Rbt.Library>
libRbt.so (2013.1, Build901 2013/11/27)

>  <Rbt.Parameter_File>
/export/apps/rDock/src/rDock_2013.1_src/data/scripts/dock_solv.prm

>  <Rbt.Receptor>
prm/pocket_docking_4.prm

>  <SCORE>
-10.8327

>  <SCORE.INTER>
0.928214

>  <SCORE.INTER.CONST>
1

>  <SCORE.INTER.POLAR>
0

>  <SCORE.INTER.ROT>
9

>  <SCORE.INTER.SOLV>
12.4842

>  <SCORE.INTER.VDW>
-13.1426

>  <SCORE.INTER.norm>
0.0221003

>  <SCORE.INTRA>
-11.7609

>  <SCORE.INTRA.DIHEDRAL>
-23.879

>  <SCORE.INTRA.DIHEDRAL.0>
27.8999

>  <SCORE.INTRA.POLAR>
0

>  <SCORE.INTRA.POLAR.0>
0

>  <SCORE.INTRA.REPUL>
0

>  <SCORE.INTRA.REPUL.0>
0

>  <SCORE.INTRA.SOLV>
-4.22215

>  <SCORE.INTRA.SOLV.lig_0>
-104.479

>  <SCORE.INTRA.VDW>
2.28962

>  <SCORE.INTRA.VDW.0>
-6.17816

>  <SCORE.INTRA.norm>
-0.280022

>  <SCORE.RESTR>
0

>  <SCORE.RESTR.CAVITY>
0

>  <SCORE.RESTR.norm>
0

>  <SCORE.SYSTEM>
0

>  <SCORE.SYSTEM.CONST>
0

>  <SCORE.SYSTEM.DIHEDRAL>
0

>  <SCORE.SYSTEM.SOLV>
0

>  <SCORE.SYSTEM.norm>
0

>  <SCORE.heavy>
42

>  <SCORE.norm>
-0.257922

>  <RMSD>
8.096

$$$$
ligand
 OpenBabel02271912133D
libRbt.so/2013.1/901 2013/11/27
 42 45  0  0  0  0  0  0  0  0999 V2000
    4.2998    1.6126    3.1642 C   0  0  2  0  0  0  0  0  0  0  0  0
    5.1333    2.7191    2.7792 O   0  0  0  0  0  0  0  0  0  0  0  0
    4.0567    6.8524    2.0358 C   0  0  2  0  0  0  0  0  0  0  0  0
    3.6230    8.2696    2.2200 N   0  0  0  0  0  0  0  0  0  0  0  0
    7.4211    3.4531    3.9014 C   0  0  1  0  0  0  0  0  0  0  0  0
   10.1921    0.1015    3.8958 C   0  0  1  0  0  0  0  0  0  0  0  0
    4.9825    0.9332    4.3891 C   0  0  2  0  0  0  0  0  0  0  0  0
    5.3488    1.9002    5.4386 N   0  0  0  0  0  0  0  0  0  0  0  0
    2.8941    5.8442    2.4015 C   0  0  0  0  0  0  0  0  0  0  0  0
    8.2711    3.1219    2.6371 C   0  0  2  0  0  0  0  0  0  0  0  0
    7.5385    2.4224    1.6012 O   0  0  0  0  0  0  0  0  0  0  0  0
   11.4881   -0.0428    3.0192 C   0  0  2  0  0  0  0  0  0  0  0  0
   11.1560   -0.5559    1.6564 N   0  0  0  0  0  0  0  0  0  0  0  0
    6.2732    0.1889    4.0002 C   0  0  1  0  0  0  0  0  0  0  0  0
    6.8425   -0.4504    5.1439 O   0  0  0  0  0  0  0  0  0  0  0  0
    3.4029    4.3716    2.1663 C   0  0  2  0  0  0  0  0  0  0  0  0
    2.3273    3.3951    2.4874 N   0  0  0  0  0  0  0  0  0  0  0  0
    9.4386    2.3527    3.2571 C   0  0  2  0  0  0  0  0  0  0  0  0
    9.1663    0.9163    3.3149 O   0  0  0  0  0  0  0  0  0  0  0  0
   12.5240   -1.0128    3.7627 C   0  0  1  0  0  0  0  0  0  0  0  0
   13.1018   -0.3078    4.8843 O   0  0  0  0  0  0  0  0  0  0  0  0
    5.9632   -0.8300    2.8800 C   0  0  2  0  0  0  0  0  0  0  0  0
    7.1316   -1.5319    2.5241 O   0  0  0  0  0  0  0  0  0  0  0  0
    4.6734    4.0726    3.0564 C   0  0  2  0  0  0  0  0  0  0  0  0
    9.6338    2.9400    4.6651 C   0  0  2  0  0  0  0  0  0  0  0  0
    8.3153    3.3391    5.0322 O   0  0  0  0  0  0  0  0  0  0  0  0
   11.8461   -2.3712    4.2752 C   0  0  2  0  0  0  0  0  0  0  0  0
   11.5167   -3.1491    3.1251 O   0  0  0  0  0  0  0  0  0  0  0  0
    5.3777   -0.0682    1.6446 C   0  0  2  0  0  0  0  0  0  0  0  0
    4.1723    0.6594    2.0413 O   0  0  0  0  0  0  0  0  0  0  0  0
    5.8341    5.0569    2.7933 C   0  0  2  0  0  0  0  0  0  0  0  0
    6.8286    4.7553    3.8104 O   0  0  0  0  0  0  0  0  0  0  0  0
   10.6265    4.1409    4.7455 C   0  0  0  0  0  0  0  0  0  0  0  0
   11.9270    3.7026    4.3640 O   0  0  0  0  0  0  0  0  0  0  0  0
   10.5491   -2.0629    5.1147 C   0  0  1  0  0  0  0  0  0  0  0  0
    9.6676   -1.2785    4.2326 O   0  0  0  0  0  0  0  0  0  0  0  0
    5.0383   -0.9929    0.4985 C   0  0  0  0  0  0  0  0  0  0  0  0
    4.5831   -0.2496   -0.6058 O   0  0  0  0  0  0  0  0  0  0  0  0
    5.3265    6.5533    2.9295 C   0  0  1  0  0  0  0  0  0  0  0  0
    6.3593    7.4623    2.5388 O   0  0  0  0  0  0  0  0  0  0  0  0
    9.7915   -3.3601    5.6361 C   0  0  0  0  0  0  0  0  0  0  0  0
    8.5849   -3.1073    6.4709 N   0  0  0  0  0  0  0  0  0  0  0  0
  1  2  1  6  0  0  0
  1  7  1  0  0  0  0
  1 30  1  0  0  0  0
  3  4  1  1  0  0  0
  3  9  1  0  0  0  0
  3 39  1  0  0  0  0
  5 10  1  0  0  0  0
  5 26  1  0  0  0  0
  5 32  1  6  0  0  0
  6 12  1  0  0  0  0
  6 36  1  0  0  0  0
  6 19  1  6  0  0  0
  7  8  1  1  0  0  0
  7 14  1  0  0  0  0
  9 16  1  0  0  0  0
 10 11  1  6  0  0  0
 10 18  1  0  0  0  0
 12 13  1  6  0  0  0
 12 20  1  0  0  0  0
 14 15  1  1  0  0  0
 14 22  1  0  0  0  0
 16 17  1  1  0  0  0
 16 24  1  0  0  0  0
 18 19  1  1  0  0  0
 18 25  1  0  0  0  0
 20 21  1  1  0  0  0
 20 27  1  0  0  0  0
 22 23  1  6  0  0  0
 22 29  1  0  0  0  0
 24  2  1  6  0  0  0
 24 31  1  0  0  0  0
 25 26  1  0  0  0  0
 25 33  1  6  0  0  0
 27 28  1  6  0  0  0
 27 35  1  0  0  0  0
 29 30  1  0  0  0  0
 29 37  1  6  0  0  0
 31 32  1  1  0  0  0
 31 39  1  0  0  0  0
 33 34  1  0  0  0  0
 35 36  1  0  0  0  0
 35 41  1  6  0  0  0
 37 38  1  0  0  0  0
 39 40  1  6  0  0  0
 41 42  1  0  0  0  0
M  END
>  <CHROM.1>
-107.59779787,-66.94173919,-179.24925892,-70.74219377,-63.18147905,-176.96090045
59.91156268,64.80379735,178.09923577,7.48427080,1.64083898,3.32496940,2.37716879
-0.29592873,0.04081714

>  <Name>
ligand

>  <RI>
0

>  <Rbt.Current_Directory>
/home/itssahil/PROJECTS/Mol_Feturizer/Test_systems_manuscript/rnas/2o3w

>  <Rbt.Executable>
rbdock ($Id: //depot/dev/client3/rdock/2013.1/src/exe/rbdock.cxx#4 $)

>  <Rbt.Library>
libRbt.so (2013.1, Build901 2013/11/27)

>  <Rbt.Parameter_File>
/export/apps/rDock/src/rDock_2013.1_src/data/scripts/dock_solv.prm

>  <Rbt.Receptor>
prm/pocket_docking_5.prm

>  <SCORE>
-4.93992

>  <SCORE.INTER>
4.39124

>  <SCORE.INTER.CONST>
1

>  <SCORE.INTER.POLAR>
0

>  <SCORE.INTER.ROT>
9

>  <SCORE.INTER.SOLV>
16.661

>  <SCORE.INTER.VDW>
-12.2262

>  <SCORE.INTER.norm>
0.104553

>  <SCORE.INTRA>
-9.33116

>  <SCORE.INTRA.DIHEDRAL>
-20.3005

>  <SCORE.INTRA.DIHEDRAL.0>
27.8999

>  <SCORE.INTRA.POLAR>
0

>  <SCORE.INTRA.POLAR.0>
0

>  <SCORE.INTRA.REPUL>
0.00828554

>  <SCORE.INTRA.REPUL.0>
0

>  <SCORE.INTRA.SOLV>
1.53772

>  <SCORE.INTRA.SOLV.lig_0>
-104.479

>  <SCORE.INTRA.VDW>
0.00881723

>  <SCORE.INTRA.VDW.0>
-6.17816

>  <SCORE.INTRA.norm>
-0.222171

>  <SCORE.RESTR>
0

>  <SCORE.RESTR.CAVITY>
0

>  <SCORE.RESTR.norm>
0

>  <SCORE.SYSTEM>
0

>  <SCORE.SYSTEM.CONST>
0

>  <SCORE.SYSTEM.DIHEDRAL>
0

>  <SCORE.SYSTEM.SOLV>
0

>  <SCORE.SYSTEM.norm>
0

>  <SCORE.heavy>
42

>  <SCORE.norm>
-0.117617

>  <RMSD>
8.117

$$$$
ligand
 OpenBabel02271912133D
libRbt.so/2013.1/901 2013/11/27
 42 45  0  0  0  0  0  0  0  0999 V2000
    6.6117    3.6826    7.0836 C   0  0  2  0  0  0  0  0  0  0  0  0
    7.4713    3.1997    6.0370 O   0  0  0  0  0  0  0  0  0  0  0  0
   11.4514    1.4810    6.0178 C   0  0  2  0  0  0  0  0  0  0  0  0
   12.6273    0.6009    6.2883 N   0  0  0  0  0  0  0  0  0  0  0  0
    7.7463   -0.0871    3.6093 C   0  0  1  0  0  0  0  0  0  0  0  0
    6.3843   -1.8508   -0.1519 C   0  0  1  0  0  0  0  0  0  0  0  0
    5.1837    3.8160    6.4743 C   0  0  2  0  0  0  0  0  0  0  0  0
    4.7599    2.5995    5.7594 N   0  0  0  0  0  0  0  0  0  0  0  0
   10.9794    2.2277    7.3298 C   0  0  0  0  0  0  0  0  0  0  0  0
    6.4338   -0.9246    3.5271 C   0  0  2  0  0  0  0  0  0  0  0  0
    6.5691   -2.2817    4.0163 O   0  0  0  0  0  0  0  0  0  0  0  0
    4.8578   -2.0038   -0.4912 C   0  0  2  0  0  0  0  0  0  0  0  0
    4.2929   -3.2362    0.1358 N   0  0  0  0  0  0  0  0  0  0  0  0
    5.0830    4.9795    5.4707 C   0  0  1  0  0  0  0  0  0  0  0  0
    3.7501    5.0892    4.9684 O   0  0  0  0  0  0  0  0  0  0  0  0
    9.7550    3.1545    6.9770 C   0  0  2  0  0  0  0  0  0  0  0  0
    9.2932    3.8850    8.1880 N   0  0  0  0  0  0  0  0  0  0  0  0
    6.0858   -0.7868    2.0442 C   0  0  2  0  0  0  0  0  0  0  0  0
    6.6881   -1.8570    1.2486 O   0  0  0  0  0  0  0  0  0  0  0  0
    4.6698   -2.0296   -2.0821 C   0  0  1  0  0  0  0  0  0  0  0  0
    4.8707   -0.6945   -2.5979 O   0  0  0  0  0  0  0  0  0  0  0  0
    5.5388    6.2896    6.1526 C   0  0  2  0  0  0  0  0  0  0  0  0
    5.4366    7.3677    5.2517 O   0  0  0  0  0  0  0  0  0  0  0  0
    8.5636    2.3020    6.3856 C   0  0  2  0  0  0  0  0  0  0  0  0
    6.6110    0.5924    1.6113 C   0  0  2  0  0  0  0  0  0  0  0  0
    7.7444    0.7835    2.4547 O   0  0  0  0  0  0  0  0  0  0  0  0
    5.6748   -3.0426   -2.8109 C   0  0  2  0  0  0  0  0  0  0  0  0
    5.2765   -4.3684   -2.4647 O   0  0  0  0  0  0  0  0  0  0  0  0
    7.0138    6.1209    6.6482 C   0  0  2  0  0  0  0  0  0  0  0  0
    7.0956    4.9909    7.5735 O   0  0  0  0  0  0  0  0  0  0  0  0
    8.9677    1.4982    5.1303 C   0  0  2  0  0  0  0  0  0  0  0  0
    7.8261    0.6460    4.8386 O   0  0  0  0  0  0  0  0  0  0  0  0
    5.5916    1.7632    1.7671 C   0  0  0  0  0  0  0  0  0  0  0  0
    4.4806    1.5376    0.9047 O   0  0  0  0  0  0  0  0  0  0  0  0
    7.1586   -2.7811   -2.3502 C   0  0  1  0  0  0  0  0  0  0  0  0
    7.1629   -2.9236   -0.8839 O   0  0  0  0  0  0  0  0  0  0  0  0
    7.5411    7.3585    7.3367 C   0  0  0  0  0  0  0  0  0  0  0  0
    8.8944    7.1836    7.6789 O   0  0  0  0  0  0  0  0  0  0  0  0
   10.2585    0.6262    5.4289 C   0  0  1  0  0  0  0  0  0  0  0  0
   10.7203    0.0012    4.2281 O   0  0  0  0  0  0  0  0  0  0  0  0
    8.2223   -3.7677   -3.0014 C   0  0  0  0  0  0  0  0  0  0  0  0
    9.6144   -3.6400   -2.4892 N   0  0  0  0  0  0  0  0  0  0  0  0
  1  2  1  6  0  0  0
  1  7  1  0  0  0  0
  1 30  1  0  0  0  0
  3  4  1  1  0  0  0
  3  9  1  0  0  0  0
  3 39  1  0  0  0  0
  5 10  1  0  0  0  0
  5 26  1  0  0  0  0
  5 32  1  1  0  0  0
  6 12  1  0  0  0  0
  6 36  1  0  0  0  0
  6 19  1  1  0  0  0
  7  8  1  6  0  0  0
  7 14  1  0  0  0  0
  9 16  1  0  0  0  0
 10 11  1  6  0  0  0
 10 18  1  0  0  0  0
 12 13  1  1  0  0  0
 12 20  1  0  0  0  0
 14 15  1  1  0  0  0
 14 22  1  0  0  0  0
 16 17  1  1  0  0  0
 16 24  1  0  0  0  0
 18 19  1  6  0  0  0
 18 25  1  0  0  0  0
 20 21  1  6  0  0  0
 20 27  1  0  0  0  0
 22 23  1  6  0  0  0
 22 29  1  0  0  0  0
 24  2  1  6  0  0  0
 24 31  1  0  0  0  0
 25 26  1  0  0  0  0
 25 33  1  1  0  0  0
 27 28  1  1  0  0  0
 27 35  1  0  0  0  0
 29 30  1  0  0  0  0
 29 37  1  1  0  0  0
 31 32  1  1  0  0  0
 31 39  1  0  0  0  0
 33 34  1  0  0  0  0
 35 36  1  0  0  0  0
 35 41  1  6  0  0  0
 37 38  1  0  0  0  0
 39 40  1  6  0  0  0
 41 42  1  0  0  0  0
M  END
>  <CHROM.1>
-145.78042960,-79.01520089,177.79829624,-61.05484131,-63.84112672,-176.01663330
169.58335654,-179.96206019,-174.19858739,7.14814102,1.14131942,3.30198942
1.42648158,-0.50672274,0.76234427

>  <Name>
ligand

>  <RI>
0

>  <Rbt.Current_Directory>
/home/itssahil/PROJECTS/Mol_Feturizer/Test_systems_manuscript/rnas/2o3w

>  <Rbt.Executable>
rbdock ($Id: //depot/dev/client3/rdock/2013.1/src/exe/rbdock.cxx#4 $)

>  <Rbt.Library>
libRbt.so (2013.1, Build901 2013/11/27)

>  <Rbt.Parameter_File>
/export/apps/rDock/src/rDock_2013.1_src/data/scripts/dock_solv.prm

>  <Rbt.Receptor>
prm/pocket_docking_8.prm

>  <SCORE>
-13.9731

>  <SCORE.INTER>
-4.65086

>  <SCORE.INTER.CONST>
1

>  <SCORE.INTER.POLAR>
0

>  <SCORE.INTER.ROT>
9

>  <SCORE.INTER.SOLV>
16.5845

>  <SCORE.INTER.VDW>
-18.2287

>  <SCORE.INTER.norm>
-0.110735

>  <SCORE.INTRA>
-9.32221

>  <SCORE.INTRA.DIHEDRAL>
-20.9455

>  <SCORE.INTRA.DIHEDRAL.0>
27.8999

>  <SCORE.INTRA.POLAR>
0

>  <SCORE.INTRA.POLAR.0>
0

>  <SCORE.INTRA.REPUL>
0

>  <SCORE.INTRA.REPUL.0>
0

>  <SCORE.INTRA.SOLV>
-1.89132

>  <SCORE.INTRA.SOLV.lig_0>
-104.479

>  <SCORE.INTRA.VDW>
2.0962

>  <SCORE.INTRA.VDW.0>
-6.17816

>  <SCORE.INTRA.norm>
-0.221957

>  <SCORE.RESTR>
0

>  <SCORE.RESTR.CAVITY>
0

>  <SCORE.RESTR.norm>
0

>  <SCORE.SYSTEM>
0

>  <SCORE.SYSTEM.CONST>
0

>  <SCORE.SYSTEM.DIHEDRAL>
0

>  <SCORE.SYSTEM.SOLV>
0

>  <SCORE.SYSTEM.norm>
0

>  <SCORE.heavy>
42

>  <SCORE.norm>
-0.332692

>  <RMSD>
8.120

$$$$
ligand
 OpenBabel02271912133D
libRbt.so/2013.1/901 2013/11/27
 42 45  0  0  0  0  0  0  0  0999 V2000
    6.1487    5.3597    5.1450 C   0  0  2  0  0  0  0  0  0  0  0  0
    6.1640    6.7509    4.7819 O   0  0  0  0  0  0  0  0  0  0  0  0
    4.0707    9.1193    1.8147 C   0  0  2  0  0  0  0  0  0  0  0  0
    3.4698    9.5946    0.5327 N   0  0  0  0  0  0  0  0  0  0  0  0
    3.8042    4.8042    2.6201 C   0  0  1  0  0  0  0  0  0  0  0  0
    4.9660    1.5601   -0.0810 C   0  0  1  0  0  0  0  0  0  0  0  0
    6.5458    5.2777    6.6496 C   0  0  2  0  0  0  0  0  0  0  0  0
    5.7665    6.2038    7.4897 N   0  0  0  0  0  0  0  0  0  0  0  0
    5.6476    9.0438    1.7162 C   0  0  0  0  0  0  0  0  0  0  0  0
    5.2604    4.6636    2.0811 C   0  0  2  0  0  0  0  0  0  0  0  0
    5.5750    5.5651    0.9914 O   0  0  0  0  0  0  0  0  0  0  0  0
    4.7542    1.3632   -1.6255 C   0  0  2  0  0  0  0  0  0  0  0  0
    3.4588    1.9615   -2.0668 N   0  0  0  0  0  0  0  0  0  0  0  0
    8.0313    5.6106    6.8808 C   0  0  1  0  0  0  0  0  0  0  0  0
    8.3596    5.4845    8.2654 O   0  0  0  0  0  0  0  0  0  0  0  0
    6.2227    8.5595    3.1009 C   0  0  2  0  0  0  0  0  0  0  0  0
    7.7080    8.4908    3.0487 N   0  0  0  0  0  0  0  0  0  0  0  0
    5.3092    3.1729    1.7424 C   0  0  2  0  0  0  0  0  0  0  0  0
    4.8918    2.9207    0.3629 O   0  0  0  0  0  0  0  0  0  0  0  0
    4.8140   -0.1998   -1.9722 C   0  0  1  0  0  0  0  0  0  0  0  0
    6.1862   -0.6454   -1.8860 O   0  0  0  0  0  0  0  0  0  0  0  0
    8.9089    4.6865    6.0062 C   0  0  2  0  0  0  0  0  0  0  0  0
   10.2729    4.9673    6.2189 O   0  0  0  0  0  0  0  0  0  0  0  0
    5.6394    7.1414    3.4809 C   0  0  2  0  0  0  0  0  0  0  0  0
    4.3709    2.4791    2.7442 C   0  0  2  0  0  0  0  0  0  0  0  0
    3.3830    3.4743    3.0011 O   0  0  0  0  0  0  0  0  0  0  0  0
    3.9001   -1.0879   -1.0008 C   0  0  2  0  0  0  0  0  0  0  0  0
    2.5370   -0.7908   -1.3008 O   0  0  0  0  0  0  0  0  0  0  0  0
    8.5293    4.8953    4.5023 C   0  0  2  0  0  0  0  0  0  0  0  0
    7.1082    4.6072    4.3091 O   0  0  0  0  0  0  0  0  0  0  0  0
    4.0962    7.1249    3.5406 C   0  0  2  0  0  0  0  0  0  0  0  0
    3.7356    5.7270    3.7149 O   0  0  0  0  0  0  0  0  0  0  0  0
    5.0518    2.0096    4.0671 C   0  0  0  0  0  0  0  0  0  0  0  0
    4.0899    1.3460    4.8816 O   0  0  0  0  0  0  0  0  0  0  0  0
    4.2104   -0.7592    0.5084 C   0  0  1  0  0  0  0  0  0  0  0  0
    3.9809    0.6873    0.6678 O   0  0  0  0  0  0  0  0  0  0  0  0
    9.3384    4.0218    3.5716 C   0  0  0  0  0  0  0  0  0  0  0  0
   10.6961    4.3867    3.6222 O   0  0  0  0  0  0  0  0  0  0  0  0
    3.4886    7.6984    2.1924 C   0  0  1  0  0  0  0  0  0  0  0  0
    2.0684    7.8244    2.3056 O   0  0  0  0  0  0  0  0  0  0  0  0
    3.3213   -1.5742    1.5448 C   0  0  0  0  0  0  0  0  0  0  0  0
    3.6785   -1.3935    2.9788 N   0  0  0  0  0  0  0  0  0  0  0  0
  1  2  1  6  0  0  0
  1  7  1  0  0  0  0
  1 30  1  0  0  0  0
  3  4  1  6  0  0  0
  3  9  1  0  0  0  0
  3 39  1  0  0  0  0
  5 10  1  0  0  0  0
  5 26  1  0  0  0  0
  5 32  1  1  0  0  0
  6 12  1  0  0  0  0
  6 36  1  0  0  0  0
  6 19  1  6  0  0  0
  7  8  1  1  0  0  0
  7 14  1  0  0  0  0
  9 16  1  0  0  0  0
 10 11  1  6  0  0  0
 10 18  1  0  0  0  0
 12 13  1  1  0  0  0
 12 20  1  0  0  0  0
 14 15  1  1  0  0  0
 14 22  1  0  0  0  0
 16 17  1  6  0  0  0
 16 24  1  0  0  0  0
 18 19  1  6  0  0  0
 18 25  1  0  0  0  0
 20 21  1  1  0  0  0
 20 27  1  0  0  0  0
 22 23  1  6  0  0  0
 22 29  1  0  0  0  0
 24  2  1  1  0  0  0
 24 31  1  0  0  0  0
 25 26  1  0  0  0  0
 25 33  1  1  0  0  0
 27 28  1  6  0  0  0
 27 35  1  0  0  0  0
 29 30  1  0  0  0  0
 29 37  1  6  0  0  0
 31 32  1  6  0  0  0
 31 39  1  0  0  0  0
 33 34  1  0  0  0  0
 35 36  1  0  0  0  0
 35 41  1  1  0  0  0
 37 38  1  0  0  0  0
 39 40  1  1  0  0  0
 41 42  1  0  0  0  0
M  END
>  <CHROM.1>
-171.01234918,-159.65437936,176.91456115,-169.80920940,-177.99699922,-64.96620258
-75.58346151,61.90295245,174.08085734,5.47548462,4.07543490,2.65926325,-1.04334280
0.87858829,-2.90666411

>  <Name>
ligand

>  <RI>
0

>  <Rbt.Current_Directory>
/home/itssahil/PROJECTS/Mol_Feturizer/Test_systems_manuscript/rnas/2o3w

>  <Rbt.Executable>
rbdock ($Id: //depot/dev/client3/rdock/2013.1/src/exe/rbdock.cxx#4 $)

>  <Rbt.Library>
libRbt.so (2013.1, Build901 2013/11/27)

>  <Rbt.Parameter_File>
/export/apps/rDock/src/rDock_2013.1_src/data/scripts/dock_solv.prm

>  <Rbt.Receptor>
prm/pocket_docking_8.prm

>  <SCORE>
-11.2267

>  <SCORE.INTER>
0.365513

>  <SCORE.INTER.CONST>
1

>  <SCORE.INTER.POLAR>
0

>  <SCORE.INTER.ROT>
9

>  <SCORE.INTER.SOLV>
21.2768

>  <SCORE.INTER.VDW>
-16.4486

>  <SCORE.INTER.norm>
0.00870268

>  <SCORE.INTRA>
-11.5922

>  <SCORE.INTRA.DIHEDRAL>
-23.6084

>  <SCORE.INTRA.DIHEDRAL.0>
27.8999

>  <SCORE.INTRA.POLAR>
0

>  <SCORE.INTRA.POLAR.0>
0

>  <SCORE.INTRA.REPUL>
0

>  <SCORE.INTRA.REPUL.0>
0

>  <SCORE.INTRA.SOLV>
-2.38406

>  <SCORE.INTRA.SOLV.lig_0>
-104.479

>  <SCORE.INTRA.VDW>
1.40401

>  <SCORE.INTRA.VDW.0>
-6.17816

>  <SCORE.INTRA.norm>
-0.276005

>  <SCORE.RESTR>
0

>  <SCORE.RESTR.CAVITY>
0

>  <SCORE.RESTR.norm>
0

>  <SCORE.SYSTEM>
0

>  <SCORE.SYSTEM.CONST>
0

>  <SCORE.SYSTEM.DIHEDRAL>
0

>  <SCORE.SYSTEM.SOLV>
0

>  <SCORE.SYSTEM.norm>
0

>  <SCORE.heavy>
42

>  <SCORE.norm>
-0.267302

>  <RMSD>
8.126

$$$$
ligand
 OpenBabel02271912133D
libRbt.so/2013.1/901 2013/11/27
 42 45  0  0  0  0  0  0  0  0999 V2000
    6.2602    7.6770    4.0446 C   0  0  2  0  0  0  0  0  0  0  0  0
    7.3615    7.0505    3.3649 O   0  0  0  0  0  0  0  0  0  0  0  0
    8.5631    7.4648   -0.7800 C   0  0  2  0  0  0  0  0  0  0  0  0
    8.5873    7.4029   -2.2720 N   0  0  0  0  0  0  0  0  0  0  0  0
    4.6669    8.2919    1.0891 C   0  0  1  0  0  0  0  0  0  0  0  0
    0.5228    7.9749   -0.4990 C   0  0  1  0  0  0  0  0  0  0  0  0
    6.5855    7.6403    5.5681 C   0  0  2  0  0  0  0  0  0  0  0  0
    7.9379    8.1419    5.8681 N   0  0  0  0  0  0  0  0  0  0  0  0
    8.6010    6.0167   -0.1448 C   0  0  0  0  0  0  0  0  0  0  0  0
    3.3889    8.8017    1.8224 C   0  0  2  0  0  0  0  0  0  0  0  0
    2.9133    7.9137    2.8637 O   0  0  0  0  0  0  0  0  0  0  0  0
   -0.3515    6.6833   -0.6890 C   0  0  2  0  0  0  0  0  0  0  0  0
    0.4802    5.5433   -1.1785 N   0  0  0  0  0  0  0  0  0  0  0  0
    6.4998    6.2172    6.1497 C   0  0  1  0  0  0  0  0  0  0  0  0
    6.7658    6.2367    7.5532 O   0  0  0  0  0  0  0  0  0  0  0  0
    8.5962    6.1480    1.4253 C   0  0  2  0  0  0  0  0  0  0  0  0
    8.6459    4.8019    2.0573 N   0  0  0  0  0  0  0  0  0  0  0  0
    2.4353    9.0126    0.6453 C   0  0  2  0  0  0  0  0  0  0  0  0
    1.6570    7.8067    0.3606 O   0  0  0  0  0  0  0  0  0  0  0  0
   -1.5488    7.0002   -1.7054 C   0  0  1  0  0  0  0  0  0  0  0  0
   -2.5274    7.8237   -1.0323 O   0  0  0  0  0  0  0  0  0  0  0  0
    5.1066    5.6198    5.8476 C   0  0  2  0  0  0  0  0  0  0  0  0
    5.0061    4.3228    6.3883 O   0  0  0  0  0  0  0  0  0  0  0  0
    7.3060    6.9166    1.9160 C   0  0  2  0  0  0  0  0  0  0  0  0
    3.3186    9.4013   -0.5522 C   0  0  2  0  0  0  0  0  0  0  0  0
    4.5383    8.7119   -0.2887 O   0  0  0  0  0  0  0  0  0  0  0  0
   -1.0539    7.7377   -3.0391 C   0  0  2  0  0  0  0  0  0  0  0  0
   -0.2925    6.7965   -3.7947 O   0  0  0  0  0  0  0  0  0  0  0  0
    4.8884    5.5914    4.2980 C   0  0  2  0  0  0  0  0  0  0  0  0
    5.0070    6.9463    3.7596 O   0  0  0  0  0  0  0  0  0  0  0  0
    7.1723    8.3223    1.2905 C   0  0  2  0  0  0  0  0  0  0  0  0
    5.8608    8.7991    1.6994 O   0  0  0  0  0  0  0  0  0  0  0  0
    3.5643   10.9330   -0.7190 C   0  0  0  0  0  0  0  0  0  0  0  0
    4.3618   11.1581   -1.8776 O   0  0  0  0  0  0  0  0  0  0  0  0
   -0.1714    8.9938   -2.6847 C   0  0  1  0  0  0  0  0  0  0  0  0
    0.9410    8.4927   -1.8592 O   0  0  0  0  0  0  0  0  0  0  0  0
    3.5419    5.0251    3.9107 C   0  0  0  0  0  0  0  0  0  0  0  0
    2.5106    5.7914    4.4838 O   0  0  0  0  0  0  0  0  0  0  0  0
    7.2699    8.2315   -0.2900 C   0  0  1  0  0  0  0  0  0  0  0  0
    7.2982    9.5434   -0.8588 O   0  0  0  0  0  0  0  0  0  0  0  0
    0.3917    9.7685   -3.9541 C   0  0  0  0  0  0  0  0  0  0  0  0
    1.2939    8.9812   -4.8388 N   0  0  0  0  0  0  0  0  0  0  0  0
  1  2  1  6  0  0  0
  1  7  1  0  0  0  0
  1 30  1  0  0  0  0
  3  4  1  6  0  0  0
  3  9  1  0  0  0  0
  3 39  1  0  0  0  0
  5 10  1  0  0  0  0
  5 26  1  0  0  0  0
  5 32  1  1  0  0  0
  6 12  1  0  0  0  0
  6 36  1  0  0  0  0
  6 19  1  1  0  0  0
  7  8  1  6  0  0  0
  7 14  1  0  0  0  0
  9 16  1  0  0  0  0
 10 11  1  1  0  0  0
 10 18  1  0  0  0  0
 12 13  1  6  0  0  0
 12 20  1  0  0  0  0
 14 15  1  1  0  0  0
 14 22  1  0  0  0  0
 16 17  1  1  0  0  0
 16 24  1  0  0  0  0
 18 19  1  6  0  0  0
 18 25  1  0  0  0  0
 20 21  1  1  0  0  0
 20 27  1  0  0  0  0
 22 23  1  6  0  0  0
 22 29  1  0  0  0  0
 24  2  1  1  0  0  0
 24 31  1  0  0  0  0
 25 26  1  0  0  0  0
 25 33  1  1  0  0  0
 27 28  1  6  0  0  0
 27 35  1  0  0  0  0
 29 30  1  0  0  0  0
 29 37  1  1  0  0  0
 31 32  1  6  0  0  0
 31 39  1  0  0  0  0
 33 34  1  0  0  0  0
 35 36  1  0  0  0  0
 35 41  1  6  0  0  0
 37 38  1  0  0  0  0
 39 40  1  6  0  0  0
 41 42  1  0  0  0  0
M  END
>  <CHROM.1>
178.49332823,-177.65726840,165.79913492,-175.38436784,-178.45605432,59.20180087
-75.08257443,172.12233693,-61.62833406,4.11727298,7.57010654,1.04596339,0.80096860
0.11204883,1.93823795

>  <Name>
ligand

>  <RI>
0

>  <Rbt.Current_Directory>
/home/itssahil/PROJECTS/Mol_Feturizer/Test_systems_manuscript/rnas/2o3w

>  <Rbt.Executable>
rbdock ($Id: //depot/dev/client3/rdock/2013.1/src/exe/rbdock.cxx#4 $)

>  <Rbt.Library>
libRbt.so (2013.1, Build901 2013/11/27)

>  <Rbt.Parameter_File>
/export/apps/rDock/src/rDock_2013.1_src/data/scripts/dock_solv.prm

>  <Rbt.Receptor>
prm/pocket_docking_7.prm

>  <SCORE>
-17.848

>  <SCORE.INTER>
-6.72921

>  <SCORE.INTER.CONST>
1

>  <SCORE.INTER.POLAR>
0

>  <SCORE.INTER.ROT>
9

>  <SCORE.INTER.SOLV>
16.0336

>  <SCORE.INTER.VDW>
-19.4307

>  <SCORE.INTER.norm>
-0.160219

>  <SCORE.INTRA>
-11.1188

>  <SCORE.INTRA.DIHEDRAL>
-25.277

>  <SCORE.INTRA.DIHEDRAL.0>
27.8999

>  <SCORE.INTRA.POLAR>
0

>  <SCORE.INTRA.POLAR.0>
0

>  <SCORE.INTRA.REPUL>
0

>  <SCORE.INTRA.REPUL.0>
0

>  <SCORE.INTRA.SOLV>
-2.78631

>  <SCORE.INTRA.SOLV.lig_0>
-104.479

>  <SCORE.INTRA.VDW>
2.9129

>  <SCORE.INTRA.VDW.0>
-6.17816

>  <SCORE.INTRA.norm>
-0.264732

>  <SCORE.RESTR>
0

>  <SCORE.RESTR.CAVITY>
0

>  <SCORE.RESTR.norm>
0

>  <SCORE.SYSTEM>
0

>  <SCORE.SYSTEM.CONST>
0

>  <SCORE.SYSTEM.DIHEDRAL>
0

>  <SCORE.SYSTEM.SOLV>
0

>  <SCORE.SYSTEM.norm>
0

>  <SCORE.heavy>
42

>  <SCORE.norm>
-0.424952

>  <RMSD>
8.144

$$$$
ligand
 OpenBabel02271912133D
libRbt.so/2013.1/901 2013/11/27
 42 45  0  0  0  0  0  0  0  0999 V2000
    4.7168    2.1838   -0.1555 C   0  0  2  0  0  0  0  0  0  0  0  0
    5.6344    2.6197   -1.1729 O   0  0  0  0  0  0  0  0  0  0  0  0
    9.0769    5.2449   -0.9417 C   0  0  2  0  0  0  0  0  0  0  0  0
    9.9527    6.4338   -0.7182 N   0  0  0  0  0  0  0  0  0  0  0  0
    7.0089    2.8352    2.5926 C   0  0  1  0  0  0  0  0  0  0  0  0
    8.6002    1.7428    4.9228 C   0  0  1  0  0  0  0  0  0  0  0  0
    4.0933    0.8437   -0.6489 C   0  0  2  0  0  0  0  0  0  0  0  0
    5.1125   -0.1209   -1.0974 N   0  0  0  0  0  0  0  0  0  0  0  0
    8.0199    5.5176   -2.0864 C   0  0  0  0  0  0  0  0  0  0  0  0
    6.2888    3.3860    3.8610 C   0  0  2  0  0  0  0  0  0  0  0  0
    6.9656    4.5056    4.4834 O   0  0  0  0  0  0  0  0  0  0  0  0
    8.8530    0.2630    4.4590 C   0  0  2  0  0  0  0  0  0  0  0  0
    8.7262   -0.6847    5.6065 N   0  0  0  0  0  0  0  0  0  0  0  0
    3.1255    1.0490   -1.8288 C   0  0  1  0  0  0  0  0  0  0  0  0
    2.5486   -0.1975   -2.2216 O   0  0  0  0  0  0  0  0  0  0  0  0
    7.1436    4.2242   -2.2904 C   0  0  2  0  0  0  0  0  0  0  0  0
    6.1457    4.4407   -3.3725 N   0  0  0  0  0  0  0  0  0  0  0  0
    6.1800    2.1209    4.7137 C   0  0  2  0  0  0  0  0  0  0  0  0
    7.3458    1.9556    5.5823 O   0  0  0  0  0  0  0  0  0  0  0  0
   10.3031    0.1605    3.7855 C   0  0  1  0  0  0  0  0  0  0  0  0
   10.2593    0.7879    2.4843 O   0  0  0  0  0  0  0  0  0  0  0  0
    2.0386    2.0738   -1.4319 C   0  0  2  0  0  0  0  0  0  0  0  0
    1.1345    2.2604   -2.4960 O   0  0  0  0  0  0  0  0  0  0  0  0
    6.3986    3.8393   -0.9515 C   0  0  2  0  0  0  0  0  0  0  0  0
    6.0527    0.9511    3.7233 C   0  0  2  0  0  0  0  0  0  0  0  0
    6.7936    1.4052    2.5931 O   0  0  0  0  0  0  0  0  0  0  0  0
   11.4502    0.8437    4.6716 C   0  0  2  0  0  0  0  0  0  0  0  0
   11.6301    0.0405    5.8373 O   0  0  0  0  0  0  0  0  0  0  0  0
    2.7274    3.4257   -1.0479 C   0  0  2  0  0  0  0  0  0  0  0  0
    3.6671    3.2042    0.0511 O   0  0  0  0  0  0  0  0  0  0  0  0
    7.3679    3.6124    0.2292 C   0  0  2  0  0  0  0  0  0  0  0  0
    6.5166    3.4553    1.3976 O   0  0  0  0  0  0  0  0  0  0  0  0
    4.5900    0.5828    3.3245 C   0  0  0  0  0  0  0  0  0  0  0  0
    3.9612    1.7195    2.7401 O   0  0  0  0  0  0  0  0  0  0  0  0
   11.0399    2.3097    5.0775 C   0  0  1  0  0  0  0  0  0  0  0  0
    9.7564    2.1926    5.7910 O   0  0  0  0  0  0  0  0  0  0  0  0
    1.7343    4.4885   -0.6383 C   0  0  0  0  0  0  0  0  0  0  0  0
    1.0250    4.0749    0.5042 O   0  0  0  0  0  0  0  0  0  0  0  0
    8.3294    4.8625    0.3982 C   0  0  1  0  0  0  0  0  0  0  0  0
    9.3231    4.5902    1.3902 O   0  0  0  0  0  0  0  0  0  0  0  0
   12.1100    3.0526    5.9895 C   0  0  0  0  0  0  0  0  0  0  0  0
   11.7670    4.4494    6.3738 N   0  0  0  0  0  0  0  0  0  0  0  0
  1  2  1  6  0  0  0
  1  7  1  0  0  0  0
  1 30  1  0  0  0  0
  3  4  1  1  0  0  0
  3  9  1  0  0  0  0
  3 39  1  0  0  0  0
  5 10  1  0  0  0  0
  5 26  1  0  0  0  0
  5 32  1  6  0  0  0
  6 12  1  0  0  0  0
  6 36  1  0  0  0  0
  6 19  1  1  0  0  0
  7  8  1  6  0  0  0
  7 14  1  0  0  0  0
  9 16  1  0  0  0  0
 10 11  1  1  0  0  0
 10 18  1  0  0  0  0
 12 13  1  1  0  0  0
 12 20  1  0  0  0  0
 14 15  1  1  0  0  0
 14 22  1  0  0  0  0
 16 17  1  6  0  0  0
 16 24  1  0  0  0  0
 18 19  1  6  0  0  0
 18 25  1  0  0  0  0
 20 21  1  6  0  0  0
 20 27  1  0  0  0  0
 22 23  1  6  0  0  0
 22 29  1  0  0  0  0
 24  2  1  6  0  0  0
 24 31  1  0  0  0  0
 25 26  1  0  0  0  0
 25 33  1  6  0  0  0
 27 28  1  1  0  0  0
 27 35  1  0  0  0  0
 29 30  1  0  0  0  0
 29 37  1  1  0  0  0
 31 32  1  1  0  0  0
 31 39  1  0  0  0  0
 33 34  1  0  0  0  0
 35 36  1  0  0  0  0
 35 41  1  1  0  0  0
 37 38  1  0  0  0  0
 39 40  1  1  0  0  0
 41 42  1  0  0  0  0
M  END
>  <CHROM.1>
-178.06110813,-170.90879476,-64.58720073,-81.23839051,58.62257450,61.81687639
160.84196723,150.94145653,178.98931722,6.76651951,2.53561413,1.67084189,2.48616148
-0.41210205,-0.96378122

>  <Name>
ligand

>  <RI>
0

>  <Rbt.Current_Directory>
/home/itssahil/PROJECTS/Mol_Feturizer/Test_systems_manuscript/rnas/2o3w

>  <Rbt.Executable>
rbdock ($Id: //depot/dev/client3/rdock/2013.1/src/exe/rbdock.cxx#4 $)

>  <Rbt.Library>
libRbt.so (2013.1, Build901 2013/11/27)

>  <Rbt.Parameter_File>
/export/apps/rDock/src/rDock_2013.1_src/data/scripts/dock_solv.prm

>  <Rbt.Receptor>
prm/pocket_docking_6.prm

>  <SCORE>
-9.00751

>  <SCORE.INTER>
0.990696

>  <SCORE.INTER.CONST>
1

>  <SCORE.INTER.POLAR>
0

>  <SCORE.INTER.ROT>
9

>  <SCORE.INTER.SOLV>
14.8112

>  <SCORE.INTER.VDW>
-13.8766

>  <SCORE.INTER.norm>
0.023588

>  <SCORE.INTRA>
-9.99821

>  <SCORE.INTRA.DIHEDRAL>
-20.1495

>  <SCORE.INTRA.DIHEDRAL.0>
27.8999

>  <SCORE.INTRA.POLAR>
0

>  <SCORE.INTRA.POLAR.0>
0

>  <SCORE.INTRA.REPUL>
0.00786247

>  <SCORE.INTRA.REPUL.0>
0

>  <SCORE.INTRA.SOLV>
-3.30577

>  <SCORE.INTRA.SOLV.lig_0>
-104.479

>  <SCORE.INTRA.VDW>
1.69012

>  <SCORE.INTRA.VDW.0>
-6.17816

>  <SCORE.INTRA.norm>
-0.238053

>  <SCORE.RESTR>
0

>  <SCORE.RESTR.CAVITY>
0

>  <SCORE.RESTR.norm>
0

>  <SCORE.SYSTEM>
0

>  <SCORE.SYSTEM.CONST>
0

>  <SCORE.SYSTEM.DIHEDRAL>
0

>  <SCORE.SYSTEM.SOLV>
0

>  <SCORE.SYSTEM.norm>
0

>  <SCORE.heavy>
42

>  <SCORE.norm>
-0.214465

>  <RMSD>
8.183

$$$$
ligand
 OpenBabel02271912133D
libRbt.so/2013.1/901 2013/11/27
 42 45  0  0  0  0  0  0  0  0999 V2000
    4.0156    1.7298   -0.6033 C   0  0  2  0  0  0  0  0  0  0  0  0
    3.6188    2.4389   -1.7894 O   0  0  0  0  0  0  0  0  0  0  0  0
    5.5549    5.5978   -4.0409 C   0  0  2  0  0  0  0  0  0  0  0  0
    6.2111    6.8850   -4.4188 N   0  0  0  0  0  0  0  0  0  0  0  0
    6.3154    3.8528    0.0056 C   0  0  1  0  0  0  0  0  0  0  0  0
    6.5682    4.1313    4.1258 C   0  0  1  0  0  0  0  0  0  0  0  0
    3.2657    0.3639   -0.6173 C   0  0  2  0  0  0  0  0  0  0  0  0
    3.4028   -0.3413   -1.9035 N   0  0  0  0  0  0  0  0  0  0  0  0
    4.0561    5.8280   -3.5910 C   0  0  0  0  0  0  0  0  0  0  0  0
    6.9380    3.0892    1.2140 C   0  0  2  0  0  0  0  0  0  0  0  0
    5.9721    2.3629    2.0131 O   0  0  0  0  0  0  0  0  0  0  0  0
    5.4695    4.7543    5.0604 C   0  0  2  0  0  0  0  0  0  0  0  0
    5.8047    6.1674    5.4093 N   0  0  0  0  0  0  0  0  0  0  0  0
    1.7566    0.5232   -0.3561 C   0  0  1  0  0  0  0  0  0  0  0  0
    1.1174   -0.7543   -0.3384 O   0  0  0  0  0  0  0  0  0  0  0  0
    3.4128    4.4363   -3.2277 C   0  0  2  0  0  0  0  0  0  0  0  0
    1.9951    4.6141   -2.8130 N   0  0  0  0  0  0  0  0  0  0  0  0
    7.6750    4.2205    1.9324 C   0  0  2  0  0  0  0  0  0  0  0  0
    6.8216    4.8728    2.9260 O   0  0  0  0  0  0  0  0  0  0  0  0
    5.3246    3.8549    6.3784 C   0  0  1  0  0  0  0  0  0  0  0  0
    4.6422    2.6282    6.0343 O   0  0  0  0  0  0  0  0  0  0  0  0
    1.5407    1.2808    0.9738 C   0  0  2  0  0  0  0  0  0  0  0  0
    0.1636    1.4202    1.2359 O   0  0  0  0  0  0  0  0  0  0  0  0
    4.2213    3.7355   -2.0653 C   0  0  2  0  0  0  0  0  0  0  0  0
    8.1087    5.2081    0.8361 C   0  0  2  0  0  0  0  0  0  0  0  0
    7.0846    5.0679   -0.1458 O   0  0  0  0  0  0  0  0  0  0  0  0
    6.7358    3.5114    7.0553 C   0  0  2  0  0  0  0  0  0  0  0  0
    7.2569    4.7217    7.6031 O   0  0  0  0  0  0  0  0  0  0  0  0
    2.2306    2.6826    0.8806 C   0  0  2  0  0  0  0  0  0  0  0  0
    3.6558    2.5117    0.5988 O   0  0  0  0  0  0  0  0  0  0  0  0
    5.7118    3.5285   -2.4128 C   0  0  2  0  0  0  0  0  0  0  0  0
    6.3280    3.0535   -1.1844 O   0  0  0  0  0  0  0  0  0  0  0  0
    9.5164    4.9330    0.2220 C   0  0  0  0  0  0  0  0  0  0  0  0
    9.5104    3.6599   -0.4168 O   0  0  0  0  0  0  0  0  0  0  0  0
    7.7345    2.9210    5.9893 C   0  0  1  0  0  0  0  0  0  0  0  0
    7.8400    3.9323    4.9232 O   0  0  0  0  0  0  0  0  0  0  0  0
    2.0741    3.4930    2.1465 C   0  0  0  0  0  0  0  0  0  0  0  0
    0.7165    3.7877    2.3689 O   0  0  0  0  0  0  0  0  0  0  0  0
    6.3631    4.8988   -2.8752 C   0  0  1  0  0  0  0  0  0  0  0  0
    7.6976    4.6787   -3.3402 O   0  0  0  0  0  0  0  0  0  0  0  0
    9.1756    2.5821    6.5699 C   0  0  0  0  0  0  0  0  0  0  0  0
   10.1615    2.0664    5.5808 N   0  0  0  0  0  0  0  0  0  0  0  0
  1  2  1  6  0  0  0
  1  7  1  0  0  0  0
  1 30  1  0  0  0  0
  3  4  1  1  0  0  0
  3  9  1  0  0  0  0
  3 39  1  0  0  0  0
  5 10  1  0  0  0  0
  5 26  1  0  0  0  0
  5 32  1  6  0  0  0
  6 12  1  0  0  0  0
  6 36  1  0  0  0  0
  6 19  1  6  0  0  0
  7  8  1  6  0  0  0
  7 14  1  0  0  0  0
  9 16  1  0  0  0  0
 10 11  1  1  0  0  0
 10 18  1  0  0  0  0
 12 13  1  1  0  0  0
 12 20  1  0  0  0  0
 14 15  1  1  0  0  0
 14 22  1  0  0  0  0
 16 17  1  1  0  0  0
 16 24  1  0  0  0  0
 18 19  1  1  0  0  0
 18 25  1  0  0  0  0
 20 21  1  6  0  0  0
 20 27  1  0  0  0  0
 22 23  1  6  0  0  0
 22 29  1  0  0  0  0
 24  2  1  6  0  0  0
 24 31  1  0  0  0  0
 25 26  1  0  0  0  0
 25 33  1  6  0  0  0
 27 28  1  6  0  0  0
 27 35  1  0  0  0  0
 29 30  1  0  0  0  0
 29 37  1  1  0  0  0
 31 32  1  1  0  0  0
 31 39  1  0  0  0  0
 33 34  1  0  0  0  0
 35 36  1  0  0  0  0
 35 41  1  1  0  0  0
 37 38  1  0  0  0  0
 39 40  1  6  0  0  0
 41 42  1  0  0  0  0
M  END
>  <CHROM.1>
-177.23157631,-168.05206695,73.51425767,-170.52628737,62.53255017,-64.00204102
-60.63709823,175.65049195,-177.95548475,5.32444330,3.43977546,1.11537327
2.03234073,-0.44982278,-1.41112517

>  <Name>
ligand

>  <RI>
0

>  <Rbt.Current_Directory>
/home/itssahil/PROJECTS/Mol_Feturizer/Test_systems_manuscript/rnas/2o3w

>  <Rbt.Executable>
rbdock ($Id: //depot/dev/client3/rdock/2013.1/src/exe/rbdock.cxx#4 $)

>  <Rbt.Library>
libRbt.so (2013.1, Build901 2013/11/27)

>  <Rbt.Parameter_File>
/export/apps/rDock/src/rDock_2013.1_src/data/scripts/dock_solv.prm

>  <Rbt.Receptor>
prm/pocket_docking_8.prm

>  <SCORE>
-16.9629

>  <SCORE.INTER>
-4.07803

>  <SCORE.INTER.CONST>
1

>  <SCORE.INTER.POLAR>
0

>  <SCORE.INTER.ROT>
9

>  <SCORE.INTER.SOLV>
10.5036

>  <SCORE.INTER.VDW>
-15.8199

>  <SCORE.INTER.norm>
-0.0970959

>  <SCORE.INTRA>
-12.8848

>  <SCORE.INTRA.DIHEDRAL>
-25.5623

>  <SCORE.INTRA.DIHEDRAL.0>
27.8999

>  <SCORE.INTRA.POLAR>
0

>  <SCORE.INTRA.POLAR.0>
0

>  <SCORE.INTRA.REPUL>
0

>  <SCORE.INTRA.REPUL.0>
0

>  <SCORE.INTRA.SOLV>
-4.15682

>  <SCORE.INTRA.SOLV.lig_0>
-104.479

>  <SCORE.INTRA.VDW>
1.97471

>  <SCORE.INTRA.VDW.0>
-6.17816

>  <SCORE.INTRA.norm>
-0.306782

>  <SCORE.RESTR>
0

>  <SCORE.RESTR.CAVITY>
0

>  <SCORE.RESTR.norm>
0

>  <SCORE.SYSTEM>
0

>  <SCORE.SYSTEM.CONST>
0

>  <SCORE.SYSTEM.DIHEDRAL>
0

>  <SCORE.SYSTEM.SOLV>
0

>  <SCORE.SYSTEM.norm>
0

>  <SCORE.heavy>
42

>  <SCORE.norm>
-0.403878

>  <RMSD>
8.185

$$$$
ligand
 OpenBabel02271912133D
libRbt.so/2013.1/901 2013/11/27
 42 45  0  0  0  0  0  0  0  0999 V2000
    1.4622    1.3133    1.7241 C   0  0  2  0  0  0  0  0  0  0  0  0
    0.6853    2.3015    2.4219 O   0  0  0  0  0  0  0  0  0  0  0  0
   -1.7561    3.5822   -0.9241 C   0  0  2  0  0  0  0  0  0  0  0  0
   -2.7174    4.3356   -1.7836 N   0  0  0  0  0  0  0  0  0  0  0  0
    2.6444    5.0020    0.7089 C   0  0  1  0  0  0  0  0  0  0  0  0
    6.0722    6.4106   -1.8377 C   0  0  1  0  0  0  0  0  0  0  0  0
    1.7703    0.1745    2.7422 C   0  0  2  0  0  0  0  0  0  0  0  0
    0.5647   -0.2903    3.4500 N   0  0  0  0  0  0  0  0  0  0  0  0
   -2.4894    2.9143    0.3079 C   0  0  0  0  0  0  0  0  0  0  0  0
    2.6947    5.1224   -0.8448 C   0  0  2  0  0  0  0  0  0  0  0  0
    2.9510    3.8692   -1.5250 O   0  0  0  0  0  0  0  0  0  0  0  0
    7.5218    5.8043   -1.8462 C   0  0  2  0  0  0  0  0  0  0  0  0
    8.0002    5.5462   -0.4550 N   0  0  0  0  0  0  0  0  0  0  0  0
    2.7783    0.6121    3.8208 C   0  0  1  0  0  0  0  0  0  0  0  0
    3.0608   -0.4724    4.7068 O   0  0  0  0  0  0  0  0  0  0  0  0
   -1.4310    2.1182    1.1614 C   0  0  2  0  0  0  0  0  0  0  0  0
   -2.0903    1.4634    2.3235 N   0  0  0  0  0  0  0  0  0  0  0  0
    3.7615    6.2036   -1.0244 C   0  0  2  0  0  0  0  0  0  0  0  0
    5.1007    5.6249   -1.1361 O   0  0  0  0  0  0  0  0  0  0  0  0
    8.5083    6.8035   -2.6179 C   0  0  1  0  0  0  0  0  0  0  0  0
    8.2360    6.7267   -4.0352 O   0  0  0  0  0  0  0  0  0  0  0  0
    4.0644    1.1363    3.1424 C   0  0  2  0  0  0  0  0  0  0  0  0
    5.0042    1.5254    4.1169 O   0  0  0  0  0  0  0  0  0  0  0  0
   -0.2896    3.0828    1.6738 C   0  0  2  0  0  0  0  0  0  0  0  0
    3.6506    7.1182    0.2071 C   0  0  2  0  0  0  0  0  0  0  0  0
    3.2071    6.2283    1.2289 O   0  0  0  0  0  0  0  0  0  0  0  0
    8.3653    8.3218   -2.1262 C   0  0  2  0  0  0  0  0  0  0  0  0
    8.8821    8.3951   -0.7980 O   0  0  0  0  0  0  0  0  0  0  0  0
    3.6972    2.3427    2.2154 C   0  0  2  0  0  0  0  0  0  0  0  0
    2.7141    1.9165    1.2195 O   0  0  0  0  0  0  0  0  0  0  0  0
    0.4359    3.8159    0.5242 C   0  0  2  0  0  0  0  0  0  0  0  0
    1.3073    4.7804    1.1760 O   0  0  0  0  0  0  0  0  0  0  0  0
    2.6709    8.3218    0.0470 C   0  0  0  0  0  0  0  0  0  0  0  0
    2.6237    9.0555    1.2670 O   0  0  0  0  0  0  0  0  0  0  0  0
    6.8563    8.7740   -2.1498 C   0  0  1  0  0  0  0  0  0  0  0  0
    6.1303    7.8218   -1.2916 O   0  0  0  0  0  0  0  0  0  0  0  0
    4.9004    2.9163    1.5034 C   0  0  0  0  0  0  0  0  0  0  0  0
    5.8098    3.4455    2.4374 O   0  0  0  0  0  0  0  0  0  0  0  0
   -0.6159    4.5494   -0.4093 C   0  0  1  0  0  0  0  0  0  0  0  0
    0.0403    5.0994   -1.5549 O   0  0  0  0  0  0  0  0  0  0  0  0
    6.6183   10.2624   -1.6432 C   0  0  0  0  0  0  0  0  0  0  0  0
    5.2314   10.7804   -1.8009 N   0  0  0  0  0  0  0  0  0  0  0  0
  1  2  1  1  0  0  0
  1  7  1  0  0  0  0
  1 30  1  0  0  0  0
  3  4  1  1  0  0  0
  3  9  1  0  0  0  0
  3 39  1  0  0  0  0
  5 10  1  0  0  0  0
  5 26  1  0  0  0  0
  5 32  1  1  0  0  0
  6 12  1  0  0  0  0
  6 36  1  0  0  0  0
  6 19  1  1  0  0  0
  7  8  1  1  0  0  0
  7 14  1  0  0  0  0
  9 16  1  0  0  0  0
 10 11  1  6  0  0  0
 10 18  1  0  0  0  0
 12 13  1  1  0  0  0
 12 20  1  0  0  0  0
 14 15  1  1  0  0  0
 14 22  1  0  0  0  0
 16 17  1  1  0  0  0
 16 24  1  0  0  0  0
 18 19  1  1  0  0  0
 18 25  1  0  0  0  0
 20 21  1  6  0  0  0
 20 27  1  0  0  0  0
 22 23  1  1  0  0  0
 22 29  1  0  0  0  0
 24  2  1  6  0  0  0
 24 31  1  0  0  0  0
 25 26  1  0  0  0  0
 25 33  1  6  0  0  0
 27 28  1  1  0  0  0
 27 35  1  0  0  0  0
 29 30  1  0  0  0  0
 29 37  1  6  0  0  0
 31 32  1  1  0  0  0
 31 39  1  0  0  0  0
 33 34  1  0  0  0  0
 35 36  1  0  0  0  0
 35 41  1  1  0  0  0
 37 38  1  0  0  0  0
 39 40  1  6  0  0  0
 41 42  1  0  0  0  0
M  END
>  <CHROM.1>
-149.12508308,65.65897159,154.90148884,175.77026343,177.86691516,-63.43215854
138.43443507,44.86041306,173.08957723,3.28983522,4.65386340,0.35638686,-2.30489979
-0.09266028,-0.62027571

>  <Name>
ligand

>  <RI>
0

>  <Rbt.Current_Directory>
/home/itssahil/PROJECTS/Mol_Feturizer/Test_systems_manuscript/rnas/2o3w

>  <Rbt.Executable>
rbdock ($Id: //depot/dev/client3/rdock/2013.1/src/exe/rbdock.cxx#4 $)

>  <Rbt.Library>
libRbt.so (2013.1, Build901 2013/11/27)

>  <Rbt.Parameter_File>
/export/apps/rDock/src/rDock_2013.1_src/data/scripts/dock_solv.prm

>  <Rbt.Receptor>
prm/pocket_docking_8.prm

>  <SCORE>
-7.60067

>  <SCORE.INTER>
-0.649875

>  <SCORE.INTER.CONST>
1

>  <SCORE.INTER.POLAR>
0

>  <SCORE.INTER.ROT>
9

>  <SCORE.INTER.SOLV>
13.5312

>  <SCORE.INTER.VDW>
-14.5436

>  <SCORE.INTER.norm>
-0.0154732

>  <SCORE.INTRA>
-6.95079

>  <SCORE.INTRA.DIHEDRAL>
-14.1193

>  <SCORE.INTRA.DIHEDRAL.0>
27.8999

>  <SCORE.INTRA.POLAR>
0

>  <SCORE.INTRA.POLAR.0>
0

>  <SCORE.INTRA.REPUL>
0

>  <SCORE.INTRA.REPUL.0>
0

>  <SCORE.INTRA.SOLV>
-1.71675

>  <SCORE.INTRA.SOLV.lig_0>
-104.479

>  <SCORE.INTRA.VDW>
0.967241

>  <SCORE.INTRA.VDW.0>
-6.17816

>  <SCORE.INTRA.norm>
-0.165495

>  <SCORE.RESTR>
0

>  <SCORE.RESTR.CAVITY>
0

>  <SCORE.RESTR.norm>
0

>  <SCORE.SYSTEM>
0

>  <SCORE.SYSTEM.CONST>
0

>  <SCORE.SYSTEM.DIHEDRAL>
0

>  <SCORE.SYSTEM.SOLV>
0

>  <SCORE.SYSTEM.norm>
0

>  <SCORE.heavy>
42

>  <SCORE.norm>
-0.180968

>  <RMSD>
8.237

$$$$
ligand
 OpenBabel02271912133D
libRbt.so/2013.1/901 2013/11/27
 42 45  0  0  0  0  0  0  0  0999 V2000
   12.1680    5.3285    6.6613 C   0  0  2  0  0  0  0  0  0  0  0  0
   13.4568    4.7005    6.5531 O   0  0  0  0  0  0  0  0  0  0  0  0
   15.5311    1.6347    8.8102 C   0  0  2  0  0  0  0  0  0  0  0  0
   16.0976    0.8231    9.9286 N   0  0  0  0  0  0  0  0  0  0  0  0
   10.8580    2.6453    7.2005 C   0  0  1  0  0  0  0  0  0  0  0  0
    7.1789    1.4087    5.3012 C   0  0  1  0  0  0  0  0  0  0  0  0
   11.6627    5.5835    5.2095 C   0  0  2  0  0  0  0  0  0  0  0  0
   11.7605    4.3839    4.3597 N   0  0  0  0  0  0  0  0  0  0  0  0
   16.1780    3.0773    8.7630 C   0  0  0  0  0  0  0  0  0  0  0  0
   10.4229    1.1490    7.2502 C   0  0  2  0  0  0  0  0  0  0  0  0
   11.1219    0.3004    6.3066 O   0  0  0  0  0  0  0  0  0  0  0  0
    6.7396    0.8332    3.9067 C   0  0  2  0  0  0  0  0  0  0  0  0
    7.5869    1.3889    2.8094 N   0  0  0  0  0  0  0  0  0  0  0  0
   12.4572    6.6962    4.5013 C   0  0  1  0  0  0  0  0  0  0  0  0
   11.9355    6.9230    3.1909 O   0  0  0  0  0  0  0  0  0  0  0  0
   15.5589    3.8749    7.5534 C   0  0  2  0  0  0  0  0  0  0  0  0
   16.1568    5.2347    7.4700 N   0  0  0  0  0  0  0  0  0  0  0  0
    8.9131    1.2716    7.0383 C   0  0  2  0  0  0  0  0  0  0  0  0
    8.5623    1.2120    5.6191 O   0  0  0  0  0  0  0  0  0  0  0  0
    5.1912    1.1644    3.6621 C   0  0  1  0  0  0  0  0  0  0  0  0
    4.3911    0.3085    4.5084 O   0  0  0  0  0  0  0  0  0  0  0  0
   12.4155    7.9834    5.3560 C   0  0  2  0  0  0  0  0  0  0  0  0
   13.1246    9.0171    4.7131 O   0  0  0  0  0  0  0  0  0  0  0  0
   13.9912    3.9937    7.7086 C   0  0  2  0  0  0  0  0  0  0  0  0
    8.5057    2.6194    7.6570 C   0  0  2  0  0  0  0  0  0  0  0  0
    9.6690    3.4224    7.4718 O   0  0  0  0  0  0  0  0  0  0  0  0
    4.8293    2.6976    3.9551 C   0  0  2  0  0  0  0  0  0  0  0  0
    5.4442    3.4875    2.9381 O   0  0  0  0  0  0  0  0  0  0  0  0
   13.0314    7.6823    6.7629 C   0  0  2  0  0  0  0  0  0  0  0  0
   12.2849    6.6007    7.4054 O   0  0  0  0  0  0  0  0  0  0  0  0
   13.2944    2.6197    7.8182 C   0  0  2  0  0  0  0  0  0  0  0  0
   11.9078    2.9190    8.1376 O   0  0  0  0  0  0  0  0  0  0  0  0
    8.1006    2.5570    9.1624 C   0  0  0  0  0  0  0  0  0  0  0  0
    8.0472    3.8788    9.6904 O   0  0  0  0  0  0  0  0  0  0  0  0
    5.3555    3.1313    5.3753 C   0  0  1  0  0  0  0  0  0  0  0  0
    6.8062    2.8747    5.3701 O   0  0  0  0  0  0  0  0  0  0  0  0
   13.0251    8.8902    7.6711 C   0  0  0  0  0  0  0  0  0  0  0  0
   11.7091    9.3526    7.8538 O   0  0  0  0  0  0  0  0  0  0  0  0
   13.9624    1.7556    8.9684 C   0  0  1  0  0  0  0  0  0  0  0  0
   13.4204    0.4320    8.9692 O   0  0  0  0  0  0  0  0  0  0  0  0
    5.0679    4.6532    5.7355 C   0  0  0  0  0  0  0  0  0  0  0  0
    3.6721    5.1157    5.5021 N   0  0  0  0  0  0  0  0  0  0  0  0
  1  2  1  6  0  0  0
  1  7  1  0  0  0  0
  1 30  1  0  0  0  0
  3  4  1  1  0  0  0
  3  9  1  0  0  0  0
  3 39  1  0  0  0  0
  5 10  1  0  0  0  0
  5 26  1  0  0  0  0
  5 32  1  1  0  0  0
  6 12  1  0  0  0  0
  6 36  1  0  0  0  0
  6 19  1  6  0  0  0
  7  8  1  6  0  0  0
  7 14  1  0  0  0  0
  9 16  1  0  0  0  0
 10 11  1  6  0  0  0
 10 18  1  0  0  0  0
 12 13  1  6  0  0  0
 12 20  1  0  0  0  0
 14 15  1  6  0  0  0
 14 22  1  0  0  0  0
 16 17  1  1  0  0  0
 16 24  1  0  0  0  0
 18 19  1  6  0  0  0
 18 25  1  0  0  0  0
 20 21  1  1  0  0  0
 20 27  1  0  0  0  0
 22 23  1  6  0  0  0
 22 29  1  0  0  0  0
 24  2  1  6  0  0  0
 24 31  1  0  0  0  0
 25 26  1  0  0  0  0
 25 33  1  1  0  0  0
 27 28  1  6  0  0  0
 27 35  1  0  0  0  0
 29 30  1  0  0  0  0
 29 37  1  1  0  0  0
 31 32  1  1  0  0  0
 31 39  1  0  0  0  0
 33 34  1  0  0  0  0
 35 36  1  0  0  0  0
 35 41  1  6  0  0  0
 37 38  1  0  0  0  0
 39 40  1  6  0  0  0
 41 42  1  0  0  0  0
M  END
>  <CHROM.1>
-161.97603067,-158.98113361,-175.90845041,-158.49047473,166.74031004,58.92519681
112.65176186,81.81903350,48.62390873,10.49260355,3.72784970,6.44625995,0.16693626
-0.38276296,-0.31788540

>  <Name>
ligand

>  <RI>
0

>  <Rbt.Current_Directory>
/home/itssahil/PROJECTS/Mol_Feturizer/Test_systems_manuscript/rnas/2o3w

>  <Rbt.Executable>
rbdock ($Id: //depot/dev/client3/rdock/2013.1/src/exe/rbdock.cxx#4 $)

>  <Rbt.Library>
libRbt.so (2013.1, Build901 2013/11/27)

>  <Rbt.Parameter_File>
/export/apps/rDock/src/rDock_2013.1_src/data/scripts/dock_solv.prm

>  <Rbt.Receptor>
prm/pocket_docking_7.prm

>  <SCORE>
-12.115

>  <SCORE.INTER>
-5.96668

>  <SCORE.INTER.CONST>
1

>  <SCORE.INTER.POLAR>
0

>  <SCORE.INTER.ROT>
9

>  <SCORE.INTER.SOLV>
18.6374

>  <SCORE.INTER.VDW>
-19.7903

>  <SCORE.INTER.norm>
-0.142064

>  <SCORE.INTRA>
-6.14836

>  <SCORE.INTRA.DIHEDRAL>
-12.1029

>  <SCORE.INTRA.DIHEDRAL.0>
27.8999

>  <SCORE.INTRA.POLAR>
0

>  <SCORE.INTRA.POLAR.0>
0

>  <SCORE.INTRA.REPUL>
0

>  <SCORE.INTRA.REPUL.0>
0

>  <SCORE.INTRA.SOLV>
-3.48205

>  <SCORE.INTRA.SOLV.lig_0>
-104.479

>  <SCORE.INTRA.VDW>
1.64411

>  <SCORE.INTRA.VDW.0>
-6.17816

>  <SCORE.INTRA.norm>
-0.146389

>  <SCORE.RESTR>
0

>  <SCORE.RESTR.CAVITY>
0

>  <SCORE.RESTR.norm>
0

>  <SCORE.SYSTEM>
0

>  <SCORE.SYSTEM.CONST>
0

>  <SCORE.SYSTEM.DIHEDRAL>
0

>  <SCORE.SYSTEM.SOLV>
0

>  <SCORE.SYSTEM.norm>
0

>  <SCORE.heavy>
42

>  <SCORE.norm>
-0.288453

>  <RMSD>
8.243

$$$$
ligand
 OpenBabel02271912133D
libRbt.so/2013.1/901 2013/11/27
 42 45  0  0  0  0  0  0  0  0999 V2000
    5.0037    4.9946    2.7581 C   0  0  2  0  0  0  0  0  0  0  0  0
    6.1263    4.6710    1.9200 O   0  0  0  0  0  0  0  0  0  0  0  0
    4.7259    0.8907    0.3249 C   0  0  2  0  0  0  0  0  0  0  0  0
    4.5582   -0.3246   -0.5268 N   0  0  0  0  0  0  0  0  0  0  0  0
    8.3742    2.7390    3.3228 C   0  0  1  0  0  0  0  0  0  0  0  0
   10.8924    4.0631    6.6962 C   0  0  1  0  0  0  0  0  0  0  0  0
    5.3882    6.2745    3.5595 C   0  0  2  0  0  0  0  0  0  0  0  0
    5.9158    7.3440    2.6944 N   0  0  0  0  0  0  0  0  0  0  0  0
    4.3609    2.2062   -0.4740 C   0  0  0  0  0  0  0  0  0  0  0  0
    9.8694    2.3284    3.4859 C   0  0  2  0  0  0  0  0  0  0  0  0
   10.0595    0.9912    4.0099 O   0  0  0  0  0  0  0  0  0  0  0  0
   12.4614    4.0947    6.6182 C   0  0  2  0  0  0  0  0  0  0  0  0
   13.0328    2.7287    6.8144 N   0  0  0  0  0  0  0  0  0  0  0  0
    6.4625    5.9951    4.6267 C   0  0  1  0  0  0  0  0  0  0  0  0
    6.7546    7.1847    5.3617 O   0  0  0  0  0  0  0  0  0  0  0  0
    4.5351    3.4477    0.4805 C   0  0  2  0  0  0  0  0  0  0  0  0
    4.1853    4.7040   -0.2357 N   0  0  0  0  0  0  0  0  0  0  0  0
   10.3954    3.4648    4.3641 C   0  0  2  0  0  0  0  0  0  0  0  0
   10.2678    3.1484    5.7869 O   0  0  0  0  0  0  0  0  0  0  0  0
   13.0249    5.1172    7.7154 C   0  0  1  0  0  0  0  0  0  0  0  0
   12.7616    6.4680    7.2739 O   0  0  0  0  0  0  0  0  0  0  0  0
    5.9806    4.8599    5.5585 C   0  0  2  0  0  0  0  0  0  0  0  0
    6.9461    4.6033    6.5517 O   0  0  0  0  0  0  0  0  0  0  0  0
    6.0197    3.5368    1.0130 C   0  0  2  0  0  0  0  0  0  0  0  0
    9.5671    4.7064    3.9929 C   0  0  2  0  0  0  0  0  0  0  0  0
    8.3072    4.1524    3.6211 O   0  0  0  0  0  0  0  0  0  0  0  0
   12.3801    4.8918    9.1649 C   0  0  2  0  0  0  0  0  0  0  0  0
   12.8720    3.6499    9.6670 O   0  0  0  0  0  0  0  0  0  0  0  0
    5.7123    3.5767    4.7034 C   0  0  2  0  0  0  0  0  0  0  0  0
    4.7149    3.8709    3.6745 O   0  0  0  0  0  0  0  0  0  0  0  0
    6.4665    2.2597    1.7577 C   0  0  2  0  0  0  0  0  0  0  0  0
    7.8875    2.4407    2.0078 O   0  0  0  0  0  0  0  0  0  0  0  0
   10.1613    5.5733    2.8398 C   0  0  0  0  0  0  0  0  0  0  0  0
   11.4662    6.0121    3.2056 O   0  0  0  0  0  0  0  0  0  0  0  0
   10.8075    4.8590    9.0747 C   0  0  1  0  0  0  0  0  0  0  0  0
   10.4745    3.7835    8.1246 O   0  0  0  0  0  0  0  0  0  0  0  0
    5.2289    2.4128    5.5373 C   0  0  0  0  0  0  0  0  0  0  0  0
    5.0069    1.2896    4.7197 O   0  0  0  0  0  0  0  0  0  0  0  0
    6.2131    0.9806    0.8548 C   0  0  1  0  0  0  0  0  0  0  0  0
    6.4841   -0.2103    1.5989 O   0  0  0  0  0  0  0  0  0  0  0  0
   10.0841    4.6052   10.4678 C   0  0  0  0  0  0  0  0  0  0  0  0
   10.2635    5.6738   11.4888 N   0  0  0  0  0  0  0  0  0  0  0  0
  1  2  1  6  0  0  0
  1  7  1  0  0  0  0
  1 30  1  0  0  0  0
  3  4  1  6  0  0  0
  3  9  1  0  0  0  0
  3 39  1  0  0  0  0
  5 10  1  0  0  0  0
  5 26  1  0  0  0  0
  5 32  1  6  0  0  0
  6 12  1  0  0  0  0
  6 36  1  0  0  0  0
  6 19  1  6  0  0  0
  7  8  1  6  0  0  0
  7 14  1  0  0  0  0
  9 16  1  0  0  0  0
 10 11  1  1  0  0  0
 10 18  1  0  0  0  0
 12 13  1  1  0  0  0
 12 20  1  0  0  0  0
 14 15  1  1  0  0  0
 14 22  1  0  0  0  0
 16 17  1  6  0  0  0
 16 24  1  0  0  0  0
 18 19  1  1  0  0  0
 18 25  1  0  0  0  0
 20 21  1  6  0  0  0
 20 27  1  0  0  0  0
 22 23  1  1  0  0  0
 22 29  1  0  0  0  0
 24  2  1  1  0  0  0
 24 31  1  0  0  0  0
 25 26  1  0  0  0  0
 25 33  1  6  0  0  0
 27 28  1  6  0  0  0
 27 35  1  0  0  0  0
 29 30  1  0  0  0  0
 29 37  1  1  0  0  0
 31 32  1  6  0  0  0
 31 39  1  0  0  0  0
 33 34  1  0  0  0  0
 35 36  1  0  0  0  0
 35 41  1  1  0  0  0
 37 38  1  0  0  0  0
 39 40  1  1  0  0  0
 41 42  1  0  0  0  0
M  END
>  <CHROM.1>
-177.55049065,34.98099840,171.90398568,-66.65037361,-58.59206640,-179.89659230
106.37119845,156.90396138,64.84765553,8.16862055,3.80547995,4.45846933,2.44200352
0.53373388,-2.39537590

>  <Name>
ligand

>  <RI>
0

>  <Rbt.Current_Directory>
/home/itssahil/PROJECTS/Mol_Feturizer/Test_systems_manuscript/rnas/2o3w

>  <Rbt.Executable>
rbdock ($Id: //depot/dev/client3/rdock/2013.1/src/exe/rbdock.cxx#4 $)

>  <Rbt.Library>
libRbt.so (2013.1, Build901 2013/11/27)

>  <Rbt.Parameter_File>
/export/apps/rDock/src/rDock_2013.1_src/data/scripts/dock_solv.prm

>  <Rbt.Receptor>
prm/pocket_docking_8.prm

>  <SCORE>
-10.0382

>  <SCORE.INTER>
-1.09211

>  <SCORE.INTER.CONST>
1

>  <SCORE.INTER.POLAR>
0

>  <SCORE.INTER.ROT>
9

>  <SCORE.INTER.SOLV>
8.22189

>  <SCORE.INTER.VDW>
-13.0687

>  <SCORE.INTER.norm>
-0.0260026

>  <SCORE.INTRA>
-8.94613

>  <SCORE.INTRA.DIHEDRAL>
-15.8107

>  <SCORE.INTRA.DIHEDRAL.0>
27.8999

>  <SCORE.INTRA.POLAR>
0

>  <SCORE.INTRA.POLAR.0>
0

>  <SCORE.INTRA.REPUL>
0.116396

>  <SCORE.INTRA.REPUL.0>
0

>  <SCORE.INTRA.SOLV>
-2.74247

>  <SCORE.INTRA.SOLV.lig_0>
-104.479

>  <SCORE.INTRA.VDW>
-0.251503

>  <SCORE.INTRA.VDW.0>
-6.17816

>  <SCORE.INTRA.norm>
-0.213003

>  <SCORE.RESTR>
0

>  <SCORE.RESTR.CAVITY>
0

>  <SCORE.RESTR.norm>
0

>  <SCORE.SYSTEM>
0

>  <SCORE.SYSTEM.CONST>
0

>  <SCORE.SYSTEM.DIHEDRAL>
0

>  <SCORE.SYSTEM.SOLV>
0

>  <SCORE.SYSTEM.norm>
0

>  <SCORE.heavy>
42

>  <SCORE.norm>
-0.239006

>  <RMSD>
8.258

$$$$
ligand
 OpenBabel02271912133D
libRbt.so/2013.1/901 2013/11/27
 42 45  0  0  0  0  0  0  0  0999 V2000
    5.0524    4.2222    0.9435 C   0  0  2  0  0  0  0  0  0  0  0  0
    3.8383    3.7757    1.5711 O   0  0  0  0  0  0  0  0  0  0  0  0
    3.1923    0.4770    4.3092 C   0  0  2  0  0  0  0  0  0  0  0  0
    3.1053   -0.8925    4.8986 N   0  0  0  0  0  0  0  0  0  0  0  0
    7.3330    2.3279    3.1995 C   0  0  1  0  0  0  0  0  0  0  0  0
    9.7240    1.8299    4.9847 C   0  0  1  0  0  0  0  0  0  0  0  0
    4.7395    5.5922    0.2702 C   0  0  2  0  0  0  0  0  0  0  0  0
    4.0681    6.5304    1.1866 N   0  0  0  0  0  0  0  0  0  0  0  0
    2.1669    0.6554    3.1181 C   0  0  0  0  0  0  0  0  0  0  0  0
    8.5665    2.4200    2.2504 C   0  0  2  0  0  0  0  0  0  0  0  0
    9.1220    1.1342    1.8796 O   0  0  0  0  0  0  0  0  0  0  0  0
   10.5490    1.7253    6.3178 C   0  0  2  0  0  0  0  0  0  0  0  0
   11.9030    1.1483    6.0633 N   0  0  0  0  0  0  0  0  0  0  0  0
    3.8268    5.4432   -0.9610 C   0  0  1  0  0  0  0  0  0  0  0  0
    3.5992    6.7161   -1.5683 O   0  0  0  0  0  0  0  0  0  0  0  0
    2.2898    2.1215    2.5543 C   0  0  2  0  0  0  0  0  0  0  0  0
    1.3270    2.3295    1.4392 N   0  0  0  0  0  0  0  0  0  0  0  0
    9.4923    3.3344    3.0542 C   0  0  2  0  0  0  0  0  0  0  0  0
   10.3695    2.5679    3.9396 O   0  0  0  0  0  0  0  0  0  0  0  0
    9.7350    0.8386    7.3751 C   0  0  1  0  0  0  0  0  0  0  0  0
    8.6203    1.6119    7.8735 O   0  0  0  0  0  0  0  0  0  0  0  0
    4.4638    4.4482   -1.9576 C   0  0  2  0  0  0  0  0  0  0  0  0
    3.6483    4.3135   -3.0984 O   0  0  0  0  0  0  0  0  0  0  0  0
    3.7590    2.4012    2.0452 C   0  0  2  0  0  0  0  0  0  0  0  0
    8.5726    4.2711    3.8555 C   0  0  2  0  0  0  0  0  0  0  0  0
    7.4178    3.4674    4.0859 O   0  0  0  0  0  0  0  0  0  0  0  0
    9.1973   -0.5358    6.7511 C   0  0  2  0  0  0  0  0  0  0  0  0
   10.3291   -1.3695    6.5054 O   0  0  0  0  0  0  0  0  0  0  0  0
    4.6547    3.0664   -1.2479 C   0  0  2  0  0  0  0  0  0  0  0  0
    5.4958    3.2340   -0.0629 O   0  0  0  0  0  0  0  0  0  0  0  0
    4.8237    2.1909    3.1440 C   0  0  2  0  0  0  0  0  0  0  0  0
    6.1033    2.3067    2.4630 O   0  0  0  0  0  0  0  0  0  0  0  0
    8.1956    5.6008    3.1317 C   0  0  0  0  0  0  0  0  0  0  0  0
    7.5537    5.2984    1.8966 O   0  0  0  0  0  0  0  0  0  0  0  0
    8.4153   -0.2688    5.4096 C   0  0  1  0  0  0  0  0  0  0  0  0
    9.3556    0.4361    4.5213 O   0  0  0  0  0  0  0  0  0  0  0  0
    5.2809    2.0299   -2.1519 C   0  0  0  0  0  0  0  0  0  0  0  0
    5.3219    0.7821   -1.5034 O   0  0  0  0  0  0  0  0  0  0  0  0
    4.6624    0.7545    3.7970 C   0  0  1  0  0  0  0  0  0  0  0  0
    5.5465    0.6177    4.9129 O   0  0  0  0  0  0  0  0  0  0  0  0
    7.8737   -1.5861    4.7025 C   0  0  0  0  0  0  0  0  0  0  0  0
    7.0175   -2.4631    5.5478 N   0  0  0  0  0  0  0  0  0  0  0  0
  1  2  1  6  0  0  0
  1  7  1  0  0  0  0
  1 30  1  0  0  0  0
  3  4  1  6  0  0  0
  3  9  1  0  0  0  0
  3 39  1  0  0  0  0
  5 10  1  0  0  0  0
  5 26  1  0  0  0  0
  5 32  1  6  0  0  0
  6 12  1  0  0  0  0
  6 36  1  0  0  0  0
  6 19  1  6  0  0  0
  7  8  1  1  0  0  0
  7 14  1  0  0  0  0
  9 16  1  0  0  0  0
 10 11  1  1  0  0  0
 10 18  1  0  0  0  0
 12 13  1  6  0  0  0
 12 20  1  0  0  0  0
 14 15  1  6  0  0  0
 14 22  1  0  0  0  0
 16 17  1  6  0  0  0
 16 24  1  0  0  0  0
 18 19  1  1  0  0  0
 18 25  1  0  0  0  0
 20 21  1  6  0  0  0
 20 27  1  0  0  0  0
 22 23  1  6  0  0  0
 22 29  1  0  0  0  0
 24  2  1  1  0  0  0
 24 31  1  0  0  0  0
 25 26  1  0  0  0  0
 25 33  1  6  0  0  0
 27 28  1  6  0  0  0
 27 35  1  0  0  0  0
 29 30  1  0  0  0  0
 29 37  1  6  0  0  0
 31 32  1  6  0  0  0
 31 39  1  0  0  0  0
 33 34  1  0  0  0  0
 35 36  1  0  0  0  0
 35 41  1  6  0  0  0
 37 38  1  0  0  0  0
 39 40  1  1  0  0  0
 41 42  1  0  0  0  0
M  END
>  <CHROM.1>
167.69158803,-174.31762217,-64.49432803,-146.36758753,58.20909862,-174.91663189
172.36014241,178.48355701,54.92906187,6.45532122,2.26426307,2.77224486,-2.25628246
0.36985044,2.38233244

>  <Name>
ligand

>  <RI>
0

>  <Rbt.Current_Directory>
/home/itssahil/PROJECTS/Mol_Feturizer/Test_systems_manuscript/rnas/2o3w

>  <Rbt.Executable>
rbdock ($Id: //depot/dev/client3/rdock/2013.1/src/exe/rbdock.cxx#4 $)

>  <Rbt.Library>
libRbt.so (2013.1, Build901 2013/11/27)

>  <Rbt.Parameter_File>
/export/apps/rDock/src/rDock_2013.1_src/data/scripts/dock_solv.prm

>  <Rbt.Receptor>
prm/pocket_docking_5.prm

>  <SCORE>
-10.4717

>  <SCORE.INTER>
0.45702

>  <SCORE.INTER.CONST>
1

>  <SCORE.INTER.POLAR>
0

>  <SCORE.INTER.ROT>
9

>  <SCORE.INTER.SOLV>
17.0573

>  <SCORE.INTER.VDW>
-14.9811

>  <SCORE.INTER.norm>
0.0108814

>  <SCORE.INTRA>
-10.9287

>  <SCORE.INTRA.DIHEDRAL>
-22.063

>  <SCORE.INTRA.DIHEDRAL.0>
27.8999

>  <SCORE.INTRA.POLAR>
0

>  <SCORE.INTRA.POLAR.0>
0

>  <SCORE.INTRA.REPUL>
0

>  <SCORE.INTRA.REPUL.0>
0

>  <SCORE.INTRA.SOLV>
-2.08969

>  <SCORE.INTRA.SOLV.lig_0>
-104.479

>  <SCORE.INTRA.VDW>
1.14765

>  <SCORE.INTRA.VDW.0>
-6.17816

>  <SCORE.INTRA.norm>
-0.260207

>  <SCORE.RESTR>
0

>  <SCORE.RESTR.CAVITY>
0

>  <SCORE.RESTR.norm>
0

>  <SCORE.SYSTEM>
0

>  <SCORE.SYSTEM.CONST>
0

>  <SCORE.SYSTEM.DIHEDRAL>
0

>  <SCORE.SYSTEM.SOLV>
0

>  <SCORE.SYSTEM.norm>
0

>  <SCORE.heavy>
42

>  <SCORE.norm>
-0.249325

>  <RMSD>
8.268

$$$$
ligand
 OpenBabel02271912133D
libRbt.so/2013.1/901 2013/11/27
 42 45  0  0  0  0  0  0  0  0999 V2000
    6.8415    4.8845    2.0872 C   0  0  2  0  0  0  0  0  0  0  0  0
    8.1639    4.8682    2.6513 O   0  0  0  0  0  0  0  0  0  0  0  0
   10.8274    1.6912    3.9194 C   0  0  2  0  0  0  0  0  0  0  0  0
   11.3772    0.4635    4.5682 N   0  0  0  0  0  0  0  0  0  0  0  0
    6.7472    1.3515    2.3620 C   0  0  1  0  0  0  0  0  0  0  0  0
    5.2286   -0.9370    3.6717 C   0  0  1  0  0  0  0  0  0  0  0  0
    6.6739    6.2523    1.3597 C   0  0  2  0  0  0  0  0  0  0  0  0
    7.7978    6.5513    0.4553 N   0  0  0  0  0  0  0  0  0  0  0  0
   10.4030    2.7687    4.9968 C   0  0  0  0  0  0  0  0  0  0  0  0
    6.2956    1.9216    3.7411 C   0  0  2  0  0  0  0  0  0  0  0  0
    7.1085    1.4797    4.8560 O   0  0  0  0  0  0  0  0  0  0  0  0
    4.3539   -1.4347    2.4651 C   0  0  2  0  0  0  0  0  0  0  0  0
    2.9706   -1.7754    2.9138 N   0  0  0  0  0  0  0  0  0  0  0  0
    6.5715    7.4302    2.3463 C   0  0  1  0  0  0  0  0  0  0  0  0
    6.3795    8.6563    1.6388 O   0  0  0  0  0  0  0  0  0  0  0  0
    9.8539    4.0448    4.2534 C   0  0  2  0  0  0  0  0  0  0  0  0
    9.4579    5.0871    5.2384 N   0  0  0  0  0  0  0  0  0  0  0  0
    4.8298    1.4866    3.7767 C   0  0  2  0  0  0  0  0  0  0  0  0
    4.6744    0.1694    4.3945 O   0  0  0  0  0  0  0  0  0  0  0  0
    5.0649   -2.6977    1.7822 C   0  0  1  0  0  0  0  0  0  0  0  0
    6.2158   -2.2398    1.0375 O   0  0  0  0  0  0  0  0  0  0  0  0
    5.4207    7.1682    3.3444 C   0  0  2  0  0  0  0  0  0  0  0  0
    5.3030    8.2456    4.2443 O   0  0  0  0  0  0  0  0  0  0  0  0
    8.6135    3.6717    3.3488 C   0  0  2  0  0  0  0  0  0  0  0  0
    4.3545    1.4757    2.3141 C   0  0  2  0  0  0  0  0  0  0  0  0
    5.5395    1.1447    1.5939 O   0  0  0  0  0  0  0  0  0  0  0  0
    5.5211   -3.8053    2.8464 C   0  0  2  0  0  0  0  0  0  0  0  0
    4.3401   -4.4065    3.3758 O   0  0  0  0  0  0  0  0  0  0  0  0
    5.7048    5.8345    4.1125 C   0  0  2  0  0  0  0  0  0  0  0  0
    5.8323    4.7341    3.1571 O   0  0  0  0  0  0  0  0  0  0  0  0
    8.9395    2.5800    2.3061 C   0  0  2  0  0  0  0  0  0  0  0  0
    7.6625    2.2356    1.7018 O   0  0  0  0  0  0  0  0  0  0  0  0
    3.7483    2.8217    1.8090 C   0  0  0  0  0  0  0  0  0  0  0  0
    2.6265    3.1649    2.6169 O   0  0  0  0  0  0  0  0  0  0  0  0
    6.3650   -3.1497    4.0040 C   0  0  1  0  0  0  0  0  0  0  0  0
    5.5093   -2.1053    4.5933 O   0  0  0  0  0  0  0  0  0  0  0  0
    4.6212    5.4957    5.1099 C   0  0  0  0  0  0  0  0  0  0  0  0
    3.3891    5.3326    4.4506 O   0  0  0  0  0  0  0  0  0  0  0  0
    9.5840    1.3171    3.0168 C   0  0  1  0  0  0  0  0  0  0  0  0
   10.0237    0.3711    2.0383 O   0  0  0  0  0  0  0  0  0  0  0  0
    6.8321   -4.1753    5.1258 C   0  0  0  0  0  0  0  0  0  0  0  0
    7.8353   -5.1869    4.6937 N   0  0  0  0  0  0  0  0  0  0  0  0
  1  2  1  1  0  0  0
  1  7  1  0  0  0  0
  1 30  1  0  0  0  0
  3  4  1  1  0  0  0
  3  9  1  0  0  0  0
  3 39  1  0  0  0  0
  5 10  1  0  0  0  0
  5 26  1  0  0  0  0
  5 32  1  6  0  0  0
  6 12  1  0  0  0  0
  6 36  1  0  0  0  0
  6 19  1  1  0  0  0
  7  8  1  6  0  0  0
  7 14  1  0  0  0  0
  9 16  1  0  0  0  0
 10 11  1  1  0  0  0
 10 18  1  0  0  0  0
 12 13  1  1  0  0  0
 12 20  1  0  0  0  0
 14 15  1  6  0  0  0
 14 22  1  0  0  0  0
 16 17  1  1  0  0  0
 16 24  1  0  0  0  0
 18 19  1  6  0  0  0
 18 25  1  0  0  0  0
 20 21  1  1  0  0  0
 20 27  1  0  0  0  0
 22 23  1  1  0  0  0
 22 29  1  0  0  0  0
 24  2  1  6  0  0  0
 24 31  1  0  0  0  0
 25 26  1  0  0  0  0
 25 33  1  6  0  0  0
 27 28  1  1  0  0  0
 27 35  1  0  0  0  0
 29 30  1  0  0  0  0
 29 37  1  1  0  0  0
 31 32  1  1  0  0  0
 31 39  1  0  0  0  0
 33 34  1  0  0  0  0
 35 36  1  0  0  0  0
 35 41  1  1  0  0  0
 37 38  1  0  0  0  0
 39 40  1  6  0  0  0
 41 42  1  0  0  0  0
M  END
>  <CHROM.1>
-177.49111647,-161.93362676,-67.07910601,-78.43265635,-59.28906182,60.79541443
-79.89025049,60.79956022,67.84531324,6.52644286,1.98189775,3.19625672,1.50147922
-0.11694437,-0.05757466

>  <Name>
ligand

>  <RI>
0

>  <Rbt.Current_Directory>
/home/itssahil/PROJECTS/Mol_Feturizer/Test_systems_manuscript/rnas/2o3w

>  <Rbt.Executable>
rbdock ($Id: //depot/dev/client3/rdock/2013.1/src/exe/rbdock.cxx#4 $)

>  <Rbt.Library>
libRbt.so (2013.1, Build901 2013/11/27)

>  <Rbt.Parameter_File>
/export/apps/rDock/src/rDock_2013.1_src/data/scripts/dock_solv.prm

>  <Rbt.Receptor>
prm/pocket_docking_4.prm

>  <SCORE>
-8.05006

>  <SCORE.INTER>
2.63244

>  <SCORE.INTER.CONST>
1

>  <SCORE.INTER.POLAR>
0

>  <SCORE.INTER.ROT>
9

>  <SCORE.INTER.SOLV>
9.00932

>  <SCORE.INTER.VDW>
-10.8481

>  <SCORE.INTER.norm>
0.0626772

>  <SCORE.INTRA>
-10.6825

>  <SCORE.INTRA.DIHEDRAL>
-22.46

>  <SCORE.INTRA.DIHEDRAL.0>
27.8999

>  <SCORE.INTRA.POLAR>
0

>  <SCORE.INTRA.POLAR.0>
0

>  <SCORE.INTRA.REPUL>
0

>  <SCORE.INTRA.REPUL.0>
0

>  <SCORE.INTRA.SOLV>
-1.88143

>  <SCORE.INTRA.SOLV.lig_0>
-104.479

>  <SCORE.INTRA.VDW>
1.48823

>  <SCORE.INTRA.VDW.0>
-6.17816

>  <SCORE.INTRA.norm>
-0.254345

>  <SCORE.RESTR>
0

>  <SCORE.RESTR.CAVITY>
0

>  <SCORE.RESTR.norm>
0

>  <SCORE.SYSTEM>
0

>  <SCORE.SYSTEM.CONST>
0

>  <SCORE.SYSTEM.DIHEDRAL>
0

>  <SCORE.SYSTEM.SOLV>
0

>  <SCORE.SYSTEM.norm>
0

>  <SCORE.heavy>
42

>  <SCORE.norm>
-0.191668

>  <RMSD>
8.280

$$$$
ligand
 OpenBabel02271912133D
libRbt.so/2013.1/901 2013/11/27
 42 45  0  0  0  0  0  0  0  0999 V2000
    9.5609    5.2369    6.2902 C   0  0  2  0  0  0  0  0  0  0  0  0
   10.1923    4.1972    5.5237 O   0  0  0  0  0  0  0  0  0  0  0  0
    9.8514    6.0173    1.6036 C   0  0  2  0  0  0  0  0  0  0  0  0
   10.0130    6.3139    0.1488 N   0  0  0  0  0  0  0  0  0  0  0  0
    7.9110    2.0621    2.6553 C   0  0  1  0  0  0  0  0  0  0  0  0
    6.3997   -1.4131    1.1019 C   0  0  1  0  0  0  0  0  0  0  0  0
    9.3350    4.6715    7.7246 C   0  0  2  0  0  0  0  0  0  0  0  0
   10.5516    4.0607    8.2880 N   0  0  0  0  0  0  0  0  0  0  0  0
   11.2171    6.1963    2.3811 C   0  0  0  0  0  0  0  0  0  0  0  0
    7.8074    0.5481    3.0130 C   0  0  2  0  0  0  0  0  0  0  0  0
    8.6664   -0.3055    2.2176 O   0  0  0  0  0  0  0  0  0  0  0  0
    6.1343   -1.7676   -0.4057 C   0  0  2  0  0  0  0  0  0  0  0  0
    4.6903   -1.5978   -0.7474 N   0  0  0  0  0  0  0  0  0  0  0  0
    8.2377    3.5918    7.7609 C   0  0  1  0  0  0  0  0  0  0  0  0
    8.0370    3.1314    9.0983 O   0  0  0  0  0  0  0  0  0  0  0  0
   10.9784    5.8925    3.9086 C   0  0  2  0  0  0  0  0  0  0  0  0
   12.2422    6.0658    4.6743 N   0  0  0  0  0  0  0  0  0  0  0  0
    6.3052    0.3077    2.8550 C   0  0  2  0  0  0  0  0  0  0  0  0
    5.9667   -0.1041    1.4924 O   0  0  0  0  0  0  0  0  0  0  0  0
    6.6204   -3.2677   -0.6896 C   0  0  1  0  0  0  0  0  0  0  0  0
    8.0652   -3.2937   -0.7149 O   0  0  0  0  0  0  0  0  0  0  0  0
    6.9333    4.1619    7.1586 C   0  0  2  0  0  0  0  0  0  0  0  0
    5.9137    3.1908    7.1999 O   0  0  0  0  0  0  0  0  0  0  0  0
   10.4365    4.4217    4.1058 C   0  0  2  0  0  0  0  0  0  0  0  0
    5.6219    1.6359    3.2217 C   0  0  2  0  0  0  0  0  0  0  0  0
    6.5847    2.6114    2.8293 O   0  0  0  0  0  0  0  0  0  0  0  0
    6.0845   -4.3121    0.4011 C   0  0  2  0  0  0  0  0  0  0  0  0
    4.6749   -4.4398    0.2193 O   0  0  0  0  0  0  0  0  0  0  0  0
    7.2064    4.6149    5.6856 C   0  0  2  0  0  0  0  0  0  0  0  0
    8.2740    5.6148    5.6683 O   0  0  0  0  0  0  0  0  0  0  0  0
    9.1297    4.1555    3.3269 C   0  0  2  0  0  0  0  0  0  0  0  0
    8.8834    2.7295    3.4702 O   0  0  0  0  0  0  0  0  0  0  0  0
    5.2490    1.7900    4.7288 C   0  0  0  0  0  0  0  0  0  0  0  0
    4.3116    0.7792    5.0872 O   0  0  0  0  0  0  0  0  0  0  0  0
    6.4026   -3.8058    1.8588 C   0  0  1  0  0  0  0  0  0  0  0  0
    5.7741   -2.4787    1.9773 O   0  0  0  0  0  0  0  0  0  0  0  0
    5.9803    5.1940    5.0185 C   0  0  0  0  0  0  0  0  0  0  0  0
    5.5739    6.3651    5.6838 O   0  0  0  0  0  0  0  0  0  0  0  0
    9.3120    4.5439    1.7999 C   0  0  1  0  0  0  0  0  0  0  0  0
    8.0622    4.4412    1.1121 O   0  0  0  0  0  0  0  0  0  0  0  0
    5.8742   -4.7688    3.0085 C   0  0  0  0  0  0  0  0  0  0  0  0
    6.4593   -6.1378    3.0191 N   0  0  0  0  0  0  0  0  0  0  0  0
  1  2  1  6  0  0  0
  1  7  1  0  0  0  0
  1 30  1  0  0  0  0
  3  4  1  6  0  0  0
  3  9  1  0  0  0  0
  3 39  1  0  0  0  0
  5 10  1  0  0  0  0
  5 26  1  0  0  0  0
  5 32  1  1  0  0  0
  6 12  1  0  0  0  0
  6 36  1  0  0  0  0
  6 19  1  1  0  0  0
  7  8  1  6  0  0  0
  7 14  1  0  0  0  0
  9 16  1  0  0  0  0
 10 11  1  6  0  0  0
 10 18  1  0  0  0  0
 12 13  1  1  0  0  0
 12 20  1  0  0  0  0
 14 15  1  1  0  0  0
 14 22  1  0  0  0  0
 16 17  1  1  0  0  0
 16 24  1  0  0  0  0
 18 19  1  6  0  0  0
 18 25  1  0  0  0  0
 20 21  1  1  0  0  0
 20 27  1  0  0  0  0
 22 23  1  6  0  0  0
 22 29  1  0  0  0  0
 24  2  1  1  0  0  0
 24 31  1  0  0  0  0
 25 26  1  0  0  0  0
 25 33  1  1  0  0  0
 27 28  1  1  0  0  0
 27 35  1  0  0  0  0
 29 30  1  0  0  0  0
 29 37  1  1  0  0  0
 31 32  1  6  0  0  0
 31 39  1  0  0  0  0
 33 34  1  0  0  0  0
 35 36  1  0  0  0  0
 35 41  1  1  0  0  0
 37 38  1  0  0  0  0
 39 40  1  6  0  0  0
 41 42  1  0  0  0  0
M  END
>  <CHROM.1>
175.70758903,42.53725039,69.87085844,-174.65596895,-62.15432024,63.45543239
-166.95165010,-178.83437123,62.12736274,7.61999027,1.81503011,3.45891994
0.95524198,1.00212116,1.01857243

>  <Name>
ligand

>  <RI>
0

>  <Rbt.Current_Directory>
/home/itssahil/PROJECTS/Mol_Feturizer/Test_systems_manuscript/rnas/2o3w

>  <Rbt.Executable>
rbdock ($Id: //depot/dev/client3/rdock/2013.1/src/exe/rbdock.cxx#4 $)

>  <Rbt.Library>
libRbt.so (2013.1, Build901 2013/11/27)

>  <Rbt.Parameter_File>
/export/apps/rDock/src/rDock_2013.1_src/data/scripts/dock_solv.prm

>  <Rbt.Receptor>
prm/pocket_docking_5.prm

>  <SCORE>
-13.2603

>  <SCORE.INTER>
-1.16337

>  <SCORE.INTER.CONST>
1

>  <SCORE.INTER.POLAR>
0

>  <SCORE.INTER.ROT>
9

>  <SCORE.INTER.SOLV>
13.022

>  <SCORE.INTER.VDW>
-14.7163

>  <SCORE.INTER.norm>
-0.0276993

>  <SCORE.INTRA>
-12.097

>  <SCORE.INTRA.DIHEDRAL>
-24.768

>  <SCORE.INTRA.DIHEDRAL.0>
27.8999

>  <SCORE.INTRA.POLAR>
0

>  <SCORE.INTRA.POLAR.0>
0

>  <SCORE.INTRA.REPUL>
0

>  <SCORE.INTRA.REPUL.0>
0

>  <SCORE.INTRA.SOLV>
-3.96061

>  <SCORE.INTRA.SOLV.lig_0>
-104.479

>  <SCORE.INTRA.VDW>
2.26734

>  <SCORE.INTRA.VDW.0>
-6.17816

>  <SCORE.INTRA.norm>
-0.288023

>  <SCORE.RESTR>
0

>  <SCORE.RESTR.CAVITY>
0

>  <SCORE.RESTR.norm>
0

>  <SCORE.SYSTEM>
0

>  <SCORE.SYSTEM.CONST>
0

>  <SCORE.SYSTEM.DIHEDRAL>
0

>  <SCORE.SYSTEM.SOLV>
0

>  <SCORE.SYSTEM.norm>
0

>  <SCORE.heavy>
42

>  <SCORE.norm>
-0.315722

>  <RMSD>
8.280

$$$$
ligand
 OpenBabel02271912133D
libRbt.so/2013.1/901 2013/11/27
 42 45  0  0  0  0  0  0  0  0999 V2000
    5.2868    4.6619    1.6268 C   0  0  2  0  0  0  0  0  0  0  0  0
    5.4441    3.2722    1.9606 O   0  0  0  0  0  0  0  0  0  0  0  0
    4.8252   -0.2845   -0.4400 C   0  0  2  0  0  0  0  0  0  0  0  0
    4.9602   -1.3412   -1.4866 N   0  0  0  0  0  0  0  0  0  0  0  0
    7.6104    2.1351    3.1379 C   0  0  1  0  0  0  0  0  0  0  0  0
    8.5980    3.9349    6.8964 C   0  0  1  0  0  0  0  0  0  0  0  0
    6.5622    5.3991    2.1347 C   0  0  2  0  0  0  0  0  0  0  0  0
    7.8056    4.7371    1.7029 N   0  0  0  0  0  0  0  0  0  0  0  0
    4.4388    1.1100   -1.0787 C   0  0  0  0  0  0  0  0  0  0  0  0
    6.9320    1.5887    4.4309 C   0  0  2  0  0  0  0  0  0  0  0  0
    5.5722    2.0503    4.6232 O   0  0  0  0  0  0  0  0  0  0  0  0
    8.9099    3.0962    8.1879 C   0  0  2  0  0  0  0  0  0  0  0  0
    7.6608    2.8188    8.9584 N   0  0  0  0  0  0  0  0  0  0  0  0
    6.6146    5.4849    3.6712 C   0  0  1  0  0  0  0  0  0  0  0  0
    7.7773    6.2014    4.0900 O   0  0  0  0  0  0  0  0  0  0  0  0
    4.2893    2.1748    0.0730 C   0  0  2  0  0  0  0  0  0  0  0  0
    3.9112    3.4983   -0.4919 N   0  0  0  0  0  0  0  0  0  0  0  0
    7.9363    2.0232    5.4996 C   0  0  2  0  0  0  0  0  0  0  0  0
    7.6199    3.3507    6.0271 O   0  0  0  0  0  0  0  0  0  0  0  0
    9.9767    3.8853    9.0859 C   0  0  1  0  0  0  0  0  0  0  0  0
   11.2742    3.7975    8.4553 O   0  0  0  0  0  0  0  0  0  0  0  0
    5.3219    6.1512    4.1948 C   0  0  2  0  0  0  0  0  0  0  0  0
    5.3616    6.2525    5.5993 O   0  0  0  0  0  0  0  0  0  0  0  0
    5.6380    2.3106    0.8845 C   0  0  2  0  0  0  0  0  0  0  0  0
    9.3147    2.0084    4.8177 C   0  0  2  0  0  0  0  0  0  0  0  0
    9.0062    2.3278    3.4630 O   0  0  0  0  0  0  0  0  0  0  0  0
    9.5893    5.4250    9.3028 C   0  0  2  0  0  0  0  0  0  0  0  0
    8.4373    5.4651   10.1440 O   0  0  0  0  0  0  0  0  0  0  0  0
    4.0887    5.3037    3.7360 C   0  0  2  0  0  0  0  0  0  0  0  0
    4.0750    5.2051    2.2766 O   0  0  0  0  0  0  0  0  0  0  0  0
    6.1087    0.9711    1.4922 C   0  0  2  0  0  0  0  0  0  0  0  0
    7.4317    1.2405    2.0321 O   0  0  0  0  0  0  0  0  0  0  0  0
   10.0822    0.6534    4.9141 C   0  0  0  0  0  0  0  0  0  0  0  0
    9.3163   -0.3671    4.2811 O   0  0  0  0  0  0  0  0  0  0  0  0
    9.2815    6.1204    7.9230 C   0  0  1  0  0  0  0  0  0  0  0  0
    8.1984    5.3377    7.3030 O   0  0  0  0  0  0  0  0  0  0  0  0
    2.7754    5.8891    4.2010 C   0  0  0  0  0  0  0  0  0  0  0  0
    2.5344    7.1146    3.5534 O   0  0  0  0  0  0  0  0  0  0  0  0
    6.1767   -0.1473    0.3695 C   0  0  1  0  0  0  0  0  0  0  0  0
    6.4649   -1.4191    0.9569 O   0  0  0  0  0  0  0  0  0  0  0  0
    8.8543    7.6470    8.0483 C   0  0  0  0  0  0  0  0  0  0  0  0
    9.9325    8.5832    8.4695 N   0  0  0  0  0  0  0  0  0  0  0  0
  1  2  1  1  0  0  0
  1  7  1  0  0  0  0
  1 30  1  0  0  0  0
  3  4  1  6  0  0  0
  3  9  1  0  0  0  0
  3 39  1  0  0  0  0
  5 10  1  0  0  0  0
  5 26  1  0  0  0  0
  5 32  1  6  0  0  0
  6 12  1  0  0  0  0
  6 36  1  0  0  0  0
  6 19  1  1  0  0  0
  7  8  1  1  0  0  0
  7 14  1  0  0  0  0
  9 16  1  0  0  0  0
 10 11  1  1  0  0  0
 10 18  1  0  0  0  0
 12 13  1  1  0  0  0
 12 20  1  0  0  0  0
 14 15  1  6  0  0  0
 14 22  1  0  0  0  0
 16 17  1  6  0  0  0
 16 24  1  0  0  0  0
 18 19  1  6  0  0  0
 18 25  1  0  0  0  0
 20 21  1  6  0  0  0
 20 27  1  0  0  0  0
 22 23  1  1  0  0  0
 22 29  1  0  0  0  0
 24  2  1  1  0  0  0
 24 31  1  0  0  0  0
 25 26  1  0  0  0  0
 25 33  1  6  0  0  0
 27 28  1  1  0  0  0
 27 35  1  0  0  0  0
 29 30  1  0  0  0  0
 29 37  1  6  0  0  0
 31 32  1  6  0  0  0
 31 39  1  0  0  0  0
 33 34  1  0  0  0  0
 35 36  1  0  0  0  0
 35 41  1  1  0  0  0
 37 38  1  0  0  0  0
 39 40  1  1  0  0  0
 41 42  1  0  0  0  0
M  END
>  <CHROM.1>
-111.24385835,-69.91862157,-171.57804456,-59.46510742,60.81078076,67.29511965
66.08723687,64.59879952,69.58547913,6.95456284,3.47861574,4.19229540,2.16883934
0.77937530,-2.48613627

>  <Name>
ligand

>  <RI>
0

>  <Rbt.Current_Directory>
/home/itssahil/PROJECTS/Mol_Feturizer/Test_systems_manuscript/rnas/2o3w

>  <Rbt.Executable>
rbdock ($Id: //depot/dev/client3/rdock/2013.1/src/exe/rbdock.cxx#4 $)

>  <Rbt.Library>
libRbt.so (2013.1, Build901 2013/11/27)

>  <Rbt.Parameter_File>
/export/apps/rDock/src/rDock_2013.1_src/data/scripts/dock_solv.prm

>  <Rbt.Receptor>
prm/pocket_docking_6.prm

>  <SCORE>
-9.25478

>  <SCORE.INTER>
-0.572484

>  <SCORE.INTER.CONST>
1

>  <SCORE.INTER.POLAR>
0

>  <SCORE.INTER.ROT>
9

>  <SCORE.INTER.SOLV>
12.7021

>  <SCORE.INTER.VDW>
-14.2157

>  <SCORE.INTER.norm>
-0.0136306

>  <SCORE.INTRA>
-8.6823

>  <SCORE.INTRA.DIHEDRAL>
-19.2989

>  <SCORE.INTRA.DIHEDRAL.0>
27.8999

>  <SCORE.INTRA.POLAR>
0

>  <SCORE.INTRA.POLAR.0>
0

>  <SCORE.INTRA.REPUL>
0

>  <SCORE.INTRA.REPUL.0>
0

>  <SCORE.INTRA.SOLV>
1.14284

>  <SCORE.INTRA.SOLV.lig_0>
-104.479

>  <SCORE.INTRA.VDW>
0.395742

>  <SCORE.INTRA.VDW.0>
-6.17816

>  <SCORE.INTRA.norm>
-0.206721

>  <SCORE.RESTR>
0

>  <SCORE.RESTR.CAVITY>
0

>  <SCORE.RESTR.norm>
0

>  <SCORE.SYSTEM>
0

>  <SCORE.SYSTEM.CONST>
0

>  <SCORE.SYSTEM.DIHEDRAL>
0

>  <SCORE.SYSTEM.SOLV>
0

>  <SCORE.SYSTEM.norm>
0

>  <SCORE.heavy>
42

>  <SCORE.norm>
-0.220352

>  <RMSD>
8.298

$$$$
ligand
 OpenBabel02271912133D
libRbt.so/2013.1/901 2013/11/27
 42 45  0  0  0  0  0  0  0  0999 V2000
    9.3974    4.5759    3.5736 C   0  0  2  0  0  0  0  0  0  0  0  0
   10.0742    5.1349    4.7123 O   0  0  0  0  0  0  0  0  0  0  0  0
   12.7773    3.3102    7.5688 C   0  0  2  0  0  0  0  0  0  0  0  0
   13.3536    2.4227    8.6227 N   0  0  0  0  0  0  0  0  0  0  0  0
   10.3107    1.2719    4.6050 C   0  0  1  0  0  0  0  0  0  0  0  0
    7.3389   -1.7776    5.5301 C   0  0  1  0  0  0  0  0  0  0  0  0
    9.2051    5.7315    2.5461 C   0  0  2  0  0  0  0  0  0  0  0  0
   10.4520    6.4744    2.2932 N   0  0  0  0  0  0  0  0  0  0  0  0
   11.5807    4.1742    8.1373 C   0  0  0  0  0  0  0  0  0  0  0  0
    9.1596    1.5504    5.6191 C   0  0  2  0  0  0  0  0  0  0  0  0
    9.5645    1.4663    7.0077 O   0  0  0  0  0  0  0  0  0  0  0  0
    7.4849   -3.0981    6.3690 C   0  0  2  0  0  0  0  0  0  0  0  0
    8.8748   -3.6373    6.2775 N   0  0  0  0  0  0  0  0  0  0  0  0
    8.1607    6.7616    3.0140 C   0  0  1  0  0  0  0  0  0  0  0  0
    7.9882    7.7789    2.0260 O   0  0  0  0  0  0  0  0  0  0  0  0
   11.0313    5.1029    6.9892 C   0  0  2  0  0  0  0  0  0  0  0  0
    9.9114    5.9423    7.4940 N   0  0  0  0  0  0  0  0  0  0  0  0
    8.1148    0.5273    5.1707 C   0  0  2  0  0  0  0  0  0  0  0  0
    8.2748   -0.7473    5.8711 O   0  0  0  0  0  0  0  0  0  0  0  0
    6.4153   -4.1734    5.8526 C   0  0  1  0  0  0  0  0  0  0  0  0
    5.1003   -3.7780    6.3034 O   0  0  0  0  0  0  0  0  0  0  0  0
    6.8279    6.0416    3.3213 C   0  0  2  0  0  0  0  0  0  0  0  0
    5.8560    6.9735    3.7351 O   0  0  0  0  0  0  0  0  0  0  0  0
   10.5351    4.2386    5.7633 C   0  0  2  0  0  0  0  0  0  0  0  0
    8.3096    0.3583    3.6545 C   0  0  2  0  0  0  0  0  0  0  0  0
    9.7056    0.5903    3.4823 O   0  0  0  0  0  0  0  0  0  0  0  0
    6.4107   -4.3298    4.2579 C   0  0  2  0  0  0  0  0  0  0  0  0
    7.6361   -4.9577    3.8829 O   0  0  0  0  0  0  0  0  0  0  0  0
    7.0726    4.9672    4.4328 C   0  0  2  0  0  0  0  0  0  0  0  0
    8.0912    4.0181    3.9839 O   0  0  0  0  0  0  0  0  0  0  0  0
   11.6395    3.3241    5.1893 C   0  0  2  0  0  0  0  0  0  0  0  0
   10.9687    2.4831    4.2109 O   0  0  0  0  0  0  0  0  0  0  0  0
    7.4661    1.3285    2.7705 C   0  0  0  0  0  0  0  0  0  0  0  0
    7.6352    0.9824    1.3991 O   0  0  0  0  0  0  0  0  0  0  0  0
    6.2839   -2.9221    3.5617 C   0  0  1  0  0  0  0  0  0  0  0  0
    7.4145   -2.1177    4.0565 O   0  0  0  0  0  0  0  0  0  0  0  0
    5.8173    4.2067    4.7928 C   0  0  0  0  0  0  0  0  0  0  0  0
    6.0401    3.4162    5.9351 O   0  0  0  0  0  0  0  0  0  0  0  0
   12.2782    2.4438    6.3437 C   0  0  1  0  0  0  0  0  0  0  0  0
   13.3990    1.7104    5.8422 O   0  0  0  0  0  0  0  0  0  0  0  0
    6.3052   -2.9812    1.9728 C   0  0  0  0  0  0  0  0  0  0  0  0
    6.1323   -1.6752    1.2792 N   0  0  0  0  0  0  0  0  0  0  0  0
  1  2  1  1  0  0  0
  1  7  1  0  0  0  0
  1 30  1  0  0  0  0
  3  4  1  1  0  0  0
  3  9  1  0  0  0  0
  3 39  1  0  0  0  0
  5 10  1  0  0  0  0
  5 26  1  0  0  0  0
  5 32  1  6  0  0  0
  6 12  1  0  0  0  0
  6 36  1  0  0  0  0
  6 19  1  1  0  0  0
  7  8  1  1  0  0  0
  7 14  1  0  0  0  0
  9 16  1  0  0  0  0
 10 11  1  1  0  0  0
 10 18  1  0  0  0  0
 12 13  1  6  0  0  0
 12 20  1  0  0  0  0
 14 15  1  6  0  0  0
 14 22  1  0  0  0  0
 16 17  1  1  0  0  0
 16 24  1  0  0  0  0
 18 19  1  1  0  0  0
 18 25  1  0  0  0  0
 20 21  1  6  0  0  0
 20 27  1  0  0  0  0
 22 23  1  1  0  0  0
 22 29  1  0  0  0  0
 24  2  1  6  0  0  0
 24 31  1  0  0  0  0
 25 26  1  0  0  0  0
 25 33  1  6  0  0  0
 27 28  1  6  0  0  0
 27 35  1  0  0  0  0
 29 30  1  0  0  0  0
 29 37  1  6  0  0  0
 31 32  1  6  0  0  0
 31 39  1  0  0  0  0
 33 34  1  0  0  0  0
 35 36  1  0  0  0  0
 35 41  1  6  0  0  0
 37 38  1  0  0  0  0
 39 40  1  6  0  0  0
 41 42  1  0  0  0  0
M  END
>  <CHROM.1>
-172.36509564,-171.13833287,179.66671540,-176.23394728,-174.27625899,-170.44931102
-85.45663397,60.76131998,177.63206103,8.70398269,1.73467547,4.73015630,1.19594553
-0.66352154,-0.21733895

>  <Name>
ligand

>  <RI>
0

>  <Rbt.Current_Directory>
/home/itssahil/PROJECTS/Mol_Feturizer/Test_systems_manuscript/rnas/2o3w

>  <Rbt.Executable>
rbdock ($Id: //depot/dev/client3/rdock/2013.1/src/exe/rbdock.cxx#4 $)

>  <Rbt.Library>
libRbt.so (2013.1, Build901 2013/11/27)

>  <Rbt.Parameter_File>
/export/apps/rDock/src/rDock_2013.1_src/data/scripts/dock_solv.prm

>  <Rbt.Receptor>
prm/pocket_docking_3.prm

>  <SCORE>
-6.40163

>  <SCORE.INTER>
5.10695

>  <SCORE.INTER.CONST>
1

>  <SCORE.INTER.POLAR>
0

>  <SCORE.INTER.ROT>
9

>  <SCORE.INTER.SOLV>
10.1886

>  <SCORE.INTER.VDW>
-9.59156

>  <SCORE.INTER.norm>
0.121594

>  <SCORE.INTRA>
-11.5105

>  <SCORE.INTRA.DIHEDRAL>
-23.8095

>  <SCORE.INTRA.DIHEDRAL.0>
27.8999

>  <SCORE.INTRA.POLAR>
0

>  <SCORE.INTRA.POLAR.0>
0

>  <SCORE.INTRA.REPUL>
0

>  <SCORE.INTRA.REPUL.0>
0

>  <SCORE.INTRA.SOLV>
-2.1581

>  <SCORE.INTRA.SOLV.lig_0>
-104.479

>  <SCORE.INTRA.VDW>
1.47326

>  <SCORE.INTRA.VDW.0>
-6.17816

>  <SCORE.INTRA.norm>
-0.27406

>  <SCORE.RESTR>
0.00194587

>  <SCORE.RESTR.CAVITY>
0.00194587

>  <SCORE.RESTR.norm>
4.63303e-05

>  <SCORE.SYSTEM>
0

>  <SCORE.SYSTEM.CONST>
0

>  <SCORE.SYSTEM.DIHEDRAL>
0

>  <SCORE.SYSTEM.SOLV>
0

>  <SCORE.SYSTEM.norm>
0

>  <SCORE.heavy>
42

>  <SCORE.norm>
-0.15242

>  <RMSD>
8.303

$$$$
ligand
 OpenBabel02271912133D
libRbt.so/2013.1/901 2013/11/27
 42 45  0  0  0  0  0  0  0  0999 V2000
    9.1219    5.2033    2.2498 C   0  0  2  0  0  0  0  0  0  0  0  0
   10.4808    5.4108    2.6714 O   0  0  0  0  0  0  0  0  0  0  0  0
   12.7796    3.3333    5.7039 C   0  0  2  0  0  0  0  0  0  0  0  0
   13.2566    2.7906    7.0109 N   0  0  0  0  0  0  0  0  0  0  0  0
    8.7658    1.8846    3.6664 C   0  0  1  0  0  0  0  0  0  0  0  0
    6.1022   -1.4284    2.4648 C   0  0  1  0  0  0  0  0  0  0  0  0
    9.0475    5.5972    0.7440 C   0  0  2  0  0  0  0  0  0  0  0  0
   10.1079    4.9623   -0.0579 N   0  0  0  0  0  0  0  0  0  0  0  0
   12.8582    4.9128    5.6752 C   0  0  0  0  0  0  0  0  0  0  0  0
    7.3220    1.6975    4.2243 C   0  0  2  0  0  0  0  0  0  0  0  0
    7.2730    1.1093    5.5474 O   0  0  0  0  0  0  0  0  0  0  0  0
    6.2974   -2.9618    2.7465 C   0  0  2  0  0  0  0  0  0  0  0  0
    7.7447   -3.3297    2.7160 N   0  0  0  0  0  0  0  0  0  0  0  0
    9.1777    7.1165    0.5303 C   0  0  1  0  0  0  0  0  0  0  0  0
    9.0643    7.4351   -0.8577 O   0  0  0  0  0  0  0  0  0  0  0  0
   12.3650    5.4229    4.2684 C   0  0  2  0  0  0  0  0  0  0  0  0
   12.4395    6.9073    4.2010 N   0  0  0  0  0  0  0  0  0  0  0  0
    6.6770    0.8734    3.1089 C   0  0  2  0  0  0  0  0  0  0  0  0
    6.8342   -0.5626    3.3412 O   0  0  0  0  0  0  0  0  0  0  0  0
    5.4658   -3.8074    1.6693 C   0  0  1  0  0  0  0  0  0  0  0  0
    4.0586   -3.7096    1.9841 O   0  0  0  0  0  0  0  0  0  0  0  0
    8.1039    7.8487    1.3669 C   0  0  2  0  0  0  0  0  0  0  0  0
    8.1989    9.2403    1.1693 O   0  0  0  0  0  0  0  0  0  0  0  0
   10.8816    4.9535    3.9945 C   0  0  2  0  0  0  0  0  0  0  0  0
    7.3703    1.3063    1.8061 C   0  0  2  0  0  0  0  0  0  0  0  0
    8.6824    1.6548    2.2412 O   0  0  0  0  0  0  0  0  0  0  0  0
    5.7141   -3.3139    0.1652 C   0  0  2  0  0  0  0  0  0  0  0  0
    7.0531   -3.6602   -0.1865 O   0  0  0  0  0  0  0  0  0  0  0  0
    8.3013    7.4900    2.8775 C   0  0  2  0  0  0  0  0  0  0  0  0
    8.2080    6.0410    3.0553 O   0  0  0  0  0  0  0  0  0  0  0  0
   10.7165    3.4195    4.0627 C   0  0  2  0  0  0  0  0  0  0  0  0
    9.2841    3.1851    3.9746 O   0  0  0  0  0  0  0  0  0  0  0  0
    6.6903    2.4980    1.0633 C   0  0  0  0  0  0  0  0  0  0  0  0
    5.3749    2.1184    0.6703 O   0  0  0  0  0  0  0  0  0  0  0  0
    5.5054   -1.7566    0.0495 C   0  0  1  0  0  0  0  0  0  0  0  0
    6.4358   -1.1462    1.0150 O   0  0  0  0  0  0  0  0  0  0  0  0
    7.2849    8.1610    3.7722 C   0  0  0  0  0  0  0  0  0  0  0  0
    7.5692    7.8841    5.1219 O   0  0  0  0  0  0  0  0  0  0  0  0
   11.2936    2.8656    5.4323 C   0  0  1  0  0  0  0  0  0  0  0  0
   11.2794    1.4354    5.4314 O   0  0  0  0  0  0  0  0  0  0  0  0
    5.7653   -1.1748   -1.4074 C   0  0  0  0  0  0  0  0  0  0  0  0
    4.7920   -1.5986   -2.4513 N   0  0  0  0  0  0  0  0  0  0  0  0
  1  2  1  1  0  0  0
  1  7  1  0  0  0  0
  1 30  1  0  0  0  0
  3  4  1  1  0  0  0
  3  9  1  0  0  0  0
  3 39  1  0  0  0  0
  5 10  1  0  0  0  0
  5 26  1  0  0  0  0
  5 32  1  6  0  0  0
  6 12  1  0  0  0  0
  6 36  1  0  0  0  0
  6 19  1  1  0  0  0
  7  8  1  6  0  0  0
  7 14  1  0  0  0  0
  9 16  1  0  0  0  0
 10 11  1  1  0  0  0
 10 18  1  0  0  0  0
 12 13  1  6  0  0  0
 12 20  1  0  0  0  0
 14 15  1  6  0  0  0
 14 22  1  0  0  0  0
 16 17  1  1  0  0  0
 16 24  1  0  0  0  0
 18 19  1  1  0  0  0
 18 25  1  0  0  0  0
 20 21  1  1  0  0  0
 20 27  1  0  0  0  0
 22 23  1  1  0  0  0
 22 29  1  0  0  0  0
 24  2  1  6  0  0  0
 24 31  1  0  0  0  0
 25 26  1  0  0  0  0
 25 33  1  1  0  0  0
 27 28  1  1  0  0  0
 27 35  1  0  0  0  0
 29 30  1  0  0  0  0
 29 37  1  1  0  0  0
 31 32  1  1  0  0  0
 31 39  1  0  0  0  0
 33 34  1  0  0  0  0
 35 36  1  0  0  0  0
 35 41  1  6  0  0  0
 37 38  1  0  0  0  0
 39 40  1  6  0  0  0
 41 42  1  0  0  0  0
M  END
>  <CHROM.1>
-171.92112707,-174.47156098,171.19736326,179.99807845,-62.36719590,-175.64497848
164.01956489,154.71447590,67.22530673,8.34687079,2.53851712,2.53752115,0.89237176
-0.83049743,-0.28113832

>  <Name>
ligand

>  <RI>
0

>  <Rbt.Current_Directory>
/home/itssahil/PROJECTS/Mol_Feturizer/Test_systems_manuscript/rnas/2o3w

>  <Rbt.Executable>
rbdock ($Id: //depot/dev/client3/rdock/2013.1/src/exe/rbdock.cxx#4 $)

>  <Rbt.Library>
libRbt.so (2013.1, Build901 2013/11/27)

>  <Rbt.Parameter_File>
/export/apps/rDock/src/rDock_2013.1_src/data/scripts/dock_solv.prm

>  <Rbt.Receptor>
prm/pocket_docking_6.prm

>  <SCORE>
-12.1107

>  <SCORE.INTER>
-0.0691427

>  <SCORE.INTER.CONST>
1

>  <SCORE.INTER.POLAR>
0

>  <SCORE.INTER.ROT>
9

>  <SCORE.INTER.SOLV>
17.6239

>  <SCORE.INTER.VDW>
-15.5207

>  <SCORE.INTER.norm>
-0.00164626

>  <SCORE.INTRA>
-12.0415

>  <SCORE.INTRA.DIHEDRAL>
-22.7216

>  <SCORE.INTRA.DIHEDRAL.0>
27.8999

>  <SCORE.INTRA.POLAR>
0

>  <SCORE.INTRA.POLAR.0>
0

>  <SCORE.INTRA.REPUL>
0

>  <SCORE.INTRA.REPUL.0>
0

>  <SCORE.INTRA.SOLV>
-5.61084

>  <SCORE.INTRA.SOLV.lig_0>
-104.479

>  <SCORE.INTRA.VDW>
2.12471

>  <SCORE.INTRA.VDW.0>
-6.17816

>  <SCORE.INTRA.norm>
-0.286703

>  <SCORE.RESTR>
0

>  <SCORE.RESTR.CAVITY>
0

>  <SCORE.RESTR.norm>
0

>  <SCORE.SYSTEM>
0

>  <SCORE.SYSTEM.CONST>
0

>  <SCORE.SYSTEM.DIHEDRAL>
0

>  <SCORE.SYSTEM.SOLV>
0

>  <SCORE.SYSTEM.norm>
0

>  <SCORE.heavy>
42

>  <SCORE.norm>
-0.288349

>  <RMSD>
8.344

$$$$
ligand
 OpenBabel02271912133D
libRbt.so/2013.1/901 2013/11/27
 42 45  0  0  0  0  0  0  0  0999 V2000
    4.0770    3.0646    1.5542 C   0  0  2  0  0  0  0  0  0  0  0  0
    3.7799    4.2610    2.2942 O   0  0  0  0  0  0  0  0  0  0  0  0
    6.4120    6.8124    4.6090 C   0  0  2  0  0  0  0  0  0  0  0  0
    7.3631    7.3176    5.6437 N   0  0  0  0  0  0  0  0  0  0  0  0
    7.1772    2.7507    3.1733 C   0  0  1  0  0  0  0  0  0  0  0  0
    7.8332   -0.7679    5.8363 C   0  0  1  0  0  0  0  0  0  0  0  0
    3.0180    2.9588    0.4159 C   0  0  2  0  0  0  0  0  0  0  0  0
    2.8856    4.2109   -0.3491 N   0  0  0  0  0  0  0  0  0  0  0  0
    5.0237    6.4117    5.2523 C   0  0  0  0  0  0  0  0  0  0  0  0
    6.1512    2.1916    4.2056 C   0  0  2  0  0  0  0  0  0  0  0  0
    6.0984    2.9369    5.4469 O   0  0  0  0  0  0  0  0  0  0  0  0
    8.7983   -0.8896    7.0702 C   0  0  2  0  0  0  0  0  0  0  0  0
   10.1075   -0.2271    6.7907 N   0  0  0  0  0  0  0  0  0  0  0  0
    1.6162    2.6149    0.9521 C   0  0  1  0  0  0  0  0  0  0  0  0
    0.6881    2.4890   -0.1266 O   0  0  0  0  0  0  0  0  0  0  0  0
    4.0590    5.9095    4.1122 C   0  0  2  0  0  0  0  0  0  0  0  0
    2.7356    5.5370    4.6810 N   0  0  0  0  0  0  0  0  0  0  0  0
    6.6120    0.7381    4.3249 C   0  0  2  0  0  0  0  0  0  0  0  0
    7.6040    0.5737    5.3877 O   0  0  0  0  0  0  0  0  0  0  0  0
    9.0020   -2.4371    7.4315 C   0  0  1  0  0  0  0  0  0  0  0  0
    7.7959   -2.9343    8.0537 O   0  0  0  0  0  0  0  0  0  0  0  0
    1.6882    1.3173    1.7890 C   0  0  2  0  0  0  0  0  0  0  0  0
    0.4093    0.9795    2.2734 O   0  0  0  0  0  0  0  0  0  0  0  0
    4.6825    4.6666    3.3623 C   0  0  2  0  0  0  0  0  0  0  0  0
    7.1982    0.3646    2.9529 C   0  0  2  0  0  0  0  0  0  0  0  0
    7.7181    1.6041    2.4777 O   0  0  0  0  0  0  0  0  0  0  0  0
    9.3534   -3.3338    6.1510 C   0  0  2  0  0  0  0  0  0  0  0  0
   10.6662   -2.9759    5.7213 O   0  0  0  0  0  0  0  0  0  0  0  0
    2.6901    1.5282    2.9728 C   0  0  2  0  0  0  0  0  0  0  0  0
    4.0064    1.8869    2.4452 O   0  0  0  0  0  0  0  0  0  0  0  0
    6.0699    4.9682    2.7546 C   0  0  2  0  0  0  0  0  0  0  0  0
    6.5644    3.6868    2.2770 O   0  0  0  0  0  0  0  0  0  0  0  0
    6.1744   -0.2390    1.9420 C   0  0  0  0  0  0  0  0  0  0  0  0
    5.5929   -1.4111    2.5049 O   0  0  0  0  0  0  0  0  0  0  0  0
    8.3136   -3.0826    4.9942 C   0  0  1  0  0  0  0  0  0  0  0  0
    8.3565   -1.6373    4.7123 O   0  0  0  0  0  0  0  0  0  0  0  0
    2.8279    0.3009    3.8437 C   0  0  0  0  0  0  0  0  0  0  0  0
    3.6367    0.5860    4.9589 O   0  0  0  0  0  0  0  0  0  0  0  0
    7.0358    5.5665    3.8613 C   0  0  1  0  0  0  0  0  0  0  0  0
    8.2674    5.9856    3.2670 O   0  0  0  0  0  0  0  0  0  0  0  0
    8.6073   -3.9101    3.6685 C   0  0  0  0  0  0  0  0  0  0  0  0
    7.5909   -3.7754    2.5890 N   0  0  0  0  0  0  0  0  0  0  0  0
  1  2  1  1  0  0  0
  1  7  1  0  0  0  0
  1 30  1  0  0  0  0
  3  4  1  1  0  0  0
  3  9  1  0  0  0  0
  3 39  1  0  0  0  0
  5 10  1  0  0  0  0
  5 26  1  0  0  0  0
  5 32  1  6  0  0  0
  6 12  1  0  0  0  0
  6 36  1  0  0  0  0
  6 19  1  6  0  0  0
  7  8  1  1  0  0  0
  7 14  1  0  0  0  0
  9 16  1  0  0  0  0
 10 11  1  1  0  0  0
 10 18  1  0  0  0  0
 12 13  1  6  0  0  0
 12 20  1  0  0  0  0
 14 15  1  6  0  0  0
 14 22  1  0  0  0  0
 16 17  1  1  0  0  0
 16 24  1  0  0  0  0
 18 19  1  1  0  0  0
 18 25  1  0  0  0  0
 20 21  1  6  0  0  0
 20 27  1  0  0  0  0
 22 23  1  1  0  0  0
 22 29  1  0  0  0  0
 24  2  1  6  0  0  0
 24 31  1  0  0  0  0
 25 26  1  0  0  0  0
 25 33  1  6  0  0  0
 27 28  1  6  0  0  0
 27 35  1  0  0  0  0
 29 30  1  0  0  0  0
 29 37  1  6  0  0  0
 31 32  1  1  0  0  0
 31 39  1  0  0  0  0
 33 34  1  0  0  0  0
 35 36  1  0  0  0  0
 35 41  1  6  0  0  0
 37 38  1  0  0  0  0
 39 40  1  6  0  0  0
 41 42  1  0  0  0  0
M  END
>  <CHROM.1>
-175.24401931,-174.03561683,163.47020033,-174.32012284,-58.46650700,-174.38180421
-81.31255137,66.78687607,175.69201098,5.86031411,1.55701971,3.76344593,2.34783040
-0.60236266,0.05259544

>  <Name>
ligand

>  <RI>
0

>  <Rbt.Current_Directory>
/home/itssahil/PROJECTS/Mol_Feturizer/Test_systems_manuscript/rnas/2o3w

>  <Rbt.Executable>
rbdock ($Id: //depot/dev/client3/rdock/2013.1/src/exe/rbdock.cxx#4 $)

>  <Rbt.Library>
libRbt.so (2013.1, Build901 2013/11/27)

>  <Rbt.Parameter_File>
/export/apps/rDock/src/rDock_2013.1_src/data/scripts/dock_solv.prm

>  <Rbt.Receptor>
prm/pocket_docking_5.prm

>  <SCORE>
-10.7443

>  <SCORE.INTER>
1.68742

>  <SCORE.INTER.CONST>
1

>  <SCORE.INTER.POLAR>
0

>  <SCORE.INTER.ROT>
9

>  <SCORE.INTER.SOLV>
15.4776

>  <SCORE.INTER.VDW>
-13.6343

>  <SCORE.INTER.norm>
0.0401767

>  <SCORE.INTRA>
-12.4317

>  <SCORE.INTRA.DIHEDRAL>
-23.6174

>  <SCORE.INTRA.DIHEDRAL.0>
27.8999

>  <SCORE.INTRA.POLAR>
0

>  <SCORE.INTRA.POLAR.0>
0

>  <SCORE.INTRA.REPUL>
0

>  <SCORE.INTRA.REPUL.0>
0

>  <SCORE.INTRA.SOLV>
-1.75149

>  <SCORE.INTRA.SOLV.lig_0>
-104.479

>  <SCORE.INTRA.VDW>
0.252745

>  <SCORE.INTRA.VDW.0>
-6.17816

>  <SCORE.INTRA.norm>
-0.295992

>  <SCORE.RESTR>
0

>  <SCORE.RESTR.CAVITY>
0

>  <SCORE.RESTR.norm>
0

>  <SCORE.SYSTEM>
0

>  <SCORE.SYSTEM.CONST>
0

>  <SCORE.SYSTEM.DIHEDRAL>
0

>  <SCORE.SYSTEM.SOLV>
0

>  <SCORE.SYSTEM.norm>
0

>  <SCORE.heavy>
42

>  <SCORE.norm>
-0.255816

>  <RMSD>
8.385

$$$$
ligand
 OpenBabel02271912133D
libRbt.so/2013.1/901 2013/11/27
 42 45  0  0  0  0  0  0  0  0999 V2000
    8.9608    5.0122    8.1766 C   0  0  2  0  0  0  0  0  0  0  0  0
    9.9240    4.4480    7.2704 O   0  0  0  0  0  0  0  0  0  0  0  0
   13.6007    2.2342    7.8845 C   0  0  2  0  0  0  0  0  0  0  0  0
   14.5888    1.1983    8.3100 N   0  0  0  0  0  0  0  0  0  0  0  0
   10.3514    1.0152    4.8872 C   0  0  1  0  0  0  0  0  0  0  0  0
    8.8771   -2.1404    2.6195 C   0  0  1  0  0  0  0  0  0  0  0  0
    7.7663    4.0142    8.2503 C   0  0  2  0  0  0  0  0  0  0  0  0
    8.2028    2.6302    8.5042 N   0  0  0  0  0  0  0  0  0  0  0  0
   12.9699    2.9727    9.1329 C   0  0  0  0  0  0  0  0  0  0  0  0
    8.9914    0.3507    4.5136 C   0  0  2  0  0  0  0  0  0  0  0  0
    8.7476   -0.9101    5.1843 O   0  0  0  0  0  0  0  0  0  0  0  0
    9.5955   -3.4851    2.2391 C   0  0  2  0  0  0  0  0  0  0  0  0
   10.2161   -3.3933    0.8836 N   0  0  0  0  0  0  0  0  0  0  0  0
    6.9443    3.9896    6.9485 C   0  0  1  0  0  0  0  0  0  0  0  0
    5.8392    3.0931    7.0750 O   0  0  0  0  0  0  0  0  0  0  0  0
   11.9561    4.0649    8.6211 C   0  0  2  0  0  0  0  0  0  0  0  0
   11.3533    4.7908    9.7714 N   0  0  0  0  0  0  0  0  0  0  0  0
    9.1044    0.2793    2.9899 C   0  0  2  0  0  0  0  0  0  0  0  0
    9.7126   -0.9780    2.5539 O   0  0  0  0  0  0  0  0  0  0  0  0
    8.5384   -4.6870    2.3079 C   0  0  1  0  0  0  0  0  0  0  0  0
    8.2547   -4.9809    3.6943 O   0  0  0  0  0  0  0  0  0  0  0  0
    6.4730    5.4221    6.6092 C   0  0  2  0  0  0  0  0  0  0  0  0
    5.7046    5.4142    5.4285 O   0  0  0  0  0  0  0  0  0  0  0  0
   10.8133    3.4018    7.7550 C   0  0  2  0  0  0  0  0  0  0  0  0
    9.9595    1.4869    2.5706 C   0  0  2  0  0  0  0  0  0  0  0  0
   10.8248    1.6713    3.6886 O   0  0  0  0  0  0  0  0  0  0  0  0
    7.1715   -4.3580    1.5392 C   0  0  2  0  0  0  0  0  0  0  0  0
    7.4602   -4.3242    0.1421 O   0  0  0  0  0  0  0  0  0  0  0  0
    7.7254    6.3468    6.4478 C   0  0  2  0  0  0  0  0  0  0  0  0
    8.5110    6.3307    7.6817 O   0  0  0  0  0  0  0  0  0  0  0  0
   11.3601    2.6127    6.5452 C   0  0  2  0  0  0  0  0  0  0  0  0
   10.2068    1.9292    5.9821 O   0  0  0  0  0  0  0  0  0  0  0  0
    9.1551    2.7878    2.2629 C   0  0  0  0  0  0  0  0  0  0  0  0
    8.2686    2.5464    1.1745 O   0  0  0  0  0  0  0  0  0  0  0  0
    6.5892   -2.9716    2.0093 C   0  0  1  0  0  0  0  0  0  0  0  0
    7.6452   -1.9766    1.7543 O   0  0  0  0  0  0  0  0  0  0  0  0
    7.3554    7.7748    6.1199 C   0  0  0  0  0  0  0  0  0  0  0  0
    8.5171    8.5514    5.9563 O   0  0  0  0  0  0  0  0  0  0  0  0
   12.4556    1.5688    7.0204 C   0  0  1  0  0  0  0  0  0  0  0  0
   13.0688    0.9469    5.8878 O   0  0  0  0  0  0  0  0  0  0  0  0
    5.2460   -2.5492    1.2704 C   0  0  0  0  0  0  0  0  0  0  0  0
    4.0755   -3.4381    1.5079 N   0  0  0  0  0  0  0  0  0  0  0  0
  1  2  1  6  0  0  0
  1  7  1  0  0  0  0
  1 30  1  0  0  0  0
  3  4  1  1  0  0  0
  3  9  1  0  0  0  0
  3 39  1  0  0  0  0
  5 10  1  0  0  0  0
  5 26  1  0  0  0  0
  5 32  1  1  0  0  0
  6 12  1  0  0  0  0
  6 36  1  0  0  0  0
  6 19  1  6  0  0  0
  7  8  1  6  0  0  0
  7 14  1  0  0  0  0
  9 16  1  0  0  0  0
 10 11  1  1  0  0  0
 10 18  1  0  0  0  0
 12 13  1  6  0  0  0
 12 20  1  0  0  0  0
 14 15  1  1  0  0  0
 14 22  1  0  0  0  0
 16 17  1  1  0  0  0
 16 24  1  0  0  0  0
 18 19  1  1  0  0  0
 18 25  1  0  0  0  0
 20 21  1  1  0  0  0
 20 27  1  0  0  0  0
 22 23  1  6  0  0  0
 22 29  1  0  0  0  0
 24  2  1  6  0  0  0
 24 31  1  0  0  0  0
 25 26  1  0  0  0  0
 25 33  1  1  0  0  0
 27 28  1  6  0  0  0
 27 35  1  0  0  0  0
 29 30  1  0  0  0  0
 29 37  1  1  0  0  0
 31 32  1  1  0  0  0
 31 39  1  0  0  0  0
 33 34  1  0  0  0  0
 35 36  1  0  0  0  0
 35 41  1  6  0  0  0
 37 38  1  0  0  0  0
 39 40  1  6  0  0  0
 41 42  1  0  0  0  0
M  END
>  <CHROM.1>
-79.81624070,-77.40113420,75.21623540,-175.92561396,-61.36601770,-178.65172360
-175.55459307,176.80028134,63.87047611,9.09773678,1.40890735,4.99750282,1.36956194
-0.47156054,0.52456792

>  <Name>
ligand

>  <RI>
0

>  <Rbt.Current_Directory>
/home/itssahil/PROJECTS/Mol_Feturizer/Test_systems_manuscript/rnas/2o3w

>  <Rbt.Executable>
rbdock ($Id: //depot/dev/client3/rdock/2013.1/src/exe/rbdock.cxx#4 $)

>  <Rbt.Library>
libRbt.so (2013.1, Build901 2013/11/27)

>  <Rbt.Parameter_File>
/export/apps/rDock/src/rDock_2013.1_src/data/scripts/dock_solv.prm

>  <Rbt.Receptor>
prm/pocket_docking_7.prm

>  <SCORE>
-10.2856

>  <SCORE.INTER>
-0.24965

>  <SCORE.INTER.CONST>
1

>  <SCORE.INTER.POLAR>
0

>  <SCORE.INTER.ROT>
9

>  <SCORE.INTER.SOLV>
14.005

>  <SCORE.INTER.VDW>
-14.4348

>  <SCORE.INTER.norm>
-0.00594405

>  <SCORE.INTRA>
-10.036

>  <SCORE.INTRA.DIHEDRAL>
-23.2211

>  <SCORE.INTRA.DIHEDRAL.0>
27.8999

>  <SCORE.INTRA.POLAR>
0

>  <SCORE.INTRA.POLAR.0>
0

>  <SCORE.INTRA.REPUL>
0

>  <SCORE.INTRA.REPUL.0>
0

>  <SCORE.INTRA.SOLV>
-2.34481

>  <SCORE.INTRA.SOLV.lig_0>
-104.479

>  <SCORE.INTRA.VDW>
2.74699

>  <SCORE.INTRA.VDW.0>
-6.17816

>  <SCORE.INTRA.norm>
-0.238952

>  <SCORE.RESTR>
0

>  <SCORE.RESTR.CAVITY>
0

>  <SCORE.RESTR.norm>
0

>  <SCORE.SYSTEM>
0

>  <SCORE.SYSTEM.CONST>
0

>  <SCORE.SYSTEM.DIHEDRAL>
0

>  <SCORE.SYSTEM.SOLV>
0

>  <SCORE.SYSTEM.norm>
0

>  <SCORE.heavy>
42

>  <SCORE.norm>
-0.244896

>  <RMSD>
8.409

$$$$
ligand
 OpenBabel02271912133D
libRbt.so/2013.1/901 2013/11/27
 42 45  0  0  0  0  0  0  0  0999 V2000
    2.9778    0.8765    2.3946 C   0  0  2  0  0  0  0  0  0  0  0  0
    3.1669    0.4259    1.0424 O   0  0  0  0  0  0  0  0  0  0  0  0
    6.0460   -2.3410   -0.6460 C   0  0  2  0  0  0  0  0  0  0  0  0
    7.3226   -2.9971   -1.0586 N   0  0  0  0  0  0  0  0  0  0  0  0
    5.8389   -0.1348    3.2489 C   0  0  1  0  0  0  0  0  0  0  0  0
    8.8792    1.9457    5.8104 C   0  0  1  0  0  0  0  0  0  0  0  0
    1.4807    1.2863    2.5325 C   0  0  2  0  0  0  0  0  0  0  0  0
    0.5635    0.2476    2.0322 N   0  0  0  0  0  0  0  0  0  0  0  0
    5.8607   -0.9438   -1.3639 C   0  0  0  0  0  0  0  0  0  0  0  0
    5.7281    0.1809    4.7717 C   0  0  2  0  0  0  0  0  0  0  0  0
    4.9294    1.3511    5.0744 O   0  0  0  0  0  0  0  0  0  0  0  0
    9.2946    3.4607    5.7804 C   0  0  2  0  0  0  0  0  0  0  0  0
    9.4914    3.9322    4.3769 N   0  0  0  0  0  0  0  0  0  0  0  0
    1.1546    2.5774    1.7594 C   0  0  1  0  0  0  0  0  0  0  0  0
   -0.2155    2.9363    1.9459 O   0  0  0  0  0  0  0  0  0  0  0  0
    4.4908   -0.3133   -0.9073 C   0  0  2  0  0  0  0  0  0  0  0  0
    4.2765    0.9984   -1.5761 N   0  0  0  0  0  0  0  0  0  0  0  0
    7.2036    0.2663    5.1654 C   0  0  2  0  0  0  0  0  0  0  0  0
    7.7178    1.6297    5.0326 O   0  0  0  0  0  0  0  0  0  0  0  0
   10.6273    3.6607    6.6469 C   0  0  1  0  0  0  0  0  0  0  0  0
   10.2926    3.5584    8.0492 O   0  0  0  0  0  0  0  0  0  0  0  0
    2.1021    3.7080    2.2211 C   0  0  2  0  0  0  0  0  0  0  0  0
    1.8054    4.9017    1.5345 O   0  0  0  0  0  0  0  0  0  0  0  0
    4.4616   -0.1201    0.6604 C   0  0  2  0  0  0  0  0  0  0  0  0
    7.9486   -0.7036    4.2328 C   0  0  2  0  0  0  0  0  0  0  0  0
    7.1674   -0.6666    3.0409 O   0  0  0  0  0  0  0  0  0  0  0  0
   11.7680    2.5938    6.2889 C   0  0  2  0  0  0  0  0  0  0  0  0
   12.2437    2.8952    4.9777 O   0  0  0  0  0  0  0  0  0  0  0  0
    3.5824    3.2725    1.9589 C   0  0  2  0  0  0  0  0  0  0  0  0
    3.8628    2.0274    2.6737 O   0  0  0  0  0  0  0  0  0  0  0  0
    4.6932   -1.4386    1.4306 C   0  0  2  0  0  0  0  0  0  0  0  0
    4.8187   -1.0488    2.8259 O   0  0  0  0  0  0  0  0  0  0  0  0
    8.0826   -2.1618    4.7711 C   0  0  0  0  0  0  0  0  0  0  0  0
    6.7837   -2.7164    4.9556 O   0  0  0  0  0  0  0  0  0  0  0  0
   11.1926    1.1279    6.3367 C   0  0  1  0  0  0  0  0  0  0  0  0
   10.0635    1.1005    5.3908 O   0  0  0  0  0  0  0  0  0  0  0  0
    4.5819    4.3213    2.3888 C   0  0  0  0  0  0  0  0  0  0  0  0
    5.8895    3.8954    2.0922 O   0  0  0  0  0  0  0  0  0  0  0  0
    6.0193   -2.1453    0.9229 C   0  0  1  0  0  0  0  0  0  0  0  0
    6.1530   -3.4352    1.5262 O   0  0  0  0  0  0  0  0  0  0  0  0
   12.2524    0.0037    5.9603 C   0  0  0  0  0  0  0  0  0  0  0  0
   13.3826   -0.1591    6.9156 N   0  0  0  0  0  0  0  0  0  0  0  0
  1  2  1  6  0  0  0
  1  7  1  0  0  0  0
  1 30  1  0  0  0  0
  3  4  1  1  0  0  0
  3  9  1  0  0  0  0
  3 39  1  0  0  0  0
  5 10  1  0  0  0  0
  5 26  1  0  0  0  0
  5 32  1  1  0  0  0
  6 12  1  0  0  0  0
  6 36  1  0  0  0  0
  6 19  1  6  0  0  0
  7  8  1  6  0  0  0
  7 14  1  0  0  0  0
  9 16  1  0  0  0  0
 10 11  1  6  0  0  0
 10 18  1  0  0  0  0
 12 13  1  6  0  0  0
 12 20  1  0  0  0  0
 14 15  1  1  0  0  0
 14 22  1  0  0  0  0
 16 17  1  6  0  0  0
 16 24  1  0  0  0  0
 18 19  1  6  0  0  0
 18 25  1  0  0  0  0
 20 21  1  1  0  0  0
 20 27  1  0  0  0  0
 22 23  1  6  0  0  0
 22 29  1  0  0  0  0
 24  2  1  1  0  0  0
 24 31  1  0  0  0  0
 25 26  1  0  0  0  0
 25 33  1  1  0  0  0
 27 28  1  6  0  0  0
 27 35  1  0  0  0  0
 29 30  1  0  0  0  0
 29 37  1  1  0  0  0
 31 32  1  1  0  0  0
 31 39  1  0  0  0  0
 33 34  1  0  0  0  0
 35 36  1  0  0  0  0
 35 41  1  6  0  0  0
 37 38  1  0  0  0  0
 39 40  1  1  0  0  0
 41 42  1  0  0  0  0
M  END
>  <CHROM.1>
-175.25983320,-170.66612890,157.60248369,-172.75056408,61.06435840,-178.16974907
-59.00798766,177.24219947,66.26114276,6.32782299,0.91433708,3.19044500,2.83148544
0.47005734,-2.62334270

>  <Name>
ligand

>  <RI>
0

>  <Rbt.Current_Directory>
/home/itssahil/PROJECTS/Mol_Feturizer/Test_systems_manuscript/rnas/2o3w

>  <Rbt.Executable>
rbdock ($Id: //depot/dev/client3/rdock/2013.1/src/exe/rbdock.cxx#4 $)

>  <Rbt.Library>
libRbt.so (2013.1, Build901 2013/11/27)

>  <Rbt.Parameter_File>
/export/apps/rDock/src/rDock_2013.1_src/data/scripts/dock_solv.prm

>  <Rbt.Receptor>
prm/pocket_docking_5.prm

>  <SCORE>
-11.3242

>  <SCORE.INTER>
1.52024

>  <SCORE.INTER.CONST>
1

>  <SCORE.INTER.POLAR>
0

>  <SCORE.INTER.ROT>
9

>  <SCORE.INTER.SOLV>
13.8727

>  <SCORE.INTER.VDW>
-13.2108

>  <SCORE.INTER.norm>
0.0361961

>  <SCORE.INTRA>
-12.8444

>  <SCORE.INTRA.DIHEDRAL>
-24.5713

>  <SCORE.INTRA.DIHEDRAL.0>
27.8999

>  <SCORE.INTRA.POLAR>
0

>  <SCORE.INTRA.POLAR.0>
0

>  <SCORE.INTRA.REPUL>
0

>  <SCORE.INTRA.REPUL.0>
0

>  <SCORE.INTRA.SOLV>
-4.28482

>  <SCORE.INTRA.SOLV.lig_0>
-104.479

>  <SCORE.INTRA.VDW>
1.58365

>  <SCORE.INTRA.VDW.0>
-6.17816

>  <SCORE.INTRA.norm>
-0.30582

>  <SCORE.RESTR>
0

>  <SCORE.RESTR.CAVITY>
0

>  <SCORE.RESTR.norm>
0

>  <SCORE.SYSTEM>
0

>  <SCORE.SYSTEM.CONST>
0

>  <SCORE.SYSTEM.DIHEDRAL>
0

>  <SCORE.SYSTEM.SOLV>
0

>  <SCORE.SYSTEM.norm>
0

>  <SCORE.heavy>
42

>  <SCORE.norm>
-0.269624

>  <RMSD>
8.430

$$$$
ligand
 OpenBabel02271912133D
libRbt.so/2013.1/901 2013/11/27
 42 45  0  0  0  0  0  0  0  0999 V2000
    4.0198    1.5167    2.1789 C   0  0  2  0  0  0  0  0  0  0  0  0
    5.1627    2.0289    2.8852 O   0  0  0  0  0  0  0  0  0  0  0  0
    5.6543    5.1837    5.8180 C   0  0  2  0  0  0  0  0  0  0  0  0
    5.5263    6.0222    7.0472 N   0  0  0  0  0  0  0  0  0  0  0  0
    6.8420    0.3779    4.4351 C   0  0  1  0  0  0  0  0  0  0  0  0
    9.2094   -2.6425    2.3067 C   0  0  1  0  0  0  0  0  0  0  0  0
    3.4845    0.3040    2.9980 C   0  0  2  0  0  0  0  0  0  0  0  0
    3.3096    0.6214    4.4261 N   0  0  0  0  0  0  0  0  0  0  0  0
    4.2935    5.1335    5.0132 C   0  0  0  0  0  0  0  0  0  0  0  0
    8.2906    0.6593    3.9319 C   0  0  2  0  0  0  0  0  0  0  0  0
    8.3496    1.4325    2.7080 O   0  0  0  0  0  0  0  0  0  0  0  0
   10.7584   -2.7181    2.5589 C   0  0  2  0  0  0  0  0  0  0  0  0
   11.4825   -1.7013    1.7387 N   0  0  0  0  0  0  0  0  0  0  0  0
    4.4263   -0.9119    2.9248 C   0  0  1  0  0  0  0  0  0  0  0  0
    3.8781   -2.0104    3.6554 O   0  0  0  0  0  0  0  0  0  0  0  0
    4.4972    4.2560    3.7206 C   0  0  2  0  0  0  0  0  0  0  0  0
    3.2380    4.1990    2.9302 N   0  0  0  0  0  0  0  0  0  0  0  0
    8.8563   -0.7592    3.8469 C   0  0  2  0  0  0  0  0  0  0  0  0
    8.6309   -1.3501    2.5275 O   0  0  0  0  0  0  0  0  0  0  0  0
   11.2762   -4.1980    2.2294 C   0  0  1  0  0  0  0  0  0  0  0  0
   10.8444   -5.0892    3.2822 O   0  0  0  0  0  0  0  0  0  0  0  0
    4.6727   -1.2850    1.4452 C   0  0  2  0  0  0  0  0  0  0  0  0
    5.5200   -2.4072    1.3612 O   0  0  0  0  0  0  0  0  0  0  0  0
    4.9476    2.7918    4.1067 C   0  0  2  0  0  0  0  0  0  0  0  0
    8.1466   -1.5658    4.9474 C   0  0  2  0  0  0  0  0  0  0  0  0
    6.8688   -0.9393    5.0313 O   0  0  0  0  0  0  0  0  0  0  0  0
   10.7489   -4.7415    0.8173 C   0  0  2  0  0  0  0  0  0  0  0  0
   11.3996   -3.9877   -0.2048 O   0  0  0  0  0  0  0  0  0  0  0  0
    5.3053   -0.0579    0.7078 C   0  0  2  0  0  0  0  0  0  0  0  0
    4.4125    1.0956    0.8172 O   0  0  0  0  0  0  0  0  0  0  0  0
    6.2442    2.7655    4.9453 C   0  0  2  0  0  0  0  0  0  0  0  0
    6.4027    1.3809    5.3603 O   0  0  0  0  0  0  0  0  0  0  0  0
    8.8650   -1.5633    6.3323 C   0  0  0  0  0  0  0  0  0  0  0  0
    8.0844   -2.3002    7.2685 O   0  0  0  0  0  0  0  0  0  0  0  0
    9.1861   -4.5752    0.7061 C   0  0  1  0  0  0  0  0  0  0  0  0
    8.9117   -3.1421    0.9086 O   0  0  0  0  0  0  0  0  0  0  0  0
    5.5751   -0.3333   -0.7534 C   0  0  0  0  0  0  0  0  0  0  0  0
    4.3653   -0.5562   -1.4362 O   0  0  0  0  0  0  0  0  0  0  0  0
    6.1019    3.7175    6.2059 C   0  0  1  0  0  0  0  0  0  0  0  0
    7.3506    3.8108    6.8972 O   0  0  0  0  0  0  0  0  0  0  0  0
    8.5803   -5.0601   -0.6818 C   0  0  0  0  0  0  0  0  0  0  0  0
    7.1145   -4.8592   -0.8481 N   0  0  0  0  0  0  0  0  0  0  0  0
  1  2  1  1  0  0  0
  1  7  1  0  0  0  0
  1 30  1  0  0  0  0
  3  4  1  1  0  0  0
  3  9  1  0  0  0  0
  3 39  1  0  0  0  0
  5 10  1  0  0  0  0
  5 26  1  0  0  0  0
  5 32  1  1  0  0  0
  6 12  1  0  0  0  0
  6 36  1  0  0  0  0
  6 19  1  6  0  0  0
  7  8  1  1  0  0  0
  7 14  1  0  0  0  0
  9 16  1  0  0  0  0
 10 11  1  6  0  0  0
 10 18  1  0  0  0  0
 12 13  1  6  0  0  0
 12 20  1  0  0  0  0
 14 15  1  1  0  0  0
 14 22  1  0  0  0  0
 16 17  1  1  0  0  0
 16 24  1  0  0  0  0
 18 19  1  6  0  0  0
 18 25  1  0  0  0  0
 20 21  1  1  0  0  0
 20 27  1  0  0  0  0
 22 23  1  1  0  0  0
 22 29  1  0  0  0  0
 24  2  1  6  0  0  0
 24 31  1  0  0  0  0
 25 26  1  0  0  0  0
 25 33  1  1  0  0  0
 27 28  1  6  0  0  0
 27 35  1  0  0  0  0
 29 30  1  0  0  0  0
 29 37  1  6  0  0  0
 31 32  1  1  0  0  0
 31 39  1  0  0  0  0
 33 34  1  0  0  0  0
 35 36  1  0  0  0  0
 35 41  1  6  0  0  0
 37 38  1  0  0  0  0
 39 40  1  6  0  0  0
 41 42  1  0  0  0  0
M  END
>  <CHROM.1>
-74.46642738,-78.05023536,175.53252462,-55.61191166,177.88229894,64.29665807
74.80620552,63.82275908,-177.24384691,6.93359881,-0.30567877,3.01617754,2.20427382
-0.60174869,0.85159884

>  <Name>
ligand

>  <RI>
0

>  <Rbt.Current_Directory>
/home/itssahil/PROJECTS/Mol_Feturizer/Test_systems_manuscript/rnas/2o3w

>  <Rbt.Executable>
rbdock ($Id: //depot/dev/client3/rdock/2013.1/src/exe/rbdock.cxx#4 $)

>  <Rbt.Library>
libRbt.so (2013.1, Build901 2013/11/27)

>  <Rbt.Parameter_File>
/export/apps/rDock/src/rDock_2013.1_src/data/scripts/dock_solv.prm

>  <Rbt.Receptor>
prm/pocket_docking_5.prm

>  <SCORE>
-8.72518

>  <SCORE.INTER>
2.25718

>  <SCORE.INTER.CONST>
1

>  <SCORE.INTER.POLAR>
0

>  <SCORE.INTER.ROT>
9

>  <SCORE.INTER.SOLV>
16.9759

>  <SCORE.INTER.VDW>
-13.7538

>  <SCORE.INTER.norm>
0.0537424

>  <SCORE.INTRA>
-10.9824

>  <SCORE.INTRA.DIHEDRAL>
-23.882

>  <SCORE.INTRA.DIHEDRAL.0>
27.8999

>  <SCORE.INTRA.POLAR>
0

>  <SCORE.INTRA.POLAR.0>
0

>  <SCORE.INTRA.REPUL>
0

>  <SCORE.INTRA.REPUL.0>
0

>  <SCORE.INTRA.SOLV>
0.748376

>  <SCORE.INTRA.SOLV.lig_0>
-104.479

>  <SCORE.INTRA.VDW>
0.584457

>  <SCORE.INTRA.VDW.0>
-6.17816

>  <SCORE.INTRA.norm>
-0.261485

>  <SCORE.RESTR>
0

>  <SCORE.RESTR.CAVITY>
0

>  <SCORE.RESTR.norm>
0

>  <SCORE.SYSTEM>
0

>  <SCORE.SYSTEM.CONST>
0

>  <SCORE.SYSTEM.DIHEDRAL>
0

>  <SCORE.SYSTEM.SOLV>
0

>  <SCORE.SYSTEM.norm>
0

>  <SCORE.heavy>
42

>  <SCORE.norm>
-0.207742

>  <RMSD>
8.439

$$$$
ligand
 OpenBabel02271912133D
libRbt.so/2013.1/901 2013/11/27
 42 45  0  0  0  0  0  0  0  0999 V2000
    6.7673    7.5174    0.8310 C   0  0  2  0  0  0  0  0  0  0  0  0
    7.7395    8.2164    1.6269 O   0  0  0  0  0  0  0  0  0  0  0  0
   11.3516    7.1650    3.7818 C   0  0  2  0  0  0  0  0  0  0  0  0
   12.3570    6.4382    4.6133 N   0  0  0  0  0  0  0  0  0  0  0  0
    8.8957    4.7254    1.0567 C   0  0  1  0  0  0  0  0  0  0  0  0
    6.4999    1.2024    2.1921 C   0  0  1  0  0  0  0  0  0  0  0  0
    6.1478    8.5587   -0.1489 C   0  0  2  0  0  0  0  0  0  0  0  0
    7.1726    9.3382   -0.8649 N   0  0  0  0  0  0  0  0  0  0  0  0
   10.0741    7.5494    4.6315 C   0  0  0  0  0  0  0  0  0  0  0  0
    7.7771    4.7708    2.1418 C   0  0  2  0  0  0  0  0  0  0  0  0
    8.2742    4.7394    3.5023 O   0  0  0  0  0  0  0  0  0  0  0  0
    6.8032   -0.0003    3.1566 C   0  0  2  0  0  0  0  0  0  0  0  0
    8.2348   -0.4150    3.0583 N   0  0  0  0  0  0  0  0  0  0  0  0
    5.2413    9.5728    0.5728 C   0  0  1  0  0  0  0  0  0  0  0  0
    4.6649   10.4814   -0.3669 O   0  0  0  0  0  0  0  0  0  0  0  0
    9.0636    8.3305    3.7088 C   0  0  2  0  0  0  0  0  0  0  0  0
    7.8536    8.7213    4.4813 N   0  0  0  0  0  0  0  0  0  0  0  0
    6.9110    3.5809    1.7256 C   0  0  2  0  0  0  0  0  0  0  0  0
    7.3430    2.3458    2.3804 O   0  0  0  0  0  0  0  0  0  0  0  0
    5.8254   -1.2197    2.8048 C   0  0  1  0  0  0  0  0  0  0  0  0
    4.4951   -0.9014    3.2717 O   0  0  0  0  0  0  0  0  0  0  0  0
    4.1524    8.8166    1.3676 C   0  0  2  0  0  0  0  0  0  0  0  0
    3.3036    9.7317    2.0208 O   0  0  0  0  0  0  0  0  0  0  0  0
    8.6394    7.4441    2.4719 C   0  0  2  0  0  0  0  0  0  0  0  0
    7.0406    3.4758    0.1967 C   0  0  2  0  0  0  0  0  0  0  0  0
    8.3578    3.9630   -0.0481 O   0  0  0  0  0  0  0  0  0  0  0  0
    5.7790   -1.5475    1.2370 C   0  0  2  0  0  0  0  0  0  0  0  0
    7.0454   -2.0960    0.8739 O   0  0  0  0  0  0  0  0  0  0  0  0
    4.8426    7.8668    2.4024 C   0  0  2  0  0  0  0  0  0  0  0  0
    5.7247    6.9337    1.7016 O   0  0  0  0  0  0  0  0  0  0  0  0
    9.8452    6.9825    1.6243 C   0  0  2  0  0  0  0  0  0  0  0  0
    9.2966    6.0431    0.6594 O   0  0  0  0  0  0  0  0  0  0  0  0
    5.9822    4.2892   -0.6110 C   0  0  0  0  0  0  0  0  0  0  0  0
    6.1747    4.0593   -2.0035 O   0  0  0  0  0  0  0  0  0  0  0  0
    5.4914   -0.2414    0.4043 C   0  0  1  0  0  0  0  0  0  0  0  0
    6.5556    0.7133    0.7601 O   0  0  0  0  0  0  0  0  0  0  0  0
    3.8473    7.0794    3.2230 C   0  0  0  0  0  0  0  0  0  0  0  0
    3.0695    6.2591    2.3855 O   0  0  0  0  0  0  0  0  0  0  0  0
   10.9254    6.2755    2.5458 C   0  0  1  0  0  0  0  0  0  0  0  0
   12.1043    5.9847    1.7900 O   0  0  0  0  0  0  0  0  0  0  0  0
    5.4615   -0.4699   -1.1690 C   0  0  0  0  0  0  0  0  0  0  0  0
    4.5072   -1.5067   -1.6494 N   0  0  0  0  0  0  0  0  0  0  0  0
  1  2  1  1  0  0  0
  1  7  1  0  0  0  0
  1 30  1  0  0  0  0
  3  4  1  1  0  0  0
  3  9  1  0  0  0  0
  3 39  1  0  0  0  0
  5 10  1  0  0  0  0
  5 26  1  0  0  0  0
  5 32  1  6  0  0  0
  6 12  1  0  0  0  0
  6 36  1  0  0  0  0
  6 19  1  6  0  0  0
  7  8  1  1  0  0  0
  7 14  1  0  0  0  0
  9 16  1  0  0  0  0
 10 11  1  1  0  0  0
 10 18  1  0  0  0  0
 12 13  1  6  0  0  0
 12 20  1  0  0  0  0
 14 15  1  6  0  0  0
 14 22  1  0  0  0  0
 16 17  1  1  0  0  0
 16 24  1  0  0  0  0
 18 19  1  1  0  0  0
 18 25  1  0  0  0  0
 20 21  1  6  0  0  0
 20 27  1  0  0  0  0
 22 23  1  1  0  0  0
 22 29  1  0  0  0  0
 24  2  1  6  0  0  0
 24 31  1  0  0  0  0
 25 26  1  0  0  0  0
 25 33  1  6  0  0  0
 27 28  1  6  0  0  0
 27 35  1  0  0  0  0
 29 30  1  0  0  0  0
 29 37  1  6  0  0  0
 31 32  1  6  0  0  0
 31 39  1  0  0  0  0
 33 34  1  0  0  0  0
 35 36  1  0  0  0  0
 35 41  1  6  0  0  0
 37 38  1  0  0  0  0
 39 40  1  6  0  0  0
 41 42  1  0  0  0  0
M  END
>  <CHROM.1>
-169.55669502,-151.98698882,172.50322131,-166.73310703,-177.40928654,61.29392120
-73.76840364,59.96477048,55.60239414,7.06410111,4.77474773,1.60781669,1.43145769
-0.40401606,0.03369458

>  <Name>
ligand

>  <RI>
0

>  <Rbt.Current_Directory>
/home/itssahil/PROJECTS/Mol_Feturizer/Test_systems_manuscript/rnas/2o3w

>  <Rbt.Executable>
rbdock ($Id: //depot/dev/client3/rdock/2013.1/src/exe/rbdock.cxx#4 $)

>  <Rbt.Library>
libRbt.so (2013.1, Build901 2013/11/27)

>  <Rbt.Parameter_File>
/export/apps/rDock/src/rDock_2013.1_src/data/scripts/dock_solv.prm

>  <Rbt.Receptor>
prm/pocket_docking_6.prm

>  <SCORE>
-14.5629

>  <SCORE.INTER>
-3.25193

>  <SCORE.INTER.CONST>
1

>  <SCORE.INTER.POLAR>
0

>  <SCORE.INTER.ROT>
9

>  <SCORE.INTER.SOLV>
17.5812

>  <SCORE.INTER.VDW>
-17.6283

>  <SCORE.INTER.norm>
-0.0774269

>  <SCORE.INTRA>
-11.311

>  <SCORE.INTRA.DIHEDRAL>
-21.9449

>  <SCORE.INTRA.DIHEDRAL.0>
27.8999

>  <SCORE.INTRA.POLAR>
0

>  <SCORE.INTRA.POLAR.0>
0

>  <SCORE.INTRA.REPUL>
0

>  <SCORE.INTRA.REPUL.0>
0

>  <SCORE.INTRA.SOLV>
-3.33726

>  <SCORE.INTRA.SOLV.lig_0>
-104.479

>  <SCORE.INTRA.VDW>
1.33011

>  <SCORE.INTRA.VDW.0>
-6.17816

>  <SCORE.INTRA.norm>
-0.269308

>  <SCORE.RESTR>
0

>  <SCORE.RESTR.CAVITY>
0

>  <SCORE.RESTR.norm>
0

>  <SCORE.SYSTEM>
0

>  <SCORE.SYSTEM.CONST>
0

>  <SCORE.SYSTEM.DIHEDRAL>
0

>  <SCORE.SYSTEM.SOLV>
0

>  <SCORE.SYSTEM.norm>
0

>  <SCORE.heavy>
42

>  <SCORE.norm>
-0.346735

>  <RMSD>
8.457

$$$$
ligand
 OpenBabel02271912133D
libRbt.so/2013.1/901 2013/11/27
 42 45  0  0  0  0  0  0  0  0999 V2000
    5.9089    4.2418    2.7870 C   0  0  2  0  0  0  0  0  0  0  0  0
    6.9358    5.2482    2.7949 O   0  0  0  0  0  0  0  0  0  0  0  0
   11.0699    4.8664    4.0437 C   0  0  2  0  0  0  0  0  0  0  0  0
   12.2996    4.6770    4.8698 N   0  0  0  0  0  0  0  0  0  0  0  0
    8.0793    1.3387    3.3720 C   0  0  1  0  0  0  0  0  0  0  0  0
    7.5314   -2.9146    2.2962 C   0  0  1  0  0  0  0  0  0  0  0  0
    4.7268    4.8045    1.9420 C   0  0  2  0  0  0  0  0  0  0  0  0
    5.1664    5.3312    0.6382 N   0  0  0  0  0  0  0  0  0  0  0  0
   10.2936    6.1794    4.4624 C   0  0  0  0  0  0  0  0  0  0  0  0
    7.0892    0.3837    4.1059 C   0  0  2  0  0  0  0  0  0  0  0  0
    7.5836   -0.1180    5.3720 O   0  0  0  0  0  0  0  0  0  0  0  0
    8.5927   -4.0675    2.4114 C   0  0  2  0  0  0  0  0  0  0  0  0
    9.9673   -3.5577    2.1264 N   0  0  0  0  0  0  0  0  0  0  0  0
    3.9895    5.9505    2.6589 C   0  0  1  0  0  0  0  0  0  0  0  0
    2.8918    6.4078    1.8672 O   0  0  0  0  0  0  0  0  0  0  0  0
    9.0231    6.3359    3.5439 C   0  0  2  0  0  0  0  0  0  0  0  0
    8.2753    7.5715    3.9014 N   0  0  0  0  0  0  0  0  0  0  0  0
    6.8399   -0.6716    3.0272 C   0  0  2  0  0  0  0  0  0  0  0  0
    7.7984   -1.7731    3.1204 O   0  0  0  0  0  0  0  0  0  0  0  0
    8.1982   -5.2515    1.4066 C   0  0  1  0  0  0  0  0  0  0  0  0
    7.0564   -5.9576    1.9419 O   0  0  0  0  0  0  0  0  0  0  0  0
    3.5199    5.4702    4.0510 C   0  0  2  0  0  0  0  0  0  0  0  0
    2.8282    6.5029    4.7138 O   0  0  0  0  0  0  0  0  0  0  0  0
    8.0738    5.0813    3.6879 C   0  0  2  0  0  0  0  0  0  0  0  0
    6.9619    0.0610    1.6804 C   0  0  2  0  0  0  0  0  0  0  0  0
    7.9123    1.0867    1.9579 O   0  0  0  0  0  0  0  0  0  0  0  0
    7.8607   -4.7279   -0.0697 C   0  0  2  0  0  0  0  0  0  0  0  0
    9.0789   -4.2662   -0.6522 O   0  0  0  0  0  0  0  0  0  0  0  0
    4.7664    5.0173    4.8821 C   0  0  2  0  0  0  0  0  0  0  0  0
    5.4723    3.9525    4.1696 O   0  0  0  0  0  0  0  0  0  0  0  0
    8.7826    3.7518    3.3484 C   0  0  2  0  0  0  0  0  0  0  0  0
    7.8341    2.7103    3.7091 O   0  0  0  0  0  0  0  0  0  0  0  0
    5.6296    0.6628    1.1354 C   0  0  0  0  0  0  0  0  0  0  0  0
    5.0685    1.5290    2.1170 O   0  0  0  0  0  0  0  0  0  0  0  0
    6.8045   -3.5600   -0.0174 C   0  0  1  0  0  0  0  0  0  0  0  0
    7.3903   -2.5167    0.8420 O   0  0  0  0  0  0  0  0  0  0  0  0
    4.3972    4.5238    6.2619 C   0  0  0  0  0  0  0  0  0  0  0  0
    5.5524    4.1273    6.9603 O   0  0  0  0  0  0  0  0  0  0  0  0
   10.1190    3.6115    4.1911 C   0  0  1  0  0  0  0  0  0  0  0  0
   10.8503    2.4575    3.7679 O   0  0  0  0  0  0  0  0  0  0  0  0
    6.4356   -2.9561   -1.4414 C   0  0  0  0  0  0  0  0  0  0  0  0
    5.3694   -1.9170   -1.4417 N   0  0  0  0  0  0  0  0  0  0  0  0
  1  2  1  1  0  0  0
  1  7  1  0  0  0  0
  1 30  1  0  0  0  0
  3  4  1  1  0  0  0
  3  9  1  0  0  0  0
  3 39  1  0  0  0  0
  5 10  1  0  0  0  0
  5 26  1  0  0  0  0
  5 32  1  6  0  0  0
  6 12  1  0  0  0  0
  6 36  1  0  0  0  0
  6 19  1  1  0  0  0
  7  8  1  6  0  0  0
  7 14  1  0  0  0  0
  9 16  1  0  0  0  0
 10 11  1  1  0  0  0
 10 18  1  0  0  0  0
 12 13  1  6  0  0  0
 12 20  1  0  0  0  0
 14 15  1  6  0  0  0
 14 22  1  0  0  0  0
 16 17  1  1  0  0  0
 16 24  1  0  0  0  0
 18 19  1  6  0  0  0
 18 25  1  0  0  0  0
 20 21  1  1  0  0  0
 20 27  1  0  0  0  0
 22 23  1  1  0  0  0
 22 29  1  0  0  0  0
 24  2  1  6  0  0  0
 24 31  1  0  0  0  0
 25 26  1  0  0  0  0
 25 33  1  1  0  0  0
 27 28  1  1  0  0  0
 27 35  1  0  0  0  0
 29 30  1  0  0  0  0
 29 37  1  1  0  0  0
 31 32  1  1  0  0  0
 31 39  1  0  0  0  0
 33 34  1  0  0  0  0
 35 36  1  0  0  0  0
 35 41  1  6  0  0  0
 37 38  1  0  0  0  0
 39 40  1  6  0  0  0
 41 42  1  0  0  0  0
M  END
>  <CHROM.1>
170.27369747,-178.01566410,170.60162942,179.27097304,55.52766363,179.81837971
171.82368781,168.29342489,175.82134116,7.12053449,1.64805376,2.78656291,1.72160586
-0.29017582,0.35557817

>  <Name>
ligand

>  <RI>
0

>  <Rbt.Current_Directory>
/home/itssahil/PROJECTS/Mol_Feturizer/Test_systems_manuscript/rnas/2o3w

>  <Rbt.Executable>
rbdock ($Id: //depot/dev/client3/rdock/2013.1/src/exe/rbdock.cxx#4 $)

>  <Rbt.Library>
libRbt.so (2013.1, Build901 2013/11/27)

>  <Rbt.Parameter_File>
/export/apps/rDock/src/rDock_2013.1_src/data/scripts/dock_solv.prm

>  <Rbt.Receptor>
prm/pocket_docking_6.prm

>  <SCORE>
-11.3941

>  <SCORE.INTER>
1.31347

>  <SCORE.INTER.CONST>
1

>  <SCORE.INTER.POLAR>
0

>  <SCORE.INTER.ROT>
9

>  <SCORE.INTER.SOLV>
11.7149

>  <SCORE.INTER.VDW>
-12.6293

>  <SCORE.INTER.norm>
0.0312732

>  <SCORE.INTRA>
-12.7076

>  <SCORE.INTRA.DIHEDRAL>
-25.7271

>  <SCORE.INTRA.DIHEDRAL.0>
27.8999

>  <SCORE.INTRA.POLAR>
0

>  <SCORE.INTRA.POLAR.0>
0

>  <SCORE.INTRA.REPUL>
0

>  <SCORE.INTRA.REPUL.0>
0

>  <SCORE.INTRA.SOLV>
-4.02746

>  <SCORE.INTRA.SOLV.lig_0>
-104.479

>  <SCORE.INTRA.VDW>
2.16968

>  <SCORE.INTRA.VDW.0>
-6.17816

>  <SCORE.INTRA.norm>
-0.302562

>  <SCORE.RESTR>
0

>  <SCORE.RESTR.CAVITY>
0

>  <SCORE.RESTR.norm>
0

>  <SCORE.SYSTEM>
0

>  <SCORE.SYSTEM.CONST>
0

>  <SCORE.SYSTEM.DIHEDRAL>
0

>  <SCORE.SYSTEM.SOLV>
0

>  <SCORE.SYSTEM.norm>
0

>  <SCORE.heavy>
42

>  <SCORE.norm>
-0.271289

>  <RMSD>
8.469

$$$$
ligand
 OpenBabel02271912133D
libRbt.so/2013.1/901 2013/11/27
 42 45  0  0  0  0  0  0  0  0999 V2000
    9.9309    5.6697    6.4433 C   0  0  2  0  0  0  0  0  0  0  0  0
   10.7576    4.7157    5.7550 O   0  0  0  0  0  0  0  0  0  0  0  0
    9.6125    5.7717    1.7090 C   0  0  2  0  0  0  0  0  0  0  0  0
    9.5246    5.8276    0.2192 N   0  0  0  0  0  0  0  0  0  0  0  0
    8.2390    1.9528    3.9845 C   0  0  1  0  0  0  0  0  0  0  0  0
    5.6478   -1.5984    3.0920 C   0  0  1  0  0  0  0  0  0  0  0  0
   10.1836    5.4742    7.9684 C   0  0  2  0  0  0  0  0  0  0  0  0
   11.6179    5.4566    8.3045 N   0  0  0  0  0  0  0  0  0  0  0  0
   11.0333    6.2450    2.2183 C   0  0  0  0  0  0  0  0  0  0  0  0
    8.5007    0.8433    2.9208 C   0  0  2  0  0  0  0  0  0  0  0  0
    8.1430    1.2259    1.5700 O   0  0  0  0  0  0  0  0  0  0  0  0
    4.1548   -1.5620    2.6037 C   0  0  2  0  0  0  0  0  0  0  0  0
    3.3739   -0.5317    3.3517 N   0  0  0  0  0  0  0  0  0  0  0  0
    9.5872    4.1559    8.4952 C   0  0  1  0  0  0  0  0  0  0  0  0
    9.8073    4.0375    9.9018 O   0  0  0  0  0  0  0  0  0  0  0  0
   11.0569    6.1855    3.7926 C   0  0  2  0  0  0  0  0  0  0  0  0
   12.3769    6.6390    4.3078 N   0  0  0  0  0  0  0  0  0  0  0  0
    7.7091   -0.3254    3.5097 C   0  0  2  0  0  0  0  0  0  0  0  0
    6.3290   -0.3394    3.0239 O   0  0  0  0  0  0  0  0  0  0  0  0
    3.5055   -3.0161    2.7793 C   0  0  1  0  0  0  0  0  0  0  0  0
    4.0416   -3.8930    1.7632 O   0  0  0  0  0  0  0  0  0  0  0  0
    8.0810    4.0983    8.1529 C   0  0  2  0  0  0  0  0  0  0  0  0
    7.5162    2.9046    8.6433 O   0  0  0  0  0  0  0  0  0  0  0  0
   10.7661    4.7175    4.2989 C   0  0  2  0  0  0  0  0  0  0  0  0
    7.7606   -0.1466    5.0364 C   0  0  2  0  0  0  0  0  0  0  0  0
    7.8314    1.2688    5.1917 O   0  0  0  0  0  0  0  0  0  0  0  0
    3.7745   -3.6466    4.2276 C   0  0  2  0  0  0  0  0  0  0  0  0
    3.0190   -2.8911    5.1736 O   0  0  0  0  0  0  0  0  0  0  0  0
    7.9062    4.1960    6.6006 C   0  0  2  0  0  0  0  0  0  0  0  0
    8.5082    5.4375    6.1149 O   0  0  0  0  0  0  0  0  0  0  0  0
    9.4156    4.1657    3.7921 C   0  0  2  0  0  0  0  0  0  0  0  0
    9.4004    2.7675    4.1910 O   0  0  0  0  0  0  0  0  0  0  0  0
    8.9622   -0.8493    5.7412 C   0  0  0  0  0  0  0  0  0  0  0  0
    8.8751   -0.6334    7.1464 O   0  0  0  0  0  0  0  0  0  0  0  0
    5.3082   -3.5880    4.5832 C   0  0  1  0  0  0  0  0  0  0  0  0
    5.6952   -2.1694    4.4937 O   0  0  0  0  0  0  0  0  0  0  0  0
    6.4568    4.1536    6.1749 C   0  0  0  0  0  0  0  0  0  0  0  0
    5.8904    2.9090    6.5055 O   0  0  0  0  0  0  0  0  0  0  0  0
    9.3245    4.3013    2.2144 C   0  0  1  0  0  0  0  0  0  0  0  0
    8.0189    3.9320    1.7621 O   0  0  0  0  0  0  0  0  0  0  0  0
    5.6618   -4.1644    6.0225 C   0  0  0  0  0  0  0  0  0  0  0  0
    5.3650   -5.6090    6.2265 N   0  0  0  0  0  0  0  0  0  0  0  0
  1  2  1  6  0  0  0
  1  7  1  0  0  0  0
  1 30  1  0  0  0  0
  3  4  1  6  0  0  0
  3  9  1  0  0  0  0
  3 39  1  0  0  0  0
  5 10  1  0  0  0  0
  5 26  1  0  0  0  0
  5 32  1  1  0  0  0
  6 12  1  0  0  0  0
  6 36  1  0  0  0  0
  6 19  1  1  0  0  0
  7  8  1  6  0  0  0
  7 14  1  0  0  0  0
  9 16  1  0  0  0  0
 10 11  1  6  0  0  0
 10 18  1  0  0  0  0
 12 13  1  1  0  0  0
 12 20  1  0  0  0  0
 14 15  1  1  0  0  0
 14 22  1  0  0  0  0
 16 17  1  6  0  0  0
 16 24  1  0  0  0  0
 18 19  1  6  0  0  0
 18 25  1  0  0  0  0
 20 21  1  6  0  0  0
 20 27  1  0  0  0  0
 22 23  1  6  0  0  0
 22 29  1  0  0  0  0
 24  2  1  1  0  0  0
 24 31  1  0  0  0  0
 25 26  1  0  0  0  0
 25 33  1  6  0  0  0
 27 28  1  1  0  0  0
 27 35  1  0  0  0  0
 29 30  1  0  0  0  0
 29 37  1  1  0  0  0
 31 32  1  6  0  0  0
 31 39  1  0  0  0  0
 33 34  1  0  0  0  0
 35 36  1  0  0  0  0
 35 41  1  1  0  0  0
 37 38  1  0  0  0  0
 39 40  1  1  0  0  0
 41 42  1  0  0  0  0
M  END
>  <CHROM.1>
-177.23894603,51.84430682,157.92401041,178.16279774,-178.64610872,-64.28493201
174.71793793,112.59500339,62.93460211,7.80347339,1.73902504,4.78442263,0.01630896
0.99808630,1.69948184

>  <Name>
ligand

>  <RI>
0

>  <Rbt.Current_Directory>
/home/itssahil/PROJECTS/Mol_Feturizer/Test_systems_manuscript/rnas/2o3w

>  <Rbt.Executable>
rbdock ($Id: //depot/dev/client3/rdock/2013.1/src/exe/rbdock.cxx#4 $)

>  <Rbt.Library>
libRbt.so (2013.1, Build901 2013/11/27)

>  <Rbt.Parameter_File>
/export/apps/rDock/src/rDock_2013.1_src/data/scripts/dock_solv.prm

>  <Rbt.Receptor>
prm/pocket_docking_6.prm

>  <SCORE>
-11.4283

>  <SCORE.INTER>
-1.33202

>  <SCORE.INTER.CONST>
1

>  <SCORE.INTER.POLAR>
0

>  <SCORE.INTER.ROT>
9

>  <SCORE.INTER.SOLV>
10.5886

>  <SCORE.INTER.VDW>
-14.0175

>  <SCORE.INTER.norm>
-0.0317147

>  <SCORE.INTRA>
-10.0963

>  <SCORE.INTRA.DIHEDRAL>
-18.0691

>  <SCORE.INTRA.DIHEDRAL.0>
27.8999

>  <SCORE.INTRA.POLAR>
0

>  <SCORE.INTRA.POLAR.0>
0

>  <SCORE.INTRA.REPUL>
0

>  <SCORE.INTRA.REPUL.0>
0

>  <SCORE.INTRA.SOLV>
-3.74115

>  <SCORE.INTRA.SOLV.lig_0>
-104.479

>  <SCORE.INTRA.VDW>
0.808835

>  <SCORE.INTRA.VDW.0>
-6.17816

>  <SCORE.INTRA.norm>
-0.240387

>  <SCORE.RESTR>
0

>  <SCORE.RESTR.CAVITY>
0

>  <SCORE.RESTR.norm>
0

>  <SCORE.SYSTEM>
0

>  <SCORE.SYSTEM.CONST>
0

>  <SCORE.SYSTEM.DIHEDRAL>
0

>  <SCORE.SYSTEM.SOLV>
0

>  <SCORE.SYSTEM.norm>
0

>  <SCORE.heavy>
42

>  <SCORE.norm>
-0.272102

>  <RMSD>
8.470

$$$$
ligand
 OpenBabel02271912133D
libRbt.so/2013.1/901 2013/11/27
 42 45  0  0  0  0  0  0  0  0999 V2000
    4.5220    7.7197    0.2642 C   0  0  2  0  0  0  0  0  0  0  0  0
    4.8521    7.0286    1.4810 O   0  0  0  0  0  0  0  0  0  0  0  0
    8.9944    6.1635    0.5379 C   0  0  2  0  0  0  0  0  0  0  0  0
   10.3916    5.6392    0.5948 N   0  0  0  0  0  0  0  0  0  0  0  0
    5.7780    3.4839    1.9408 C   0  0  1  0  0  0  0  0  0  0  0  0
    6.9744    2.0187    4.2176 C   0  0  1  0  0  0  0  0  0  0  0  0
    3.1531    8.4261    0.4991 C   0  0  2  0  0  0  0  0  0  0  0  0
    3.1290    9.2077    1.7477 N   0  0  0  0  0  0  0  0  0  0  0  0
    8.7047    7.1563    1.7346 C   0  0  0  0  0  0  0  0  0  0  0  0
    5.1658    4.0658    3.2512 C   0  0  2  0  0  0  0  0  0  0  0  0
    6.0893    4.8679    4.0277 O   0  0  0  0  0  0  0  0  0  0  0  0
    7.0845    0.7864    3.2489 C   0  0  2  0  0  0  0  0  0  0  0  0
    6.6609   -0.4709    3.9350 N   0  0  0  0  0  0  0  0  0  0  0  0
    1.9852    7.4257    0.5781 C   0  0  1  0  0  0  0  0  0  0  0  0
    0.7481    8.1182    0.7538 O   0  0  0  0  0  0  0  0  0  0  0  0
    7.2282    7.6914    1.6078 C   0  0  2  0  0  0  0  0  0  0  0  0
    6.9255    8.6415    2.7120 N   0  0  0  0  0  0  0  0  0  0  0  0
    4.6588    2.7937    3.9326 C   0  0  2  0  0  0  0  0  0  0  0  0
    5.6789    2.2054    4.8010 O   0  0  0  0  0  0  0  0  0  0  0  0
    8.5890    0.6696    2.7108 C   0  0  1  0  0  0  0  0  0  0  0  0
    8.8234    1.7209    1.7471 O   0  0  0  0  0  0  0  0  0  0  0  0
    1.9671    6.5526   -0.6973 C   0  0  2  0  0  0  0  0  0  0  0  0
    0.8932    5.6423   -0.6482 O   0  0  0  0  0  0  0  0  0  0  0  0
    6.1974    6.4946    1.6408 C   0  0  2  0  0  0  0  0  0  0  0  0
    4.2699    1.8307    2.7982 C   0  0  2  0  0  0  0  0  0  0  0  0
    5.1736    2.1836    1.7535 O   0  0  0  0  0  0  0  0  0  0  0  0
    9.6778    0.7643    3.8827 C   0  0  2  0  0  0  0  0  0  0  0  0
    9.5721   -0.4238    4.6661 O   0  0  0  0  0  0  0  0  0  0  0  0
    3.3306    5.7934   -0.8157 C   0  0  2  0  0  0  0  0  0  0  0  0
    4.4292    6.7585   -0.8553 O   0  0  0  0  0  0  0  0  0  0  0  0
    6.4546    5.4519    0.5309 C   0  0  2  0  0  0  0  0  0  0  0  0
    5.5495    4.3519    0.8230 O   0  0  0  0  0  0  0  0  0  0  0  0
    2.7888    1.9408    2.3202 C   0  0  0  0  0  0  0  0  0  0  0  0
    2.5566    3.2486    1.8056 O   0  0  0  0  0  0  0  0  0  0  0  0
    9.4201    2.0336    4.7796 C   0  0  1  0  0  0  0  0  0  0  0  0
    8.0424    1.9047    5.2850 O   0  0  0  0  0  0  0  0  0  0  0  0
    3.4030    4.9163   -2.0443 C   0  0  0  0  0  0  0  0  0  0  0  0
    4.6543    4.2765   -2.1102 O   0  0  0  0  0  0  0  0  0  0  0  0
    7.9635    4.9650    0.5741 C   0  0  1  0  0  0  0  0  0  0  0  0
    8.2405    4.1168   -0.5437 O   0  0  0  0  0  0  0  0  0  0  0  0
   10.4380    2.1877    5.9916 C   0  0  0  0  0  0  0  0  0  0  0  0
   10.2212    3.3733    6.8656 N   0  0  0  0  0  0  0  0  0  0  0  0
  1  2  1  1  0  0  0
  1  7  1  0  0  0  0
  1 30  1  0  0  0  0
  3  4  1  1  0  0  0
  3  9  1  0  0  0  0
  3 39  1  0  0  0  0
  5 10  1  0  0  0  0
  5 26  1  0  0  0  0
  5 32  1  6  0  0  0
  6 12  1  0  0  0  0
  6 36  1  0  0  0  0
  6 19  1  1  0  0  0
  7  8  1  1  0  0  0
  7 14  1  0  0  0  0
  9 16  1  0  0  0  0
 10 11  1  1  0  0  0
 10 18  1  0  0  0  0
 12 13  1  1  0  0  0
 12 20  1  0  0  0  0
 14 15  1  6  0  0  0
 14 22  1  0  0  0  0
 16 17  1  1  0  0  0
 16 24  1  0  0  0  0
 18 19  1  6  0  0  0
 18 25  1  0  0  0  0
 20 21  1  6  0  0  0
 20 27  1  0  0  0  0
 22 23  1  1  0  0  0
 22 29  1  0  0  0  0
 24  2  1  6  0  0  0
 24 31  1  0  0  0  0
 25 26  1  0  0  0  0
 25 33  1  6  0  0  0
 27 28  1  1  0  0  0
 27 35  1  0  0  0  0
 29 30  1  0  0  0  0
 29 37  1  6  0  0  0
 31 32  1  1  0  0  0
 31 39  1  0  0  0  0
 33 34  1  0  0  0  0
 35 36  1  0  0  0  0
 35 41  1  1  0  0  0
 37 38  1  0  0  0  0
 39 40  1  6  0  0  0
 41 42  1  0  0  0  0
M  END
>  <CHROM.1>
-168.23412186,62.17617447,-50.15322273,-76.86329080,61.64431726,179.08644328
-71.64601439,85.82255757,-179.72513835,5.95747778,4.35348411,1.94819517,-2.28539280
0.28321339,2.70842216

>  <Name>
ligand

>  <RI>
0

>  <Rbt.Current_Directory>
/home/itssahil/PROJECTS/Mol_Feturizer/Test_systems_manuscript/rnas/2o3w

>  <Rbt.Executable>
rbdock ($Id: //depot/dev/client3/rdock/2013.1/src/exe/rbdock.cxx#4 $)

>  <Rbt.Library>
libRbt.so (2013.1, Build901 2013/11/27)

>  <Rbt.Parameter_File>
/export/apps/rDock/src/rDock_2013.1_src/data/scripts/dock_solv.prm

>  <Rbt.Receptor>
prm/pocket_docking_5.prm

>  <SCORE>
-6.54416

>  <SCORE.INTER>
2.99902

>  <SCORE.INTER.CONST>
1

>  <SCORE.INTER.POLAR>
0

>  <SCORE.INTER.ROT>
9

>  <SCORE.INTER.SOLV>
13.2946

>  <SCORE.INTER.VDW>
-12.0322

>  <SCORE.INTER.norm>
0.0714053

>  <SCORE.INTRA>
-9.54319

>  <SCORE.INTRA.DIHEDRAL>
-21.8287

>  <SCORE.INTRA.DIHEDRAL.0>
27.8999

>  <SCORE.INTRA.POLAR>
0

>  <SCORE.INTRA.POLAR.0>
0

>  <SCORE.INTRA.REPUL>
0

>  <SCORE.INTRA.REPUL.0>
0

>  <SCORE.INTRA.SOLV>
-0.822155

>  <SCORE.INTRA.SOLV.lig_0>
-104.479

>  <SCORE.INTRA.VDW>
1.78226

>  <SCORE.INTRA.VDW.0>
-6.17816

>  <SCORE.INTRA.norm>
-0.227219

>  <SCORE.RESTR>
0

>  <SCORE.RESTR.CAVITY>
0

>  <SCORE.RESTR.norm>
0

>  <SCORE.SYSTEM>
0

>  <SCORE.SYSTEM.CONST>
0

>  <SCORE.SYSTEM.DIHEDRAL>
0

>  <SCORE.SYSTEM.SOLV>
0

>  <SCORE.SYSTEM.norm>
0

>  <SCORE.heavy>
42

>  <SCORE.norm>
-0.155813

>  <RMSD>
8.492

$$$$
ligand
 OpenBabel02271912133D
libRbt.so/2013.1/901 2013/11/27
 42 45  0  0  0  0  0  0  0  0999 V2000
    5.7660    3.4937    4.3983 C   0  0  2  0  0  0  0  0  0  0  0  0
    4.9821    2.2914    4.4829 O   0  0  0  0  0  0  0  0  0  0  0  0
    5.9833   -1.9199    4.2412 C   0  0  2  0  0  0  0  0  0  0  0  0
    6.5315   -3.2328    3.7869 N   0  0  0  0  0  0  0  0  0  0  0  0
    8.9108    1.4027    5.5599 C   0  0  1  0  0  0  0  0  0  0  0  0
   12.6834    2.8506    6.7147 C   0  0  1  0  0  0  0  0  0  0  0  0
    4.9198    4.6347    5.0389 C   0  0  2  0  0  0  0  0  0  0  0  0
    4.3879    4.2669    6.3627 N   0  0  0  0  0  0  0  0  0  0  0  0
    4.9174   -1.3577    3.2168 C   0  0  0  0  0  0  0  0  0  0  0  0
    9.7096    2.7407    5.6098 C   0  0  2  0  0  0  0  0  0  0  0  0
   10.7049    2.8721    4.5652 O   0  0  0  0  0  0  0  0  0  0  0  0
   14.0522    2.0795    6.6907 C   0  0  2  0  0  0  0  0  0  0  0  0
   14.3287    1.4421    8.0129 N   0  0  0  0  0  0  0  0  0  0  0  0
    3.7122    5.0264    4.1675 C   0  0  1  0  0  0  0  0  0  0  0  0
    2.9896    6.0999    4.7726 O   0  0  0  0  0  0  0  0  0  0  0  0
    4.3610    0.0127    3.7600 C   0  0  2  0  0  0  0  0  0  0  0  0
    3.3427    0.5644    2.8260 N   0  0  0  0  0  0  0  0  0  0  0  0
   10.2506    2.7105    7.0401 C   0  0  2  0  0  0  0  0  0  0  0  0
   11.5573    2.0558    7.1073 O   0  0  0  0  0  0  0  0  0  0  0  0
   15.2236    3.0943    6.2848 C   0  0  1  0  0  0  0  0  0  0  0  0
   15.1189    3.3882    4.8735 O   0  0  0  0  0  0  0  0  0  0  0  0
    4.1998    5.4026    2.7498 C   0  0  2  0  0  0  0  0  0  0  0  0
    3.1076    5.7799    1.9442 O   0  0  0  0  0  0  0  0  0  0  0  0
    5.5329    1.0563    3.9431 C   0  0  2  0  0  0  0  0  0  0  0  0
    9.2040    1.9524    7.8739 C   0  0  2  0  0  0  0  0  0  0  0  0
    8.6461    1.0373    6.9338 O   0  0  0  0  0  0  0  0  0  0  0  0
   15.1809    4.4602    7.1213 C   0  0  2  0  0  0  0  0  0  0  0  0
   15.5375    4.1520    8.4683 O   0  0  0  0  0  0  0  0  0  0  0  0
    4.9501    4.1786    2.1264 C   0  0  2  0  0  0  0  0  0  0  0  0
    6.0725    3.8004    2.9849 O   0  0  0  0  0  0  0  0  0  0  0  0
    6.6430    0.5501    4.8900 C   0  0  2  0  0  0  0  0  0  0  0  0
    7.7058    1.5379    4.7951 O   0  0  0  0  0  0  0  0  0  0  0  0
    8.0962    2.8475    8.5111 C   0  0  0  0  0  0  0  0  0  0  0  0
    8.6917    3.7325    9.4550 O   0  0  0  0  0  0  0  0  0  0  0  0
   13.7412    5.0982    7.0708 C   0  0  1  0  0  0  0  0  0  0  0  0
   12.8213    4.0743    7.5959 O   0  0  0  0  0  0  0  0  0  0  0  0
    5.4692    4.4616    0.7357 C   0  0  0  0  0  0  0  0  0  0  0  0
    4.3954    4.6409   -0.1555 O   0  0  0  0  0  0  0  0  0  0  0  0
    7.1568   -0.8753    4.4211 C   0  0  1  0  0  0  0  0  0  0  0  0
    8.0736   -1.4095    5.3801 O   0  0  0  0  0  0  0  0  0  0  0  0
   13.5996    6.4442    7.9055 C   0  0  0  0  0  0  0  0  0  0  0  0
   12.2592    7.0905    7.8596 N   0  0  0  0  0  0  0  0  0  0  0  0
  1  2  1  6  0  0  0
  1  7  1  0  0  0  0
  1 30  1  0  0  0  0
  3  4  1  6  0  0  0
  3  9  1  0  0  0  0
  3 39  1  0  0  0  0
  5 10  1  0  0  0  0
  5 26  1  0  0  0  0
  5 32  1  6  0  0  0
  6 12  1  0  0  0  0
  6 36  1  0  0  0  0
  6 19  1  1  0  0  0
  7  8  1  1  0  0  0
  7 14  1  0  0  0  0
  9 16  1  0  0  0  0
 10 11  1  6  0  0  0
 10 18  1  0  0  0  0
 12 13  1  1  0  0  0
 12 20  1  0  0  0  0
 14 15  1  1  0  0  0
 14 22  1  0  0  0  0
 16 17  1  6  0  0  0
 16 24  1  0  0  0  0
 18 19  1  6  0  0  0
 18 25  1  0  0  0  0
 20 21  1  6  0  0  0
 20 27  1  0  0  0  0
 22 23  1  6  0  0  0
 22 29  1  0  0  0  0
 24  2  1  1  0  0  0
 24 31  1  0  0  0  0
 25 26  1  0  0  0  0
 25 33  1  6  0  0  0
 27 28  1  1  0  0  0
 27 35  1  0  0  0  0
 29 30  1  0  0  0  0
 29 37  1  6  0  0  0
 31 32  1  6  0  0  0
 31 39  1  0  0  0  0
 33 34  1  0  0  0  0
 35 36  1  0  0  0  0
 35 41  1  1  0  0  0
 37 38  1  0  0  0  0
 39 40  1  1  0  0  0
 41 42  1  0  0  0  0
M  END
>  <CHROM.1>
179.52156912,-163.29557175,79.55486839,-175.35054695,-64.32528586,-66.47609437
179.34129424,-164.00788062,178.85752178,8.46874516,2.75291463,5.28711492
3.05359045,0.42468388,3.12407209

>  <Name>
ligand

>  <RI>
0

>  <Rbt.Current_Directory>
/home/itssahil/PROJECTS/Mol_Feturizer/Test_systems_manuscript/rnas/2o3w

>  <Rbt.Executable>
rbdock ($Id: //depot/dev/client3/rdock/2013.1/src/exe/rbdock.cxx#4 $)

>  <Rbt.Library>
libRbt.so (2013.1, Build901 2013/11/27)

>  <Rbt.Parameter_File>
/export/apps/rDock/src/rDock_2013.1_src/data/scripts/dock_solv.prm

>  <Rbt.Receptor>
prm/pocket_docking_5.prm

>  <SCORE>
-15.1374

>  <SCORE.INTER>
-2.90731

>  <SCORE.INTER.CONST>
1

>  <SCORE.INTER.POLAR>
0

>  <SCORE.INTER.ROT>
9

>  <SCORE.INTER.SOLV>
13.3852

>  <SCORE.INTER.VDW>
-15.9999

>  <SCORE.INTER.norm>
-0.0692216

>  <SCORE.INTRA>
-12.2301

>  <SCORE.INTRA.DIHEDRAL>
-23.2294

>  <SCORE.INTRA.DIHEDRAL.0>
27.8999

>  <SCORE.INTRA.POLAR>
0

>  <SCORE.INTRA.POLAR.0>
0

>  <SCORE.INTRA.REPUL>
0

>  <SCORE.INTRA.REPUL.0>
0

>  <SCORE.INTRA.SOLV>
-5.82377

>  <SCORE.INTRA.SOLV.lig_0>
-104.479

>  <SCORE.INTRA.VDW>
2.29651

>  <SCORE.INTRA.VDW.0>
-6.17816

>  <SCORE.INTRA.norm>
-0.291193

>  <SCORE.RESTR>
0

>  <SCORE.RESTR.CAVITY>
0

>  <SCORE.RESTR.norm>
0

>  <SCORE.SYSTEM>
0

>  <SCORE.SYSTEM.CONST>
0

>  <SCORE.SYSTEM.DIHEDRAL>
0

>  <SCORE.SYSTEM.SOLV>
0

>  <SCORE.SYSTEM.norm>
0

>  <SCORE.heavy>
42

>  <SCORE.norm>
-0.360415

>  <RMSD>
8.512

$$$$
ligand
 OpenBabel02271912133D
libRbt.so/2013.1/901 2013/11/27
 42 45  0  0  0  0  0  0  0  0999 V2000
    5.7468    2.3820    1.4896 C   0  0  2  0  0  0  0  0  0  0  0  0
    5.8299    2.9369    0.1658 O   0  0  0  0  0  0  0  0  0  0  0  0
    8.7868    5.6021   -1.5516 C   0  0  2  0  0  0  0  0  0  0  0  0
    9.6530    6.7882   -1.8225 N   0  0  0  0  0  0  0  0  0  0  0  0
    9.3124    3.1938    2.3904 C   0  0  1  0  0  0  0  0  0  0  0  0
   11.4900    2.4374    5.9254 C   0  0  1  0  0  0  0  0  0  0  0  0
    4.6512    1.2747    1.4509 C   0  0  2  0  0  0  0  0  0  0  0  0
    4.8409    0.3326    0.3342 N   0  0  0  0  0  0  0  0  0  0  0  0
    7.2614    5.9357   -1.8043 C   0  0  0  0  0  0  0  0  0  0  0  0
    9.0663    2.9007    3.9018 C   0  0  2  0  0  0  0  0  0  0  0  0
    9.2982    4.0387    4.7681 O   0  0  0  0  0  0  0  0  0  0  0  0
   11.8210    3.9456    6.2159 C   0  0  2  0  0  0  0  0  0  0  0  0
   13.0325    4.3813    5.4586 N   0  0  0  0  0  0  0  0  0  0  0  0
    3.2344    1.8595    1.3035 C   0  0  1  0  0  0  0  0  0  0  0  0
    2.2612    0.8136    1.3124 O   0  0  0  0  0  0  0  0  0  0  0  0
    6.4036    4.6440   -1.5246 C   0  0  2  0  0  0  0  0  0  0  0  0
    4.9615    4.9182   -1.7671 N   0  0  0  0  0  0  0  0  0  0  0  0
    9.9869    1.6999    4.1253 C   0  0  2  0  0  0  0  0  0  0  0  0
   11.3268    2.1186    4.5379 O   0  0  0  0  0  0  0  0  0  0  0  0
   12.0239    4.1483    7.7922 C   0  0  1  0  0  0  0  0  0  0  0  0
   10.7343    4.0836    8.4414 O   0  0  0  0  0  0  0  0  0  0  0  0
    2.9772    2.8795    2.4360 C   0  0  2  0  0  0  0  0  0  0  0  0
    1.6777    3.4118    2.3251 O   0  0  0  0  0  0  0  0  0  0  0  0
    6.6068    4.1516   -0.0373 C   0  0  2  0  0  0  0  0  0  0  0  0
   10.0272    0.9413    2.7880 C   0  0  2  0  0  0  0  0  0  0  0  0
    9.8555    1.9786    1.8252 O   0  0  0  0  0  0  0  0  0  0  0  0
   13.0046    3.0582    8.4384 C   0  0  2  0  0  0  0  0  0  0  0  0
   14.3209    3.3222    7.9547 O   0  0  0  0  0  0  0  0  0  0  0  0
    4.0496    4.0163    2.3524 C   0  0  2  0  0  0  0  0  0  0  0  0
    5.3889    3.4381    2.4603 O   0  0  0  0  0  0  0  0  0  0  0  0
    8.0854    3.8596    0.3001 C   0  0  2  0  0  0  0  0  0  0  0  0
    8.1074    3.6046    1.7315 O   0  0  0  0  0  0  0  0  0  0  0  0
    8.9367   -0.1625    2.6244 C   0  0  0  0  0  0  0  0  0  0  0  0
    9.0830   -1.1259    3.6632 O   0  0  0  0  0  0  0  0  0  0  0  0
   12.5581    1.6016    8.0369 C   0  0  1  0  0  0  0  0  0  0  0  0
   12.5517    1.5669    6.5642 O   0  0  0  0  0  0  0  0  0  0  0  0
    3.8766    5.0594    3.4322 C   0  0  0  0  0  0  0  0  0  0  0  0
    2.6420    5.7161    3.2786 O   0  0  0  0  0  0  0  0  0  0  0  0
    8.9887    5.1121   -0.0618 C   0  0  1  0  0  0  0  0  0  0  0  0
   10.3716    4.7887    0.1079 O   0  0  0  0  0  0  0  0  0  0  0  0
   13.4991    0.4548    8.6097 C   0  0  0  0  0  0  0  0  0  0  0  0
   14.9033    0.4696    8.1152 N   0  0  0  0  0  0  0  0  0  0  0  0
  1  2  1  6  0  0  0
  1  7  1  0  0  0  0
  1 30  1  0  0  0  0
  3  4  1  1  0  0  0
  3  9  1  0  0  0  0
  3 39  1  0  0  0  0
  5 10  1  0  0  0  0
  5 26  1  0  0  0  0
  5 32  1  6  0  0  0
  6 12  1  0  0  0  0
  6 36  1  0  0  0  0
  6 19  1  6  0  0  0
  7  8  1  6  0  0  0
  7 14  1  0  0  0  0
  9 16  1  0  0  0  0
 10 11  1  1  0  0  0
 10 18  1  0  0  0  0
 12 13  1  6  0  0  0
 12 20  1  0  0  0  0
 14 15  1  1  0  0  0
 14 22  1  0  0  0  0
 16 17  1  1  0  0  0
 16 24  1  0  0  0  0
 18 19  1  6  0  0  0
 18 25  1  0  0  0  0
 20 21  1  1  0  0  0
 20 27  1  0  0  0  0
 22 23  1  6  0  0  0
 22 29  1  0  0  0  0
 24  2  1  6  0  0  0
 24 31  1  0  0  0  0
 25 26  1  0  0  0  0
 25 33  1  1  0  0  0
 27 28  1  6  0  0  0
 27 35  1  0  0  0  0
 29 30  1  0  0  0  0
 29 37  1  1  0  0  0
 31 32  1  1  0  0  0
 31 39  1  0  0  0  0
 33 34  1  0  0  0  0
 35 36  1  0  0  0  0
 35 41  1  1  0  0  0
 37 38  1  0  0  0  0
 39 40  1  6  0  0  0
 41 42  1  0  0  0  0
M  END
>  <CHROM.1>
169.35062898,-173.49558531,81.26139030,-114.32113271,-59.28200689,-63.31915752
175.21164521,-176.59923107,-63.50910062,8.39764010,3.05156918,3.07481399
2.48121969,-0.23572376,-1.08091942

>  <Name>
ligand

>  <RI>
0

>  <Rbt.Current_Directory>
/home/itssahil/PROJECTS/Mol_Feturizer/Test_systems_manuscript/rnas/2o3w

>  <Rbt.Executable>
rbdock ($Id: //depot/dev/client3/rdock/2013.1/src/exe/rbdock.cxx#4 $)

>  <Rbt.Library>
libRbt.so (2013.1, Build901 2013/11/27)

>  <Rbt.Parameter_File>
/export/apps/rDock/src/rDock_2013.1_src/data/scripts/dock_solv.prm

>  <Rbt.Receptor>
prm/pocket_docking_7.prm

>  <SCORE>
-9.86981

>  <SCORE.INTER>
-1.60055

>  <SCORE.INTER.CONST>
1

>  <SCORE.INTER.POLAR>
0

>  <SCORE.INTER.ROT>
9

>  <SCORE.INTER.SOLV>
15.1993

>  <SCORE.INTER.VDW>
-15.7335

>  <SCORE.INTER.norm>
-0.0381083

>  <SCORE.INTRA>
-8.26926

>  <SCORE.INTRA.DIHEDRAL>
-17.8136

>  <SCORE.INTRA.DIHEDRAL.0>
27.8999

>  <SCORE.INTRA.POLAR>
0

>  <SCORE.INTRA.POLAR.0>
0

>  <SCORE.INTRA.REPUL>
0

>  <SCORE.INTRA.REPUL.0>
0

>  <SCORE.INTRA.SOLV>
-3.8233

>  <SCORE.INTRA.SOLV.lig_0>
-104.479

>  <SCORE.INTRA.VDW>
2.54917

>  <SCORE.INTRA.VDW.0>
-6.17816

>  <SCORE.INTRA.norm>
-0.196887

>  <SCORE.RESTR>
0

>  <SCORE.RESTR.CAVITY>
0

>  <SCORE.RESTR.norm>
0

>  <SCORE.SYSTEM>
0

>  <SCORE.SYSTEM.CONST>
0

>  <SCORE.SYSTEM.DIHEDRAL>
0

>  <SCORE.SYSTEM.SOLV>
0

>  <SCORE.SYSTEM.norm>
0

>  <SCORE.heavy>
42

>  <SCORE.norm>
-0.234995

>  <RMSD>
8.512

$$$$
ligand
 OpenBabel02271912133D
libRbt.so/2013.1/901 2013/11/27
 42 45  0  0  0  0  0  0  0  0999 V2000
    3.4768    3.3634    1.2631 C   0  0  2  0  0  0  0  0  0  0  0  0
    2.1717    2.7855    1.4366 O   0  0  0  0  0  0  0  0  0  0  0  0
    1.0013   -0.5597    3.9339 C   0  0  2  0  0  0  0  0  0  0  0  0
    0.8570   -1.9314    4.5065 N   0  0  0  0  0  0  0  0  0  0  0  0
    5.1307    1.4696    4.0875 C   0  0  1  0  0  0  0  0  0  0  0  0
    9.0185    1.8572    5.3767 C   0  0  1  0  0  0  0  0  0  0  0  0
    3.2707    4.7675    0.6195 C   0  0  2  0  0  0  0  0  0  0  0  0
    2.2648    5.5729    1.3337 N   0  0  0  0  0  0  0  0  0  0  0  0
    0.3852   -0.4770    2.4794 C   0  0  0  0  0  0  0  0  0  0  0  0
    6.4293    2.2544    3.7287 C   0  0  2  0  0  0  0  0  0  0  0  0
    7.4563    1.4423    3.1086 O   0  0  0  0  0  0  0  0  0  0  0  0
    9.8754    0.7624    6.1088 C   0  0  2  0  0  0  0  0  0  0  0  0
    9.8857    0.9919    7.5846 N   0  0  0  0  0  0  0  0  0  0  0  0
    2.8083    4.6762   -0.8464 C   0  0  1  0  0  0  0  0  0  0  0  0
    2.6708    5.9831   -1.4068 O   0  0  0  0  0  0  0  0  0  0  0  0
    0.5470    0.9943    1.9395 C   0  0  2  0  0  0  0  0  0  0  0  0
   -0.0362    1.1121    0.5759 N   0  0  0  0  0  0  0  0  0  0  0  0
    6.7936    2.8614    5.0845 C   0  0  2  0  0  0  0  0  0  0  0  0
    7.6717    1.9772    5.8513 O   0  0  0  0  0  0  0  0  0  0  0  0
   11.3633    0.7709    5.5146 C   0  0  1  0  0  0  0  0  0  0  0  0
   11.3431    0.1800    4.1958 O   0  0  0  0  0  0  0  0  0  0  0  0
    3.8120    3.8196   -1.6513 C   0  0  2  0  0  0  0  0  0  0  0  0
    3.4117    3.7402   -2.9996 O   0  0  0  0  0  0  0  0  0  0  0  0
    2.0708    1.4094    1.9021 C   0  0  2  0  0  0  0  0  0  0  0  0
    5.4615    3.0955    5.8166 C   0  0  2  0  0  0  0  0  0  0  0  0
    4.6307    2.0520    5.3130 O   0  0  0  0  0  0  0  0  0  0  0  0
   11.9921    2.2425    5.4331 C   0  0  2  0  0  0  0  0  0  0  0  0
   12.2262    2.6857    6.7692 O   0  0  0  0  0  0  0  0  0  0  0  0
    3.8922    2.3928   -1.0132 C   0  0  2  0  0  0  0  0  0  0  0  0
    4.2999    2.5024    0.3873 O   0  0  0  0  0  0  0  0  0  0  0  0
    2.7558    1.2988    3.2819 C   0  0  2  0  0  0  0  0  0  0  0  0
    4.1681    1.5332    3.0271 O   0  0  0  0  0  0  0  0  0  0  0  0
    4.8144    4.4944    5.5745 C   0  0  0  0  0  0  0  0  0  0  0  0
    5.6984    5.5088    6.0419 O   0  0  0  0  0  0  0  0  0  0  0  0
   11.0077    3.2275    4.6963 C   0  0  1  0  0  0  0  0  0  0  0  0
    9.7439    3.1843    5.4521 O   0  0  0  0  0  0  0  0  0  0  0  0
    4.8603    1.4857   -1.7370 C   0  0  0  0  0  0  0  0  0  0  0  0
    4.9030    0.2255   -1.1130 O   0  0  0  0  0  0  0  0  0  0  0  0
    2.5272   -0.1465    3.8939 C   0  0  1  0  0  0  0  0  0  0  0  0
    3.0294   -0.2008    5.2320 O   0  0  0  0  0  0  0  0  0  0  0  0
   11.5397    4.7230    4.6001 C   0  0  0  0  0  0  0  0  0  0  0  0
   10.6447    5.6787    3.8915 N   0  0  0  0  0  0  0  0  0  0  0  0
  1  2  1  6  0  0  0
  1  7  1  0  0  0  0
  1 30  1  0  0  0  0
  3  4  1  6  0  0  0
  3  9  1  0  0  0  0
  3 39  1  0  0  0  0
  5 10  1  0  0  0  0
  5 26  1  0  0  0  0
  5 32  1  6  0  0  0
  6 12  1  0  0  0  0
  6 36  1  0  0  0  0
  6 19  1  1  0  0  0
  7  8  1  1  0  0  0
  7 14  1  0  0  0  0
  9 16  1  0  0  0  0
 10 11  1  1  0  0  0
 10 18  1  0  0  0  0
 12 13  1  1  0  0  0
 12 20  1  0  0  0  0
 14 15  1  6  0  0  0
 14 22  1  0  0  0  0
 16 17  1  6  0  0  0
 16 24  1  0  0  0  0
 18 19  1  1  0  0  0
 18 25  1  0  0  0  0
 20 21  1  6  0  0  0
 20 27  1  0  0  0  0
 22 23  1  6  0  0  0
 22 29  1  0  0  0  0
 24  2  1  1  0  0  0
 24 31  1  0  0  0  0
 25 26  1  0  0  0  0
 25 33  1  6  0  0  0
 27 28  1  1  0  0  0
 27 35  1  0  0  0  0
 29 30  1  0  0  0  0
 29 37  1  6  0  0  0
 31 32  1  6  0  0  0
 31 39  1  0  0  0  0
 33 34  1  0  0  0  0
 35 36  1  0  0  0  0
 35 41  1  1  0  0  0
 37 38  1  0  0  0  0
 39 40  1  1  0  0  0
 41 42  1  0  0  0  0
M  END
>  <CHROM.1>
174.04927016,-177.20801417,71.48043180,-172.43965861,-61.20080106,179.32849832
-178.21187913,-158.42043767,179.10087023,5.54401992,2.29130611,3.07078755
-2.71232020,0.35285132,2.16948666

>  <Name>
ligand

>  <RI>
0

>  <Rbt.Current_Directory>
/home/itssahil/PROJECTS/Mol_Feturizer/Test_systems_manuscript/rnas/2o3w

>  <Rbt.Executable>
rbdock ($Id: //depot/dev/client3/rdock/2013.1/src/exe/rbdock.cxx#4 $)

>  <Rbt.Library>
libRbt.so (2013.1, Build901 2013/11/27)

>  <Rbt.Parameter_File>
/export/apps/rDock/src/rDock_2013.1_src/data/scripts/dock_solv.prm

>  <Rbt.Receptor>
prm/pocket_docking_8.prm

>  <SCORE>
-14.7926

>  <SCORE.INTER>
-2.66298

>  <SCORE.INTER.CONST>
1

>  <SCORE.INTER.POLAR>
0

>  <SCORE.INTER.ROT>
9

>  <SCORE.INTER.SOLV>
14.732

>  <SCORE.INTER.VDW>
-16.286

>  <SCORE.INTER.norm>
-0.0634043

>  <SCORE.INTRA>
-12.1296

>  <SCORE.INTRA.DIHEDRAL>
-24.5466

>  <SCORE.INTRA.DIHEDRAL.0>
27.8999

>  <SCORE.INTRA.POLAR>
0

>  <SCORE.INTRA.POLAR.0>
0

>  <SCORE.INTRA.REPUL>
0

>  <SCORE.INTRA.REPUL.0>
0

>  <SCORE.INTRA.SOLV>
-6.24286

>  <SCORE.INTRA.SOLV.lig_0>
-104.479

>  <SCORE.INTRA.VDW>
3.26516

>  <SCORE.INTRA.VDW.0>
-6.17816

>  <SCORE.INTRA.norm>
-0.288799

>  <SCORE.RESTR>
0

>  <SCORE.RESTR.CAVITY>
0

>  <SCORE.RESTR.norm>
0

>  <SCORE.SYSTEM>
0

>  <SCORE.SYSTEM.CONST>
0

>  <SCORE.SYSTEM.DIHEDRAL>
0

>  <SCORE.SYSTEM.SOLV>
0

>  <SCORE.SYSTEM.norm>
0

>  <SCORE.heavy>
42

>  <SCORE.norm>
-0.352204

>  <RMSD>
8.549

$$$$
ligand
 OpenBabel02271912133D
libRbt.so/2013.1/901 2013/11/27
 42 45  0  0  0  0  0  0  0  0999 V2000
    5.0844    3.7985   -1.3435 C   0  0  2  0  0  0  0  0  0  0  0  0
    5.3284    4.1468   -2.7170 O   0  0  0  0  0  0  0  0  0  0  0  0
    7.7604    7.2342   -4.5470 C   0  0  2  0  0  0  0  0  0  0  0  0
    8.3534    8.5559   -4.9103 N   0  0  0  0  0  0  0  0  0  0  0  0
    8.3830    5.3644   -0.2864 C   0  0  1  0  0  0  0  0  0  0  0  0
   10.5190    6.1317    3.2236 C   0  0  1  0  0  0  0  0  0  0  0  0
    4.5284    2.3429   -1.3350 C   0  0  2  0  0  0  0  0  0  0  0  0
    5.3560    1.4186   -2.1295 N   0  0  0  0  0  0  0  0  0  0  0  0
    6.2369    7.1545   -4.9645 C   0  0  0  0  0  0  0  0  0  0  0  0
    8.1298    5.7633    1.1994 C   0  0  2  0  0  0  0  0  0  0  0  0
    8.4408    7.1461    1.4996 O   0  0  0  0  0  0  0  0  0  0  0  0
   12.0160    6.4999    3.5271 C   0  0  2  0  0  0  0  0  0  0  0  0
   12.8218    5.2728    3.8026 N   0  0  0  0  0  0  0  0  0  0  0  0
    3.0994    2.2599   -1.9025 C   0  0  1  0  0  0  0  0  0  0  0  0
    2.6161    0.9171   -1.8388 O   0  0  0  0  0  0  0  0  0  0  0  0
    5.6753    5.7342   -4.5772 C   0  0  2  0  0  0  0  0  0  0  0  0
    4.2448    5.6188   -4.9697 N   0  0  0  0  0  0  0  0  0  0  0  0
    8.9728    4.7203    1.9348 C   0  0  2  0  0  0  0  0  0  0  0  0
   10.3399    5.1924    2.1562 O   0  0  0  0  0  0  0  0  0  0  0  0
   12.0703    7.5142    4.7661 C   0  0  1  0  0  0  0  0  0  0  0  0
   11.6154    8.8136    4.3263 O   0  0  0  0  0  0  0  0  0  0  0  0
    2.1790    3.2285   -1.1254 C   0  0  2  0  0  0  0  0  0  0  0  0
    0.8629    3.1522   -1.6219 O   0  0  0  0  0  0  0  0  0  0  0  0
    5.8210    5.4821   -3.0245 C   0  0  2  0  0  0  0  0  0  0  0  0
    8.9544    3.4607    1.0524 C   0  0  2  0  0  0  0  0  0  0  0  0
    8.8426    3.9935   -0.2653 O   0  0  0  0  0  0  0  0  0  0  0  0
   11.1822    7.0274    6.0078 C   0  0  2  0  0  0  0  0  0  0  0  0
   11.8154    5.8766    6.5656 O   0  0  0  0  0  0  0  0  0  0  0  0
    2.7380    4.6840   -1.2618 C   0  0  2  0  0  0  0  0  0  0  0  0
    4.1071    4.7352   -0.7491 O   0  0  0  0  0  0  0  0  0  0  0  0
    7.2803    5.6003   -2.5329 C   0  0  2  0  0  0  0  0  0  0  0  0
    7.2021    5.5261   -1.0827 O   0  0  0  0  0  0  0  0  0  0  0  0
    7.7940    2.4625    1.3544 C   0  0  0  0  0  0  0  0  0  0  0  0
    7.8829    2.0340    2.7099 O   0  0  0  0  0  0  0  0  0  0  0  0
    9.7202    6.6725    5.5403 C   0  0  1  0  0  0  0  0  0  0  0  0
    9.8629    5.6418    4.4974 O   0  0  0  0  0  0  0  0  0  0  0  0
    1.8988    5.7009   -0.5234 C   0  0  0  0  0  0  0  0  0  0  0  0
    1.9259    5.4402    0.8588 O   0  0  0  0  0  0  0  0  0  0  0  0
    7.9039    6.9844   -2.9922 C   0  0  1  0  0  0  0  0  0  0  0  0
    9.2966    7.0295   -2.6694 O   0  0  0  0  0  0  0  0  0  0  0  0
    8.7768    6.1466    6.7074 C   0  0  0  0  0  0  0  0  0  0  0  0
    8.5315    7.1080    7.8174 N   0  0  0  0  0  0  0  0  0  0  0  0
  1  2  1  6  0  0  0
  1  7  1  0  0  0  0
  1 30  1  0  0  0  0
  3  4  1  1  0  0  0
  3  9  1  0  0  0  0
  3 39  1  0  0  0  0
  5 10  1  0  0  0  0
  5 26  1  0  0  0  0
  5 32  1  6  0  0  0
  6 12  1  0  0  0  0
  6 36  1  0  0  0  0
  6 19  1  6  0  0  0
  7  8  1  6  0  0  0
  7 14  1  0  0  0  0
  9 16  1  0  0  0  0
 10 11  1  6  0  0  0
 10 18  1  0  0  0  0
 12 13  1  1  0  0  0
 12 20  1  0  0  0  0
 14 15  1  1  0  0  0
 14 22  1  0  0  0  0
 16 17  1  1  0  0  0
 16 24  1  0  0  0  0
 18 19  1  6  0  0  0
 18 25  1  0  0  0  0
 20 21  1  6  0  0  0
 20 27  1  0  0  0  0
 22 23  1  6  0  0  0
 22 29  1  0  0  0  0
 24  2  1  6  0  0  0
 24 31  1  0  0  0  0
 25 26  1  0  0  0  0
 25 33  1  1  0  0  0
 27 28  1  6  0  0  0
 27 35  1  0  0  0  0
 29 30  1  0  0  0  0
 29 37  1  1  0  0  0
 31 32  1  1  0  0  0
 31 39  1  0  0  0  0
 33 34  1  0  0  0  0
 35 36  1  0  0  0  0
 35 41  1  1  0  0  0
 37 38  1  0  0  0  0
 39 40  1  6  0  0  0
 41 42  1  0  0  0  0
M  END
>  <CHROM.1>
178.25379370,-166.45631683,77.39441550,173.92696536,-59.08143789,63.71375775
168.84538907,161.72474758,61.78854959,7.27742613,5.21451399,0.41441287,2.43465016
-0.53149653,-1.30772033

>  <Name>
ligand

>  <RI>
0

>  <Rbt.Current_Directory>
/home/itssahil/PROJECTS/Mol_Feturizer/Test_systems_manuscript/rnas/2o3w

>  <Rbt.Executable>
rbdock ($Id: //depot/dev/client3/rdock/2013.1/src/exe/rbdock.cxx#4 $)

>  <Rbt.Library>
libRbt.so (2013.1, Build901 2013/11/27)

>  <Rbt.Parameter_File>
/export/apps/rDock/src/rDock_2013.1_src/data/scripts/dock_solv.prm

>  <Rbt.Receptor>
prm/pocket_docking_8.prm

>  <SCORE>
-12.9527

>  <SCORE.INTER>
-0.823035

>  <SCORE.INTER.CONST>
1

>  <SCORE.INTER.POLAR>
0

>  <SCORE.INTER.ROT>
9

>  <SCORE.INTER.SOLV>
22.4969

>  <SCORE.INTER.VDW>
-17.6476

>  <SCORE.INTER.norm>
-0.0195961

>  <SCORE.INTRA>
-12.1296

>  <SCORE.INTRA.DIHEDRAL>
-23.1218

>  <SCORE.INTRA.DIHEDRAL.0>
27.8999

>  <SCORE.INTRA.POLAR>
0

>  <SCORE.INTRA.POLAR.0>
0

>  <SCORE.INTRA.REPUL>
0

>  <SCORE.INTRA.REPUL.0>
0

>  <SCORE.INTRA.SOLV>
-5.46617

>  <SCORE.INTRA.SOLV.lig_0>
-104.479

>  <SCORE.INTRA.VDW>
2.16432

>  <SCORE.INTRA.VDW.0>
-6.17816

>  <SCORE.INTRA.norm>
-0.288801

>  <SCORE.RESTR>
0

>  <SCORE.RESTR.CAVITY>
0

>  <SCORE.RESTR.norm>
0

>  <SCORE.SYSTEM>
0

>  <SCORE.SYSTEM.CONST>
0

>  <SCORE.SYSTEM.DIHEDRAL>
0

>  <SCORE.SYSTEM.SOLV>
0

>  <SCORE.SYSTEM.norm>
0

>  <SCORE.heavy>
42

>  <SCORE.norm>
-0.308397

>  <RMSD>
8.565

$$$$
ligand
 OpenBabel02271912133D
libRbt.so/2013.1/901 2013/11/27
 42 45  0  0  0  0  0  0  0  0999 V2000
    6.5431    6.9286   -0.4214 C   0  0  2  0  0  0  0  0  0  0  0  0
    5.6191    6.2433    0.4411 O   0  0  0  0  0  0  0  0  0  0  0  0
    7.3304    7.5023    4.2202 C   0  0  2  0  0  0  0  0  0  0  0  0
    7.5949    7.6765    5.6797 N   0  0  0  0  0  0  0  0  0  0  0  0
    5.9539    3.5274    2.7658 C   0  0  1  0  0  0  0  0  0  0  0  0
    3.6264    0.1290    3.1244 C   0  0  1  0  0  0  0  0  0  0  0  0
    5.9700    6.8360   -1.8675 C   0  0  2  0  0  0  0  0  0  0  0  0
    4.5541    7.2370   -1.9396 N   0  0  0  0  0  0  0  0  0  0  0  0
    5.9205    8.0956    3.8176 C   0  0  0  0  0  0  0  0  0  0  0  0
    5.9566    2.0315    2.3261 C   0  0  2  0  0  0  0  0  0  0  0  0
    5.0146    1.7265    1.2685 O   0  0  0  0  0  0  0  0  0  0  0  0
    2.0831   -0.0109    3.3836 C   0  0  2  0  0  0  0  0  0  0  0  0
    1.8047   -0.2476    4.8319 N   0  0  0  0  0  0  0  0  0  0  0  0
    6.0579    5.4096   -2.4407 C   0  0  1  0  0  0  0  0  0  0  0  0
    5.5592    5.3797   -3.7791 O   0  0  0  0  0  0  0  0  0  0  0  0
    5.7095    7.9029    2.2681 C   0  0  2  0  0  0  0  0  0  0  0  0
    4.3962    8.4641    1.8511 N   0  0  0  0  0  0  0  0  0  0  0  0
    5.7038    1.3291    3.6610 C   0  0  2  0  0  0  0  0  0  0  0  0
    4.2740    1.1398    3.9071 O   0  0  0  0  0  0  0  0  0  0  0  0
    1.5016   -1.2021    2.4837 C   0  0  1  0  0  0  0  0  0  0  0  0
    1.4485   -0.7647    1.1072 O   0  0  0  0  0  0  0  0  0  0  0  0
    7.5210    4.9158   -2.3724 C   0  0  2  0  0  0  0  0  0  0  0  0
    7.6215    3.6171   -2.9090 O   0  0  0  0  0  0  0  0  0  0  0  0
    5.7785    6.3724    1.8827 C   0  0  2  0  0  0  0  0  0  0  0  0
    6.3410    2.2229    4.7383 C   0  0  2  0  0  0  0  0  0  0  0  0
    6.2082    3.5318    4.1893 O   0  0  0  0  0  0  0  0  0  0  0  0
    2.3738   -2.5424    2.5868 C   0  0  2  0  0  0  0  0  0  0  0  0
    2.1931   -3.0742    3.8986 O   0  0  0  0  0  0  0  0  0  0  0  0
    7.9979    4.9367   -0.8818 C   0  0  2  0  0  0  0  0  0  0  0  0
    7.8752    6.2919   -0.3450 O   0  0  0  0  0  0  0  0  0  0  0  0
    7.1102    5.7097    2.2980 C   0  0  2  0  0  0  0  0  0  0  0  0
    6.9271    4.2903    2.0406 O   0  0  0  0  0  0  0  0  0  0  0  0
    7.8322    1.8996    5.0641 C   0  0  0  0  0  0  0  0  0  0  0  0
    7.9311    0.5583    5.5334 O   0  0  0  0  0  0  0  0  0  0  0  0
    3.8973   -2.2353    2.3280 C   0  0  1  0  0  0  0  0  0  0  0  0
    4.2849   -1.2201    3.3227 O   0  0  0  0  0  0  0  0  0  0  0  0
    9.4272    4.4727   -0.7220 C   0  0  0  0  0  0  0  0  0  0  0  0
    9.7583    4.3834    0.6424 O   0  0  0  0  0  0  0  0  0  0  0  0
    7.3966    5.9698    3.8362 C   0  0  1  0  0  0  0  0  0  0  0  0
    8.6976    5.4882    4.1842 O   0  0  0  0  0  0  0  0  0  0  0  0
    4.8433   -3.5082    2.4446 C   0  0  0  0  0  0  0  0  0  0  0  0
    6.3001   -3.2419    2.2908 N   0  0  0  0  0  0  0  0  0  0  0  0
  1  2  1  1  0  0  0
  1  7  1  0  0  0  0
  1 30  1  0  0  0  0
  3  4  1  1  0  0  0
  3  9  1  0  0  0  0
  3 39  1  0  0  0  0
  5 10  1  0  0  0  0
  5 26  1  0  0  0  0
  5 32  1  6  0  0  0
  6 12  1  0  0  0  0
  6 36  1  0  0  0  0
  6 19  1  1  0  0  0
  7  8  1  1  0  0  0
  7 14  1  0  0  0  0
  9 16  1  0  0  0  0
 10 11  1  6  0  0  0
 10 18  1  0  0  0  0
 12 13  1  1  0  0  0
 12 20  1  0  0  0  0
 14 15  1  6  0  0  0
 14 22  1  0  0  0  0
 16 17  1  1  0  0  0
 16 24  1  0  0  0  0
 18 19  1  1  0  0  0
 18 25  1  0  0  0  0
 20 21  1  6  0  0  0
 20 27  1  0  0  0  0
 22 23  1  1  0  0  0
 22 29  1  0  0  0  0
 24  2  1  6  0  0  0
 24 31  1  0  0  0  0
 25 26  1  0  0  0  0
 25 33  1  6  0  0  0
 27 28  1  1  0  0  0
 27 35  1  0  0  0  0
 29 30  1  0  0  0  0
 29 37  1  6  0  0  0
 31 32  1  1  0  0  0
 31 39  1  0  0  0  0
 33 34  1  0  0  0  0
 35 36  1  0  0  0  0
 35 41  1  1  0  0  0
 37 38  1  0  0  0  0
 39 40  1  6  0  0  0
 41 42  1  0  0  0  0
M  END
>  <CHROM.1>
-169.28510701,57.75737237,73.26757703,-178.06481559,-60.07282746,-174.11030136
-64.46292998,-179.32142319,-176.31760879,5.75398341,3.16238680,1.91540226
0.56277169,-1.12217061,-1.29242019

>  <Name>
ligand

>  <RI>
0

>  <Rbt.Current_Directory>
/home/itssahil/PROJECTS/Mol_Feturizer/Test_systems_manuscript/rnas/2o3w

>  <Rbt.Executable>
rbdock ($Id: //depot/dev/client3/rdock/2013.1/src/exe/rbdock.cxx#4 $)

>  <Rbt.Library>
libRbt.so (2013.1, Build901 2013/11/27)

>  <Rbt.Parameter_File>
/export/apps/rDock/src/rDock_2013.1_src/data/scripts/dock_solv.prm

>  <Rbt.Receptor>
prm/pocket_docking_5.prm

>  <SCORE>
-10.4345

>  <SCORE.INTER>
2.26554

>  <SCORE.INTER.CONST>
1

>  <SCORE.INTER.POLAR>
0

>  <SCORE.INTER.ROT>
9

>  <SCORE.INTER.SOLV>
10.3169

>  <SCORE.INTER.VDW>
-11.5286

>  <SCORE.INTER.norm>
0.0539414

>  <SCORE.INTRA>
-12.7019

>  <SCORE.INTRA.DIHEDRAL>
-26.0453

>  <SCORE.INTRA.DIHEDRAL.0>
27.8999

>  <SCORE.INTRA.POLAR>
0

>  <SCORE.INTRA.POLAR.0>
0

>  <SCORE.INTRA.REPUL>
0

>  <SCORE.INTRA.REPUL.0>
0

>  <SCORE.INTRA.SOLV>
-4.28953

>  <SCORE.INTRA.SOLV.lig_0>
-104.479

>  <SCORE.INTRA.VDW>
2.46551

>  <SCORE.INTRA.VDW.0>
-6.17816

>  <SCORE.INTRA.norm>
-0.302427

>  <SCORE.RESTR>
0.00184865

>  <SCORE.RESTR.CAVITY>
0.00184865

>  <SCORE.RESTR.norm>
4.40155e-05

>  <SCORE.SYSTEM>
0

>  <SCORE.SYSTEM.CONST>
0

>  <SCORE.SYSTEM.DIHEDRAL>
0

>  <SCORE.SYSTEM.SOLV>
0

>  <SCORE.SYSTEM.norm>
0

>  <SCORE.heavy>
42

>  <SCORE.norm>
-0.248441

>  <RMSD>
8.575

$$$$
ligand
 OpenBabel02271912133D
libRbt.so/2013.1/901 2013/11/27
 42 45  0  0  0  0  0  0  0  0999 V2000
    5.0522    4.8181    4.3449 C   0  0  2  0  0  0  0  0  0  0  0  0
    5.5321    4.9906    3.0006 O   0  0  0  0  0  0  0  0  0  0  0  0
    2.0210    3.5870    0.8798 C   0  0  2  0  0  0  0  0  0  0  0  0
    1.0233    3.2942   -0.1922 N   0  0  0  0  0  0  0  0  0  0  0  0
    7.0203    3.0000    1.9158 C   0  0  1  0  0  0  0  0  0  0  0  0
   10.1245    1.1183    3.8464 C   0  0  1  0  0  0  0  0  0  0  0  0
    6.2486    5.1181    5.2972 C   0  0  2  0  0  0  0  0  0  0  0  0
    6.9185    6.3906    4.9772 N   0  0  0  0  0  0  0  0  0  0  0  0
    2.1567    5.1432    1.1282 C   0  0  0  0  0  0  0  0  0  0  0  0
    7.9134    1.7301    1.7728 C   0  0  2  0  0  0  0  0  0  0  0  0
    7.6130    0.6872    2.7326 O   0  0  0  0  0  0  0  0  0  0  0  0
   10.7396    1.2146    5.2890 C   0  0  2  0  0  0  0  0  0  0  0  0
   11.9362    2.1085    5.3001 N   0  0  0  0  0  0  0  0  0  0  0  0
    7.3280    4.0213    5.2427 C   0  0  1  0  0  0  0  0  0  0  0  0
    8.3840    4.3168    6.1584 O   0  0  0  0  0  0  0  0  0  0  0  0
    3.2027    5.3867    2.2810 C   0  0  2  0  0  0  0  0  0  0  0  0
    3.3449    6.8427    2.5516 N   0  0  0  0  0  0  0  0  0  0  0  0
    9.3131    2.3387    1.8725 C   0  0  2  0  0  0  0  0  0  0  0  0
    9.7846    2.3796    3.2570 O   0  0  0  0  0  0  0  0  0  0  0  0
   11.1148   -0.2557    5.8030 C   0  0  1  0  0  0  0  0  0  0  0  0
    9.8970   -0.9591    6.1363 O   0  0  0  0  0  0  0  0  0  0  0  0
    6.6846    2.6492    5.5470 C   0  0  2  0  0  0  0  0  0  0  0  0
    7.6631    1.6361    5.5176 O   0  0  0  0  0  0  0  0  0  0  0  0
    4.6090    4.7795    1.8944 C   0  0  2  0  0  0  0  0  0  0  0  0
    9.2042    3.7533    1.2789 C   0  0  2  0  0  0  0  0  0  0  0  0
    7.8631    4.1276    1.5852 O   0  0  0  0  0  0  0  0  0  0  0  0
   11.9427   -1.1002    4.7218 C   0  0  2  0  0  0  0  0  0  0  0  0
   13.2364   -0.5081    4.6113 O   0  0  0  0  0  0  0  0  0  0  0  0
    5.5634    2.3659    4.4924 C   0  0  2  0  0  0  0  0  0  0  0  0
    4.5659    3.4350    4.5357 O   0  0  0  0  0  0  0  0  0  0  0  0
    4.5434    3.2684    1.5817 C   0  0  2  0  0  0  0  0  0  0  0  0
    5.8623    2.9258    1.0740 O   0  0  0  0  0  0  0  0  0  0  0  0
    9.4766    3.8463   -0.2545 C   0  0  0  0  0  0  0  0  0  0  0  0
    9.3778    5.2057   -0.6682 O   0  0  0  0  0  0  0  0  0  0  0  0
   11.2136   -1.0817    3.3253 C   0  0  1  0  0  0  0  0  0  0  0  0
   11.0697    0.3376    2.9576 O   0  0  0  0  0  0  0  0  0  0  0  0
    4.8731    1.0408    4.7193 C   0  0  0  0  0  0  0  0  0  0  0  0
    3.8936    0.8291    3.7318 O   0  0  0  0  0  0  0  0  0  0  0  0
    3.4289    2.9816    0.4903 C   0  0  1  0  0  0  0  0  0  0  0  0
    3.2639    1.5721    0.3123 O   0  0  0  0  0  0  0  0  0  0  0  0
   11.9861   -1.8704    2.1808 C   0  0  0  0  0  0  0  0  0  0  0  0
   12.1877   -3.3248    2.4269 N   0  0  0  0  0  0  0  0  0  0  0  0
  1  2  1  6  0  0  0
  1  7  1  0  0  0  0
  1 30  1  0  0  0  0
  3  4  1  6  0  0  0
  3  9  1  0  0  0  0
  3 39  1  0  0  0  0
  5 10  1  0  0  0  0
  5 26  1  0  0  0  0
  5 32  1  6  0  0  0
  6 12  1  0  0  0  0
  6 36  1  0  0  0  0
  6 19  1  6  0  0  0
  7  8  1  6  0  0  0
  7 14  1  0  0  0  0
  9 16  1  0  0  0  0
 10 11  1  1  0  0  0
 10 18  1  0  0  0  0
 12 13  1  6  0  0  0
 12 20  1  0  0  0  0
 14 15  1  1  0  0  0
 14 22  1  0  0  0  0
 16 17  1  6  0  0  0
 16 24  1  0  0  0  0
 18 19  1  1  0  0  0
 18 25  1  0  0  0  0
 20 21  1  6  0  0  0
 20 27  1  0  0  0  0
 22 23  1  6  0  0  0
 22 29  1  0  0  0  0
 24  2  1  1  0  0  0
 24 31  1  0  0  0  0
 25 26  1  0  0  0  0
 25 33  1  6  0  0  0
 27 28  1  6  0  0  0
 27 35  1  0  0  0  0
 29 30  1  0  0  0  0
 29 37  1  1  0  0  0
 31 32  1  6  0  0  0
 31 39  1  0  0  0  0
 33 34  1  0  0  0  0
 35 36  1  0  0  0  0
 35 41  1  6  0  0  0
 37 38  1  0  0  0  0
 39 40  1  1  0  0  0
 41 42  1  0  0  0  0
M  END
>  <CHROM.1>
-179.60828289,40.05083777,71.23356393,175.10320942,-178.54420800,-178.99812191
65.78180861,134.06692772,61.25077399,7.38213632,2.46273355,3.08732040,3.09562927
0.57089327,-1.93276745

>  <Name>
ligand

>  <RI>
0

>  <Rbt.Current_Directory>
/home/itssahil/PROJECTS/Mol_Feturizer/Test_systems_manuscript/rnas/2o3w

>  <Rbt.Executable>
rbdock ($Id: //depot/dev/client3/rdock/2013.1/src/exe/rbdock.cxx#4 $)

>  <Rbt.Library>
libRbt.so (2013.1, Build901 2013/11/27)

>  <Rbt.Parameter_File>
/export/apps/rDock/src/rDock_2013.1_src/data/scripts/dock_solv.prm

>  <Rbt.Receptor>
prm/pocket_docking_5.prm

>  <SCORE>
-13.3085

>  <SCORE.INTER>
-2.90175

>  <SCORE.INTER.CONST>
1

>  <SCORE.INTER.POLAR>
0

>  <SCORE.INTER.ROT>
9

>  <SCORE.INTER.SOLV>
9.29214

>  <SCORE.INTER.VDW>
-14.6319

>  <SCORE.INTER.norm>
-0.0690894

>  <SCORE.INTRA>
-10.4067

>  <SCORE.INTRA.DIHEDRAL>
-18.8142

>  <SCORE.INTRA.DIHEDRAL.0>
27.8999

>  <SCORE.INTRA.POLAR>
0

>  <SCORE.INTRA.POLAR.0>
0

>  <SCORE.INTRA.REPUL>
0.0551723

>  <SCORE.INTRA.REPUL.0>
0

>  <SCORE.INTRA.SOLV>
-1.71321

>  <SCORE.INTRA.SOLV.lig_0>
-104.479

>  <SCORE.INTRA.VDW>
-0.418872

>  <SCORE.INTRA.VDW.0>
-6.17816

>  <SCORE.INTRA.norm>
-0.247779

>  <SCORE.RESTR>
0

>  <SCORE.RESTR.CAVITY>
0

>  <SCORE.RESTR.norm>
0

>  <SCORE.SYSTEM>
0

>  <SCORE.SYSTEM.CONST>
0

>  <SCORE.SYSTEM.DIHEDRAL>
0

>  <SCORE.SYSTEM.SOLV>
0

>  <SCORE.SYSTEM.norm>
0

>  <SCORE.heavy>
42

>  <SCORE.norm>
-0.316868

>  <RMSD>
8.581

$$$$
ligand
 OpenBabel02271912133D
libRbt.so/2013.1/901 2013/11/27
 42 45  0  0  0  0  0  0  0  0999 V2000
    5.7361    3.6197    4.4626 C   0  0  2  0  0  0  0  0  0  0  0  0
    4.9811    2.4004    4.5651 O   0  0  0  0  0  0  0  0  0  0  0  0
    6.1085   -1.7780    4.3085 C   0  0  2  0  0  0  0  0  0  0  0  0
    6.6761   -3.0768    3.8380 N   0  0  0  0  0  0  0  0  0  0  0  0
    8.9659    1.6803    5.4845 C   0  0  1  0  0  0  0  0  0  0  0  0
   11.7158    1.1338    6.5647 C   0  0  1  0  0  0  0  0  0  0  0  0
    4.8805    4.7417    5.1238 C   0  0  2  0  0  0  0  0  0  0  0  0
    4.3883    4.3622    6.4596 N   0  0  0  0  0  0  0  0  0  0  0  0
    4.9731   -1.2618    3.3358 C   0  0  0  0  0  0  0  0  0  0  0  0
    9.6767    3.0673    5.5276 C   0  0  2  0  0  0  0  0  0  0  0  0
   10.6421    3.2680    4.4660 O   0  0  0  0  0  0  0  0  0  0  0  0
   12.8973    0.3448    7.2359 C   0  0  2  0  0  0  0  0  0  0  0  0
   14.1968    1.0509    7.0271 N   0  0  0  0  0  0  0  0  0  0  0  0
    3.6442    5.1068    4.2815 C   0  0  1  0  0  0  0  0  0  0  0  0
    2.9127    6.1642    4.9042 O   0  0  0  0  0  0  0  0  0  0  0  0
    4.4000    0.0951    3.8951 C   0  0  2  0  0  0  0  0  0  0  0  0
    3.3171    0.6033    3.0103 N   0  0  0  0  0  0  0  0  0  0  0  0
   10.2448    3.0659    6.9477 C   0  0  2  0  0  0  0  0  0  0  0  0
   11.5924    2.4975    6.9875 O   0  0  0  0  0  0  0  0  0  0  0  0
   12.9473   -1.1411    6.6389 C   0  0  1  0  0  0  0  0  0  0  0  0
   11.8455   -1.9010    7.1843 O   0  0  0  0  0  0  0  0  0  0  0  0
    4.0896    5.4938    2.8529 C   0  0  2  0  0  0  0  0  0  0  0  0
    2.9705    5.8470    2.0736 O   0  0  0  0  0  0  0  0  0  0  0  0
    5.5443    1.1785    4.0082 C   0  0  2  0  0  0  0  0  0  0  0  0
    9.2652    2.2375    7.7959 C   0  0  2  0  0  0  0  0  0  0  0  0
    8.7509    1.2922    6.8608 O   0  0  0  0  0  0  0  0  0  0  0  0
   12.8786   -1.1710    5.0382 C   0  0  2  0  0  0  0  0  0  0  0  0
   14.1049   -0.6339    4.5442 O   0  0  0  0  0  0  0  0  0  0  0  0
    4.8517    4.2867    2.2111 C   0  0  2  0  0  0  0  0  0  0  0  0
    6.0022    3.9332    3.0425 O   0  0  0  0  0  0  0  0  0  0  0  0
    6.7179    0.7190    4.9008 C   0  0  2  0  0  0  0  0  0  0  0  0
    7.7409    1.7402    4.7424 O   0  0  0  0  0  0  0  0  0  0  0  0
    8.1135    3.0556    8.4581 C   0  0  0  0  0  0  0  0  0  0  0  0
    7.3150    3.6523    7.4406 O   0  0  0  0  0  0  0  0  0  0  0  0
   11.6607   -0.3175    4.5181 C   0  0  1  0  0  0  0  0  0  0  0  0
   11.8511    1.0394    5.0594 O   0  0  0  0  0  0  0  0  0  0  0  0
    5.3312    4.5811    0.8086 C   0  0  0  0  0  0  0  0  0  0  0  0
    4.2363    4.6636   -0.0709 O   0  0  0  0  0  0  0  0  0  0  0  0
    7.2542   -0.6936    4.4183 C   0  0  1  0  0  0  0  0  0  0  0  0
    8.2364   -1.1873    5.3332 O   0  0  0  0  0  0  0  0  0  0  0  0
   11.5366   -0.2647    2.9337 C   0  0  0  0  0  0  0  0  0  0  0  0
   11.3469   -1.5789    2.2602 N   0  0  0  0  0  0  0  0  0  0  0  0
  1  2  1  6  0  0  0
  1  7  1  0  0  0  0
  1 30  1  0  0  0  0
  3  4  1  6  0  0  0
  3  9  1  0  0  0  0
  3 39  1  0  0  0  0
  5 10  1  0  0  0  0
  5 26  1  0  0  0  0
  5 32  1  6  0  0  0
  6 12  1  0  0  0  0
  6 36  1  0  0  0  0
  6 19  1  6  0  0  0
  7  8  1  1  0  0  0
  7 14  1  0  0  0  0
  9 16  1  0  0  0  0
 10 11  1  6  0  0  0
 10 18  1  0  0  0  0
 12 13  1  6  0  0  0
 12 20  1  0  0  0  0
 14 15  1  1  0  0  0
 14 22  1  0  0  0  0
 16 17  1  6  0  0  0
 16 24  1  0  0  0  0
 18 19  1  6  0  0  0
 18 25  1  0  0  0  0
 20 21  1  1  0  0  0
 20 27  1  0  0  0  0
 22 23  1  6  0  0  0
 22 29  1  0  0  0  0
 24  2  1  1  0  0  0
 24 31  1  0  0  0  0
 25 26  1  0  0  0  0
 25 33  1  6  0  0  0
 27 28  1  6  0  0  0
 27 35  1  0  0  0  0
 29 30  1  0  0  0  0
 29 37  1  6  0  0  0
 31 32  1  6  0  0  0
 31 39  1  0  0  0  0
 33 34  1  0  0  0  0
 35 36  1  0  0  0  0
 35 41  1  6  0  0  0
 37 38  1  0  0  0  0
 39 40  1  1  0  0  0
 41 42  1  0  0  0  0
M  END
>  <CHROM.1>
179.34938763,-165.02007915,-61.10365743,-151.28283234,61.98713630,-69.71049205
176.87410964,-160.92666319,60.47631268,8.01410731,1.74306766,4.78851005,-2.84794609
0.47361415,-2.70702349

>  <Name>
ligand

>  <RI>
0

>  <Rbt.Current_Directory>
/home/itssahil/PROJECTS/Mol_Feturizer/Test_systems_manuscript/rnas/2o3w

>  <Rbt.Executable>
rbdock ($Id: //depot/dev/client3/rdock/2013.1/src/exe/rbdock.cxx#4 $)

>  <Rbt.Library>
libRbt.so (2013.1, Build901 2013/11/27)

>  <Rbt.Parameter_File>
/export/apps/rDock/src/rDock_2013.1_src/data/scripts/dock_solv.prm

>  <Rbt.Receptor>
prm/pocket_docking_5.prm

>  <SCORE>
-12.9517

>  <SCORE.INTER>
-2.29696

>  <SCORE.INTER.CONST>
1

>  <SCORE.INTER.POLAR>
0

>  <SCORE.INTER.ROT>
9

>  <SCORE.INTER.SOLV>
13.5265

>  <SCORE.INTER.VDW>
-15.6401

>  <SCORE.INTER.norm>
-0.0546895

>  <SCORE.INTRA>
-10.6639

>  <SCORE.INTRA.DIHEDRAL>
-21.3572

>  <SCORE.INTRA.DIHEDRAL.0>
27.8999

>  <SCORE.INTRA.POLAR>
0

>  <SCORE.INTRA.POLAR.0>
0

>  <SCORE.INTRA.REPUL>
0

>  <SCORE.INTRA.REPUL.0>
0

>  <SCORE.INTRA.SOLV>
-2.53694

>  <SCORE.INTRA.SOLV.lig_0>
-104.479

>  <SCORE.INTRA.VDW>
1.28316

>  <SCORE.INTRA.VDW.0>
-6.17816

>  <SCORE.INTRA.norm>
-0.253903

>  <SCORE.RESTR>
0.00918757

>  <SCORE.RESTR.CAVITY>
0.00918757

>  <SCORE.RESTR.norm>
0.000218752

>  <SCORE.SYSTEM>
0

>  <SCORE.SYSTEM.CONST>
0

>  <SCORE.SYSTEM.DIHEDRAL>
0

>  <SCORE.SYSTEM.SOLV>
0

>  <SCORE.SYSTEM.norm>
0

>  <SCORE.heavy>
42

>  <SCORE.norm>
-0.308373

>  <RMSD>
8.608

$$$$
ligand
 OpenBabel02271912133D
libRbt.so/2013.1/901 2013/11/27
 42 45  0  0  0  0  0  0  0  0999 V2000
    9.1436    2.8268    2.1894 C   0  0  2  0  0  0  0  0  0  0  0  0
    9.3771    3.9914    2.9996 O   0  0  0  0  0  0  0  0  0  0  0  0
   11.7816    4.4347    6.5799 C   0  0  2  0  0  0  0  0  0  0  0  0
   12.3124    4.2955    7.9688 N   0  0  0  0  0  0  0  0  0  0  0  0
   10.4007    0.7232    4.7302 C   0  0  1  0  0  0  0  0  0  0  0  0
    7.6913   -2.1640    6.7440 C   0  0  1  0  0  0  0  0  0  0  0  0
    8.8008    3.3314    0.7555 C   0  0  2  0  0  0  0  0  0  0  0  0
    9.7755    4.3170    0.2566 N   0  0  0  0  0  0  0  0  0  0  0  0
   10.3377    5.0805    6.5793 C   0  0  0  0  0  0  0  0  0  0  0  0
    8.9874    1.0764    5.2859 C   0  0  2  0  0  0  0  0  0  0  0  0
    9.0100    1.7513    6.5677 O   0  0  0  0  0  0  0  0  0  0  0  0
    7.9258   -2.8922    8.1164 C   0  0  2  0  0  0  0  0  0  0  0  0
    9.3633   -3.2605    8.2860 N   0  0  0  0  0  0  0  0  0  0  0  0
    7.4161    4.0014    0.6874 C   0  0  1  0  0  0  0  0  0  0  0  0
    7.1274    4.4119   -0.6502 O   0  0  0  0  0  0  0  0  0  0  0  0
    9.8424    5.2217    5.0902 C   0  0  2  0  0  0  0  0  0  0  0  0
    8.4900    5.8405    5.0513 N   0  0  0  0  0  0  0  0  0  0  0  0
    8.3113   -0.2955    5.2716 C   0  0  2  0  0  0  0  0  0  0  0  0
    8.5094   -1.0061    6.5351 O   0  0  0  0  0  0  0  0  0  0  0  0
    6.9866   -4.1878    8.1948 C   0  0  1  0  0  0  0  0  0  0  0  0
    5.6217   -3.7632    8.4085 O   0  0  0  0  0  0  0  0  0  0  0  0
    6.3438    3.0249    1.2219 C   0  0  2  0  0  0  0  0  0  0  0  0
    5.0678    3.6174    1.1506 O   0  0  0  0  0  0  0  0  0  0  0  0
    9.8003    3.8106    4.3811 C   0  0  2  0  0  0  0  0  0  0  0  0
    8.9366   -1.0646    4.0957 C   0  0  2  0  0  0  0  0  0  0  0  0
   10.2590   -0.5358    4.0331 O   0  0  0  0  0  0  0  0  0  0  0  0
    7.0657   -5.0941    6.8757 C   0  0  2  0  0  0  0  0  0  0  0  0
    8.3602   -5.6935    6.8417 O   0  0  0  0  0  0  0  0  0  0  0  0
    6.6936    2.6409    2.6983 C   0  0  2  0  0  0  0  0  0  0  0  0
    8.0251    2.0372    2.7473 O   0  0  0  0  0  0  0  0  0  0  0  0
   11.1679    3.0931    4.3934 C   0  0  2  0  0  0  0  0  0  0  0  0
   10.9043    1.7595    3.8772 O   0  0  0  0  0  0  0  0  0  0  0  0
    8.1989   -0.8946    2.7314 C   0  0  0  0  0  0  0  0  0  0  0  0
    6.8529   -1.3407    2.8657 O   0  0  0  0  0  0  0  0  0  0  0  0
    6.8358   -4.2193    5.5857 C   0  0  1  0  0  0  0  0  0  0  0  0
    7.8624   -3.1632    5.6192 O   0  0  0  0  0  0  0  0  0  0  0  0
    5.6959    1.6790    3.3009 C   0  0  0  0  0  0  0  0  0  0  0  0
    4.4321    2.2893    3.3987 O   0  0  0  0  0  0  0  0  0  0  0  0
   11.7369    3.0213    5.8722 C   0  0  1  0  0  0  0  0  0  0  0  0
   13.0667    2.4947    5.8642 O   0  0  0  0  0  0  0  0  0  0  0  0
    6.9311   -5.0355    4.2243 C   0  0  0  0  0  0  0  0  0  0  0  0
    5.8760   -6.0654    4.0178 N   0  0  0  0  0  0  0  0  0  0  0  0
  1  2  1  1  0  0  0
  1  7  1  0  0  0  0
  1 30  1  0  0  0  0
  3  4  1  1  0  0  0
  3  9  1  0  0  0  0
  3 39  1  0  0  0  0
  5 10  1  0  0  0  0
  5 26  1  0  0  0  0
  5 32  1  6  0  0  0
  6 12  1  0  0  0  0
  6 36  1  0  0  0  0
  6 19  1  6  0  0  0
  7  8  1  1  0  0  0
  7 14  1  0  0  0  0
  9 16  1  0  0  0  0
 10 11  1  1  0  0  0
 10 18  1  0  0  0  0
 12 13  1  6  0  0  0
 12 20  1  0  0  0  0
 14 15  1  6  0  0  0
 14 22  1  0  0  0  0
 16 17  1  1  0  0  0
 16 24  1  0  0  0  0
 18 19  1  1  0  0  0
 18 25  1  0  0  0  0
 20 21  1  6  0  0  0
 20 27  1  0  0  0  0
 22 23  1  1  0  0  0
 22 29  1  0  0  0  0
 24  2  1  6  0  0  0
 24 31  1  0  0  0  0
 25 26  1  0  0  0  0
 25 33  1  6  0  0  0
 27 28  1  6  0  0  0
 27 35  1  0  0  0  0
 29 30  1  0  0  0  0
 29 37  1  6  0  0  0
 31 32  1  1  0  0  0
 31 39  1  0  0  0  0
 33 34  1  0  0  0  0
 35 36  1  0  0  0  0
 35 41  1  6  0  0  0
 37 38  1  0  0  0  0
 39 40  1  6  0  0  0
 41 42  1  0  0  0  0
M  END
>  <CHROM.1>
-176.31850033,-174.21162220,167.09688319,-179.54106314,-59.14245243,-64.41048793
-82.63964542,63.23925317,65.41612247,8.48520734,0.69979892,4.54271248,1.29419957
-0.78478814,-0.59125638

>  <Name>
ligand

>  <RI>
0

>  <Rbt.Current_Directory>
/home/itssahil/PROJECTS/Mol_Feturizer/Test_systems_manuscript/rnas/2o3w

>  <Rbt.Executable>
rbdock ($Id: //depot/dev/client3/rdock/2013.1/src/exe/rbdock.cxx#4 $)

>  <Rbt.Library>
libRbt.so (2013.1, Build901 2013/11/27)

>  <Rbt.Parameter_File>
/export/apps/rDock/src/rDock_2013.1_src/data/scripts/dock_solv.prm

>  <Rbt.Receptor>
prm/pocket_docking_5.prm

>  <SCORE>
-11.2627

>  <SCORE.INTER>
1.36411

>  <SCORE.INTER.CONST>
1

>  <SCORE.INTER.POLAR>
0

>  <SCORE.INTER.ROT>
9

>  <SCORE.INTER.SOLV>
12.1613

>  <SCORE.INTER.VDW>
-12.7443

>  <SCORE.INTER.norm>
0.0324788

>  <SCORE.INTRA>
-12.6268

>  <SCORE.INTRA.DIHEDRAL>
-24.2585

>  <SCORE.INTRA.DIHEDRAL.0>
27.8999

>  <SCORE.INTRA.POLAR>
0

>  <SCORE.INTRA.POLAR.0>
0

>  <SCORE.INTRA.REPUL>
0

>  <SCORE.INTRA.REPUL.0>
0

>  <SCORE.INTRA.SOLV>
-3.67422

>  <SCORE.INTRA.SOLV.lig_0>
-104.479

>  <SCORE.INTRA.VDW>
1.33959

>  <SCORE.INTRA.VDW.0>
-6.17816

>  <SCORE.INTRA.norm>
-0.300637

>  <SCORE.RESTR>
0

>  <SCORE.RESTR.CAVITY>
0

>  <SCORE.RESTR.norm>
0

>  <SCORE.SYSTEM>
0

>  <SCORE.SYSTEM.CONST>
0

>  <SCORE.SYSTEM.DIHEDRAL>
0

>  <SCORE.SYSTEM.SOLV>
0

>  <SCORE.SYSTEM.norm>
0

>  <SCORE.heavy>
42

>  <SCORE.norm>
-0.268158

>  <RMSD>
8.615

$$$$
ligand
 OpenBabel02271912133D
libRbt.so/2013.1/901 2013/11/27
 42 45  0  0  0  0  0  0  0  0999 V2000
    6.8786    4.1739   -0.9721 C   0  0  2  0  0  0  0  0  0  0  0  0
    8.1248    4.8515   -0.7376 O   0  0  0  0  0  0  0  0  0  0  0  0
   10.4078    5.2056    2.9310 C   0  0  2  0  0  0  0  0  0  0  0  0
   10.8298    5.5487    4.3219 N   0  0  0  0  0  0  0  0  0  0  0  0
    6.8906    2.2463    2.2348 C   0  0  1  0  0  0  0  0  0  0  0  0
    6.8446   -0.4978    3.5580 C   0  0  1  0  0  0  0  0  0  0  0  0
    6.7150    4.0438   -2.5163 C   0  0  2  0  0  0  0  0  0  0  0  0
    7.9166    3.4921   -3.1661 N   0  0  0  0  0  0  0  0  0  0  0  0
   10.2280    6.5059    2.0486 C   0  0  0  0  0  0  0  0  0  0  0  0
    6.1867    2.4875    3.6048 C   0  0  2  0  0  0  0  0  0  0  0  0
    7.0971    2.5687    4.7289 O   0  0  0  0  0  0  0  0  0  0  0  0
    6.8574   -2.0655    3.6624 C   0  0  2  0  0  0  0  0  0  0  0  0
    6.8793   -2.5049    5.0898 N   0  0  0  0  0  0  0  0  0  0  0  0
    6.4276    5.3984   -3.1896 C   0  0  1  0  0  0  0  0  0  0  0  0
    6.2459    5.2262   -4.5961 O   0  0  0  0  0  0  0  0  0  0  0  0
    9.8058    6.0795    0.5917 C   0  0  2  0  0  0  0  0  0  0  0  0
    9.6416    7.2801   -0.2717 N   0  0  0  0  0  0  0  0  0  0  0  0
    5.1952    1.3234    3.6384 C   0  0  2  0  0  0  0  0  0  0  0  0
    5.7770    0.1392    4.2708 O   0  0  0  0  0  0  0  0  0  0  0  0
    8.1232   -2.6382    2.8645 C   0  0  1  0  0  0  0  0  0  0  0  0
    7.8735   -2.5204    1.4458 O   0  0  0  0  0  0  0  0  0  0  0  0
    5.1862    6.0464   -2.5353 C   0  0  2  0  0  0  0  0  0  0  0  0
    4.8997    7.2801   -3.1520 O   0  0  0  0  0  0  0  0  0  0  0  0
    8.4563    5.2587    0.6206 C   0  0  2  0  0  0  0  0  0  0  0  0
    4.8183    1.0444    2.1736 C   0  0  2  0  0  0  0  0  0  0  0  0
    5.9996    1.4085    1.4632 O   0  0  0  0  0  0  0  0  0  0  0  0
    9.4860   -1.8805    3.2336 C   0  0  2  0  0  0  0  0  0  0  0  0
    9.8241   -2.2308    4.5750 O   0  0  0  0  0  0  0  0  0  0  0  0
    5.4585    6.2423   -1.0066 C   0  0  2  0  0  0  0  0  0  0  0  0
    5.7625    4.9503   -0.3915 O   0  0  0  0  0  0  0  0  0  0  0  0
    8.5398    4.0001    1.5117 C   0  0  2  0  0  0  0  0  0  0  0  0
    7.1824    3.4818    1.5688 O   0  0  0  0  0  0  0  0  0  0  0  0
    3.5814    1.8380    1.6497 C   0  0  0  0  0  0  0  0  0  0  0  0
    3.3572    1.5104    0.2817 O   0  0  0  0  0  0  0  0  0  0  0  0
    9.3067   -0.3205    3.1060 C   0  0  1  0  0  0  0  0  0  0  0  0
    8.1908    0.0375    3.9987 O   0  0  0  0  0  0  0  0  0  0  0  0
    4.2884    6.8675   -0.2829 C   0  0  0  0  0  0  0  0  0  0  0  0
    3.1920    5.9859   -0.2814 O   0  0  0  0  0  0  0  0  0  0  0  0
    9.0553    4.3869    2.9610 C   0  0  1  0  0  0  0  0  0  0  0  0
    9.2767    3.2062    3.7373 O   0  0  0  0  0  0  0  0  0  0  0  0
   10.6054    0.5140    3.4878 C   0  0  0  0  0  0  0  0  0  0  0  0
   11.0529    0.3940    4.9026 N   0  0  0  0  0  0  0  0  0  0  0  0
  1  2  1  6  0  0  0
  1  7  1  0  0  0  0
  1 30  1  0  0  0  0
  3  4  1  1  0  0  0
  3  9  1  0  0  0  0
  3 39  1  0  0  0  0
  5 10  1  0  0  0  0
  5 26  1  0  0  0  0
  5 32  1  6  0  0  0
  6 12  1  0  0  0  0
  6 36  1  0  0  0  0
  6 19  1  1  0  0  0
  7  8  1  6  0  0  0
  7 14  1  0  0  0  0
  9 16  1  0  0  0  0
 10 11  1  1  0  0  0
 10 18  1  0  0  0  0
 12 13  1  1  0  0  0
 12 20  1  0  0  0  0
 14 15  1  6  0  0  0
 14 22  1  0  0  0  0
 16 17  1  6  0  0  0
 16 24  1  0  0  0  0
 18 19  1  6  0  0  0
 18 25  1  0  0  0  0
 20 21  1  6  0  0  0
 20 27  1  0  0  0  0
 22 23  1  6  0  0  0
 22 29  1  0  0  0  0
 24  2  1  6  0  0  0
 24 31  1  0  0  0  0
 25 26  1  0  0  0  0
 25 33  1  6  0  0  0
 27 28  1  1  0  0  0
 27 35  1  0  0  0  0
 29 30  1  0  0  0  0
 29 37  1  1  0  0  0
 31 32  1  1  0  0  0
 31 39  1  0  0  0  0
 33 34  1  0  0  0  0
 35 36  1  0  0  0  0
 35 41  1  1  0  0  0
 37 38  1  0  0  0  0
 39 40  1  1  0  0  0
 41 42  1  0  0  0  0
M  END
>  <CHROM.1>
172.39888610,-175.39213852,-67.62864623,-143.48740131,178.84305291,66.49230941
175.25976242,105.40423067,-63.58058145,7.30918096,2.76459273,1.44668942,1.83355015
-0.53693007,-0.55908934

>  <Name>
ligand

>  <RI>
0

>  <Rbt.Current_Directory>
/home/itssahil/PROJECTS/Mol_Feturizer/Test_systems_manuscript/rnas/2o3w

>  <Rbt.Executable>
rbdock ($Id: //depot/dev/client3/rdock/2013.1/src/exe/rbdock.cxx#4 $)

>  <Rbt.Library>
libRbt.so (2013.1, Build901 2013/11/27)

>  <Rbt.Parameter_File>
/export/apps/rDock/src/rDock_2013.1_src/data/scripts/dock_solv.prm

>  <Rbt.Receptor>
prm/pocket_docking_6.prm

>  <SCORE>
-5.10462

>  <SCORE.INTER>
1.74509

>  <SCORE.INTER.CONST>
1

>  <SCORE.INTER.POLAR>
0

>  <SCORE.INTER.ROT>
9

>  <SCORE.INTER.SOLV>
15.3454

>  <SCORE.INTER.VDW>
-13.5517

>  <SCORE.INTER.norm>
0.0415498

>  <SCORE.INTRA>
-6.84971

>  <SCORE.INTRA.DIHEDRAL>
-15.8441

>  <SCORE.INTRA.DIHEDRAL.0>
27.8999

>  <SCORE.INTRA.POLAR>
0

>  <SCORE.INTRA.POLAR.0>
0

>  <SCORE.INTRA.REPUL>
0.0023168

>  <SCORE.INTRA.REPUL.0>
0

>  <SCORE.INTRA.SOLV>
-2.25115

>  <SCORE.INTRA.SOLV.lig_0>
-104.479

>  <SCORE.INTRA.VDW>
2.18633

>  <SCORE.INTRA.VDW.0>
-6.17816

>  <SCORE.INTRA.norm>
-0.163088

>  <SCORE.RESTR>
0

>  <SCORE.RESTR.CAVITY>
0

>  <SCORE.RESTR.norm>
0

>  <SCORE.SYSTEM>
0

>  <SCORE.SYSTEM.CONST>
0

>  <SCORE.SYSTEM.DIHEDRAL>
0

>  <SCORE.SYSTEM.SOLV>
0

>  <SCORE.SYSTEM.norm>
0

>  <SCORE.heavy>
42

>  <SCORE.norm>
-0.121538

>  <RMSD>
8.648

$$$$
ligand
 OpenBabel02271912133D
libRbt.so/2013.1/901 2013/11/27
 42 45  0  0  0  0  0  0  0  0999 V2000
    8.2489    4.1882    4.6512 C   0  0  2  0  0  0  0  0  0  0  0  0
    8.9631    4.9859    5.6109 O   0  0  0  0  0  0  0  0  0  0  0  0
   12.4413    4.2164    8.0818 C   0  0  2  0  0  0  0  0  0  0  0  0
   13.4000    3.5928    9.0424 N   0  0  0  0  0  0  0  0  0  0  0  0
   10.2889    1.4475    5.4471 C   0  0  1  0  0  0  0  0  0  0  0  0
    7.9459   -2.0548    6.9946 C   0  0  1  0  0  0  0  0  0  0  0  0
    7.6009    5.1735    3.6327 C   0  0  2  0  0  0  0  0  0  0  0  0
    8.5642    6.1580    3.1097 N   0  0  0  0  0  0  0  0  0  0  0  0
   11.1070    4.6576    8.8076 C   0  0  0  0  0  0  0  0  0  0  0  0
    9.0857    1.4807    6.4380 C   0  0  2  0  0  0  0  0  0  0  0  0
    9.4709    1.6108    7.8286 O   0  0  0  0  0  0  0  0  0  0  0  0
    8.4555   -3.2018    7.9399 C   0  0  2  0  0  0  0  0  0  0  0  0
    9.7974   -3.6939    7.5061 N   0  0  0  0  0  0  0  0  0  0  0  0
    6.4394    5.9731    4.2512 C   0  0  1  0  0  0  0  0  0  0  0  0
    5.8509    6.8325    3.2735 O   0  0  0  0  0  0  0  0  0  0  0  0
   10.1485    5.3264    7.7509 C   0  0  2  0  0  0  0  0  0  0  0  0
    8.8864    5.7677    8.4035 N   0  0  0  0  0  0  0  0  0  0  0  0
    8.3618    0.1847    6.0698 C   0  0  2  0  0  0  0  0  0  0  0  0
    8.8433   -0.9451    6.8651 O   0  0  0  0  0  0  0  0  0  0  0  0
    7.3828   -4.3917    7.9533 C   0  0  1  0  0  0  0  0  0  0  0  0
    6.2327   -3.9753    8.7231 O   0  0  0  0  0  0  0  0  0  0  0  0
    5.3985    4.9959    4.8435 C   0  0  2  0  0  0  0  0  0  0  0  0
    4.3202    5.7121    5.3990 O   0  0  0  0  0  0  0  0  0  0  0  0
    9.8162    4.3162    6.5826 C   0  0  2  0  0  0  0  0  0  0  0  0
    8.6243   -0.0370    4.5707 C   0  0  2  0  0  0  0  0  0  0  0  0
    9.9105    0.5478    4.3801 O   0  0  0  0  0  0  0  0  0  0  0  0
    6.9155   -4.8244    6.4829 C   0  0  2  0  0  0  0  0  0  0  0  0
    8.0243   -5.4598    5.8479 O   0  0  0  0  0  0  0  0  0  0  0  0
    6.0918    4.1087    5.9306 C   0  0  2  0  0  0  0  0  0  0  0  0
    7.2124    3.3834    5.3322 O   0  0  0  0  0  0  0  0  0  0  0  0
   11.0798    3.7972    5.8621 C   0  0  2  0  0  0  0  0  0  0  0  0
   10.6063    2.7584    4.9614 O   0  0  0  0  0  0  0  0  0  0  0  0
    7.5695    0.6035    3.6161 C   0  0  0  0  0  0  0  0  0  0  0  0
    6.2748    0.1103    3.9470 O   0  0  0  0  0  0  0  0  0  0  0  0
    6.4589   -3.5661    5.6520 C   0  0  1  0  0  0  0  0  0  0  0  0
    7.6077   -2.6440    5.6412 O   0  0  0  0  0  0  0  0  0  0  0  0
    5.1440    3.1147    6.5609 C   0  0  0  0  0  0  0  0  0  0  0  0
    4.7698    2.1378    5.6202 O   0  0  0  0  0  0  0  0  0  0  0  0
   12.1069    3.2033    6.9147 C   0  0  1  0  0  0  0  0  0  0  0  0
   13.3357    2.8626    6.2669 O   0  0  0  0  0  0  0  0  0  0  0  0
    6.0090   -3.9010    4.1640 C   0  0  0  0  0  0  0  0  0  0  0  0
    7.0546   -4.5144    3.2996 N   0  0  0  0  0  0  0  0  0  0  0  0
  1  2  1  1  0  0  0
  1  7  1  0  0  0  0
  1 30  1  0  0  0  0
  3  4  1  1  0  0  0
  3  9  1  0  0  0  0
  3 39  1  0  0  0  0
  5 10  1  0  0  0  0
  5 26  1  0  0  0  0
  5 32  1  6  0  0  0
  6 12  1  0  0  0  0
  6 36  1  0  0  0  0
  6 19  1  6  0  0  0
  7  8  1  1  0  0  0
  7 14  1  0  0  0  0
  9 16  1  0  0  0  0
 10 11  1  1  0  0  0
 10 18  1  0  0  0  0
 12 13  1  6  0  0  0
 12 20  1  0  0  0  0
 14 15  1  6  0  0  0
 14 22  1  0  0  0  0
 16 17  1  1  0  0  0
 16 24  1  0  0  0  0
 18 19  1  1  0  0  0
 18 25  1  0  0  0  0
 20 21  1  1  0  0  0
 20 27  1  0  0  0  0
 22 23  1  1  0  0  0
 22 29  1  0  0  0  0
 24  2  1  6  0  0  0
 24 31  1  0  0  0  0
 25 26  1  0  0  0  0
 25 33  1  6  0  0  0
 27 28  1  6  0  0  0
 27 35  1  0  0  0  0
 29 30  1  0  0  0  0
 29 37  1  6  0  0  0
 31 32  1  6  0  0  0
 31 39  1  0  0  0  0
 33 34  1  0  0  0  0
 35 36  1  0  0  0  0
 35 41  1  6  0  0  0
 37 38  1  0  0  0  0
 39 40  1  6  0  0  0
 41 42  1  0  0  0  0
M  END
>  <CHROM.1>
-171.92128604,-163.99884218,157.06950360,-175.76909849,-56.60721312,68.23685803
-78.32673349,64.22248131,-60.79482679,8.35146161,1.41720738,5.94135603,1.41384519
-0.46899948,-0.12139665

>  <Name>
ligand

>  <RI>
0

>  <Rbt.Current_Directory>
/home/itssahil/PROJECTS/Mol_Feturizer/Test_systems_manuscript/rnas/2o3w

>  <Rbt.Executable>
rbdock ($Id: //depot/dev/client3/rdock/2013.1/src/exe/rbdock.cxx#4 $)

>  <Rbt.Library>
libRbt.so (2013.1, Build901 2013/11/27)

>  <Rbt.Parameter_File>
/export/apps/rDock/src/rDock_2013.1_src/data/scripts/dock_solv.prm

>  <Rbt.Receptor>
prm/pocket_docking_7.prm

>  <SCORE>
-12.7662

>  <SCORE.INTER>
-1.07829

>  <SCORE.INTER.CONST>
1

>  <SCORE.INTER.POLAR>
0

>  <SCORE.INTER.ROT>
9

>  <SCORE.INTER.SOLV>
10.1489

>  <SCORE.INTER.VDW>
-13.7018

>  <SCORE.INTER.norm>
-0.0256737

>  <SCORE.INTRA>
-11.6879

>  <SCORE.INTRA.DIHEDRAL>
-21.9696

>  <SCORE.INTRA.DIHEDRAL.0>
27.8999

>  <SCORE.INTRA.POLAR>
0

>  <SCORE.INTRA.POLAR.0>
0

>  <SCORE.INTRA.REPUL>
0

>  <SCORE.INTRA.REPUL.0>
0

>  <SCORE.INTRA.SOLV>
-1.89092

>  <SCORE.INTRA.SOLV.lig_0>
-104.479

>  <SCORE.INTRA.VDW>
0.242366

>  <SCORE.INTRA.VDW.0>
-6.17816

>  <SCORE.INTRA.norm>
-0.278283

>  <SCORE.RESTR>
0

>  <SCORE.RESTR.CAVITY>
0

>  <SCORE.RESTR.norm>
0

>  <SCORE.SYSTEM>
0

>  <SCORE.SYSTEM.CONST>
0

>  <SCORE.SYSTEM.DIHEDRAL>
0

>  <SCORE.SYSTEM.SOLV>
0

>  <SCORE.SYSTEM.norm>
0

>  <SCORE.heavy>
42

>  <SCORE.norm>
-0.303956

>  <RMSD>
8.705

$$$$
ligand
 OpenBabel02271912133D
libRbt.so/2013.1/901 2013/11/27
 42 45  0  0  0  0  0  0  0  0999 V2000
    7.5218    5.3689    0.0850 C   0  0  2  0  0  0  0  0  0  0  0  0
    7.9463    4.2634    0.9005 O   0  0  0  0  0  0  0  0  0  0  0  0
   10.5328    4.0338    4.3723 C   0  0  2  0  0  0  0  0  0  0  0  0
   11.1115    4.2235    5.7359 N   0  0  0  0  0  0  0  0  0  0  0  0
    6.5284    1.6225    3.5987 C   0  0  1  0  0  0  0  0  0  0  0  0
    4.1912   -2.0827    4.0270 C   0  0  1  0  0  0  0  0  0  0  0  0
    6.0496    5.6891    0.4830 C   0  0  2  0  0  0  0  0  0  0  0  0
    5.8749    5.8183    1.9402 N   0  0  0  0  0  0  0  0  0  0  0  0
   10.5014    5.3951    3.5676 C   0  0  0  0  0  0  0  0  0  0  0  0
    5.0134    1.6181    3.9667 C   0  0  2  0  0  0  0  0  0  0  0  0
    4.7485    1.8282    5.3755 O   0  0  0  0  0  0  0  0  0  0  0  0
    2.6343   -2.1273    3.8203 C   0  0  2  0  0  0  0  0  0  0  0  0
    1.9204   -1.6387    5.0379 N   0  0  0  0  0  0  0  0  0  0  0  0
    5.0672    4.6009    0.0120 C   0  0  1  0  0  0  0  0  0  0  0  0
    3.7282    4.9543    0.3626 O   0  0  0  0  0  0  0  0  0  0  0  0
    9.9038    5.1272    2.1346 C   0  0  2  0  0  0  0  0  0  0  0  0
    9.8728    6.3867    1.3431 N   0  0  0  0  0  0  0  0  0  0  0  0
    4.5753    0.2645    3.4052 C   0  0  2  0  0  0  0  0  0  0  0  0
    4.7073   -0.7992    4.4011 O   0  0  0  0  0  0  0  0  0  0  0  0
    2.1919   -3.6232    3.4552 C   0  0  1  0  0  0  0  0  0  0  0  0
    2.5962   -3.9119    2.0979 O   0  0  0  0  0  0  0  0  0  0  0  0
    5.2162    4.3968   -1.5129 C   0  0  2  0  0  0  0  0  0  0  0  0
    4.3115    3.4152   -1.9627 O   0  0  0  0  0  0  0  0  0  0  0  0
    8.4440    4.5327    2.2422 C   0  0  2  0  0  0  0  0  0  0  0  0
    5.4736    0.0003    2.1851 C   0  0  2  0  0  0  0  0  0  0  0  0
    6.6894    0.6583    2.5331 O   0  0  0  0  0  0  0  0  0  0  0  0
    2.8188   -4.7163    4.4451 C   0  0  2  0  0  0  0  0  0  0  0  0
    2.1994   -4.5489    5.7197 O   0  0  0  0  0  0  0  0  0  0  0  0
    6.6903    3.9773   -1.8302 C   0  0  2  0  0  0  0  0  0  0  0  0
    7.6099    5.0065   -1.3456 O   0  0  0  0  0  0  0  0  0  0  0  0
    8.3882    3.2274    3.0656 C   0  0  2  0  0  0  0  0  0  0  0  0
    6.9726    2.9305    3.2155 O   0  0  0  0  0  0  0  0  0  0  0  0
    4.9153    0.5329    0.8291 C   0  0  0  0  0  0  0  0  0  0  0  0
    5.8349    0.2215   -0.2131 O   0  0  0  0  0  0  0  0  0  0  0  0
    4.3780   -4.5263    4.5673 C   0  0  1  0  0  0  0  0  0  0  0  0
    4.5865   -3.1440    5.0322 O   0  0  0  0  0  0  0  0  0  0  0  0
    6.9285    3.7618   -3.3069 C   0  0  0  0  0  0  0  0  0  0  0  0
    6.6823    4.9514   -4.0164 O   0  0  0  0  0  0  0  0  0  0  0  0
    9.0706    3.4417    4.4813 C   0  0  1  0  0  0  0  0  0  0  0  0
    9.1543    2.1978    5.1821 O   0  0  0  0  0  0  0  0  0  0  0  0
    5.0795   -5.5516    5.5598 C   0  0  0  0  0  0  0  0  0  0  0  0
    4.5986   -5.5133    6.9683 N   0  0  0  0  0  0  0  0  0  0  0  0
  1  2  1  1  0  0  0
  1  7  1  0  0  0  0
  1 30  1  0  0  0  0
  3  4  1  1  0  0  0
  3  9  1  0  0  0  0
  3 39  1  0  0  0  0
  5 10  1  0  0  0  0
  5 26  1  0  0  0  0
  5 32  1  6  0  0  0
  6 12  1  0  0  0  0
  6 36  1  0  0  0  0
  6 19  1  1  0  0  0
  7  8  1  1  0  0  0
  7 14  1  0  0  0  0
  9 16  1  0  0  0  0
 10 11  1  1  0  0  0
 10 18  1  0  0  0  0
 12 13  1  1  0  0  0
 12 20  1  0  0  0  0
 14 15  1  6  0  0  0
 14 22  1  0  0  0  0
 16 17  1  6  0  0  0
 16 24  1  0  0  0  0
 18 19  1  1  0  0  0
 18 25  1  0  0  0  0
 20 21  1  6  0  0  0
 20 27  1  0  0  0  0
 22 23  1  1  0  0  0
 22 29  1  0  0  0  0
 24  2  1  6  0  0  0
 24 31  1  0  0  0  0
 25 26  1  0  0  0  0
 25 33  1  6  0  0  0
 27 28  1  1  0  0  0
 27 35  1  0  0  0  0
 29 30  1  0  0  0  0
 29 37  1  6  0  0  0
 31 32  1  1  0  0  0
 31 39  1  0  0  0  0
 33 34  1  0  0  0  0
 35 36  1  0  0  0  0
 35 41  1  1  0  0  0
 37 38  1  0  0  0  0
 39 40  1  6  0  0  0
 41 42  1  0  0  0  0
M  END
>  <CHROM.1>
-83.77519402,-75.30459274,173.61252065,-65.21766898,-179.82148372,60.86672496
162.72949074,168.73323829,-59.44815042,6.00771372,1.46888903,2.40372512,0.99395117
-0.74802183,-0.88581934

>  <Name>
ligand

>  <RI>
0

>  <Rbt.Current_Directory>
/home/itssahil/PROJECTS/Mol_Feturizer/Test_systems_manuscript/rnas/2o3w

>  <Rbt.Executable>
rbdock ($Id: //depot/dev/client3/rdock/2013.1/src/exe/rbdock.cxx#4 $)

>  <Rbt.Library>
libRbt.so (2013.1, Build901 2013/11/27)

>  <Rbt.Parameter_File>
/export/apps/rDock/src/rDock_2013.1_src/data/scripts/dock_solv.prm

>  <Rbt.Receptor>
prm/pocket_docking_6.prm

>  <SCORE>
-8.08301

>  <SCORE.INTER>
1.50838

>  <SCORE.INTER.CONST>
1

>  <SCORE.INTER.POLAR>
0

>  <SCORE.INTER.ROT>
9

>  <SCORE.INTER.SOLV>
8.49647

>  <SCORE.INTER.VDW>
-11.4266

>  <SCORE.INTER.norm>
0.0359137

>  <SCORE.INTRA>
-9.59139

>  <SCORE.INTRA.DIHEDRAL>
-21.9018

>  <SCORE.INTRA.DIHEDRAL.0>
27.8999

>  <SCORE.INTRA.POLAR>
0

>  <SCORE.INTRA.POLAR.0>
0

>  <SCORE.INTRA.REPUL>
0

>  <SCORE.INTRA.REPUL.0>
0

>  <SCORE.INTRA.SOLV>
-0.704463

>  <SCORE.INTRA.SOLV.lig_0>
-104.479

>  <SCORE.INTRA.VDW>
1.71174

>  <SCORE.INTRA.VDW.0>
-6.17816

>  <SCORE.INTRA.norm>
-0.228366

>  <SCORE.RESTR>
0

>  <SCORE.RESTR.CAVITY>
0

>  <SCORE.RESTR.norm>
0

>  <SCORE.SYSTEM>
0

>  <SCORE.SYSTEM.CONST>
0

>  <SCORE.SYSTEM.DIHEDRAL>
0

>  <SCORE.SYSTEM.SOLV>
0

>  <SCORE.SYSTEM.norm>
0

>  <SCORE.heavy>
42

>  <SCORE.norm>
-0.192453

>  <RMSD>
8.720

$$$$
ligand
 OpenBabel02271912133D
libRbt.so/2013.1/901 2013/11/27
 42 45  0  0  0  0  0  0  0  0999 V2000
    7.9243    6.2105    6.1015 C   0  0  2  0  0  0  0  0  0  0  0  0
    8.3307    6.1899    4.7225 O   0  0  0  0  0  0  0  0  0  0  0  0
    4.4869    7.0877    2.9293 C   0  0  2  0  0  0  0  0  0  0  0  0
    3.4176    7.4462    1.9503 N   0  0  0  0  0  0  0  0  0  0  0  0
    6.8438    3.0064    2.6917 C   0  0  1  0  0  0  0  0  0  0  0  0
    6.7089   -1.3288    1.5777 C   0  0  1  0  0  0  0  0  0  0  0  0
    9.1313    5.6915    6.9394 C   0  0  2  0  0  0  0  0  0  0  0  0
   10.3910    6.3741    6.5961 N   0  0  0  0  0  0  0  0  0  0  0  0
    5.4981    8.2857    3.1391 C   0  0  0  0  0  0  0  0  0  0  0  0
    7.2688    2.3855    1.3261 C   0  0  2  0  0  0  0  0  0  0  0  0
    6.2712    2.5160    0.2836 O   0  0  0  0  0  0  0  0  0  0  0  0
    5.4302   -2.2355    1.4696 C   0  0  2  0  0  0  0  0  0  0  0  0
    4.4898   -1.9683    2.5988 N   0  0  0  0  0  0  0  0  0  0  0  0
    9.3743    4.1838    6.7421 C   0  0  1  0  0  0  0  0  0  0  0  0
   10.4621    3.7445    7.5573 O   0  0  0  0  0  0  0  0  0  0  0  0
    6.5856    7.8565    4.1954 C   0  0  2  0  0  0  0  0  0  0  0  0
    7.5473    8.9676    4.4285 N   0  0  0  0  0  0  0  0  0  0  0  0
    7.6073    0.9535    1.7434 C   0  0  2  0  0  0  0  0  0  0  0  0
    6.4395    0.0766    1.6533 O   0  0  0  0  0  0  0  0  0  0  0  0
    5.8741   -3.7746    1.4423 C   0  0  1  0  0  0  0  0  0  0  0  0
    6.4556   -4.0703    0.1526 O   0  0  0  0  0  0  0  0  0  0  0  0
    8.0779    3.4061    7.0638 C   0  0  2  0  0  0  0  0  0  0  0  0
    8.2886    2.0225    6.9041 O   0  0  0  0  0  0  0  0  0  0  0  0
    7.3661    6.5747    3.7018 C   0  0  2  0  0  0  0  0  0  0  0  0
    8.1262    1.0439    3.1884 C   0  0  2  0  0  0  0  0  0  0  0  0
    7.4129    2.1596    3.7165 O   0  0  0  0  0  0  0  0  0  0  0  0
    6.9210   -4.1407    2.5988 C   0  0  2  0  0  0  0  0  0  0  0  0
    6.2273   -4.0758    3.8442 O   0  0  0  0  0  0  0  0  0  0  0  0
    6.9353    3.9044    6.1173 C   0  0  2  0  0  0  0  0  0  0  0  0
    6.7424    5.3436    6.2945 O   0  0  0  0  0  0  0  0  0  0  0  0
    6.4329    5.3765    3.4212 C   0  0  2  0  0  0  0  0  0  0  0  0
    7.2816    4.3663    2.8099 O   0  0  0  0  0  0  0  0  0  0  0  0
    9.6671    1.2482    3.3228 C   0  0  0  0  0  0  0  0  0  0  0  0
   10.0178    1.2876    4.7027 O   0  0  0  0  0  0  0  0  0  0  0  0
    8.1297   -3.1302    2.5946 C   0  0  1  0  0  0  0  0  0  0  0  0
    7.5423   -1.7888    2.7554 O   0  0  0  0  0  0  0  0  0  0  0  0
    5.6230    3.1984    6.3682 C   0  0  0  0  0  0  0  0  0  0  0  0
    4.6450    3.6583    5.4675 O   0  0  0  0  0  0  0  0  0  0  0  0
    5.2695    5.8065    2.4327 C   0  0  1  0  0  0  0  0  0  0  0  0
    4.3228    4.7436    2.2928 O   0  0  0  0  0  0  0  0  0  0  0  0
    9.2036   -3.4003    3.7358 C   0  0  0  0  0  0  0  0  0  0  0  0
   10.4272   -2.5541    3.6796 N   0  0  0  0  0  0  0  0  0  0  0  0
  1  2  1  6  0  0  0
  1  7  1  0  0  0  0
  1 30  1  0  0  0  0
  3  4  1  6  0  0  0
  3  9  1  0  0  0  0
  3 39  1  0  0  0  0
  5 10  1  0  0  0  0
  5 26  1  0  0  0  0
  5 32  1  1  0  0  0
  6 12  1  0  0  0  0
  6 36  1  0  0  0  0
  6 19  1  1  0  0  0
  7  8  1  6  0  0  0
  7 14  1  0  0  0  0
  9 16  1  0  0  0  0
 10 11  1  6  0  0  0
 10 18  1  0  0  0  0
 12 13  1  1  0  0  0
 12 20  1  0  0  0  0
 14 15  1  1  0  0  0
 14 22  1  0  0  0  0
 16 17  1  6  0  0  0
 16 24  1  0  0  0  0
 18 19  1  1  0  0  0
 18 25  1  0  0  0  0
 20 21  1  6  0  0  0
 20 27  1  0  0  0  0
 22 23  1  6  0  0  0
 22 29  1  0  0  0  0
 24  2  1  1  0  0  0
 24 31  1  0  0  0  0
 25 26  1  0  0  0  0
 25 33  1  6  0  0  0
 27 28  1  1  0  0  0
 27 35  1  0  0  0  0
 29 30  1  0  0  0  0
 29 37  1  1  0  0  0
 31 32  1  6  0  0  0
 31 39  1  0  0  0  0
 33 34  1  0  0  0  0
 35 36  1  0  0  0  0
 35 41  1  1  0  0  0
 37 38  1  0  0  0  0
 39 40  1  1  0  0  0
 41 42  1  0  0  0  0
M  END
>  <CHROM.1>
177.37088364,43.05913754,159.80318985,-179.49154597,-178.82425399,-178.38534380
165.39424122,140.46950960,174.06326238,7.17448632,2.41314159,3.75137624,-1.59136429
0.79773972,-2.86861377

>  <Name>
ligand

>  <RI>
0

>  <Rbt.Current_Directory>
/home/itssahil/PROJECTS/Mol_Feturizer/Test_systems_manuscript/rnas/2o3w

>  <Rbt.Executable>
rbdock ($Id: //depot/dev/client3/rdock/2013.1/src/exe/rbdock.cxx#4 $)

>  <Rbt.Library>
libRbt.so (2013.1, Build901 2013/11/27)

>  <Rbt.Parameter_File>
/export/apps/rDock/src/rDock_2013.1_src/data/scripts/dock_solv.prm

>  <Rbt.Receptor>
prm/pocket_docking_4.prm

>  <SCORE>
-6.96577

>  <SCORE.INTER>
3.68204

>  <SCORE.INTER.CONST>
1

>  <SCORE.INTER.POLAR>
0

>  <SCORE.INTER.ROT>
9

>  <SCORE.INTER.SOLV>
9.42075

>  <SCORE.INTER.VDW>
-10.2856

>  <SCORE.INTER.norm>
0.0876676

>  <SCORE.INTRA>
-10.6478

>  <SCORE.INTRA.DIHEDRAL>
-18.1155

>  <SCORE.INTRA.DIHEDRAL.0>
27.8999

>  <SCORE.INTRA.POLAR>
0

>  <SCORE.INTRA.POLAR.0>
0

>  <SCORE.INTRA.REPUL>
0

>  <SCORE.INTRA.REPUL.0>
0

>  <SCORE.INTRA.SOLV>
-2.36679

>  <SCORE.INTRA.SOLV.lig_0>
-104.479

>  <SCORE.INTRA.VDW>
-0.406642

>  <SCORE.INTRA.VDW.0>
-6.17816

>  <SCORE.INTRA.norm>
-0.253519

>  <SCORE.RESTR>
0

>  <SCORE.RESTR.CAVITY>
0

>  <SCORE.RESTR.norm>
0

>  <SCORE.SYSTEM>
0

>  <SCORE.SYSTEM.CONST>
0

>  <SCORE.SYSTEM.DIHEDRAL>
0

>  <SCORE.SYSTEM.SOLV>
0

>  <SCORE.SYSTEM.norm>
0

>  <SCORE.heavy>
42

>  <SCORE.norm>
-0.165852

>  <RMSD>
8.751

$$$$
ligand
 OpenBabel02271912133D
libRbt.so/2013.1/901 2013/11/27
 42 45  0  0  0  0  0  0  0  0999 V2000
    8.0514    4.7661    4.6084 C   0  0  2  0  0  0  0  0  0  0  0  0
    6.6625    4.4305    4.4479 O   0  0  0  0  0  0  0  0  0  0  0  0
    3.3040    6.6811    2.8822 C   0  0  2  0  0  0  0  0  0  0  0  0
    2.3980    7.4476    1.9756 N   0  0  0  0  0  0  0  0  0  0  0  0
    5.7683    2.1764    3.1308 C   0  0  1  0  0  0  0  0  0  0  0  0
    6.9355   -1.6380    4.9905 C   0  0  1  0  0  0  0  0  0  0  0  0
    8.7982    4.2261    3.3519 C   0  0  2  0  0  0  0  0  0  0  0  0
    8.1472    4.6285    2.0930 N   0  0  0  0  0  0  0  0  0  0  0  0
    4.6579    7.4596    3.1328 C   0  0  0  0  0  0  0  0  0  0  0  0
    4.8847    1.4488    4.1893 C   0  0  2  0  0  0  0  0  0  0  0  0
    4.9780    2.0108    5.5214 O   0  0  0  0  0  0  0  0  0  0  0  0
    7.7728   -2.0096    6.2671 C   0  0  2  0  0  0  0  0  0  0  0  0
    8.9454   -1.0971    6.4201 N   0  0  0  0  0  0  0  0  0  0  0  0
    8.8819    2.6887    3.3377 C   0  0  1  0  0  0  0  0  0  0  0  0
    9.6073    2.2406    2.1915 O   0  0  0  0  0  0  0  0  0  0  0  0
    5.5590    6.6144    4.1107 C   0  0  2  0  0  0  0  0  0  0  0  0
    6.8378    7.3254    4.3806 N   0  0  0  0  0  0  0  0  0  0  0  0
    5.3731    0.0068    4.0432 C   0  0  2  0  0  0  0  0  0  0  0  0
    6.4911   -0.2764    4.9436 O   0  0  0  0  0  0  0  0  0  0  0  0
    8.2424   -3.5379    6.1650 C   0  0  1  0  0  0  0  0  0  0  0  0
    7.1019   -4.3938    6.4007 O   0  0  0  0  0  0  0  0  0  0  0  0
    9.5368    2.1959    4.6482 C   0  0  2  0  0  0  0  0  0  0  0  0
    9.6361    0.7907    4.6437 O   0  0  0  0  0  0  0  0  0  0  0  0
    5.8633    5.1907    3.4973 C   0  0  2  0  0  0  0  0  0  0  0  0
    5.7887   -0.1536    2.5712 C   0  0  2  0  0  0  0  0  0  0  0  0
    6.2316    1.1548    2.2183 O   0  0  0  0  0  0  0  0  0  0  0  0
    8.8959   -3.8944    4.7460 C   0  0  2  0  0  0  0  0  0  0  0  0
   10.1483   -3.2151    4.6655 O   0  0  0  0  0  0  0  0  0  0  0  0
    8.6799    2.6858    5.8628 C   0  0  2  0  0  0  0  0  0  0  0  0
    8.5836    4.1452    5.8401 O   0  0  0  0  0  0  0  0  0  0  0  0
    4.5818    4.3920    3.1729 C   0  0  2  0  0  0  0  0  0  0  0  0
    5.0385    3.2109    2.4582 O   0  0  0  0  0  0  0  0  0  0  0  0
    4.6543   -0.6387    1.6162 C   0  0  0  0  0  0  0  0  0  0  0  0
    4.1221   -1.8668    2.1036 O   0  0  0  0  0  0  0  0  0  0  0  0
    7.9521   -3.4393    3.5694 C   0  0  1  0  0  0  0  0  0  0  0  0
    7.7349   -1.9941    3.7547 O   0  0  0  0  0  0  0  0  0  0  0  0
    9.2537    2.2521    7.1919 C   0  0  0  0  0  0  0  0  0  0  0  0
   10.5283    2.8180    7.3776 O   0  0  0  0  0  0  0  0  0  0  0  0
    3.6104    5.2575    2.2657 C   0  0  1  0  0  0  0  0  0  0  0  0
    2.3632    4.5795    2.0916 O   0  0  0  0  0  0  0  0  0  0  0  0
    8.5401   -3.7254    2.1199 C   0  0  0  0  0  0  0  0  0  0  0  0
    7.6479   -3.3681    0.9829 N   0  0  0  0  0  0  0  0  0  0  0  0
  1  2  1  6  0  0  0
  1  7  1  0  0  0  0
  1 30  1  0  0  0  0
  3  4  1  6  0  0  0
  3  9  1  0  0  0  0
  3 39  1  0  0  0  0
  5 10  1  0  0  0  0
  5 26  1  0  0  0  0
  5 32  1  6  0  0  0
  6 12  1  0  0  0  0
  6 36  1  0  0  0  0
  6 19  1  6  0  0  0
  7  8  1  6  0  0  0
  7 14  1  0  0  0  0
  9 16  1  0  0  0  0
 10 11  1  1  0  0  0
 10 18  1  0  0  0  0
 12 13  1  6  0  0  0
 12 20  1  0  0  0  0
 14 15  1  6  0  0  0
 14 22  1  0  0  0  0
 16 17  1  6  0  0  0
 16 24  1  0  0  0  0
 18 19  1  1  0  0  0
 18 25  1  0  0  0  0
 20 21  1  6  0  0  0
 20 27  1  0  0  0  0
 22 23  1  6  0  0  0
 22 29  1  0  0  0  0
 24  2  1  1  0  0  0
 24 31  1  0  0  0  0
 25 26  1  0  0  0  0
 25 33  1  6  0  0  0
 27 28  1  6  0  0  0
 27 35  1  0  0  0  0
 29 30  1  0  0  0  0
 29 37  1  1  0  0  0
 31 32  1  6  0  0  0
 31 39  1  0  0  0  0
 33 34  1  0  0  0  0
 35 36  1  0  0  0  0
 35 41  1  6  0  0  0
 37 38  1  0  0  0  0
 39 40  1  1  0  0  0
 41 42  1  0  0  0  0
M  END
>  <CHROM.1>
-74.57423876,-74.41314809,173.67295120,-160.51680210,-56.05691259,62.48359054
69.96851855,66.20445031,177.19671230,6.88940324,1.57416059,3.95916279,-1.98823658
0.58337245,-3.05223937

>  <Name>
ligand

>  <RI>
0

>  <Rbt.Current_Directory>
/home/itssahil/PROJECTS/Mol_Feturizer/Test_systems_manuscript/rnas/2o3w

>  <Rbt.Executable>
rbdock ($Id: //depot/dev/client3/rdock/2013.1/src/exe/rbdock.cxx#4 $)

>  <Rbt.Library>
libRbt.so (2013.1, Build901 2013/11/27)

>  <Rbt.Parameter_File>
/export/apps/rDock/src/rDock_2013.1_src/data/scripts/dock_solv.prm

>  <Rbt.Receptor>
prm/pocket_docking_3.prm

>  <SCORE>
-7.16386

>  <SCORE.INTER>
1.7683

>  <SCORE.INTER.CONST>
1

>  <SCORE.INTER.POLAR>
0

>  <SCORE.INTER.ROT>
9

>  <SCORE.INTER.SOLV>
10.0975

>  <SCORE.INTER.VDW>
-11.787

>  <SCORE.INTER.norm>
0.0421024

>  <SCORE.INTRA>
-8.9429

>  <SCORE.INTRA.DIHEDRAL>
-23.1296

>  <SCORE.INTRA.DIHEDRAL.0>
27.8999

>  <SCORE.INTRA.POLAR>
0

>  <SCORE.INTRA.POLAR.0>
0

>  <SCORE.INTRA.REPUL>
0.160487

>  <SCORE.INTRA.REPUL.0>
0

>  <SCORE.INTRA.SOLV>
4.03334

>  <SCORE.INTRA.SOLV.lig_0>
-104.479

>  <SCORE.INTRA.VDW>
-0.197217

>  <SCORE.INTRA.VDW.0>
-6.17816

>  <SCORE.INTRA.norm>
-0.212926

>  <SCORE.RESTR>
0.0107371

>  <SCORE.RESTR.CAVITY>
0.0107371

>  <SCORE.RESTR.norm>
0.000255646

>  <SCORE.SYSTEM>
0

>  <SCORE.SYSTEM.CONST>
0

>  <SCORE.SYSTEM.DIHEDRAL>
0

>  <SCORE.SYSTEM.SOLV>
0

>  <SCORE.SYSTEM.norm>
0

>  <SCORE.heavy>
42

>  <SCORE.norm>
-0.170568

>  <RMSD>
8.757

$$$$
ligand
 OpenBabel02271912133D
libRbt.so/2013.1/901 2013/11/27
 42 45  0  0  0  0  0  0  0  0999 V2000
    2.8275    5.1005    0.7341 C   0  0  2  0  0  0  0  0  0  0  0  0
    2.5944    6.0470    1.7910 O   0  0  0  0  0  0  0  0  0  0  0  0
    5.3193    9.1407    0.4491 C   0  0  2  0  0  0  0  0  0  0  0  0
    6.0541   10.4334    0.3106 N   0  0  0  0  0  0  0  0  0  0  0  0
    5.8555    6.4675    4.2521 C   0  0  1  0  0  0  0  0  0  0  0  0
    8.6002    4.9971    7.4615 C   0  0  1  0  0  0  0  0  0  0  0  0
    1.9781    3.8355    1.0607 C   0  0  2  0  0  0  0  0  0  0  0  0
    0.5771    4.1635    1.3770 N   0  0  0  0  0  0  0  0  0  0  0  0
    3.7849    9.3130    0.1060 C   0  0  0  0  0  0  0  0  0  0  0  0
    5.7780    6.8315    5.7661 C   0  0  2  0  0  0  0  0  0  0  0  0
    6.3449    8.1246    6.0910 O   0  0  0  0  0  0  0  0  0  0  0  0
    8.3506    5.3467    8.9729 C   0  0  2  0  0  0  0  0  0  0  0  0
    8.6928    6.7732    9.2540 N   0  0  0  0  0  0  0  0  0  0  0  0
    2.5344    3.0530    2.2645 C   0  0  1  0  0  0  0  0  0  0  0  0
    1.7500    1.8830    2.5025 O   0  0  0  0  0  0  0  0  0  0  0  0
    3.0703    7.9159    0.2477 C   0  0  2  0  0  0  0  0  0  0  0  0
    1.6248    8.0383   -0.0826 N   0  0  0  0  0  0  0  0  0  0  0  0
    6.4748    5.6254    6.3976 C   0  0  2  0  0  0  0  0  0  0  0  0
    7.9151    5.8453    6.5316 O   0  0  0  0  0  0  0  0  0  0  0  0
    9.2101    4.3565    9.8935 C   0  0  1  0  0  0  0  0  0  0  0  0
    8.5963    3.0482    9.8725 O   0  0  0  0  0  0  0  0  0  0  0  0
    4.0163    2.6964    2.0074 C   0  0  2  0  0  0  0  0  0  0  0  0
    4.5358    1.9649    3.0935 O   0  0  0  0  0  0  0  0  0  0  0  0
    3.2330    7.3535    1.7151 C   0  0  2  0  0  0  0  0  0  0  0  0
    6.1768    4.4317    5.4747 C   0  0  2  0  0  0  0  0  0  0  0  0
    6.0696    5.0387    4.1892 O   0  0  0  0  0  0  0  0  0  0  0  0
   10.7376    4.2394    9.4240 C   0  0  2  0  0  0  0  0  0  0  0  0
   11.3697    5.4891    9.6981 O   0  0  0  0  0  0  0  0  0  0  0  0
    4.8288    4.0164    1.7904 C   0  0  2  0  0  0  0  0  0  0  0  0
    4.2649    4.7617    0.6651 O   0  0  0  0  0  0  0  0  0  0  0  0
    4.7105    7.2114    2.1416 C   0  0  2  0  0  0  0  0  0  0  0  0
    4.6690    6.8672    3.5538 O   0  0  0  0  0  0  0  0  0  0  0  0
    4.8837    3.6334    5.8280 C   0  0  0  0  0  0  0  0  0  0  0  0
    5.0313    3.0454    7.1170 O   0  0  0  0  0  0  0  0  0  0  0  0
   10.8226    3.9113    7.8854 C   0  0  1  0  0  0  0  0  0  0  0  0
   10.0910    4.9884    7.1963 O   0  0  0  0  0  0  0  0  0  0  0  0
    6.2942    3.7601    1.5248 C   0  0  0  0  0  0  0  0  0  0  0  0
    6.9815    4.9793    1.3814 O   0  0  0  0  0  0  0  0  0  0  0  0
    5.4802    8.5803    1.9190 C   0  0  1  0  0  0  0  0  0  0  0  0
    6.8776    8.4071    2.1698 O   0  0  0  0  0  0  0  0  0  0  0  0
   12.3076    3.8102    7.3258 C   0  0  0  0  0  0  0  0  0  0  0  0
   13.1361    2.7134    7.8977 N   0  0  0  0  0  0  0  0  0  0  0  0
  1  2  1  1  0  0  0
  1  7  1  0  0  0  0
  1 30  1  0  0  0  0
  3  4  1  1  0  0  0
  3  9  1  0  0  0  0
  3 39  1  0  0  0  0
  5 10  1  0  0  0  0
  5 26  1  0  0  0  0
  5 32  1  6  0  0  0
  6 12  1  0  0  0  0
  6 36  1  0  0  0  0
  6 19  1  6  0  0  0
  7  8  1  1  0  0  0
  7 14  1  0  0  0  0
  9 16  1  0  0  0  0
 10 11  1  6  0  0  0
 10 18  1  0  0  0  0
 12 13  1  6  0  0  0
 12 20  1  0  0  0  0
 14 15  1  6  0  0  0
 14 22  1  0  0  0  0
 16 17  1  1  0  0  0
 16 24  1  0  0  0  0
 18 19  1  6  0  0  0
 18 25  1  0  0  0  0
 20 21  1  6  0  0  0
 20 27  1  0  0  0  0
 22 23  1  1  0  0  0
 22 29  1  0  0  0  0
 24  2  1  6  0  0  0
 24 31  1  0  0  0  0
 25 26  1  0  0  0  0
 25 33  1  1  0  0  0
 27 28  1  6  0  0  0
 27 35  1  0  0  0  0
 29 30  1  0  0  0  0
 29 37  1  6  0  0  0
 31 32  1  1  0  0  0
 31 39  1  0  0  0  0
 33 34  1  0  0  0  0
 35 36  1  0  0  0  0
 35 41  1  6  0  0  0
 37 38  1  0  0  0  0
 39 40  1  6  0  0  0
 41 42  1  0  0  0  0
M  END
>  <CHROM.1>
-177.78361083,44.97208923,161.26414142,-74.46097628,-63.48747769,-178.07950470
170.96742798,151.43160899,63.52241554,6.07447673,5.41250561,4.29020008,2.62056968
-0.70966695,-0.50214900

>  <Name>
ligand

>  <RI>
0

>  <Rbt.Current_Directory>
/home/itssahil/PROJECTS/Mol_Feturizer/Test_systems_manuscript/rnas/2o3w

>  <Rbt.Executable>
rbdock ($Id: //depot/dev/client3/rdock/2013.1/src/exe/rbdock.cxx#4 $)

>  <Rbt.Library>
libRbt.so (2013.1, Build901 2013/11/27)

>  <Rbt.Parameter_File>
/export/apps/rDock/src/rDock_2013.1_src/data/scripts/dock_solv.prm

>  <Rbt.Receptor>
prm/pocket_docking_6.prm

>  <SCORE>
-13.3684

>  <SCORE.INTER>
-1.96549

>  <SCORE.INTER.CONST>
1

>  <SCORE.INTER.POLAR>
0

>  <SCORE.INTER.ROT>
9

>  <SCORE.INTER.SOLV>
18.6433

>  <SCORE.INTER.VDW>
-17.1248

>  <SCORE.INTER.norm>
-0.0467973

>  <SCORE.INTRA>
-11.4029

>  <SCORE.INTRA.DIHEDRAL>
-20.2864

>  <SCORE.INTRA.DIHEDRAL.0>
27.8999

>  <SCORE.INTRA.POLAR>
0

>  <SCORE.INTRA.POLAR.0>
0

>  <SCORE.INTRA.REPUL>
0

>  <SCORE.INTRA.REPUL.0>
0

>  <SCORE.INTRA.SOLV>
-3.30313

>  <SCORE.INTRA.SOLV.lig_0>
-104.479

>  <SCORE.INTRA.VDW>
0.391848

>  <SCORE.INTRA.VDW.0>
-6.17816

>  <SCORE.INTRA.norm>
-0.271498

>  <SCORE.RESTR>
0

>  <SCORE.RESTR.CAVITY>
0

>  <SCORE.RESTR.norm>
0

>  <SCORE.SYSTEM>
0

>  <SCORE.SYSTEM.CONST>
0

>  <SCORE.SYSTEM.DIHEDRAL>
0

>  <SCORE.SYSTEM.SOLV>
0

>  <SCORE.SYSTEM.norm>
0

>  <SCORE.heavy>
42

>  <SCORE.norm>
-0.318296

>  <RMSD>
8.761

$$$$
ligand
 OpenBabel02271912133D
libRbt.so/2013.1/901 2013/11/27
 42 45  0  0  0  0  0  0  0  0999 V2000
    3.0425    5.4778    1.9679 C   0  0  2  0  0  0  0  0  0  0  0  0
    3.9079    4.5823    1.2492 O   0  0  0  0  0  0  0  0  0  0  0  0
    3.4053    1.0989    3.7809 C   0  0  2  0  0  0  0  0  0  0  0  0
    3.5911   -0.2347    4.4269 N   0  0  0  0  0  0  0  0  0  0  0  0
    7.1032    3.3005    3.2187 C   0  0  1  0  0  0  0  0  0  0  0  0
    9.2050    1.2680    3.6920 C   0  0  1  0  0  0  0  0  0  0  0  0
    2.5875    6.5767    0.9611 C   0  0  2  0  0  0  0  0  0  0  0  0
    2.0767    6.0099   -0.2992 N   0  0  0  0  0  0  0  0  0  0  0  0
    3.0533    0.9493    2.2462 C   0  0  0  0  0  0  0  0  0  0  0  0
    7.2554    2.4704    1.9078 C   0  0  2  0  0  0  0  0  0  0  0  0
    6.7304    1.1231    1.9991 O   0  0  0  0  0  0  0  0  0  0  0  0
    9.8712    2.3011    4.6706 C   0  0  2  0  0  0  0  0  0  0  0  0
   11.3505    2.3489    4.4696 N   0  0  0  0  0  0  0  0  0  0  0  0
    3.7324    7.5355    0.5858 C   0  0  1  0  0  0  0  0  0  0  0  0
    3.2615    8.5476   -0.3057 O   0  0  0  0  0  0  0  0  0  0  0  0
    2.8477    2.3837    1.6276 C   0  0  2  0  0  0  0  0  0  0  0  0
    2.5001    2.2800    0.1846 N   0  0  0  0  0  0  0  0  0  0  0  0
    8.7609    2.5791    1.6605 C   0  0  2  0  0  0  0  0  0  0  0  0
    9.4922    1.4883    2.3055 O   0  0  0  0  0  0  0  0  0  0  0  0
    9.5081    1.9087    6.1810 C   0  0  1  0  0  0  0  0  0  0  0  0
    8.1236    2.2405    6.4299 O   0  0  0  0  0  0  0  0  0  0  0  0
    4.3324    8.1500    1.8709 C   0  0  2  0  0  0  0  0  0  0  0  0
    5.3712    9.0433    1.5434 O   0  0  0  0  0  0  0  0  0  0  0  0
    4.1542    3.2557    1.7968 C   0  0  2  0  0  0  0  0  0  0  0  0
    9.1861    3.9452    2.2245 C   0  0  2  0  0  0  0  0  0  0  0  0
    8.2731    4.1465    3.3008 O   0  0  0  0  0  0  0  0  0  0  0  0
    9.7524    0.3569    6.4964 C   0  0  2  0  0  0  0  0  0  0  0  0
   11.1614    0.1312    6.4840 O   0  0  0  0  0  0  0  0  0  0  0  0
    4.8623    6.9981    2.7884 C   0  0  2  0  0  0  0  0  0  0  0  0
    3.7688    6.0798    3.1062 O   0  0  0  0  0  0  0  0  0  0  0  0
    4.5920    3.3986    3.2709 C   0  0  2  0  0  0  0  0  0  0  0  0
    5.8867    4.0589    3.2225 O   0  0  0  0  0  0  0  0  0  0  0  0
    9.1230    5.1261    1.2067 C   0  0  0  0  0  0  0  0  0  0  0  0
    9.5134    6.3307    1.8589 O   0  0  0  0  0  0  0  0  0  0  0  0
    9.0459   -0.5476    5.4171 C   0  0  1  0  0  0  0  0  0  0  0  0
    9.5938   -0.1334    4.1139 O   0  0  0  0  0  0  0  0  0  0  0  0
    5.4632    7.5106    4.0768 C   0  0  0  0  0  0  0  0  0  0  0  0
    6.6285    8.2514    3.8073 O   0  0  0  0  0  0  0  0  0  0  0  0
    4.7147    1.9696    3.9482 C   0  0  1  0  0  0  0  0  0  0  0  0
    4.9714    2.1076    5.3484 O   0  0  0  0  0  0  0  0  0  0  0  0
    9.2656   -2.1074    5.6351 C   0  0  0  0  0  0  0  0  0  0  0  0
    8.7214   -2.6614    6.9053 N   0  0  0  0  0  0  0  0  0  0  0  0
  1  2  1  6  0  0  0
  1  7  1  0  0  0  0
  1 30  1  0  0  0  0
  3  4  1  6  0  0  0
  3  9  1  0  0  0  0
  3 39  1  0  0  0  0
  5 10  1  0  0  0  0
  5 26  1  0  0  0  0
  5 32  1  6  0  0  0
  6 12  1  0  0  0  0
  6 36  1  0  0  0  0
  6 19  1  6  0  0  0
  7  8  1  6  0  0  0
  7 14  1  0  0  0  0
  9 16  1  0  0  0  0
 10 11  1  1  0  0  0
 10 18  1  0  0  0  0
 12 13  1  1  0  0  0
 12 20  1  0  0  0  0
 14 15  1  6  0  0  0
 14 22  1  0  0  0  0
 16 17  1  6  0  0  0
 16 24  1  0  0  0  0
 18 19  1  1  0  0  0
 18 25  1  0  0  0  0
 20 21  1  6  0  0  0
 20 27  1  0  0  0  0
 22 23  1  6  0  0  0
 22 29  1  0  0  0  0
 24  2  1  1  0  0  0
 24 31  1  0  0  0  0
 25 26  1  0  0  0  0
 25 33  1  6  0  0  0
 27 28  1  6  0  0  0
 27 35  1  0  0  0  0
 29 30  1  0  0  0  0
 29 37  1  1  0  0  0
 31 32  1  6  0  0  0
 31 39  1  0  0  0  0
 33 34  1  0  0  0  0
 35 36  1  0  0  0  0
 35 41  1  1  0  0  0
 37 38  1  0  0  0  0
 39 40  1  1  0  0  0
 41 42  1  0  0  0  0
M  END
>  <CHROM.1>
-161.33228887,72.04613784,-50.86131626,-76.72278920,178.83484365,-66.02922534
-93.72318410,66.65542846,62.33312712,6.45285321,3.40784674,3.13266747,2.23373571
-0.28787592,-0.32003035

>  <Name>
ligand

>  <RI>
0

>  <Rbt.Current_Directory>
/home/itssahil/PROJECTS/Mol_Feturizer/Test_systems_manuscript/rnas/2o3w

>  <Rbt.Executable>
rbdock ($Id: //depot/dev/client3/rdock/2013.1/src/exe/rbdock.cxx#4 $)

>  <Rbt.Library>
libRbt.so (2013.1, Build901 2013/11/27)

>  <Rbt.Parameter_File>
/export/apps/rDock/src/rDock_2013.1_src/data/scripts/dock_solv.prm

>  <Rbt.Receptor>
prm/pocket_docking_3.prm

>  <SCORE>
-8.56866

>  <SCORE.INTER>
-1.54289

>  <SCORE.INTER.CONST>
1

>  <SCORE.INTER.POLAR>
0

>  <SCORE.INTER.ROT>
9

>  <SCORE.INTER.SOLV>
11.3584

>  <SCORE.INTER.VDW>
-14.4147

>  <SCORE.INTER.norm>
-0.0367354

>  <SCORE.INTRA>
-7.04066

>  <SCORE.INTRA.DIHEDRAL>
-19.1365

>  <SCORE.INTRA.DIHEDRAL.0>
27.8999

>  <SCORE.INTRA.POLAR>
0

>  <SCORE.INTRA.POLAR.0>
0

>  <SCORE.INTRA.REPUL>
0

>  <SCORE.INTRA.REPUL.0>
0

>  <SCORE.INTRA.SOLV>
-1.16669

>  <SCORE.INTRA.SOLV.lig_0>
-104.479

>  <SCORE.INTRA.VDW>
3.11094

>  <SCORE.INTRA.VDW.0>
-6.17816

>  <SCORE.INTRA.norm>
-0.167635

>  <SCORE.RESTR>
0.0148885

>  <SCORE.RESTR.CAVITY>
0.0148885

>  <SCORE.RESTR.norm>
0.000354489

>  <SCORE.SYSTEM>
0

>  <SCORE.SYSTEM.CONST>
0

>  <SCORE.SYSTEM.DIHEDRAL>
0

>  <SCORE.SYSTEM.SOLV>
0

>  <SCORE.SYSTEM.norm>
0

>  <SCORE.heavy>
42

>  <SCORE.norm>
-0.204016

>  <RMSD>
8.784

$$$$
ligand
 OpenBabel02271912133D
libRbt.so/2013.1/901 2013/11/27
 42 45  0  0  0  0  0  0  0  0999 V2000
    8.5425    5.5995   -0.7315 C   0  0  2  0  0  0  0  0  0  0  0  0
    8.1761    4.2925   -0.2573 O   0  0  0  0  0  0  0  0  0  0  0  0
    4.0049    4.3285   -1.4385 C   0  0  2  0  0  0  0  0  0  0  0  0
    2.6083    3.9067   -1.7579 N   0  0  0  0  0  0  0  0  0  0  0  0
    7.2102    4.3405    2.5627 C   0  0  1  0  0  0  0  0  0  0  0  0
   10.4816    5.1106    5.2005 C   0  0  1  0  0  0  0  0  0  0  0  0
    9.9968    5.8702   -0.2418 C   0  0  2  0  0  0  0  0  0  0  0  0
   10.9122    4.7581   -0.5515 N   0  0  0  0  0  0  0  0  0  0  0  0
    5.0447    3.6704   -2.4322 C   0  0  0  0  0  0  0  0  0  0  0  0
    7.1261    3.8046    4.0244 C   0  0  2  0  0  0  0  0  0  0  0  0
    6.2930    4.6050    4.8986 O   0  0  0  0  0  0  0  0  0  0  0  0
   11.1120    4.0096    6.1274 C   0  0  2  0  0  0  0  0  0  0  0  0
   10.4256    3.9717    7.4534 N   0  0  0  0  0  0  0  0  0  0  0  0
   10.0686    6.0946    1.2799 C   0  0  1  0  0  0  0  0  0  0  0  0
   11.4111    6.3778    1.6780 O   0  0  0  0  0  0  0  0  0  0  0  0
    6.4922    4.1693   -2.0601 C   0  0  2  0  0  0  0  0  0  0  0  0
    7.4966    3.5798   -2.9860 N   0  0  0  0  0  0  0  0  0  0  0  0
    8.6069    3.7357    4.4011 C   0  0  2  0  0  0  0  0  0  0  0  0
    9.0675    4.9870    5.0035 O   0  0  0  0  0  0  0  0  0  0  0  0
   12.6790    4.2964    6.2985 C   0  0  1  0  0  0  0  0  0  0  0  0
   13.3541    3.9520    5.0678 O   0  0  0  0  0  0  0  0  0  0  0  0
    9.1085    7.2386    1.6782 C   0  0  2  0  0  0  0  0  0  0  0  0
    9.1750    7.4680    3.0665 O   0  0  0  0  0  0  0  0  0  0  0  0
    6.8502    3.7792   -0.5716 C   0  0  2  0  0  0  0  0  0  0  0  0
    9.3632    3.4338    3.0964 C   0  0  2  0  0  0  0  0  0  0  0  0
    8.5516    4.0564    2.1034 O   0  0  0  0  0  0  0  0  0  0  0  0
   12.9948    5.8217    6.6743 C   0  0  2  0  0  0  0  0  0  0  0  0
   12.5270    6.0435    8.0041 O   0  0  0  0  0  0  0  0  0  0  0  0
    7.6527    6.8557    1.2499 C   0  0  2  0  0  0  0  0  0  0  0  0
    7.6117    6.6136   -0.1921 O   0  0  0  0  0  0  0  0  0  0  0  0
    5.8420    4.3421    0.4540 C   0  0  2  0  0  0  0  0  0  0  0  0
    6.2137    3.7406    1.7247 O   0  0  0  0  0  0  0  0  0  0  0  0
    9.5638    1.9177    2.7877 C   0  0  0  0  0  0  0  0  0  0  0  0
   10.3036    1.3160    3.8458 O   0  0  0  0  0  0  0  0  0  0  0  0
   12.2748    6.8015    5.6725 C   0  0  1  0  0  0  0  0  0  0  0  0
   10.8394    6.4779    5.7440 O   0  0  0  0  0  0  0  0  0  0  0  0
    6.6439    7.9261    1.5970 C   0  0  0  0  0  0  0  0  0  0  0  0
    5.3579    7.5326    1.1841 O   0  0  0  0  0  0  0  0  0  0  0  0
    4.3632    3.9348    0.0505 C   0  0  1  0  0  0  0  0  0  0  0  0
    3.4212    4.5804    0.9116 O   0  0  0  0  0  0  0  0  0  0  0  0
   12.5077    8.3415    5.9930 C   0  0  0  0  0  0  0  0  0  0  0  0
   11.9808    8.8116    7.3037 N   0  0  0  0  0  0  0  0  0  0  0  0
  1  2  1  1  0  0  0
  1  7  1  0  0  0  0
  1 30  1  0  0  0  0
  3  4  1  6  0  0  0
  3  9  1  0  0  0  0
  3 39  1  0  0  0  0
  5 10  1  0  0  0  0
  5 26  1  0  0  0  0
  5 32  1  6  0  0  0
  6 12  1  0  0  0  0
  6 36  1  0  0  0  0
  6 19  1  1  0  0  0
  7  8  1  1  0  0  0
  7 14  1  0  0  0  0
  9 16  1  0  0  0  0
 10 11  1  1  0  0  0
 10 18  1  0  0  0  0
 12 13  1  1  0  0  0
 12 20  1  0  0  0  0
 14 15  1  6  0  0  0
 14 22  1  0  0  0  0
 16 17  1  6  0  0  0
 16 24  1  0  0  0  0
 18 19  1  6  0  0  0
 18 25  1  0  0  0  0
 20 21  1  6  0  0  0
 20 27  1  0  0  0  0
 22 23  1  1  0  0  0
 22 29  1  0  0  0  0
 24  2  1  1  0  0  0
 24 31  1  0  0  0  0
 25 26  1  0  0  0  0
 25 33  1  6  0  0  0
 27 28  1  1  0  0  0
 27 35  1  0  0  0  0
 29 30  1  0  0  0  0
 29 37  1  6  0  0  0
 31 32  1  1  0  0  0
 31 39  1  0  0  0  0
 33 34  1  0  0  0  0
 35 36  1  0  0  0  0
 35 41  1  1  0  0  0
 37 38  1  0  0  0  0
 39 40  1  1  0  0  0
 41 42  1  0  0  0  0
M  END
>  <CHROM.1>
179.86342555,40.30189399,-170.47673250,-59.52989427,-59.75211706,179.69297316
86.64453797,162.09079878,-62.73663098,8.67571988,5.06770810,2.50673466,-2.65851756
0.71967329,2.29847917

>  <Name>
ligand

>  <RI>
0

>  <Rbt.Current_Directory>
/home/itssahil/PROJECTS/Mol_Feturizer/Test_systems_manuscript/rnas/2o3w

>  <Rbt.Executable>
rbdock ($Id: //depot/dev/client3/rdock/2013.1/src/exe/rbdock.cxx#4 $)

>  <Rbt.Library>
libRbt.so (2013.1, Build901 2013/11/27)

>  <Rbt.Parameter_File>
/export/apps/rDock/src/rDock_2013.1_src/data/scripts/dock_solv.prm

>  <Rbt.Receptor>
prm/pocket_docking_8.prm

>  <SCORE>
-7.88154

>  <SCORE.INTER>
-0.255955

>  <SCORE.INTER.CONST>
1

>  <SCORE.INTER.POLAR>
0

>  <SCORE.INTER.ROT>
9

>  <SCORE.INTER.SOLV>
16.9279

>  <SCORE.INTER.VDW>
-15.4133

>  <SCORE.INTER.norm>
-0.00609416

>  <SCORE.INTRA>
-7.62559

>  <SCORE.INTRA.DIHEDRAL>
-21.1134

>  <SCORE.INTRA.DIHEDRAL.0>
27.8999

>  <SCORE.INTRA.POLAR>
0

>  <SCORE.INTRA.POLAR.0>
0

>  <SCORE.INTRA.REPUL>
0.429429

>  <SCORE.INTRA.REPUL.0>
0

>  <SCORE.INTRA.SOLV>
0.208932

>  <SCORE.INTRA.SOLV.lig_0>
-104.479

>  <SCORE.INTRA.VDW>
0.679518

>  <SCORE.INTRA.VDW.0>
-6.17816

>  <SCORE.INTRA.norm>
-0.181562

>  <SCORE.RESTR>
0

>  <SCORE.RESTR.CAVITY>
0

>  <SCORE.RESTR.norm>
0

>  <SCORE.SYSTEM>
0

>  <SCORE.SYSTEM.CONST>
0

>  <SCORE.SYSTEM.DIHEDRAL>
0

>  <SCORE.SYSTEM.SOLV>
0

>  <SCORE.SYSTEM.norm>
0

>  <SCORE.heavy>
42

>  <SCORE.norm>
-0.187656

>  <RMSD>
8.804

$$$$
ligand
 OpenBabel02271912133D
libRbt.so/2013.1/901 2013/11/27
 42 45  0  0  0  0  0  0  0  0999 V2000
   10.3253    2.8885    3.9982 C   0  0  2  0  0  0  0  0  0  0  0  0
    9.1969    2.2554    3.3710 O   0  0  0  0  0  0  0  0  0  0  0  0
    6.6175    4.5104    0.7144 C   0  0  2  0  0  0  0  0  0  0  0  0
    5.9986    5.1086   -0.5061 N   0  0  0  0  0  0  0  0  0  0  0  0
    7.0429   -0.1778    2.5466 C   0  0  1  0  0  0  0  0  0  0  0  0
    6.2209   -2.6706    4.0371 C   0  0  1  0  0  0  0  0  0  0  0  0
   11.0520    1.7952    4.8376 C   0  0  2  0  0  0  0  0  0  0  0  0
   11.3099    0.5686    4.0633 N   0  0  0  0  0  0  0  0  0  0  0  0
    8.0951    5.0343    0.9242 C   0  0  0  0  0  0  0  0  0  0  0  0
    7.9184   -0.1840    3.8367 C   0  0  2  0  0  0  0  0  0  0  0  0
    9.0291   -1.1131    3.7906 O   0  0  0  0  0  0  0  0  0  0  0  0
    4.6558   -2.7745    3.9455 C   0  0  2  0  0  0  0  0  0  0  0  0
    4.0816   -3.3114    5.2155 N   0  0  0  0  0  0  0  0  0  0  0  0
   10.2416    1.3760    6.0779 C   0  0  1  0  0  0  0  0  0  0  0  0
   10.9617    0.4035    6.8372 O   0  0  0  0  0  0  0  0  0  0  0  0
    8.6845    4.3878    2.2346 C   0  0  2  0  0  0  0  0  0  0  0  0
   10.0717    4.8709    2.4712 N   0  0  0  0  0  0  0  0  0  0  0  0
    6.8647   -0.4641    4.9093 C   0  0  2  0  0  0  0  0  0  0  0  0
    6.7042   -1.8994    5.1440 O   0  0  0  0  0  0  0  0  0  0  0  0
    4.2594   -3.6991    2.6986 C   0  0  1  0  0  0  0  0  0  0  0  0
    4.4967   -2.9634    1.4774 O   0  0  0  0  0  0  0  0  0  0  0  0
    9.9146    2.6257    6.9267 C   0  0  2  0  0  0  0  0  0  0  0  0
    9.1870    2.2567    8.0751 O   0  0  0  0  0  0  0  0  0  0  0  0
    8.6833    2.8116    2.1271 C   0  0  2  0  0  0  0  0  0  0  0  0
    5.5589    0.1661    4.3964 C   0  0  2  0  0  0  0  0  0  0  0  0
    5.6833    0.0551    2.9805 O   0  0  0  0  0  0  0  0  0  0  0  0
    5.0762   -5.0771    2.6615 C   0  0  2  0  0  0  0  0  0  0  0  0
    4.6223   -5.8766    3.7529 O   0  0  0  0  0  0  0  0  0  0  0  0
    9.0966    3.6355    6.0545 C   0  0  2  0  0  0  0  0  0  0  0  0
    9.8681    3.9955    4.8650 O   0  0  0  0  0  0  0  0  0  0  0  0
    7.2767    2.2303    1.8649 C   0  0  2  0  0  0  0  0  0  0  0  0
    7.4895    0.8141    1.6129 O   0  0  0  0  0  0  0  0  0  0  0  0
    5.3308    1.6487    4.8253 C   0  0  0  0  0  0  0  0  0  0  0  0
    6.4836    2.4169    4.4940 O   0  0  0  0  0  0  0  0  0  0  0  0
    6.6236   -4.8096    2.7880 C   0  0  1  0  0  0  0  0  0  0  0  0
    6.8088   -4.0661    4.0462 O   0  0  0  0  0  0  0  0  0  0  0  0
    8.7376    4.8959    6.8070 C   0  0  0  0  0  0  0  0  0  0  0  0
    9.9046    5.5917    7.1721 O   0  0  0  0  0  0  0  0  0  0  0  0
    6.6186    2.9330    0.6043 C   0  0  1  0  0  0  0  0  0  0  0  0
    5.2623    2.5049    0.4529 O   0  0  0  0  0  0  0  0  0  0  0  0
    7.5107   -6.1293    2.7938 C   0  0  0  0  0  0  0  0  0  0  0  0
    8.9764   -5.9174    2.9466 N   0  0  0  0  0  0  0  0  0  0  0  0
  1  2  1  1  0  0  0
  1  7  1  0  0  0  0
  1 30  1  0  0  0  0
  3  4  1  6  0  0  0
  3  9  1  0  0  0  0
  3 39  1  0  0  0  0
  5 10  1  0  0  0  0
  5 26  1  0  0  0  0
  5 32  1  6  0  0  0
  6 12  1  0  0  0  0
  6 36  1  0  0  0  0
  6 19  1  1  0  0  0
  7  8  1  6  0  0  0
  7 14  1  0  0  0  0
  9 16  1  0  0  0  0
 10 11  1  6  0  0  0
 10 18  1  0  0  0  0
 12 13  1  1  0  0  0
 12 20  1  0  0  0  0
 14 15  1  1  0  0  0
 14 22  1  0  0  0  0
 16 17  1  6  0  0  0
 16 24  1  0  0  0  0
 18 19  1  6  0  0  0
 18 25  1  0  0  0  0
 20 21  1  6  0  0  0
 20 27  1  0  0  0  0
 22 23  1  1  0  0  0
 22 29  1  0  0  0  0
 24  2  1  1  0  0  0
 24 31  1  0  0  0  0
 25 26  1  0  0  0  0
 25 33  1  6  0  0  0
 27 28  1  1  0  0  0
 27 35  1  0  0  0  0
 29 30  1  0  0  0  0
 29 37  1  1  0  0  0
 31 32  1  6  0  0  0
 31 39  1  0  0  0  0
 33 34  1  0  0  0  0
 35 36  1  0  0  0  0
 35 41  1  1  0  0  0
 37 38  1  0  0  0  0
 39 40  1  1  0  0  0
 41 42  1  0  0  0  0
M  END
>  <CHROM.1>
-153.78128961,-41.13666285,-63.45695707,-88.67047197,51.90749174,63.12610384
111.13553156,-71.99747795,-178.52069398,7.58496606,0.48309091,3.71360360
-0.95508530,0.87800516,2.74731475

>  <Name>
ligand

>  <RI>
0

>  <Rbt.Current_Directory>
/home/itssahil/PROJECTS/Mol_Feturizer/Test_systems_manuscript/rnas/2o3w

>  <Rbt.Executable>
rbdock ($Id: //depot/dev/client3/rdock/2013.1/src/exe/rbdock.cxx#4 $)

>  <Rbt.Library>
libRbt.so (2013.1, Build901 2013/11/27)

>  <Rbt.Parameter_File>
/export/apps/rDock/src/rDock_2013.1_src/data/scripts/dock_solv.prm

>  <Rbt.Receptor>
prm/pocket_docking_3.prm

>  <SCORE>
1.948

>  <SCORE.INTER>
3.96723

>  <SCORE.INTER.CONST>
1

>  <SCORE.INTER.POLAR>
0

>  <SCORE.INTER.ROT>
9

>  <SCORE.INTER.SOLV>
10.354

>  <SCORE.INTER.VDW>
-10.4065

>  <SCORE.INTER.norm>
0.0944579

>  <SCORE.INTRA>
-2.01923

>  <SCORE.INTRA.DIHEDRAL>
-12.1143

>  <SCORE.INTRA.DIHEDRAL.0>
27.8999

>  <SCORE.INTRA.POLAR>
0

>  <SCORE.INTRA.POLAR.0>
0

>  <SCORE.INTRA.REPUL>
0.000387259

>  <SCORE.INTRA.REPUL.0>
0

>  <SCORE.INTRA.SOLV>
2.0565

>  <SCORE.INTRA.SOLV.lig_0>
-104.479

>  <SCORE.INTRA.VDW>
3.00776

>  <SCORE.INTRA.VDW.0>
-6.17816

>  <SCORE.INTRA.norm>
-0.0480769

>  <SCORE.RESTR>
0

>  <SCORE.RESTR.CAVITY>
0

>  <SCORE.RESTR.norm>
0

>  <SCORE.SYSTEM>
0

>  <SCORE.SYSTEM.CONST>
0

>  <SCORE.SYSTEM.DIHEDRAL>
0

>  <SCORE.SYSTEM.SOLV>
0

>  <SCORE.SYSTEM.norm>
0

>  <SCORE.heavy>
42

>  <SCORE.norm>
0.046381

>  <RMSD>
8.824

$$$$
ligand
 OpenBabel02271912133D
libRbt.so/2013.1/901 2013/11/27
 42 45  0  0  0  0  0  0  0  0999 V2000
    9.1419    4.9690    2.0479 C   0  0  2  0  0  0  0  0  0  0  0  0
   10.4725    5.2243    2.5293 O   0  0  0  0  0  0  0  0  0  0  0  0
   12.7058    3.7029    5.9195 C   0  0  2  0  0  0  0  0  0  0  0  0
   13.1112    3.3153    7.3036 N   0  0  0  0  0  0  0  0  0  0  0  0
    9.1222    1.5460    4.0757 C   0  0  1  0  0  0  0  0  0  0  0  0
    6.8274   -2.1196    5.1442 C   0  0  1  0  0  0  0  0  0  0  0  0
    9.1395    5.2928    0.5236 C   0  0  2  0  0  0  0  0  0  0  0  0
   10.2526    4.6453   -0.1920 N   0  0  0  0  0  0  0  0  0  0  0  0
   12.5522    5.2713    5.7843 C   0  0  0  0  0  0  0  0  0  0  0  0
    8.2432    1.3764    5.3522 C   0  0  2  0  0  0  0  0  0  0  0  0
    8.9986    1.0843    6.5534 O   0  0  0  0  0  0  0  0  0  0  0  0
    7.3725   -3.5111    5.6293 C   0  0  2  0  0  0  0  0  0  0  0  0
    8.6030   -3.8945    4.8744 N   0  0  0  0  0  0  0  0  0  0  0  0
    9.2518    6.8034    0.2470 C   0  0  1  0  0  0  0  0  0  0  0  0
    9.2057    7.0565   -1.1582 O   0  0  0  0  0  0  0  0  0  0  0  0
   12.1467    5.6185    4.3019 C   0  0  2  0  0  0  0  0  0  0  0  0
   12.0074    7.0903    4.1348 N   0  0  0  0  0  0  0  0  0  0  0  0
    7.2703    0.2863    4.9002 C   0  0  2  0  0  0  0  0  0  0  0  0
    7.7796   -1.0505    5.2074 O   0  0  0  0  0  0  0  0  0  0  0  0
    6.2254   -4.6166    5.4595 C   0  0  1  0  0  0  0  0  0  0  0  0
    5.2239   -4.4114    6.4811 O   0  0  0  0  0  0  0  0  0  0  0  0
    8.1216    7.5494    0.9922 C   0  0  2  0  0  0  0  0  0  0  0  0
    8.2003    8.9324    0.7357 O   0  0  0  0  0  0  0  0  0  0  0  0
   10.7885    4.9102    3.9155 C   0  0  2  0  0  0  0  0  0  0  0  0
    7.0905    0.4794    3.3850 C   0  0  2  0  0  0  0  0  0  0  0  0
    8.3495    1.0098    2.9773 O   0  0  0  0  0  0  0  0  0  0  0  0
    5.5331   -4.5779    4.0149 C   0  0  2  0  0  0  0  0  0  0  0  0
    6.4956   -5.0308    3.0636 O   0  0  0  0  0  0  0  0  0  0  0  0
    8.2459    7.2635    2.5260 C   0  0  2  0  0  0  0  0  0  0  0  0
    8.1710    5.8224    2.7654 O   0  0  0  0  0  0  0  0  0  0  0  0
   10.8461    3.3754    4.0779 C   0  0  2  0  0  0  0  0  0  0  0  0
    9.4827    2.9172    3.8640 O   0  0  0  0  0  0  0  0  0  0  0  0
    5.9224    1.4297    2.9767 C   0  0  0  0  0  0  0  0  0  0  0  0
    5.8575    1.5119    1.5561 O   0  0  0  0  0  0  0  0  0  0  0  0
    5.0641   -3.1158    3.6623 C   0  0  1  0  0  0  0  0  0  0  0  0
    6.2668   -2.2691    3.7455 O   0  0  0  0  0  0  0  0  0  0  0  0
    7.1711    7.9522    3.3348 C   0  0  0  0  0  0  0  0  0  0  0  0
    5.9003    7.4925    2.9437 O   0  0  0  0  0  0  0  0  0  0  0  0
   11.3446    2.9959    5.5350 C   0  0  1  0  0  0  0  0  0  0  0  0
   11.5426    1.5830    5.6364 O   0  0  0  0  0  0  0  0  0  0  0  0
    4.3940   -2.9792    2.2267 C   0  0  0  0  0  0  0  0  0  0  0  0
    3.8389   -1.6363    1.9022 N   0  0  0  0  0  0  0  0  0  0  0  0
  1  2  1  1  0  0  0
  1  7  1  0  0  0  0
  1 30  1  0  0  0  0
  3  4  1  1  0  0  0
  3  9  1  0  0  0  0
  3 39  1  0  0  0  0
  5 10  1  0  0  0  0
  5 26  1  0  0  0  0
  5 32  1  6  0  0  0
  6 12  1  0  0  0  0
  6 36  1  0  0  0  0
  6 19  1  6  0  0  0
  7  8  1  6  0  0  0
  7 14  1  0  0  0  0
  9 16  1  0  0  0  0
 10 11  1  1  0  0  0
 10 18  1  0  0  0  0
 12 13  1  6  0  0  0
 12 20  1  0  0  0  0
 14 15  1  6  0  0  0
 14 22  1  0  0  0  0
 16 17  1  1  0  0  0
 16 24  1  0  0  0  0
 18 19  1  6  0  0  0
 18 25  1  0  0  0  0
 20 21  1  1  0  0  0
 20 27  1  0  0  0  0
 22 23  1  1  0  0  0
 22 29  1  0  0  0  0
 24  2  1  6  0  0  0
 24 31  1  0  0  0  0
 25 26  1  0  0  0  0
 25 33  1  1  0  0  0
 27 28  1  6  0  0  0
 27 35  1  0  0  0  0
 29 30  1  0  0  0  0
 29 37  1  1  0  0  0
 31 32  1  1  0  0  0
 31 39  1  0  0  0  0
 33 34  1  0  0  0  0
 35 36  1  0  0  0  0
 35 41  1  6  0  0  0
 37 38  1  0  0  0  0
 39 40  1  6  0  0  0
 41 42  1  0  0  0  0
M  END
>  <CHROM.1>
-175.57912230,-165.10876105,164.75992089,-173.72134225,-179.47630077,61.22119838
-173.37228639,108.53245328,175.24686133,8.40765263,2.13011464,3.57713075
1.14822537,-0.63708369,-0.46340683

>  <Name>
ligand

>  <RI>
0

>  <Rbt.Current_Directory>
/home/itssahil/PROJECTS/Mol_Feturizer/Test_systems_manuscript/rnas/2o3w

>  <Rbt.Executable>
rbdock ($Id: //depot/dev/client3/rdock/2013.1/src/exe/rbdock.cxx#4 $)

>  <Rbt.Library>
libRbt.so (2013.1, Build901 2013/11/27)

>  <Rbt.Parameter_File>
/export/apps/rDock/src/rDock_2013.1_src/data/scripts/dock_solv.prm

>  <Rbt.Receptor>
prm/pocket_docking_4.prm

>  <SCORE>
-9.04007

>  <SCORE.INTER>
0.320442

>  <SCORE.INTER.CONST>
1

>  <SCORE.INTER.POLAR>
0

>  <SCORE.INTER.ROT>
9

>  <SCORE.INTER.SOLV>
13.1444

>  <SCORE.INTER.VDW>
-13.7678

>  <SCORE.INTER.norm>
0.00762957

>  <SCORE.INTRA>
-9.36051

>  <SCORE.INTRA.DIHEDRAL>
-18.4846

>  <SCORE.INTRA.DIHEDRAL.0>
27.8999

>  <SCORE.INTRA.POLAR>
0

>  <SCORE.INTRA.POLAR.0>
0

>  <SCORE.INTRA.REPUL>
0

>  <SCORE.INTRA.REPUL.0>
0

>  <SCORE.INTRA.SOLV>
-4.22173

>  <SCORE.INTRA.SOLV.lig_0>
-104.479

>  <SCORE.INTRA.VDW>
1.99264

>  <SCORE.INTRA.VDW.0>
-6.17816

>  <SCORE.INTRA.norm>
-0.222869

>  <SCORE.RESTR>
0

>  <SCORE.RESTR.CAVITY>
0

>  <SCORE.RESTR.norm>
0

>  <SCORE.SYSTEM>
0

>  <SCORE.SYSTEM.CONST>
0

>  <SCORE.SYSTEM.DIHEDRAL>
0

>  <SCORE.SYSTEM.SOLV>
0

>  <SCORE.SYSTEM.norm>
0

>  <SCORE.heavy>
42

>  <SCORE.norm>
-0.21524

>  <RMSD>
8.830

$$$$
ligand
 OpenBabel02271912133D
libRbt.so/2013.1/901 2013/11/27
 42 45  0  0  0  0  0  0  0  0999 V2000
    5.3434    8.1524    3.5979 C   0  0  2  0  0  0  0  0  0  0  0  0
    6.3559    7.4257    2.8810 O   0  0  0  0  0  0  0  0  0  0  0  0
   10.4194    6.1817    3.7393 C   0  0  2  0  0  0  0  0  0  0  0  0
   11.6251    5.6073    4.4077 N   0  0  0  0  0  0  0  0  0  0  0  0
    7.0957    3.2925    2.5228 C   0  0  1  0  0  0  0  0  0  0  0  0
    6.2151   -0.6343    2.8824 C   0  0  1  0  0  0  0  0  0  0  0  0
    4.3371    7.1011    4.1549 C   0  0  2  0  0  0  0  0  0  0  0  0
    5.0087    5.9992    4.8658 N   0  0  0  0  0  0  0  0  0  0  0  0
    9.8355    7.4020    4.5589 C   0  0  0  0  0  0  0  0  0  0  0  0
    5.9009    2.3830    2.9422 C   0  0  2  0  0  0  0  0  0  0  0  0
    6.0959    1.6985    4.2042 O   0  0  0  0  0  0  0  0  0  0  0  0
    7.0349   -1.9746    2.9043 C   0  0  2  0  0  0  0  0  0  0  0  0
    6.9564   -2.6695    1.5845 N   0  0  0  0  0  0  0  0  0  0  0  0
    3.4866    6.4600    3.0429 C   0  0  1  0  0  0  0  0  0  0  0  0
    2.5532    5.5342    3.6019 O   0  0  0  0  0  0  0  0  0  0  0  0
    8.5833    7.9774    3.7949 C   0  0  2  0  0  0  0  0  0  0  0  0
    8.0160    9.1385    4.5321 N   0  0  0  0  0  0  0  0  0  0  0  0
    5.7681    1.4818    1.7136 C   0  0  2  0  0  0  0  0  0  0  0  0
    6.5870    0.2759    1.8399 O   0  0  0  0  0  0  0  0  0  0  0  0
    6.4848   -2.9116    4.0817 C   0  0  1  0  0  0  0  0  0  0  0  0
    6.9214   -2.3732    5.3499 O   0  0  0  0  0  0  0  0  0  0  0  0
    2.7696    7.5681    2.2385 C   0  0  2  0  0  0  0  0  0  0  0  0
    1.9733    6.9965    1.2267 O   0  0  0  0  0  0  0  0  0  0  0  0
    7.4749    6.8645    3.6249 C   0  0  2  0  0  0  0  0  0  0  0  0
    6.2119    2.3335    0.5124 C   0  0  2  0  0  0  0  0  0  0  0  0
    7.1806    3.2111    1.0815 O   0  0  0  0  0  0  0  0  0  0  0  0
    4.8879   -3.0440    4.0767 C   0  0  2  0  0  0  0  0  0  0  0  0
    4.5221   -3.8039    2.9256 O   0  0  0  0  0  0  0  0  0  0  0  0
    3.8422    8.5271    1.6225 C   0  0  2  0  0  0  0  0  0  0  0  0
    4.6613    9.0997    2.6906 O   0  0  0  0  0  0  0  0  0  0  0  0
    7.9912    5.6140    2.8800 C   0  0  2  0  0  0  0  0  0  0  0  0
    6.9160    4.6399    2.9782 O   0  0  0  0  0  0  0  0  0  0  0  0
    5.0689    3.1352   -0.1841 C   0  0  0  0  0  0  0  0  0  0  0  0
    5.5721    3.7341   -1.3744 O   0  0  0  0  0  0  0  0  0  0  0  0
    4.2125   -1.6214    4.0282 C   0  0  1  0  0  0  0  0  0  0  0  0
    4.7376   -0.9601    2.8210 O   0  0  0  0  0  0  0  0  0  0  0  0
    3.2261    9.6500    0.8205 C   0  0  0  0  0  0  0  0  0  0  0  0
    4.2212   10.3307    0.0955 O   0  0  0  0  0  0  0  0  0  0  0  0
    9.3095    5.0678    3.5725 C   0  0  1  0  0  0  0  0  0  0  0  0
    9.8705    4.0053    2.7967 O   0  0  0  0  0  0  0  0  0  0  0  0
    2.6234   -1.6601    3.9864 C   0  0  0  0  0  0  0  0  0  0  0  0
    1.9628   -2.2259    5.1948 N   0  0  0  0  0  0  0  0  0  0  0  0
  1  2  1  6  0  0  0
  1  7  1  0  0  0  0
  1 30  1  0  0  0  0
  3  4  1  1  0  0  0
  3  9  1  0  0  0  0
  3 39  1  0  0  0  0
  5 10  1  0  0  0  0
  5 26  1  0  0  0  0
  5 32  1  6  0  0  0
  6 12  1  0  0  0  0
  6 36  1  0  0  0  0
  6 19  1  6  0  0  0
  7  8  1  6  0  0  0
  7 14  1  0  0  0  0
  9 16  1  0  0  0  0
 10 11  1  1  0  0  0
 10 18  1  0  0  0  0
 12 13  1  6  0  0  0
 12 20  1  0  0  0  0
 14 15  1  1  0  0  0
 14 22  1  0  0  0  0
 16 17  1  1  0  0  0
 16 24  1  0  0  0  0
 18 19  1  1  0  0  0
 18 25  1  0  0  0  0
 20 21  1  1  0  0  0
 20 27  1  0  0  0  0
 22 23  1  6  0  0  0
 22 29  1  0  0  0  0
 24  2  1  6  0  0  0
 24 31  1  0  0  0  0
 25 26  1  0  0  0  0
 25 33  1  1  0  0  0
 27 28  1  6  0  0  0
 27 35  1  0  0  0  0
 29 30  1  0  0  0  0
 29 37  1  1  0  0  0
 31 32  1  1  0  0  0
 31 39  1  0  0  0  0
 33 34  1  0  0  0  0
 35 36  1  0  0  0  0
 35 41  1  6  0  0  0
 37 38  1  0  0  0  0
 39 40  1  6  0  0  0
 41 42  1  0  0  0  0
M  END
>  <CHROM.1>
-84.05108245,-85.09788825,65.22776639,174.77670354,-172.36174651,-169.31213939
-173.05311293,170.61923630,64.58880264,5.92469907,3.63991977,2.84725191,1.52316122
-0.23377573,-0.08478204

>  <Name>
ligand

>  <RI>
0

>  <Rbt.Current_Directory>
/home/itssahil/PROJECTS/Mol_Feturizer/Test_systems_manuscript/rnas/2o3w

>  <Rbt.Executable>
rbdock ($Id: //depot/dev/client3/rdock/2013.1/src/exe/rbdock.cxx#4 $)

>  <Rbt.Library>
libRbt.so (2013.1, Build901 2013/11/27)

>  <Rbt.Parameter_File>
/export/apps/rDock/src/rDock_2013.1_src/data/scripts/dock_solv.prm

>  <Rbt.Receptor>
prm/pocket_docking_4.prm

>  <SCORE>
-9.64196

>  <SCORE.INTER>
-0.827179

>  <SCORE.INTER.CONST>
1

>  <SCORE.INTER.POLAR>
0

>  <SCORE.INTER.ROT>
9

>  <SCORE.INTER.SOLV>
15.4105

>  <SCORE.INTER.VDW>
-15.2883

>  <SCORE.INTER.norm>
-0.0196947

>  <SCORE.INTRA>
-8.81478

>  <SCORE.INTRA.DIHEDRAL>
-20.9856

>  <SCORE.INTRA.DIHEDRAL.0>
27.8999

>  <SCORE.INTRA.POLAR>
0

>  <SCORE.INTRA.POLAR.0>
0

>  <SCORE.INTRA.REPUL>
0

>  <SCORE.INTRA.REPUL.0>
0

>  <SCORE.INTRA.SOLV>
-2.26699

>  <SCORE.INTRA.SOLV.lig_0>
-104.479

>  <SCORE.INTRA.VDW>
2.8115

>  <SCORE.INTRA.VDW.0>
-6.17816

>  <SCORE.INTRA.norm>
-0.209876

>  <SCORE.RESTR>
0

>  <SCORE.RESTR.CAVITY>
0

>  <SCORE.RESTR.norm>
0

>  <SCORE.SYSTEM>
0

>  <SCORE.SYSTEM.CONST>
0

>  <SCORE.SYSTEM.DIHEDRAL>
0

>  <SCORE.SYSTEM.SOLV>
0

>  <SCORE.SYSTEM.norm>
0

>  <SCORE.heavy>
42

>  <SCORE.norm>
-0.22957

>  <RMSD>
8.831

$$$$
ligand
 OpenBabel02271912133D
libRbt.so/2013.1/901 2013/11/27
 42 45  0  0  0  0  0  0  0  0999 V2000
    9.1503    6.2721    4.6325 C   0  0  2  0  0  0  0  0  0  0  0  0
    8.7442    4.8934    4.6717 O   0  0  0  0  0  0  0  0  0  0  0  0
   11.6966    3.5108    7.5295 C   0  0  2  0  0  0  0  0  0  0  0  0
   12.5034    2.6488    8.4441 N   0  0  0  0  0  0  0  0  0  0  0  0
    9.9544    1.9110    3.6593 C   0  0  1  0  0  0  0  0  0  0  0  0
    8.4574   -2.0946    2.4883 C   0  0  1  0  0  0  0  0  0  0  0  0
    8.2135    6.9938    3.6178 C   0  0  2  0  0  0  0  0  0  0  0  0
    6.7888    6.7162    3.8698 N   0  0  0  0  0  0  0  0  0  0  0  0
   10.1954    3.6167    8.0163 C   0  0  0  0  0  0  0  0  0  0  0  0
    9.8851    1.3980    2.1886 C   0  0  2  0  0  0  0  0  0  0  0  0
    8.7527    1.9048    1.4404 O   0  0  0  0  0  0  0  0  0  0  0  0
    6.9837   -2.6395    2.4894 C   0  0  2  0  0  0  0  0  0  0  0  0
    6.2252   -2.1240    3.6683 N   0  0  0  0  0  0  0  0  0  0  0  0
    8.4971    6.5774    2.1627 C   0  0  1  0  0  0  0  0  0  0  0  0
    7.6444    7.2914    1.2659 O   0  0  0  0  0  0  0  0  0  0  0  0
    9.4032    4.5535    7.0277 C   0  0  2  0  0  0  0  0  0  0  0  0
    7.9874    4.6875    7.4646 N   0  0  0  0  0  0  0  0  0  0  0  0
    9.9145   -0.1164    2.4006 C   0  0  2  0  0  0  0  0  0  0  0  0
    8.5659   -0.6665    2.5396 O   0  0  0  0  0  0  0  0  0  0  0  0
    7.0123   -4.2413    2.4790 C   0  0  1  0  0  0  0  0  0  0  0  0
    7.4064   -4.6930    1.1639 O   0  0  0  0  0  0  0  0  0  0  0  0
    9.9885    6.8212    1.8379 C   0  0  2  0  0  0  0  0  0  0  0  0
   10.2608    6.4606    0.5036 O   0  0  0  0  0  0  0  0  0  0  0  0
    9.4520    3.9791    5.5568 C   0  0  2  0  0  0  0  0  0  0  0  0
   10.7458   -0.3509    3.6731 C   0  0  2  0  0  0  0  0  0  0  0  0
   10.4904    0.8209    4.4439 O   0  0  0  0  0  0  0  0  0  0  0  0
    8.0072   -4.8528    3.5762 C   0  0  2  0  0  0  0  0  0  0  0  0
    7.4423   -4.5954    4.8611 O   0  0  0  0  0  0  0  0  0  0  0  0
   10.8693    5.9873    2.8270 C   0  0  2  0  0  0  0  0  0  0  0  0
   10.5617    6.3726    4.2042 O   0  0  0  0  0  0  0  0  0  0  0  0
   10.8933    3.7948    5.0333 C   0  0  2  0  0  0  0  0  0  0  0  0
   10.7529    3.0968    3.7654 O   0  0  0  0  0  0  0  0  0  0  0  0
   12.2756   -0.5429    3.4338 C   0  0  0  0  0  0  0  0  0  0  0  0
   12.4812   -1.6663    2.5826 O   0  0  0  0  0  0  0  0  0  0  0  0
    9.4324   -4.1908    3.4645 C   0  0  1  0  0  0  0  0  0  0  0  0
    9.2238   -2.7411    3.6231 O   0  0  0  0  0  0  0  0  0  0  0  0
   12.3495    6.1717    2.5843 C   0  0  0  0  0  0  0  0  0  0  0  0
   13.0905    5.4091    3.5055 O   0  0  0  0  0  0  0  0  0  0  0  0
   11.7436    2.9332    6.0583 C   0  0  1  0  0  0  0  0  0  0  0  0
   13.1135    2.8905    5.6495 O   0  0  0  0  0  0  0  0  0  0  0  0
   10.4771   -4.7168    4.5418 C   0  0  0  0  0  0  0  0  0  0  0  0
   10.1301   -4.4377    5.9625 N   0  0  0  0  0  0  0  0  0  0  0  0
  1  2  1  6  0  0  0
  1  7  1  0  0  0  0
  1 30  1  0  0  0  0
  3  4  1  1  0  0  0
  3  9  1  0  0  0  0
  3 39  1  0  0  0  0
  5 10  1  0  0  0  0
  5 26  1  0  0  0  0
  5 32  1  6  0  0  0
  6 12  1  0  0  0  0
  6 36  1  0  0  0  0
  6 19  1  1  0  0  0
  7  8  1  1  0  0  0
  7 14  1  0  0  0  0
  9 16  1  0  0  0  0
 10 11  1  1  0  0  0
 10 18  1  0  0  0  0
 12 13  1  1  0  0  0
 12 20  1  0  0  0  0
 14 15  1  6  0  0  0
 14 22  1  0  0  0  0
 16 17  1  1  0  0  0
 16 24  1  0  0  0  0
 18 19  1  1  0  0  0
 18 25  1  0  0  0  0
 20 21  1  6  0  0  0
 20 27  1  0  0  0  0
 22 23  1  6  0  0  0
 22 29  1  0  0  0  0
 24  2  1  6  0  0  0
 24 31  1  0  0  0  0
 25 26  1  0  0  0  0
 25 33  1  6  0  0  0
 27 28  1  1  0  0  0
 27 35  1  0  0  0  0
 29 30  1  0  0  0  0
 29 37  1  6  0  0  0
 31 32  1  6  0  0  0
 31 39  1  0  0  0  0
 33 34  1  0  0  0  0
 35 36  1  0  0  0  0
 35 41  1  1  0  0  0
 37 38  1  0  0  0  0
 39 40  1  6  0  0  0
 41 42  1  0  0  0  0
M  END
>  <CHROM.1>
-179.54130401,55.50787905,168.58616608,-173.88795879,-59.40695013,179.56022800
-50.00932776,176.41361700,-62.89782160,9.72445290,1.73517772,3.89377502,1.35139200
-0.92617462,-0.12538793

>  <Name>
ligand

>  <RI>
0

>  <Rbt.Current_Directory>
/home/itssahil/PROJECTS/Mol_Feturizer/Test_systems_manuscript/rnas/2o3w

>  <Rbt.Executable>
rbdock ($Id: //depot/dev/client3/rdock/2013.1/src/exe/rbdock.cxx#4 $)

>  <Rbt.Library>
libRbt.so (2013.1, Build901 2013/11/27)

>  <Rbt.Parameter_File>
/export/apps/rDock/src/rDock_2013.1_src/data/scripts/dock_solv.prm

>  <Rbt.Receptor>
prm/pocket_docking_6.prm

>  <SCORE>
-12.3671

>  <SCORE.INTER>
0.249903

>  <SCORE.INTER.CONST>
1

>  <SCORE.INTER.POLAR>
0

>  <SCORE.INTER.ROT>
9

>  <SCORE.INTER.SOLV>
12.9059

>  <SCORE.INTER.VDW>
-13.7354

>  <SCORE.INTER.norm>
0.00595007

>  <SCORE.INTRA>
-12.617

>  <SCORE.INTRA.DIHEDRAL>
-26.2732

>  <SCORE.INTRA.DIHEDRAL.0>
27.8999

>  <SCORE.INTRA.POLAR>
0

>  <SCORE.INTRA.POLAR.0>
0

>  <SCORE.INTRA.REPUL>
0

>  <SCORE.INTRA.REPUL.0>
0

>  <SCORE.INTRA.SOLV>
-2.96852

>  <SCORE.INTRA.SOLV.lig_0>
-104.479

>  <SCORE.INTRA.VDW>
2.00386

>  <SCORE.INTRA.VDW.0>
-6.17816

>  <SCORE.INTRA.norm>
-0.300405

>  <SCORE.RESTR>
0

>  <SCORE.RESTR.CAVITY>
0

>  <SCORE.RESTR.norm>
0

>  <SCORE.SYSTEM>
0

>  <SCORE.SYSTEM.CONST>
0

>  <SCORE.SYSTEM.DIHEDRAL>
0

>  <SCORE.SYSTEM.SOLV>
0

>  <SCORE.SYSTEM.norm>
0

>  <SCORE.heavy>
42

>  <SCORE.norm>
-0.294455

>  <RMSD>
8.861

$$$$
ligand
 OpenBabel02271912133D
libRbt.so/2013.1/901 2013/11/27
 42 45  0  0  0  0  0  0  0  0999 V2000
    7.0064    3.6299    0.7532 C   0  0  2  0  0  0  0  0  0  0  0  0
    6.1629    4.6121    1.3786 O   0  0  0  0  0  0  0  0  0  0  0  0
    5.6757    5.7987    5.5199 C   0  0  2  0  0  0  0  0  0  0  0  0
    5.4294    5.7721    6.9927 N   0  0  0  0  0  0  0  0  0  0  0  0
    7.7725    2.3486    3.6366 C   0  0  1  0  0  0  0  0  0  0  0  0
    7.7994   -1.6180    5.3703 C   0  0  1  0  0  0  0  0  0  0  0  0
    7.3119    4.1426   -0.6862 C   0  0  2  0  0  0  0  0  0  0  0  0
    7.7778    5.5403   -0.6998 N   0  0  0  0  0  0  0  0  0  0  0  0
    4.3766    5.3942    4.7133 C   0  0  0  0  0  0  0  0  0  0  0  0
    8.9949    1.4062    3.4165 C   0  0  2  0  0  0  0  0  0  0  0  0
    9.0196    0.7668    2.1167 O   0  0  0  0  0  0  0  0  0  0  0  0
    9.0937   -2.1570    6.0796 C   0  0  2  0  0  0  0  0  0  0  0  0
   10.0200   -2.7873    5.0919 N   0  0  0  0  0  0  0  0  0  0  0  0
    6.0775    4.0764   -1.6043 C   0  0  1  0  0  0  0  0  0  0  0  0
    6.4128    4.5175   -2.9211 O   0  0  0  0  0  0  0  0  0  0  0  0
    4.6916    5.4626    3.1711 C   0  0  2  0  0  0  0  0  0  0  0  0
    3.4845    5.1013    2.3799 N   0  0  0  0  0  0  0  0  0  0  0  0
    8.8641    0.4652    4.6151 C   0  0  2  0  0  0  0  0  0  0  0  0
    8.0450   -0.7040    4.2943 O   0  0  0  0  0  0  0  0  0  0  0  0
    8.6753   -3.1990    7.2225 C   0  0  1  0  0  0  0  0  0  0  0  0
    8.1096   -2.4700    8.3349 O   0  0  0  0  0  0  0  0  0  0  0  0
    5.5209    2.6345   -1.6167 C   0  0  2  0  0  0  0  0  0  0  0  0
    4.4001    2.5532   -2.4662 O   0  0  0  0  0  0  0  0  0  0  0  0
    5.8789    4.4881    2.8014 C   0  0  2  0  0  0  0  0  0  0  0  0
    8.2293    1.2982    5.7414 C   0  0  2  0  0  0  0  0  0  0  0  0
    7.4144    2.2286    5.0324 O   0  0  0  0  0  0  0  0  0  0  0  0
    7.6249   -4.2953    6.7104 C   0  0  2  0  0  0  0  0  0  0  0  0
    8.3068   -5.1504    5.7938 O   0  0  0  0  0  0  0  0  0  0  0  0
    5.1389    2.2221   -0.1560 C   0  0  2  0  0  0  0  0  0  0  0  0
    6.3153    2.3237    0.7074 O   0  0  0  0  0  0  0  0  0  0  0  0
    7.1694    4.7885    3.5950 C   0  0  2  0  0  0  0  0  0  0  0  0
    8.0786    3.7007    3.2716 O   0  0  0  0  0  0  0  0  0  0  0  0
    9.2456    2.0345    6.6683 C   0  0  0  0  0  0  0  0  0  0  0  0
   10.0565    2.9021    5.8818 O   0  0  0  0  0  0  0  0  0  0  0  0
    6.3998   -3.6030    6.0019 C   0  0  1  0  0  0  0  0  0  0  0  0
    6.9638   -2.7932    4.9080 O   0  0  0  0  0  0  0  0  0  0  0  0
    4.5891    0.8169   -0.0735 C   0  0  0  0  0  0  0  0  0  0  0  0
    3.3657    0.7335   -0.7632 O   0  0  0  0  0  0  0  0  0  0  0  0
    6.8621    4.8207    5.1507 C   0  0  1  0  0  0  0  0  0  0  0  0
    8.0203    5.2468    5.8737 O   0  0  0  0  0  0  0  0  0  0  0  0
    5.3209   -4.6223    5.4312 C   0  0  0  0  0  0  0  0  0  0  0  0
    4.6965   -5.5259    6.4363 N   0  0  0  0  0  0  0  0  0  0  0  0
  1  2  1  6  0  0  0
  1  7  1  0  0  0  0
  1 30  1  0  0  0  0
  3  4  1  1  0  0  0
  3  9  1  0  0  0  0
  3 39  1  0  0  0  0
  5 10  1  0  0  0  0
  5 26  1  0  0  0  0
  5 32  1  1  0  0  0
  6 12  1  0  0  0  0
  6 36  1  0  0  0  0
  6 19  1  6  0  0  0
  7  8  1  1  0  0  0
  7 14  1  0  0  0  0
  9 16  1  0  0  0  0
 10 11  1  6  0  0  0
 10 18  1  0  0  0  0
 12 13  1  6  0  0  0
 12 20  1  0  0  0  0
 14 15  1  6  0  0  0
 14 22  1  0  0  0  0
 16 17  1  6  0  0  0
 16 24  1  0  0  0  0
 18 19  1  6  0  0  0
 18 25  1  0  0  0  0
 20 21  1  1  0  0  0
 20 27  1  0  0  0  0
 22 23  1  6  0  0  0
 22 29  1  0  0  0  0
 24  2  1  6  0  0  0
 24 31  1  0  0  0  0
 25 26  1  0  0  0  0
 25 33  1  6  0  0  0
 27 28  1  6  0  0  0
 27 35  1  0  0  0  0
 29 30  1  0  0  0  0
 29 37  1  6  0  0  0
 31 32  1  1  0  0  0
 31 39  1  0  0  0  0
 33 34  1  0  0  0  0
 35 36  1  0  0  0  0
 35 41  1  6  0  0  0
 37 38  1  0  0  0  0
 39 40  1  1  0  0  0
 41 42  1  0  0  0  0
M  END
>  <CHROM.1>
-171.10581479,-167.09007888,-176.84216026,-54.85595140,58.36860464,-65.28312932
-63.69751148,-169.84810517,59.36714691,6.92138630,1.48219311,3.40832090,2.23398431
-1.23643056,-0.02892230

>  <Name>
ligand

>  <RI>
0

>  <Rbt.Current_Directory>
/home/itssahil/PROJECTS/Mol_Feturizer/Test_systems_manuscript/rnas/2o3w

>  <Rbt.Executable>
rbdock ($Id: //depot/dev/client3/rdock/2013.1/src/exe/rbdock.cxx#4 $)

>  <Rbt.Library>
libRbt.so (2013.1, Build901 2013/11/27)

>  <Rbt.Parameter_File>
/export/apps/rDock/src/rDock_2013.1_src/data/scripts/dock_solv.prm

>  <Rbt.Receptor>
prm/pocket_docking_5.prm

>  <SCORE>
-10.3542

>  <SCORE.INTER>
1.43457

>  <SCORE.INTER.CONST>
1

>  <SCORE.INTER.POLAR>
0

>  <SCORE.INTER.ROT>
9

>  <SCORE.INTER.SOLV>
12.893

>  <SCORE.INTER.VDW>
-12.9413

>  <SCORE.INTER.norm>
0.0341564

>  <SCORE.INTRA>
-11.7888

>  <SCORE.INTRA.DIHEDRAL>
-25.7325

>  <SCORE.INTRA.DIHEDRAL.0>
27.8999

>  <SCORE.INTRA.POLAR>
0

>  <SCORE.INTRA.POLAR.0>
0

>  <SCORE.INTRA.REPUL>
0

>  <SCORE.INTRA.REPUL.0>
0

>  <SCORE.INTRA.SOLV>
-3.47117

>  <SCORE.INTRA.SOLV.lig_0>
-104.479

>  <SCORE.INTRA.VDW>
2.81304

>  <SCORE.INTRA.VDW.0>
-6.17816

>  <SCORE.INTRA.norm>
-0.280686

>  <SCORE.RESTR>
0

>  <SCORE.RESTR.CAVITY>
0

>  <SCORE.RESTR.norm>
0

>  <SCORE.SYSTEM>
0

>  <SCORE.SYSTEM.CONST>
0

>  <SCORE.SYSTEM.DIHEDRAL>
0

>  <SCORE.SYSTEM.SOLV>
0

>  <SCORE.SYSTEM.norm>
0

>  <SCORE.heavy>
42

>  <SCORE.norm>
-0.246529

>  <RMSD>
8.867

$$$$
ligand
 OpenBabel02271912133D
libRbt.so/2013.1/901 2013/11/27
 42 45  0  0  0  0  0  0  0  0999 V2000
   10.3802    6.9639    3.0924 C   0  0  2  0  0  0  0  0  0  0  0  0
   11.1760    6.0159    3.8240 O   0  0  0  0  0  0  0  0  0  0  0  0
   13.4951    6.3265    7.4739 C   0  0  2  0  0  0  0  0  0  0  0  0
   13.8965    6.5474    8.8953 N   0  0  0  0  0  0  0  0  0  0  0  0
   10.7253    2.7235    6.0381 C   0  0  1  0  0  0  0  0  0  0  0  0
    8.8958   -1.2381    6.5017 C   0  0  1  0  0  0  0  0  0  0  0  0
    8.9116    6.8038    3.5882 C   0  0  2  0  0  0  0  0  0  0  0  0
    8.8071    6.8255    5.0576 N   0  0  0  0  0  0  0  0  0  0  0  0
   12.9970    7.6694    6.8028 C   0  0  0  0  0  0  0  0  0  0  0  0
    9.3023    2.0873    6.0699 C   0  0  2  0  0  0  0  0  0  0  0  0
    8.7622    1.9179    7.4035 O   0  0  0  0  0  0  0  0  0  0  0  0
    9.3612   -2.4172    7.4301 C   0  0  2  0  0  0  0  0  0  0  0  0
   10.5132   -3.1501    6.8247 N   0  0  0  0  0  0  0  0  0  0  0  0
    8.2764    5.4827    3.1167 C   0  0  1  0  0  0  0  0  0  0  0  0
    6.9210    5.3967    3.5596 O   0  0  0  0  0  0  0  0  0  0  0  0
   12.6104    7.3778    5.3035 C   0  0  2  0  0  0  0  0  0  0  0  0
   12.1500    8.6251    4.6358 N   0  0  0  0  0  0  0  0  0  0  0  0
    9.5358    0.7978    5.2812 C   0  0  2  0  0  0  0  0  0  0  0  0
    9.9284   -0.3056    6.1582 O   0  0  0  0  0  0  0  0  0  0  0  0
    8.1256   -3.4030    7.6922 C   0  0  1  0  0  0  0  0  0  0  0  0
    7.2035   -2.7643    8.6036 O   0  0  0  0  0  0  0  0  0  0  0  0
    8.3746    5.3840    1.5773 C   0  0  2  0  0  0  0  0  0  0  0  0
    7.7823    4.1874    1.1281 O   0  0  0  0  0  0  0  0  0  0  0  0
   11.4737    6.2834    5.2241 C   0  0  2  0  0  0  0  0  0  0  0  0
   10.6406    1.1186    4.2605 C   0  0  2  0  0  0  0  0  0  0  0  0
   11.4212    2.1048    4.9317 O   0  0  0  0  0  0  0  0  0  0  0  0
    7.3557   -3.8067    6.3462 C   0  0  2  0  0  0  0  0  0  0  0  0
    8.2242   -4.6484    5.5888 O   0  0  0  0  0  0  0  0  0  0  0  0
    9.8808    5.4475    1.1566 C   0  0  2  0  0  0  0  0  0  0  0  0
   10.4751    6.6929    1.6422 O   0  0  0  0  0  0  0  0  0  0  0  0
   11.8694    4.9581    5.9114 C   0  0  2  0  0  0  0  0  0  0  0  0
   10.6608    4.1495    5.9061 O   0  0  0  0  0  0  0  0  0  0  0  0
   10.1314    1.6473    2.8838 C   0  0  0  0  0  0  0  0  0  0  0  0
    9.3563    0.6350    2.2486 O   0  0  0  0  0  0  0  0  0  0  0  0
    6.9792   -2.5226    5.5147 C   0  0  1  0  0  0  0  0  0  0  0  0
    8.2454   -1.8134    5.2612 O   0  0  0  0  0  0  0  0  0  0  0  0
   10.0705    5.3638   -0.3403 C   0  0  0  0  0  0  0  0  0  0  0  0
    9.6583    4.1039   -0.8116 O   0  0  0  0  0  0  0  0  0  0  0  0
   12.3552    5.2333    7.3959 C   0  0  1  0  0  0  0  0  0  0  0  0
   12.8631    4.0305    7.9799 O   0  0  0  0  0  0  0  0  0  0  0  0
    6.2392   -2.8338    4.1420 C   0  0  0  0  0  0  0  0  0  0  0  0
    7.0500   -3.5589    3.1254 N   0  0  0  0  0  0  0  0  0  0  0  0
  1  2  1  1  0  0  0
  1  7  1  0  0  0  0
  1 30  1  0  0  0  0
  3  4  1  1  0  0  0
  3  9  1  0  0  0  0
  3 39  1  0  0  0  0
  5 10  1  0  0  0  0
  5 26  1  0  0  0  0
  5 32  1  6  0  0  0
  6 12  1  0  0  0  0
  6 36  1  0  0  0  0
  6 19  1  6  0  0  0
  7  8  1  1  0  0  0
  7 14  1  0  0  0  0
  9 16  1  0  0  0  0
 10 11  1  1  0  0  0
 10 18  1  0  0  0  0
 12 13  1  6  0  0  0
 12 20  1  0  0  0  0
 14 15  1  6  0  0  0
 14 22  1  0  0  0  0
 16 17  1  1  0  0  0
 16 24  1  0  0  0  0
 18 19  1  1  0  0  0
 18 25  1  0  0  0  0
 20 21  1  1  0  0  0
 20 27  1  0  0  0  0
 22 23  1  1  0  0  0
 22 29  1  0  0  0  0
 24  2  1  6  0  0  0
 24 31  1  0  0  0  0
 25 26  1  0  0  0  0
 25 33  1  6  0  0  0
 27 28  1  6  0  0  0
 27 35  1  0  0  0  0
 29 30  1  0  0  0  0
 29 37  1  6  0  0  0
 31 32  1  1  0  0  0
 31 39  1  0  0  0  0
 33 34  1  0  0  0  0
 35 36  1  0  0  0  0
 35 41  1  6  0  0  0
 37 38  1  0  0  0  0
 39 40  1  6  0  0  0
 41 42  1  0  0  0  0
M  END
>  <CHROM.1>
-73.73111211,-76.88718277,100.55001804,179.29121778,-63.45089692,-65.38883489
158.76081225,177.39634062,-65.44510158,9.81577374,2.59981688,4.84060077,0.99589972
-0.98853822,-0.68561446

>  <Name>
ligand

>  <RI>
0

>  <Rbt.Current_Directory>
/home/itssahil/PROJECTS/Mol_Feturizer/Test_systems_manuscript/rnas/2o3w

>  <Rbt.Executable>
rbdock ($Id: //depot/dev/client3/rdock/2013.1/src/exe/rbdock.cxx#4 $)

>  <Rbt.Library>
libRbt.so (2013.1, Build901 2013/11/27)

>  <Rbt.Parameter_File>
/export/apps/rDock/src/rDock_2013.1_src/data/scripts/dock_solv.prm

>  <Rbt.Receptor>
prm/pocket_docking_7.prm

>  <SCORE>
-11.7248

>  <SCORE.INTER>
-4.3166

>  <SCORE.INTER.CONST>
1

>  <SCORE.INTER.POLAR>
0

>  <SCORE.INTER.ROT>
9

>  <SCORE.INTER.SOLV>
14.6172

>  <SCORE.INTER.VDW>
-17.3501

>  <SCORE.INTER.norm>
-0.102776

>  <SCORE.INTRA>
-7.40821

>  <SCORE.INTRA.DIHEDRAL>
-17.7885

>  <SCORE.INTRA.DIHEDRAL.0>
27.8999

>  <SCORE.INTRA.POLAR>
0

>  <SCORE.INTRA.POLAR.0>
0

>  <SCORE.INTRA.REPUL>
0

>  <SCORE.INTRA.REPUL.0>
0

>  <SCORE.INTRA.SOLV>
-0.4104

>  <SCORE.INTRA.SOLV.lig_0>
-104.479

>  <SCORE.INTRA.VDW>
1.69123

>  <SCORE.INTRA.VDW.0>
-6.17816

>  <SCORE.INTRA.norm>
-0.176386

>  <SCORE.RESTR>
0

>  <SCORE.RESTR.CAVITY>
0

>  <SCORE.RESTR.norm>
0

>  <SCORE.SYSTEM>
0

>  <SCORE.SYSTEM.CONST>
0

>  <SCORE.SYSTEM.DIHEDRAL>
0

>  <SCORE.SYSTEM.SOLV>
0

>  <SCORE.SYSTEM.norm>
0

>  <SCORE.heavy>
42

>  <SCORE.norm>
-0.279162

>  <RMSD>
8.872

$$$$
ligand
 OpenBabel02271912133D
libRbt.so/2013.1/901 2013/11/27
 42 45  0  0  0  0  0  0  0  0999 V2000
    3.6144    2.0521   -0.7285 C   0  0  2  0  0  0  0  0  0  0  0  0
    2.3466    1.5578   -1.1928 O   0  0  0  0  0  0  0  0  0  0  0  0
   -0.1492    2.7714   -4.5236 C   0  0  2  0  0  0  0  0  0  0  0  0
   -0.9881    3.5795   -5.4582 N   0  0  0  0  0  0  0  0  0  0  0  0
    3.3658    4.8047   -2.8761 C   0  0  1  0  0  0  0  0  0  0  0  0
    4.3519    9.0939   -2.7337 C   0  0  1  0  0  0  0  0  0  0  0  0
    4.3406    0.8611   -0.0342 C   0  0  2  0  0  0  0  0  0  0  0  0
    4.3534   -0.3542   -0.8670 N   0  0  0  0  0  0  0  0  0  0  0  0
   -0.8299    2.6490   -3.1012 C   0  0  0  0  0  0  0  0  0  0  0  0
    4.6890    5.3480   -2.2559 C   0  0  2  0  0  0  0  0  0  0  0  0
    4.6809    5.4063   -0.8083 O   0  0  0  0  0  0  0  0  0  0  0  0
    5.6661    9.8004   -2.2413 C   0  0  2  0  0  0  0  0  0  0  0  0
    5.7341    9.8205   -0.7494 N   0  0  0  0  0  0  0  0  0  0  0  0
    3.6836    0.4762    1.3041 C   0  0  1  0  0  0  0  0  0  0  0  0
    4.4040   -0.5909    1.9231 O   0  0  0  0  0  0  0  0  0  0  0  0
    0.0881    1.7699   -2.1700 C   0  0  2  0  0  0  0  0  0  0  0  0
   -0.5303    1.6216   -0.8249 N   0  0  0  0  0  0  0  0  0  0  0  0
    4.8226    6.6928   -2.9721 C   0  0  2  0  0  0  0  0  0  0  0  0
    4.1627    7.7663   -2.2285 O   0  0  0  0  0  0  0  0  0  0  0  0
    5.7243   11.2853   -2.8401 C   0  0  1  0  0  0  0  0  0  0  0  0
    6.0376   11.2090   -4.2490 O   0  0  0  0  0  0  0  0  0  0  0  0
    3.6162    1.7184    2.2215 C   0  0  2  0  0  0  0  0  0  0  0  0
    3.0322    1.3788    3.4576 O   0  0  0  0  0  0  0  0  0  0  0  0
    1.5207    2.4202   -2.0261 C   0  0  2  0  0  0  0  0  0  0  0  0
    4.1841    6.5008   -4.3581 C   0  0  2  0  0  0  0  0  0  0  0  0
    3.1709    5.5283   -4.1129 O   0  0  0  0  0  0  0  0  0  0  0  0
    4.3542   12.0914   -2.6386 C   0  0  2  0  0  0  0  0  0  0  0  0
    4.2142   12.3616   -1.2444 O   0  0  0  0  0  0  0  0  0  0  0  0
    2.7867    2.8366    1.5066 C   0  0  2  0  0  0  0  0  0  0  0  0
    3.4069    3.1645    0.2230 O   0  0  0  0  0  0  0  0  0  0  0  0
    2.2255    2.6232   -3.3852 C   0  0  2  0  0  0  0  0  0  0  0  0
    3.4251    3.3874   -3.0830 O   0  0  0  0  0  0  0  0  0  0  0  0
    5.1640    6.0214   -5.4735 C   0  0  0  0  0  0  0  0  0  0  0  0
    6.2000    6.9854   -5.6357 O   0  0  0  0  0  0  0  0  0  0  0  0
    3.1301   11.2449   -3.1556 C   0  0  1  0  0  0  0  0  0  0  0  0
    3.1651    9.9761   -2.4078 O   0  0  0  0  0  0  0  0  0  0  0  0
    2.6747    4.0963    2.3339 C   0  0  0  0  0  0  0  0  0  0  0  0
    1.9840    5.0888    1.6148 O   0  0  0  0  0  0  0  0  0  0  0  0
    1.2834    3.4249   -4.3779 C   0  0  1  0  0  0  0  0  0  0  0  0
    1.8723    3.4808   -5.6800 O   0  0  0  0  0  0  0  0  0  0  0  0
    1.7220   11.9580   -2.9625 C   0  0  0  0  0  0  0  0  0  0  0  0
    0.5507   11.2286   -3.5217 N   0  0  0  0  0  0  0  0  0  0  0  0
  1  2  1  1  0  0  0
  1  7  1  0  0  0  0
  1 30  1  0  0  0  0
  3  4  1  6  0  0  0
  3  9  1  0  0  0  0
  3 39  1  0  0  0  0
  5 10  1  0  0  0  0
  5 26  1  0  0  0  0
  5 32  1  6  0  0  0
  6 12  1  0  0  0  0
  6 36  1  0  0  0  0
  6 19  1  1  0  0  0
  7  8  1  6  0  0  0
  7 14  1  0  0  0  0
  9 16  1  0  0  0  0
 10 11  1  1  0  0  0
 10 18  1  0  0  0  0
 12 13  1  1  0  0  0
 12 20  1  0  0  0  0
 14 15  1  1  0  0  0
 14 22  1  0  0  0  0
 16 17  1  1  0  0  0
 16 24  1  0  0  0  0
 18 19  1  1  0  0  0
 18 25  1  0  0  0  0
 20 21  1  6  0  0  0
 20 27  1  0  0  0  0
 22 23  1  1  0  0  0
 22 29  1  0  0  0  0
 24  2  1  1  0  0  0
 24 31  1  0  0  0  0
 25 26  1  0  0  0  0
 25 33  1  6  0  0  0
 27 28  1  1  0  0  0
 27 35  1  0  0  0  0
 29 30  1  0  0  0  0
 29 37  1  1  0  0  0
 31 32  1  1  0  0  0
 31 39  1  0  0  0  0
 33 34  1  0  0  0  0
 35 36  1  0  0  0  0
 35 41  1  1  0  0  0
 37 38  1  0  0  0  0
 39 40  1  6  0  0  0
 41 42  1  0  0  0  0
M  END
>  <CHROM.1>
-172.67252840,-169.28948123,173.35826275,-84.95625123,-60.36929341,176.80113918
-79.45230704,167.05304761,176.06288639,3.19315698,5.37270161,-1.94523794
-1.92473101,-1.03942681,-0.61566119

>  <Name>
ligand

>  <RI>
0

>  <Rbt.Current_Directory>
/home/itssahil/PROJECTS/Mol_Feturizer/Test_systems_manuscript/rnas/2o3w

>  <Rbt.Executable>
rbdock ($Id: //depot/dev/client3/rdock/2013.1/src/exe/rbdock.cxx#4 $)

>  <Rbt.Library>
libRbt.so (2013.1, Build901 2013/11/27)

>  <Rbt.Parameter_File>
/export/apps/rDock/src/rDock_2013.1_src/data/scripts/dock_solv.prm

>  <Rbt.Receptor>
prm/pocket_docking_8.prm

>  <SCORE>
-11.9085

>  <SCORE.INTER>
-0.735017

>  <SCORE.INTER.CONST>
1

>  <SCORE.INTER.POLAR>
0

>  <SCORE.INTER.ROT>
9

>  <SCORE.INTER.SOLV>
13.1269

>  <SCORE.INTER.VDW>
-14.4657

>  <SCORE.INTER.norm>
-0.0175004

>  <SCORE.INTRA>
-11.1735

>  <SCORE.INTRA.DIHEDRAL>
-21.5124

>  <SCORE.INTRA.DIHEDRAL.0>
27.8999

>  <SCORE.INTRA.POLAR>
0

>  <SCORE.INTRA.POLAR.0>
0

>  <SCORE.INTRA.REPUL>
0

>  <SCORE.INTRA.REPUL.0>
0

>  <SCORE.INTRA.SOLV>
-5.34207

>  <SCORE.INTRA.SOLV.lig_0>
-104.479

>  <SCORE.INTRA.VDW>
2.25374

>  <SCORE.INTRA.VDW.0>
-6.17816

>  <SCORE.INTRA.norm>
-0.266036

>  <SCORE.RESTR>
0

>  <SCORE.RESTR.CAVITY>
0

>  <SCORE.RESTR.norm>
0

>  <SCORE.SYSTEM>
0

>  <SCORE.SYSTEM.CONST>
0

>  <SCORE.SYSTEM.DIHEDRAL>
0

>  <SCORE.SYSTEM.SOLV>
0

>  <SCORE.SYSTEM.norm>
0

>  <SCORE.heavy>
42

>  <SCORE.norm>
-0.283536

>  <RMSD>
8.873

$$$$
ligand
 OpenBabel02271912133D
libRbt.so/2013.1/901 2013/11/27
 42 45  0  0  0  0  0  0  0  0999 V2000
    1.3379    2.4657    0.4274 C   0  0  2  0  0  0  0  0  0  0  0  0
    0.9515    3.6190    1.1943 O   0  0  0  0  0  0  0  0  0  0  0  0
   -1.5331    5.6058   -1.7511 C   0  0  2  0  0  0  0  0  0  0  0  0
   -2.5371    6.4994   -2.4022 N   0  0  0  0  0  0  0  0  0  0  0  0
    2.8311    6.3178    0.7068 C   0  0  1  0  0  0  0  0  0  0  0  0
    6.9729    6.2207    1.7830 C   0  0  1  0  0  0  0  0  0  0  0  0
    2.3456    1.6569    1.2984 C   0  0  2  0  0  0  0  0  0  0  0  0
    1.8484    1.4235    2.6655 N   0  0  0  0  0  0  0  0  0  0  0  0
   -2.2305    4.5721   -0.7779 C   0  0  0  0  0  0  0  0  0  0  0  0
    3.4603    7.5803    1.3709 C   0  0  2  0  0  0  0  0  0  0  0  0
    3.7780    8.6411    0.4367 O   0  0  0  0  0  0  0  0  0  0  0  0
    7.6649    6.8847    3.0276 C   0  0  2  0  0  0  0  0  0  0  0  0
    8.0761    8.2881    2.7237 N   0  0  0  0  0  0  0  0  0  0  0  0
    3.7036    2.3698    1.4347 C   0  0  1  0  0  0  0  0  0  0  0  0
    4.6069    1.5760    2.2059 O   0  0  0  0  0  0  0  0  0  0  0  0
   -1.1263    3.6461   -0.1410 C   0  0  2  0  0  0  0  0  0  0  0  0
   -1.7498    2.6497    0.7712 N   0  0  0  0  0  0  0  0  0  0  0  0
    4.6526    6.9662    2.1061 C   0  0  2  0  0  0  0  0  0  0  0  0
    5.8505    6.9466    1.2662 O   0  0  0  0  0  0  0  0  0  0  0  0
    8.9249    5.9982    3.4675 C   0  0  1  0  0  0  0  0  0  0  0  0
    8.4478    4.7926    4.1060 O   0  0  0  0  0  0  0  0  0  0  0  0
    4.2730    2.6676    0.0289 C   0  0  2  0  0  0  0  0  0  0  0  0
    5.5244    3.3054    0.1363 O   0  0  0  0  0  0  0  0  0  0  0  0
   -0.0697    4.5074    0.6575 C   0  0  2  0  0  0  0  0  0  0  0  0
    4.2227    5.5422    2.4969 C   0  0  2  0  0  0  0  0  0  0  0  0
    3.3230    5.1803    1.4519 O   0  0  0  0  0  0  0  0  0  0  0  0
    9.8745    5.6127    2.2358 C   0  0  2  0  0  0  0  0  0  0  0  0
   10.5182    6.8084    1.7972 O   0  0  0  0  0  0  0  0  0  0  0  0
    3.2587    3.5677   -0.7526 C   0  0  2  0  0  0  0  0  0  0  0  0
    1.9661    2.8887   -0.8423 O   0  0  0  0  0  0  0  0  0  0  0  0
    0.6136    5.5800   -0.2189 C   0  0  2  0  0  0  0  0  0  0  0  0
    1.3991    6.3836    0.7040 O   0  0  0  0  0  0  0  0  0  0  0  0
    3.5382    5.4213    3.8937 C   0  0  0  0  0  0  0  0  0  0  0  0
    2.3869    6.2593    3.9275 O   0  0  0  0  0  0  0  0  0  0  0  0
    9.0336    4.9837    1.0612 C   0  0  1  0  0  0  0  0  0  0  0  0
    8.0124    5.9848    0.7075 O   0  0  0  0  0  0  0  0  0  0  0  0
    3.7344    3.9043   -2.1469 C   0  0  0  0  0  0  0  0  0  0  0  0
    2.7955    4.7285   -2.7938 O   0  0  0  0  0  0  0  0  0  0  0  0
   -0.4780    6.4688   -0.9496 C   0  0  1  0  0  0  0  0  0  0  0  0
    0.1504    7.3601   -1.8751 O   0  0  0  0  0  0  0  0  0  0  0  0
    9.8951    4.6012   -0.2194 C   0  0  0  0  0  0  0  0  0  0  0  0
    9.1184    4.1277   -1.3980 N   0  0  0  0  0  0  0  0  0  0  0  0
  1  2  1  1  0  0  0
  1  7  1  0  0  0  0
  1 30  1  0  0  0  0
  3  4  1  1  0  0  0
  3  9  1  0  0  0  0
  3 39  1  0  0  0  0
  5 10  1  0  0  0  0
  5 26  1  0  0  0  0
  5 32  1  1  0  0  0
  6 12  1  0  0  0  0
  6 36  1  0  0  0  0
  6 19  1  6  0  0  0
  7  8  1  1  0  0  0
  7 14  1  0  0  0  0
  9 16  1  0  0  0  0
 10 11  1  6  0  0  0
 10 18  1  0  0  0  0
 12 13  1  6  0  0  0
 12 20  1  0  0  0  0
 14 15  1  1  0  0  0
 14 22  1  0  0  0  0
 16 17  1  1  0  0  0
 16 24  1  0  0  0  0
 18 19  1  6  0  0  0
 18 25  1  0  0  0  0
 20 21  1  6  0  0  0
 20 27  1  0  0  0  0
 22 23  1  1  0  0  0
 22 29  1  0  0  0  0
 24  2  1  6  0  0  0
 24 31  1  0  0  0  0
 25 26  1  0  0  0  0
 25 33  1  1  0  0  0
 27 28  1  6  0  0  0
 27 35  1  0  0  0  0
 29 30  1  0  0  0  0
 29 37  1  6  0  0  0
 31 32  1  1  0  0  0
 31 39  1  0  0  0  0
 33 34  1  0  0  0  0
 35 36  1  0  0  0  0
 35 41  1  6  0  0  0
 37 38  1  0  0  0  0
 39 40  1  6  0  0  0
 41 42  1  0  0  0  0
M  END
>  <CHROM.1>
-175.43658236,34.66241398,-171.34054461,-69.67176029,58.11662573,-179.15095578
109.32551203,159.51440414,-174.30020166,3.81994345,5.02962777,0.80407357
-3.03218625,-0.26402520,-0.06904091

>  <Name>
ligand

>  <RI>
0

>  <Rbt.Current_Directory>
/home/itssahil/PROJECTS/Mol_Feturizer/Test_systems_manuscript/rnas/2o3w

>  <Rbt.Executable>
rbdock ($Id: //depot/dev/client3/rdock/2013.1/src/exe/rbdock.cxx#4 $)

>  <Rbt.Library>
libRbt.so (2013.1, Build901 2013/11/27)

>  <Rbt.Parameter_File>
/export/apps/rDock/src/rDock_2013.1_src/data/scripts/dock_solv.prm

>  <Rbt.Receptor>
prm/pocket_docking_8.prm

>  <SCORE>
-6.91819

>  <SCORE.INTER>
1.72114

>  <SCORE.INTER.CONST>
1

>  <SCORE.INTER.POLAR>
0

>  <SCORE.INTER.ROT>
9

>  <SCORE.INTER.SOLV>
13.7191

>  <SCORE.INTER.VDW>
-13.0256

>  <SCORE.INTER.norm>
0.0409795

>  <SCORE.INTRA>
-8.63933

>  <SCORE.INTRA.DIHEDRAL>
-15.475

>  <SCORE.INTRA.DIHEDRAL.0>
27.8999

>  <SCORE.INTRA.POLAR>
0

>  <SCORE.INTRA.POLAR.0>
0

>  <SCORE.INTRA.REPUL>
0.0506963

>  <SCORE.INTRA.REPUL.0>
0

>  <SCORE.INTRA.SOLV>
-2.04465

>  <SCORE.INTRA.SOLV.lig_0>
-104.479

>  <SCORE.INTRA.VDW>
-0.133001

>  <SCORE.INTRA.VDW.0>
-6.17816

>  <SCORE.INTRA.norm>
-0.205698

>  <SCORE.RESTR>
0

>  <SCORE.RESTR.CAVITY>
0

>  <SCORE.RESTR.norm>
0

>  <SCORE.SYSTEM>
0

>  <SCORE.SYSTEM.CONST>
0

>  <SCORE.SYSTEM.DIHEDRAL>
0

>  <SCORE.SYSTEM.SOLV>
0

>  <SCORE.SYSTEM.norm>
0

>  <SCORE.heavy>
42

>  <SCORE.norm>
-0.164719

>  <RMSD>
8.877

$$$$
ligand
 OpenBabel02271912133D
libRbt.so/2013.1/901 2013/11/27
 42 45  0  0  0  0  0  0  0  0999 V2000
    6.6283    4.9858    0.7183 C   0  0  2  0  0  0  0  0  0  0  0  0
    6.2432    6.3666    0.6064 O   0  0  0  0  0  0  0  0  0  0  0  0
    2.6506    8.5401    1.6860 C   0  0  2  0  0  0  0  0  0  0  0  0
    1.2240    8.9583    1.8280 N   0  0  0  0  0  0  0  0  0  0  0  0
    5.3866    4.6323    3.3466 C   0  0  1  0  0  0  0  0  0  0  0  0
    7.6162    2.3887    6.0673 C   0  0  1  0  0  0  0  0  0  0  0  0
    8.1697    4.9241    0.4985 C   0  0  2  0  0  0  0  0  0  0  0  0
    8.8974    5.8979    1.3308 N   0  0  0  0  0  0  0  0  0  0  0  0
    3.1172    8.5949    0.1756 C   0  0  0  0  0  0  0  0  0  0  0  0
    4.7895    4.5218    4.7826 C   0  0  2  0  0  0  0  0  0  0  0  0
    5.0101    5.6944    5.6043 O   0  0  0  0  0  0  0  0  0  0  0  0
    8.6516    2.5067    7.2432 C   0  0  2  0  0  0  0  0  0  0  0  0
    9.4376    3.7724    7.1369 N   0  0  0  0  0  0  0  0  0  0  0  0
    8.5632    5.2064   -0.9632 C   0  0  1  0  0  0  0  0  0  0  0  0
    9.9785    5.1004   -1.1266 O   0  0  0  0  0  0  0  0  0  0  0  0
    4.6311    8.1662    0.0933 C   0  0  2  0  0  0  0  0  0  0  0  0
    5.1084    8.2204   -1.3148 N   0  0  0  0  0  0  0  0  0  0  0  0
    5.4459    3.2325    5.2787 C   0  0  2  0  0  0  0  0  0  0  0  0
    6.7192    3.5000    5.9479 O   0  0  0  0  0  0  0  0  0  0  0  0
    9.6160    1.2274    7.2289 C   0  0  1  0  0  0  0  0  0  0  0  0
    8.8781    0.0807    7.7079 O   0  0  0  0  0  0  0  0  0  0  0  0
    7.8125    4.2300   -1.8971 C   0  0  2  0  0  0  0  0  0  0  0  0
    8.1747    4.4644   -3.2381 O   0  0  0  0  0  0  0  0  0  0  0  0
    4.8284    6.7064    0.6641 C   0  0  2  0  0  0  0  0  0  0  0  0
    5.6449    2.3513    4.0340 C   0  0  2  0  0  0  0  0  0  0  0  0
    5.8400    3.3055    2.9929 O   0  0  0  0  0  0  0  0  0  0  0  0
   10.2104    0.9129    5.7745 C   0  0  2  0  0  0  0  0  0  0  0  0
   11.1298    1.9549    5.4501 O   0  0  0  0  0  0  0  0  0  0  0  0
    6.2713    4.4178   -1.6995 C   0  0  2  0  0  0  0  0  0  0  0  0
    5.9221    4.1787   -0.2993 O   0  0  0  0  0  0  0  0  0  0  0  0
    4.3406    6.5626    2.1224 C   0  0  2  0  0  0  0  0  0  0  0  0
    4.4233    5.1405    2.4144 O   0  0  0  0  0  0  0  0  0  0  0  0
    4.4545    1.3977    3.7055 C   0  0  0  0  0  0  0  0  0  0  0  0
    3.3562    2.1655    3.2225 O   0  0  0  0  0  0  0  0  0  0  0  0
    9.0564    0.8511    4.7038 C   0  0  1  0  0  0  0  0  0  0  0  0
    8.3643    2.1498    4.7726 O   0  0  0  0  0  0  0  0  0  0  0  0
    5.4561    3.4932   -2.5737 C   0  0  0  0  0  0  0  0  0  0  0  0
    5.6584    2.1559   -2.1863 O   0  0  0  0  0  0  0  0  0  0  0  0
    2.8463    7.0776    2.2547 C   0  0  1  0  0  0  0  0  0  0  0  0
    2.4471    7.0862    3.6281 O   0  0  0  0  0  0  0  0  0  0  0  0
    9.5622    0.5757    3.2216 C   0  0  0  0  0  0  0  0  0  0  0  0
   10.2388   -0.7329    3.0066 N   0  0  0  0  0  0  0  0  0  0  0  0
  1  2  1  6  0  0  0
  1  7  1  0  0  0  0
  1 30  1  0  0  0  0
  3  4  1  6  0  0  0
  3  9  1  0  0  0  0
  3 39  1  0  0  0  0
  5 10  1  0  0  0  0
  5 26  1  0  0  0  0
  5 32  1  6  0  0  0
  6 12  1  0  0  0  0
  6 36  1  0  0  0  0
  6 19  1  6  0  0  0
  7  8  1  1  0  0  0
  7 14  1  0  0  0  0
  9 16  1  0  0  0  0
 10 11  1  1  0  0  0
 10 18  1  0  0  0  0
 12 13  1  6  0  0  0
 12 20  1  0  0  0  0
 14 15  1  1  0  0  0
 14 22  1  0  0  0  0
 16 17  1  6  0  0  0
 16 24  1  0  0  0  0
 18 19  1  6  0  0  0
 18 25  1  0  0  0  0
 20 21  1  6  0  0  0
 20 27  1  0  0  0  0
 22 23  1  6  0  0  0
 22 29  1  0  0  0  0
 24  2  1  1  0  0  0
 24 31  1  0  0  0  0
 25 26  1  0  0  0  0
 25 33  1  6  0  0  0
 27 28  1  6  0  0  0
 27 35  1  0  0  0  0
 29 30  1  0  0  0  0
 29 37  1  6  0  0  0
 31 32  1  6  0  0  0
 31 39  1  0  0  0  0
 33 34  1  0  0  0  0
 35 36  1  0  0  0  0
 35 41  1  6  0  0  0
 37 38  1  0  0  0  0
 39 40  1  1  0  0  0
 41 42  1  0  0  0  0
M  END
>  <CHROM.1>
175.16831239,-163.05347554,-160.58145127,-156.07555847,71.36534273,65.91854042
111.22798052,93.12291426,62.85277213,6.49959224,4.18888001,2.46952804,-2.23205150
-0.67238373,1.84513639

>  <Name>
ligand

>  <RI>
0

>  <Rbt.Current_Directory>
/home/itssahil/PROJECTS/Mol_Feturizer/Test_systems_manuscript/rnas/2o3w

>  <Rbt.Executable>
rbdock ($Id: //depot/dev/client3/rdock/2013.1/src/exe/rbdock.cxx#4 $)

>  <Rbt.Library>
libRbt.so (2013.1, Build901 2013/11/27)

>  <Rbt.Parameter_File>
/export/apps/rDock/src/rDock_2013.1_src/data/scripts/dock_solv.prm

>  <Rbt.Receptor>
prm/pocket_docking_6.prm

>  <SCORE>
-9.0779

>  <SCORE.INTER>
-4.17943

>  <SCORE.INTER.CONST>
1

>  <SCORE.INTER.POLAR>
0

>  <SCORE.INTER.ROT>
9

>  <SCORE.INTER.SOLV>
18.9756

>  <SCORE.INTER.VDW>
-18.7115

>  <SCORE.INTER.norm>
-0.0995101

>  <SCORE.INTRA>
-4.89847

>  <SCORE.INTRA.DIHEDRAL>
-10.5856

>  <SCORE.INTRA.DIHEDRAL.0>
27.8999

>  <SCORE.INTRA.POLAR>
0

>  <SCORE.INTRA.POLAR.0>
0

>  <SCORE.INTRA.REPUL>
0

>  <SCORE.INTRA.REPUL.0>
0

>  <SCORE.INTRA.SOLV>
-4.30799

>  <SCORE.INTRA.SOLV.lig_0>
-104.479

>  <SCORE.INTRA.VDW>
2.54833

>  <SCORE.INTRA.VDW.0>
-6.17816

>  <SCORE.INTRA.norm>
-0.11663

>  <SCORE.RESTR>
0

>  <SCORE.RESTR.CAVITY>
0

>  <SCORE.RESTR.norm>
0

>  <SCORE.SYSTEM>
0

>  <SCORE.SYSTEM.CONST>
0

>  <SCORE.SYSTEM.DIHEDRAL>
0

>  <SCORE.SYSTEM.SOLV>
0

>  <SCORE.SYSTEM.norm>
0

>  <SCORE.heavy>
42

>  <SCORE.norm>
-0.21614

>  <RMSD>
8.886

$$$$
ligand
 OpenBabel02271912133D
libRbt.so/2013.1/901 2013/11/27
 42 45  0  0  0  0  0  0  0  0999 V2000
    6.5390    6.6730   -1.0193 C   0  0  2  0  0  0  0  0  0  0  0  0
    5.4548    6.0066   -0.3501 O   0  0  0  0  0  0  0  0  0  0  0  0
    6.5349    7.0936    3.7055 C   0  0  2  0  0  0  0  0  0  0  0  0
    6.5695    7.1934    5.1952 N   0  0  0  0  0  0  0  0  0  0  0  0
    5.5903    3.1463    1.9522 C   0  0  1  0  0  0  0  0  0  0  0  0
    3.4430   -0.4108    3.4840 C   0  0  1  0  0  0  0  0  0  0  0  0
    6.2527    6.5851   -2.5485 C   0  0  2  0  0  0  0  0  0  0  0  0
    4.8843    7.0099   -2.8912 N   0  0  0  0  0  0  0  0  0  0  0  0
    5.1857    7.6779    3.1222 C   0  0  0  0  0  0  0  0  0  0  0  0
    5.3473    1.8512    1.1189 C   0  0  2  0  0  0  0  0  0  0  0  0
    4.2553    1.9556    0.1725 O   0  0  0  0  0  0  0  0  0  0  0  0
    3.6740   -1.8279    2.8458 C   0  0  2  0  0  0  0  0  0  0  0  0
    2.9225   -1.9637    1.5621 N   0  0  0  0  0  0  0  0  0  0  0  0
    6.4243    5.1553   -3.0938 C   0  0  1  0  0  0  0  0  0  0  0  0
    6.1915    5.1292   -4.5030 O   0  0  0  0  0  0  0  0  0  0  0  0
    5.2181    7.5657    1.5510 C   0  0  2  0  0  0  0  0  0  0  0  0
    3.9675    8.1207    0.9667 N   0  0  0  0  0  0  0  0  0  0  0  0
    5.1653    0.8140    2.2282 C   0  0  2  0  0  0  0  0  0  0  0  0
    3.7623    0.6903    2.6242 O   0  0  0  0  0  0  0  0  0  0  0  0
    3.2333   -2.9576    3.8929 C   0  0  1  0  0  0  0  0  0  0  0  0
    4.2230   -3.0323    4.9436 O   0  0  0  0  0  0  0  0  0  0  0  0
    7.8382    4.6369   -2.7456 C   0  0  2  0  0  0  0  0  0  0  0  0
    8.0172    3.3349   -3.2527 O   0  0  0  0  0  0  0  0  0  0  0  0
    5.3896    6.0602    1.1036 C   0  0  2  0  0  0  0  0  0  0  0  0
    6.0358    1.2916    3.4027 C   0  0  2  0  0  0  0  0  0  0  0  0
    6.0096    2.7104    3.2657 O   0  0  0  0  0  0  0  0  0  0  0  0
    1.7908   -2.6828    4.5340 C   0  0  2  0  0  0  0  0  0  0  0  0
    0.8196   -2.8669    3.5048 O   0  0  0  0  0  0  0  0  0  0  0  0
    8.0203    4.6550   -1.1912 C   0  0  2  0  0  0  0  0  0  0  0  0
    7.8204    6.0140   -0.6883 O   0  0  0  0  0  0  0  0  0  0  0  0
    6.6617    5.4043    1.6838 C   0  0  2  0  0  0  0  0  0  0  0  0
    6.5615    3.9974    1.3298 O   0  0  0  0  0  0  0  0  0  0  0  0
    7.5006    0.7541    3.3975 C   0  0  0  0  0  0  0  0  0  0  0  0
    8.1832    1.2601    2.2543 O   0  0  0  0  0  0  0  0  0  0  0  0
    1.7071   -1.2175    5.1069 C   0  0  1  0  0  0  0  0  0  0  0  0
    2.0153   -0.3195    3.9804 O   0  0  0  0  0  0  0  0  0  0  0  0
    9.3840    4.1673   -0.7598 C   0  0  0  0  0  0  0  0  0  0  0  0
    9.4685    4.1434    0.6444 O   0  0  0  0  0  0  0  0  0  0  0  0
    6.7035    5.5861    3.2589 C   0  0  1  0  0  0  0  0  0  0  0  0
    7.9501    5.1140    3.7772 O   0  0  0  0  0  0  0  0  0  0  0  0
    0.2936   -0.8471    5.7341 C   0  0  0  0  0  0  0  0  0  0  0  0
   -0.1383   -1.6871    6.8850 N   0  0  0  0  0  0  0  0  0  0  0  0
  1  2  1  1  0  0  0
  1  7  1  0  0  0  0
  1 30  1  0  0  0  0
  3  4  1  1  0  0  0
  3  9  1  0  0  0  0
  3 39  1  0  0  0  0
  5 10  1  0  0  0  0
  5 26  1  0  0  0  0
  5 32  1  6  0  0  0
  6 12  1  0  0  0  0
  6 36  1  0  0  0  0
  6 19  1  6  0  0  0
  7  8  1  1  0  0  0
  7 14  1  0  0  0  0
  9 16  1  0  0  0  0
 10 11  1  1  0  0  0
 10 18  1  0  0  0  0
 12 13  1  6  0  0  0
 12 20  1  0  0  0  0
 14 15  1  6  0  0  0
 14 22  1  0  0  0  0
 16 17  1  6  0  0  0
 16 24  1  0  0  0  0
 18 19  1  1  0  0  0
 18 25  1  0  0  0  0
 20 21  1  1  0  0  0
 20 27  1  0  0  0  0
 22 23  1  1  0  0  0
 22 29  1  0  0  0  0
 24  2  1  6  0  0  0
 24 31  1  0  0  0  0
 25 26  1  0  0  0  0
 25 33  1  6  0  0  0
 27 28  1  6  0  0  0
 27 35  1  0  0  0  0
 29 30  1  0  0  0  0
 29 37  1  6  0  0  0
 31 32  1  1  0  0  0
 31 39  1  0  0  0  0
 33 34  1  0  0  0  0
 35 36  1  0  0  0  0
 35 41  1  6  0  0  0
 37 38  1  0  0  0  0
 39 40  1  6  0  0  0
 41 42  1  0  0  0  0
M  END
>  <CHROM.1>
-173.53161013,62.48546728,169.45154510,-63.94792786,64.33109117,-177.15181553
-70.34535197,161.37793765,60.64071281,5.32674253,2.87892700,1.65633375,-0.17827347
-1.10477763,-2.35637666

>  <Name>
ligand

>  <RI>
0

>  <Rbt.Current_Directory>
/home/itssahil/PROJECTS/Mol_Feturizer/Test_systems_manuscript/rnas/2o3w

>  <Rbt.Executable>
rbdock ($Id: //depot/dev/client3/rdock/2013.1/src/exe/rbdock.cxx#4 $)

>  <Rbt.Library>
libRbt.so (2013.1, Build901 2013/11/27)

>  <Rbt.Parameter_File>
/export/apps/rDock/src/rDock_2013.1_src/data/scripts/dock_solv.prm

>  <Rbt.Receptor>
prm/pocket_docking_7.prm

>  <SCORE>
-13.4999

>  <SCORE.INTER>
-1.30699

>  <SCORE.INTER.CONST>
1

>  <SCORE.INTER.POLAR>
0

>  <SCORE.INTER.ROT>
9

>  <SCORE.INTER.SOLV>
10.3567

>  <SCORE.INTER.VDW>
-13.9235

>  <SCORE.INTER.norm>
-0.0311187

>  <SCORE.INTRA>
-12.1929

>  <SCORE.INTRA.DIHEDRAL>
-24.7175

>  <SCORE.INTRA.DIHEDRAL.0>
27.8999

>  <SCORE.INTRA.POLAR>
0

>  <SCORE.INTRA.POLAR.0>
0

>  <SCORE.INTRA.REPUL>
0

>  <SCORE.INTRA.REPUL.0>
0

>  <SCORE.INTRA.SOLV>
-3.32149

>  <SCORE.INTRA.SOLV.lig_0>
-104.479

>  <SCORE.INTRA.VDW>
1.82658

>  <SCORE.INTRA.VDW.0>
-6.17816

>  <SCORE.INTRA.norm>
-0.290307

>  <SCORE.RESTR>
0

>  <SCORE.RESTR.CAVITY>
0

>  <SCORE.RESTR.norm>
0

>  <SCORE.SYSTEM>
0

>  <SCORE.SYSTEM.CONST>
0

>  <SCORE.SYSTEM.DIHEDRAL>
0

>  <SCORE.SYSTEM.SOLV>
0

>  <SCORE.SYSTEM.norm>
0

>  <SCORE.heavy>
42

>  <SCORE.norm>
-0.321426

>  <RMSD>
8.888

$$$$
ligand
 OpenBabel02271912133D
libRbt.so/2013.1/901 2013/11/27
 42 45  0  0  0  0  0  0  0  0999 V2000
    4.7639    5.8843    3.2589 C   0  0  2  0  0  0  0  0  0  0  0  0
    5.8679    5.7225    2.3521 O   0  0  0  0  0  0  0  0  0  0  0  0
    9.9347    7.1619    2.7823 C   0  0  2  0  0  0  0  0  0  0  0  0
   11.3499    7.3286    3.2293 N   0  0  0  0  0  0  0  0  0  0  0  0
    8.3872    3.0366    2.4572 C   0  0  1  0  0  0  0  0  0  0  0  0
    8.3024   -0.1402    5.5469 C   0  0  1  0  0  0  0  0  0  0  0  0
    3.8144    4.6681    3.0415 C   0  0  2  0  0  0  0  0  0  0  0  0
    4.5308    3.3810    3.0723 N   0  0  0  0  0  0  0  0  0  0  0  0
    8.9220    7.4564    3.9611 C   0  0  0  0  0  0  0  0  0  0  0  0
    7.5026    3.0885    3.7400 C   0  0  2  0  0  0  0  0  0  0  0  0
    8.0386    3.9282    4.7920 O   0  0  0  0  0  0  0  0  0  0  0  0
    9.3829   -0.5067    6.6273 C   0  0  2  0  0  0  0  0  0  0  0  0
   10.7621   -0.3660    6.0715 N   0  0  0  0  0  0  0  0  0  0  0  0
    3.0786    4.7354    1.6905 C   0  0  1  0  0  0  0  0  0  0  0  0
    2.1917    3.6241    1.5513 O   0  0  0  0  0  0  0  0  0  0  0  0
    7.4505    7.2869    3.4240 C   0  0  2  0  0  0  0  0  0  0  0  0
    6.4690    7.5712    4.5054 N   0  0  0  0  0  0  0  0  0  0  0  0
    7.3807    1.6016    4.0770 C   0  0  2  0  0  0  0  0  0  0  0  0
    8.4544    1.1622    4.9686 O   0  0  0  0  0  0  0  0  0  0  0  0
    9.1226   -1.9985    7.1504 C   0  0  1  0  0  0  0  0  0  0  0  0
    7.9572   -1.9971    8.0053 O   0  0  0  0  0  0  0  0  0  0  0  0
    2.3218    6.0787    1.5820 C   0  0  2  0  0  0  0  0  0  0  0  0
    1.6290    6.1488    0.3574 O   0  0  0  0  0  0  0  0  0  0  0  0
    7.2237    5.8235    2.8736 C   0  0  2  0  0  0  0  0  0  0  0  0
    7.4325    0.8560    2.7328 C   0  0  2  0  0  0  0  0  0  0  0  0
    8.2612    1.6953    1.9320 O   0  0  0  0  0  0  0  0  0  0  0  0
    8.9113   -3.0478    5.9580 C   0  0  2  0  0  0  0  0  0  0  0  0
   10.1647   -3.2033    5.2937 O   0  0  0  0  0  0  0  0  0  0  0  0
    3.3477    7.2542    1.7052 C   0  0  2  0  0  0  0  0  0  0  0  0
    4.0600    7.1539    2.9789 O   0  0  0  0  0  0  0  0  0  0  0  0
    8.2176    5.4440    1.7541 C   0  0  2  0  0  0  0  0  0  0  0  0
    7.9890    4.0300    1.5034 O   0  0  0  0  0  0  0  0  0  0  0  0
    6.0465    0.6243    2.0549 C   0  0  0  0  0  0  0  0  0  0  0  0
    5.2134   -0.1273    2.9324 O   0  0  0  0  0  0  0  0  0  0  0  0
    7.8194   -2.5288    4.9478 C   0  0  1  0  0  0  0  0  0  0  0  0
    8.2883   -1.2133    4.4787 O   0  0  0  0  0  0  0  0  0  0  0  0
    2.6900    8.6118    1.6159 C   0  0  0  0  0  0  0  0  0  0  0  0
    2.1612    8.8106    0.3274 O   0  0  0  0  0  0  0  0  0  0  0  0
    9.7081    5.6960    2.2346 C   0  0  1  0  0  0  0  0  0  0  0  0
   10.6176    5.4895    1.1503 O   0  0  0  0  0  0  0  0  0  0  0  0
    7.5695   -3.4963    3.7109 C   0  0  0  0  0  0  0  0  0  0  0  0
    6.9134   -4.7935    4.0325 N   0  0  0  0  0  0  0  0  0  0  0  0
  1  2  1  6  0  0  0
  1  7  1  0  0  0  0
  1 30  1  0  0  0  0
  3  4  1  1  0  0  0
  3  9  1  0  0  0  0
  3 39  1  0  0  0  0
  5 10  1  0  0  0  0
  5 26  1  0  0  0  0
  5 32  1  6  0  0  0
  6 12  1  0  0  0  0
  6 36  1  0  0  0  0
  6 19  1  6  0  0  0
  7  8  1  6  0  0  0
  7 14  1  0  0  0  0
  9 16  1  0  0  0  0
 10 11  1  1  0  0  0
 10 18  1  0  0  0  0
 12 13  1  6  0  0  0
 12 20  1  0  0  0  0
 14 15  1  1  0  0  0
 14 22  1  0  0  0  0
 16 17  1  1  0  0  0
 16 24  1  0  0  0  0
 18 19  1  1  0  0  0
 18 25  1  0  0  0  0
 20 21  1  1  0  0  0
 20 27  1  0  0  0  0
 22 23  1  6  0  0  0
 22 29  1  0  0  0  0
 24  2  1  6  0  0  0
 24 31  1  0  0  0  0
 25 26  1  0  0  0  0
 25 33  1  6  0  0  0
 27 28  1  6  0  0  0
 27 35  1  0  0  0  0
 29 30  1  0  0  0  0
 29 37  1  1  0  0  0
 31 32  1  1  0  0  0
 31 39  1  0  0  0  0
 33 34  1  0  0  0  0
 35 36  1  0  0  0  0
 35 41  1  6  0  0  0
 37 38  1  0  0  0  0
 39 40  1  6  0  0  0
 41 42  1  0  0  0  0
M  END
>  <CHROM.1>
-129.29221560,-63.59004976,168.78978670,-173.04589915,-58.93297724,-66.53647365
-71.04185182,69.90180884,68.96163718,6.88647907,3.03721421,3.37045561,1.98245522
-0.27347293,-0.24720552

>  <Name>
ligand

>  <RI>
0

>  <Rbt.Current_Directory>
/home/itssahil/PROJECTS/Mol_Feturizer/Test_systems_manuscript/rnas/2o3w

>  <Rbt.Executable>
rbdock ($Id: //depot/dev/client3/rdock/2013.1/src/exe/rbdock.cxx#4 $)

>  <Rbt.Library>
libRbt.so (2013.1, Build901 2013/11/27)

>  <Rbt.Parameter_File>
/export/apps/rDock/src/rDock_2013.1_src/data/scripts/dock_solv.prm

>  <Rbt.Receptor>
prm/pocket_docking_3.prm

>  <SCORE>
-5.43535

>  <SCORE.INTER>
0.559912

>  <SCORE.INTER.CONST>
1

>  <SCORE.INTER.POLAR>
0

>  <SCORE.INTER.ROT>
9

>  <SCORE.INTER.SOLV>
12.0985

>  <SCORE.INTER.VDW>
-13.2595

>  <SCORE.INTER.norm>
0.0133312

>  <SCORE.INTRA>
-6.00104

>  <SCORE.INTRA.DIHEDRAL>
-18.5758

>  <SCORE.INTRA.DIHEDRAL.0>
27.8999

>  <SCORE.INTRA.POLAR>
0

>  <SCORE.INTRA.POLAR.0>
0

>  <SCORE.INTRA.REPUL>
0

>  <SCORE.INTRA.REPUL.0>
0

>  <SCORE.INTRA.SOLV>
1.49547

>  <SCORE.INTRA.SOLV.lig_0>
-104.479

>  <SCORE.INTRA.VDW>
2.53912

>  <SCORE.INTRA.VDW.0>
-6.17816

>  <SCORE.INTRA.norm>
-0.142882

>  <SCORE.RESTR>
0.00577728

>  <SCORE.RESTR.CAVITY>
0.00577728

>  <SCORE.RESTR.norm>
0.000137554

>  <SCORE.SYSTEM>
0

>  <SCORE.SYSTEM.CONST>
0

>  <SCORE.SYSTEM.DIHEDRAL>
0

>  <SCORE.SYSTEM.SOLV>
0

>  <SCORE.SYSTEM.norm>
0

>  <SCORE.heavy>
42

>  <SCORE.norm>
-0.129413

>  <RMSD>
8.901

$$$$
ligand
 OpenBabel02271912133D
libRbt.so/2013.1/901 2013/11/27
 42 45  0  0  0  0  0  0  0  0999 V2000
    7.5985    4.0501    0.8037 C   0  0  2  0  0  0  0  0  0  0  0  0
    6.7371    4.9375    1.5370 O   0  0  0  0  0  0  0  0  0  0  0  0
    5.2244    5.1192    5.5959 C   0  0  2  0  0  0  0  0  0  0  0  0
    4.6640    4.7436    6.9283 N   0  0  0  0  0  0  0  0  0  0  0  0
    8.0730    2.3115    3.6928 C   0  0  1  0  0  0  0  0  0  0  0  0
    9.2103   -1.5655    2.6872 C   0  0  1  0  0  0  0  0  0  0  0  0
    8.2011    4.8720   -0.3752 C   0  0  2  0  0  0  0  0  0  0  0  0
    8.7726    6.1559    0.0669 N   0  0  0  0  0  0  0  0  0  0  0  0
    4.1863    4.8369    4.4364 C   0  0  0  0  0  0  0  0  0  0  0  0
    9.3371    1.5218    3.2353 C   0  0  2  0  0  0  0  0  0  0  0  0
    9.3302    1.1602    1.8324 O   0  0  0  0  0  0  0  0  0  0  0  0
    8.6052   -3.0014    2.4856 C   0  0  2  0  0  0  0  0  0  0  0  0
    8.5974   -3.7623    3.7709 N   0  0  0  0  0  0  0  0  0  0  0  0
    7.1532    5.1998   -1.4547 C   0  0  1  0  0  0  0  0  0  0  0  0
    7.7569    5.9178   -2.5321 O   0  0  0  0  0  0  0  0  0  0  0  0
    4.8242    5.2728    3.0632 C   0  0  2  0  0  0  0  0  0  0  0  0
    3.8672    5.0342    1.9492 N   0  0  0  0  0  0  0  0  0  0  0  0
    9.3294    0.3522    4.2208 C   0  0  2  0  0  0  0  0  0  0  0  0
    8.5674   -0.7838    3.7016 O   0  0  0  0  0  0  0  0  0  0  0  0
    9.4455   -3.7765    1.3631 C   0  0  1  0  0  0  0  0  0  0  0  0
    9.1181   -3.2228    0.0688 O   0  0  0  0  0  0  0  0  0  0  0  0
    6.4940    3.8915   -1.9475 C   0  0  2  0  0  0  0  0  0  0  0  0
    5.5437    4.1730   -2.9485 O   0  0  0  0  0  0  0  0  0  0  0  0
    6.1616    4.4766    2.7927 C   0  0  2  0  0  0  0  0  0  0  0  0
    8.7070    0.8945    5.5184 C   0  0  2  0  0  0  0  0  0  0  0  0
    7.7993    1.8882    5.0482 O   0  0  0  0  0  0  0  0  0  0  0  0
   11.0279   -3.6883    1.5990 C   0  0  2  0  0  0  0  0  0  0  0  0
   11.3348   -4.4632    2.7574 O   0  0  0  0  0  0  0  0  0  0  0  0
    5.8206    3.1700   -0.7328 C   0  0  2  0  0  0  0  0  0  0  0  0
    6.8245    2.8975    0.2957 O   0  0  0  0  0  0  0  0  0  0  0  0
    7.2054    4.6601    3.9161 C   0  0  2  0  0  0  0  0  0  0  0  0
    8.2753    3.7276    3.5995 O   0  0  0  0  0  0  0  0  0  0  0  0
    9.7251    1.4998    6.5339 C   0  0  0  0  0  0  0  0  0  0  0  0
    9.0404    1.8555    7.7312 O   0  0  0  0  0  0  0  0  0  0  0  0
   11.4761   -2.1926    1.8091 C   0  0  1  0  0  0  0  0  0  0  0  0
   10.6960   -1.6885    2.9527 O   0  0  0  0  0  0  0  0  0  0  0  0
    5.1538    1.8716   -1.1244 C   0  0  0  0  0  0  0  0  0  0  0  0
    4.5579    1.2738    0.0012 O   0  0  0  0  0  0  0  0  0  0  0  0
    6.5613    4.3194    5.3249 C   0  0  1  0  0  0  0  0  0  0  0  0
    7.4789    4.6338    6.3760 O   0  0  0  0  0  0  0  0  0  0  0  0
   13.0322   -2.0153    2.0843 C   0  0  0  0  0  0  0  0  0  0  0  0
   13.9311   -2.4051    0.9634 N   0  0  0  0  0  0  0  0  0  0  0  0
  1  2  1  6  0  0  0
  1  7  1  0  0  0  0
  1 30  1  0  0  0  0
  3  4  1  1  0  0  0
  3  9  1  0  0  0  0
  3 39  1  0  0  0  0
  5 10  1  0  0  0  0
  5 26  1  0  0  0  0
  5 32  1  1  0  0  0
  6 12  1  0  0  0  0
  6 36  1  0  0  0  0
  6 19  1  1  0  0  0
  7  8  1  1  0  0  0
  7 14  1  0  0  0  0
  9 16  1  0  0  0  0
 10 11  1  6  0  0  0
 10 18  1  0  0  0  0
 12 13  1  1  0  0  0
 12 20  1  0  0  0  0
 14 15  1  6  0  0  0
 14 22  1  0  0  0  0
 16 17  1  6  0  0  0
 16 24  1  0  0  0  0
 18 19  1  6  0  0  0
 18 25  1  0  0  0  0
 20 21  1  6  0  0  0
 20 27  1  0  0  0  0
 22 23  1  6  0  0  0
 22 29  1  0  0  0  0
 24  2  1  6  0  0  0
 24 31  1  0  0  0  0
 25 26  1  0  0  0  0
 25 33  1  1  0  0  0
 27 28  1  1  0  0  0
 27 35  1  0  0  0  0
 29 30  1  0  0  0  0
 29 37  1  6  0  0  0
 31 32  1  6  0  0  0
 31 39  1  0  0  0  0
 33 34  1  0  0  0  0
 35 36  1  0  0  0  0
 35 41  1  1  0  0  0
 37 38  1  0  0  0  0
 39 40  1  1  0  0  0
 41 42  1  0  0  0  0
M  END
>  <CHROM.1>
-172.70376224,-154.72640656,75.89628030,161.10885795,-174.96714772,-179.53063292
-68.66603136,177.10343280,64.63740482,7.99310123,1.75360762,2.36529846,-3.08058378
-1.01403305,1.52772045

>  <Name>
ligand

>  <RI>
0

>  <Rbt.Current_Directory>
/home/itssahil/PROJECTS/Mol_Feturizer/Test_systems_manuscript/rnas/2o3w

>  <Rbt.Executable>
rbdock ($Id: //depot/dev/client3/rdock/2013.1/src/exe/rbdock.cxx#4 $)

>  <Rbt.Library>
libRbt.so (2013.1, Build901 2013/11/27)

>  <Rbt.Parameter_File>
/export/apps/rDock/src/rDock_2013.1_src/data/scripts/dock_solv.prm

>  <Rbt.Receptor>
prm/pocket_docking_6.prm

>  <SCORE>
-9.34242

>  <SCORE.INTER>
1.42016

>  <SCORE.INTER.CONST>
1

>  <SCORE.INTER.POLAR>
0

>  <SCORE.INTER.ROT>
9

>  <SCORE.INTER.SOLV>
12.8801

>  <SCORE.INTER.VDW>
-12.9466

>  <SCORE.INTER.norm>
0.0338132

>  <SCORE.INTRA>
-10.7626

>  <SCORE.INTRA.DIHEDRAL>
-21.4598

>  <SCORE.INTRA.DIHEDRAL.0>
27.8999

>  <SCORE.INTRA.POLAR>
0

>  <SCORE.INTRA.POLAR.0>
0

>  <SCORE.INTRA.REPUL>
0

>  <SCORE.INTRA.REPUL.0>
0

>  <SCORE.INTRA.SOLV>
-4.31175

>  <SCORE.INTRA.SOLV.lig_0>
-104.479

>  <SCORE.INTRA.VDW>
2.12318

>  <SCORE.INTRA.VDW.0>
-6.17816

>  <SCORE.INTRA.norm>
-0.256252

>  <SCORE.RESTR>
0

>  <SCORE.RESTR.CAVITY>
0

>  <SCORE.RESTR.norm>
0

>  <SCORE.SYSTEM>
0

>  <SCORE.SYSTEM.CONST>
0

>  <SCORE.SYSTEM.DIHEDRAL>
0

>  <SCORE.SYSTEM.SOLV>
0

>  <SCORE.SYSTEM.norm>
0

>  <SCORE.heavy>
42

>  <SCORE.norm>
-0.222439

>  <RMSD>
8.951

$$$$
ligand
 OpenBabel02271912133D
libRbt.so/2013.1/901 2013/11/27
 42 45  0  0  0  0  0  0  0  0999 V2000
    6.1211    7.4747    4.5761 C   0  0  2  0  0  0  0  0  0  0  0  0
    6.7787    7.0168    3.3823 O   0  0  0  0  0  0  0  0  0  0  0  0
    6.9209    8.8651   -0.5369 C   0  0  2  0  0  0  0  0  0  0  0  0
    7.2317    9.7880   -1.6691 N   0  0  0  0  0  0  0  0  0  0  0  0
    9.7203    5.6449    2.0828 C   0  0  1  0  0  0  0  0  0  0  0  0
    9.7551    1.1878    2.5915 C   0  0  1  0  0  0  0  0  0  0  0  0
    7.2293    8.0235    5.5241 C   0  0  2  0  0  0  0  0  0  0  0  0
    8.1338    8.9685    4.8464 N   0  0  0  0  0  0  0  0  0  0  0  0
    6.0952    9.6013    0.5937 C   0  0  0  0  0  0  0  0  0  0  0  0
    8.8258    4.8018    3.0419 C   0  0  2  0  0  0  0  0  0  0  0  0
    9.2848    4.7880    4.4159 O   0  0  0  0  0  0  0  0  0  0  0  0
    8.6835    0.5192    3.5261 C   0  0  2  0  0  0  0  0  0  0  0  0
    8.9864    0.7896    4.9635 N   0  0  0  0  0  0  0  0  0  0  0  0
    8.1109    6.9018    6.1033 C   0  0  1  0  0  0  0  0  0  0  0  0
    9.0854    7.4454    6.9954 O   0  0  0  0  0  0  0  0  0  0  0  0
    5.7796    8.5741    1.7460 C   0  0  2  0  0  0  0  0  0  0  0  0
    4.9895    9.2307    2.8223 N   0  0  0  0  0  0  0  0  0  0  0  0
    8.8225    3.4475    2.3311 C   0  0  2  0  0  0  0  0  0  0  0  0
    9.9222    2.5975    2.7880 O   0  0  0  0  0  0  0  0  0  0  0  0
    8.6362   -1.0554    3.2342 C   0  0  1  0  0  0  0  0  0  0  0  0
    7.9805   -1.2758    1.9652 O   0  0  0  0  0  0  0  0  0  0  0  0
    7.2178    5.8576    6.8114 C   0  0  2  0  0  0  0  0  0  0  0  0
    8.0116    4.8322    7.3618 O   0  0  0  0  0  0  0  0  0  0  0  0
    7.1161    7.9884    2.3515 C   0  0  2  0  0  0  0  0  0  0  0  0
    8.9436    3.7560    0.8292 C   0  0  2  0  0  0  0  0  0  0  0  0
    9.7069    4.9599    0.8093 O   0  0  0  0  0  0  0  0  0  0  0  0
   10.0906   -1.7275    3.2099 C   0  0  2  0  0  0  0  0  0  0  0  0
   10.5960   -1.7095    4.5443 O   0  0  0  0  0  0  0  0  0  0  0  0
    6.1980    5.2733    5.7779 C   0  0  2  0  0  0  0  0  0  0  0  0
    5.3933    6.3571    5.2142 O   0  0  0  0  0  0  0  0  0  0  0  0
    8.0036    7.3014    1.2906 C   0  0  2  0  0  0  0  0  0  0  0  0
    9.2492    6.9946    1.9753 O   0  0  0  0  0  0  0  0  0  0  0  0
    7.5855    3.9401    0.0836 C   0  0  0  0  0  0  0  0  0  0  0  0
    7.8379    4.2727   -1.2782 O   0  0  0  0  0  0  0  0  0  0  0  0
   11.0546   -0.9318    2.2509 C   0  0  1  0  0  0  0  0  0  0  0  0
   11.0714    0.4554    2.7464 O   0  0  0  0  0  0  0  0  0  0  0  0
    5.2759    4.2438    6.3892 C   0  0  0  0  0  0  0  0  0  0  0  0
    4.5894    3.5466    5.3783 O   0  0  0  0  0  0  0  0  0  0  0  0
    8.2594    8.2819    0.0705 C   0  0  1  0  0  0  0  0  0  0  0  0
    8.9517    7.5965   -0.9767 O   0  0  0  0  0  0  0  0  0  0  0  0
   12.5338   -1.5124    2.1922 C   0  0  0  0  0  0  0  0  0  0  0  0
   13.3036   -1.4388    3.4644 N   0  0  0  0  0  0  0  0  0  0  0  0
  1  2  1  6  0  0  0
  1  7  1  0  0  0  0
  1 30  1  0  0  0  0
  3  4  1  6  0  0  0
  3  9  1  0  0  0  0
  3 39  1  0  0  0  0
  5 10  1  0  0  0  0
  5 26  1  0  0  0  0
  5 32  1  6  0  0  0
  6 12  1  0  0  0  0
  6 36  1  0  0  0  0
  6 19  1  1  0  0  0
  7  8  1  6  0  0  0
  7 14  1  0  0  0  0
  9 16  1  0  0  0  0
 10 11  1  1  0  0  0
 10 18  1  0  0  0  0
 12 13  1  1  0  0  0
 12 20  1  0  0  0  0
 14 15  1  1  0  0  0
 14 22  1  0  0  0  0
 16 17  1  1  0  0  0
 16 24  1  0  0  0  0
 18 19  1  1  0  0  0
 18 25  1  0  0  0  0
 20 21  1  6  0  0  0
 20 27  1  0  0  0  0
 22 23  1  6  0  0  0
 22 29  1  0  0  0  0
 24  2  1  1  0  0  0
 24 31  1  0  0  0  0
 25 26  1  0  0  0  0
 25 33  1  1  0  0  0
 27 28  1  1  0  0  0
 27 35  1  0  0  0  0
 29 30  1  0  0  0  0
 29 37  1  1  0  0  0
 31 32  1  1  0  0  0
 31 39  1  0  0  0  0
 33 34  1  0  0  0  0
 35 36  1  0  0  0  0
 35 41  1  1  0  0  0
 37 38  1  0  0  0  0
 39 40  1  6  0  0  0
 41 42  1  0  0  0  0
M  END
>  <CHROM.1>
-82.48374260,-65.65561187,157.80903798,-71.17258613,177.66601522,-167.17290814
120.58681745,-69.68294471,-64.51797688,8.29902901,4.53776465,3.00707555,2.52301965
1.10706315,-0.98271945

>  <Name>
ligand

>  <RI>
0

>  <Rbt.Current_Directory>
/home/itssahil/PROJECTS/Mol_Feturizer/Test_systems_manuscript/rnas/2o3w

>  <Rbt.Executable>
rbdock ($Id: //depot/dev/client3/rdock/2013.1/src/exe/rbdock.cxx#4 $)

>  <Rbt.Library>
libRbt.so (2013.1, Build901 2013/11/27)

>  <Rbt.Parameter_File>
/export/apps/rDock/src/rDock_2013.1_src/data/scripts/dock_solv.prm

>  <Rbt.Receptor>
prm/pocket_docking_5.prm

>  <SCORE>
-10.1981

>  <SCORE.INTER>
-4.04328

>  <SCORE.INTER.CONST>
1

>  <SCORE.INTER.POLAR>
0

>  <SCORE.INTER.ROT>
9

>  <SCORE.INTER.SOLV>
21.7452

>  <SCORE.INTER.VDW>
-19.5439

>  <SCORE.INTER.norm>
-0.0962686

>  <SCORE.INTRA>
-6.15478

>  <SCORE.INTRA.DIHEDRAL>
-14.3044

>  <SCORE.INTRA.DIHEDRAL.0>
27.8999

>  <SCORE.INTRA.POLAR>
0

>  <SCORE.INTRA.POLAR.0>
0

>  <SCORE.INTRA.REPUL>
0

>  <SCORE.INTRA.REPUL.0>
0

>  <SCORE.INTRA.SOLV>
1.32731

>  <SCORE.INTRA.SOLV.lig_0>
-104.479

>  <SCORE.INTRA.VDW>
0.33377

>  <SCORE.INTRA.VDW.0>
-6.17816

>  <SCORE.INTRA.norm>
-0.146542

>  <SCORE.RESTR>
0

>  <SCORE.RESTR.CAVITY>
0

>  <SCORE.RESTR.norm>
0

>  <SCORE.SYSTEM>
0

>  <SCORE.SYSTEM.CONST>
0

>  <SCORE.SYSTEM.DIHEDRAL>
0

>  <SCORE.SYSTEM.SOLV>
0

>  <SCORE.SYSTEM.norm>
0

>  <SCORE.heavy>
42

>  <SCORE.norm>
-0.242811

>  <RMSD>
8.967

$$$$
ligand
 OpenBabel02271912133D
libRbt.so/2013.1/901 2013/11/27
 42 45  0  0  0  0  0  0  0  0999 V2000
    9.2063    2.7799    2.1010 C   0  0  2  0  0  0  0  0  0  0  0  0
    9.1160    3.8337    3.0750 O   0  0  0  0  0  0  0  0  0  0  0  0
   10.6525    4.2514    7.1075 C   0  0  2  0  0  0  0  0  0  0  0  0
   10.9774    4.0030    8.5439 N   0  0  0  0  0  0  0  0  0  0  0  0
   10.4143    0.8247    4.2025 C   0  0  1  0  0  0  0  0  0  0  0  0
    9.4677   -3.5411    4.6866 C   0  0  1  0  0  0  0  0  0  0  0  0
    8.8139    3.3972    0.7251 C   0  0  2  0  0  0  0  0  0  0  0  0
    9.5419    4.6457    0.4390 N   0  0  0  0  0  0  0  0  0  0  0  0
    9.0948    4.4231    6.8928 C   0  0  0  0  0  0  0  0  0  0  0  0
   10.9455   -0.3641    3.3450 C   0  0  2  0  0  0  0  0  0  0  0  0
   10.2487   -0.5410    2.0871 O   0  0  0  0  0  0  0  0  0  0  0  0
   10.2785   -4.5532    3.7994 C   0  0  2  0  0  0  0  0  0  0  0  0
    9.8447   -4.4777    2.3721 N   0  0  0  0  0  0  0  0  0  0  0  0
    7.3125    3.7284    0.6402 C   0  0  1  0  0  0  0  0  0  0  0  0
    6.9912    4.2536   -0.6489 O   0  0  0  0  0  0  0  0  0  0  0  0
    8.8179    4.7040    5.3673 C   0  0  2  0  0  0  0  0  0  0  0  0
    7.3603    4.8855    5.1309 N   0  0  0  0  0  0  0  0  0  0  0  0
   10.8262   -1.5223    4.3367 C   0  0  2  0  0  0  0  0  0  0  0  0
    9.5228   -2.1801    4.2415 O   0  0  0  0  0  0  0  0  0  0  0  0
   10.0902   -6.0343    4.3805 C   0  0  1  0  0  0  0  0  0  0  0  0
   10.8555   -6.1584    5.6003 O   0  0  0  0  0  0  0  0  0  0  0  0
    6.4862    2.4606    0.9551 C   0  0  2  0  0  0  0  0  0  0  0  0
    5.1090    2.7431    0.8651 O   0  0  0  0  0  0  0  0  0  0  0  0
    9.3556    3.5158    4.4757 C   0  0  2  0  0  0  0  0  0  0  0  0
   11.0412   -0.9107    5.7314 C   0  0  2  0  0  0  0  0  0  0  0  0
   10.5322    0.4127    5.5836 O   0  0  0  0  0  0  0  0  0  0  0  0
    8.5569   -6.3984    4.6705 C   0  0  2  0  0  0  0  0  0  0  0  0
    7.8950   -6.5100    3.4112 O   0  0  0  0  0  0  0  0  0  0  0  0
    6.8544    1.9546    2.3897 C   0  0  2  0  0  0  0  0  0  0  0  0
    8.2890    1.6777    2.4605 O   0  0  0  0  0  0  0  0  0  0  0  0
   10.8642    3.2521    4.6757 C   0  0  2  0  0  0  0  0  0  0  0  0
   11.1401    2.0317    3.9349 O   0  0  0  0  0  0  0  0  0  0  0  0
   12.5228   -0.8910    6.2202 C   0  0  0  0  0  0  0  0  0  0  0  0
   13.2768   -0.0034    5.4001 O   0  0  0  0  0  0  0  0  0  0  0  0
    7.8762   -5.2802    5.5471 C   0  0  1  0  0  0  0  0  0  0  0  0
    8.0358   -4.0207    4.7998 O   0  0  0  0  0  0  0  0  0  0  0  0
    6.0939    0.7083    2.7796 C   0  0  0  0  0  0  0  0  0  0  0  0
    6.3730    0.3681    4.1159 O   0  0  0  0  0  0  0  0  0  0  0  0
   11.1883    3.0601    6.2164 C   0  0  1  0  0  0  0  0  0  0  0  0
   12.6016    2.9673    6.4155 O   0  0  0  0  0  0  0  0  0  0  0  0
    6.3389   -5.5453    5.8554 C   0  0  0  0  0  0  0  0  0  0  0  0
    5.6493   -4.4850    6.6408 N   0  0  0  0  0  0  0  0  0  0  0  0
  1  2  1  1  0  0  0
  1  7  1  0  0  0  0
  1 30  1  0  0  0  0
  3  4  1  1  0  0  0
  3  9  1  0  0  0  0
  3 39  1  0  0  0  0
  5 10  1  0  0  0  0
  5 26  1  0  0  0  0
  5 32  1  1  0  0  0
  6 12  1  0  0  0  0
  6 36  1  0  0  0  0
  6 19  1  6  0  0  0
  7  8  1  1  0  0  0
  7 14  1  0  0  0  0
  9 16  1  0  0  0  0
 10 11  1  6  0  0  0
 10 18  1  0  0  0  0
 12 13  1  6  0  0  0
 12 20  1  0  0  0  0
 14 15  1  6  0  0  0
 14 22  1  0  0  0  0
 16 17  1  1  0  0  0
 16 24  1  0  0  0  0
 18 19  1  1  0  0  0
 18 25  1  0  0  0  0
 20 21  1  1  0  0  0
 20 27  1  0  0  0  0
 22 23  1  1  0  0  0
 22 29  1  0  0  0  0
 24  2  1  6  0  0  0
 24 31  1  0  0  0  0
 25 26  1  0  0  0  0
 25 33  1  6  0  0  0
 27 28  1  6  0  0  0
 27 35  1  0  0  0  0
 29 30  1  0  0  0  0
 29 37  1  6  0  0  0
 31 32  1  6  0  0  0
 31 39  1  0  0  0  0
 33 34  1  0  0  0  0
 35 36  1  0  0  0  0
 35 41  1  6  0  0  0
 37 38  1  0  0  0  0
 39 40  1  6  0  0  0
 41 42  1  0  0  0  0
M  END
>  <CHROM.1>
176.41949939,-164.52738603,155.83158090,-67.13276529,66.61773701,-174.75641696
-56.02873363,-176.57669089,-177.90247050,9.19823297,0.16240350,4.06940560
1.58342414,-0.79123230,-0.15019219

>  <Name>
ligand

>  <RI>
0

>  <Rbt.Current_Directory>
/home/itssahil/PROJECTS/Mol_Feturizer/Test_systems_manuscript/rnas/2o3w

>  <Rbt.Executable>
rbdock ($Id: //depot/dev/client3/rdock/2013.1/src/exe/rbdock.cxx#4 $)

>  <Rbt.Library>
libRbt.so (2013.1, Build901 2013/11/27)

>  <Rbt.Parameter_File>
/export/apps/rDock/src/rDock_2013.1_src/data/scripts/dock_solv.prm

>  <Rbt.Receptor>
prm/pocket_docking_3.prm

>  <SCORE>
-7.05359

>  <SCORE.INTER>
5.06906

>  <SCORE.INTER.CONST>
1

>  <SCORE.INTER.POLAR>
0

>  <SCORE.INTER.ROT>
9

>  <SCORE.INTER.SOLV>
8.03204

>  <SCORE.INTER.VDW>
-8.89797

>  <SCORE.INTER.norm>
0.120692

>  <SCORE.INTRA>
-12.1638

>  <SCORE.INTRA.DIHEDRAL>
-23.4239

>  <SCORE.INTRA.DIHEDRAL.0>
27.8999

>  <SCORE.INTRA.POLAR>
0

>  <SCORE.INTRA.POLAR.0>
0

>  <SCORE.INTRA.REPUL>
0

>  <SCORE.INTRA.REPUL.0>
0

>  <SCORE.INTRA.SOLV>
-3.78481

>  <SCORE.INTRA.SOLV.lig_0>
-104.479

>  <SCORE.INTRA.VDW>
1.44059

>  <SCORE.INTRA.VDW.0>
-6.17816

>  <SCORE.INTRA.norm>
-0.289613

>  <SCORE.RESTR>
0.0411139

>  <SCORE.RESTR.CAVITY>
0.0411139

>  <SCORE.RESTR.norm>
0.000978902

>  <SCORE.SYSTEM>
0

>  <SCORE.SYSTEM.CONST>
0

>  <SCORE.SYSTEM.DIHEDRAL>
0

>  <SCORE.SYSTEM.SOLV>
0

>  <SCORE.SYSTEM.norm>
0

>  <SCORE.heavy>
42

>  <SCORE.norm>
-0.167943

>  <RMSD>
8.973

$$$$
ligand
 OpenBabel02271912133D
libRbt.so/2013.1/901 2013/11/27
 42 45  0  0  0  0  0  0  0  0999 V2000
    5.8229    1.8985    3.3179 C   0  0  2  0  0  0  0  0  0  0  0  0
    5.5545    3.2362    3.7716 O   0  0  0  0  0  0  0  0  0  0  0  0
    7.5962    5.7838    6.6241 C   0  0  2  0  0  0  0  0  0  0  0  0
    8.2270    6.3110    7.8710 N   0  0  0  0  0  0  0  0  0  0  0  0
    8.0005    1.4488    5.7137 C   0  0  1  0  0  0  0  0  0  0  0  0
    7.7770   -2.4848    6.8004 C   0  0  1  0  0  0  0  0  0  0  0  0
    5.3376    1.8134    1.8396 C   0  0  2  0  0  0  0  0  0  0  0  0
    5.8479    2.9218    1.0140 N   0  0  0  0  0  0  0  0  0  0  0  0
    6.0418    5.5635    6.8162 C   0  0  0  0  0  0  0  0  0  0  0  0
    8.5002    0.0537    5.2290 C   0  0  2  0  0  0  0  0  0  0  0  0
    7.4589   -0.7831    4.6682 O   0  0  0  0  0  0  0  0  0  0  0  0
    6.8795   -3.3238    7.7799 C   0  0  2  0  0  0  0  0  0  0  0  0
    7.5768   -3.5492    9.0814 N   0  0  0  0  0  0  0  0  0  0  0  0
    3.8023    1.8444    1.7259 C   0  0  1  0  0  0  0  0  0  0  0  0
    3.4022    1.7242    0.3598 O   0  0  0  0  0  0  0  0  0  0  0  0
    5.4313    5.0299    5.4652 C   0  0  2  0  0  0  0  0  0  0  0  0
    3.9644    4.8248    5.6056 N   0  0  0  0  0  0  0  0  0  0  0  0
    9.1673   -0.4800    6.4977 C   0  0  2  0  0  0  0  0  0  0  0  0
    8.2234   -1.2291    7.3275 O   0  0  0  0  0  0  0  0  0  0  0  0
    6.4954   -4.7150    7.0843 C   0  0  1  0  0  0  0  0  0  0  0  0
    5.5128   -4.4665    6.0539 O   0  0  0  0  0  0  0  0  0  0  0  0
    3.1982    0.7158    2.5923 C   0  0  2  0  0  0  0  0  0  0  0  0
    1.7935    0.7201    2.4859 O   0  0  0  0  0  0  0  0  0  0  0  0
    6.1183    3.6719    5.0415 C   0  0  2  0  0  0  0  0  0  0  0  0
    9.7087    0.7516    7.2429 C   0  0  2  0  0  0  0  0  0  0  0  0
    8.7845    1.7761    6.8839 O   0  0  0  0  0  0  0  0  0  0  0  0
    7.7617   -5.4630    6.4483 C   0  0  2  0  0  0  0  0  0  0  0  0
    8.5835   -5.9109    7.5255 O   0  0  0  0  0  0  0  0  0  0  0  0
    3.6408    0.9213    4.0794 C   0  0  2  0  0  0  0  0  0  0  0  0
    5.1013    0.9227    4.1623 O   0  0  0  0  0  0  0  0  0  0  0  0
    7.6501    3.7975    4.8896 C   0  0  2  0  0  0  0  0  0  0  0  0
    8.1264    2.4389    4.6847 O   0  0  0  0  0  0  0  0  0  0  0  0
   11.1685    1.1571    6.8706 C   0  0  0  0  0  0  0  0  0  0  0  0
   11.5439    2.3067    7.6231 O   0  0  0  0  0  0  0  0  0  0  0  0
    8.5719   -4.4872    5.5136 C   0  0  1  0  0  0  0  0  0  0  0  0
    8.9468   -3.3351    6.3516 O   0  0  0  0  0  0  0  0  0  0  0  0
    3.0977   -0.1465    5.0006 C   0  0  0  0  0  0  0  0  0  0  0  0
    1.6954   -0.0588    5.0710 O   0  0  0  0  0  0  0  0  0  0  0  0
    8.2825    4.4229    6.2028 C   0  0  1  0  0  0  0  0  0  0  0  0
    9.6758    4.6792    6.0058 O   0  0  0  0  0  0  0  0  0  0  0  0
    9.8686   -5.1399    4.8646 C   0  0  0  0  0  0  0  0  0  0  0  0
    9.6210   -6.2931    3.9561 N   0  0  0  0  0  0  0  0  0  0  0  0
  1  2  1  1  0  0  0
  1  7  1  0  0  0  0
  1 30  1  0  0  0  0
  3  4  1  1  0  0  0
  3  9  1  0  0  0  0
  3 39  1  0  0  0  0
  5 10  1  0  0  0  0
  5 26  1  0  0  0  0
  5 32  1  6  0  0  0
  6 12  1  0  0  0  0
  6 36  1  0  0  0  0
  6 19  1  1  0  0  0
  7  8  1  6  0  0  0
  7 14  1  0  0  0  0
  9 16  1  0  0  0  0
 10 11  1  1  0  0  0
 10 18  1  0  0  0  0
 12 13  1  1  0  0  0
 12 20  1  0  0  0  0
 14 15  1  6  0  0  0
 14 22  1  0  0  0  0
 16 17  1  1  0  0  0
 16 24  1  0  0  0  0
 18 19  1  1  0  0  0
 18 25  1  0  0  0  0
 20 21  1  6  0  0  0
 20 27  1  0  0  0  0
 22 23  1  1  0  0  0
 22 29  1  0  0  0  0
 24  2  1  6  0  0  0
 24 31  1  0  0  0  0
 25 26  1  0  0  0  0
 25 33  1  6  0  0  0
 27 28  1  1  0  0  0
 27 35  1  0  0  0  0
 29 30  1  0  0  0  0
 29 37  1  1  0  0  0
 31 32  1  1  0  0  0
 31 39  1  0  0  0  0
 33 34  1  0  0  0  0
 35 36  1  0  0  0  0
 35 41  1  1  0  0  0
 37 38  1  0  0  0  0
 39 40  1  6  0  0  0
 41 42  1  0  0  0  0
M  END
>  <CHROM.1>
-169.28672214,-167.57922538,69.12999342,174.18828871,179.82185758,-65.53863570
-65.00927854,176.47996307,62.62272199,6.88935409,0.43062502,5.33317542,1.94001597
-0.60079446,-0.02643832

>  <Name>
ligand

>  <RI>
0

>  <Rbt.Current_Directory>
/home/itssahil/PROJECTS/Mol_Feturizer/Test_systems_manuscript/rnas/2o3w

>  <Rbt.Executable>
rbdock ($Id: //depot/dev/client3/rdock/2013.1/src/exe/rbdock.cxx#4 $)

>  <Rbt.Library>
libRbt.so (2013.1, Build901 2013/11/27)

>  <Rbt.Parameter_File>
/export/apps/rDock/src/rDock_2013.1_src/data/scripts/dock_solv.prm

>  <Rbt.Receptor>
prm/pocket_docking_6.prm

>  <SCORE>
-12.8054

>  <SCORE.INTER>
-0.406196

>  <SCORE.INTER.CONST>
1

>  <SCORE.INTER.POLAR>
0

>  <SCORE.INTER.ROT>
9

>  <SCORE.INTER.SOLV>
17.8419

>  <SCORE.INTER.VDW>
-15.8181

>  <SCORE.INTER.norm>
-0.00967134

>  <SCORE.INTRA>
-12.3992

>  <SCORE.INTRA.DIHEDRAL>
-25.5887

>  <SCORE.INTRA.DIHEDRAL.0>
27.8999

>  <SCORE.INTRA.POLAR>
0

>  <SCORE.INTRA.POLAR.0>
0

>  <SCORE.INTRA.REPUL>
0

>  <SCORE.INTRA.REPUL.0>
0

>  <SCORE.INTRA.SOLV>
-4.30741

>  <SCORE.INTRA.SOLV.lig_0>
-104.479

>  <SCORE.INTRA.VDW>
2.54888

>  <SCORE.INTRA.VDW.0>
-6.17816

>  <SCORE.INTRA.norm>
-0.295219

>  <SCORE.RESTR>
0

>  <SCORE.RESTR.CAVITY>
0

>  <SCORE.RESTR.norm>
0

>  <SCORE.SYSTEM>
0

>  <SCORE.SYSTEM.CONST>
0

>  <SCORE.SYSTEM.DIHEDRAL>
0

>  <SCORE.SYSTEM.SOLV>
0

>  <SCORE.SYSTEM.norm>
0

>  <SCORE.heavy>
42

>  <SCORE.norm>
-0.30489

>  <RMSD>
9.033

$$$$
ligand
 OpenBabel02271912133D
libRbt.so/2013.1/901 2013/11/27
 42 45  0  0  0  0  0  0  0  0999 V2000
   10.8737    5.8366    6.4487 C   0  0  2  0  0  0  0  0  0  0  0  0
   11.0895    4.6734    5.6315 O   0  0  0  0  0  0  0  0  0  0  0  0
    9.4437    6.2565    1.9462 C   0  0  2  0  0  0  0  0  0  0  0  0
    8.9727    6.3911    0.5354 N   0  0  0  0  0  0  0  0  0  0  0  0
    9.0317    2.3453    4.1494 C   0  0  1  0  0  0  0  0  0  0  0  0
    9.0518   -1.6996    2.4593 C   0  0  1  0  0  0  0  0  0  0  0  0
   11.5187    5.5436    7.8366 C   0  0  2  0  0  0  0  0  0  0  0  0
   12.9004    5.0452    7.7223 N   0  0  0  0  0  0  0  0  0  0  0  0
   11.0053    6.0131    2.0092 C   0  0  0  0  0  0  0  0  0  0  0  0
    8.2754    1.1616    4.8259 C   0  0  2  0  0  0  0  0  0  0  0  0
    8.9695    0.5917    5.9628 O   0  0  0  0  0  0  0  0  0  0  0  0
    7.8496   -2.6931    2.6503 C   0  0  2  0  0  0  0  0  0  0  0  0
    7.9250   -3.3727    3.9782 N   0  0  0  0  0  0  0  0  0  0  0  0
   10.7306    4.4899    8.6364 C   0  0  1  0  0  0  0  0  0  0  0  0
   11.3336    4.2824    9.9148 O   0  0  0  0  0  0  0  0  0  0  0  0
   11.4440    5.9023    3.5184 C   0  0  2  0  0  0  0  0  0  0  0  0
   12.9130    5.6870    3.6158 N   0  0  0  0  0  0  0  0  0  0  0  0
    8.0697    0.2222    3.6366 C   0  0  2  0  0  0  0  0  0  0  0  0
    9.1833   -0.7160    3.4931 O   0  0  0  0  0  0  0  0  0  0  0  0
    7.8516   -3.7612    1.4561 C   0  0  1  0  0  0  0  0  0  0  0  0
    7.4014   -3.1107    0.2466 O   0  0  0  0  0  0  0  0  0  0  0  0
    9.2586    4.9414    8.7733 C   0  0  2  0  0  0  0  0  0  0  0  0
    8.5271    3.9952    9.5178 O   0  0  0  0  0  0  0  0  0  0  0  0
   10.6858    4.7147    4.2330 C   0  0  2  0  0  0  0  0  0  0  0  0
    7.9397    1.1261    2.3991 C   0  0  2  0  0  0  0  0  0  0  0  0
    8.7540    2.2474    2.7336 O   0  0  0  0  0  0  0  0  0  0  0  0
    9.2936   -4.4146    1.2084 C   0  0  2  0  0  0  0  0  0  0  0  0
    9.5856   -5.2510    2.3271 O   0  0  0  0  0  0  0  0  0  0  0  0
    8.6434    5.1166    7.3449 C   0  0  2  0  0  0  0  0  0  0  0  0
    9.4250    6.0954    6.5894 O   0  0  0  0  0  0  0  0  0  0  0  0
    9.1495    4.8562    4.1620 C   0  0  2  0  0  0  0  0  0  0  0  0
    8.6260    3.6080    4.6935 O   0  0  0  0  0  0  0  0  0  0  0  0
    6.4834    1.5715    2.0595 C   0  0  0  0  0  0  0  0  0  0  0  0
    5.6845    0.4185    1.8119 O   0  0  0  0  0  0  0  0  0  0  0  0
   10.3931   -3.2957    1.0624 C   0  0  1  0  0  0  0  0  0  0  0  0
   10.3297   -2.4959    2.2980 O   0  0  0  0  0  0  0  0  0  0  0  0
    7.2007    5.5650    7.3842 C   0  0  0  0  0  0  0  0  0  0  0  0
    6.6680    5.5992    6.0825 O   0  0  0  0  0  0  0  0  0  0  0  0
    8.6864    5.0656    2.6595 C   0  0  1  0  0  0  0  0  0  0  0  0
    7.2850    5.3473    2.6098 O   0  0  0  0  0  0  0  0  0  0  0  0
   11.8647   -3.8581    0.8467 C   0  0  0  0  0  0  0  0  0  0  0  0
   12.0774   -4.6378   -0.4037 N   0  0  0  0  0  0  0  0  0  0  0  0
  1  2  1  6  0  0  0
  1  7  1  0  0  0  0
  1 30  1  0  0  0  0
  3  4  1  6  0  0  0
  3  9  1  0  0  0  0
  3 39  1  0  0  0  0
  5 10  1  0  0  0  0
  5 26  1  0  0  0  0
  5 32  1  1  0  0  0
  6 12  1  0  0  0  0
  6 36  1  0  0  0  0
  6 19  1  1  0  0  0
  7  8  1  6  0  0  0
  7 14  1  0  0  0  0
  9 16  1  0  0  0  0
 10 11  1  1  0  0  0
 10 18  1  0  0  0  0
 12 13  1  1  0  0  0
 12 20  1  0  0  0  0
 14 15  1  1  0  0  0
 14 22  1  0  0  0  0
 16 17  1  6  0  0  0
 16 24  1  0  0  0  0
 18 19  1  6  0  0  0
 18 25  1  0  0  0  0
 20 21  1  6  0  0  0
 20 27  1  0  0  0  0
 22 23  1  1  0  0  0
 22 29  1  0  0  0  0
 24  2  1  1  0  0  0
 24 31  1  0  0  0  0
 25 26  1  0  0  0  0
 25 33  1  1  0  0  0
 27 28  1  1  0  0  0
 27 35  1  0  0  0  0
 29 30  1  0  0  0  0
 29 37  1  1  0  0  0
 31 32  1  6  0  0  0
 31 39  1  0  0  0  0
 33 34  1  0  0  0  0
 35 36  1  0  0  0  0
 35 41  1  1  0  0  0
 37 38  1  0  0  0  0
 39 40  1  1  0  0  0
 41 42  1  0  0  0  0
M  END
>  <CHROM.1>
-174.83048404,58.43654771,176.14968460,-62.83112133,-60.00691621,-175.15435914
-54.49831718,-176.69232932,63.30882233,9.31512647,2.01775557,4.09252097,-1.19784457
1.36766686,-2.99865113

>  <Name>
ligand

>  <RI>
0

>  <Rbt.Current_Directory>
/home/itssahil/PROJECTS/Mol_Feturizer/Test_systems_manuscript/rnas/2o3w

>  <Rbt.Executable>
rbdock ($Id: //depot/dev/client3/rdock/2013.1/src/exe/rbdock.cxx#4 $)

>  <Rbt.Library>
libRbt.so (2013.1, Build901 2013/11/27)

>  <Rbt.Parameter_File>
/export/apps/rDock/src/rDock_2013.1_src/data/scripts/dock_solv.prm

>  <Rbt.Receptor>
prm/pocket_docking_5.prm

>  <SCORE>
-11.5458

>  <SCORE.INTER>
1.75654

>  <SCORE.INTER.CONST>
1

>  <SCORE.INTER.POLAR>
0

>  <SCORE.INTER.ROT>
9

>  <SCORE.INTER.SOLV>
10.6128

>  <SCORE.INTER.VDW>
-11.9666

>  <SCORE.INTER.norm>
0.0418225

>  <SCORE.INTRA>
-13.3023

>  <SCORE.INTRA.DIHEDRAL>
-27.1651

>  <SCORE.INTRA.DIHEDRAL.0>
27.8999

>  <SCORE.INTRA.POLAR>
0

>  <SCORE.INTRA.POLAR.0>
0

>  <SCORE.INTRA.REPUL>
0

>  <SCORE.INTRA.REPUL.0>
0

>  <SCORE.INTRA.SOLV>
-4.02266

>  <SCORE.INTRA.SOLV.lig_0>
-104.479

>  <SCORE.INTRA.VDW>
2.2916

>  <SCORE.INTRA.VDW.0>
-6.17816

>  <SCORE.INTRA.norm>
-0.316721

>  <SCORE.RESTR>
0

>  <SCORE.RESTR.CAVITY>
0

>  <SCORE.RESTR.norm>
0

>  <SCORE.SYSTEM>
0

>  <SCORE.SYSTEM.CONST>
0

>  <SCORE.SYSTEM.DIHEDRAL>
0

>  <SCORE.SYSTEM.SOLV>
0

>  <SCORE.SYSTEM.norm>
0

>  <SCORE.heavy>
42

>  <SCORE.norm>
-0.274899

>  <RMSD>
9.039

$$$$
ligand
 OpenBabel02271912133D
libRbt.so/2013.1/901 2013/11/27
 42 45  0  0  0  0  0  0  0  0999 V2000
    5.7419    4.2659    1.2988 C   0  0  2  0  0  0  0  0  0  0  0  0
    6.8115    5.0950    0.8131 O   0  0  0  0  0  0  0  0  0  0  0  0
   10.7427    5.7613    2.5153 C   0  0  2  0  0  0  0  0  0  0  0  0
   11.8525    6.1704    3.4271 N   0  0  0  0  0  0  0  0  0  0  0  0
    7.8186    2.4524    3.8764 C   0  0  1  0  0  0  0  0  0  0  0  0
    7.4291   -1.5497    5.7918 C   0  0  1  0  0  0  0  0  0  0  0  0
    4.7615    4.0440    0.1081 C   0  0  2  0  0  0  0  0  0  0  0  0
    5.4526    3.6061   -1.1171 N   0  0  0  0  0  0  0  0  0  0  0  0
    9.9550    7.0196    1.9693 C   0  0  0  0  0  0  0  0  0  0  0  0
    6.6103    1.9866    4.7448 C   0  0  2  0  0  0  0  0  0  0  0  0
    6.6377    2.4812    6.1063 O   0  0  0  0  0  0  0  0  0  0  0  0
    8.2464   -2.1363    6.9988 C   0  0  2  0  0  0  0  0  0  0  0  0
    9.6873   -1.7549    6.9028 N   0  0  0  0  0  0  0  0  0  0  0  0
    3.9825    5.3221   -0.2534 C   0  0  1  0  0  0  0  0  0  0  0  0
    3.0694    5.0628   -1.3210 O   0  0  0  0  0  0  0  0  0  0  0  0
    8.8155    6.5268    0.9992 C   0  0  2  0  0  0  0  0  0  0  0  0
    8.0617    7.6880    0.4544 N   0  0  0  0  0  0  0  0  0  0  0  0
    6.7014    0.4677    4.5900 C   0  0  2  0  0  0  0  0  0  0  0  0
    7.5382   -0.1299    5.6309 O   0  0  0  0  0  0  0  0  0  0  0  0
    8.0734   -3.7288    7.0302 C   0  0  1  0  0  0  0  0  0  0  0  0
    6.7433   -4.0451    7.4987 O   0  0  0  0  0  0  0  0  0  0  0  0
    3.2494    5.8510    1.0004 C   0  0  2  0  0  0  0  0  0  0  0  0
    2.5177    7.0119    0.6822 O   0  0  0  0  0  0  0  0  0  0  0  0
    7.8225    5.5570    1.7537 C   0  0  2  0  0  0  0  0  0  0  0  0
    7.2892    0.2181    3.1909 C   0  0  2  0  0  0  0  0  0  0  0  0
    8.1249    1.3548    2.9862 O   0  0  0  0  0  0  0  0  0  0  0  0
    8.3135   -4.4089    5.5993 C   0  0  2  0  0  0  0  0  0  0  0  0
    9.7019   -4.2883    5.2923 O   0  0  0  0  0  0  0  0  0  0  0  0
    4.3022    6.1501    2.1192 C   0  0  2  0  0  0  0  0  0  0  0  0
    5.0546    4.9334    2.4247 O   0  0  0  0  0  0  0  0  0  0  0  0
    8.5330    4.3291    2.3644 C   0  0  2  0  0  0  0  0  0  0  0  0
    7.5190    3.6592    3.1630 O   0  0  0  0  0  0  0  0  0  0  0  0
    6.2350    0.0836    2.0486 C   0  0  0  0  0  0  0  0  0  0  0  0
    5.3530   -0.9944    2.3469 O   0  0  0  0  0  0  0  0  0  0  0  0
    7.4466   -3.6969    4.4930 C   0  0  1  0  0  0  0  0  0  0  0  0
    7.8305   -2.2750    4.5246 O   0  0  0  0  0  0  0  0  0  0  0  0
    3.6691    6.6681    3.3899 C   0  0  0  0  0  0  0  0  0  0  0  0
    4.6637    6.9818    4.3342 O   0  0  0  0  0  0  0  0  0  0  0  0
    9.7478    4.7932    3.2725 C   0  0  1  0  0  0  0  0  0  0  0  0
   10.4957    3.6570    3.7144 O   0  0  0  0  0  0  0  0  0  0  0  0
    7.6493   -4.2886    3.0311 C   0  0  0  0  0  0  0  0  0  0  0  0
    6.7654   -3.7165    1.9784 N   0  0  0  0  0  0  0  0  0  0  0  0
  1  2  1  6  0  0  0
  1  7  1  0  0  0  0
  1 30  1  0  0  0  0
  3  4  1  1  0  0  0
  3  9  1  0  0  0  0
  3 39  1  0  0  0  0
  5 10  1  0  0  0  0
  5 26  1  0  0  0  0
  5 32  1  6  0  0  0
  6 12  1  0  0  0  0
  6 36  1  0  0  0  0
  6 19  1  6  0  0  0
  7  8  1  6  0  0  0
  7 14  1  0  0  0  0
  9 16  1  0  0  0  0
 10 11  1  1  0  0  0
 10 18  1  0  0  0  0
 12 13  1  6  0  0  0
 12 20  1  0  0  0  0
 14 15  1  6  0  0  0
 14 22  1  0  0  0  0
 16 17  1  1  0  0  0
 16 24  1  0  0  0  0
 18 19  1  1  0  0  0
 18 25  1  0  0  0  0
 20 21  1  6  0  0  0
 20 27  1  0  0  0  0
 22 23  1  6  0  0  0
 22 29  1  0  0  0  0
 24  2  1  6  0  0  0
 24 31  1  0  0  0  0
 25 26  1  0  0  0  0
 25 33  1  6  0  0  0
 27 28  1  6  0  0  0
 27 35  1  0  0  0  0
 29 30  1  0  0  0  0
 29 37  1  1  0  0  0
 31 32  1  1  0  0  0
 31 39  1  0  0  0  0
 33 34  1  0  0  0  0
 35 36  1  0  0  0  0
 35 41  1  6  0  0  0
 37 38  1  0  0  0  0
 39 40  1  6  0  0  0
 41 42  1  0  0  0  0
M  END
>  <CHROM.1>
174.91044028,-175.92182408,164.90950987,-174.92604644,-58.77577456,-177.09056654
179.28918160,175.53907169,175.20200637,7.04654639,2.18665754,3.14855811,1.79326718
-0.44519575,-0.32815006

>  <Name>
ligand

>  <RI>
0

>  <Rbt.Current_Directory>
/home/itssahil/PROJECTS/Mol_Feturizer/Test_systems_manuscript/rnas/2o3w

>  <Rbt.Executable>
rbdock ($Id: //depot/dev/client3/rdock/2013.1/src/exe/rbdock.cxx#4 $)

>  <Rbt.Library>
libRbt.so (2013.1, Build901 2013/11/27)

>  <Rbt.Parameter_File>
/export/apps/rDock/src/rDock_2013.1_src/data/scripts/dock_solv.prm

>  <Rbt.Receptor>
prm/pocket_docking_4.prm

>  <SCORE>
-9.94197

>  <SCORE.INTER>
3.06369

>  <SCORE.INTER.CONST>
1

>  <SCORE.INTER.POLAR>
0

>  <SCORE.INTER.ROT>
9

>  <SCORE.INTER.SOLV>
11.0012

>  <SCORE.INTER.VDW>
-11.2246

>  <SCORE.INTER.norm>
0.0729449

>  <SCORE.INTRA>
-13.0057

>  <SCORE.INTRA.DIHEDRAL>
-26.1357

>  <SCORE.INTRA.DIHEDRAL.0>
27.8999

>  <SCORE.INTRA.POLAR>
0

>  <SCORE.INTRA.POLAR.0>
0

>  <SCORE.INTRA.REPUL>
0

>  <SCORE.INTRA.REPUL.0>
0

>  <SCORE.INTRA.SOLV>
-4.35446

>  <SCORE.INTRA.SOLV.lig_0>
-104.479

>  <SCORE.INTRA.VDW>
2.23942

>  <SCORE.INTRA.VDW.0>
-6.17816

>  <SCORE.INTRA.norm>
-0.309659

>  <SCORE.RESTR>
0

>  <SCORE.RESTR.CAVITY>
0

>  <SCORE.RESTR.norm>
0

>  <SCORE.SYSTEM>
0

>  <SCORE.SYSTEM.CONST>
0

>  <SCORE.SYSTEM.DIHEDRAL>
0

>  <SCORE.SYSTEM.SOLV>
0

>  <SCORE.SYSTEM.norm>
0

>  <SCORE.heavy>
42

>  <SCORE.norm>
-0.236714

>  <RMSD>
9.043

$$$$
ligand
 OpenBabel02271912133D
libRbt.so/2013.1/901 2013/11/27
 42 45  0  0  0  0  0  0  0  0999 V2000
   10.0422    5.1738    3.2055 C   0  0  2  0  0  0  0  0  0  0  0  0
   10.6924    3.9432    3.5661 O   0  0  0  0  0  0  0  0  0  0  0  0
   13.7623    3.0955    6.5077 C   0  0  2  0  0  0  0  0  0  0  0  0
   14.4964    2.9324    7.7980 N   0  0  0  0  0  0  0  0  0  0  0  0
   10.1179    0.3313    5.1991 C   0  0  1  0  0  0  0  0  0  0  0  0
    8.4095   -3.6570    4.3905 C   0  0  1  0  0  0  0  0  0  0  0  0
    8.5554    5.0518    3.6559 C   0  0  2  0  0  0  0  0  0  0  0  0
    8.4246    4.6028    5.0530 N   0  0  0  0  0  0  0  0  0  0  0  0
   13.3955    4.6113    6.2437 C   0  0  0  0  0  0  0  0  0  0  0  0
    8.7173   -0.1197    5.7147 C   0  0  2  0  0  0  0  0  0  0  0  0
    8.7017   -0.5153    7.1083 O   0  0  0  0  0  0  0  0  0  0  0  0
    8.8041   -5.0533    4.9935 C   0  0  2  0  0  0  0  0  0  0  0  0
   10.2776   -5.1378    5.2233 N   0  0  0  0  0  0  0  0  0  0  0  0
    7.7632    4.0534    2.7918 C   0  0  1  0  0  0  0  0  0  0  0  0
    6.3993    4.0033    3.2139 O   0  0  0  0  0  0  0  0  0  0  0  0
   12.6453    4.7217    4.8626 C   0  0  2  0  0  0  0  0  0  0  0  0
   12.2973    6.1393    4.5747 N   0  0  0  0  0  0  0  0  0  0  0  0
    8.3711   -1.2198    4.7101 C   0  0  2  0  0  0  0  0  0  0  0  0
    8.8381   -2.5298    5.1646 O   0  0  0  0  0  0  0  0  0  0  0  0
    8.3080   -6.2144    4.0074 C   0  0  1  0  0  0  0  0  0  0  0  0
    6.8715   -6.3344    4.1124 O   0  0  0  0  0  0  0  0  0  0  0  0
    7.8791    4.4543    1.3035 C   0  0  2  0  0  0  0  0  0  0  0  0
    7.1452    3.5594    0.5004 O   0  0  0  0  0  0  0  0  0  0  0  0
   11.3315    3.8444    4.8708 C   0  0  2  0  0  0  0  0  0  0  0  0
    9.0459   -0.8155    3.3885 C   0  0  2  0  0  0  0  0  0  0  0  0
   10.2030   -0.1049    3.8230 O   0  0  0  0  0  0  0  0  0  0  0  0
    8.7133   -5.9487    2.4800 C   0  0  2  0  0  0  0  0  0  0  0  0
   10.1299   -6.0883    2.3796 O   0  0  0  0  0  0  0  0  0  0  0  0
    9.3890    4.4564    0.8915 C   0  0  2  0  0  0  0  0  0  0  0  0
   10.1305    5.3846    1.7449 O   0  0  0  0  0  0  0  0  0  0  0  0
   11.6069    2.3564    5.1792 C   0  0  2  0  0  0  0  0  0  0  0  0
   10.2947    1.7480    5.3287 O   0  0  0  0  0  0  0  0  0  0  0  0
    8.1691    0.0639    2.4439 C   0  0  0  0  0  0  0  0  0  0  0  0
    7.0064   -0.6668    2.0659 O   0  0  0  0  0  0  0  0  0  0  0  0
    8.2747   -4.5034    2.0319 C   0  0  1  0  0  0  0  0  0  0  0  0
    8.9235   -3.5699    2.9688 O   0  0  0  0  0  0  0  0  0  0  0  0
    9.5967    4.8454   -0.5540 C   0  0  0  0  0  0  0  0  0  0  0  0
    9.1408    6.1582   -0.7731 O   0  0  0  0  0  0  0  0  0  0  0  0
   12.4459    2.2195    6.5183 C   0  0  1  0  0  0  0  0  0  0  0  0
   12.8298    0.8570    6.7229 O   0  0  0  0  0  0  0  0  0  0  0  0
    8.6693   -4.1421    0.5344 C   0  0  0  0  0  0  0  0  0  0  0  0
    8.0239   -4.9738   -0.5183 N   0  0  0  0  0  0  0  0  0  0  0  0
  1  2  1  6  0  0  0
  1  7  1  0  0  0  0
  1 30  1  0  0  0  0
  3  4  1  1  0  0  0
  3  9  1  0  0  0  0
  3 39  1  0  0  0  0
  5 10  1  0  0  0  0
  5 26  1  0  0  0  0
  5 32  1  6  0  0  0
  6 12  1  0  0  0  0
  6 36  1  0  0  0  0
  6 19  1  1  0  0  0
  7  8  1  1  0  0  0
  7 14  1  0  0  0  0
  9 16  1  0  0  0  0
 10 11  1  1  0  0  0
 10 18  1  0  0  0  0
 12 13  1  6  0  0  0
 12 20  1  0  0  0  0
 14 15  1  1  0  0  0
 14 22  1  0  0  0  0
 16 17  1  1  0  0  0
 16 24  1  0  0  0  0
 18 19  1  1  0  0  0
 18 25  1  0  0  0  0
 20 21  1  6  0  0  0
 20 27  1  0  0  0  0
 22 23  1  6  0  0  0
 22 29  1  0  0  0  0
 24  2  1  6  0  0  0
 24 31  1  0  0  0  0
 25 26  1  0  0  0  0
 25 33  1  6  0  0  0
 27 28  1  1  0  0  0
 27 35  1  0  0  0  0
 29 30  1  0  0  0  0
 29 37  1  6  0  0  0
 31 32  1  1  0  0  0
 31 39  1  0  0  0  0
 33 34  1  0  0  0  0
 35 36  1  0  0  0  0
 35 41  1  6  0  0  0
 37 38  1  0  0  0  0
 39 40  1  6  0  0  0
 41 42  1  0  0  0  0
M  END
>  <CHROM.1>
-90.95213984,-72.04615507,171.81469405,-173.89003933,-61.80681873,62.27987048
159.95099412,166.95890846,63.60448407,9.61188028,0.63269840,3.67693982,1.23346628
-0.91129970,-0.24233920

>  <Name>
ligand

>  <RI>
0

>  <Rbt.Current_Directory>
/home/itssahil/PROJECTS/Mol_Feturizer/Test_systems_manuscript/rnas/2o3w

>  <Rbt.Executable>
rbdock ($Id: //depot/dev/client3/rdock/2013.1/src/exe/rbdock.cxx#4 $)

>  <Rbt.Library>
libRbt.so (2013.1, Build901 2013/11/27)

>  <Rbt.Parameter_File>
/export/apps/rDock/src/rDock_2013.1_src/data/scripts/dock_solv.prm

>  <Rbt.Receptor>
prm/pocket_docking_6.prm

>  <SCORE>
-8.19931

>  <SCORE.INTER>
1.3186

>  <SCORE.INTER.CONST>
1

>  <SCORE.INTER.POLAR>
0

>  <SCORE.INTER.ROT>
9

>  <SCORE.INTER.SOLV>
7.75817

>  <SCORE.INTER.VDW>
-11.307

>  <SCORE.INTER.norm>
0.0313952

>  <SCORE.INTRA>
-9.5179

>  <SCORE.INTRA.DIHEDRAL>
-20.0852

>  <SCORE.INTRA.DIHEDRAL.0>
27.8999

>  <SCORE.INTRA.POLAR>
0

>  <SCORE.INTRA.POLAR.0>
0

>  <SCORE.INTRA.REPUL>
0

>  <SCORE.INTRA.REPUL.0>
0

>  <SCORE.INTRA.SOLV>
-2.35804

>  <SCORE.INTRA.SOLV.lig_0>
-104.479

>  <SCORE.INTRA.VDW>
1.70372

>  <SCORE.INTRA.VDW.0>
-6.17816

>  <SCORE.INTRA.norm>
-0.226617

>  <SCORE.RESTR>
0

>  <SCORE.RESTR.CAVITY>
0

>  <SCORE.RESTR.norm>
0

>  <SCORE.SYSTEM>
0

>  <SCORE.SYSTEM.CONST>
0

>  <SCORE.SYSTEM.DIHEDRAL>
0

>  <SCORE.SYSTEM.SOLV>
0

>  <SCORE.SYSTEM.norm>
0

>  <SCORE.heavy>
42

>  <SCORE.norm>
-0.195222

>  <RMSD>
9.052

$$$$
ligand
 OpenBabel02271912133D
libRbt.so/2013.1/901 2013/11/27
 42 45  0  0  0  0  0  0  0  0999 V2000
    4.4029    7.6121    2.2534 C   0  0  2  0  0  0  0  0  0  0  0  0
    5.1682    6.4927    1.7755 O   0  0  0  0  0  0  0  0  0  0  0  0
    9.3115    5.3526    2.3496 C   0  0  2  0  0  0  0  0  0  0  0  0
   10.6072    4.9477    2.9722 N   0  0  0  0  0  0  0  0  0  0  0  0
    5.8620    2.4217    2.7106 C   0  0  1  0  0  0  0  0  0  0  0  0
    6.6393   -0.4398    3.2299 C   0  0  1  0  0  0  0  0  0  0  0  0
    2.9276    7.3771    1.8101 C   0  0  2  0  0  0  0  0  0  0  0  0
    2.4425    6.0299    2.1568 N   0  0  0  0  0  0  0  0  0  0  0  0
    8.8742    6.7972    2.8225 C   0  0  0  0  0  0  0  0  0  0  0  0
    4.5746    1.7427    3.2694 C   0  0  2  0  0  0  0  0  0  0  0  0
    4.5955    1.5292    4.7023 O   0  0  0  0  0  0  0  0  0  0  0  0
    7.4962   -1.7544    3.1518 C   0  0  2  0  0  0  0  0  0  0  0  0
    6.9942   -2.7766    4.1183 N   0  0  0  0  0  0  0  0  0  0  0  0
    2.7412    7.5395    0.2903 C   0  0  1  0  0  0  0  0  0  0  0  0
    1.3698    7.3550   -0.0651 O   0  0  0  0  0  0  0  0  0  0  0  0
    7.5171    7.1760    2.1172 C   0  0  2  0  0  0  0  0  0  0  0  0
    7.0825    8.5380    2.5289 N   0  0  0  0  0  0  0  0  0  0  0  0
    4.5100    0.4777    2.4123 C   0  0  2  0  0  0  0  0  0  0  0  0
    5.2325   -0.6317    3.0352 O   0  0  0  0  0  0  0  0  0  0  0  0
    9.0332   -1.4012    3.4342 C   0  0  1  0  0  0  0  0  0  0  0  0
    9.5765   -0.7229    2.2794 O   0  0  0  0  0  0  0  0  0  0  0  0
    3.2552    8.9302   -0.1465 C   0  0  2  0  0  0  0  0  0  0  0  0
    3.0762    9.1012   -1.5333 O   0  0  0  0  0  0  0  0  0  0  0  0
    6.3907    6.1285    2.4778 C   0  0  2  0  0  0  0  0  0  0  0  0
    5.1279    0.8527    1.0547 C   0  0  2  0  0  0  0  0  0  0  0  0
    6.0880    1.8475    1.4028 O   0  0  0  0  0  0  0  0  0  0  0  0
    9.2325   -0.4877    4.7355 C   0  0  2  0  0  0  0  0  0  0  0  0
    8.9193   -1.2871    5.8753 O   0  0  0  0  0  0  0  0  0  0  0  0
    4.7675    9.0588    0.2359 C   0  0  2  0  0  0  0  0  0  0  0  0
    4.9283    8.8682    1.6772 O   0  0  0  0  0  0  0  0  0  0  0  0
    6.7733    4.6820    2.0949 C   0  0  2  0  0  0  0  0  0  0  0  0
    5.7239    3.8476    2.6580 O   0  0  0  0  0  0  0  0  0  0  0  0
    4.1158    1.3949   -0.0017 C   0  0  0  0  0  0  0  0  0  0  0  0
    3.6216    2.6603    0.4264 O   0  0  0  0  0  0  0  0  0  0  0  0
    8.2904    0.7738    4.6786 C   0  0  1  0  0  0  0  0  0  0  0  0
    6.9182    0.2541    4.5466 O   0  0  0  0  0  0  0  0  0  0  0  0
    5.3533   10.3970   -0.1509 C   0  0  0  0  0  0  0  0  0  0  0  0
    6.7222   10.4384    0.1712 O   0  0  0  0  0  0  0  0  0  0  0  0
    8.1841    4.3052    2.7139 C   0  0  1  0  0  0  0  0  0  0  0  0
    8.6066    3.0251    2.2359 O   0  0  0  0  0  0  0  0  0  0  0  0
    8.3992    1.7212    5.9510 C   0  0  0  0  0  0  0  0  0  0  0  0
    8.9045    3.0965    5.6864 N   0  0  0  0  0  0  0  0  0  0  0  0
  1  2  1  6  0  0  0
  1  7  1  0  0  0  0
  1 30  1  0  0  0  0
  3  4  1  1  0  0  0
  3  9  1  0  0  0  0
  3 39  1  0  0  0  0
  5 10  1  0  0  0  0
  5 26  1  0  0  0  0
  5 32  1  6  0  0  0
  6 12  1  0  0  0  0
  6 36  1  0  0  0  0
  6 19  1  1  0  0  0
  7  8  1  6  0  0  0
  7 14  1  0  0  0  0
  9 16  1  0  0  0  0
 10 11  1  1  0  0  0
 10 18  1  0  0  0  0
 12 13  1  1  0  0  0
 12 20  1  0  0  0  0
 14 15  1  1  0  0  0
 14 22  1  0  0  0  0
 16 17  1  1  0  0  0
 16 24  1  0  0  0  0
 18 19  1  1  0  0  0
 18 25  1  0  0  0  0
 20 21  1  6  0  0  0
 20 27  1  0  0  0  0
 22 23  1  6  0  0  0
 22 29  1  0  0  0  0
 24  2  1  6  0  0  0
 24 31  1  0  0  0  0
 25 26  1  0  0  0  0
 25 33  1  6  0  0  0
 27 28  1  1  0  0  0
 27 35  1  0  0  0  0
 29 30  1  0  0  0  0
 29 37  1  1  0  0  0
 31 32  1  1  0  0  0
 31 39  1  0  0  0  0
 33 34  1  0  0  0  0
 35 36  1  0  0  0  0
 35 41  1  1  0  0  0
 37 38  1  0  0  0  0
 39 40  1  6  0  0  0
 41 42  1  0  0  0  0
M  END
>  <CHROM.1>
-154.04348968,-74.90284038,-62.09922655,-148.92858311,67.51174690,-177.86262253
-168.75658090,-176.30607119,116.48024081,6.17947390,3.88787982,2.37107076
1.92795827,-0.40217325,-0.20949411

>  <Name>
ligand

>  <RI>
0

>  <Rbt.Current_Directory>
/home/itssahil/PROJECTS/Mol_Feturizer/Test_systems_manuscript/rnas/2o3w

>  <Rbt.Executable>
rbdock ($Id: //depot/dev/client3/rdock/2013.1/src/exe/rbdock.cxx#4 $)

>  <Rbt.Library>
libRbt.so (2013.1, Build901 2013/11/27)

>  <Rbt.Parameter_File>
/export/apps/rDock/src/rDock_2013.1_src/data/scripts/dock_solv.prm

>  <Rbt.Receptor>
prm/pocket_docking_2.prm

>  <SCORE>
3.2226

>  <SCORE.INTER>
3.67763

>  <SCORE.INTER.CONST>
1

>  <SCORE.INTER.POLAR>
0

>  <SCORE.INTER.ROT>
9

>  <SCORE.INTER.SOLV>
9.78547

>  <SCORE.INTER.VDW>
-10.4101

>  <SCORE.INTER.norm>
0.0875626

>  <SCORE.INTRA>
-2.25338

>  <SCORE.INTRA.DIHEDRAL>
-13.997

>  <SCORE.INTRA.DIHEDRAL.0>
27.8999

>  <SCORE.INTRA.POLAR>
0

>  <SCORE.INTRA.POLAR.0>
0

>  <SCORE.INTRA.REPUL>
0.129544

>  <SCORE.INTRA.REPUL.0>
0

>  <SCORE.INTRA.SOLV>
3.0222

>  <SCORE.INTRA.SOLV.lig_0>
-104.479

>  <SCORE.INTRA.VDW>
2.58629

>  <SCORE.INTRA.VDW.0>
-6.17816

>  <SCORE.INTRA.norm>
-0.0536519

>  <SCORE.RESTR>
1.79835

>  <SCORE.RESTR.CAVITY>
1.79835

>  <SCORE.RESTR.norm>
0.0428179

>  <SCORE.SYSTEM>
0

>  <SCORE.SYSTEM.CONST>
0

>  <SCORE.SYSTEM.DIHEDRAL>
0

>  <SCORE.SYSTEM.SOLV>
0

>  <SCORE.SYSTEM.norm>
0

>  <SCORE.heavy>
42

>  <SCORE.norm>
0.0767286

>  <RMSD>
9.053

$$$$
ligand
 OpenBabel02271912133D
libRbt.so/2013.1/901 2013/11/27
 42 45  0  0  0  0  0  0  0  0999 V2000
    8.0403    3.7414    3.6615 C   0  0  2  0  0  0  0  0  0  0  0  0
    9.2521    4.5137    3.6141 O   0  0  0  0  0  0  0  0  0  0  0  0
   13.1345    3.7134    5.3701 C   0  0  2  0  0  0  0  0  0  0  0  0
   14.2330    3.4601    6.3496 N   0  0  0  0  0  0  0  0  0  0  0  0
    9.7376    0.5856    4.8311 C   0  0  1  0  0  0  0  0  0  0  0  0
    8.6325   -3.7158    4.4373 C   0  0  1  0  0  0  0  0  0  0  0  0
    7.1425    4.2309    2.4858 C   0  0  2  0  0  0  0  0  0  0  0  0
    7.8666    4.2737    1.2034 N   0  0  0  0  0  0  0  0  0  0  0  0
   12.5346    5.1666    5.5435 C   0  0  0  0  0  0  0  0  0  0  0  0
    8.5165   -0.0995    5.5169 C   0  0  2  0  0  0  0  0  0  0  0  0
    8.7328   -0.4307    6.9107 O   0  0  0  0  0  0  0  0  0  0  0  0
    9.4357   -4.9621    4.9573 C   0  0  2  0  0  0  0  0  0  0  0  0
   10.9033   -4.7737    4.7537 N   0  0  0  0  0  0  0  0  0  0  0  0
    6.5825    5.6447    2.7277 C   0  0  1  0  0  0  0  0  0  0  0  0
    5.7354    6.0360    1.6459 O   0  0  0  0  0  0  0  0  0  0  0  0
   11.3998    5.3815    4.4718 C   0  0  2  0  0  0  0  0  0  0  0  0
   10.8218    6.7467    4.5968 N   0  0  0  0  0  0  0  0  0  0  0  0
    8.2792   -1.2873    4.5831 C   0  0  2  0  0  0  0  0  0  0  0  0
    9.0376   -2.4646    5.0067 O   0  0  0  0  0  0  0  0  0  0  0  0
    8.9146   -6.2778    4.2062 C   0  0  1  0  0  0  0  0  0  0  0  0
    7.6134   -6.6292    4.7278 O   0  0  0  0  0  0  0  0  0  0  0  0
    5.8273    5.6765    4.0759 C   0  0  2  0  0  0  0  0  0  0  0  0
    5.2940    6.9602    4.3043 O   0  0  0  0  0  0  0  0  0  0  0  0
   10.2575    4.3042    4.6465 C   0  0  2  0  0  0  0  0  0  0  0  0
    8.7120   -0.8197    3.1832 C   0  0  2  0  0  0  0  0  0  0  0  0
    9.7515    0.1147    3.4639 O   0  0  0  0  0  0  0  0  0  0  0  0
    8.8228   -6.0918    2.6173 C   0  0  2  0  0  0  0  0  0  0  0  0
   10.1558   -5.9981    2.1166 O   0  0  0  0  0  0  0  0  0  0  0  0
    6.8134    5.2751    5.2231 C   0  0  2  0  0  0  0  0  0  0  0  0
    7.3603    3.9445    4.9585 O   0  0  0  0  0  0  0  0  0  0  0  0
   10.7809    2.8547    4.5453 C   0  0  2  0  0  0  0  0  0  0  0  0
    9.6513    2.0144    4.9095 O   0  0  0  0  0  0  0  0  0  0  0  0
    7.5825   -0.1634    2.3302 C   0  0  0  0  0  0  0  0  0  0  0  0
    7.0740    0.9750    3.0190 O   0  0  0  0  0  0  0  0  0  0  0  0
    8.0118   -4.7903    2.2561 C   0  0  1  0  0  0  0  0  0  0  0  0
    8.7061   -3.6766    2.9254 O   0  0  0  0  0  0  0  0  0  0  0  0
    6.1539    5.2736    6.5828 C   0  0  0  0  0  0  0  0  0  0  0  0
    5.0901    4.3532    6.6046 O   0  0  0  0  0  0  0  0  0  0  0  0
   11.9903    2.6365    5.5480 C   0  0  1  0  0  0  0  0  0  0  0  0
   12.5712    1.3450    5.3468 O   0  0  0  0  0  0  0  0  0  0  0  0
    7.9000   -4.5093    0.6949 C   0  0  0  0  0  0  0  0  0  0  0  0
    7.0160   -3.3755    0.3081 N   0  0  0  0  0  0  0  0  0  0  0  0
  1  2  1  1  0  0  0
  1  7  1  0  0  0  0
  1 30  1  0  0  0  0
  3  4  1  1  0  0  0
  3  9  1  0  0  0  0
  3 39  1  0  0  0  0
  5 10  1  0  0  0  0
  5 26  1  0  0  0  0
  5 32  1  6  0  0  0
  6 12  1  0  0  0  0
  6 36  1  0  0  0  0
  6 19  1  1  0  0  0
  7  8  1  6  0  0  0
  7 14  1  0  0  0  0
  9 16  1  0  0  0  0
 10 11  1  1  0  0  0
 10 18  1  0  0  0  0
 12 13  1  6  0  0  0
 12 20  1  0  0  0  0
 14 15  1  6  0  0  0
 14 22  1  0  0  0  0
 16 17  1  1  0  0  0
 16 24  1  0  0  0  0
 18 19  1  1  0  0  0
 18 25  1  0  0  0  0
 20 21  1  1  0  0  0
 20 27  1  0  0  0  0
 22 23  1  1  0  0  0
 22 29  1  0  0  0  0
 24  2  1  6  0  0  0
 24 31  1  0  0  0  0
 25 26  1  0  0  0  0
 25 33  1  1  0  0  0
 27 28  1  1  0  0  0
 27 35  1  0  0  0  0
 29 30  1  0  0  0  0
 29 37  1  1  0  0  0
 31 32  1  1  0  0  0
 31 39  1  0  0  0  0
 33 34  1  0  0  0  0
 35 36  1  0  0  0  0
 35 41  1  6  0  0  0
 37 38  1  0  0  0  0
 39 40  1  6  0  0  0
 41 42  1  0  0  0  0
M  END
>  <CHROM.1>
177.25130287,-173.31148890,164.00597888,-177.83746358,59.29385205,60.25060849
175.27958346,169.33000602,173.48950084,8.82757307,0.92854984,4.08274074,1.62121441
-0.39615620,0.12517454

>  <Name>
ligand

>  <RI>
0

>  <Rbt.Current_Directory>
/home/itssahil/PROJECTS/Mol_Feturizer/Test_systems_manuscript/rnas/2o3w

>  <Rbt.Executable>
rbdock ($Id: //depot/dev/client3/rdock/2013.1/src/exe/rbdock.cxx#4 $)

>  <Rbt.Library>
libRbt.so (2013.1, Build901 2013/11/27)

>  <Rbt.Parameter_File>
/export/apps/rDock/src/rDock_2013.1_src/data/scripts/dock_solv.prm

>  <Rbt.Receptor>
prm/pocket_docking_4.prm

>  <SCORE>
-9.08848

>  <SCORE.INTER>
3.86464

>  <SCORE.INTER.CONST>
1

>  <SCORE.INTER.POLAR>
0

>  <SCORE.INTER.ROT>
9

>  <SCORE.INTER.SOLV>
8.08556

>  <SCORE.INTER.VDW>
-9.71876

>  <SCORE.INTER.norm>
0.0920153

>  <SCORE.INTRA>
-12.9578

>  <SCORE.INTRA.DIHEDRAL>
-25.4769

>  <SCORE.INTRA.DIHEDRAL.0>
27.8999

>  <SCORE.INTRA.POLAR>
0

>  <SCORE.INTRA.POLAR.0>
0

>  <SCORE.INTRA.REPUL>
0

>  <SCORE.INTRA.REPUL.0>
0

>  <SCORE.INTRA.SOLV>
-3.91593

>  <SCORE.INTRA.SOLV.lig_0>
-104.479

>  <SCORE.INTRA.VDW>
1.73868

>  <SCORE.INTRA.VDW.0>
-6.17816

>  <SCORE.INTRA.norm>
-0.308518

>  <SCORE.RESTR>
0.00462741

>  <SCORE.RESTR.CAVITY>
0.00462741

>  <SCORE.RESTR.norm>
0.000110176

>  <SCORE.SYSTEM>
0

>  <SCORE.SYSTEM.CONST>
0

>  <SCORE.SYSTEM.DIHEDRAL>
0

>  <SCORE.SYSTEM.SOLV>
0

>  <SCORE.SYSTEM.norm>
0

>  <SCORE.heavy>
42

>  <SCORE.norm>
-0.216392

>  <RMSD>
9.055

$$$$
ligand
 OpenBabel02271912133D
libRbt.so/2013.1/901 2013/11/27
 42 45  0  0  0  0  0  0  0  0999 V2000
    8.6883    6.9031    1.8763 C   0  0  2  0  0  0  0  0  0  0  0  0
    8.0554    5.6320    2.1021 O   0  0  0  0  0  0  0  0  0  0  0  0
    4.0555    6.7557    0.8635 C   0  0  2  0  0  0  0  0  0  0  0  0
    2.5858    6.7386    0.5985 N   0  0  0  0  0  0  0  0  0  0  0  0
    5.4099    4.9035    4.6227 C   0  0  1  0  0  0  0  0  0  0  0  0
    4.5395    0.8839    4.3547 C   0  0  1  0  0  0  0  0  0  0  0  0
   10.2104    6.6268    1.6893 C   0  0  2  0  0  0  0  0  0  0  0  0
   10.4732    5.5579    0.7101 N   0  0  0  0  0  0  0  0  0  0  0  0
    4.8045    5.6505    0.0154 C   0  0  0  0  0  0  0  0  0  0  0  0
    6.0438    3.5826    4.0896 C   0  0  2  0  0  0  0  0  0  0  0  0
    5.4306    3.0826    2.8759 O   0  0  0  0  0  0  0  0  0  0  0  0
    3.0935    0.2870    4.2086 C   0  0  2  0  0  0  0  0  0  0  0  0
    2.5734   -0.1801    5.5286 N   0  0  0  0  0  0  0  0  0  0  0  0
   10.8932    6.2040    3.0031 C   0  0  1  0  0  0  0  0  0  0  0  0
   12.2916    6.0000    2.7937 O   0  0  0  0  0  0  0  0  0  0  0  0
    6.3482    5.7327    0.3199 C   0  0  2  0  0  0  0  0  0  0  0  0
    7.0872    4.7142   -0.4739 N   0  0  0  0  0  0  0  0  0  0  0  0
    5.9192    2.6773    5.3161 C   0  0  2  0  0  0  0  0  0  0  0  0
    4.6547    1.9412    5.3152 O   0  0  0  0  0  0  0  0  0  0  0  0
    3.1207   -0.9104    3.1445 C   0  0  1  0  0  0  0  0  0  0  0  0
    3.2571   -0.3533    1.8178 O   0  0  0  0  0  0  0  0  0  0  0  0
   10.6352    7.2759    4.0865 C   0  0  2  0  0  0  0  0  0  0  0  0
   11.2681    6.9117    5.2912 O   0  0  0  0  0  0  0  0  0  0  0  0
    6.6250    5.5084    1.8591 C   0  0  2  0  0  0  0  0  0  0  0  0
    6.0241    3.6032    6.5396 C   0  0  2  0  0  0  0  0  0  0  0  0
    5.4652    4.8261    6.0656 O   0  0  0  0  0  0  0  0  0  0  0  0
    4.3071   -1.9537    3.4123 C   0  0  2  0  0  0  0  0  0  0  0  0
    3.9975   -2.6592    4.6134 O   0  0  0  0  0  0  0  0  0  0  0  0
    9.0918    7.4282    4.2966 C   0  0  2  0  0  0  0  0  0  0  0  0
    8.4570    7.7967    3.0312 O   0  0  0  0  0  0  0  0  0  0  0  0
    5.8780    6.5201    2.7556 C   0  0  2  0  0  0  0  0  0  0  0  0
    6.0947    6.0568    4.1168 O   0  0  0  0  0  0  0  0  0  0  0  0
    7.4721    3.8197    7.0789 C   0  0  0  0  0  0  0  0  0  0  0  0
    8.0190    2.5655    7.4748 O   0  0  0  0  0  0  0  0  0  0  0  0
    5.6844   -1.2032    3.5603 C   0  0  1  0  0  0  0  0  0  0  0  0
    5.5088   -0.2387    4.6600 O   0  0  0  0  0  0  0  0  0  0  0  0
    8.7465    8.4658    5.3397 C   0  0  0  0  0  0  0  0  0  0  0  0
    7.3594    8.4744    5.5745 O   0  0  0  0  0  0  0  0  0  0  0  0
    4.3315    6.5278    2.4038 C   0  0  1  0  0  0  0  0  0  0  0  0
    3.6666    7.5687    3.1251 O   0  0  0  0  0  0  0  0  0  0  0  0
    6.9157   -2.1630    3.8624 C   0  0  0  0  0  0  0  0  0  0  0  0
    6.8032   -2.9815    5.1010 N   0  0  0  0  0  0  0  0  0  0  0  0
  1  2  1  1  0  0  0
  1  7  1  0  0  0  0
  1 30  1  0  0  0  0
  3  4  1  1  0  0  0
  3  9  1  0  0  0  0
  3 39  1  0  0  0  0
  5 10  1  0  0  0  0
  5 26  1  0  0  0  0
  5 32  1  6  0  0  0
  6 12  1  0  0  0  0
  6 36  1  0  0  0  0
  6 19  1  1  0  0  0
  7  8  1  6  0  0  0
  7 14  1  0  0  0  0
  9 16  1  0  0  0  0
 10 11  1  6  0  0  0
 10 18  1  0  0  0  0
 12 13  1  1  0  0  0
 12 20  1  0  0  0  0
 14 15  1  6  0  0  0
 14 22  1  0  0  0  0
 16 17  1  6  0  0  0
 16 24  1  0  0  0  0
 18 19  1  6  0  0  0
 18 25  1  0  0  0  0
 20 21  1  6  0  0  0
 20 27  1  0  0  0  0
 22 23  1  1  0  0  0
 22 29  1  0  0  0  0
 24  2  1  6  0  0  0
 24 31  1  0  0  0  0
 25 26  1  0  0  0  0
 25 33  1  6  0  0  0
 27 28  1  1  0  0  0
 27 35  1  0  0  0  0
 29 30  1  0  0  0  0
 29 37  1  1  0  0  0
 31 32  1  1  0  0  0
 31 39  1  0  0  0  0
 33 34  1  0  0  0  0
 35 36  1  0  0  0  0
 35 41  1  1  0  0  0
 37 38  1  0  0  0  0
 39 40  1  1  0  0  0
 41 42  1  0  0  0  0
M  END
>  <CHROM.1>
-159.22987942,64.53539780,72.10881034,-169.73596504,-60.44804992,-174.65706588
-74.09907775,77.05064590,-58.91213810,6.48669915,3.92291618,3.58708858,1.01582523
-0.48695018,-0.43170741

>  <Name>
ligand

>  <RI>
0

>  <Rbt.Current_Directory>
/home/itssahil/PROJECTS/Mol_Feturizer/Test_systems_manuscript/rnas/2o3w

>  <Rbt.Executable>
rbdock ($Id: //depot/dev/client3/rdock/2013.1/src/exe/rbdock.cxx#4 $)

>  <Rbt.Library>
libRbt.so (2013.1, Build901 2013/11/27)

>  <Rbt.Parameter_File>
/export/apps/rDock/src/rDock_2013.1_src/data/scripts/dock_solv.prm

>  <Rbt.Receptor>
prm/pocket_docking_4.prm

>  <SCORE>
-11.2417

>  <SCORE.INTER>
-1.29636

>  <SCORE.INTER.CONST>
1

>  <SCORE.INTER.POLAR>
0

>  <SCORE.INTER.ROT>
9

>  <SCORE.INTER.SOLV>
18.1132

>  <SCORE.INTER.VDW>
-16.502

>  <SCORE.INTER.norm>
-0.0308656

>  <SCORE.INTRA>
-9.94537

>  <SCORE.INTRA.DIHEDRAL>
-22.1366

>  <SCORE.INTRA.DIHEDRAL.0>
27.8999

>  <SCORE.INTRA.POLAR>
0

>  <SCORE.INTRA.POLAR.0>
0

>  <SCORE.INTRA.REPUL>
0

>  <SCORE.INTRA.REPUL.0>
0

>  <SCORE.INTRA.SOLV>
-1.90418

>  <SCORE.INTRA.SOLV.lig_0>
-104.479

>  <SCORE.INTRA.VDW>
2.07503

>  <SCORE.INTRA.VDW.0>
-6.17816

>  <SCORE.INTRA.norm>
-0.236795

>  <SCORE.RESTR>
0

>  <SCORE.RESTR.CAVITY>
0

>  <SCORE.RESTR.norm>
0

>  <SCORE.SYSTEM>
0

>  <SCORE.SYSTEM.CONST>
0

>  <SCORE.SYSTEM.DIHEDRAL>
0

>  <SCORE.SYSTEM.SOLV>
0

>  <SCORE.SYSTEM.norm>
0

>  <SCORE.heavy>
42

>  <SCORE.norm>
-0.26766

>  <RMSD>
9.058

$$$$
ligand
 OpenBabel02271912133D
libRbt.so/2013.1/901 2013/11/27
 42 45  0  0  0  0  0  0  0  0999 V2000
    3.1757    8.2713    1.3600 C   0  0  2  0  0  0  0  0  0  0  0  0
    3.8614    7.0076    1.3728 O   0  0  0  0  0  0  0  0  0  0  0  0
    6.2163    7.6747    4.9513 C   0  0  2  0  0  0  0  0  0  0  0  0
    7.1743    7.4970    6.0831 N   0  0  0  0  0  0  0  0  0  0  0  0
    7.5933    6.1679    1.0862 C   0  0  1  0  0  0  0  0  0  0  0  0
    8.4135    2.3058    2.0437 C   0  0  1  0  0  0  0  0  0  0  0  0
    2.0587    8.1719    0.2780 C   0  0  2  0  0  0  0  0  0  0  0  0
    1.2363    6.9586    0.4265 N   0  0  0  0  0  0  0  0  0  0  0  0
    5.0278    6.6345    5.0366 C   0  0  0  0  0  0  0  0  0  0  0  0
    6.8507    4.8085    1.2636 C   0  0  2  0  0  0  0  0  0  0  0  0
    6.7518    4.3662    2.6397 O   0  0  0  0  0  0  0  0  0  0  0  0
    9.6332    1.6342    2.7718 C   0  0  2  0  0  0  0  0  0  0  0  0
   10.5598    1.0007    1.7864 N   0  0  0  0  0  0  0  0  0  0  0  0
    2.6304    8.1496   -1.1516 C   0  0  1  0  0  0  0  0  0  0  0  0
    1.5719    8.0982   -2.1097 O   0  0  0  0  0  0  0  0  0  0  0  0
    4.0424    6.8858    3.8332 C   0  0  2  0  0  0  0  0  0  0  0  0
    2.9020    5.9319    3.8904 N   0  0  0  0  0  0  0  0  0  0  0  0
    7.6610    3.9039    0.3339 C   0  0  2  0  0  0  0  0  0  0  0  0
    8.7713    3.2635    1.0396 O   0  0  0  0  0  0  0  0  0  0  0  0
    9.0914    0.5573    3.8270 C   0  0  1  0  0  0  0  0  0  0  0  0
    8.5251    1.2559    4.9585 O   0  0  0  0  0  0  0  0  0  0  0  0
    3.5275    9.3896   -1.3676 C   0  0  2  0  0  0  0  0  0  0  0  0
    4.0454    9.3927   -2.6776 O   0  0  0  0  0  0  0  0  0  0  0  0
    4.7963    6.7285    2.4538 C   0  0  2  0  0  0  0  0  0  0  0  0
    8.1698    4.8085   -0.8011 C   0  0  2  0  0  0  0  0  0  0  0  0
    8.3189    6.0736   -0.1611 O   0  0  0  0  0  0  0  0  0  0  0  0
    7.9939   -0.4286    3.2018 C   0  0  2  0  0  0  0  0  0  0  0  0
    8.6583   -1.2729    2.2625 O   0  0  0  0  0  0  0  0  0  0  0  0
    4.6857    9.3714   -0.3151 C   0  0  2  0  0  0  0  0  0  0  0  0
    4.1232    9.3587    1.0352 O   0  0  0  0  0  0  0  0  0  0  0  0
    6.0079    7.6772    2.3220 C   0  0  2  0  0  0  0  0  0  0  0  0
    6.6789    7.2719    1.0972 O   0  0  0  0  0  0  0  0  0  0  0  0
    7.2212    4.9122   -2.0355 C   0  0  0  0  0  0  0  0  0  0  0  0
    7.8344    5.7231   -3.0332 O   0  0  0  0  0  0  0  0  0  0  0  0
    6.8536    0.3907    2.4872 C   0  0  1  0  0  0  0  0  0  0  0  0
    7.5224    1.2230    1.4722 O   0  0  0  0  0  0  0  0  0  0  0  0
    5.6126   10.5573   -0.4498 C   0  0  0  0  0  0  0  0  0  0  0  0
    6.6698   10.4538    0.4726 O   0  0  0  0  0  0  0  0  0  0  0  0
    6.9713    7.5140    3.5713 C   0  0  1  0  0  0  0  0  0  0  0  0
    8.0101    8.4961    3.5250 O   0  0  0  0  0  0  0  0  0  0  0  0
    5.7357   -0.5130    1.8072 C   0  0  0  0  0  0  0  0  0  0  0  0
    4.6547    0.2267    1.0995 N   0  0  0  0  0  0  0  0  0  0  0  0
  1  2  1  6  0  0  0
  1  7  1  0  0  0  0
  1 30  1  0  0  0  0
  3  4  1  1  0  0  0
  3  9  1  0  0  0  0
  3 39  1  0  0  0  0
  5 10  1  0  0  0  0
  5 26  1  0  0  0  0
  5 32  1  6  0  0  0
  6 12  1  0  0  0  0
  6 36  1  0  0  0  0
  6 19  1  6  0  0  0
  7  8  1  1  0  0  0
  7 14  1  0  0  0  0
  9 16  1  0  0  0  0
 10 11  1  1  0  0  0
 10 18  1  0  0  0  0
 12 13  1  6  0  0  0
 12 20  1  0  0  0  0
 14 15  1  6  0  0  0
 14 22  1  0  0  0  0
 16 17  1  6  0  0  0
 16 24  1  0  0  0  0
 18 19  1  1  0  0  0
 18 25  1  0  0  0  0
 20 21  1  1  0  0  0
 20 27  1  0  0  0  0
 22 23  1  6  0  0  0
 22 29  1  0  0  0  0
 24  2  1  6  0  0  0
 24 31  1  0  0  0  0
 25 26  1  0  0  0  0
 25 33  1  6  0  0  0
 27 28  1  6  0  0  0
 27 35  1  0  0  0  0
 29 30  1  0  0  0  0
 29 37  1  1  0  0  0
 31 32  1  6  0  0  0
 31 39  1  0  0  0  0
 33 34  1  0  0  0  0
 35 36  1  0  0  0  0
 35 41  1  6  0  0  0
 37 38  1  0  0  0  0
 39 40  1  6  0  0  0
 41 42  1  0  0  0  0
M  END
>  <CHROM.1>
-168.97522952,56.11253587,67.07821233,179.63333984,-177.27672835,-176.98415605
-82.53973498,70.84257887,-178.88827154,6.15745990,5.44053757,1.43276752,-3.05189409
1.09913460,-1.96283012

>  <Name>
ligand

>  <RI>
0

>  <Rbt.Current_Directory>
/home/itssahil/PROJECTS/Mol_Feturizer/Test_systems_manuscript/rnas/2o3w

>  <Rbt.Executable>
rbdock ($Id: //depot/dev/client3/rdock/2013.1/src/exe/rbdock.cxx#4 $)

>  <Rbt.Library>
libRbt.so (2013.1, Build901 2013/11/27)

>  <Rbt.Parameter_File>
/export/apps/rDock/src/rDock_2013.1_src/data/scripts/dock_solv.prm

>  <Rbt.Receptor>
prm/pocket_docking_5.prm

>  <SCORE>
-14.4004

>  <SCORE.INTER>
-2.855

>  <SCORE.INTER.CONST>
1

>  <SCORE.INTER.POLAR>
0

>  <SCORE.INTER.ROT>
9

>  <SCORE.INTER.SOLV>
20.9561

>  <SCORE.INTER.VDW>
-18.4887

>  <SCORE.INTER.norm>
-0.0679761

>  <SCORE.INTRA>
-11.5454

>  <SCORE.INTRA.DIHEDRAL>
-23.9934

>  <SCORE.INTRA.DIHEDRAL.0>
27.8999

>  <SCORE.INTRA.POLAR>
0

>  <SCORE.INTRA.POLAR.0>
0

>  <SCORE.INTRA.REPUL>
0

>  <SCORE.INTRA.REPUL.0>
0

>  <SCORE.INTRA.SOLV>
-4.00817

>  <SCORE.INTRA.SOLV.lig_0>
-104.479

>  <SCORE.INTRA.VDW>
2.45535

>  <SCORE.INTRA.VDW.0>
-6.17816

>  <SCORE.INTRA.norm>
-0.274892

>  <SCORE.RESTR>
0

>  <SCORE.RESTR.CAVITY>
0

>  <SCORE.RESTR.norm>
0

>  <SCORE.SYSTEM>
0

>  <SCORE.SYSTEM.CONST>
0

>  <SCORE.SYSTEM.DIHEDRAL>
0

>  <SCORE.SYSTEM.SOLV>
0

>  <SCORE.SYSTEM.norm>
0

>  <SCORE.heavy>
42

>  <SCORE.norm>
-0.342868

>  <RMSD>
9.061

$$$$
ligand
 OpenBabel02271912133D
libRbt.so/2013.1/901 2013/11/27
 42 45  0  0  0  0  0  0  0  0999 V2000
    4.5477    7.8080    1.8012 C   0  0  2  0  0  0  0  0  0  0  0  0
    3.8562    6.7792    1.0728 O   0  0  0  0  0  0  0  0  0  0  0  0
    3.9247    2.4701    1.5452 C   0  0  2  0  0  0  0  0  0  0  0  0
    4.3797    1.0496    1.6200 N   0  0  0  0  0  0  0  0  0  0  0  0
    6.6436    5.3787    3.3368 C   0  0  1  0  0  0  0  0  0  0  0  0
    9.3910    4.1620    3.6430 C   0  0  1  0  0  0  0  0  0  0  0  0
    3.7891    9.1427    1.5344 C   0  0  2  0  0  0  0  0  0  0  0  0
    2.3374    9.0195    1.7532 N   0  0  0  0  0  0  0  0  0  0  0  0
    4.0992    3.0525    0.0850 C   0  0  0  0  0  0  0  0  0  0  0  0
    7.2839    5.4680    1.9181 C   0  0  2  0  0  0  0  0  0  0  0  0
    7.2916    4.2125    1.1949 O   0  0  0  0  0  0  0  0  0  0  0  0
    9.7759    4.8049    5.0241 C   0  0  2  0  0  0  0  0  0  0  0  0
   11.2048    5.2398    5.0302 N   0  0  0  0  0  0  0  0  0  0  0  0
    3.9804    9.6451    0.0915 C   0  0  1  0  0  0  0  0  0  0  0  0
    3.3020   10.8883   -0.0963 O   0  0  0  0  0  0  0  0  0  0  0  0
    3.5832    4.5411    0.0643 C   0  0  2  0  0  0  0  0  0  0  0  0
    3.7193    5.1169   -1.3008 N   0  0  0  0  0  0  0  0  0  0  0  0
    8.6591    6.0501    2.2490 C   0  0  2  0  0  0  0  0  0  0  0  0
    9.6416    4.9967    2.5055 O   0  0  0  0  0  0  0  0  0  0  0  0
    9.4902    3.7506    6.1961 C   0  0  1  0  0  0  0  0  0  0  0  0
    8.0624    3.6511    6.3971 O   0  0  0  0  0  0  0  0  0  0  0  0
    5.4901    9.7743   -0.2136 C   0  0  2  0  0  0  0  0  0  0  0  0
    5.6820   10.2494   -1.5258 O   0  0  0  0  0  0  0  0  0  0  0  0
    4.3905    5.4248    1.0954 C   0  0  2  0  0  0  0  0  0  0  0  0
    8.4572    6.9377    3.4886 C   0  0  2  0  0  0  0  0  0  0  0  0
    7.3884    6.2912    4.1758 O   0  0  0  0  0  0  0  0  0  0  0  0
   10.0903    2.2976    5.8856 C   0  0  2  0  0  0  0  0  0  0  0  0
   11.5126    2.3972    5.9449 O   0  0  0  0  0  0  0  0  0  0  0  0
    6.1702    8.3772   -0.0263 C   0  0  2  0  0  0  0  0  0  0  0  0
    5.9490    7.9015    1.3392 O   0  0  0  0  0  0  0  0  0  0  0  0
    4.3121    4.8823    2.5393 C   0  0  2  0  0  0  0  0  0  0  0  0
    5.2456    5.6941    3.3035 O   0  0  0  0  0  0  0  0  0  0  0  0
    8.1078    8.4270    3.1819 C   0  0  0  0  0  0  0  0  0  0  0  0
    7.8539    9.1121    4.4047 O   0  0  0  0  0  0  0  0  0  0  0  0
    9.6373    1.8021    4.4603 C   0  0  1  0  0  0  0  0  0  0  0  0
   10.0938    2.8277    3.5064 O   0  0  0  0  0  0  0  0  0  0  0  0
    7.6561    8.4124   -0.2994 C   0  0  0  0  0  0  0  0  0  0  0  0
    7.8923    8.6030   -1.6731 O   0  0  0  0  0  0  0  0  0  0  0  0
    4.7356    3.3542    2.5754 C   0  0  1  0  0  0  0  0  0  0  0  0
    4.5185    2.8127    3.8812 O   0  0  0  0  0  0  0  0  0  0  0  0
   10.2171    0.3779    4.0553 C   0  0  0  0  0  0  0  0  0  0  0  0
    9.7240   -0.1723    2.7628 N   0  0  0  0  0  0  0  0  0  0  0  0
  1  2  1  6  0  0  0
  1  7  1  0  0  0  0
  1 30  1  0  0  0  0
  3  4  1  6  0  0  0
  3  9  1  0  0  0  0
  3 39  1  0  0  0  0
  5 10  1  0  0  0  0
  5 26  1  0  0  0  0
  5 32  1  6  0  0  0
  6 12  1  0  0  0  0
  6 36  1  0  0  0  0
  6 19  1  6  0  0  0
  7  8  1  6  0  0  0
  7 14  1  0  0  0  0
  9 16  1  0  0  0  0
 10 11  1  1  0  0  0
 10 18  1  0  0  0  0
 12 13  1  6  0  0  0
 12 20  1  0  0  0  0
 14 15  1  1  0  0  0
 14 22  1  0  0  0  0
 16 17  1  6  0  0  0
 16 24  1  0  0  0  0
 18 19  1  1  0  0  0
 18 25  1  0  0  0  0
 20 21  1  6  0  0  0
 20 27  1  0  0  0  0
 22 23  1  6  0  0  0
 22 29  1  0  0  0  0
 24  2  1  1  0  0  0
 24 31  1  0  0  0  0
 25 26  1  0  0  0  0
 25 33  1  6  0  0  0
 27 28  1  6  0  0  0
 27 35  1  0  0  0  0
 29 30  1  0  0  0  0
 29 37  1  1  0  0  0
 31 32  1  1  0  0  0
 31 39  1  0  0  0  0
 33 34  1  0  0  0  0
 35 36  1  0  0  0  0
 35 41  1  6  0  0  0
 37 38  1  0  0  0  0
 39 40  1  1  0  0  0
 41 42  1  0  0  0  0
M  END
>  <CHROM.1>
177.29554257,-171.89313396,-63.73083688,-78.71669151,175.87554104,-69.92098103
-84.03885072,62.21268209,175.28731772,6.78296186,5.57590676,2.34674676,-2.27690378
0.53250175,2.91474266

>  <Name>
ligand

>  <RI>
0

>  <Rbt.Current_Directory>
/home/itssahil/PROJECTS/Mol_Feturizer/Test_systems_manuscript/rnas/2o3w

>  <Rbt.Executable>
rbdock ($Id: //depot/dev/client3/rdock/2013.1/src/exe/rbdock.cxx#4 $)

>  <Rbt.Library>
libRbt.so (2013.1, Build901 2013/11/27)

>  <Rbt.Parameter_File>
/export/apps/rDock/src/rDock_2013.1_src/data/scripts/dock_solv.prm

>  <Rbt.Receptor>
prm/pocket_docking_3.prm

>  <SCORE>
-7.07812

>  <SCORE.INTER>
3.64876

>  <SCORE.INTER.CONST>
1

>  <SCORE.INTER.POLAR>
0

>  <SCORE.INTER.ROT>
9

>  <SCORE.INTER.SOLV>
12.1869

>  <SCORE.INTER.VDW>
-11.2298

>  <SCORE.INTER.norm>
0.0868752

>  <SCORE.INTRA>
-10.7303

>  <SCORE.INTRA.DIHEDRAL>
-22.757

>  <SCORE.INTRA.DIHEDRAL.0>
27.8999

>  <SCORE.INTRA.POLAR>
0

>  <SCORE.INTRA.POLAR.0>
0

>  <SCORE.INTRA.REPUL>
0

>  <SCORE.INTRA.REPUL.0>
0

>  <SCORE.INTRA.SOLV>
-2.98802

>  <SCORE.INTRA.SOLV.lig_0>
-104.479

>  <SCORE.INTRA.VDW>
2.14221

>  <SCORE.INTRA.VDW.0>
-6.17816

>  <SCORE.INTRA.norm>
-0.255484

>  <SCORE.RESTR>
0.00342798

>  <SCORE.RESTR.CAVITY>
0.00342798

>  <SCORE.RESTR.norm>
8.16187e-05

>  <SCORE.SYSTEM>
0

>  <SCORE.SYSTEM.CONST>
0

>  <SCORE.SYSTEM.DIHEDRAL>
0

>  <SCORE.SYSTEM.SOLV>
0

>  <SCORE.SYSTEM.norm>
0

>  <SCORE.heavy>
42

>  <SCORE.norm>
-0.168527

>  <RMSD>
9.068

$$$$
ligand
 OpenBabel02271912133D
libRbt.so/2013.1/901 2013/11/27
 42 45  0  0  0  0  0  0  0  0999 V2000
    9.1146    5.1538    1.8490 C   0  0  2  0  0  0  0  0  0  0  0  0
   10.3641    5.6374    2.3707 O   0  0  0  0  0  0  0  0  0  0  0  0
   12.5518    4.8338    6.0264 C   0  0  2  0  0  0  0  0  0  0  0  0
   12.9096    4.6525    7.4649 N   0  0  0  0  0  0  0  0  0  0  0  0
    9.4620    1.9833    4.3110 C   0  0  1  0  0  0  0  0  0  0  0  0
    7.6118   -1.7409    5.9084 C   0  0  1  0  0  0  0  0  0  0  0  0
    9.1593    5.3518    0.3040 C   0  0  2  0  0  0  0  0  0  0  0  0
   10.3941    4.8184   -0.2972 N   0  0  0  0  0  0  0  0  0  0  0  0
   12.1651    6.3358    5.7161 C   0  0  0  0  0  0  0  0  0  0  0  0
    8.5503    1.9028    5.5731 C   0  0  2  0  0  0  0  0  0  0  0  0
    9.2768    1.9128    6.8266 O   0  0  0  0  0  0  0  0  0  0  0  0
    8.2939   -2.9372    6.6650 C   0  0  2  0  0  0  0  0  0  0  0  0
    9.6139   -3.2729    6.0519 N   0  0  0  0  0  0  0  0  0  0  0  0
    9.0742    6.8359   -0.0976 C   0  0  1  0  0  0  0  0  0  0  0  0
    9.0786    6.9672   -1.5201 O   0  0  0  0  0  0  0  0  0  0  0  0
   11.8207    6.4680    4.1842 C   0  0  2  0  0  0  0  0  0  0  0  0
   11.4656    7.8744    3.8533 N   0  0  0  0  0  0  0  0  0  0  0  0
    7.7506    0.6322    5.2813 C   0  0  2  0  0  0  0  0  0  0  0  0
    8.4131   -0.5561    5.8198 O   0  0  0  0  0  0  0  0  0  0  0  0
    7.3121   -4.2031    6.6465 C   0  0  1  0  0  0  0  0  0  0  0  0
    6.2224   -3.9626    7.5650 O   0  0  0  0  0  0  0  0  0  0  0  0
    7.8070    7.4662    0.5236 C   0  0  2  0  0  0  0  0  0  0  0  0
    7.7055    8.8211    0.1514 O   0  0  0  0  0  0  0  0  0  0  0  0
   10.6222    5.5138    3.7984 C   0  0  2  0  0  0  0  0  0  0  0  0
    7.6225    0.5533    3.7507 C   0  0  2  0  0  0  0  0  0  0  0  0
    8.8207    1.1777    3.2957 O   0  0  0  0  0  0  0  0  0  0  0  0
    6.7252   -4.5138    5.1882 C   0  0  2  0  0  0  0  0  0  0  0  0
    7.8028   -4.9888    4.3822 O   0  0  0  0  0  0  0  0  0  0  0  0
    7.8767    7.3241    2.0806 C   0  0  2  0  0  0  0  0  0  0  0  0
    7.9912    5.9110    2.4410 O   0  0  0  0  0  0  0  0  0  0  0  0
   10.9071    4.0318    4.1267 C   0  0  2  0  0  0  0  0  0  0  0  0
    9.6517    3.3389    3.8850 O   0  0  0  0  0  0  0  0  0  0  0  0
    6.3627    1.2579    3.1585 C   0  0  0  0  0  0  0  0  0  0  0  0
    5.1900    0.6181    3.6527 O   0  0  0  0  0  0  0  0  0  0  0  0
    6.1000   -3.2150    4.5523 C   0  0  1  0  0  0  0  0  0  0  0  0
    7.1759   -2.2088    4.5358 O   0  0  0  0  0  0  0  0  0  0  0  0
    6.6684    7.9111    2.7728 C   0  0  0  0  0  0  0  0  0  0  0  0
    6.8149    7.8149    4.1687 O   0  0  0  0  0  0  0  0  0  0  0  0
   11.3500    3.8806    5.6422 C   0  0  1  0  0  0  0  0  0  0  0  0
   11.7586    2.5353    5.9049 O   0  0  0  0  0  0  0  0  0  0  0  0
    5.5219   -3.4256    3.0860 C   0  0  0  0  0  0  0  0  0  0  0  0
    6.5116   -3.8586    2.0615 N   0  0  0  0  0  0  0  0  0  0  0  0
  1  2  1  1  0  0  0
  1  7  1  0  0  0  0
  1 30  1  0  0  0  0
  3  4  1  1  0  0  0
  3  9  1  0  0  0  0
  3 39  1  0  0  0  0
  5 10  1  0  0  0  0
  5 26  1  0  0  0  0
  5 32  1  6  0  0  0
  6 12  1  0  0  0  0
  6 36  1  0  0  0  0
  6 19  1  6  0  0  0
  7  8  1  1  0  0  0
  7 14  1  0  0  0  0
  9 16  1  0  0  0  0
 10 11  1  1  0  0  0
 10 18  1  0  0  0  0
 12 13  1  6  0  0  0
 12 20  1  0  0  0  0
 14 15  1  6  0  0  0
 14 22  1  0  0  0  0
 16 17  1  1  0  0  0
 16 24  1  0  0  0  0
 18 19  1  6  0  0  0
 18 25  1  0  0  0  0
 20 21  1  1  0  0  0
 20 27  1  0  0  0  0
 22 23  1  1  0  0  0
 22 29  1  0  0  0  0
 24  2  1  6  0  0  0
 24 31  1  0  0  0  0
 25 26  1  0  0  0  0
 25 33  1  6  0  0  0
 27 28  1  6  0  0  0
 27 35  1  0  0  0  0
 29 30  1  0  0  0  0
 29 37  1  1  0  0  0
 31 32  1  1  0  0  0
 31 39  1  0  0  0  0
 33 34  1  0  0  0  0
 35 36  1  0  0  0  0
 35 41  1  6  0  0  0
 37 38  1  0  0  0  0
 39 40  1  6  0  0  0
 41 42  1  0  0  0  0
M  END
>  <CHROM.1>
-177.09112826,-163.55838361,164.75486187,-172.20813922,-62.65652360,-177.11272923
-168.68169167,104.96508663,-60.83398262,8.72547470,2.39467844,3.88932444
1.26479049,-0.79067830,-0.51983984

>  <Name>
ligand

>  <RI>
0

>  <Rbt.Current_Directory>
/home/itssahil/PROJECTS/Mol_Feturizer/Test_systems_manuscript/rnas/2o3w

>  <Rbt.Executable>
rbdock ($Id: //depot/dev/client3/rdock/2013.1/src/exe/rbdock.cxx#4 $)

>  <Rbt.Library>
libRbt.so (2013.1, Build901 2013/11/27)

>  <Rbt.Parameter_File>
/export/apps/rDock/src/rDock_2013.1_src/data/scripts/dock_solv.prm

>  <Rbt.Receptor>
prm/pocket_docking_4.prm

>  <SCORE>
-9.35364

>  <SCORE.INTER>
-0.226198

>  <SCORE.INTER.CONST>
1

>  <SCORE.INTER.POLAR>
0

>  <SCORE.INTER.ROT>
9

>  <SCORE.INTER.SOLV>
14.4189

>  <SCORE.INTER.VDW>
-14.5571

>  <SCORE.INTER.norm>
-0.00538566

>  <SCORE.INTRA>
-9.12744

>  <SCORE.INTRA.DIHEDRAL>
-18.2799

>  <SCORE.INTRA.DIHEDRAL.0>
27.8999

>  <SCORE.INTRA.POLAR>
0

>  <SCORE.INTRA.POLAR.0>
0

>  <SCORE.INTRA.REPUL>
0

>  <SCORE.INTRA.REPUL.0>
0

>  <SCORE.INTRA.SOLV>
-3.81186

>  <SCORE.INTRA.SOLV.lig_0>
-104.479

>  <SCORE.INTRA.VDW>
1.91843

>  <SCORE.INTRA.VDW.0>
-6.17816

>  <SCORE.INTRA.norm>
-0.21732

>  <SCORE.RESTR>
0

>  <SCORE.RESTR.CAVITY>
0

>  <SCORE.RESTR.norm>
0

>  <SCORE.SYSTEM>
0

>  <SCORE.SYSTEM.CONST>
0

>  <SCORE.SYSTEM.DIHEDRAL>
0

>  <SCORE.SYSTEM.SOLV>
0

>  <SCORE.SYSTEM.norm>
0

>  <SCORE.heavy>
42

>  <SCORE.norm>
-0.222706

>  <RMSD>
9.081

$$$$
ligand
 OpenBabel02271912133D
libRbt.so/2013.1/901 2013/11/27
 42 45  0  0  0  0  0  0  0  0999 V2000
    8.7270    5.5817    2.1353 C   0  0  2  0  0  0  0  0  0  0  0  0
   10.0457    6.0003    2.5267 O   0  0  0  0  0  0  0  0  0  0  0  0
   12.5263    5.0147    5.9431 C   0  0  2  0  0  0  0  0  0  0  0  0
   13.0162    4.8065    7.3384 N   0  0  0  0  0  0  0  0  0  0  0  0
    9.0409    2.4329    4.5554 C   0  0  1  0  0  0  0  0  0  0  0  0
    7.1887   -1.5496    5.1031 C   0  0  1  0  0  0  0  0  0  0  0  0
    8.6574    5.6903    0.5824 C   0  0  2  0  0  0  0  0  0  0  0  0
    9.7986    5.0352   -0.0803 N   0  0  0  0  0  0  0  0  0  0  0  0
   12.2445    6.5444    5.6560 C   0  0  0  0  0  0  0  0  0  0  0  0
    7.5364    2.2159    4.9020 C   0  0  2  0  0  0  0  0  0  0  0  0
    7.2171    2.4268    6.2994 O   0  0  0  0  0  0  0  0  0  0  0  0
    7.4204   -2.5810    6.2657 C   0  0  2  0  0  0  0  0  0  0  0  0
    8.8450   -2.5680    6.7143 N   0  0  0  0  0  0  0  0  0  0  0  0
    8.6417    7.1521    0.0989 C   0  0  1  0  0  0  0  0  0  0  0  0
    8.5374    7.2040   -1.3249 O   0  0  0  0  0  0  0  0  0  0  0  0
   11.7537    6.7022    4.1671 C   0  0  2  0  0  0  0  0  0  0  0  0
   11.4925    8.1338    3.8574 N   0  0  0  0  0  0  0  0  0  0  0  0
    7.3128    0.7963    4.3786 C   0  0  2  0  0  0  0  0  0  0  0  0
    7.5812   -0.2060    5.4102 O   0  0  0  0  0  0  0  0  0  0  0  0
    6.9861   -4.0416    5.7710 C   0  0  1  0  0  0  0  0  0  0  0  0
    5.5434   -4.1054    5.7129 O   0  0  0  0  0  0  0  0  0  0  0  0
    7.4765    7.9073    0.7781 C   0  0  2  0  0  0  0  0  0  0  0  0
    7.4380    9.2433    0.3331 O   0  0  0  0  0  0  0  0  0  0  0  0
   10.4409    5.8585    3.9210 C   0  0  2  0  0  0  0  0  0  0  0  0
    8.2628    0.6311    3.1805 C   0  0  2  0  0  0  0  0  0  0  0  0
    9.3619    1.4715    3.5240 O   0  0  0  0  0  0  0  0  0  0  0  0
    7.5974   -4.4208    4.3392 C   0  0  2  0  0  0  0  0  0  0  0  0
    9.0046   -4.5923    4.5032 O   0  0  0  0  0  0  0  0  0  0  0  0
    7.6648    7.8466    2.3306 C   0  0  2  0  0  0  0  0  0  0  0  0
    7.7112    6.4510    2.7664 O   0  0  0  0  0  0  0  0  0  0  0  0
   10.6255    4.3579    4.2364 C   0  0  2  0  0  0  0  0  0  0  0  0
    9.2949    3.7801    4.1363 O   0  0  0  0  0  0  0  0  0  0  0  0
    7.6578    1.0345    1.8001 C   0  0  0  0  0  0  0  0  0  0  0  0
    7.3356    2.4219    1.8152 O   0  0  0  0  0  0  0  0  0  0  0  0
    7.3054   -3.2816    3.2908 C   0  0  1  0  0  0  0  0  0  0  0  0
    7.8837   -2.0492    3.8540 O   0  0  0  0  0  0  0  0  0  0  0  0
    6.5611    8.5581    3.0785 C   0  0  0  0  0  0  0  0  0  0  0  0
    5.3334    7.9040    2.8687 O   0  0  0  0  0  0  0  0  0  0  0  0
   11.2105    4.1723    5.6989 C   0  0  1  0  0  0  0  0  0  0  0  0
   11.5229    2.7966    5.9344 O   0  0  0  0  0  0  0  0  0  0  0  0
    7.9080   -3.5611    1.8460 C   0  0  0  0  0  0  0  0  0  0  0  0
    7.3109   -4.7110    1.1127 N   0  0  0  0  0  0  0  0  0  0  0  0
  1  2  1  1  0  0  0
  1  7  1  0  0  0  0
  1 30  1  0  0  0  0
  3  4  1  1  0  0  0
  3  9  1  0  0  0  0
  3 39  1  0  0  0  0
  5 10  1  0  0  0  0
  5 26  1  0  0  0  0
  5 32  1  6  0  0  0
  6 12  1  0  0  0  0
  6 36  1  0  0  0  0
  6 19  1  1  0  0  0
  7  8  1  6  0  0  0
  7 14  1  0  0  0  0
  9 16  1  0  0  0  0
 10 11  1  1  0  0  0
 10 18  1  0  0  0  0
 12 13  1  6  0  0  0
 12 20  1  0  0  0  0
 14 15  1  6  0  0  0
 14 22  1  0  0  0  0
 16 17  1  1  0  0  0
 16 24  1  0  0  0  0
 18 19  1  1  0  0  0
 18 25  1  0  0  0  0
 20 21  1  6  0  0  0
 20 27  1  0  0  0  0
 22 23  1  6  0  0  0
 22 29  1  0  0  0  0
 24  2  1  6  0  0  0
 24 31  1  0  0  0  0
 25 26  1  0  0  0  0
 25 33  1  6  0  0  0
 27 28  1  1  0  0  0
 27 35  1  0  0  0  0
 29 30  1  0  0  0  0
 29 37  1  1  0  0  0
 31 32  1  1  0  0  0
 31 39  1  0  0  0  0
 33 34  1  0  0  0  0
 35 36  1  0  0  0  0
 35 41  1  6  0  0  0
 37 38  1  0  0  0  0
 39 40  1  6  0  0  0
 41 42  1  0  0  0  0
M  END
>  <CHROM.1>
-173.28100376,-165.90377442,169.80850743,-176.76740717,62.74470896,64.90035382
-170.79985586,157.03091172,66.23646577,8.66267089,2.68356487,3.59147268,1.35824070
-0.85305088,-0.36791568

>  <Name>
ligand

>  <RI>
0

>  <Rbt.Current_Directory>
/home/itssahil/PROJECTS/Mol_Feturizer/Test_systems_manuscript/rnas/2o3w

>  <Rbt.Executable>
rbdock ($Id: //depot/dev/client3/rdock/2013.1/src/exe/rbdock.cxx#4 $)

>  <Rbt.Library>
libRbt.so (2013.1, Build901 2013/11/27)

>  <Rbt.Parameter_File>
/export/apps/rDock/src/rDock_2013.1_src/data/scripts/dock_solv.prm

>  <Rbt.Receptor>
prm/pocket_docking_4.prm

>  <SCORE>
-9.51696

>  <SCORE.INTER>
2.14277

>  <SCORE.INTER.CONST>
1

>  <SCORE.INTER.POLAR>
0

>  <SCORE.INTER.ROT>
9

>  <SCORE.INTER.SOLV>
13.8923

>  <SCORE.INTER.VDW>
-12.8023

>  <SCORE.INTER.norm>
0.0510183

>  <SCORE.INTRA>
-11.6597

>  <SCORE.INTRA.DIHEDRAL>
-23.0858

>  <SCORE.INTRA.DIHEDRAL.0>
27.8999

>  <SCORE.INTRA.POLAR>
0

>  <SCORE.INTRA.POLAR.0>
0

>  <SCORE.INTRA.REPUL>
0

>  <SCORE.INTRA.REPUL.0>
0

>  <SCORE.INTRA.SOLV>
-4.74772

>  <SCORE.INTRA.SOLV.lig_0>
-104.479

>  <SCORE.INTRA.VDW>
2.25705

>  <SCORE.INTRA.VDW.0>
-6.17816

>  <SCORE.INTRA.norm>
-0.277612

>  <SCORE.RESTR>
0

>  <SCORE.RESTR.CAVITY>
0

>  <SCORE.RESTR.norm>
0

>  <SCORE.SYSTEM>
0

>  <SCORE.SYSTEM.CONST>
0

>  <SCORE.SYSTEM.DIHEDRAL>
0

>  <SCORE.SYSTEM.SOLV>
0

>  <SCORE.SYSTEM.norm>
0

>  <SCORE.heavy>
42

>  <SCORE.norm>
-0.226594

>  <RMSD>
9.090

$$$$
ligand
 OpenBabel02271912133D
libRbt.so/2013.1/901 2013/11/27
 42 45  0  0  0  0  0  0  0  0999 V2000
    7.5557    5.8655    4.1309 C   0  0  2  0  0  0  0  0  0  0  0  0
    8.2143    4.6266    3.8171 O   0  0  0  0  0  0  0  0  0  0  0  0
    7.9821    4.9391   -0.5008 C   0  0  2  0  0  0  0  0  0  0  0  0
    8.0896    4.6444   -1.9609 N   0  0  0  0  0  0  0  0  0  0  0  0
    7.1414    1.6258    2.4136 C   0  0  1  0  0  0  0  0  0  0  0  0
    7.9913   -2.7592    2.5480 C   0  0  1  0  0  0  0  0  0  0  0  0
    7.7084    6.0859    5.6660 C   0  0  2  0  0  0  0  0  0  0  0  0
    9.0999    5.9261    6.1228 N   0  0  0  0  0  0  0  0  0  0  0  0
    9.4107    5.0519    0.1687 C   0  0  0  0  0  0  0  0  0  0  0  0
    6.5018    0.5991    3.3973 C   0  0  2  0  0  0  0  0  0  0  0  0
    7.0967    0.5992    4.7183 O   0  0  0  0  0  0  0  0  0  0  0  0
    9.3743   -3.4372    2.8588 C   0  0  2  0  0  0  0  0  0  0  0  0
   10.4922   -2.6925    2.2056 N   0  0  0  0  0  0  0  0  0  0  0  0
    6.8552    5.1004    6.4855 C   0  0  1  0  0  0  0  0  0  0  0  0
    6.9950    5.3641    7.8826 O   0  0  0  0  0  0  0  0  0  0  0  0
    9.2325    5.3849    1.6984 C   0  0  2  0  0  0  0  0  0  0  0  0
   10.5599    5.5128    2.3581 N   0  0  0  0  0  0  0  0  0  0  0  0
    6.6475   -0.7014    2.6055 C   0  0  2  0  0  0  0  0  0  0  0  0
    7.9133   -1.3727    2.9019 O   0  0  0  0  0  0  0  0  0  0  0  0
    9.3367   -4.9628    2.3710 C   0  0  1  0  0  0  0  0  0  0  0  0
    8.5150   -5.7249    3.2837 O   0  0  0  0  0  0  0  0  0  0  0  0
    5.3793    5.1997    6.0373 C   0  0  2  0  0  0  0  0  0  0  0  0
    4.5820    4.3152    6.7900 O   0  0  0  0  0  0  0  0  0  0  0  0
    8.3887    4.2602    2.4186 C   0  0  2  0  0  0  0  0  0  0  0  0
    6.5601   -0.3069    1.1215 C   0  0  2  0  0  0  0  0  0  0  0  0
    7.1090    1.0088    1.1062 O   0  0  0  0  0  0  0  0  0  0  0  0
    8.7737   -5.1253    0.8797 C   0  0  2  0  0  0  0  0  0  0  0  0
    9.7446   -4.5753   -0.0098 O   0  0  0  0  0  0  0  0  0  0  0  0
    5.2857    4.8660    4.5111 C   0  0  2  0  0  0  0  0  0  0  0  0
    6.1284    5.7905    3.7528 O   0  0  0  0  0  0  0  0  0  0  0  0
    6.9974    4.0541    1.7805 C   0  0  2  0  0  0  0  0  0  0  0  0
    6.4464    2.8794    2.4368 O   0  0  0  0  0  0  0  0  0  0  0  0
    5.1204   -0.3214    0.5204 C   0  0  0  0  0  0  0  0  0  0  0  0
    4.2936    0.5737    1.2579 O   0  0  0  0  0  0  0  0  0  0  0  0
    7.3990   -4.3725    0.7194 C   0  0  1  0  0  0  0  0  0  0  0  0
    7.6558   -2.9691    1.0864 O   0  0  0  0  0  0  0  0  0  0  0  0
    3.8716    4.9457    3.9841 C   0  0  0  0  0  0  0  0  0  0  0  0
    3.3741    6.2540    4.1263 O   0  0  0  0  0  0  0  0  0  0  0  0
    7.1400    3.8111    0.2196 C   0  0  1  0  0  0  0  0  0  0  0  0
    5.8485    3.7716   -0.3936 O   0  0  0  0  0  0  0  0  0  0  0  0
    6.7829   -4.4540   -0.7443 C   0  0  0  0  0  0  0  0  0  0  0  0
    7.6245   -3.8770   -1.8284 N   0  0  0  0  0  0  0  0  0  0  0  0
  1  2  1  1  0  0  0
  1  7  1  0  0  0  0
  1 30  1  0  0  0  0
  3  4  1  6  0  0  0
  3  9  1  0  0  0  0
  3 39  1  0  0  0  0
  5 10  1  0  0  0  0
  5 26  1  0  0  0  0
  5 32  1  6  0  0  0
  6 12  1  0  0  0  0
  6 36  1  0  0  0  0
  6 19  1  6  0  0  0
  7  8  1  1  0  0  0
  7 14  1  0  0  0  0
  9 16  1  0  0  0  0
 10 11  1  1  0  0  0
 10 18  1  0  0  0  0
 12 13  1  6  0  0  0
 12 20  1  0  0  0  0
 14 15  1  1  0  0  0
 14 22  1  0  0  0  0
 16 17  1  1  0  0  0
 16 24  1  0  0  0  0
 18 19  1  6  0  0  0
 18 25  1  0  0  0  0
 20 21  1  1  0  0  0
 20 27  1  0  0  0  0
 22 23  1  1  0  0  0
 22 29  1  0  0  0  0
 24  2  1  1  0  0  0
 24 31  1  0  0  0  0
 25 26  1  0  0  0  0
 25 33  1  1  0  0  0
 27 28  1  6  0  0  0
 27 35  1  0  0  0  0
 29 30  1  0  0  0  0
 29 37  1  6  0  0  0
 31 32  1  1  0  0  0
 31 39  1  0  0  0  0
 33 34  1  0  0  0  0
 35 36  1  0  0  0  0
 35 41  1  6  0  0  0
 37 38  1  0  0  0  0
 39 40  1  6  0  0  0
 41 42  1  0  0  0  0
M  END
>  <CHROM.1>
-171.60897600,59.22415330,161.93211916,178.96894383,58.69241171,61.88319154
-57.12967942,169.23854754,-60.18507435,7.28086804,1.55209915,2.51798729,2.45425576
1.37042253,-0.54456461

>  <Name>
ligand

>  <RI>
0

>  <Rbt.Current_Directory>
/home/itssahil/PROJECTS/Mol_Feturizer/Test_systems_manuscript/rnas/2o3w

>  <Rbt.Executable>
rbdock ($Id: //depot/dev/client3/rdock/2013.1/src/exe/rbdock.cxx#4 $)

>  <Rbt.Library>
libRbt.so (2013.1, Build901 2013/11/27)

>  <Rbt.Parameter_File>
/export/apps/rDock/src/rDock_2013.1_src/data/scripts/dock_solv.prm

>  <Rbt.Receptor>
prm/pocket_docking_6.prm

>  <SCORE>
-10.0306

>  <SCORE.INTER>
1.98235

>  <SCORE.INTER.CONST>
1

>  <SCORE.INTER.POLAR>
0

>  <SCORE.INTER.ROT>
9

>  <SCORE.INTER.SOLV>
10.8267

>  <SCORE.INTER.VDW>
-11.8873

>  <SCORE.INTER.norm>
0.0471989

>  <SCORE.INTRA>
-12.0129

>  <SCORE.INTRA.DIHEDRAL>
-25.2913

>  <SCORE.INTRA.DIHEDRAL.0>
27.8999

>  <SCORE.INTRA.POLAR>
0

>  <SCORE.INTRA.POLAR.0>
0

>  <SCORE.INTRA.REPUL>
0

>  <SCORE.INTRA.REPUL.0>
0

>  <SCORE.INTRA.SOLV>
-2.60379

>  <SCORE.INTRA.SOLV.lig_0>
-104.479

>  <SCORE.INTRA.VDW>
1.9346

>  <SCORE.INTRA.VDW.0>
-6.17816

>  <SCORE.INTRA.norm>
-0.286022

>  <SCORE.RESTR>
0

>  <SCORE.RESTR.CAVITY>
0

>  <SCORE.RESTR.norm>
0

>  <SCORE.SYSTEM>
0

>  <SCORE.SYSTEM.CONST>
0

>  <SCORE.SYSTEM.DIHEDRAL>
0

>  <SCORE.SYSTEM.SOLV>
0

>  <SCORE.SYSTEM.norm>
0

>  <SCORE.heavy>
42

>  <SCORE.norm>
-0.238823

>  <RMSD>
9.093

$$$$
ligand
 OpenBabel02271912133D
libRbt.so/2013.1/901 2013/11/27
 42 45  0  0  0  0  0  0  0  0999 V2000
    5.7443    3.9083    0.6678 C   0  0  2  0  0  0  0  0  0  0  0  0
    6.7765    4.7994    0.2121 O   0  0  0  0  0  0  0  0  0  0  0  0
   10.4651    5.9353    2.1870 C   0  0  2  0  0  0  0  0  0  0  0  0
   11.4483    6.5064    3.1554 N   0  0  0  0  0  0  0  0  0  0  0  0
    7.7078    2.4672    3.5294 C   0  0  1  0  0  0  0  0  0  0  0  0
    7.3940   -1.4303    5.6988 C   0  0  1  0  0  0  0  0  0  0  0  0
    4.8493    3.5804   -0.5650 C   0  0  2  0  0  0  0  0  0  0  0  0
    5.6365    3.1592   -1.7370 N   0  0  0  0  0  0  0  0  0  0  0  0
    9.6296    7.0757    1.4776 C   0  0  0  0  0  0  0  0  0  0  0  0
    6.4673    1.9535    4.3219 C   0  0  2  0  0  0  0  0  0  0  0  0
    6.3379    2.5230    5.6478 O   0  0  0  0  0  0  0  0  0  0  0  0
    8.1869   -1.8813    6.9781 C   0  0  2  0  0  0  0  0  0  0  0  0
    9.6202   -1.4704    6.8897 N   0  0  0  0  0  0  0  0  0  0  0  0
    4.0014    4.7866   -1.0089 C   0  0  1  0  0  0  0  0  0  0  0  0
    3.1694    4.4300   -2.1141 O   0  0  0  0  0  0  0  0  0  0  0  0
    8.6293    6.4147    0.4554 C   0  0  2  0  0  0  0  0  0  0  0  0
    7.8353    7.4618   -0.2423 N   0  0  0  0  0  0  0  0  0  0  0  0
    6.6870    0.4408    4.2695 C   0  0  2  0  0  0  0  0  0  0  0  0
    7.4727   -0.0287    5.4110 O   0  0  0  0  0  0  0  0  0  0  0  0
    8.0528   -3.4684    7.1511 C   0  0  1  0  0  0  0  0  0  0  0  0
    6.7168   -3.7773    7.6077 O   0  0  0  0  0  0  0  0  0  0  0  0
    3.1644    5.2963    0.1864 C   0  0  2  0  0  0  0  0  0  0  0  0
    2.3696    6.3905   -0.2080 O   0  0  0  0  0  0  0  0  0  0  0  0
    7.6547    5.4162    1.1964 C   0  0  2  0  0  0  0  0  0  0  0  0
    7.4120    0.1629    2.9419 C   0  0  2  0  0  0  0  0  0  0  0  0
    8.1734    1.3507    2.7372 O   0  0  0  0  0  0  0  0  0  0  0  0
    8.3550   -4.2695    5.7967 C   0  0  2  0  0  0  0  0  0  0  0  0
    9.7490   -4.1390    5.5207 O   0  0  0  0  0  0  0  0  0  0  0  0
    4.1298    5.7044    1.3487 C   0  0  2  0  0  0  0  0  0  0  0  0
    4.9498    4.5558    1.7333 O   0  0  0  0  0  0  0  0  0  0  0  0
    8.4050    4.3038    1.9611 C   0  0  2  0  0  0  0  0  0  0  0  0
    7.3807    3.6045    2.7203 O   0  0  0  0  0  0  0  0  0  0  0  0
    6.4749   -0.1195    1.7268 C   0  0  0  0  0  0  0  0  0  0  0  0
    5.6414    1.0135    1.5023 O   0  0  0  0  0  0  0  0  0  0  0  0
    7.5061   -3.6859    4.6046 C   0  0  1  0  0  0  0  0  0  0  0  0
    7.8533   -2.2569    4.5162 O   0  0  0  0  0  0  0  0  0  0  0  0
    3.3922    6.2111    2.5665 C   0  0  0  0  0  0  0  0  0  0  0  0
    4.3082    6.6273    3.5498 O   0  0  0  0  0  0  0  0  0  0  0  0
    9.4881    4.9386    2.9304 C   0  0  1  0  0  0  0  0  0  0  0  0
   10.2836    3.9085    3.5234 O   0  0  0  0  0  0  0  0  0  0  0  0
    7.7698   -4.4029    3.2099 C   0  0  0  0  0  0  0  0  0  0  0  0
    7.3778   -5.8375    3.1411 N   0  0  0  0  0  0  0  0  0  0  0  0
  1  2  1  6  0  0  0
  1  7  1  0  0  0  0
  1 30  1  0  0  0  0
  3  4  1  1  0  0  0
  3  9  1  0  0  0  0
  3 39  1  0  0  0  0
  5 10  1  0  0  0  0
  5 26  1  0  0  0  0
  5 32  1  6  0  0  0
  6 12  1  0  0  0  0
  6 36  1  0  0  0  0
  6 19  1  6  0  0  0
  7  8  1  6  0  0  0
  7 14  1  0  0  0  0
  9 16  1  0  0  0  0
 10 11  1  1  0  0  0
 10 18  1  0  0  0  0
 12 13  1  6  0  0  0
 12 20  1  0  0  0  0
 14 15  1  6  0  0  0
 14 22  1  0  0  0  0
 16 17  1  1  0  0  0
 16 24  1  0  0  0  0
 18 19  1  1  0  0  0
 18 25  1  0  0  0  0
 20 21  1  6  0  0  0
 20 27  1  0  0  0  0
 22 23  1  6  0  0  0
 22 29  1  0  0  0  0
 24  2  1  6  0  0  0
 24 31  1  0  0  0  0
 25 26  1  0  0  0  0
 25 33  1  6  0  0  0
 27 28  1  6  0  0  0
 27 35  1  0  0  0  0
 29 30  1  0  0  0  0
 29 37  1  1  0  0  0
 31 32  1  1  0  0  0
 31 39  1  0  0  0  0
 33 34  1  0  0  0  0
 35 36  1  0  0  0  0
 35 41  1  6  0  0  0
 37 38  1  0  0  0  0
 39 40  1  6  0  0  0
 41 42  1  0  0  0  0
M  END
>  <CHROM.1>
171.75338601,-176.29928631,161.26811441,-176.75708772,60.39210950,-176.95372218
178.04054656,175.97177803,64.42067921,6.99072128,2.09660869,2.79865112,1.81990907
-0.53655995,-0.37754506

>  <Name>
ligand

>  <RI>
0

>  <Rbt.Current_Directory>
/home/itssahil/PROJECTS/Mol_Feturizer/Test_systems_manuscript/rnas/2o3w

>  <Rbt.Executable>
rbdock ($Id: //depot/dev/client3/rdock/2013.1/src/exe/rbdock.cxx#4 $)

>  <Rbt.Library>
libRbt.so (2013.1, Build901 2013/11/27)

>  <Rbt.Parameter_File>
/export/apps/rDock/src/rDock_2013.1_src/data/scripts/dock_solv.prm

>  <Rbt.Receptor>
prm/pocket_docking_4.prm

>  <SCORE>
-10.6305

>  <SCORE.INTER>
2.55252

>  <SCORE.INTER.CONST>
1

>  <SCORE.INTER.POLAR>
0

>  <SCORE.INTER.ROT>
9

>  <SCORE.INTER.SOLV>
11.4923

>  <SCORE.INTER.VDW>
-11.7291

>  <SCORE.INTER.norm>
0.0607742

>  <SCORE.INTRA>
-13.1831

>  <SCORE.INTRA.DIHEDRAL>
-25.5035

>  <SCORE.INTRA.DIHEDRAL.0>
27.8999

>  <SCORE.INTRA.POLAR>
0

>  <SCORE.INTRA.POLAR.0>
0

>  <SCORE.INTRA.REPUL>
0

>  <SCORE.INTRA.REPUL.0>
0

>  <SCORE.INTRA.SOLV>
-4.88672

>  <SCORE.INTRA.SOLV.lig_0>
-104.479

>  <SCORE.INTRA.VDW>
2.01206

>  <SCORE.INTRA.VDW.0>
-6.17816

>  <SCORE.INTRA.norm>
-0.313882

>  <SCORE.RESTR>
0

>  <SCORE.RESTR.CAVITY>
0

>  <SCORE.RESTR.norm>
0

>  <SCORE.SYSTEM>
0

>  <SCORE.SYSTEM.CONST>
0

>  <SCORE.SYSTEM.DIHEDRAL>
0

>  <SCORE.SYSTEM.SOLV>
0

>  <SCORE.SYSTEM.norm>
0

>  <SCORE.heavy>
42

>  <SCORE.norm>
-0.253108

>  <RMSD>
9.095

$$$$
ligand
 OpenBabel02271912133D
libRbt.so/2013.1/901 2013/11/27
 42 45  0  0  0  0  0  0  0  0999 V2000
    5.6302    5.0671    3.2902 C   0  0  2  0  0  0  0  0  0  0  0  0
    6.8907    4.4053    3.0888 O   0  0  0  0  0  0  0  0  0  0  0  0
    5.3200    0.5340    1.9305 C   0  0  2  0  0  0  0  0  0  0  0  0
    5.2127   -0.8973    1.5178 N   0  0  0  0  0  0  0  0  0  0  0  0
    8.4212    1.4342    4.8925 C   0  0  1  0  0  0  0  0  0  0  0  0
   10.5033   -0.7254    4.7748 C   0  0  1  0  0  0  0  0  0  0  0  0
    5.9473    6.5477    3.6583 C   0  0  2  0  0  0  0  0  0  0  0  0
    6.8953    7.1716    2.7188 N   0  0  0  0  0  0  0  0  0  0  0  0
    6.0350    1.4004    0.8170 C   0  0  0  0  0  0  0  0  0  0  0  0
    9.3963    1.8586    3.7524 C   0  0  2  0  0  0  0  0  0  0  0  0
    9.2276    1.1099    2.5235 O   0  0  0  0  0  0  0  0  0  0  0  0
   10.6442   -0.9580    6.3224 C   0  0  2  0  0  0  0  0  0  0  0  0
   12.0740   -1.1621    6.7031 N   0  0  0  0  0  0  0  0  0  0  0  0
    6.5610    6.6817    5.0641 C   0  0  1  0  0  0  0  0  0  0  0  0
    6.7981    8.0559    5.3744 O   0  0  0  0  0  0  0  0  0  0  0  0
    6.0980    2.8992    1.2988 C   0  0  2  0  0  0  0  0  0  0  0  0
    6.7532    3.7473    0.2668 N   0  0  0  0  0  0  0  0  0  0  0  0
   10.7506    1.6982    4.4449 C   0  0  2  0  0  0  0  0  0  0  0  0
   11.2941    0.3526    4.2588 O   0  0  0  0  0  0  0  0  0  0  0  0
    9.7491   -2.2155    6.7517 C   0  0  1  0  0  0  0  0  0  0  0  0
    8.3564   -1.8306    6.7192 O   0  0  0  0  0  0  0  0  0  0  0  0
    5.6233    6.0225    6.1011 C   0  0  2  0  0  0  0  0  0  0  0  0
    6.1631    6.1515    7.3959 O   0  0  0  0  0  0  0  0  0  0  0  0
    6.8910    3.0136    2.6605 C   0  0  2  0  0  0  0  0  0  0  0  0
   10.5047    1.9990    5.9330 C   0  0  2  0  0  0  0  0  0  0  0  0
    9.1587    1.5717    6.1287 O   0  0  0  0  0  0  0  0  0  0  0  0
    9.9749   -3.4907    5.8081 C   0  0  2  0  0  0  0  0  0  0  0  0
   11.2883   -3.9876    6.0619 O   0  0  0  0  0  0  0  0  0  0  0  0
    5.4312    4.5143    5.7296 C   0  0  2  0  0  0  0  0  0  0  0  0
    4.8794    4.4067    4.3792 O   0  0  0  0  0  0  0  0  0  0  0  0
    6.2808    2.1465    3.7835 C   0  0  2  0  0  0  0  0  0  0  0  0
    7.2268    2.2270    4.8849 O   0  0  0  0  0  0  0  0  0  0  0  0
   10.6838    3.4943    6.3406 C   0  0  0  0  0  0  0  0  0  0  0  0
   12.0073    3.9134    6.0222 O   0  0  0  0  0  0  0  0  0  0  0  0
    9.8262   -3.0928    4.2909 C   0  0  1  0  0  0  0  0  0  0  0  0
   10.8072   -2.0203    4.0511 O   0  0  0  0  0  0  0  0  0  0  0  0
    4.5186    3.7901    6.6922 C   0  0  0  0  0  0  0  0  0  0  0  0
    4.4627    2.4216    6.3708 O   0  0  0  0  0  0  0  0  0  0  0  0
    6.1165    0.6475    3.2918 C   0  0  1  0  0  0  0  0  0  0  0  0
    5.4145   -0.1197    4.2737 O   0  0  0  0  0  0  0  0  0  0  0  0
   10.0684   -4.2955    3.2792 C   0  0  0  0  0  0  0  0  0  0  0  0
    9.0860   -5.4112    3.3609 N   0  0  0  0  0  0  0  0  0  0  0  0
  1  2  1  1  0  0  0
  1  7  1  0  0  0  0
  1 30  1  0  0  0  0
  3  4  1  6  0  0  0
  3  9  1  0  0  0  0
  3 39  1  0  0  0  0
  5 10  1  0  0  0  0
  5 26  1  0  0  0  0
  5 32  1  1  0  0  0
  6 12  1  0  0  0  0
  6 36  1  0  0  0  0
  6 19  1  6  0  0  0
  7  8  1  6  0  0  0
  7 14  1  0  0  0  0
  9 16  1  0  0  0  0
 10 11  1  6  0  0  0
 10 18  1  0  0  0  0
 12 13  1  6  0  0  0
 12 20  1  0  0  0  0
 14 15  1  1  0  0  0
 14 22  1  0  0  0  0
 16 17  1  6  0  0  0
 16 24  1  0  0  0  0
 18 19  1  1  0  0  0
 18 25  1  0  0  0  0
 20 21  1  6  0  0  0
 20 27  1  0  0  0  0
 22 23  1  1  0  0  0
 22 29  1  0  0  0  0
 24  2  1  1  0  0  0
 24 31  1  0  0  0  0
 25 26  1  0  0  0  0
 25 33  1  6  0  0  0
 27 28  1  6  0  0  0
 27 35  1  0  0  0  0
 29 30  1  0  0  0  0
 29 37  1  1  0  0  0
 31 32  1  1  0  0  0
 31 39  1  0  0  0  0
 33 34  1  0  0  0  0
 35 36  1  0  0  0  0
 35 41  1  6  0  0  0
 37 38  1  0  0  0  0
 39 40  1  1  0  0  0
 41 42  1  0  0  0  0
M  END
>  <CHROM.1>
-176.75671259,57.86977248,-60.66711834,-80.15374514,-58.53727449,-175.56179548
-79.52959178,66.26014350,64.44306018,7.98630242,1.65120770,4.48458465,2.20393232
-0.66565265,0.35734878

>  <Name>
ligand

>  <RI>
0

>  <Rbt.Current_Directory>
/home/itssahil/PROJECTS/Mol_Feturizer/Test_systems_manuscript/rnas/2o3w

>  <Rbt.Executable>
rbdock ($Id: //depot/dev/client3/rdock/2013.1/src/exe/rbdock.cxx#4 $)

>  <Rbt.Library>
libRbt.so (2013.1, Build901 2013/11/27)

>  <Rbt.Parameter_File>
/export/apps/rDock/src/rDock_2013.1_src/data/scripts/dock_solv.prm

>  <Rbt.Receptor>
prm/pocket_docking_6.prm

>  <SCORE>
-10.4268

>  <SCORE.INTER>
-0.150685

>  <SCORE.INTER.CONST>
1

>  <SCORE.INTER.POLAR>
0

>  <SCORE.INTER.ROT>
9

>  <SCORE.INTER.SOLV>
9.54791

>  <SCORE.INTER.VDW>
-12.8831

>  <SCORE.INTER.norm>
-0.00358774

>  <SCORE.INTRA>
-10.2761

>  <SCORE.INTRA.DIHEDRAL>
-23.8112

>  <SCORE.INTRA.DIHEDRAL.0>
27.8999

>  <SCORE.INTRA.POLAR>
0

>  <SCORE.INTRA.POLAR.0>
0

>  <SCORE.INTRA.REPUL>
0

>  <SCORE.INTRA.REPUL.0>
0

>  <SCORE.INTRA.SOLV>
-2.29117

>  <SCORE.INTRA.SOLV.lig_0>
-104.479

>  <SCORE.INTRA.VDW>
2.77504

>  <SCORE.INTRA.VDW.0>
-6.17816

>  <SCORE.INTRA.norm>
-0.24467

>  <SCORE.RESTR>
0

>  <SCORE.RESTR.CAVITY>
0

>  <SCORE.RESTR.norm>
0

>  <SCORE.SYSTEM>
0

>  <SCORE.SYSTEM.CONST>
0

>  <SCORE.SYSTEM.DIHEDRAL>
0

>  <SCORE.SYSTEM.SOLV>
0

>  <SCORE.SYSTEM.norm>
0

>  <SCORE.heavy>
42

>  <SCORE.norm>
-0.248257

>  <RMSD>
9.098

$$$$
ligand
 OpenBabel02271912133D
libRbt.so/2013.1/901 2013/11/27
 42 45  0  0  0  0  0  0  0  0999 V2000
    6.9593    5.2816    1.1046 C   0  0  2  0  0  0  0  0  0  0  0  0
    6.8828    4.0070    1.7654 O   0  0  0  0  0  0  0  0  0  0  0  0
    6.5836    5.4888    5.8288 C   0  0  2  0  0  0  0  0  0  0  0  0
    6.4643    5.5634    7.3156 N   0  0  0  0  0  0  0  0  0  0  0  0
    8.7585    2.1119    3.5953 C   0  0  1  0  0  0  0  0  0  0  0  0
    9.0223   -2.2367    4.3956 C   0  0  1  0  0  0  0  0  0  0  0  0
    7.1158    4.9956   -0.4191 C   0  0  2  0  0  0  0  0  0  0  0  0
    6.1163    4.0350   -0.9180 N   0  0  0  0  0  0  0  0  0  0  0  0
    5.2877    4.8552    5.1800 C   0  0  0  0  0  0  0  0  0  0  0  0
   10.0301    1.2517    3.3235 C   0  0  2  0  0  0  0  0  0  0  0  0
   10.2075    0.8852    1.9330 O   0  0  0  0  0  0  0  0  0  0  0  0
    8.4198   -3.4483    3.5970 C   0  0  2  0  0  0  0  0  0  0  0  0
    7.0589   -3.1202    3.0763 N   0  0  0  0  0  0  0  0  0  0  0  0
    8.5001    4.4173   -0.7660 C   0  0  1  0  0  0  0  0  0  0  0  0
    8.6131    4.2083   -2.1746 O   0  0  0  0  0  0  0  0  0  0  0  0
    5.4637    4.8242    3.6146 C   0  0  2  0  0  0  0  0  0  0  0  0
    4.2542    4.2461    2.9692 N   0  0  0  0  0  0  0  0  0  0  0  0
    9.8145    0.0882    4.2926 C   0  0  2  0  0  0  0  0  0  0  0  0
    9.0744   -1.0060    3.6635 O   0  0  0  0  0  0  0  0  0  0  0  0
    8.3772   -4.7384    4.5461 C   0  0  1  0  0  0  0  0  0  0  0  0
    9.7223   -5.2401    4.7132 O   0  0  0  0  0  0  0  0  0  0  0  0
    9.6015    5.3693   -0.2465 C   0  0  2  0  0  0  0  0  0  0  0  0
   10.8751    4.8623   -0.5709 O   0  0  0  0  0  0  0  0  0  0  0  0
    6.7350    3.9762    3.2137 C   0  0  2  0  0  0  0  0  0  0  0  0
    9.0407    0.6694    5.4880 C   0  0  2  0  0  0  0  0  0  0  0  0
    8.2675    1.7099    4.8947 O   0  0  0  0  0  0  0  0  0  0  0  0
    7.7368   -4.4328    5.9827 C   0  0  2  0  0  0  0  0  0  0  0  0
    6.3445   -4.1860    5.7902 O   0  0  0  0  0  0  0  0  0  0  0  0
    9.4483    5.5300    1.3028 C   0  0  2  0  0  0  0  0  0  0  0  0
    8.1163    6.0480    1.6144 O   0  0  0  0  0  0  0  0  0  0  0  0
    8.0350    4.5047    3.8585 C   0  0  2  0  0  0  0  0  0  0  0  0
    9.0503    3.5142    3.5382 O   0  0  0  0  0  0  0  0  0  0  0  0
    9.9321    1.2215    6.6433 C   0  0  0  0  0  0  0  0  0  0  0  0
    9.0984    1.7698    7.6598 O   0  0  0  0  0  0  0  0  0  0  0  0
    8.4264   -3.1799    6.6435 C   0  0  1  0  0  0  0  0  0  0  0  0
    8.2560   -2.0691    5.6909 O   0  0  0  0  0  0  0  0  0  0  0  0
   10.4860    6.4542    1.8969 C   0  0  0  0  0  0  0  0  0  0  0  0
   11.7741    5.9195    1.7122 O   0  0  0  0  0  0  0  0  0  0  0  0
    7.8545    4.6372    5.4287 C   0  0  1  0  0  0  0  0  0  0  0  0
    9.0016    5.2672    6.0058 O   0  0  0  0  0  0  0  0  0  0  0  0
    7.8272   -2.7840    8.0623 C   0  0  0  0  0  0  0  0  0  0  0  0
    7.9316   -3.8288    9.1178 N   0  0  0  0  0  0  0  0  0  0  0  0
  1  2  1  1  0  0  0
  1  7  1  0  0  0  0
  1 30  1  0  0  0  0
  3  4  1  1  0  0  0
  3  9  1  0  0  0  0
  3 39  1  0  0  0  0
  5 10  1  0  0  0  0
  5 26  1  0  0  0  0
  5 32  1  1  0  0  0
  6 12  1  0  0  0  0
  6 36  1  0  0  0  0
  6 19  1  6  0  0  0
  7  8  1  1  0  0  0
  7 14  1  0  0  0  0
  9 16  1  0  0  0  0
 10 11  1  6  0  0  0
 10 18  1  0  0  0  0
 12 13  1  1  0  0  0
 12 20  1  0  0  0  0
 14 15  1  6  0  0  0
 14 22  1  0  0  0  0
 16 17  1  6  0  0  0
 16 24  1  0  0  0  0
 18 19  1  6  0  0  0
 18 25  1  0  0  0  0
 20 21  1  1  0  0  0
 20 27  1  0  0  0  0
 22 23  1  1  0  0  0
 22 29  1  0  0  0  0
 24  2  1  6  0  0  0
 24 31  1  0  0  0  0
 25 26  1  0  0  0  0
 25 33  1  1  0  0  0
 27 28  1  6  0  0  0
 27 35  1  0  0  0  0
 29 30  1  0  0  0  0
 29 37  1  6  0  0  0
 31 32  1  1  0  0  0
 31 39  1  0  0  0  0
 33 34  1  0  0  0  0
 35 36  1  0  0  0  0
 35 41  1  1  0  0  0
 37 38  1  0  0  0  0
 39 40  1  6  0  0  0
 41 42  1  0  0  0  0
M  END
>  <CHROM.1>
179.87348419,55.35419342,169.26391494,-170.81735236,177.96176808,-63.16124100
-40.91159273,-175.39372821,60.50013668,8.28555568,1.84341639,3.66649869,-1.55955004
-1.28765302,2.66231611

>  <Name>
ligand

>  <RI>
0

>  <Rbt.Current_Directory>
/home/itssahil/PROJECTS/Mol_Feturizer/Test_systems_manuscript/rnas/2o3w

>  <Rbt.Executable>
rbdock ($Id: //depot/dev/client3/rdock/2013.1/src/exe/rbdock.cxx#4 $)

>  <Rbt.Library>
libRbt.so (2013.1, Build901 2013/11/27)

>  <Rbt.Parameter_File>
/export/apps/rDock/src/rDock_2013.1_src/data/scripts/dock_solv.prm

>  <Rbt.Receptor>
prm/pocket_docking_6.prm

>  <SCORE>
-12.9263

>  <SCORE.INTER>
-1.10079

>  <SCORE.INTER.CONST>
1

>  <SCORE.INTER.POLAR>
0

>  <SCORE.INTER.ROT>
9

>  <SCORE.INTER.SOLV>
16.1632

>  <SCORE.INTER.VDW>
-15.7216

>  <SCORE.INTER.norm>
-0.0262093

>  <SCORE.INTRA>
-11.8255

>  <SCORE.INTRA.DIHEDRAL>
-24.8818

>  <SCORE.INTRA.DIHEDRAL.0>
27.8999

>  <SCORE.INTRA.POLAR>
0

>  <SCORE.INTRA.POLAR.0>
0

>  <SCORE.INTRA.REPUL>
0

>  <SCORE.INTRA.REPUL.0>
0

>  <SCORE.INTRA.SOLV>
-4.767

>  <SCORE.INTRA.SOLV.lig_0>
-104.479

>  <SCORE.INTRA.VDW>
2.99884

>  <SCORE.INTRA.VDW.0>
-6.17816

>  <SCORE.INTRA.norm>
-0.281561

>  <SCORE.RESTR>
0

>  <SCORE.RESTR.CAVITY>
0

>  <SCORE.RESTR.norm>
0

>  <SCORE.SYSTEM>
0

>  <SCORE.SYSTEM.CONST>
0

>  <SCORE.SYSTEM.DIHEDRAL>
0

>  <SCORE.SYSTEM.SOLV>
0

>  <SCORE.SYSTEM.norm>
0

>  <SCORE.heavy>
42

>  <SCORE.norm>
-0.30777

>  <RMSD>
9.121

$$$$
ligand
 OpenBabel02271912133D
libRbt.so/2013.1/901 2013/11/27
 42 45  0  0  0  0  0  0  0  0999 V2000
    5.3187    3.7239    4.1222 C   0  0  2  0  0  0  0  0  0  0  0  0
    4.4606    2.5854    4.3085 O   0  0  0  0  0  0  0  0  0  0  0  0
    5.1509   -1.6894    4.0958 C   0  0  2  0  0  0  0  0  0  0  0  0
    5.5596   -3.0476    3.6281 N   0  0  0  0  0  0  0  0  0  0  0  0
    8.3754    1.5269    5.0829 C   0  0  1  0  0  0  0  0  0  0  0  0
   11.8899    2.2716    7.5329 C   0  0  1  0  0  0  0  0  0  0  0  0
    4.6229    4.9359    4.8115 C   0  0  2  0  0  0  0  0  0  0  0  0
    4.1937    4.6316    6.1877 N   0  0  0  0  0  0  0  0  0  0  0  0
    4.0205   -1.0804    3.1722 C   0  0  0  0  0  0  0  0  0  0  0  0
    9.3768    2.6645    4.7172 C   0  0  2  0  0  0  0  0  0  0  0  0
   10.2883    2.3246    3.6435 O   0  0  0  0  0  0  0  0  0  0  0  0
   12.5768    3.6712    7.7278 C   0  0  2  0  0  0  0  0  0  0  0  0
   13.5228    3.9615    6.6089 N   0  0  0  0  0  0  0  0  0  0  0  0
    3.3698    5.4022    4.0477 C   0  0  1  0  0  0  0  0  0  0  0  0
    2.7884    6.5371    4.6918 O   0  0  0  0  0  0  0  0  0  0  0  0
    3.6170    0.3379    3.7274 C   0  0  2  0  0  0  0  0  0  0  0  0
    2.5429    0.9353    2.8889 N   0  0  0  0  0  0  0  0  0  0  0  0
   10.0255    2.9372    6.0752 C   0  0  2  0  0  0  0  0  0  0  0  0
   11.2134    2.1079    6.2802 O   0  0  0  0  0  0  0  0  0  0  0  0
   13.3314    3.6976    9.1408 C   0  0  1  0  0  0  0  0  0  0  0  0
   12.3468    3.7941   10.1945 O   0  0  0  0  0  0  0  0  0  0  0  0
    3.7467    5.7166    2.5820 C   0  0  2  0  0  0  0  0  0  0  0  0
    2.6134    6.1611    1.8732 O   0  0  0  0  0  0  0  0  0  0  0  0
    4.8679    1.3025    3.7530 C   0  0  2  0  0  0  0  0  0  0  0  0
    8.9467    2.6356    7.1291 C   0  0  2  0  0  0  0  0  0  0  0  0
    8.1737    1.6086    6.5125 O   0  0  0  0  0  0  0  0  0  0  0  0
   14.2482    2.4056    9.3807 C   0  0  2  0  0  0  0  0  0  0  0  0
   15.3505    2.4857    8.4779 O   0  0  0  0  0  0  0  0  0  0  0  0
    4.3429    4.4294    1.9207 C   0  0  2  0  0  0  0  0  0  0  0  0
    5.5111    3.9827    2.6793 O   0  0  0  0  0  0  0  0  0  0  0  0
    6.0374    0.7444    4.5932 C   0  0  2  0  0  0  0  0  0  0  0  0
    7.1466    1.6542    4.3557 O   0  0  0  0  0  0  0  0  0  0  0  0
    8.0522    3.8520    7.5220 C   0  0  0  0  0  0  0  0  0  0  0  0
    8.8709    4.8799    8.0718 O   0  0  0  0  0  0  0  0  0  0  0  0
   13.4272    1.0858    9.1230 C   0  0  1  0  0  0  0  0  0  0  0  0
   12.9203    1.1821    7.7431 O   0  0  0  0  0  0  0  0  0  0  0  0
    4.7467    4.6490    0.4811 C   0  0  0  0  0  0  0  0  0  0  0  0
    3.6225    4.9954   -0.2904 O   0  0  0  0  0  0  0  0  0  0  0  0
    6.4030   -0.7240    4.1180 C   0  0  1  0  0  0  0  0  0  0  0  0
    7.3802   -1.2963    4.9916 O   0  0  0  0  0  0  0  0  0  0  0  0
   14.2721   -0.2487    9.3063 C   0  0  0  0  0  0  0  0  0  0  0  0
   14.7404   -0.5272   10.6918 N   0  0  0  0  0  0  0  0  0  0  0  0
  1  2  1  6  0  0  0
  1  7  1  0  0  0  0
  1 30  1  0  0  0  0
  3  4  1  6  0  0  0
  3  9  1  0  0  0  0
  3 39  1  0  0  0  0
  5 10  1  0  0  0  0
  5 26  1  0  0  0  0
  5 32  1  6  0  0  0
  6 12  1  0  0  0  0
  6 36  1  0  0  0  0
  6 19  1  6  0  0  0
  7  8  1  1  0  0  0
  7 14  1  0  0  0  0
  9 16  1  0  0  0  0
 10 11  1  6  0  0  0
 10 18  1  0  0  0  0
 12 13  1  6  0  0  0
 12 20  1  0  0  0  0
 14 15  1  1  0  0  0
 14 22  1  0  0  0  0
 16 17  1  6  0  0  0
 16 24  1  0  0  0  0
 18 19  1  1  0  0  0
 18 25  1  0  0  0  0
 20 21  1  1  0  0  0
 20 27  1  0  0  0  0
 22 23  1  6  0  0  0
 22 29  1  0  0  0  0
 24  2  1  1  0  0  0
 24 31  1  0  0  0  0
 25 26  1  0  0  0  0
 25 33  1  6  0  0  0
 27 28  1  6  0  0  0
 27 35  1  0  0  0  0
 29 30  1  0  0  0  0
 29 37  1  6  0  0  0
 31 32  1  6  0  0  0
 31 39  1  0  0  0  0
 33 34  1  0  0  0  0
 35 36  1  0  0  0  0
 35 41  1  6  0  0  0
 37 38  1  0  0  0  0
 39 40  1  1  0  0  0
 41 42  1  0  0  0  0
M  END
>  <CHROM.1>
179.71180958,-164.27506508,-179.19390580,-67.19935179,-60.64896858,-61.92068433
173.67618171,-176.52956703,65.99899344,7.95951739,2.48518403,5.41240512,-3.04516563
0.55623445,-3.08796774

>  <Name>
ligand

>  <RI>
0

>  <Rbt.Current_Directory>
/home/itssahil/PROJECTS/Mol_Feturizer/Test_systems_manuscript/rnas/2o3w

>  <Rbt.Executable>
rbdock ($Id: //depot/dev/client3/rdock/2013.1/src/exe/rbdock.cxx#4 $)

>  <Rbt.Library>
libRbt.so (2013.1, Build901 2013/11/27)

>  <Rbt.Parameter_File>
/export/apps/rDock/src/rDock_2013.1_src/data/scripts/dock_solv.prm

>  <Rbt.Receptor>
prm/pocket_docking_7.prm

>  <SCORE>
-15.4496

>  <SCORE.INTER>
-2.2855

>  <SCORE.INTER.CONST>
1

>  <SCORE.INTER.POLAR>
0

>  <SCORE.INTER.ROT>
9

>  <SCORE.INTER.SOLV>
14.8995

>  <SCORE.INTER.VDW>
-16.0902

>  <SCORE.INTER.norm>
-0.0544167

>  <SCORE.INTRA>
-13.1641

>  <SCORE.INTRA.DIHEDRAL>
-25.9559

>  <SCORE.INTRA.DIHEDRAL.0>
27.8999

>  <SCORE.INTRA.POLAR>
0

>  <SCORE.INTRA.POLAR.0>
0

>  <SCORE.INTRA.REPUL>
0

>  <SCORE.INTRA.REPUL.0>
0

>  <SCORE.INTRA.SOLV>
-5.11288

>  <SCORE.INTRA.SOLV.lig_0>
-104.479

>  <SCORE.INTRA.VDW>
2.37031

>  <SCORE.INTRA.VDW.0>
-6.17816

>  <SCORE.INTRA.norm>
-0.313431

>  <SCORE.RESTR>
0

>  <SCORE.RESTR.CAVITY>
0

>  <SCORE.RESTR.norm>
0

>  <SCORE.SYSTEM>
0

>  <SCORE.SYSTEM.CONST>
0

>  <SCORE.SYSTEM.DIHEDRAL>
0

>  <SCORE.SYSTEM.SOLV>
0

>  <SCORE.SYSTEM.norm>
0

>  <SCORE.heavy>
42

>  <SCORE.norm>
-0.367847

>  <RMSD>
9.122

$$$$
ligand
 OpenBabel02271912133D
libRbt.so/2013.1/901 2013/11/27
 42 45  0  0  0  0  0  0  0  0999 V2000
   10.3535    2.5094    4.7839 C   0  0  2  0  0  0  0  0  0  0  0  0
    9.5144    2.7257    5.9313 O   0  0  0  0  0  0  0  0  0  0  0  0
    5.3586    3.7261    6.6558 C   0  0  2  0  0  0  0  0  0  0  0  0
    3.9884    4.3074    6.5337 N   0  0  0  0  0  0  0  0  0  0  0  0
    6.8645    0.6680    3.4990 C   0  0  1  0  0  0  0  0  0  0  0  0
    5.9748   -3.1288    1.3603 C   0  0  1  0  0  0  0  0  0  0  0  0
   11.5817    1.6815    5.2680 C   0  0  2  0  0  0  0  0  0  0  0  0
   11.1898    0.4968    6.0512 N   0  0  0  0  0  0  0  0  0  0  0  0
    6.4402    4.8532    6.9041 C   0  0  0  0  0  0  0  0  0  0  0  0
    7.5504    0.2093    2.1762 C   0  0  2  0  0  0  0  0  0  0  0  0
    7.0226    0.8467    0.9870 O   0  0  0  0  0  0  0  0  0  0  0  0
    4.6416   -3.5325    0.6335 C   0  0  2  0  0  0  0  0  0  0  0  0
    3.4512   -3.0496    1.3956 N   0  0  0  0  0  0  0  0  0  0  0  0
   12.5301    2.5079    6.1560 C   0  0  1  0  0  0  0  0  0  0  0  0
   13.6592    1.7230    6.5430 O   0  0  0  0  0  0  0  0  0  0  0  0
    7.8569    4.1784    7.0463 C   0  0  2  0  0  0  0  0  0  0  0  0
    8.8990    5.2107    7.2958 N   0  0  0  0  0  0  0  0  0  0  0  0
    7.3620   -1.3065    2.2541 C   0  0  2  0  0  0  0  0  0  0  0  0
    6.1112   -1.7264    1.6217 O   0  0  0  0  0  0  0  0  0  0  0  0
    4.6005   -5.1236    0.4496 C   0  0  1  0  0  0  0  0  0  0  0  0
    5.5325   -5.4980   -0.5897 O   0  0  0  0  0  0  0  0  0  0  0  0
   12.9628    3.7847    5.3998 C   0  0  2  0  0  0  0  0  0  0  0  0
   13.8449    4.5442    6.1931 O   0  0  0  0  0  0  0  0  0  0  0  0
    8.2193    3.3638    5.7421 C   0  0  2  0  0  0  0  0  0  0  0  0
    7.3756   -1.6596    3.7509 C   0  0  2  0  0  0  0  0  0  0  0  0
    6.8296   -0.4925    4.3611 O   0  0  0  0  0  0  0  0  0  0  0  0
    4.9544   -5.9148    1.7973 C   0  0  2  0  0  0  0  0  0  0  0  0
    3.8760   -5.7148    2.7102 O   0  0  0  0  0  0  0  0  0  0  0  0
   11.6894    4.6185    5.0354 C   0  0  2  0  0  0  0  0  0  0  0  0
   10.7860    3.8061    4.2207 O   0  0  0  0  0  0  0  0  0  0  0  0
    7.1738    2.2785    5.4041 C   0  0  2  0  0  0  0  0  0  0  0  0
    7.5626    1.7665    4.0998 O   0  0  0  0  0  0  0  0  0  0  0  0
    8.7832   -1.9925    4.3358 C   0  0  0  0  0  0  0  0  0  0  0  0
    8.6549   -2.3105    5.7183 O   0  0  0  0  0  0  0  0  0  0  0  0
    6.3005   -5.3811    2.4181 C   0  0  1  0  0  0  0  0  0  0  0  0
    6.1070   -3.9368    2.6342 O   0  0  0  0  0  0  0  0  0  0  0  0
   12.0205    5.8875    4.2845 C   0  0  0  0  0  0  0  0  0  0  0  0
   12.6862    5.5807    3.0837 O   0  0  0  0  0  0  0  0  0  0  0  0
    5.7215    2.9136    5.3486 C   0  0  1  0  0  0  0  0  0  0  0  0
    4.7396    1.8864    5.1863 O   0  0  0  0  0  0  0  0  0  0  0  0
    6.7113   -6.0905    3.7806 C   0  0  0  0  0  0  0  0  0  0  0  0
    8.0139   -5.6620    4.3605 N   0  0  0  0  0  0  0  0  0  0  0  0
  1  2  1  1  0  0  0
  1  7  1  0  0  0  0
  1 30  1  0  0  0  0
  3  4  1  6  0  0  0
  3  9  1  0  0  0  0
  3 39  1  0  0  0  0
  5 10  1  0  0  0  0
  5 26  1  0  0  0  0
  5 32  1  1  0  0  0
  6 12  1  0  0  0  0
  6 36  1  0  0  0  0
  6 19  1  1  0  0  0
  7  8  1  1  0  0  0
  7 14  1  0  0  0  0
  9 16  1  0  0  0  0
 10 11  1  6  0  0  0
 10 18  1  0  0  0  0
 12 13  1  1  0  0  0
 12 20  1  0  0  0  0
 14 15  1  6  0  0  0
 14 22  1  0  0  0  0
 16 17  1  6  0  0  0
 16 24  1  0  0  0  0
 18 19  1  1  0  0  0
 18 25  1  0  0  0  0
 20 21  1  6  0  0  0
 20 27  1  0  0  0  0
 22 23  1  1  0  0  0
 22 29  1  0  0  0  0
 24  2  1  1  0  0  0
 24 31  1  0  0  0  0
 25 26  1  0  0  0  0
 25 33  1  1  0  0  0
 27 28  1  1  0  0  0
 27 35  1  0  0  0  0
 29 30  1  0  0  0  0
 29 37  1  6  0  0  0
 31 32  1  6  0  0  0
 31 39  1  0  0  0  0
 33 34  1  0  0  0  0
 35 36  1  0  0  0  0
 35 41  1  1  0  0  0
 37 38  1  0  0  0  0
 39 40  1  1  0  0  0
 41 42  1  0  0  0  0
M  END
>  <CHROM.1>
-173.94414885,-149.50280180,166.08892697,-177.86506126,-179.53103345,59.86172086
175.69742961,-174.26917803,176.95191993,8.00952451,0.31794156,4.10349182
-1.04968721,0.04397756,-2.75195939

>  <Name>
ligand

>  <RI>
0

>  <Rbt.Current_Directory>
/home/itssahil/PROJECTS/Mol_Feturizer/Test_systems_manuscript/rnas/2o3w

>  <Rbt.Executable>
rbdock ($Id: //depot/dev/client3/rdock/2013.1/src/exe/rbdock.cxx#4 $)

>  <Rbt.Library>
libRbt.so (2013.1, Build901 2013/11/27)

>  <Rbt.Parameter_File>
/export/apps/rDock/src/rDock_2013.1_src/data/scripts/dock_solv.prm

>  <Rbt.Receptor>
prm/pocket_docking_6.prm

>  <SCORE>
-11.058

>  <SCORE.INTER>
0.320902

>  <SCORE.INTER.CONST>
1

>  <SCORE.INTER.POLAR>
0

>  <SCORE.INTER.ROT>
9

>  <SCORE.INTER.SOLV>
14.5445

>  <SCORE.INTER.VDW>
-14.2342

>  <SCORE.INTER.norm>
0.00764053

>  <SCORE.INTRA>
-11.3789

>  <SCORE.INTRA.DIHEDRAL>
-22.6953

>  <SCORE.INTRA.DIHEDRAL.0>
27.8999

>  <SCORE.INTRA.POLAR>
0

>  <SCORE.INTRA.POLAR.0>
0

>  <SCORE.INTRA.REPUL>
0

>  <SCORE.INTRA.REPUL.0>
0

>  <SCORE.INTRA.SOLV>
-2.82001

>  <SCORE.INTRA.SOLV.lig_0>
-104.479

>  <SCORE.INTRA.VDW>
1.37878

>  <SCORE.INTRA.VDW.0>
-6.17816

>  <SCORE.INTRA.norm>
-0.270926

>  <SCORE.RESTR>
0

>  <SCORE.RESTR.CAVITY>
0

>  <SCORE.RESTR.norm>
0

>  <SCORE.SYSTEM>
0

>  <SCORE.SYSTEM.CONST>
0

>  <SCORE.SYSTEM.DIHEDRAL>
0

>  <SCORE.SYSTEM.SOLV>
0

>  <SCORE.SYSTEM.norm>
0

>  <SCORE.heavy>
42

>  <SCORE.norm>
-0.263285

>  <RMSD>
9.141

$$$$
ligand
 OpenBabel02271912133D
libRbt.so/2013.1/901 2013/11/27
 42 45  0  0  0  0  0  0  0  0999 V2000
    9.7221    5.6733    6.5639 C   0  0  2  0  0  0  0  0  0  0  0  0
   10.6368    4.8150    5.8611 O   0  0  0  0  0  0  0  0  0  0  0  0
    9.3890    5.8320    1.8356 C   0  0  2  0  0  0  0  0  0  0  0  0
    9.2639    5.8743    0.3480 N   0  0  0  0  0  0  0  0  0  0  0  0
   10.2014    1.9219    3.8199 C   0  0  1  0  0  0  0  0  0  0  0  0
   12.2851   -1.8543    2.7204 C   0  0  1  0  0  0  0  0  0  0  0  0
   10.0515    5.5441    8.0815 C   0  0  2  0  0  0  0  0  0  0  0  0
   11.4878    5.7127    8.3629 N   0  0  0  0  0  0  0  0  0  0  0  0
   10.8209    6.3128    2.3050 C   0  0  0  0  0  0  0  0  0  0  0  0
   10.3977    0.7001    4.7684 C   0  0  2  0  0  0  0  0  0  0  0  0
   11.4794    0.8599    5.7190 O   0  0  0  0  0  0  0  0  0  0  0  0
   13.8205   -2.1030    2.4979 C   0  0  2  0  0  0  0  0  0  0  0  0
   14.4470   -0.9572    1.7729 N   0  0  0  0  0  0  0  0  0  0  0  0
    9.6443    4.1736    8.6531 C   0  0  1  0  0  0  0  0  0  0  0  0
    9.9275    4.1141   10.0521 O   0  0  0  0  0  0  0  0  0  0  0  0
   10.8838    6.2676    3.8787 C   0  0  2  0  0  0  0  0  0  0  0  0
   12.2153    6.7284    4.3568 N   0  0  0  0  0  0  0  0  0  0  0  0
   10.5662   -0.4360    3.7583 C   0  0  2  0  0  0  0  0  0  0  0  0
   11.9706   -0.6309    3.3971 O   0  0  0  0  0  0  0  0  0  0  0  0
   14.0229   -3.4733    1.6927 C   0  0  1  0  0  0  0  0  0  0  0  0
   13.7532   -4.5812    2.5807 O   0  0  0  0  0  0  0  0  0  0  0  0
    8.1459    3.9212    8.3694 C   0  0  2  0  0  0  0  0  0  0  0  0
    7.7531    2.6773    8.9014 O   0  0  0  0  0  0  0  0  0  0  0  0
   10.6091    4.8037    4.4053 C   0  0  2  0  0  0  0  0  0  0  0  0
    9.7249   -0.0424    2.5325 C   0  0  2  0  0  0  0  0  0  0  0  0
    9.7880    1.3819    2.5437 O   0  0  0  0  0  0  0  0  0  0  0  0
   13.0811   -3.5805    0.4007 C   0  0  2  0  0  0  0  0  0  0  0  0
   13.5488   -2.6282   -0.5536 O   0  0  0  0  0  0  0  0  0  0  0  0
    7.9050    3.9624    6.8235 C   0  0  2  0  0  0  0  0  0  0  0  0
    8.3289    5.2585    6.2940 O   0  0  0  0  0  0  0  0  0  0  0  0
    9.2476    4.2446    3.9372 C   0  0  2  0  0  0  0  0  0  0  0  0
    9.2455    2.8500    4.3490 O   0  0  0  0  0  0  0  0  0  0  0  0
    8.2461   -0.5389    2.5622 C   0  0  0  0  0  0  0  0  0  0  0  0
    7.5678    0.0686    3.6574 O   0  0  0  0  0  0  0  0  0  0  0  0
   11.5814   -3.2813    0.7797 C   0  0  1  0  0  0  0  0  0  0  0  0
   11.5728   -1.9390    1.3868 O   0  0  0  0  0  0  0  0  0  0  0  0
    6.4581    3.7305    6.4541 C   0  0  0  0  0  0  0  0  0  0  0  0
    5.6578    4.7766    6.9485 O   0  0  0  0  0  0  0  0  0  0  0  0
    9.1170    4.3657    2.3612 C   0  0  1  0  0  0  0  0  0  0  0  0
    7.8013    3.9897    1.9448 O   0  0  0  0  0  0  0  0  0  0  0  0
   10.5790   -3.3331   -0.4536 C   0  0  0  0  0  0  0  0  0  0  0  0
   10.4855   -4.6455   -1.1505 N   0  0  0  0  0  0  0  0  0  0  0  0
  1  2  1  6  0  0  0
  1  7  1  0  0  0  0
  1 30  1  0  0  0  0
  3  4  1  6  0  0  0
  3  9  1  0  0  0  0
  3 39  1  0  0  0  0
  5 10  1  0  0  0  0
  5 26  1  0  0  0  0
  5 32  1  1  0  0  0
  6 12  1  0  0  0  0
  6 36  1  0  0  0  0
  6 19  1  6  0  0  0
  7  8  1  6  0  0  0
  7 14  1  0  0  0  0
  9 16  1  0  0  0  0
 10 11  1  6  0  0  0
 10 18  1  0  0  0  0
 12 13  1  6  0  0  0
 12 20  1  0  0  0  0
 14 15  1  1  0  0  0
 14 22  1  0  0  0  0
 16 17  1  6  0  0  0
 16 24  1  0  0  0  0
 18 19  1  6  0  0  0
 18 25  1  0  0  0  0
 20 21  1  1  0  0  0
 20 27  1  0  0  0  0
 22 23  1  6  0  0  0
 22 29  1  0  0  0  0
 24  2  1  1  0  0  0
 24 31  1  0  0  0  0
 25 26  1  0  0  0  0
 25 33  1  1  0  0  0
 27 28  1  6  0  0  0
 27 35  1  0  0  0  0
 29 30  1  0  0  0  0
 29 37  1  1  0  0  0
 31 32  1  6  0  0  0
 31 39  1  0  0  0  0
 33 34  1  0  0  0  0
 35 36  1  0  0  0  0
 35 41  1  6  0  0  0
 37 38  1  0  0  0  0
 39 40  1  1  0  0  0
 41 42  1  0  0  0  0
M  END
>  <CHROM.1>
-176.17420253,58.39012979,165.48998798,-173.25718863,63.44856715,64.53540409
-62.87447077,157.13473753,61.28395638,10.29432038,1.80390499,3.96219788,-2.87177467
1.23093530,-1.24496005

>  <Name>
ligand

>  <RI>
0

>  <Rbt.Current_Directory>
/home/itssahil/PROJECTS/Mol_Feturizer/Test_systems_manuscript/rnas/2o3w

>  <Rbt.Executable>
rbdock ($Id: //depot/dev/client3/rdock/2013.1/src/exe/rbdock.cxx#4 $)

>  <Rbt.Library>
libRbt.so (2013.1, Build901 2013/11/27)

>  <Rbt.Parameter_File>
/export/apps/rDock/src/rDock_2013.1_src/data/scripts/dock_solv.prm

>  <Rbt.Receptor>
prm/pocket_docking_7.prm

>  <SCORE>
-14.858

>  <SCORE.INTER>
-2.748

>  <SCORE.INTER.CONST>
1

>  <SCORE.INTER.POLAR>
0

>  <SCORE.INTER.ROT>
9

>  <SCORE.INTER.SOLV>
12.2308

>  <SCORE.INTER.VDW>
-15.5089

>  <SCORE.INTER.norm>
-0.0654287

>  <SCORE.INTRA>
-12.11

>  <SCORE.INTRA.DIHEDRAL>
-24.0128

>  <SCORE.INTRA.DIHEDRAL.0>
27.8999

>  <SCORE.INTRA.POLAR>
0

>  <SCORE.INTRA.POLAR.0>
0

>  <SCORE.INTRA.REPUL>
0

>  <SCORE.INTRA.REPUL.0>
0

>  <SCORE.INTRA.SOLV>
-4.28547

>  <SCORE.INTRA.SOLV.lig_0>
-104.479

>  <SCORE.INTRA.VDW>
2.03915

>  <SCORE.INTRA.VDW.0>
-6.17816

>  <SCORE.INTRA.norm>
-0.288333

>  <SCORE.RESTR>
0

>  <SCORE.RESTR.CAVITY>
0

>  <SCORE.RESTR.norm>
0

>  <SCORE.SYSTEM>
0

>  <SCORE.SYSTEM.CONST>
0

>  <SCORE.SYSTEM.DIHEDRAL>
0

>  <SCORE.SYSTEM.SOLV>
0

>  <SCORE.SYSTEM.norm>
0

>  <SCORE.heavy>
42

>  <SCORE.norm>
-0.353762

>  <RMSD>
9.186

$$$$
ligand
 OpenBabel02271912133D
libRbt.so/2013.1/901 2013/11/27
 42 45  0  0  0  0  0  0  0  0999 V2000
    4.5550    5.9627    1.2416 C   0  0  2  0  0  0  0  0  0  0  0  0
    4.2322    5.2539    2.4502 O   0  0  0  0  0  0  0  0  0  0  0  0
    3.0428    1.2039    3.4395 C   0  0  2  0  0  0  0  0  0  0  0  0
    2.9713   -0.2863    3.5073 N   0  0  0  0  0  0  0  0  0  0  0  0
    7.0842    2.8068    3.5700 C   0  0  1  0  0  0  0  0  0  0  0  0
    8.9094    0.5157    2.9854 C   0  0  1  0  0  0  0  0  0  0  0  0
    5.1311    7.3470    1.6659 C   0  0  2  0  0  0  0  0  0  0  0  0
    6.1902    7.2290    2.6833 N   0  0  0  0  0  0  0  0  0  0  0  0
    2.7252    1.7280    1.9814 C   0  0  0  0  0  0  0  0  0  0  0  0
    7.1440    2.6901    2.0164 C   0  0  2  0  0  0  0  0  0  0  0  0
    6.3900    1.5754    1.4797 O   0  0  0  0  0  0  0  0  0  0  0  0
    9.9402    0.7659    4.1446 C   0  0  2  0  0  0  0  0  0  0  0  0
   11.3373    0.5156    3.6793 N   0  0  0  0  0  0  0  0  0  0  0  0
    4.0512    8.2740    2.2537 C   0  0  1  0  0  0  0  0  0  0  0  0
    4.6146    9.5426    2.5912 O   0  0  0  0  0  0  0  0  0  0  0  0
    2.7938    3.3021    1.9787 C   0  0  2  0  0  0  0  0  0  0  0  0
    2.4852    3.8312    0.6228 N   0  0  0  0  0  0  0  0  0  0  0  0
    8.6544    2.6430    1.7800 C   0  0  2  0  0  0  0  0  0  0  0  0
    9.1583    1.2694    1.7923 O   0  0  0  0  0  0  0  0  0  0  0  0
    9.5721   -0.1713    5.3909 C   0  0  1  0  0  0  0  0  0  0  0  0
    8.3912    0.3540    6.0377 O   0  0  0  0  0  0  0  0  0  0  0  0
    2.8925    8.4224    1.2414 C   0  0  2  0  0  0  0  0  0  0  0  0
    1.9029    9.2818    1.7577 O   0  0  0  0  0  0  0  0  0  0  0  0
    4.2249    3.7980    2.4281 C   0  0  2  0  0  0  0  0  0  0  0  0
    9.2865    3.4787    2.9058 C   0  0  2  0  0  0  0  0  0  0  0  0
    8.3787    3.2959    3.9897 O   0  0  0  0  0  0  0  0  0  0  0  0
    9.3186   -1.6962    4.9689 C   0  0  2  0  0  0  0  0  0  0  0  0
   10.5732   -2.2473    4.5705 O   0  0  0  0  0  0  0  0  0  0  0  0
    2.2940    7.0081    0.9395 C   0  0  2  0  0  0  0  0  0  0  0  0
    3.3416    6.1325    0.4143 O   0  0  0  0  0  0  0  0  0  0  0  0
    4.6280    3.2765    3.8249 C   0  0  2  0  0  0  0  0  0  0  0  0
    6.0185    3.6677    3.9919 O   0  0  0  0  0  0  0  0  0  0  0  0
    9.4710    4.9927    2.5774 C   0  0  0  0  0  0  0  0  0  0  0  0
    8.2132    5.5510    2.2098 O   0  0  0  0  0  0  0  0  0  0  0  0
    8.2848   -1.7803    3.7830 C   0  0  1  0  0  0  0  0  0  0  0  0
    8.8484   -0.9684    2.6906 O   0  0  0  0  0  0  0  0  0  0  0  0
    1.1538    7.0585   -0.0510 C   0  0  0  0  0  0  0  0  0  0  0  0
    0.5780    5.7828   -0.1929 O   0  0  0  0  0  0  0  0  0  0  0  0
    4.4766    1.6988    3.8865 C   0  0  1  0  0  0  0  0  0  0  0  0
    4.7033    1.2332    5.2197 O   0  0  0  0  0  0  0  0  0  0  0  0
    7.9990   -3.2604    3.2768 C   0  0  0  0  0  0  0  0  0  0  0  0
    7.3833   -4.1740    4.2781 N   0  0  0  0  0  0  0  0  0  0  0  0
  1  2  1  1  0  0  0
  1  7  1  0  0  0  0
  1 30  1  0  0  0  0
  3  4  1  6  0  0  0
  3  9  1  0  0  0  0
  3 39  1  0  0  0  0
  5 10  1  0  0  0  0
  5 26  1  0  0  0  0
  5 32  1  6  0  0  0
  6 12  1  0  0  0  0
  6 36  1  0  0  0  0
  6 19  1  6  0  0  0
  7  8  1  1  0  0  0
  7 14  1  0  0  0  0
  9 16  1  0  0  0  0
 10 11  1  1  0  0  0
 10 18  1  0  0  0  0
 12 13  1  6  0  0  0
 12 20  1  0  0  0  0
 14 15  1  6  0  0  0
 14 22  1  0  0  0  0
 16 17  1  6  0  0  0
 16 24  1  0  0  0  0
 18 19  1  1  0  0  0
 18 25  1  0  0  0  0
 20 21  1  6  0  0  0
 20 27  1  0  0  0  0
 22 23  1  1  0  0  0
 22 29  1  0  0  0  0
 24  2  1  1  0  0  0
 24 31  1  0  0  0  0
 25 26  1  0  0  0  0
 25 33  1  6  0  0  0
 27 28  1  6  0  0  0
 27 35  1  0  0  0  0
 29 30  1  0  0  0  0
 29 37  1  6  0  0  0
 31 32  1  6  0  0  0
 31 39  1  0  0  0  0
 33 34  1  0  0  0  0
 35 36  1  0  0  0  0
 35 41  1  6  0  0  0
 37 38  1  0  0  0  0
 39 40  1  1  0  0  0
 41 42  1  0  0  0  0
M  END
>  <CHROM.1>
-154.02710269,-87.48963917,-57.68410021,-82.89090987,56.02655249,-174.72053885
-89.67101004,68.89744385,62.70836943,6.03213884,3.04271077,2.75972446,-2.19898321
0.19099058,2.95696076

>  <Name>
ligand

>  <RI>
0

>  <Rbt.Current_Directory>
/home/itssahil/PROJECTS/Mol_Feturizer/Test_systems_manuscript/rnas/2o3w

>  <Rbt.Executable>
rbdock ($Id: //depot/dev/client3/rdock/2013.1/src/exe/rbdock.cxx#4 $)

>  <Rbt.Library>
libRbt.so (2013.1, Build901 2013/11/27)

>  <Rbt.Parameter_File>
/export/apps/rDock/src/rDock_2013.1_src/data/scripts/dock_solv.prm

>  <Rbt.Receptor>
prm/pocket_docking_3.prm

>  <SCORE>
-5.65633

>  <SCORE.INTER>
-1.5321

>  <SCORE.INTER.CONST>
1

>  <SCORE.INTER.POLAR>
0

>  <SCORE.INTER.ROT>
9

>  <SCORE.INTER.SOLV>
11.9809

>  <SCORE.INTER.VDW>
-14.615

>  <SCORE.INTER.norm>
-0.0364786

>  <SCORE.INTRA>
-4.12422

>  <SCORE.INTRA.DIHEDRAL>
-15.415

>  <SCORE.INTRA.DIHEDRAL.0>
27.8999

>  <SCORE.INTRA.POLAR>
0

>  <SCORE.INTRA.POLAR.0>
0

>  <SCORE.INTRA.REPUL>
0

>  <SCORE.INTRA.REPUL.0>
0

>  <SCORE.INTRA.SOLV>
3.05726

>  <SCORE.INTRA.SOLV.lig_0>
-104.479

>  <SCORE.INTRA.VDW>
2.05467

>  <SCORE.INTRA.VDW.0>
-6.17816

>  <SCORE.INTRA.norm>
-0.0981958

>  <SCORE.RESTR>
0

>  <SCORE.RESTR.CAVITY>
0

>  <SCORE.RESTR.norm>
0

>  <SCORE.SYSTEM>
0

>  <SCORE.SYSTEM.CONST>
0

>  <SCORE.SYSTEM.DIHEDRAL>
0

>  <SCORE.SYSTEM.SOLV>
0

>  <SCORE.SYSTEM.norm>
0

>  <SCORE.heavy>
42

>  <SCORE.norm>
-0.134674

>  <RMSD>
9.205

$$$$
ligand
 OpenBabel02271912133D
libRbt.so/2013.1/901 2013/11/27
 42 45  0  0  0  0  0  0  0  0999 V2000
    4.5326    4.8581    0.8260 C   0  0  2  0  0  0  0  0  0  0  0  0
    5.6523    5.7128    0.5379 O   0  0  0  0  0  0  0  0  0  0  0  0
    9.7230    5.7108    2.0298 C   0  0  2  0  0  0  0  0  0  0  0  0
   10.9121    5.7435    2.9327 N   0  0  0  0  0  0  0  0  0  0  0  0
    6.8829    2.1094    2.2948 C   0  0  1  0  0  0  0  0  0  0  0  0
    8.3278   -0.9049    4.8395 C   0  0  1  0  0  0  0  0  0  0  0  0
    3.4797    5.0928   -0.2985 C   0  0  2  0  0  0  0  0  0  0  0  0
    4.0665    5.0058   -1.6472 N   0  0  0  0  0  0  0  0  0  0  0  0
    8.9181    7.0711    2.0911 C   0  0  0  0  0  0  0  0  0  0  0  0
    7.0355    1.8063    3.8165 C   0  0  2  0  0  0  0  0  0  0  0  0
    8.3857    1.9664    4.3168 O   0  0  0  0  0  0  0  0  0  0  0  0
    9.7961   -1.3413    4.4896 C   0  0  2  0  0  0  0  0  0  0  0  0
    9.7979   -2.5161    3.5672 N   0  0  0  0  0  0  0  0  0  0  0  0
    2.8105    6.4755   -0.1930 C   0  0  1  0  0  0  0  0  0  0  0  0
    1.8268    6.6314   -1.2172 O   0  0  0  0  0  0  0  0  0  0  0  0
    7.6929    6.9840    1.1043 C   0  0  2  0  0  0  0  0  0  0  0  0
    6.9199    8.2551    1.1257 N   0  0  0  0  0  0  0  0  0  0  0  0
    6.4632    0.3902    3.8961 C   0  0  2  0  0  0  0  0  0  0  0  0
    7.5023   -0.6216    3.7029 O   0  0  0  0  0  0  0  0  0  0  0  0
   10.5863   -1.6715    5.8436 C   0  0  1  0  0  0  0  0  0  0  0  0
   10.8878   -0.4319    6.5228 O   0  0  0  0  0  0  0  0  0  0  0  0
    2.1921    6.6430    1.2136 C   0  0  2  0  0  0  0  0  0  0  0  0
    1.5606    7.8977    1.3209 O   0  0  0  0  0  0  0  0  0  0  0  0
    6.7464    5.7813    1.4963 C   0  0  2  0  0  0  0  0  0  0  0  0
    5.3901    0.3036    2.7978 C   0  0  2  0  0  0  0  0  0  0  0  0
    5.8826    1.1914    1.7970 O   0  0  0  0  0  0  0  0  0  0  0  0
    9.7633   -2.6341    6.8253 C   0  0  2  0  0  0  0  0  0  0  0  0
    9.7074   -3.9238    6.2171 O   0  0  0  0  0  0  0  0  0  0  0  0
    3.3209    6.4983    2.2881 C   0  0  2  0  0  0  0  0  0  0  0  0
    3.9669    5.1932    2.1502 O   0  0  0  0  0  0  0  0  0  0  0  0
    7.4803    4.4225    1.5127 C   0  0  2  0  0  0  0  0  0  0  0  0
    6.5225    3.4778    2.0648 O   0  0  0  0  0  0  0  0  0  0  0  0
    3.9525    0.7086    3.2490 C   0  0  0  0  0  0  0  0  0  0  0  0
    4.0149    1.9308    3.9778 O   0  0  0  0  0  0  0  0  0  0  0  0
    8.3080   -2.0775    7.0582 C   0  0  1  0  0  0  0  0  0  0  0  0
    7.6962   -1.9601    5.7232 O   0  0  0  0  0  0  0  0  0  0  0  0
    2.8017    6.6426    3.7000 C   0  0  0  0  0  0  0  0  0  0  0  0
    3.8734    6.6613    4.6112 O   0  0  0  0  0  0  0  0  0  0  0  0
    8.7748    4.5086    2.4251 C   0  0  1  0  0  0  0  0  0  0  0  0
    9.5339    3.3010    2.3199 O   0  0  0  0  0  0  0  0  0  0  0  0
    7.4074   -2.9919    7.9969 C   0  0  0  0  0  0  0  0  0  0  0  0
    7.1255   -4.3600    7.4817 N   0  0  0  0  0  0  0  0  0  0  0  0
  1  2  1  6  0  0  0
  1  7  1  0  0  0  0
  1 30  1  0  0  0  0
  3  4  1  1  0  0  0
  3  9  1  0  0  0  0
  3 39  1  0  0  0  0
  5 10  1  0  0  0  0
  5 26  1  0  0  0  0
  5 32  1  1  0  0  0
  6 12  1  0  0  0  0
  6 36  1  0  0  0  0
  6 19  1  6  0  0  0
  7  8  1  6  0  0  0
  7 14  1  0  0  0  0
  9 16  1  0  0  0  0
 10 11  1  6  0  0  0
 10 18  1  0  0  0  0
 12 13  1  6  0  0  0
 12 20  1  0  0  0  0
 14 15  1  6  0  0  0
 14 22  1  0  0  0  0
 16 17  1  1  0  0  0
 16 24  1  0  0  0  0
 18 19  1  6  0  0  0
 18 25  1  0  0  0  0
 20 21  1  1  0  0  0
 20 27  1  0  0  0  0
 22 23  1  6  0  0  0
 22 29  1  0  0  0  0
 24  2  1  6  0  0  0
 24 31  1  0  0  0  0
 25 26  1  0  0  0  0
 25 33  1  1  0  0  0
 27 28  1  6  0  0  0
 27 35  1  0  0  0  0
 29 30  1  0  0  0  0
 29 37  1  1  0  0  0
 31 32  1  1  0  0  0
 31 39  1  0  0  0  0
 33 34  1  0  0  0  0
 35 36  1  0  0  0  0
 35 41  1  1  0  0  0
 37 38  1  0  0  0  0
 39 40  1  6  0  0  0
 41 42  1  0  0  0  0
M  END
>  <CHROM.1>
174.88736856,-168.66622872,79.41255955,-149.27928537,47.00553605,-173.11837703
-176.82076961,107.77607825,-62.79972315,6.59940147,2.69798232,3.07734322
2.01369846,-0.10476075,-0.46995816

>  <Name>
ligand

>  <RI>
0

>  <Rbt.Current_Directory>
/home/itssahil/PROJECTS/Mol_Feturizer/Test_systems_manuscript/rnas/2o3w

>  <Rbt.Executable>
rbdock ($Id: //depot/dev/client3/rdock/2013.1/src/exe/rbdock.cxx#4 $)

>  <Rbt.Library>
libRbt.so (2013.1, Build901 2013/11/27)

>  <Rbt.Parameter_File>
/export/apps/rDock/src/rDock_2013.1_src/data/scripts/dock_solv.prm

>  <Rbt.Receptor>
prm/pocket_docking_4.prm

>  <SCORE>
-6.9455

>  <SCORE.INTER>
-0.0416027

>  <SCORE.INTER.CONST>
1

>  <SCORE.INTER.POLAR>
0

>  <SCORE.INTER.ROT>
9

>  <SCORE.INTER.SOLV>
8.92741

>  <SCORE.INTER.VDW>
-12.6035

>  <SCORE.INTER.norm>
-0.000990541

>  <SCORE.INTRA>
-6.91506

>  <SCORE.INTRA.DIHEDRAL>
-14.3076

>  <SCORE.INTRA.DIHEDRAL.0>
27.8999

>  <SCORE.INTRA.POLAR>
0

>  <SCORE.INTRA.POLAR.0>
0

>  <SCORE.INTRA.REPUL>
0

>  <SCORE.INTRA.REPUL.0>
0

>  <SCORE.INTRA.SOLV>
-3.59293

>  <SCORE.INTRA.SOLV.lig_0>
-104.479

>  <SCORE.INTRA.VDW>
2.03519

>  <SCORE.INTRA.VDW.0>
-6.17816

>  <SCORE.INTRA.norm>
-0.164644

>  <SCORE.RESTR>
0.0111694

>  <SCORE.RESTR.CAVITY>
0.0111694

>  <SCORE.RESTR.norm>
0.000265938

>  <SCORE.SYSTEM>
0

>  <SCORE.SYSTEM.CONST>
0

>  <SCORE.SYSTEM.DIHEDRAL>
0

>  <SCORE.SYSTEM.SOLV>
0

>  <SCORE.SYSTEM.norm>
0

>  <SCORE.heavy>
42

>  <SCORE.norm>
-0.165369

>  <RMSD>
9.218

$$$$
ligand
 OpenBabel02271912133D
libRbt.so/2013.1/901 2013/11/27
 42 45  0  0  0  0  0  0  0  0999 V2000
    8.1038    5.8366    3.5191 C   0  0  2  0  0  0  0  0  0  0  0  0
    7.5004    7.1092    3.2302 O   0  0  0  0  0  0  0  0  0  0  0  0
    3.3801    8.0215    2.2366 C   0  0  2  0  0  0  0  0  0  0  0  0
    2.0618    8.0894    1.5380 N   0  0  0  0  0  0  0  0  0  0  0  0
    4.8162    3.9499    3.8247 C   0  0  1  0  0  0  0  0  0  0  0  0
    3.8711    0.0164    4.1361 C   0  0  1  0  0  0  0  0  0  0  0  0
    9.3288    6.1128    4.4417 C   0  0  2  0  0  0  0  0  0  0  0  0
    8.9890    6.9748    5.5871 N   0  0  0  0  0  0  0  0  0  0  0  0
    4.5143    8.7306    1.3924 C   0  0  0  0  0  0  0  0  0  0  0  0
    5.5025    2.5549    3.7076 C   0  0  2  0  0  0  0  0  0  0  0  0
    5.1151    1.8045    2.5303 O   0  0  0  0  0  0  0  0  0  0  0  0
    2.5019   -0.7521    4.0772 C   0  0  2  0  0  0  0  0  0  0  0  0
    2.0323   -1.1112    5.4488 N   0  0  0  0  0  0  0  0  0  0  0  0
   10.4815    6.8046    3.6909 C   0  0  1  0  0  0  0  0  0  0  0  0
   11.5956    7.0020    4.5631 O   0  0  0  0  0  0  0  0  0  0  0  0
    5.8713    8.6461    2.1885 C   0  0  2  0  0  0  0  0  0  0  0  0
    6.9598    9.3176    1.4283 N   0  0  0  0  0  0  0  0  0  0  0  0
    5.1244    1.9243    5.0488 C   0  0  2  0  0  0  0  0  0  0  0  0
    3.8628    1.1884    4.9607 O   0  0  0  0  0  0  0  0  0  0  0  0
    2.6678   -2.0588    3.1652 C   0  0  1  0  0  0  0  0  0  0  0  0
    2.7460   -1.6548    1.7797 O   0  0  0  0  0  0  0  0  0  0  0  0
   10.8734    5.9602    2.4569 C   0  0  2  0  0  0  0  0  0  0  0  0
   11.9390    6.5718    1.7679 O   0  0  0  0  0  0  0  0  0  0  0  0
    6.2651    7.1404    2.4598 C   0  0  2  0  0  0  0  0  0  0  0  0
    5.0226    3.0867    6.0507 C   0  0  2  0  0  0  0  0  0  0  0  0
    4.5968    4.1764    5.2360 O   0  0  0  0  0  0  0  0  0  0  0  0
    3.9628   -2.9224    3.5456 C   0  0  2  0  0  0  0  0  0  0  0  0
    3.7297   -3.5076    4.8261 O   0  0  0  0  0  0  0  0  0  0  0  0
    9.6256    5.8096    1.5242 C   0  0  2  0  0  0  0  0  0  0  0  0
    8.5311    5.1818    2.2643 O   0  0  0  0  0  0  0  0  0  0  0  0
    5.1755    6.3666    3.2340 C   0  0  2  0  0  0  0  0  0  0  0  0
    5.6155    4.9806    3.2299 O   0  0  0  0  0  0  0  0  0  0  0  0
    6.3486    3.4294    6.7981 C   0  0  0  0  0  0  0  0  0  0  0  0
    7.3467    3.7854    5.8463 O   0  0  0  0  0  0  0  0  0  0  0  0
    5.2464   -2.0100    3.5886 C   0  0  1  0  0  0  0  0  0  0  0  0
    4.9591   -0.9453    4.5654 O   0  0  0  0  0  0  0  0  0  0  0  0
    9.9182    4.9885    0.2897 C   0  0  0  0  0  0  0  0  0  0  0  0
    8.7740    4.9141   -0.5255 O   0  0  0  0  0  0  0  0  0  0  0  0
    3.7747    6.5139    2.5048 C   0  0  1  0  0  0  0  0  0  0  0  0
    2.7406    5.9266    3.2995 O   0  0  0  0  0  0  0  0  0  0  0  0
    6.5766   -2.7820    3.9925 C   0  0  0  0  0  0  0  0  0  0  0  0
    7.8026   -1.9427    4.0879 N   0  0  0  0  0  0  0  0  0  0  0  0
  1  2  1  6  0  0  0
  1  7  1  0  0  0  0
  1 30  1  0  0  0  0
  3  4  1  6  0  0  0
  3  9  1  0  0  0  0
  3 39  1  0  0  0  0
  5 10  1  0  0  0  0
  5 26  1  0  0  0  0
  5 32  1  1  0  0  0
  6 12  1  0  0  0  0
  6 36  1  0  0  0  0
  6 19  1  1  0  0  0
  7  8  1  1  0  0  0
  7 14  1  0  0  0  0
  9 16  1  0  0  0  0
 10 11  1  6  0  0  0
 10 18  1  0  0  0  0
 12 13  1  1  0  0  0
 12 20  1  0  0  0  0
 14 15  1  1  0  0  0
 14 22  1  0  0  0  0
 16 17  1  6  0  0  0
 16 24  1  0  0  0  0
 18 19  1  6  0  0  0
 18 25  1  0  0  0  0
 20 21  1  6  0  0  0
 20 27  1  0  0  0  0
 22 23  1  6  0  0  0
 22 29  1  0  0  0  0
 24  2  1  1  0  0  0
 24 31  1  0  0  0  0
 25 26  1  0  0  0  0
 25 33  1  6  0  0  0
 27 28  1  1  0  0  0
 27 35  1  0  0  0  0
 29 30  1  0  0  0  0
 29 37  1  6  0  0  0
 31 32  1  6  0  0  0
 31 39  1  0  0  0  0
 33 34  1  0  0  0  0
 35 36  1  0  0  0  0
 35 41  1  1  0  0  0
 37 38  1  0  0  0  0
 39 40  1  1  0  0  0
 41 42  1  0  0  0  0
M  END
>  <CHROM.1>
-175.52888384,-175.79139697,66.63161532,179.50905854,59.67785137,-178.55246798
-177.71929131,-179.44207595,-178.03894725,6.11122212,3.63036128,3.41583908
-1.12580686,0.00797955,2.95659414

>  <Name>
ligand

>  <RI>
0

>  <Rbt.Current_Directory>
/home/itssahil/PROJECTS/Mol_Feturizer/Test_systems_manuscript/rnas/2o3w

>  <Rbt.Executable>
rbdock ($Id: //depot/dev/client3/rdock/2013.1/src/exe/rbdock.cxx#4 $)

>  <Rbt.Library>
libRbt.so (2013.1, Build901 2013/11/27)

>  <Rbt.Parameter_File>
/export/apps/rDock/src/rDock_2013.1_src/data/scripts/dock_solv.prm

>  <Rbt.Receptor>
prm/pocket_docking_8.prm

>  <SCORE>
-17.9649

>  <SCORE.INTER>
-4.80091

>  <SCORE.INTER.CONST>
1

>  <SCORE.INTER.POLAR>
0

>  <SCORE.INTER.ROT>
9

>  <SCORE.INTER.SOLV>
17.3043

>  <SCORE.INTER.VDW>
-18.5687

>  <SCORE.INTER.norm>
-0.114307

>  <SCORE.INTRA>
-13.1639

>  <SCORE.INTRA.DIHEDRAL>
-27.2988

>  <SCORE.INTRA.DIHEDRAL.0>
27.8999

>  <SCORE.INTRA.POLAR>
0

>  <SCORE.INTRA.POLAR.0>
0

>  <SCORE.INTRA.REPUL>
0

>  <SCORE.INTRA.REPUL.0>
0

>  <SCORE.INTRA.SOLV>
-4.6825

>  <SCORE.INTRA.SOLV.lig_0>
-104.479

>  <SCORE.INTRA.VDW>
2.82671

>  <SCORE.INTRA.VDW.0>
-6.17816

>  <SCORE.INTRA.norm>
-0.313427

>  <SCORE.RESTR>
0

>  <SCORE.RESTR.CAVITY>
0

>  <SCORE.RESTR.norm>
0

>  <SCORE.SYSTEM>
0

>  <SCORE.SYSTEM.CONST>
0

>  <SCORE.SYSTEM.DIHEDRAL>
0

>  <SCORE.SYSTEM.SOLV>
0

>  <SCORE.SYSTEM.norm>
0

>  <SCORE.heavy>
42

>  <SCORE.norm>
-0.427735

>  <RMSD>
9.218

$$$$
ligand
 OpenBabel02271912133D
libRbt.so/2013.1/901 2013/11/27
 42 45  0  0  0  0  0  0  0  0999 V2000
    9.0706    5.1223    4.2646 C   0  0  2  0  0  0  0  0  0  0  0  0
   10.1981    5.9011    4.6998 O   0  0  0  0  0  0  0  0  0  0  0  0
   13.7785    4.5584    6.7428 C   0  0  2  0  0  0  0  0  0  0  0  0
   14.7166    4.0129    7.7689 N   0  0  0  0  0  0  0  0  0  0  0  0
   10.6244    1.7386    4.9468 C   0  0  1  0  0  0  0  0  0  0  0  0
   10.2318   -2.2438    3.2095 C   0  0  1  0  0  0  0  0  0  0  0  0
    8.3773    5.9241    3.1224 C   0  0  2  0  0  0  0  0  0  0  0  0
    9.3284    6.3712    2.0899 N   0  0  0  0  0  0  0  0  0  0  0  0
   13.1163    5.9093    7.2311 C   0  0  0  0  0  0  0  0  0  0  0  0
    9.2562    0.9911    4.9361 C   0  0  2  0  0  0  0  0  0  0  0  0
    8.9061    0.3846    6.2045 O   0  0  0  0  0  0  0  0  0  0  0  0
    8.9363   -2.6595    2.4235 C   0  0  2  0  0  0  0  0  0  0  0  0
    7.8685   -3.1201    3.3608 N   0  0  0  0  0  0  0  0  0  0  0  0
    7.6621    7.1841    3.6438 C   0  0  1  0  0  0  0  0  0  0  0  0
    7.0088    7.8649    2.5712 O   0  0  0  0  0  0  0  0  0  0  0  0
   12.1579    6.4454    6.1011 C   0  0  2  0  0  0  0  0  0  0  0  0
   11.5275    7.7257    6.5217 N   0  0  0  0  0  0  0  0  0  0  0  0
    9.4570    0.0207    3.7711 C   0  0  2  0  0  0  0  0  0  0  0  0
   10.0232   -1.2510    4.2216 O   0  0  0  0  0  0  0  0  0  0  0  0
    9.3048   -3.8035    1.3641 C   0  0  1  0  0  0  0  0  0  0  0  0
   10.0372   -3.2082    0.2695 O   0  0  0  0  0  0  0  0  0  0  0  0
    6.6615    6.7872    4.7531 C   0  0  2  0  0  0  0  0  0  0  0  0
    5.9862    7.9279    5.2296 O   0  0  0  0  0  0  0  0  0  0  0  0
   11.0347    5.3838    5.7735 C   0  0  2  0  0  0  0  0  0  0  0  0
   10.3985    0.7313    2.7842 C   0  0  2  0  0  0  0  0  0  0  0  0
   11.2032    1.5431    3.6361 O   0  0  0  0  0  0  0  0  0  0  0  0
   10.1701   -4.9899    2.0055 C   0  0  2  0  0  0  0  0  0  0  0  0
    9.3213   -5.7066    2.9013 O   0  0  0  0  0  0  0  0  0  0  0  0
    7.4391    6.0802    5.9129 C   0  0  2  0  0  0  0  0  0  0  0  0
    8.1387    4.9060    5.3919 O   0  0  0  0  0  0  0  0  0  0  0  0
   11.6099    4.0169    5.3424 C   0  0  2  0  0  0  0  0  0  0  0  0
   10.4624    3.1271    5.2643 O   0  0  0  0  0  0  0  0  0  0  0  0
    9.6840    1.5938    1.6980 C   0  0  0  0  0  0  0  0  0  0  0  0
    8.9730    2.6533    2.3312 O   0  0  0  0  0  0  0  0  0  0  0  0
   11.4162   -4.4139    2.7785 C   0  0  1  0  0  0  0  0  0  0  0  0
   10.8783   -3.4851    3.7876 O   0  0  0  0  0  0  0  0  0  0  0  0
    6.5327    5.6503    7.0432 C   0  0  0  0  0  0  0  0  0  0  0  0
    5.5839    4.7218    6.5775 O   0  0  0  0  0  0  0  0  0  0  0  0
   12.6528    3.4963    6.4181 C   0  0  1  0  0  0  0  0  0  0  0  0
   13.2958    2.3086    5.9474 O   0  0  0  0  0  0  0  0  0  0  0  0
   12.3149   -5.5242    3.4771 C   0  0  0  0  0  0  0  0  0  0  0  0
   13.0172   -6.4569    2.5533 N   0  0  0  0  0  0  0  0  0  0  0  0
  1  2  1  1  0  0  0
  1  7  1  0  0  0  0
  1 30  1  0  0  0  0
  3  4  1  1  0  0  0
  3  9  1  0  0  0  0
  3 39  1  0  0  0  0
  5 10  1  0  0  0  0
  5 26  1  0  0  0  0
  5 32  1  6  0  0  0
  6 12  1  0  0  0  0
  6 36  1  0  0  0  0
  6 19  1  1  0  0  0
  7  8  1  6  0  0  0
  7 14  1  0  0  0  0
  9 16  1  0  0  0  0
 10 11  1  1  0  0  0
 10 18  1  0  0  0  0
 12 13  1  1  0  0  0
 12 20  1  0  0  0  0
 14 15  1  6  0  0  0
 14 22  1  0  0  0  0
 16 17  1  1  0  0  0
 16 24  1  0  0  0  0
 18 19  1  1  0  0  0
 18 25  1  0  0  0  0
 20 21  1  6  0  0  0
 20 27  1  0  0  0  0
 22 23  1  1  0  0  0
 22 29  1  0  0  0  0
 24  2  1  6  0  0  0
 24 31  1  0  0  0  0
 25 26  1  0  0  0  0
 25 33  1  6  0  0  0
 27 28  1  1  0  0  0
 27 35  1  0  0  0  0
 29 30  1  0  0  0  0
 29 37  1  1  0  0  0
 31 32  1  1  0  0  0
 31 39  1  0  0  0  0
 33 34  1  0  0  0  0
 35 36  1  0  0  0  0
 35 41  1  1  0  0  0
 37 38  1  0  0  0  0
 39 40  1  6  0  0  0
 41 42  1  0  0  0  0
M  END
>  <CHROM.1>
179.91261745,-177.68396615,178.99982391,-58.46060648,63.15663118,61.39530256
-177.12463750,179.44532855,65.93000277,9.92796146,2.00015838,4.30956977,1.71876263
-0.42359958,0.30452939

>  <Name>
ligand

>  <RI>
0

>  <Rbt.Current_Directory>
/home/itssahil/PROJECTS/Mol_Feturizer/Test_systems_manuscript/rnas/2o3w

>  <Rbt.Executable>
rbdock ($Id: //depot/dev/client3/rdock/2013.1/src/exe/rbdock.cxx#4 $)

>  <Rbt.Library>
libRbt.so (2013.1, Build901 2013/11/27)

>  <Rbt.Parameter_File>
/export/apps/rDock/src/rDock_2013.1_src/data/scripts/dock_solv.prm

>  <Rbt.Receptor>
prm/pocket_docking_5.prm

>  <SCORE>
-10.4422

>  <SCORE.INTER>
2.6872

>  <SCORE.INTER.CONST>
1

>  <SCORE.INTER.POLAR>
0

>  <SCORE.INTER.ROT>
9

>  <SCORE.INTER.SOLV>
8.55081

>  <SCORE.INTER.VDW>
-10.6588

>  <SCORE.INTER.norm>
0.0639809

>  <SCORE.INTRA>
-13.1294

>  <SCORE.INTRA.DIHEDRAL>
-27.497

>  <SCORE.INTRA.DIHEDRAL.0>
27.8999

>  <SCORE.INTRA.POLAR>
0

>  <SCORE.INTRA.POLAR.0>
0

>  <SCORE.INTRA.REPUL>
0

>  <SCORE.INTRA.REPUL.0>
0

>  <SCORE.INTRA.SOLV>
-4.31198

>  <SCORE.INTRA.SOLV.lig_0>
-104.479

>  <SCORE.INTRA.VDW>
2.77508

>  <SCORE.INTRA.VDW.0>
-6.17816

>  <SCORE.INTRA.norm>
-0.312605

>  <SCORE.RESTR>
0

>  <SCORE.RESTR.CAVITY>
0

>  <SCORE.RESTR.norm>
0

>  <SCORE.SYSTEM>
0

>  <SCORE.SYSTEM.CONST>
0

>  <SCORE.SYSTEM.DIHEDRAL>
0

>  <SCORE.SYSTEM.SOLV>
0

>  <SCORE.SYSTEM.norm>
0

>  <SCORE.heavy>
42

>  <SCORE.norm>
-0.248624

>  <RMSD>
9.225

$$$$
ligand
 OpenBabel02271912133D
libRbt.so/2013.1/901 2013/11/27
 42 45  0  0  0  0  0  0  0  0999 V2000
    8.0676    3.7505    2.5890 C   0  0  2  0  0  0  0  0  0  0  0  0
    9.2852    4.5062    2.4727 O   0  0  0  0  0  0  0  0  0  0  0  0
   12.8866    4.3211    4.8794 C   0  0  2  0  0  0  0  0  0  0  0  0
   13.8437    4.3922    6.0236 N   0  0  0  0  0  0  0  0  0  0  0  0
    9.5130    1.1990    5.0337 C   0  0  1  0  0  0  0  0  0  0  0  0
    8.1304   -2.4768    7.2672 C   0  0  1  0  0  0  0  0  0  0  0  0
    7.2221    4.0509    1.3150 C   0  0  2  0  0  0  0  0  0  0  0  0
    7.9988    3.8935    0.0730 N   0  0  0  0  0  0  0  0  0  0  0  0
   12.3165    5.7516    4.5181 C   0  0  0  0  0  0  0  0  0  0  0  0
    8.3990    0.9332    6.0915 C   0  0  2  0  0  0  0  0  0  0  0  0
    8.8060    1.2011    7.4560 O   0  0  0  0  0  0  0  0  0  0  0  0
    9.0349   -3.4517    8.1040 C   0  0  2  0  0  0  0  0  0  0  0  0
   10.0811   -4.0801    7.2428 N   0  0  0  0  0  0  0  0  0  0  0  0
    6.6617    5.4851    1.3104 C   0  0  1  0  0  0  0  0  0  0  0  0
    5.8625    5.7030    0.1465 O   0  0  0  0  0  0  0  0  0  0  0  0
   11.3338    5.6150    3.2941 C   0  0  2  0  0  0  0  0  0  0  0  0
   10.7887    6.9471    2.9171 N   0  0  0  0  0  0  0  0  0  0  0  0
    8.0361   -0.5200    5.7820 C   0  0  2  0  0  0  0  0  0  0  0  0
    8.8468   -1.4550    6.5626 O   0  0  0  0  0  0  0  0  0  0  0  0
    8.1135   -4.5653    8.7953 C   0  0  1  0  0  0  0  0  0  0  0  0
    7.3864   -3.9581    9.8869 O   0  0  0  0  0  0  0  0  0  0  0  0
    5.8517    5.7263    2.6045 C   0  0  2  0  0  0  0  0  0  0  0  0
    5.3176    7.0299    2.6080 O   0  0  0  0  0  0  0  0  0  0  0  0
   10.1447    4.6345    3.6411 C   0  0  2  0  0  0  0  0  0  0  0  0
    8.2709   -0.7040    4.2732 C   0  0  2  0  0  0  0  0  0  0  0  0
    9.3383    0.2012    4.0017 O   0  0  0  0  0  0  0  0  0  0  0  0
    7.0805   -5.2401    7.7730 C   0  0  2  0  0  0  0  0  0  0  0  0
    7.8354   -6.0351    6.8595 O   0  0  0  0  0  0  0  0  0  0  0  0
    6.7871    5.5086    3.8403 C   0  0  2  0  0  0  0  0  0  0  0  0
    7.3359    4.1531    3.8091 O   0  0  0  0  0  0  0  0  0  0  0  0
   10.6299    3.2292    4.0594 C   0  0  2  0  0  0  0  0  0  0  0  0
    9.4370    2.5328    4.5139 O   0  0  0  0  0  0  0  0  0  0  0  0
    7.0338   -0.3994    3.3726 C   0  0  0  0  0  0  0  0  0  0  0  0
    7.4082   -0.5173    2.0034 O   0  0  0  0  0  0  0  0  0  0  0  0
    6.2687   -4.1372    6.9941 C   0  0  1  0  0  0  0  0  0  0  0  0
    7.2697   -3.2897    6.3232 O   0  0  0  0  0  0  0  0  0  0  0  0
    6.0720    5.7187    5.1550 C   0  0  0  0  0  0  0  0  0  0  0  0
    4.9959    4.8199    5.2707 O   0  0  0  0  0  0  0  0  0  0  0  0
   11.6952    3.3419    5.2291 C   0  0  1  0  0  0  0  0  0  0  0  0
   12.2551    2.0565    5.5120 O   0  0  0  0  0  0  0  0  0  0  0  0
    5.2404   -4.7202    5.9304 C   0  0  0  0  0  0  0  0  0  0  0  0
    4.1746   -5.6005    6.4831 N   0  0  0  0  0  0  0  0  0  0  0  0
  1  2  1  6  0  0  0
  1  7  1  0  0  0  0
  1 30  1  0  0  0  0
  3  4  1  1  0  0  0
  3  9  1  0  0  0  0
  3 39  1  0  0  0  0
  5 10  1  0  0  0  0
  5 26  1  0  0  0  0
  5 32  1  6  0  0  0
  6 12  1  0  0  0  0
  6 36  1  0  0  0  0
  6 19  1  6  0  0  0
  7  8  1  6  0  0  0
  7 14  1  0  0  0  0
  9 16  1  0  0  0  0
 10 11  1  1  0  0  0
 10 18  1  0  0  0  0
 12 13  1  6  0  0  0
 12 20  1  0  0  0  0
 14 15  1  6  0  0  0
 14 22  1  0  0  0  0
 16 17  1  1  0  0  0
 16 24  1  0  0  0  0
 18 19  1  1  0  0  0
 18 25  1  0  0  0  0
 20 21  1  1  0  0  0
 20 27  1  0  0  0  0
 22 23  1  6  0  0  0
 22 29  1  0  0  0  0
 24  2  1  6  0  0  0
 24 31  1  0  0  0  0
 25 26  1  0  0  0  0
 25 33  1  6  0  0  0
 27 28  1  6  0  0  0
 27 35  1  0  0  0  0
 29 30  1  0  0  0  0
 29 37  1  1  0  0  0
 31 32  1  1  0  0  0
 31 39  1  0  0  0  0
 33 34  1  0  0  0  0
 35 36  1  0  0  0  0
 35 41  1  6  0  0  0
 37 38  1  0  0  0  0
 39 40  1  6  0  0  0
 41 42  1  0  0  0  0
M  END
>  <CHROM.1>
167.58592457,-174.68587012,129.81048166,-179.44399981,176.02203761,59.79463562
-177.55386320,150.06270598,60.61640744,8.37769801,1.31487009,4.80777689,1.44874404
-0.36384898,-0.47349249

>  <Name>
ligand

>  <RI>
0

>  <Rbt.Current_Directory>
/home/itssahil/PROJECTS/Mol_Feturizer/Test_systems_manuscript/rnas/2o3w

>  <Rbt.Executable>
rbdock ($Id: //depot/dev/client3/rdock/2013.1/src/exe/rbdock.cxx#4 $)

>  <Rbt.Library>
libRbt.so (2013.1, Build901 2013/11/27)

>  <Rbt.Parameter_File>
/export/apps/rDock/src/rDock_2013.1_src/data/scripts/dock_solv.prm

>  <Rbt.Receptor>
prm/pocket_docking_6.prm

>  <SCORE>
-8.3138

>  <SCORE.INTER>
0.272804

>  <SCORE.INTER.CONST>
1

>  <SCORE.INTER.POLAR>
0

>  <SCORE.INTER.ROT>
9

>  <SCORE.INTER.SOLV>
14.3989

>  <SCORE.INTER.VDW>
-14.2178

>  <SCORE.INTER.norm>
0.00649533

>  <SCORE.INTRA>
-8.58661

>  <SCORE.INTRA.DIHEDRAL>
-16.4846

>  <SCORE.INTRA.DIHEDRAL.0>
27.8999

>  <SCORE.INTRA.POLAR>
0

>  <SCORE.INTRA.POLAR.0>
0

>  <SCORE.INTRA.REPUL>
0

>  <SCORE.INTRA.REPUL.0>
0

>  <SCORE.INTRA.SOLV>
-5.8793

>  <SCORE.INTRA.SOLV.lig_0>
-104.479

>  <SCORE.INTRA.VDW>
2.59532

>  <SCORE.INTRA.VDW.0>
-6.17816

>  <SCORE.INTRA.norm>
-0.204443

>  <SCORE.RESTR>
0

>  <SCORE.RESTR.CAVITY>
0

>  <SCORE.RESTR.norm>
0

>  <SCORE.SYSTEM>
0

>  <SCORE.SYSTEM.CONST>
0

>  <SCORE.SYSTEM.DIHEDRAL>
0

>  <SCORE.SYSTEM.SOLV>
0

>  <SCORE.SYSTEM.norm>
0

>  <SCORE.heavy>
42

>  <SCORE.norm>
-0.197948

>  <RMSD>
9.238

$$$$
ligand
 OpenBabel02271912133D
libRbt.so/2013.1/901 2013/11/27
 42 45  0  0  0  0  0  0  0  0999 V2000
    9.7739    5.6505    5.7049 C   0  0  2  0  0  0  0  0  0  0  0  0
    9.3453    5.0266    4.4825 O   0  0  0  0  0  0  0  0  0  0  0  0
    5.0627    5.3664    5.0660 C   0  0  2  0  0  0  0  0  0  0  0  0
    3.5870    5.3701    4.8369 N   0  0  0  0  0  0  0  0  0  0  0  0
    7.3807    1.3705    4.8166 C   0  0  1  0  0  0  0  0  0  0  0  0
    6.5596   -2.6430    4.1073 C   0  0  1  0  0  0  0  0  0  0  0  0
   11.3081    5.4066    5.8267 C   0  0  2  0  0  0  0  0  0  0  0  0
   12.0350    5.7626    4.5957 N   0  0  0  0  0  0  0  0  0  0  0  0
    5.7793    6.4871    4.2102 C   0  0  0  0  0  0  0  0  0  0  0  0
    7.7409    0.2425    3.8025 C   0  0  2  0  0  0  0  0  0  0  0  0
    6.6760   -0.0768    2.8734 O   0  0  0  0  0  0  0  0  0  0  0  0
    5.2881   -3.4746    4.5078 C   0  0  2  0  0  0  0  0  0  0  0  0
    5.5140   -4.2118    5.7870 N   0  0  0  0  0  0  0  0  0  0  0  0
   11.6434    3.9350    6.1314 C   0  0  1  0  0  0  0  0  0  0  0  0
   13.0548    3.7656    6.2736 O   0  0  0  0  0  0  0  0  0  0  0  0
    7.3255    6.4481    4.5108 C   0  0  2  0  0  0  0  0  0  0  0  0
    8.0308    7.5013    3.7317 N   0  0  0  0  0  0  0  0  0  0  0  0
    8.1551   -0.8859    4.7482 C   0  0  2  0  0  0  0  0  0  0  0  0
    7.0157   -1.7286    5.1120 O   0  0  0  0  0  0  0  0  0  0  0  0
    4.9204   -4.4840    3.3191 C   0  0  1  0  0  0  0  0  0  0  0  0
    4.3478   -3.7305    2.2267 O   0  0  0  0  0  0  0  0  0  0  0  0
   10.8901    3.4875    7.4048 C   0  0  2  0  0  0  0  0  0  0  0  0
   11.1996    2.1468    7.7069 O   0  0  0  0  0  0  0  0  0  0  0  0
    7.9269    5.0317    4.1529 C   0  0  2  0  0  0  0  0  0  0  0  0
    8.7600   -0.2020    5.9858 C   0  0  2  0  0  0  0  0  0  0  0  0
    8.0423    1.0278    6.0559 O   0  0  0  0  0  0  0  0  0  0  0  0
    6.1868   -5.3127    2.7928 C   0  0  2  0  0  0  0  0  0  0  0  0
    6.5630   -6.2255    3.8231 O   0  0  0  0  0  0  0  0  0  0  0  0
    9.3517    3.6618    7.1756 C   0  0  2  0  0  0  0  0  0  0  0  0
    9.0573    5.0582    6.8545 O   0  0  0  0  0  0  0  0  0  0  0  0
    7.2349    3.8782    4.9117 C   0  0  2  0  0  0  0  0  0  0  0  0
    7.7768    2.6600    4.3313 O   0  0  0  0  0  0  0  0  0  0  0  0
   10.2981    0.0491    5.9131 C   0  0  0  0  0  0  0  0  0  0  0  0
   10.9757   -1.2012    5.8325 O   0  0  0  0  0  0  0  0  0  0  0  0
    7.3841   -4.3450    2.4577 C   0  0  1  0  0  0  0  0  0  0  0  0
    7.6626   -3.5950    3.6947 O   0  0  0  0  0  0  0  0  0  0  0  0
    8.5345    3.2518    8.3789 C   0  0  0  0  0  0  0  0  0  0  0  0
    8.5962    1.8573    8.5546 O   0  0  0  0  0  0  0  0  0  0  0  0
    5.6641    3.9492    4.7045 C   0  0  1  0  0  0  0  0  0  0  0  0
    5.0134    2.9763    5.5264 O   0  0  0  0  0  0  0  0  0  0  0  0
    8.6978   -5.0890    1.9585 C   0  0  0  0  0  0  0  0  0  0  0  0
    9.8456   -4.2048    1.6156 N   0  0  0  0  0  0  0  0  0  0  0  0
  1  2  1  6  0  0  0
  1  7  1  0  0  0  0
  1 30  1  0  0  0  0
  3  4  1  6  0  0  0
  3  9  1  0  0  0  0
  3 39  1  0  0  0  0
  5 10  1  0  0  0  0
  5 26  1  0  0  0  0
  5 32  1  6  0  0  0
  6 12  1  0  0  0  0
  6 36  1  0  0  0  0
  6 19  1  1  0  0  0
  7  8  1  6  0  0  0
  7 14  1  0  0  0  0
  9 16  1  0  0  0  0
 10 11  1  1  0  0  0
 10 18  1  0  0  0  0
 12 13  1  1  0  0  0
 12 20  1  0  0  0  0
 14 15  1  1  0  0  0
 14 22  1  0  0  0  0
 16 17  1  6  0  0  0
 16 24  1  0  0  0  0
 18 19  1  1  0  0  0
 18 25  1  0  0  0  0
 20 21  1  6  0  0  0
 20 27  1  0  0  0  0
 22 23  1  6  0  0  0
 22 29  1  0  0  0  0
 24  2  1  1  0  0  0
 24 31  1  0  0  0  0
 25 26  1  0  0  0  0
 25 33  1  6  0  0  0
 27 28  1  1  0  0  0
 27 35  1  0  0  0  0
 29 30  1  0  0  0  0
 29 37  1  1  0  0  0
 31 32  1  6  0  0  0
 31 39  1  0  0  0  0
 33 34  1  0  0  0  0
 35 36  1  0  0  0  0
 35 41  1  1  0  0  0
 37 38  1  0  0  0  0
 39 40  1  1  0  0  0
 41 42  1  0  0  0  0
M  END
>  <CHROM.1>
176.40800017,41.28658005,75.34951258,-176.88576990,-63.02884216,-69.43063202
178.52015872,163.11079451,179.25336370,8.02164614,1.15307120,4.93394510,-1.32937903
0.33132084,-2.98704311

>  <Name>
ligand

>  <RI>
0

>  <Rbt.Current_Directory>
/home/itssahil/PROJECTS/Mol_Feturizer/Test_systems_manuscript/rnas/2o3w

>  <Rbt.Executable>
rbdock ($Id: //depot/dev/client3/rdock/2013.1/src/exe/rbdock.cxx#4 $)

>  <Rbt.Library>
libRbt.so (2013.1, Build901 2013/11/27)

>  <Rbt.Parameter_File>
/export/apps/rDock/src/rDock_2013.1_src/data/scripts/dock_solv.prm

>  <Rbt.Receptor>
prm/pocket_docking_5.prm

>  <SCORE>
-8.24054

>  <SCORE.INTER>
4.07189

>  <SCORE.INTER.CONST>
1

>  <SCORE.INTER.POLAR>
0

>  <SCORE.INTER.ROT>
9

>  <SCORE.INTER.SOLV>
9.83712

>  <SCORE.INTER.VDW>
-10.1644

>  <SCORE.INTER.norm>
0.0969497

>  <SCORE.INTRA>
-12.3124

>  <SCORE.INTRA.DIHEDRAL>
-23.2877

>  <SCORE.INTRA.DIHEDRAL.0>
27.8999

>  <SCORE.INTRA.POLAR>
0

>  <SCORE.INTRA.POLAR.0>
0

>  <SCORE.INTRA.REPUL>
0

>  <SCORE.INTRA.REPUL.0>
0

>  <SCORE.INTRA.SOLV>
-3.79067

>  <SCORE.INTRA.SOLV.lig_0>
-104.479

>  <SCORE.INTRA.VDW>
1.22674

>  <SCORE.INTRA.VDW.0>
-6.17816

>  <SCORE.INTRA.norm>
-0.293153

>  <SCORE.RESTR>
0

>  <SCORE.RESTR.CAVITY>
0

>  <SCORE.RESTR.norm>
0

>  <SCORE.SYSTEM>
0

>  <SCORE.SYSTEM.CONST>
0

>  <SCORE.SYSTEM.DIHEDRAL>
0

>  <SCORE.SYSTEM.SOLV>
0

>  <SCORE.SYSTEM.norm>
0

>  <SCORE.heavy>
42

>  <SCORE.norm>
-0.196203

>  <RMSD>
9.251

$$$$
ligand
 OpenBabel02271912133D
libRbt.so/2013.1/901 2013/11/27
 42 45  0  0  0  0  0  0  0  0999 V2000
    5.4003    6.7659    4.5971 C   0  0  2  0  0  0  0  0  0  0  0  0
    6.4577    6.0034    3.9906 O   0  0  0  0  0  0  0  0  0  0  0  0
   10.7581    6.4941    4.2384 C   0  0  2  0  0  0  0  0  0  0  0  0
   12.1621    6.5439    4.7453 N   0  0  0  0  0  0  0  0  0  0  0  0
    8.6313    2.4215    4.0844 C   0  0  1  0  0  0  0  0  0  0  0  0
    9.0138   -1.6249    4.8039 C   0  0  1  0  0  0  0  0  0  0  0  0
    4.1466    5.8420    4.6515 C   0  0  2  0  0  0  0  0  0  0  0  0
    4.4448    4.5207    5.2311 N   0  0  0  0  0  0  0  0  0  0  0  0
    9.8523    7.5782    4.9498 C   0  0  0  0  0  0  0  0  0  0  0  0
    7.8181    1.2400    4.6956 C   0  0  2  0  0  0  0  0  0  0  0  0
    8.2913    0.8091    5.9954 O   0  0  0  0  0  0  0  0  0  0  0  0
   10.2838   -2.5393    4.9448 C   0  0  2  0  0  0  0  0  0  0  0  0
   10.5862   -3.2343    3.6578 N   0  0  0  0  0  0  0  0  0  0  0  0
    3.5452    5.5904    3.2566 C   0  0  1  0  0  0  0  0  0  0  0  0
    2.3778    4.7733    3.3583 O   0  0  0  0  0  0  0  0  0  0  0  0
    8.3941    7.4918    4.3591 C   0  0  2  0  0  0  0  0  0  0  0  0
    7.5164    8.5098    4.9969 N   0  0  0  0  0  0  0  0  0  0  0  0
    7.9169    0.2015    3.5771 C   0  0  2  0  0  0  0  0  0  0  0  0
    9.0866   -0.6612    3.7458 O   0  0  0  0  0  0  0  0  0  0  0  0
   10.0469   -3.5946    6.1269 C   0  0  1  0  0  0  0  0  0  0  0  0
   10.1382   -2.9051    7.3939 O   0  0  0  0  0  0  0  0  0  0  0  0
    3.2297    6.9435    2.5793 C   0  0  2  0  0  0  0  0  0  0  0  0
    2.6627    6.7302    1.3076 O   0  0  0  0  0  0  0  0  0  0  0  0
    7.7861    6.0513    4.5851 C   0  0  2  0  0  0  0  0  0  0  0  0
    7.9967    0.9981    2.2640 C   0  0  2  0  0  0  0  0  0  0  0  0
    8.6599    2.1977    2.6560 O   0  0  0  0  0  0  0  0  0  0  0  0
    8.6316   -4.3385    6.0222 C   0  0  2  0  0  0  0  0  0  0  0  0
    8.6817   -5.2022    4.8874 O   0  0  0  0  0  0  0  0  0  0  0  0
    4.5497    7.7765    2.4637 C   0  0  2  0  0  0  0  0  0  0  0  0
    5.1236    7.9762    3.7943 O   0  0  0  0  0  0  0  0  0  0  0  0
    8.6505    4.9322    3.9640 C   0  0  2  0  0  0  0  0  0  0  0  0
    8.0515    3.6886    4.4212 O   0  0  0  0  0  0  0  0  0  0  0  0
    6.6204    1.3095    1.5984 C   0  0  0  0  0  0  0  0  0  0  0  0
    5.7915    1.9965    2.5310 O   0  0  0  0  0  0  0  0  0  0  0  0
    7.4645   -3.2926    5.8604 C   0  0  1  0  0  0  0  0  0  0  0  0
    7.7875   -2.5015    4.6603 O   0  0  0  0  0  0  0  0  0  0  0  0
    4.3319    9.1242    1.8156 C   0  0  0  0  0  0  0  0  0  0  0  0
    5.5688    9.7249    1.5183 O   0  0  0  0  0  0  0  0  0  0  0  0
   10.1495    5.0528    4.4680 C   0  0  1  0  0  0  0  0  0  0  0  0
   10.9790    4.1137    3.7783 O   0  0  0  0  0  0  0  0  0  0  0  0
    6.0231   -3.9481    5.7150 C   0  0  0  0  0  0  0  0  0  0  0  0
    5.5393   -4.7054    6.9021 N   0  0  0  0  0  0  0  0  0  0  0  0
  1  2  1  6  0  0  0
  1  7  1  0  0  0  0
  1 30  1  0  0  0  0
  3  4  1  1  0  0  0
  3  9  1  0  0  0  0
  3 39  1  0  0  0  0
  5 10  1  0  0  0  0
  5 26  1  0  0  0  0
  5 32  1  6  0  0  0
  6 12  1  0  0  0  0
  6 36  1  0  0  0  0
  6 19  1  6  0  0  0
  7  8  1  6  0  0  0
  7 14  1  0  0  0  0
  9 16  1  0  0  0  0
 10 11  1  1  0  0  0
 10 18  1  0  0  0  0
 12 13  1  6  0  0  0
 12 20  1  0  0  0  0
 14 15  1  1  0  0  0
 14 22  1  0  0  0  0
 16 17  1  1  0  0  0
 16 24  1  0  0  0  0
 18 19  1  1  0  0  0
 18 25  1  0  0  0  0
 20 21  1  1  0  0  0
 20 27  1  0  0  0  0
 22 23  1  6  0  0  0
 22 29  1  0  0  0  0
 24  2  1  6  0  0  0
 24 31  1  0  0  0  0
 25 26  1  0  0  0  0
 25 33  1  1  0  0  0
 27 28  1  6  0  0  0
 27 35  1  0  0  0  0
 29 30  1  0  0  0  0
 29 37  1  1  0  0  0
 31 32  1  1  0  0  0
 31 39  1  0  0  0  0
 33 34  1  0  0  0  0
 35 36  1  0  0  0  0
 35 41  1  6  0  0  0
 37 38  1  0  0  0  0
 39 40  1  6  0  0  0
 41 42  1  0  0  0  0
M  END
>  <CHROM.1>
-135.56472794,-69.13774523,72.65579719,179.52242734,55.98610204,-169.43057776
-177.25705965,179.59758187,64.51404961,7.38860177,2.72882074,4.15283671,1.83734777
-0.18962754,-0.14096109

>  <Name>
ligand

>  <RI>
0

>  <Rbt.Current_Directory>
/home/itssahil/PROJECTS/Mol_Feturizer/Test_systems_manuscript/rnas/2o3w

>  <Rbt.Executable>
rbdock ($Id: //depot/dev/client3/rdock/2013.1/src/exe/rbdock.cxx#4 $)

>  <Rbt.Library>
libRbt.so (2013.1, Build901 2013/11/27)

>  <Rbt.Parameter_File>
/export/apps/rDock/src/rDock_2013.1_src/data/scripts/dock_solv.prm

>  <Rbt.Receptor>
prm/pocket_docking_4.prm

>  <SCORE>
-7.36075

>  <SCORE.INTER>
1.09166

>  <SCORE.INTER.CONST>
1

>  <SCORE.INTER.POLAR>
0

>  <SCORE.INTER.ROT>
9

>  <SCORE.INTER.SOLV>
13.1808

>  <SCORE.INTER.VDW>
-13.2658

>  <SCORE.INTER.norm>
0.025992

>  <SCORE.INTRA>
-8.45607

>  <SCORE.INTRA.DIHEDRAL>
-19.9464

>  <SCORE.INTRA.DIHEDRAL.0>
27.8999

>  <SCORE.INTRA.POLAR>
0

>  <SCORE.INTRA.POLAR.0>
0

>  <SCORE.INTRA.REPUL>
0.0145389

>  <SCORE.INTRA.REPUL.0>
0

>  <SCORE.INTRA.SOLV>
-2.28075

>  <SCORE.INTRA.SOLV.lig_0>
-104.479

>  <SCORE.INTRA.VDW>
2.58483

>  <SCORE.INTRA.VDW.0>
-6.17816

>  <SCORE.INTRA.norm>
-0.201335

>  <SCORE.RESTR>
0.00365688

>  <SCORE.RESTR.CAVITY>
0.00365688

>  <SCORE.RESTR.norm>
8.70686e-05

>  <SCORE.SYSTEM>
0

>  <SCORE.SYSTEM.CONST>
0

>  <SCORE.SYSTEM.DIHEDRAL>
0

>  <SCORE.SYSTEM.SOLV>
0

>  <SCORE.SYSTEM.norm>
0

>  <SCORE.heavy>
42

>  <SCORE.norm>
-0.175256

>  <RMSD>
9.264

$$$$
ligand
 OpenBabel02271912133D
libRbt.so/2013.1/901 2013/11/27
 42 45  0  0  0  0  0  0  0  0999 V2000
    8.0283    5.1624    3.1071 C   0  0  2  0  0  0  0  0  0  0  0  0
    7.4175    6.4491    3.3038 O   0  0  0  0  0  0  0  0  0  0  0  0
    3.5380    8.1347    2.3531 C   0  0  2  0  0  0  0  0  0  0  0  0
    2.2861    8.5195    1.6353 N   0  0  0  0  0  0  0  0  0  0  0  0
    4.3178    3.6773    3.3408 C   0  0  1  0  0  0  0  0  0  0  0  0
    2.4498   -0.2097    4.4184 C   0  0  1  0  0  0  0  0  0  0  0  0
    9.2291    5.0728    4.0962 C   0  0  2  0  0  0  0  0  0  0  0  0
    8.8540    5.4392    5.4730 N   0  0  0  0  0  0  0  0  0  0  0  0
    4.8100    8.7926    1.6814 C   0  0  0  0  0  0  0  0  0  0  0  0
    4.3373    2.4035    2.4420 C   0  0  2  0  0  0  0  0  0  0  0  0
    3.3636    2.4241    1.3694 O   0  0  0  0  0  0  0  0  0  0  0  0
    2.7413   -1.5331    3.6232 C   0  0  2  0  0  0  0  0  0  0  0  0
    2.0083   -1.5458    2.3218 N   0  0  0  0  0  0  0  0  0  0  0  0
   10.3907    5.9986    3.6904 C   0  0  1  0  0  0  0  0  0  0  0  0
   11.4826    5.8547    4.6004 O   0  0  0  0  0  0  0  0  0  0  0  0
    6.0922    8.3695    2.4936 C   0  0  2  0  0  0  0  0  0  0  0  0
    7.3088    8.9837    1.8967 N   0  0  0  0  0  0  0  0  0  0  0  0
    4.1501    1.3009    3.4853 C   0  0  2  0  0  0  0  0  0  0  0  0
    2.7350    0.9953    3.6971 O   0  0  0  0  0  0  0  0  0  0  0  0
    2.3339   -2.7927    4.5255 C   0  0  1  0  0  0  0  0  0  0  0  0
    3.3153   -2.9530    5.5743 O   0  0  0  0  0  0  0  0  0  0  0  0
   10.8196    5.6821    2.2396 C   0  0  2  0  0  0  0  0  0  0  0  0
   11.8937    6.5101    1.8585 O   0  0  0  0  0  0  0  0  0  0  0  0
    6.2464    6.7973    2.5116 C   0  0  2  0  0  0  0  0  0  0  0  0
    4.8071    1.8209    4.7750 C   0  0  2  0  0  0  0  0  0  0  0  0
    4.6249    3.2318    4.6818 O   0  0  0  0  0  0  0  0  0  0  0  0
    0.8756   -2.6481    5.1735 C   0  0  2  0  0  0  0  0  0  0  0  0
   -0.0775   -2.7466    4.1161 O   0  0  0  0  0  0  0  0  0  0  0  0
    9.5950    5.8918    1.2878 C   0  0  2  0  0  0  0  0  0  0  0  0
    8.4911    5.0295    1.7093 O   0  0  0  0  0  0  0  0  0  0  0  0
    5.0131    6.0813    3.1044 C   0  0  2  0  0  0  0  0  0  0  0  0
    5.2462    4.6646    2.8736 O   0  0  0  0  0  0  0  0  0  0  0  0
    6.3161    1.4594    4.9369 C   0  0  0  0  0  0  0  0  0  0  0  0
    7.0562    2.0392    3.8669 O   0  0  0  0  0  0  0  0  0  0  0  0
    0.7301   -1.2638    5.9115 C   0  0  1  0  0  0  0  0  0  0  0  0
    1.0148   -0.2298    4.9016 O   0  0  0  0  0  0  0  0  0  0  0  0
    9.9244    5.5969   -0.1573 C   0  0  0  0  0  0  0  0  0  0  0  0
   10.1854    4.2246   -0.3248 O   0  0  0  0  0  0  0  0  0  0  0  0
    3.6930    6.5611    2.3677 C   0  0  1  0  0  0  0  0  0  0  0  0
    2.5404    6.0149    3.0149 O   0  0  0  0  0  0  0  0  0  0  0  0
   -0.7026   -1.0216    6.5574 C   0  0  0  0  0  0  0  0  0  0  0  0
   -1.0859   -1.9661    7.6426 N   0  0  0  0  0  0  0  0  0  0  0  0
  1  2  1  6  0  0  0
  1  7  1  0  0  0  0
  1 30  1  0  0  0  0
  3  4  1  6  0  0  0
  3  9  1  0  0  0  0
  3 39  1  0  0  0  0
  5 10  1  0  0  0  0
  5 26  1  0  0  0  0
  5 32  1  6  0  0  0
  6 12  1  0  0  0  0
  6 36  1  0  0  0  0
  6 19  1  6  0  0  0
  7  8  1  1  0  0  0
  7 14  1  0  0  0  0
  9 16  1  0  0  0  0
 10 11  1  6  0  0  0
 10 18  1  0  0  0  0
 12 13  1  6  0  0  0
 12 20  1  0  0  0  0
 14 15  1  1  0  0  0
 14 22  1  0  0  0  0
 16 17  1  6  0  0  0
 16 24  1  0  0  0  0
 18 19  1  1  0  0  0
 18 25  1  0  0  0  0
 20 21  1  1  0  0  0
 20 27  1  0  0  0  0
 22 23  1  6  0  0  0
 22 29  1  0  0  0  0
 24  2  1  1  0  0  0
 24 31  1  0  0  0  0
 25 26  1  0  0  0  0
 25 33  1  6  0  0  0
 27 28  1  6  0  0  0
 27 35  1  0  0  0  0
 29 30  1  0  0  0  0
 29 37  1  6  0  0  0
 31 32  1  6  0  0  0
 31 39  1  0  0  0  0
 33 34  1  0  0  0  0
 35 36  1  0  0  0  0
 35 41  1  6  0  0  0
 37 38  1  0  0  0  0
 39 40  1  1  0  0  0
 41 42  1  0  0  0  0
M  END
>  <CHROM.1>
-179.20710621,-159.11582232,166.54463872,-71.38102879,61.39673502,67.17855538
177.72609520,151.47054355,63.48568335,5.22058198,3.32063287,3.37695036,-0.84416967
-0.06107595,2.86922074

>  <Name>
ligand

>  <RI>
0

>  <Rbt.Current_Directory>
/home/itssahil/PROJECTS/Mol_Feturizer/Test_systems_manuscript/rnas/2o3w

>  <Rbt.Executable>
rbdock ($Id: //depot/dev/client3/rdock/2013.1/src/exe/rbdock.cxx#4 $)

>  <Rbt.Library>
libRbt.so (2013.1, Build901 2013/11/27)

>  <Rbt.Parameter_File>
/export/apps/rDock/src/rDock_2013.1_src/data/scripts/dock_solv.prm

>  <Rbt.Receptor>
prm/pocket_docking_8.prm

>  <SCORE>
-15.773

>  <SCORE.INTER>
-4.79693

>  <SCORE.INTER.CONST>
1

>  <SCORE.INTER.POLAR>
0

>  <SCORE.INTER.ROT>
9

>  <SCORE.INTER.SOLV>
16.4386

>  <SCORE.INTER.VDW>
-18.2775

>  <SCORE.INTER.norm>
-0.114213

>  <SCORE.INTRA>
-10.976

>  <SCORE.INTRA.DIHEDRAL>
-20.7702

>  <SCORE.INTRA.DIHEDRAL.0>
27.8999

>  <SCORE.INTRA.POLAR>
0

>  <SCORE.INTRA.POLAR.0>
0

>  <SCORE.INTRA.REPUL>
0

>  <SCORE.INTRA.REPUL.0>
0

>  <SCORE.INTRA.SOLV>
-4.41009

>  <SCORE.INTRA.SOLV.lig_0>
-104.479

>  <SCORE.INTRA.VDW>
1.61407

>  <SCORE.INTRA.VDW.0>
-6.17816

>  <SCORE.INTRA.norm>
-0.261334

>  <SCORE.RESTR>
0

>  <SCORE.RESTR.CAVITY>
0

>  <SCORE.RESTR.norm>
0

>  <SCORE.SYSTEM>
0

>  <SCORE.SYSTEM.CONST>
0

>  <SCORE.SYSTEM.DIHEDRAL>
0

>  <SCORE.SYSTEM.SOLV>
0

>  <SCORE.SYSTEM.norm>
0

>  <SCORE.heavy>
42

>  <SCORE.norm>
-0.375547

>  <RMSD>
9.281

$$$$
ligand
 OpenBabel02271912133D
libRbt.so/2013.1/901 2013/11/27
 42 45  0  0  0  0  0  0  0  0999 V2000
    7.2844    5.8900    3.8107 C   0  0  2  0  0  0  0  0  0  0  0  0
    7.8917    4.6240    3.5014 O   0  0  0  0  0  0  0  0  0  0  0  0
    7.6954    4.9416   -0.8180 C   0  0  2  0  0  0  0  0  0  0  0  0
    7.7971    4.6406   -2.2773 N   0  0  0  0  0  0  0  0  0  0  0  0
    6.6303    1.6475    1.9930 C   0  0  1  0  0  0  0  0  0  0  0  0
    7.2933   -2.5779    1.3660 C   0  0  1  0  0  0  0  0  0  0  0  0
    7.4885    6.1319    5.3365 C   0  0  2  0  0  0  0  0  0  0  0  0
    8.8864    5.9326    5.7569 N   0  0  0  0  0  0  0  0  0  0  0  0
    9.1242    4.9918   -0.1413 C   0  0  0  0  0  0  0  0  0  0  0  0
    5.8607    0.6024    2.8570 C   0  0  2  0  0  0  0  0  0  0  0  0
    6.4026    0.4253    4.1889 O   0  0  0  0  0  0  0  0  0  0  0  0
    6.1972   -3.6952    1.5031 C   0  0  2  0  0  0  0  0  0  0  0  0
    6.0760   -4.1527    2.9197 N   0  0  0  0  0  0  0  0  0  0  0  0
    6.6265    5.1905    6.1977 C   0  0  1  0  0  0  0  0  0  0  0  0
    6.8152    5.4737    7.5852 O   0  0  0  0  0  0  0  0  0  0  0  0
    8.9531    5.3342    1.3871 C   0  0  2  0  0  0  0  0  0  0  0  0
   10.2815    5.4040    2.0535 N   0  0  0  0  0  0  0  0  0  0  0  0
    5.9141   -0.6288    1.9511 C   0  0  2  0  0  0  0  0  0  0  0  0
    7.0994   -1.4434    2.2198 O   0  0  0  0  0  0  0  0  0  0  0  0
    6.5632   -4.9168    0.5332 C   0  0  1  0  0  0  0  0  0  0  0  0
    6.2989   -4.5244   -0.8325 O   0  0  0  0  0  0  0  0  0  0  0  0
    5.1425    5.3323    5.7894 C   0  0  2  0  0  0  0  0  0  0  0  0
    4.3379    4.4890    6.5804 O   0  0  0  0  0  0  0  0  0  0  0  0
    8.0568    4.2487    2.1041 C   0  0  2  0  0  0  0  0  0  0  0  0
    5.9201   -0.0948    0.5089 C   0  0  2  0  0  0  0  0  0  0  0  0
    6.5899    1.1576    0.6331 O   0  0  0  0  0  0  0  0  0  0  0  0
    8.0896   -5.3844    0.6707 C   0  0  2  0  0  0  0  0  0  0  0  0
    8.2396   -5.9949    1.9518 O   0  0  0  0  0  0  0  0  0  0  0  0
    4.9939    4.9755    4.2728 C   0  0  2  0  0  0  0  0  0  0  0  0
    5.8451    5.8573    3.4743 O   0  0  0  0  0  0  0  0  0  0  0  0
    6.6610    4.1036    1.4590 C   0  0  2  0  0  0  0  0  0  0  0  0
    6.0553    2.9551    2.1136 O   0  0  0  0  0  0  0  0  0  0  0  0
    4.5092    0.0845   -0.1325 C   0  0  0  0  0  0  0  0  0  0  0  0
    3.8330   -1.1692   -0.1397 O   0  0  0  0  0  0  0  0  0  0  0  0
    9.0626   -4.1525    0.5365 C   0  0  1  0  0  0  0  0  0  0  0  0
    8.6586   -3.1963    1.5818 O   0  0  0  0  0  0  0  0  0  0  0  0
    3.5688    5.0943    3.7844 C   0  0  0  0  0  0  0  0  0  0  0  0
    3.4848    4.7060    2.4348 O   0  0  0  0  0  0  0  0  0  0  0  0
    6.8006    3.8527   -0.1008 C   0  0  1  0  0  0  0  0  0  0  0  0
    5.5117    3.8696   -0.7206 O   0  0  0  0  0  0  0  0  0  0  0  0
   10.6011   -4.5222    0.6946 C   0  0  0  0  0  0  0  0  0  0  0  0
   10.9863   -5.1225    2.0014 N   0  0  0  0  0  0  0  0  0  0  0  0
  1  2  1  1  0  0  0
  1  7  1  0  0  0  0
  1 30  1  0  0  0  0
  3  4  1  6  0  0  0
  3  9  1  0  0  0  0
  3 39  1  0  0  0  0
  5 10  1  0  0  0  0
  5 26  1  0  0  0  0
  5 32  1  6  0  0  0
  6 12  1  0  0  0  0
  6 36  1  0  0  0  0
  6 19  1  1  0  0  0
  7  8  1  1  0  0  0
  7 14  1  0  0  0  0
  9 16  1  0  0  0  0
 10 11  1  1  0  0  0
 10 18  1  0  0  0  0
 12 13  1  1  0  0  0
 12 20  1  0  0  0  0
 14 15  1  1  0  0  0
 14 22  1  0  0  0  0
 16 17  1  1  0  0  0
 16 24  1  0  0  0  0
 18 19  1  1  0  0  0
 18 25  1  0  0  0  0
 20 21  1  6  0  0  0
 20 27  1  0  0  0  0
 22 23  1  1  0  0  0
 22 29  1  0  0  0  0
 24  2  1  1  0  0  0
 24 31  1  0  0  0  0
 25 26  1  0  0  0  0
 25 33  1  1  0  0  0
 27 28  1  1  0  0  0
 27 35  1  0  0  0  0
 29 30  1  0  0  0  0
 29 37  1  6  0  0  0
 31 32  1  1  0  0  0
 31 39  1  0  0  0  0
 33 34  1  0  0  0  0
 35 36  1  0  0  0  0
 35 41  1  1  0  0  0
 37 38  1  0  0  0  0
 39 40  1  6  0  0  0
 41 42  1  0  0  0  0
M  END
>  <CHROM.1>
-169.44190923,59.34861375,-176.10273004,-65.61208191,-58.89658108,-177.40629962
-62.86764447,176.18203054,-60.48790430,6.87567198,1.42219826,2.17071634,2.18059895
1.37299816,-0.31569246

>  <Name>
ligand

>  <RI>
0

>  <Rbt.Current_Directory>
/home/itssahil/PROJECTS/Mol_Feturizer/Test_systems_manuscript/rnas/2o3w

>  <Rbt.Executable>
rbdock ($Id: //depot/dev/client3/rdock/2013.1/src/exe/rbdock.cxx#4 $)

>  <Rbt.Library>
libRbt.so (2013.1, Build901 2013/11/27)

>  <Rbt.Parameter_File>
/export/apps/rDock/src/rDock_2013.1_src/data/scripts/dock_solv.prm

>  <Rbt.Receptor>
prm/pocket_docking_7.prm

>  <SCORE>
-10.404

>  <SCORE.INTER>
2.13231

>  <SCORE.INTER.CONST>
1

>  <SCORE.INTER.POLAR>
0

>  <SCORE.INTER.ROT>
9

>  <SCORE.INTER.SOLV>
8.60028

>  <SCORE.INTER.VDW>
-11.0452

>  <SCORE.INTER.norm>
0.0507693

>  <SCORE.INTRA>
-12.5363

>  <SCORE.INTRA.DIHEDRAL>
-26.8429

>  <SCORE.INTRA.DIHEDRAL.0>
27.8999

>  <SCORE.INTRA.POLAR>
0

>  <SCORE.INTRA.POLAR.0>
0

>  <SCORE.INTRA.REPUL>
0

>  <SCORE.INTRA.REPUL.0>
0

>  <SCORE.INTRA.SOLV>
-2.50842

>  <SCORE.INTRA.SOLV.lig_0>
-104.479

>  <SCORE.INTRA.VDW>
2.13942

>  <SCORE.INTRA.VDW.0>
-6.17816

>  <SCORE.INTRA.norm>
-0.298482

>  <SCORE.RESTR>
0

>  <SCORE.RESTR.CAVITY>
0

>  <SCORE.RESTR.norm>
0

>  <SCORE.SYSTEM>
0

>  <SCORE.SYSTEM.CONST>
0

>  <SCORE.SYSTEM.DIHEDRAL>
0

>  <SCORE.SYSTEM.SOLV>
0

>  <SCORE.SYSTEM.norm>
0

>  <SCORE.heavy>
42

>  <SCORE.norm>
-0.247713

>  <RMSD>
9.288

$$$$
ligand
 OpenBabel02271912133D
libRbt.so/2013.1/901 2013/11/27
 42 45  0  0  0  0  0  0  0  0999 V2000
    6.1845    4.1603    2.6503 C   0  0  2  0  0  0  0  0  0  0  0  0
    7.1628    4.9932    2.0049 O   0  0  0  0  0  0  0  0  0  0  0  0
   11.2587    5.9600    3.0463 C   0  0  2  0  0  0  0  0  0  0  0  0
   12.4727    6.4250    3.7815 N   0  0  0  0  0  0  0  0  0  0  0  0
    8.8007    2.1473    4.3732 C   0  0  1  0  0  0  0  0  0  0  0  0
    8.7518   -2.1146    5.4431 C   0  0  1  0  0  0  0  0  0  0  0  0
    5.1541    3.7398    1.5596 C   0  0  2  0  0  0  0  0  0  0  0  0
    5.8013    3.2069    0.3481 N   0  0  0  0  0  0  0  0  0  0  0  0
   10.2727    7.1605    2.7490 C   0  0  0  0  0  0  0  0  0  0  0  0
    8.0662    1.6102    5.6393 C   0  0  2  0  0  0  0  0  0  0  0  0
    8.7964    1.8123    6.8743 O   0  0  0  0  0  0  0  0  0  0  0  0
    7.5591   -2.7523    6.2429 C   0  0  2  0  0  0  0  0  0  0  0  0
    7.6944   -2.4848    7.7061 N   0  0  0  0  0  0  0  0  0  0  0  0
    4.2671    4.9153    1.1096 C   0  0  1  0  0  0  0  0  0  0  0  0
    3.3135    4.4763    0.1407 O   0  0  0  0  0  0  0  0  0  0  0  0
    9.0268    6.6130    1.9550 C   0  0  2  0  0  0  0  0  0  0  0  0
    8.0832    7.7207    1.6452 N   0  0  0  0  0  0  0  0  0  0  0  0
    7.8222    0.1527    5.2451 C   0  0  2  0  0  0  0  0  0  0  0  0
    8.9304   -0.7090    5.6577 O   0  0  0  0  0  0  0  0  0  0  0  0
    7.5065   -4.3262    5.9481 C   0  0  1  0  0  0  0  0  0  0  0  0
    7.0021   -4.5343    4.6097 O   0  0  0  0  0  0  0  0  0  0  0  0
    3.5734    5.5390    2.3421 C   0  0  2  0  0  0  0  0  0  0  0  0
    2.7443    6.6064    1.9449 O   0  0  0  0  0  0  0  0  0  0  0  0
    8.2804    5.4985    2.7897 C   0  0  2  0  0  0  0  0  0  0  0  0
    7.6527    0.1490    3.7165 C   0  0  2  0  0  0  0  0  0  0  0  0
    8.4777    1.2343    3.2994 O   0  0  0  0  0  0  0  0  0  0  0  0
    8.9355   -5.0353    6.0985 C   0  0  2  0  0  0  0  0  0  0  0  0
    9.2777   -5.0255    7.4838 O   0  0  0  0  0  0  0  0  0  0  0  0
    4.6663    6.0322    3.3480 C   0  0  2  0  0  0  0  0  0  0  0  0
    5.5191    4.9094    3.7374 O   0  0  0  0  0  0  0  0  0  0  0  0
    9.1996    4.3160    3.1665 C   0  0  2  0  0  0  0  0  0  0  0  0
    8.4130    3.4942    4.0722 O   0  0  0  0  0  0  0  0  0  0  0  0
    6.1864    0.3341    3.2165 C   0  0  0  0  0  0  0  0  0  0  0  0
    5.6356    1.5112    3.7997 O   0  0  0  0  0  0  0  0  0  0  0  0
   10.0277   -4.2679    5.2616 C   0  0  1  0  0  0  0  0  0  0  0  0
   10.0207   -2.8798    5.7550 O   0  0  0  0  0  0  0  0  0  0  0  0
    4.0739    6.6534    4.5917 C   0  0  0  0  0  0  0  0  0  0  0  0
    5.0981    7.1225    5.4345 O   0  0  0  0  0  0  0  0  0  0  0  0
   10.5106    4.8468    3.8841 C   0  0  1  0  0  0  0  0  0  0  0  0
   11.4276    3.7699    4.0961 O   0  0  0  0  0  0  0  0  0  0  0  0
   11.4878   -4.8863    5.3809 C   0  0  0  0  0  0  0  0  0  0  0  0
   11.6450   -6.2687    4.8510 N   0  0  0  0  0  0  0  0  0  0  0  0
  1  2  1  6  0  0  0
  1  7  1  0  0  0  0
  1 30  1  0  0  0  0
  3  4  1  1  0  0  0
  3  9  1  0  0  0  0
  3 39  1  0  0  0  0
  5 10  1  0  0  0  0
  5 26  1  0  0  0  0
  5 32  1  6  0  0  0
  6 12  1  0  0  0  0
  6 36  1  0  0  0  0
  6 19  1  1  0  0  0
  7  8  1  6  0  0  0
  7 14  1  0  0  0  0
  9 16  1  0  0  0  0
 10 11  1  1  0  0  0
 10 18  1  0  0  0  0
 12 13  1  1  0  0  0
 12 20  1  0  0  0  0
 14 15  1  6  0  0  0
 14 22  1  0  0  0  0
 16 17  1  1  0  0  0
 16 24  1  0  0  0  0
 18 19  1  6  0  0  0
 18 25  1  0  0  0  0
 20 21  1  6  0  0  0
 20 27  1  0  0  0  0
 22 23  1  6  0  0  0
 22 29  1  0  0  0  0
 24  2  1  6  0  0  0
 24 31  1  0  0  0  0
 25 26  1  0  0  0  0
 25 33  1  1  0  0  0
 27 28  1  1  0  0  0
 27 35  1  0  0  0  0
 29 30  1  0  0  0  0
 29 37  1  1  0  0  0
 31 32  1  1  0  0  0
 31 39  1  0  0  0  0
 33 34  1  0  0  0  0
 35 36  1  0  0  0  0
 35 41  1  1  0  0  0
 37 38  1  0  0  0  0
 39 40  1  6  0  0  0
 41 42  1  0  0  0  0
M  END
>  <CHROM.1>
-178.06084051,-168.14859055,174.66488754,-62.55380192,53.78705294,-177.80728290
164.35329296,163.98898992,63.65158756,7.75776690,1.94636073,3.98986201,1.85055361
-0.19408597,-0.26790869

>  <Name>
ligand

>  <RI>
0

>  <Rbt.Current_Directory>
/home/itssahil/PROJECTS/Mol_Feturizer/Test_systems_manuscript/rnas/2o3w

>  <Rbt.Executable>
rbdock ($Id: //depot/dev/client3/rdock/2013.1/src/exe/rbdock.cxx#4 $)

>  <Rbt.Library>
libRbt.so (2013.1, Build901 2013/11/27)

>  <Rbt.Parameter_File>
/export/apps/rDock/src/rDock_2013.1_src/data/scripts/dock_solv.prm

>  <Rbt.Receptor>
prm/pocket_docking_4.prm

>  <SCORE>
-9.53808

>  <SCORE.INTER>
3.25513

>  <SCORE.INTER.CONST>
1

>  <SCORE.INTER.POLAR>
0

>  <SCORE.INTER.ROT>
9

>  <SCORE.INTER.SOLV>
13.0237

>  <SCORE.INTER.VDW>
-11.7712

>  <SCORE.INTER.norm>
0.0775031

>  <SCORE.INTRA>
-12.7932

>  <SCORE.INTRA.DIHEDRAL>
-24.3509

>  <SCORE.INTRA.DIHEDRAL.0>
27.8999

>  <SCORE.INTRA.POLAR>
0

>  <SCORE.INTRA.POLAR.0>
0

>  <SCORE.INTRA.REPUL>
0

>  <SCORE.INTRA.REPUL.0>
0

>  <SCORE.INTRA.SOLV>
-4.21946

>  <SCORE.INTRA.SOLV.lig_0>
-104.479

>  <SCORE.INTRA.VDW>
1.49199

>  <SCORE.INTRA.VDW.0>
-6.17816

>  <SCORE.INTRA.norm>
-0.3046

>  <SCORE.RESTR>
0

>  <SCORE.RESTR.CAVITY>
0

>  <SCORE.RESTR.norm>
0

>  <SCORE.SYSTEM>
0

>  <SCORE.SYSTEM.CONST>
0

>  <SCORE.SYSTEM.DIHEDRAL>
0

>  <SCORE.SYSTEM.SOLV>
0

>  <SCORE.SYSTEM.norm>
0

>  <SCORE.heavy>
42

>  <SCORE.norm>
-0.227097

>  <RMSD>
9.332

$$$$
ligand
 OpenBabel02271912133D
libRbt.so/2013.1/901 2013/11/27
 42 45  0  0  0  0  0  0  0  0999 V2000
    5.4574    6.6366    1.6381 C   0  0  2  0  0  0  0  0  0  0  0  0
    6.4684    5.6426    1.8771 O   0  0  0  0  0  0  0  0  0  0  0  0
    6.8304    4.1897   -2.1916 C   0  0  2  0  0  0  0  0  0  0  0  0
    7.1920    3.3731   -3.3886 N   0  0  0  0  0  0  0  0  0  0  0  0
    5.9436    2.0289    1.5662 C   0  0  1  0  0  0  0  0  0  0  0  0
    8.1675   -1.0227    3.7576 C   0  0  1  0  0  0  0  0  0  0  0  0
    5.3895    7.5319    2.9117 C   0  0  2  0  0  0  0  0  0  0  0  0
    6.7172    8.0077    3.3378 N   0  0  0  0  0  0  0  0  0  0  0  0
    8.1145    4.8243   -1.5205 C   0  0  0  0  0  0  0  0  0  0  0  0
    7.1802    2.3965    2.4416 C   0  0  2  0  0  0  0  0  0  0  0  0
    8.3941    2.6195    1.6827 O   0  0  0  0  0  0  0  0  0  0  0  0
    8.8259   -0.7300    5.1539 C   0  0  2  0  0  0  0  0  0  0  0  0
   10.1612   -0.0814    4.9885 N   0  0  0  0  0  0  0  0  0  0  0  0
    4.7753    6.7919    4.1142 C   0  0  1  0  0  0  0  0  0  0  0  0
    4.6963    7.6607    5.2454 O   0  0  0  0  0  0  0  0  0  0  0  0
    7.6681    5.6892   -0.2815 C   0  0  2  0  0  0  0  0  0  0  0  0
    8.8524    6.3144    0.3667 N   0  0  0  0  0  0  0  0  0  0  0  0
    7.2154    1.2180    3.4158 C   0  0  2  0  0  0  0  0  0  0  0  0
    8.0405    0.1227    2.9057 O   0  0  0  0  0  0  0  0  0  0  0  0
    8.9490   -2.0986    5.9777 C   0  0  1  0  0  0  0  0  0  0  0  0
    7.6351   -2.4866    6.4379 O   0  0  0  0  0  0  0  0  0  0  0  0
    3.3834    6.2431    3.7257 C   0  0  2  0  0  0  0  0  0  0  0  0
    2.8003    5.5770    4.8214 O   0  0  0  0  0  0  0  0  0  0  0  0
    6.8965    4.7983    0.7706 C   0  0  2  0  0  0  0  0  0  0  0  0
    5.7539    0.7756    3.5999 C   0  0  2  0  0  0  0  0  0  0  0  0
    5.1620    1.0917    2.3421 O   0  0  0  0  0  0  0  0  0  0  0  0
    9.5878   -3.2884    5.1152 C   0  0  2  0  0  0  0  0  0  0  0  0
   10.9624   -2.9730    4.8975 O   0  0  0  0  0  0  0  0  0  0  0  0
    3.5390    5.2728    2.5076 C   0  0  2  0  0  0  0  0  0  0  0  0
    4.1546    5.9842    1.3874 O   0  0  0  0  0  0  0  0  0  0  0  0
    5.6577    4.0990    0.1693 C   0  0  2  0  0  0  0  0  0  0  0  0
    5.1893    3.1936    1.2063 O   0  0  0  0  0  0  0  0  0  0  0  0
    4.9961    1.4777    4.7691 C   0  0  0  0  0  0  0  0  0  0  0  0
    4.9498    2.8802    4.5248 O   0  0  0  0  0  0  0  0  0  0  0  0
    8.8386   -3.4407    3.7377 C   0  0  1  0  0  0  0  0  0  0  0  0
    8.9378   -2.1308    3.0709 O   0  0  0  0  0  0  0  0  0  0  0  0
    2.2195    4.6919    2.0547 C   0  0  0  0  0  0  0  0  0  0  0  0
    2.4325    3.7283    1.0519 O   0  0  0  0  0  0  0  0  0  0  0  0
    6.0610    3.2962   -1.1378 C   0  0  1  0  0  0  0  0  0  0  0  0
    4.8924    2.7756   -1.7773 O   0  0  0  0  0  0  0  0  0  0  0  0
    9.4311   -4.5807    2.8007 C   0  0  0  0  0  0  0  0  0  0  0  0
    9.3418   -5.9658    3.3395 N   0  0  0  0  0  0  0  0  0  0  0  0
  1  2  1  1  0  0  0
  1  7  1  0  0  0  0
  1 30  1  0  0  0  0
  3  4  1  6  0  0  0
  3  9  1  0  0  0  0
  3 39  1  0  0  0  0
  5 10  1  0  0  0  0
  5 26  1  0  0  0  0
  5 32  1  1  0  0  0
  6 12  1  0  0  0  0
  6 36  1  0  0  0  0
  6 19  1  6  0  0  0
  7  8  1  1  0  0  0
  7 14  1  0  0  0  0
  9 16  1  0  0  0  0
 10 11  1  6  0  0  0
 10 18  1  0  0  0  0
 12 13  1  6  0  0  0
 12 20  1  0  0  0  0
 14 15  1  1  0  0  0
 14 22  1  0  0  0  0
 16 17  1  1  0  0  0
 16 24  1  0  0  0  0
 18 19  1  6  0  0  0
 18 25  1  0  0  0  0
 20 21  1  6  0  0  0
 20 27  1  0  0  0  0
 22 23  1  1  0  0  0
 22 29  1  0  0  0  0
 24  2  1  1  0  0  0
 24 31  1  0  0  0  0
 25 26  1  0  0  0  0
 25 33  1  1  0  0  0
 27 28  1  6  0  0  0
 27 35  1  0  0  0  0
 29 30  1  0  0  0  0
 29 37  1  6  0  0  0
 31 32  1  1  0  0  0
 31 39  1  0  0  0  0
 33 34  1  0  0  0  0
 35 36  1  0  0  0  0
 35 41  1  6  0  0  0
 37 38  1  0  0  0  0
 39 40  1  6  0  0  0
 41 42  1  0  0  0  0
M  END
>  <CHROM.1>
-170.32508233,67.88078823,178.58171718,-60.91299567,61.21110865,-174.04299226
-69.66671586,76.13902312,63.03537030,6.58863150,2.42354296,2.47917733,2.42768790
1.00186959,-1.06885829

>  <Name>
ligand

>  <RI>
0

>  <Rbt.Current_Directory>
/home/itssahil/PROJECTS/Mol_Feturizer/Test_systems_manuscript/rnas/2o3w

>  <Rbt.Executable>
rbdock ($Id: //depot/dev/client3/rdock/2013.1/src/exe/rbdock.cxx#4 $)

>  <Rbt.Library>
libRbt.so (2013.1, Build901 2013/11/27)

>  <Rbt.Parameter_File>
/export/apps/rDock/src/rDock_2013.1_src/data/scripts/dock_solv.prm

>  <Rbt.Receptor>
prm/pocket_docking_7.prm

>  <SCORE>
-11.4853

>  <SCORE.INTER>
0.257126

>  <SCORE.INTER.CONST>
1

>  <SCORE.INTER.POLAR>
0

>  <SCORE.INTER.ROT>
9

>  <SCORE.INTER.SOLV>
14.297

>  <SCORE.INTER.VDW>
-14.1943

>  <SCORE.INTER.norm>
0.00612205

>  <SCORE.INTRA>
-11.7424

>  <SCORE.INTRA.DIHEDRAL>
-25.1549

>  <SCORE.INTRA.DIHEDRAL.0>
27.8999

>  <SCORE.INTRA.POLAR>
0

>  <SCORE.INTRA.POLAR.0>
0

>  <SCORE.INTRA.REPUL>
0.00445784

>  <SCORE.INTRA.REPUL.0>
0

>  <SCORE.INTRA.SOLV>
-2.11596

>  <SCORE.INTRA.SOLV.lig_0>
-104.479

>  <SCORE.INTRA.VDW>
1.87076

>  <SCORE.INTRA.VDW.0>
-6.17816

>  <SCORE.INTRA.norm>
-0.27958

>  <SCORE.RESTR>
0

>  <SCORE.RESTR.CAVITY>
0

>  <SCORE.RESTR.norm>
0

>  <SCORE.SYSTEM>
0

>  <SCORE.SYSTEM.CONST>
0

>  <SCORE.SYSTEM.DIHEDRAL>
0

>  <SCORE.SYSTEM.SOLV>
0

>  <SCORE.SYSTEM.norm>
0

>  <SCORE.heavy>
42

>  <SCORE.norm>
-0.273458

>  <RMSD>
9.344

$$$$
ligand
 OpenBabel02271912133D
libRbt.so/2013.1/901 2013/11/27
 42 45  0  0  0  0  0  0  0  0999 V2000
   10.0808    6.6361    2.2374 C   0  0  2  0  0  0  0  0  0  0  0  0
    9.8985    5.2120    2.1600 O   0  0  0  0  0  0  0  0  0  0  0  0
    6.9340    5.1799   -1.0033 C   0  0  2  0  0  0  0  0  0  0  0  0
    5.8888    4.7405   -1.9754 N   0  0  0  0  0  0  0  0  0  0  0  0
    7.1336    3.3678    3.1130 C   0  0  1  0  0  0  0  0  0  0  0  0
    7.6803   -0.6349    4.9375 C   0  0  1  0  0  0  0  0  0  0  0  0
   11.3118    6.8879    3.1590 C   0  0  2  0  0  0  0  0  0  0  0  0
   12.4800    6.0772    2.7732 N   0  0  0  0  0  0  0  0  0  0  0  0
    8.3159    4.4633   -1.2835 C   0  0  0  0  0  0  0  0  0  0  0  0
    8.4903    2.8386    3.6699 C   0  0  2  0  0  0  0  0  0  0  0  0
    9.4012    2.3629    2.6486 O   0  0  0  0  0  0  0  0  0  0  0  0
    8.9310   -1.0011    5.8152 C   0  0  2  0  0  0  0  0  0  0  0  0
   10.1265   -1.2606    4.9583 N   0  0  0  0  0  0  0  0  0  0  0  0
   11.0132    6.5638    4.6343 C   0  0  1  0  0  0  0  0  0  0  0  0
   12.1541    6.8462    5.4464 O   0  0  0  0  0  0  0  0  0  0  0  0
    9.3800    4.9826   -0.2440 C   0  0  2  0  0  0  0  0  0  0  0  0
   10.6989    4.3386   -0.4880 N   0  0  0  0  0  0  0  0  0  0  0  0
    8.0102    1.7867    4.6711 C   0  0  2  0  0  0  0  0  0  0  0  0
    7.8791    0.4700    4.0468 O   0  0  0  0  0  0  0  0  0  0  0  0
    8.5854   -2.2758    6.7223 C   0  0  1  0  0  0  0  0  0  0  0  0
    7.6926   -1.8665    7.7825 O   0  0  0  0  0  0  0  0  0  0  0  0
    9.7771    7.3671    5.0987 C   0  0  2  0  0  0  0  0  0  0  0  0
    9.5005    7.0942    6.4528 O   0  0  0  0  0  0  0  0  0  0  0  0
    8.9083    4.6816    1.2334 C   0  0  2  0  0  0  0  0  0  0  0  0
    6.6565    2.2902    5.1995 C   0  0  2  0  0  0  0  0  0  0  0  0
    6.1287    3.0150    4.0911 O   0  0  0  0  0  0  0  0  0  0  0  0
    7.9160   -3.4693    5.8886 C   0  0  2  0  0  0  0  0  0  0  0  0
    8.9177   -4.0076    5.0266 O   0  0  0  0  0  0  0  0  0  0  0  0
    8.5546    6.9893    4.1975 C   0  0  2  0  0  0  0  0  0  0  0  0
    8.8695    7.2725    2.7973 O   0  0  0  0  0  0  0  0  0  0  0  0
    7.5341    5.3050    1.5620 C   0  0  2  0  0  0  0  0  0  0  0  0
    7.1797    4.7800    2.8710 O   0  0  0  0  0  0  0  0  0  0  0  0
    6.7399    3.1910    6.4706 C   0  0  0  0  0  0  0  0  0  0  0  0
    7.4769    4.3706    6.1637 O   0  0  0  0  0  0  0  0  0  0  0  0
    6.6959   -2.9408    5.0434 C   0  0  1  0  0  0  0  0  0  0  0  0
    7.2271   -1.8681    4.1847 O   0  0  0  0  0  0  0  0  0  0  0  0
    7.2978    7.7368    4.5790 C   0  0  0  0  0  0  0  0  0  0  0  0
    6.2454    7.3901    3.7122 O   0  0  0  0  0  0  0  0  0  0  0  0
    6.4622    4.8752    0.4749 C   0  0  1  0  0  0  0  0  0  0  0  0
    5.2319    5.5714    0.6927 O   0  0  0  0  0  0  0  0  0  0  0  0
    5.9909   -4.0565    4.1565 C   0  0  0  0  0  0  0  0  0  0  0  0
    5.3125   -5.1446    4.9131 N   0  0  0  0  0  0  0  0  0  0  0  0
  1  2  1  1  0  0  0
  1  7  1  0  0  0  0
  1 30  1  0  0  0  0
  3  4  1  6  0  0  0
  3  9  1  0  0  0  0
  3 39  1  0  0  0  0
  5 10  1  0  0  0  0
  5 26  1  0  0  0  0
  5 32  1  1  0  0  0
  6 12  1  0  0  0  0
  6 36  1  0  0  0  0
  6 19  1  6  0  0  0
  7  8  1  6  0  0  0
  7 14  1  0  0  0  0
  9 16  1  0  0  0  0
 10 11  1  6  0  0  0
 10 18  1  0  0  0  0
 12 13  1  6  0  0  0
 12 20  1  0  0  0  0
 14 15  1  1  0  0  0
 14 22  1  0  0  0  0
 16 17  1  6  0  0  0
 16 24  1  0  0  0  0
 18 19  1  6  0  0  0
 18 25  1  0  0  0  0
 20 21  1  1  0  0  0
 20 27  1  0  0  0  0
 22 23  1  1  0  0  0
 22 29  1  0  0  0  0
 24  2  1  1  0  0  0
 24 31  1  0  0  0  0
 25 26  1  0  0  0  0
 25 33  1  1  0  0  0
 27 28  1  6  0  0  0
 27 35  1  0  0  0  0
 29 30  1  0  0  0  0
 29 37  1  1  0  0  0
 31 32  1  1  0  0  0
 31 39  1  0  0  0  0
 33 34  1  0  0  0  0
 35 36  1  0  0  0  0
 35 41  1  6  0  0  0
 37 38  1  0  0  0  0
 39 40  1  1  0  0  0
 41 42  1  0  0  0  0
M  END
>  <CHROM.1>
-172.85096071,66.44376043,168.71327435,-69.65541129,62.31160257,178.17027745
-55.48102340,93.09206012,65.58556395,8.24362679,3.01516005,3.56770578,-1.23787833
1.08627211,2.52686135

>  <Name>
ligand

>  <RI>
0

>  <Rbt.Current_Directory>
/home/itssahil/PROJECTS/Mol_Feturizer/Test_systems_manuscript/rnas/2o3w

>  <Rbt.Executable>
rbdock ($Id: //depot/dev/client3/rdock/2013.1/src/exe/rbdock.cxx#4 $)

>  <Rbt.Library>
libRbt.so (2013.1, Build901 2013/11/27)

>  <Rbt.Parameter_File>
/export/apps/rDock/src/rDock_2013.1_src/data/scripts/dock_solv.prm

>  <Rbt.Receptor>
prm/pocket_docking_4.prm

>  <SCORE>
-10.6783

>  <SCORE.INTER>
-0.39657

>  <SCORE.INTER.CONST>
1

>  <SCORE.INTER.POLAR>
0

>  <SCORE.INTER.ROT>
9

>  <SCORE.INTER.SOLV>
16.9643

>  <SCORE.INTER.VDW>
-15.5191

>  <SCORE.INTER.norm>
-0.00944214

>  <SCORE.INTRA>
-10.2885

>  <SCORE.INTRA.DIHEDRAL>
-21.8293

>  <SCORE.INTRA.DIHEDRAL.0>
27.8999

>  <SCORE.INTRA.POLAR>
0

>  <SCORE.INTRA.POLAR.0>
0

>  <SCORE.INTRA.REPUL>
0

>  <SCORE.INTRA.REPUL.0>
0

>  <SCORE.INTRA.SOLV>
-2.4489

>  <SCORE.INTRA.SOLV.lig_0>
-104.479

>  <SCORE.INTRA.VDW>
1.85061

>  <SCORE.INTRA.VDW.0>
-6.17816

>  <SCORE.INTRA.norm>
-0.244964

>  <SCORE.RESTR>
0.00674327

>  <SCORE.RESTR.CAVITY>
0.00674327

>  <SCORE.RESTR.norm>
0.000160554

>  <SCORE.SYSTEM>
0

>  <SCORE.SYSTEM.CONST>
0

>  <SCORE.SYSTEM.DIHEDRAL>
0

>  <SCORE.SYSTEM.SOLV>
0

>  <SCORE.SYSTEM.norm>
0

>  <SCORE.heavy>
42

>  <SCORE.norm>
-0.254245

>  <RMSD>
9.346

$$$$
ligand
 OpenBabel02271912133D
libRbt.so/2013.1/901 2013/11/27
 42 45  0  0  0  0  0  0  0  0999 V2000
    6.8765    3.3485    3.1720 C   0  0  2  0  0  0  0  0  0  0  0  0
    7.6177    4.3607    2.4697 O   0  0  0  0  0  0  0  0  0  0  0  0
   11.3885    6.3069    3.3584 C   0  0  2  0  0  0  0  0  0  0  0  0
   12.4722    7.0746    4.0415 N   0  0  0  0  0  0  0  0  0  0  0  0
   10.0454    2.2634    5.1374 C   0  0  1  0  0  0  0  0  0  0  0  0
   11.5759   -1.6136    6.5778 C   0  0  1  0  0  0  0  0  0  0  0  0
    5.9715    2.6364    2.1222 C   0  0  2  0  0  0  0  0  0  0  0  0
    6.7201    2.2168    0.9247 N   0  0  0  0  0  0  0  0  0  0  0  0
   10.1409    7.2282    3.0474 C   0  0  0  0  0  0  0  0  0  0  0  0
    9.2019    1.2864    6.0120 C   0  0  2  0  0  0  0  0  0  0  0  0
    9.1324    1.6581    7.4106 O   0  0  0  0  0  0  0  0  0  0  0  0
   12.6829   -1.8903    7.6580 C   0  0  2  0  0  0  0  0  0  0  0  0
   13.7481   -0.8444    7.6102 N   0  0  0  0  0  0  0  0  0  0  0  0
    4.8218    3.5374    1.6350 C   0  0  1  0  0  0  0  0  0  0  0  0
    3.9966    2.8321    0.7062 O   0  0  0  0  0  0  0  0  0  0  0  0
    9.0445    6.3705    2.3093 C   0  0  2  0  0  0  0  0  0  0  0  0
    7.8598    7.2112    1.9879 N   0  0  0  0  0  0  0  0  0  0  0  0
    9.8892   -0.0472    5.7146 C   0  0  2  0  0  0  0  0  0  0  0  0
   10.9749   -0.3152    6.6581 O   0  0  0  0  0  0  0  0  0  0  0  0
   13.2989   -3.3503    7.4217 C   0  0  1  0  0  0  0  0  0  0  0  0
   12.3339   -4.3389    7.8464 O   0  0  0  0  0  0  0  0  0  0  0  0
    4.0061    4.0348    2.8501 C   0  0  2  0  0  0  0  0  0  0  0  0
    2.9391    4.8476    2.4196 O   0  0  0  0  0  0  0  0  0  0  0  0
    8.5993    5.1468    3.2038 C   0  0  2  0  0  0  0  0  0  0  0  0
   10.4166    0.0591    4.2737 C   0  0  2  0  0  0  0  0  0  0  0  0
   10.7003    1.4495    4.1375 O   0  0  0  0  0  0  0  0  0  0  0  0
   13.7012   -3.6159    5.8936 C   0  0  2  0  0  0  0  0  0  0  0  0
   14.8260   -2.7902    5.5943 O   0  0  0  0  0  0  0  0  0  0  0  0
    4.9533    4.8283    3.8106 C   0  0  2  0  0  0  0  0  0  0  0  0
    6.0567    3.9670    4.2355 O   0  0  0  0  0  0  0  0  0  0  0  0
    9.7793    4.2306    3.5954 C   0  0  2  0  0  0  0  0  0  0  0  0
    9.2272    3.2845    4.5518 O   0  0  0  0  0  0  0  0  0  0  0  0
    9.4220   -0.4214    3.1718 C   0  0  0  0  0  0  0  0  0  0  0  0
    8.2473    0.3829    3.2152 O   0  0  0  0  0  0  0  0  0  0  0  0
   12.5001   -3.2697    4.9344 C   0  0  1  0  0  0  0  0  0  0  0  0
   12.1558   -1.8625    5.2013 O   0  0  0  0  0  0  0  0  0  0  0  0
    4.2366    5.3484    5.0352 C   0  0  0  0  0  0  0  0  0  0  0  0
    3.2523    6.2814    4.6612 O   0  0  0  0  0  0  0  0  0  0  0  0
   10.9414    5.0843    4.2560 C   0  0  1  0  0  0  0  0  0  0  0  0
   12.0910    4.2632    4.4793 O   0  0  0  0  0  0  0  0  0  0  0  0
   12.8245   -3.4730    3.3911 C   0  0  0  0  0  0  0  0  0  0  0  0
   13.9003   -2.6031    2.8409 N   0  0  0  0  0  0  0  0  0  0  0  0
  1  2  1  6  0  0  0
  1  7  1  0  0  0  0
  1 30  1  0  0  0  0
  3  4  1  1  0  0  0
  3  9  1  0  0  0  0
  3 39  1  0  0  0  0
  5 10  1  0  0  0  0
  5 26  1  0  0  0  0
  5 32  1  6  0  0  0
  6 12  1  0  0  0  0
  6 36  1  0  0  0  0
  6 19  1  6  0  0  0
  7  8  1  6  0  0  0
  7 14  1  0  0  0  0
  9 16  1  0  0  0  0
 10 11  1  1  0  0  0
 10 18  1  0  0  0  0
 12 13  1  6  0  0  0
 12 20  1  0  0  0  0
 14 15  1  6  0  0  0
 14 22  1  0  0  0  0
 16 17  1  1  0  0  0
 16 24  1  0  0  0  0
 18 19  1  1  0  0  0
 18 25  1  0  0  0  0
 20 21  1  6  0  0  0
 20 27  1  0  0  0  0
 22 23  1  6  0  0  0
 22 29  1  0  0  0  0
 24  2  1  6  0  0  0
 24 31  1  0  0  0  0
 25 26  1  0  0  0  0
 25 33  1  6  0  0  0
 27 28  1  6  0  0  0
 27 35  1  0  0  0  0
 29 30  1  0  0  0  0
 29 37  1  1  0  0  0
 31 32  1  1  0  0  0
 31 39  1  0  0  0  0
 33 34  1  0  0  0  0
 35 36  1  0  0  0  0
 35 41  1  6  0  0  0
 37 38  1  0  0  0  0
 39 40  1  6  0  0  0
 41 42  1  0  0  0  0
M  END
>  <CHROM.1>
-177.11833129,-168.11216174,172.35936431,-176.80397204,61.25032191,-63.76908929
179.80159979,-174.09451845,-63.07066634,9.36592554,1.92323989,4.28344725
2.30710809,-0.23760371,-0.17825075

>  <Name>
ligand

>  <RI>
0

>  <Rbt.Current_Directory>
/home/itssahil/PROJECTS/Mol_Feturizer/Test_systems_manuscript/rnas/2o3w

>  <Rbt.Executable>
rbdock ($Id: //depot/dev/client3/rdock/2013.1/src/exe/rbdock.cxx#4 $)

>  <Rbt.Library>
libRbt.so (2013.1, Build901 2013/11/27)

>  <Rbt.Parameter_File>
/export/apps/rDock/src/rDock_2013.1_src/data/scripts/dock_solv.prm

>  <Rbt.Receptor>
prm/pocket_docking_6.prm

>  <SCORE>
-9.90399

>  <SCORE.INTER>
2.61123

>  <SCORE.INTER.CONST>
1

>  <SCORE.INTER.POLAR>
0

>  <SCORE.INTER.ROT>
9

>  <SCORE.INTER.SOLV>
10.5422

>  <SCORE.INTER.VDW>
-11.3732

>  <SCORE.INTER.norm>
0.0621722

>  <SCORE.INTRA>
-12.5152

>  <SCORE.INTRA.DIHEDRAL>
-26.4501

>  <SCORE.INTRA.DIHEDRAL.0>
27.8999

>  <SCORE.INTRA.POLAR>
0

>  <SCORE.INTRA.POLAR.0>
0

>  <SCORE.INTRA.REPUL>
0

>  <SCORE.INTRA.REPUL.0>
0

>  <SCORE.INTRA.SOLV>
-2.56608

>  <SCORE.INTRA.SOLV.lig_0>
-104.479

>  <SCORE.INTRA.VDW>
1.99288

>  <SCORE.INTRA.VDW.0>
-6.17816

>  <SCORE.INTRA.norm>
-0.297981

>  <SCORE.RESTR>
0

>  <SCORE.RESTR.CAVITY>
0

>  <SCORE.RESTR.norm>
0

>  <SCORE.SYSTEM>
0

>  <SCORE.SYSTEM.CONST>
0

>  <SCORE.SYSTEM.DIHEDRAL>
0

>  <SCORE.SYSTEM.SOLV>
0

>  <SCORE.SYSTEM.norm>
0

>  <SCORE.heavy>
42

>  <SCORE.norm>
-0.235809

>  <RMSD>
9.361

$$$$
ligand
 OpenBabel02271912133D
libRbt.so/2013.1/901 2013/11/27
 42 45  0  0  0  0  0  0  0  0999 V2000
    7.4225    6.3599    2.0285 C   0  0  2  0  0  0  0  0  0  0  0  0
    7.1543    5.4567    0.9425 O   0  0  0  0  0  0  0  0  0  0  0  0
    2.9152    4.8990    1.6603 C   0  0  2  0  0  0  0  0  0  0  0  0
    1.4851    4.4928    1.5188 N   0  0  0  0  0  0  0  0  0  0  0  0
    6.8787    2.1050    2.5075 C   0  0  1  0  0  0  0  0  0  0  0  0
    7.9493   -0.9458    5.5222 C   0  0  1  0  0  0  0  0  0  0  0  0
    8.8393    6.9599    1.7821 C   0  0  2  0  0  0  0  0  0  0  0  0
    9.0003    7.4820    0.4139 N   0  0  0  0  0  0  0  0  0  0  0  0
    3.3412    5.9076    0.5188 C   0  0  0  0  0  0  0  0  0  0  0  0
    5.8602    1.4997    3.5209 C   0  0  2  0  0  0  0  0  0  0  0  0
    5.5765    2.3566    4.6542 O   0  0  0  0  0  0  0  0  0  0  0  0
    8.8719   -0.7803    6.7833 C   0  0  2  0  0  0  0  0  0  0  0  0
    9.9997    0.1571    6.4998 N   0  0  0  0  0  0  0  0  0  0  0  0
    9.9580    5.9240    1.9974 C   0  0  1  0  0  0  0  0  0  0  0  0
   11.2383    6.5264    1.8001 O   0  0  0  0  0  0  0  0  0  0  0  0
    4.8478    6.3153    0.7341 C   0  0  2  0  0  0  0  0  0  0  0  0
    5.2787    7.2771   -0.3161 N   0  0  0  0  0  0  0  0  0  0  0  0
    6.5280    0.1640    3.8513 C   0  0  2  0  0  0  0  0  0  0  0  0
    7.4298    0.2823    4.9974 O   0  0  0  0  0  0  0  0  0  0  0  0
    9.4177   -2.2184    7.2314 C   0  0  1  0  0  0  0  0  0  0  0  0
    8.3395   -2.9552    7.8506 O   0  0  0  0  0  0  0  0  0  0  0  0
    9.8324    5.3161    3.4129 C   0  0  2  0  0  0  0  0  0  0  0  0
   10.8599    4.3775    3.6319 O   0  0  0  0  0  0  0  0  0  0  0  0
    5.7801    5.0404    0.7002 C   0  0  2  0  0  0  0  0  0  0  0  0
    7.2906   -0.2545    2.5830 C   0  0  2  0  0  0  0  0  0  0  0  0
    7.6538    0.9947    1.9998 O   0  0  0  0  0  0  0  0  0  0  0  0
   10.0136   -3.0661    6.0092 C   0  0  2  0  0  0  0  0  0  0  0  0
   11.2213   -2.4305    5.5921 O   0  0  0  0  0  0  0  0  0  0  0  0
    8.4274    4.6415    3.5560 C   0  0  2  0  0  0  0  0  0  0  0  0
    7.3790    5.6327    3.3150 O   0  0  0  0  0  0  0  0  0  0  0  0
    5.3868    3.9826    1.7545 C   0  0  2  0  0  0  0  0  0  0  0  0
    6.2143    2.8238    1.4601 O   0  0  0  0  0  0  0  0  0  0  0  0
    6.4721   -1.1253    1.5800 C   0  0  0  0  0  0  0  0  0  0  0  0
    5.3214   -0.3998    1.1575 O   0  0  0  0  0  0  0  0  0  0  0  0
    8.9856   -3.1197    4.8165 C   0  0  1  0  0  0  0  0  0  0  0  0
    8.7004   -1.7193    4.4589 O   0  0  0  0  0  0  0  0  0  0  0  0
    8.2151    4.0235    4.9186 C   0  0  0  0  0  0  0  0  0  0  0  0
    8.3931    4.9921    5.9234 O   0  0  0  0  0  0  0  0  0  0  0  0
    3.8477    3.6224    1.6231 C   0  0  1  0  0  0  0  0  0  0  0  0
    3.4498    2.7597    2.6922 O   0  0  0  0  0  0  0  0  0  0  0  0
    9.5108   -3.9158    3.5441 C   0  0  0  0  0  0  0  0  0  0  0  0
    8.5352   -4.0596    2.4287 N   0  0  0  0  0  0  0  0  0  0  0  0
  1  2  1  6  0  0  0
  1  7  1  0  0  0  0
  1 30  1  0  0  0  0
  3  4  1  6  0  0  0
  3  9  1  0  0  0  0
  3 39  1  0  0  0  0
  5 10  1  0  0  0  0
  5 26  1  0  0  0  0
  5 32  1  6  0  0  0
  6 12  1  0  0  0  0
  6 36  1  0  0  0  0
  6 19  1  6  0  0  0
  7  8  1  6  0  0  0
  7 14  1  0  0  0  0
  9 16  1  0  0  0  0
 10 11  1  1  0  0  0
 10 18  1  0  0  0  0
 12 13  1  6  0  0  0
 12 20  1  0  0  0  0
 14 15  1  1  0  0  0
 14 22  1  0  0  0  0
 16 17  1  6  0  0  0
 16 24  1  0  0  0  0
 18 19  1  1  0  0  0
 18 25  1  0  0  0  0
 20 21  1  6  0  0  0
 20 27  1  0  0  0  0
 22 23  1  6  0  0  0
 22 29  1  0  0  0  0
 24  2  1  1  0  0  0
 24 31  1  0  0  0  0
 25 26  1  0  0  0  0
 25 33  1  6  0  0  0
 27 28  1  6  0  0  0
 27 35  1  0  0  0  0
 29 30  1  0  0  0  0
 29 37  1  1  0  0  0
 31 32  1  6  0  0  0
 31 39  1  0  0  0  0
 33 34  1  0  0  0  0
 35 36  1  0  0  0  0
 35 41  1  6  0  0  0
 37 38  1  0  0  0  0
 39 40  1  1  0  0  0
 41 42  1  0  0  0  0
M  END
>  <CHROM.1>
-162.89915467,46.75794195,170.70763927,-177.90738722,59.53672286,56.54738877
135.40158298,61.28272936,176.38260352,7.39735306,2.25508526,3.19931997,-1.90139981
0.41464706,2.83140277

>  <Name>
ligand

>  <RI>
0

>  <Rbt.Current_Directory>
/home/itssahil/PROJECTS/Mol_Feturizer/Test_systems_manuscript/rnas/2o3w

>  <Rbt.Executable>
rbdock ($Id: //depot/dev/client3/rdock/2013.1/src/exe/rbdock.cxx#4 $)

>  <Rbt.Library>
libRbt.so (2013.1, Build901 2013/11/27)

>  <Rbt.Parameter_File>
/export/apps/rDock/src/rDock_2013.1_src/data/scripts/dock_solv.prm

>  <Rbt.Receptor>
prm/pocket_docking_3.prm

>  <SCORE>
-4.91443

>  <SCORE.INTER>
4.42661

>  <SCORE.INTER.CONST>
1

>  <SCORE.INTER.POLAR>
0

>  <SCORE.INTER.ROT>
9

>  <SCORE.INTER.SOLV>
10.8404

>  <SCORE.INTER.VDW>
-10.2624

>  <SCORE.INTER.norm>
0.105395

>  <SCORE.INTRA>
-9.34351

>  <SCORE.INTRA.DIHEDRAL>
-18.9558

>  <SCORE.INTRA.DIHEDRAL.0>
27.8999

>  <SCORE.INTRA.POLAR>
0

>  <SCORE.INTRA.POLAR.0>
0

>  <SCORE.INTRA.REPUL>
0

>  <SCORE.INTRA.REPUL.0>
0

>  <SCORE.INTRA.SOLV>
-1.31553

>  <SCORE.INTRA.SOLV.lig_0>
-104.479

>  <SCORE.INTRA.VDW>
0.792132

>  <SCORE.INTRA.VDW.0>
-6.17816

>  <SCORE.INTRA.norm>
-0.222465

>  <SCORE.RESTR>
0.00247106

>  <SCORE.RESTR.CAVITY>
0.00247106

>  <SCORE.RESTR.norm>
5.88347e-05

>  <SCORE.SYSTEM>
0

>  <SCORE.SYSTEM.CONST>
0

>  <SCORE.SYSTEM.DIHEDRAL>
0

>  <SCORE.SYSTEM.SOLV>
0

>  <SCORE.SYSTEM.norm>
0

>  <SCORE.heavy>
42

>  <SCORE.norm>
-0.11701

>  <RMSD>
9.380

$$$$
ligand
 OpenBabel02271912133D
libRbt.so/2013.1/901 2013/11/27
 42 45  0  0  0  0  0  0  0  0999 V2000
    8.8255    3.7433    2.2992 C   0  0  2  0  0  0  0  0  0  0  0  0
    9.8805    4.7136    2.4126 O   0  0  0  0  0  0  0  0  0  0  0  0
   12.5527    5.5436    5.7241 C   0  0  2  0  0  0  0  0  0  0  0  0
   13.0880    5.9273    7.0645 N   0  0  0  0  0  0  0  0  0  0  0  0
    9.9595    1.6860    5.1867 C   0  0  1  0  0  0  0  0  0  0  0  0
    9.2809   -2.5540    6.3254 C   0  0  1  0  0  0  0  0  0  0  0  0
    8.5292    3.5688    0.7793 C   0  0  2  0  0  0  0  0  0  0  0  0
    9.7509    3.3338   -0.0099 N   0  0  0  0  0  0  0  0  0  0  0  0
   11.8679    6.7751    5.0055 C   0  0  0  0  0  0  0  0  0  0  0  0
    8.6946    1.1617    5.9323 C   0  0  2  0  0  0  0  0  0  0  0  0
    8.7077    1.4080    7.3600 O   0  0  0  0  0  0  0  0  0  0  0  0
   10.0068   -3.4016    7.4314 C   0  0  2  0  0  0  0  0  0  0  0  0
   11.4641   -3.0777    7.4809 N   0  0  0  0  0  0  0  0  0  0  0  0
    7.8388    4.8044    0.1730 C   0  0  1  0  0  0  0  0  0  0  0  0
    7.5510    4.5852   -1.2090 O   0  0  0  0  0  0  0  0  0  0  0  0
   11.3449    6.3150    3.5922 C   0  0  2  0  0  0  0  0  0  0  0  0
   10.7062    7.4549    2.8807 N   0  0  0  0  0  0  0  0  0  0  0  0
    8.6916   -0.3094    5.5140 C   0  0  2  0  0  0  0  0  0  0  0  0
    9.4517   -1.1368    6.4513 O   0  0  0  0  0  0  0  0  0  0  0  0
    9.7732   -4.9599    7.1417 C   0  0  1  0  0  0  0  0  0  0  0  0
    8.4080   -5.2976    7.4752 O   0  0  0  0  0  0  0  0  0  0  0  0
    6.5553    5.1226    0.9733 C   0  0  2  0  0  0  0  0  0  0  0  0
    5.9024    6.2416    0.4204 O   0  0  0  0  0  0  0  0  0  0  0  0
   10.3066    5.1336    3.7401 C   0  0  2  0  0  0  0  0  0  0  0  0
    9.3092   -0.3517    4.1061 C   0  0  2  0  0  0  0  0  0  0  0  0
   10.2238    0.7418    4.1238 O   0  0  0  0  0  0  0  0  0  0  0  0
   10.0675   -5.3604    5.6183 C   0  0  2  0  0  0  0  0  0  0  0  0
   11.4744   -5.2486    5.4075 O   0  0  0  0  0  0  0  0  0  0  0  0
    6.9380    5.3880    2.4676 C   0  0  2  0  0  0  0  0  0  0  0  0
    7.6222    4.2170    3.0156 O   0  0  0  0  0  0  0  0  0  0  0  0
   10.8902    3.9132    4.4853 C   0  0  2  0  0  0  0  0  0  0  0  0
    9.7638    3.0168    4.6909 O   0  0  0  0  0  0  0  0  0  0  0  0
    8.2880   -0.2104    2.9350 C   0  0  0  0  0  0  0  0  0  0  0  0
    7.3520   -1.2824    2.9951 O   0  0  0  0  0  0  0  0  0  0  0  0
    9.2911   -4.4071    4.6331 C   0  0  1  0  0  0  0  0  0  0  0  0
    9.7253   -3.0381    4.9611 O   0  0  0  0  0  0  0  0  0  0  0  0
    5.7365    5.7024    3.3285 C   0  0  0  0  0  0  0  0  0  0  0  0
    5.1616    6.9235    2.9314 O   0  0  0  0  0  0  0  0  0  0  0  0
   11.5112    4.3632    5.8737 C   0  0  1  0  0  0  0  0  0  0  0  0
   12.1838    3.2634    6.4930 O   0  0  0  0  0  0  0  0  0  0  0  0
    9.5532   -4.7131    3.0948 C   0  0  0  0  0  0  0  0  0  0  0  0
    9.0985   -6.0486    2.6192 N   0  0  0  0  0  0  0  0  0  0  0  0
  1  2  1  6  0  0  0
  1  7  1  0  0  0  0
  1 30  1  0  0  0  0
  3  4  1  1  0  0  0
  3  9  1  0  0  0  0
  3 39  1  0  0  0  0
  5 10  1  0  0  0  0
  5 26  1  0  0  0  0
  5 32  1  6  0  0  0
  6 12  1  0  0  0  0
  6 36  1  0  0  0  0
  6 19  1  1  0  0  0
  7  8  1  6  0  0  0
  7 14  1  0  0  0  0
  9 16  1  0  0  0  0
 10 11  1  1  0  0  0
 10 18  1  0  0  0  0
 12 13  1  6  0  0  0
 12 20  1  0  0  0  0
 14 15  1  6  0  0  0
 14 22  1  0  0  0  0
 16 17  1  1  0  0  0
 16 24  1  0  0  0  0
 18 19  1  1  0  0  0
 18 25  1  0  0  0  0
 20 21  1  6  0  0  0
 20 27  1  0  0  0  0
 22 23  1  6  0  0  0
 22 29  1  0  0  0  0
 24  2  1  6  0  0  0
 24 31  1  0  0  0  0
 25 26  1  0  0  0  0
 25 33  1  6  0  0  0
 27 28  1  6  0  0  0
 27 35  1  0  0  0  0
 29 30  1  0  0  0  0
 29 37  1  1  0  0  0
 31 32  1  1  0  0  0
 31 39  1  0  0  0  0
 33 34  1  0  0  0  0
 35 36  1  0  0  0  0
 35 41  1  6  0  0  0
 37 38  1  0  0  0  0
 39 40  1  6  0  0  0
 41 42  1  0  0  0  0
M  END
>  <CHROM.1>
176.29828399,-173.43506534,167.04464113,-174.59672373,-60.52000907,-65.83020613
170.97662822,153.63323446,63.46462329,9.33517416,1.50749564,4.13402941,1.72302418
-0.86465607,-0.19901294

>  <Name>
ligand

>  <RI>
0

>  <Rbt.Current_Directory>
/home/itssahil/PROJECTS/Mol_Feturizer/Test_systems_manuscript/rnas/2o3w

>  <Rbt.Executable>
rbdock ($Id: //depot/dev/client3/rdock/2013.1/src/exe/rbdock.cxx#4 $)

>  <Rbt.Library>
libRbt.so (2013.1, Build901 2013/11/27)

>  <Rbt.Parameter_File>
/export/apps/rDock/src/rDock_2013.1_src/data/scripts/dock_solv.prm

>  <Rbt.Receptor>
prm/pocket_docking_4.prm

>  <SCORE>
-7.91437

>  <SCORE.INTER>
4.1023

>  <SCORE.INTER.CONST>
1

>  <SCORE.INTER.POLAR>
0

>  <SCORE.INTER.ROT>
9

>  <SCORE.INTER.SOLV>
13.323

>  <SCORE.INTER.VDW>
-11.3061

>  <SCORE.INTER.norm>
0.0976737

>  <SCORE.INTRA>
-12.0167

>  <SCORE.INTRA.DIHEDRAL>
-23.0632

>  <SCORE.INTRA.DIHEDRAL.0>
27.8999

>  <SCORE.INTRA.POLAR>
0

>  <SCORE.INTRA.POLAR.0>
0

>  <SCORE.INTRA.REPUL>
0

>  <SCORE.INTRA.REPUL.0>
0

>  <SCORE.INTRA.SOLV>
-5.58535

>  <SCORE.INTRA.SOLV.lig_0>
-104.479

>  <SCORE.INTRA.VDW>
2.3076

>  <SCORE.INTRA.VDW.0>
-6.17816

>  <SCORE.INTRA.norm>
-0.286111

>  <SCORE.RESTR>
0

>  <SCORE.RESTR.CAVITY>
0

>  <SCORE.RESTR.norm>
0

>  <SCORE.SYSTEM>
0

>  <SCORE.SYSTEM.CONST>
0

>  <SCORE.SYSTEM.DIHEDRAL>
0

>  <SCORE.SYSTEM.SOLV>
0

>  <SCORE.SYSTEM.norm>
0

>  <SCORE.heavy>
42

>  <SCORE.norm>
-0.188437

>  <RMSD>
9.383

$$$$
ligand
 OpenBabel02271912133D
libRbt.so/2013.1/901 2013/11/27
 42 45  0  0  0  0  0  0  0  0999 V2000
    4.2190    3.7540    1.1104 C   0  0  2  0  0  0  0  0  0  0  0  0
    5.0300    3.9831   -0.0546 O   0  0  0  0  0  0  0  0  0  0  0  0
    9.3238    4.2436   -0.5941 C   0  0  2  0  0  0  0  0  0  0  0  0
   10.7568    4.6437   -0.4646 N   0  0  0  0  0  0  0  0  0  0  0  0
    7.2639    2.1594    2.9675 C   0  0  1  0  0  0  0  0  0  0  0  0
    7.7065   -1.0667    5.9717 C   0  0  1  0  0  0  0  0  0  0  0  0
    2.8027    3.3447    0.6056 C   0  0  2  0  0  0  0  0  0  0  0  0
    2.8520    2.2734   -0.4045 N   0  0  0  0  0  0  0  0  0  0  0  0
    8.4409    5.4389   -1.1358 C   0  0  0  0  0  0  0  0  0  0  0  0
    6.5123    2.1304    4.3331 C   0  0  2  0  0  0  0  0  0  0  0  0
    7.0951    2.9881    5.3449 O   0  0  0  0  0  0  0  0  0  0  0  0
    8.8911   -1.3638    6.9601 C   0  0  2  0  0  0  0  0  0  0  0  0
   10.2088   -1.1000    6.3081 N   0  0  0  0  0  0  0  0  0  0  0  0
    2.0468    4.5242   -0.0336 C   0  0  1  0  0  0  0  0  0  0  0  0
    0.7417    4.1141   -0.4450 O   0  0  0  0  0  0  0  0  0  0  0  0
    6.9490    4.9506   -1.2719 C   0  0  2  0  0  0  0  0  0  0  0  0
    6.0909    6.0481   -1.7941 N   0  0  0  0  0  0  0  0  0  0  0  0
    6.5240    0.6335    4.6470 C   0  0  2  0  0  0  0  0  0  0  0  0
    7.7092    0.2545    5.4166 O   0  0  0  0  0  0  0  0  0  0  0  0
    8.7918   -2.8817    7.4634 C   0  0  1  0  0  0  0  0  0  0  0  0
    7.6978   -2.9921    8.4014 O   0  0  0  0  0  0  0  0  0  0  0  0
    1.9795    5.6980    0.9698 C   0  0  2  0  0  0  0  0  0  0  0  0
    1.2758    6.7801    0.4057 O   0  0  0  0  0  0  0  0  0  0  0  0
    6.3936    4.4617    0.1239 C   0  0  2  0  0  0  0  0  0  0  0  0
    6.4888   -0.0854    3.2878 C   0  0  2  0  0  0  0  0  0  0  0  0
    7.1746    0.8210    2.4273 O   0  0  0  0  0  0  0  0  0  0  0  0
    8.5763   -3.9219    6.2638 C   0  0  2  0  0  0  0  0  0  0  0  0
    9.7845   -3.9614    5.5055 O   0  0  0  0  0  0  0  0  0  0  0  0
    3.4353    6.1252    1.3542 C   0  0  2  0  0  0  0  0  0  0  0  0
    4.1477    4.9836    1.9281 O   0  0  0  0  0  0  0  0  0  0  0  0
    7.2420    3.3293    0.7428 C   0  0  2  0  0  0  0  0  0  0  0  0
    6.7061    3.1381    2.0810 O   0  0  0  0  0  0  0  0  0  0  0  0
    5.0597   -0.4005    2.7468 C   0  0  0  0  0  0  0  0  0  0  0  0
    4.3727   -1.2240    3.6843 O   0  0  0  0  0  0  0  0  0  0  0  0
    7.3733   -3.4751    5.3499 C   0  0  1  0  0  0  0  0  0  0  0  0
    7.6982   -2.1169    4.8808 O   0  0  0  0  0  0  0  0  0  0  0  0
    3.4642    7.2688    2.3416 C   0  0  0  0  0  0  0  0  0  0  0  0
    2.8482    6.8846    3.5467 O   0  0  0  0  0  0  0  0  0  0  0  0
    8.7680    3.7575    0.8042 C   0  0  1  0  0  0  0  0  0  0  0  0
    9.5726    2.6563    1.2349 O   0  0  0  0  0  0  0  0  0  0  0  0
    7.1095   -4.4361    4.1108 C   0  0  0  0  0  0  0  0  0  0  0  0
    6.6720   -5.8179    4.4515 N   0  0  0  0  0  0  0  0  0  0  0  0
  1  2  1  6  0  0  0
  1  7  1  0  0  0  0
  1 30  1  0  0  0  0
  3  4  1  1  0  0  0
  3  9  1  0  0  0  0
  3 39  1  0  0  0  0
  5 10  1  0  0  0  0
  5 26  1  0  0  0  0
  5 32  1  6  0  0  0
  6 12  1  0  0  0  0
  6 36  1  0  0  0  0
  6 19  1  6  0  0  0
  7  8  1  6  0  0  0
  7 14  1  0  0  0  0
  9 16  1  0  0  0  0
 10 11  1  1  0  0  0
 10 18  1  0  0  0  0
 12 13  1  6  0  0  0
 12 20  1  0  0  0  0
 14 15  1  1  0  0  0
 14 22  1  0  0  0  0
 16 17  1  1  0  0  0
 16 24  1  0  0  0  0
 18 19  1  6  0  0  0
 18 25  1  0  0  0  0
 20 21  1  1  0  0  0
 20 27  1  0  0  0  0
 22 23  1  6  0  0  0
 22 29  1  0  0  0  0
 24  2  1  6  0  0  0
 24 31  1  0  0  0  0
 25 26  1  0  0  0  0
 25 33  1  6  0  0  0
 27 28  1  6  0  0  0
 27 35  1  0  0  0  0
 29 30  1  0  0  0  0
 29 37  1  1  0  0  0
 31 32  1  1  0  0  0
 31 39  1  0  0  0  0
 33 34  1  0  0  0  0
 35 36  1  0  0  0  0
 35 41  1  6  0  0  0
 37 38  1  0  0  0  0
 39 40  1  6  0  0  0
 41 42  1  0  0  0  0
M  END
>  <CHROM.1>
176.30053744,-166.93185308,169.10948120,-171.49982777,-59.08571178,62.20493613
-179.45609292,-179.32776988,65.07648149,6.25733886,1.82237359,2.67936541
1.95489413,0.11429047,-0.64278281

>  <Name>
ligand

>  <RI>
0

>  <Rbt.Current_Directory>
/home/itssahil/PROJECTS/Mol_Feturizer/Test_systems_manuscript/rnas/2o3w

>  <Rbt.Executable>
rbdock ($Id: //depot/dev/client3/rdock/2013.1/src/exe/rbdock.cxx#4 $)

>  <Rbt.Library>
libRbt.so (2013.1, Build901 2013/11/27)

>  <Rbt.Parameter_File>
/export/apps/rDock/src/rDock_2013.1_src/data/scripts/dock_solv.prm

>  <Rbt.Receptor>
prm/pocket_docking_6.prm

>  <SCORE>
-14.348

>  <SCORE.INTER>
-0.827355

>  <SCORE.INTER.CONST>
1

>  <SCORE.INTER.POLAR>
0

>  <SCORE.INTER.ROT>
9

>  <SCORE.INTER.SOLV>
15.5895

>  <SCORE.INTER.VDW>
-15.3481

>  <SCORE.INTER.norm>
-0.0196989

>  <SCORE.INTRA>
-13.5206

>  <SCORE.INTRA.DIHEDRAL>
-25.8482

>  <SCORE.INTRA.DIHEDRAL.0>
27.8999

>  <SCORE.INTRA.POLAR>
0

>  <SCORE.INTRA.POLAR.0>
0

>  <SCORE.INTRA.REPUL>
0

>  <SCORE.INTRA.REPUL.0>
0

>  <SCORE.INTRA.SOLV>
-5.5653

>  <SCORE.INTRA.SOLV.lig_0>
-104.479

>  <SCORE.INTRA.VDW>
2.1861

>  <SCORE.INTRA.VDW.0>
-6.17816

>  <SCORE.INTRA.norm>
-0.32192

>  <SCORE.RESTR>
0

>  <SCORE.RESTR.CAVITY>
0

>  <SCORE.RESTR.norm>
0

>  <SCORE.SYSTEM>
0

>  <SCORE.SYSTEM.CONST>
0

>  <SCORE.SYSTEM.DIHEDRAL>
0

>  <SCORE.SYSTEM.SOLV>
0

>  <SCORE.SYSTEM.norm>
0

>  <SCORE.heavy>
42

>  <SCORE.norm>
-0.341619

>  <RMSD>
9.385

$$$$
ligand
 OpenBabel02271912133D
libRbt.so/2013.1/901 2013/11/27
 42 45  0  0  0  0  0  0  0  0999 V2000
   10.6827    6.7243    3.8100 C   0  0  2  0  0  0  0  0  0  0  0  0
   10.1193    5.7418    4.6957 O   0  0  0  0  0  0  0  0  0  0  0  0
   13.7157    4.8564    6.9491 C   0  0  2  0  0  0  0  0  0  0  0  0
   14.7001    4.2177    7.8729 N   0  0  0  0  0  0  0  0  0  0  0  0
   11.3630    2.0498    4.5921 C   0  0  1  0  0  0  0  0  0  0  0  0
    9.6091   -1.6972    6.0263 C   0  0  1  0  0  0  0  0  0  0  0  0
    9.7658    7.9821    3.8833 C   0  0  2  0  0  0  0  0  0  0  0  0
    9.4919    8.4001    5.2693 N   0  0  0  0  0  0  0  0  0  0  0  0
   12.4743    5.4324    7.7422 C   0  0  0  0  0  0  0  0  0  0  0  0
   10.2527    2.0261    5.6864 C   0  0  2  0  0  0  0  0  0  0  0  0
   10.7505    2.2064    7.0350 O   0  0  0  0  0  0  0  0  0  0  0  0
    8.1546   -1.8143    6.6090 C   0  0  2  0  0  0  0  0  0  0  0  0
    8.1202   -1.4015    8.0441 N   0  0  0  0  0  0  0  0  0  0  0  0
    8.4002    7.7498    3.2108 C   0  0  1  0  0  0  0  0  0  0  0  0
    7.6097    8.9384    3.2666 O   0  0  0  0  0  0  0  0  0  0  0  0
   11.4858    6.1108    6.7199 C   0  0  2  0  0  0  0  0  0  0  0  0
   10.3107    6.6777    7.4349 N   0  0  0  0  0  0  0  0  0  0  0  0
    9.5838    0.6804    5.4018 C   0  0  2  0  0  0  0  0  0  0  0  0
   10.2055   -0.4017    6.1656 O   0  0  0  0  0  0  0  0  0  0  0  0
    7.6329   -3.3185    6.4302 C   0  0  1  0  0  0  0  0  0  0  0  0
    7.3235   -3.5431    5.0363 O   0  0  0  0  0  0  0  0  0  0  0  0
    8.6161    7.2834    1.7531 C   0  0  2  0  0  0  0  0  0  0  0  0
    7.3748    7.0823    1.1181 O   0  0  0  0  0  0  0  0  0  0  0  0
   10.9964    5.0656    5.6411 C   0  0  2  0  0  0  0  0  0  0  0  0
    9.7262    0.4473    3.8882 C   0  0  2  0  0  0  0  0  0  0  0  0
   10.9502    1.1080    3.5754 O   0  0  0  0  0  0  0  0  0  0  0  0
    8.6973   -4.4091    6.9254 C   0  0  2  0  0  0  0  0  0  0  0  0
    8.7823   -4.3139    8.3467 O   0  0  0  0  0  0  0  0  0  0  0  0
    9.4549    5.9620    1.7587 C   0  0  2  0  0  0  0  0  0  0  0  0
   10.7332    6.1937    2.4310 O   0  0  0  0  0  0  0  0  0  0  0  0
   12.1625    4.4175    4.8630 C   0  0  2  0  0  0  0  0  0  0  0  0
   11.5513    3.3685    4.0626 O   0  0  0  0  0  0  0  0  0  0  0  0
    8.5520    1.0020    3.0235 C   0  0  0  0  0  0  0  0  0  0  0  0
    7.3378    0.3708    3.4187 O   0  0  0  0  0  0  0  0  0  0  0  0
   10.1079   -4.1440    6.2757 C   0  0  1  0  0  0  0  0  0  0  0  0
   10.4788   -2.7683    6.6502 O   0  0  0  0  0  0  0  0  0  0  0  0
    9.7201    5.4356    0.3672 C   0  0  0  0  0  0  0  0  0  0  0  0
    9.9529    4.0488    0.4095 O   0  0  0  0  0  0  0  0  0  0  0  0
   13.2242    3.8084    5.8718 C   0  0  1  0  0  0  0  0  0  0  0  0
   14.3734    3.3444    5.1579 O   0  0  0  0  0  0  0  0  0  0  0  0
   11.2366   -5.1633    6.7401 C   0  0  0  0  0  0  0  0  0  0  0  0
   11.5430   -5.1622    8.1970 N   0  0  0  0  0  0  0  0  0  0  0  0
  1  2  1  1  0  0  0
  1  7  1  0  0  0  0
  1 30  1  0  0  0  0
  3  4  1  1  0  0  0
  3  9  1  0  0  0  0
  3 39  1  0  0  0  0
  5 10  1  0  0  0  0
  5 26  1  0  0  0  0
  5 32  1  6  0  0  0
  6 12  1  0  0  0  0
  6 36  1  0  0  0  0
  6 19  1  1  0  0  0
  7  8  1  1  0  0  0
  7 14  1  0  0  0  0
  9 16  1  0  0  0  0
 10 11  1  1  0  0  0
 10 18  1  0  0  0  0
 12 13  1  1  0  0  0
 12 20  1  0  0  0  0
 14 15  1  6  0  0  0
 14 22  1  0  0  0  0
 16 17  1  1  0  0  0
 16 24  1  0  0  0  0
 18 19  1  1  0  0  0
 18 25  1  0  0  0  0
 20 21  1  6  0  0  0
 20 27  1  0  0  0  0
 22 23  1  1  0  0  0
 22 29  1  0  0  0  0
 24  2  1  6  0  0  0
 24 31  1  0  0  0  0
 25 26  1  0  0  0  0
 25 33  1  6  0  0  0
 27 28  1  1  0  0  0
 27 35  1  0  0  0  0
 29 30  1  0  0  0  0
 29 37  1  6  0  0  0
 31 32  1  6  0  0  0
 31 39  1  0  0  0  0
 33 34  1  0  0  0  0
 35 36  1  0  0  0  0
 35 41  1  1  0  0  0
 37 38  1  0  0  0  0
 39 40  1  6  0  0  0
 41 42  1  0  0  0  0
M  END
>  <CHROM.1>
-131.74339585,68.19873500,176.85987773,-66.27590207,-60.29561830,-155.49427416
-87.60057694,70.57740401,-61.37134065,10.15756553,2.38076990,5.02423886,-1.50869246
0.75230411,2.79674748

>  <Name>
ligand

>  <RI>
0

>  <Rbt.Current_Directory>
/home/itssahil/PROJECTS/Mol_Feturizer/Test_systems_manuscript/rnas/2o3w

>  <Rbt.Executable>
rbdock ($Id: //depot/dev/client3/rdock/2013.1/src/exe/rbdock.cxx#4 $)

>  <Rbt.Library>
libRbt.so (2013.1, Build901 2013/11/27)

>  <Rbt.Parameter_File>
/export/apps/rDock/src/rDock_2013.1_src/data/scripts/dock_solv.prm

>  <Rbt.Receptor>
prm/pocket_docking_6.prm

>  <SCORE>
-5.34719

>  <SCORE.INTER>
0.289724

>  <SCORE.INTER.CONST>
1

>  <SCORE.INTER.POLAR>
0

>  <SCORE.INTER.ROT>
9

>  <SCORE.INTER.SOLV>
17.3153

>  <SCORE.INTER.VDW>
-15.1786

>  <SCORE.INTER.norm>
0.00689819

>  <SCORE.INTRA>
-5.64343

>  <SCORE.INTRA.DIHEDRAL>
-15.0604

>  <SCORE.INTRA.DIHEDRAL.0>
27.8999

>  <SCORE.INTRA.POLAR>
0

>  <SCORE.INTRA.POLAR.0>
0

>  <SCORE.INTRA.REPUL>
0

>  <SCORE.INTRA.REPUL.0>
0

>  <SCORE.INTRA.SOLV>
-0.479764

>  <SCORE.INTRA.SOLV.lig_0>
-104.479

>  <SCORE.INTRA.VDW>
2.12666

>  <SCORE.INTRA.VDW.0>
-6.17816

>  <SCORE.INTRA.norm>
-0.134367

>  <SCORE.RESTR>
0.00650817

>  <SCORE.RESTR.CAVITY>
0.00650817

>  <SCORE.RESTR.norm>
0.000154957

>  <SCORE.SYSTEM>
0

>  <SCORE.SYSTEM.CONST>
0

>  <SCORE.SYSTEM.DIHEDRAL>
0

>  <SCORE.SYSTEM.SOLV>
0

>  <SCORE.SYSTEM.norm>
0

>  <SCORE.heavy>
42

>  <SCORE.norm>
-0.127314

>  <RMSD>
9.386

$$$$
ligand
 OpenBabel02271912133D
libRbt.so/2013.1/901 2013/11/27
 42 45  0  0  0  0  0  0  0  0999 V2000
    6.9086    5.5907    2.8936 C   0  0  2  0  0  0  0  0  0  0  0  0
    7.3893    4.2736    2.5749 O   0  0  0  0  0  0  0  0  0  0  0  0
    6.6499    4.4112   -1.6948 C   0  0  2  0  0  0  0  0  0  0  0  0
    6.5770    4.0532   -3.1429 N   0  0  0  0  0  0  0  0  0  0  0  0
    6.1077    1.2471    1.4527 C   0  0  1  0  0  0  0  0  0  0  0  0
    6.9698   -3.0696    1.2379 C   0  0  1  0  0  0  0  0  0  0  0  0
    7.3088    5.8757    4.3724 C   0  0  2  0  0  0  0  0  0  0  0  0
    8.7306    5.5933    4.6361 N   0  0  0  0  0  0  0  0  0  0  0  0
    8.1500    4.5174   -1.2046 C   0  0  0  0  0  0  0  0  0  0  0  0
    5.3924    0.1926    2.3511 C   0  0  2  0  0  0  0  0  0  0  0  0
    5.9092    0.1222    3.7027 O   0  0  0  0  0  0  0  0  0  0  0  0
    8.2369   -3.8587    1.7281 C   0  0  2  0  0  0  0  0  0  0  0  0
    9.4758   -3.0445    1.5461 N   0  0  0  0  0  0  0  0  0  0  0  0
    6.4951    5.0320    5.3709 C   0  0  1  0  0  0  0  0  0  0  0  0
    6.8663    5.3539    6.7124 O   0  0  0  0  0  0  0  0  0  0  0  0
    8.1617    4.9182    0.3191 C   0  0  2  0  0  0  0  0  0  0  0  0
    9.5605    5.0415    0.8109 N   0  0  0  0  0  0  0  0  0  0  0  0
    5.5591   -1.0749    1.5114 C   0  0  2  0  0  0  0  0  0  0  0  0
    6.7924   -1.7859    1.8495 O   0  0  0  0  0  0  0  0  0  0  0  0
    8.3373   -5.2452    0.9316 C   0  0  1  0  0  0  0  0  0  0  0  0
    7.3203   -6.1440    1.4283 O   0  0  0  0  0  0  0  0  0  0  0  0
    4.9857    5.2638    5.1318 C   0  0  2  0  0  0  0  0  0  0  0  0
    4.2269    4.5110    6.0494 O   0  0  0  0  0  0  0  0  0  0  0  0
    7.3887    3.8451    1.1833 C   0  0  2  0  0  0  0  0  0  0  0  0
    5.5658   -0.6142    0.0441 C   0  0  2  0  0  0  0  0  0  0  0  0
    6.1397    0.6886    0.1193 O   0  0  0  0  0  0  0  0  0  0  0  0
    8.1679   -5.0666   -0.6517 C   0  0  2  0  0  0  0  0  0  0  0  0
    9.3256   -4.3865   -1.1350 O   0  0  0  0  0  0  0  0  0  0  0  0
    4.6340    4.8606    3.6610 C   0  0  2  0  0  0  0  0  0  0  0  0
    5.4406    5.6481    2.7288 O   0  0  0  0  0  0  0  0  0  0  0  0
    5.9276    3.6460    0.7239 C   0  0  2  0  0  0  0  0  0  0  0  0
    5.4366    2.5133    1.4922 O   0  0  0  0  0  0  0  0  0  0  0  0
    4.1635   -0.5713   -0.6386 C   0  0  0  0  0  0  0  0  0  0  0  0
    3.3526    0.4016    0.0130 O   0  0  0  0  0  0  0  0  0  0  0  0
    6.8703   -4.2363   -0.9817 C   0  0  1  0  0  0  0  0  0  0  0  0
    7.0135   -2.9537   -0.2713 O   0  0  0  0  0  0  0  0  0  0  0  0
    3.1718    5.0622    3.3367 C   0  0  0  0  0  0  0  0  0  0  0  0
    2.8253    6.4180    3.4818 O   0  0  0  0  0  0  0  0  0  0  0  0
    5.8785    3.3347   -0.8306 C   0  0  1  0  0  0  0  0  0  0  0  0
    4.5226    3.3007   -1.2843 O   0  0  0  0  0  0  0  0  0  0  0  0
    6.6417   -3.9819   -2.5347 C   0  0  0  0  0  0  0  0  0  0  0  0
    7.7366   -3.2552   -3.2344 N   0  0  0  0  0  0  0  0  0  0  0  0
  1  2  1  1  0  0  0
  1  7  1  0  0  0  0
  1 30  1  0  0  0  0
  3  4  1  6  0  0  0
  3  9  1  0  0  0  0
  3 39  1  0  0  0  0
  5 10  1  0  0  0  0
  5 26  1  0  0  0  0
  5 32  1  6  0  0  0
  6 12  1  0  0  0  0
  6 36  1  0  0  0  0
  6 19  1  1  0  0  0
  7  8  1  6  0  0  0
  7 14  1  0  0  0  0
  9 16  1  0  0  0  0
 10 11  1  1  0  0  0
 10 18  1  0  0  0  0
 12 13  1  6  0  0  0
 12 20  1  0  0  0  0
 14 15  1  1  0  0  0
 14 22  1  0  0  0  0
 16 17  1  1  0  0  0
 16 24  1  0  0  0  0
 18 19  1  1  0  0  0
 18 25  1  0  0  0  0
 20 21  1  1  0  0  0
 20 27  1  0  0  0  0
 22 23  1  1  0  0  0
 22 29  1  0  0  0  0
 24  2  1  1  0  0  0
 24 31  1  0  0  0  0
 25 26  1  0  0  0  0
 25 33  1  1  0  0  0
 27 28  1  1  0  0  0
 27 35  1  0  0  0  0
 29 30  1  0  0  0  0
 29 37  1  6  0  0  0
 31 32  1  1  0  0  0
 31 39  1  0  0  0  0
 33 34  1  0  0  0  0
 35 36  1  0  0  0  0
 35 41  1  6  0  0  0
 37 38  1  0  0  0  0
 39 40  1  6  0  0  0
 41 42  1  0  0  0  0
M  END
>  <CHROM.1>
-168.10319071,53.56980934,172.78462506,-174.53612488,64.10876065,60.82006677
-56.51356786,-179.78445602,-58.89211116,6.45225862,1.34145748,1.35189456
3.13132774,-1.41188720,1.94028853

>  <Name>
ligand

>  <RI>
0

>  <Rbt.Current_Directory>
/home/itssahil/PROJECTS/Mol_Feturizer/Test_systems_manuscript/rnas/2o3w

>  <Rbt.Executable>
rbdock ($Id: //depot/dev/client3/rdock/2013.1/src/exe/rbdock.cxx#4 $)

>  <Rbt.Library>
libRbt.so (2013.1, Build901 2013/11/27)

>  <Rbt.Parameter_File>
/export/apps/rDock/src/rDock_2013.1_src/data/scripts/dock_solv.prm

>  <Rbt.Receptor>
prm/pocket_docking_8.prm

>  <SCORE>
-10.4166

>  <SCORE.INTER>
1.65332

>  <SCORE.INTER.CONST>
1

>  <SCORE.INTER.POLAR>
0

>  <SCORE.INTER.ROT>
9

>  <SCORE.INTER.SOLV>
12.8747

>  <SCORE.INTER.VDW>
-12.7894

>  <SCORE.INTER.norm>
0.0393648

>  <SCORE.INTRA>
-12.0699

>  <SCORE.INTRA.DIHEDRAL>
-26.3529

>  <SCORE.INTRA.DIHEDRAL.0>
27.8999

>  <SCORE.INTRA.POLAR>
0

>  <SCORE.INTRA.POLAR.0>
0

>  <SCORE.INTRA.REPUL>
0

>  <SCORE.INTRA.REPUL.0>
0

>  <SCORE.INTRA.SOLV>
-2.03003

>  <SCORE.INTRA.SOLV.lig_0>
-104.479

>  <SCORE.INTRA.VDW>
2.12153

>  <SCORE.INTRA.VDW.0>
-6.17816

>  <SCORE.INTRA.norm>
-0.28738

>  <SCORE.RESTR>
0

>  <SCORE.RESTR.CAVITY>
0

>  <SCORE.RESTR.norm>
0

>  <SCORE.SYSTEM>
0

>  <SCORE.SYSTEM.CONST>
0

>  <SCORE.SYSTEM.DIHEDRAL>
0

>  <SCORE.SYSTEM.SOLV>
0

>  <SCORE.SYSTEM.norm>
0

>  <SCORE.heavy>
42

>  <SCORE.norm>
-0.248015

>  <RMSD>
9.397

$$$$
ligand
 OpenBabel02271912133D
libRbt.so/2013.1/901 2013/11/27
 42 45  0  0  0  0  0  0  0  0999 V2000
    7.6589    2.8591    3.4201 C   0  0  2  0  0  0  0  0  0  0  0  0
    8.6323    3.8986    3.2218 O   0  0  0  0  0  0  0  0  0  0  0  0
   12.6137    4.0919    4.9267 C   0  0  2  0  0  0  0  0  0  0  0  0
   13.7509    4.2374    5.8838 N   0  0  0  0  0  0  0  0  0  0  0  0
    9.7222    0.5018    5.3616 C   0  0  1  0  0  0  0  0  0  0  0  0
    9.4596   -3.8341    6.0417 C   0  0  1  0  0  0  0  0  0  0  0  0
    6.6253    2.9762    2.2599 C   0  0  2  0  0  0  0  0  0  0  0  0
    7.2692    3.0552    0.9371 N   0  0  0  0  0  0  0  0  0  0  0  0
   11.8103    5.4464    4.7797 C   0  0  0  0  0  0  0  0  0  0  0  0
    8.6333   -0.1404    6.2742 C   0  0  2  0  0  0  0  0  0  0  0  0
    8.9149   -0.0345    7.6915 O   0  0  0  0  0  0  0  0  0  0  0  0
   10.3573   -4.7773    6.9211 C   0  0  2  0  0  0  0  0  0  0  0  0
   11.7793   -4.3204    6.9127 N   0  0  0  0  0  0  0  0  0  0  0  0
    5.7334    4.2240    2.3956 C   0  0  1  0  0  0  0  0  0  0  0  0
    4.7771    4.2695    1.3353 O   0  0  0  0  0  0  0  0  0  0  0  0
   10.6416    5.2367    3.7440 C   0  0  2  0  0  0  0  0  0  0  0  0
    9.8720    6.4981    3.5699 N   0  0  0  0  0  0  0  0  0  0  0  0
    8.5779   -1.5627    5.7145 C   0  0  2  0  0  0  0  0  0  0  0  0
    9.5186   -2.4482    6.4014 O   0  0  0  0  0  0  0  0  0  0  0  0
   10.2326   -6.2805    6.3809 C   0  0  1  0  0  0  0  0  0  0  0  0
    8.9393   -6.8058    6.7556 O   0  0  0  0  0  0  0  0  0  0  0  0
    5.0428    4.2162    3.7785 C   0  0  2  0  0  0  0  0  0  0  0  0
    4.2092    5.3439    3.9120 O   0  0  0  0  0  0  0  0  0  0  0  0
    9.6716    4.0859    4.2243 C   0  0  2  0  0  0  0  0  0  0  0  0
    8.9153   -1.4438    4.2187 C   0  0  2  0  0  0  0  0  0  0  0  0
    9.7957   -0.3233    4.1763 O   0  0  0  0  0  0  0  0  0  0  0  0
   10.4150   -6.3877    4.7926 C   0  0  2  0  0  0  0  0  0  0  0  0
   11.7808   -6.1002    4.4953 O   0  0  0  0  0  0  0  0  0  0  0  0
    6.1383    4.2027    4.8962 C   0  0  2  0  0  0  0  0  0  0  0  0
    6.9957    3.0292    4.7305 O   0  0  0  0  0  0  0  0  0  0  0  0
   10.3998    2.7418    4.4442 C   0  0  2  0  0  0  0  0  0  0  0  0
    9.4104    1.8663    5.0516 O   0  0  0  0  0  0  0  0  0  0  0  0
    7.6864   -1.2277    3.2820 C   0  0  0  0  0  0  0  0  0  0  0  0
    7.0012   -0.0411    3.6711 O   0  0  0  0  0  0  0  0  0  0  0  0
    9.4696   -5.3664    4.0543 C   0  0  1  0  0  0  0  0  0  0  0  0
    9.8131   -4.0350    4.5831 O   0  0  0  0  0  0  0  0  0  0  0  0
    5.5492    4.1879    6.2877 C   0  0  0  0  0  0  0  0  0  0  0  0
    4.9428    2.9447    6.5443 O   0  0  0  0  0  0  0  0  0  0  0  0
   11.6419    2.9420    5.4101 C   0  0  1  0  0  0  0  0  0  0  0  0
   12.4024    1.7335    5.4927 O   0  0  0  0  0  0  0  0  0  0  0  0
    9.6105   -5.3818    2.4704 C   0  0  0  0  0  0  0  0  0  0  0  0
   10.9604   -5.0420    1.9424 N   0  0  0  0  0  0  0  0  0  0  0  0
  1  2  1  6  0  0  0
  1  7  1  0  0  0  0
  1 30  1  0  0  0  0
  3  4  1  1  0  0  0
  3  9  1  0  0  0  0
  3 39  1  0  0  0  0
  5 10  1  0  0  0  0
  5 26  1  0  0  0  0
  5 32  1  6  0  0  0
  6 12  1  0  0  0  0
  6 36  1  0  0  0  0
  6 19  1  1  0  0  0
  7  8  1  6  0  0  0
  7 14  1  0  0  0  0
  9 16  1  0  0  0  0
 10 11  1  1  0  0  0
 10 18  1  0  0  0  0
 12 13  1  6  0  0  0
 12 20  1  0  0  0  0
 14 15  1  6  0  0  0
 14 22  1  0  0  0  0
 16 17  1  1  0  0  0
 16 24  1  0  0  0  0
 18 19  1  1  0  0  0
 18 25  1  0  0  0  0
 20 21  1  6  0  0  0
 20 27  1  0  0  0  0
 22 23  1  1  0  0  0
 22 29  1  0  0  0  0
 24  2  1  6  0  0  0
 24 31  1  0  0  0  0
 25 26  1  0  0  0  0
 25 33  1  6  0  0  0
 27 28  1  1  0  0  0
 27 35  1  0  0  0  0
 29 30  1  0  0  0  0
 29 37  1  1  0  0  0
 31 32  1  1  0  0  0
 31 39  1  0  0  0  0
 33 34  1  0  0  0  0
 35 36  1  0  0  0  0
 35 41  1  6  0  0  0
 37 38  1  0  0  0  0
 39 40  1  6  0  0  0
 41 42  1  0  0  0  0
M  END
>  <CHROM.1>
175.55485426,177.53784928,174.31998201,-172.88540886,58.58401725,69.99016701
177.93649711,167.61503391,-60.51033733,8.95407987,0.44364867,4.61348781,1.84403397
-0.26963359,-0.06407912

>  <Name>
ligand

>  <RI>
0

>  <Rbt.Current_Directory>
/home/itssahil/PROJECTS/Mol_Feturizer/Test_systems_manuscript/rnas/2o3w

>  <Rbt.Executable>
rbdock ($Id: //depot/dev/client3/rdock/2013.1/src/exe/rbdock.cxx#4 $)

>  <Rbt.Library>
libRbt.so (2013.1, Build901 2013/11/27)

>  <Rbt.Parameter_File>
/export/apps/rDock/src/rDock_2013.1_src/data/scripts/dock_solv.prm

>  <Rbt.Receptor>
prm/pocket_docking_4.prm

>  <SCORE>
-9.3615

>  <SCORE.INTER>
2.74949

>  <SCORE.INTER.CONST>
1

>  <SCORE.INTER.POLAR>
0

>  <SCORE.INTER.ROT>
9

>  <SCORE.INTER.SOLV>
9.2664

>  <SCORE.INTER.VDW>
-10.8558

>  <SCORE.INTER.norm>
0.065464

>  <SCORE.INTRA>
-12.111

>  <SCORE.INTRA.DIHEDRAL>
-26.1035

>  <SCORE.INTRA.DIHEDRAL.0>
27.8999

>  <SCORE.INTRA.POLAR>
0

>  <SCORE.INTRA.POLAR.0>
0

>  <SCORE.INTRA.REPUL>
0

>  <SCORE.INTRA.REPUL.0>
0

>  <SCORE.INTRA.SOLV>
-3.43397

>  <SCORE.INTRA.SOLV.lig_0>
-104.479

>  <SCORE.INTRA.VDW>
2.65776

>  <SCORE.INTRA.VDW.0>
-6.17816

>  <SCORE.INTRA.norm>
-0.288357

>  <SCORE.RESTR>
0

>  <SCORE.RESTR.CAVITY>
0

>  <SCORE.RESTR.norm>
0

>  <SCORE.SYSTEM>
0

>  <SCORE.SYSTEM.CONST>
0

>  <SCORE.SYSTEM.DIHEDRAL>
0

>  <SCORE.SYSTEM.SOLV>
0

>  <SCORE.SYSTEM.norm>
0

>  <SCORE.heavy>
42

>  <SCORE.norm>
-0.222893

>  <RMSD>
9.402

$$$$
ligand
 OpenBabel02271912133D
libRbt.so/2013.1/901 2013/11/27
 42 45  0  0  0  0  0  0  0  0999 V2000
    7.7102    6.8396    2.5464 C   0  0  2  0  0  0  0  0  0  0  0  0
    6.7525    5.8085    2.2515 O   0  0  0  0  0  0  0  0  0  0  0  0
    7.3840    1.5194    2.2611 C   0  0  2  0  0  0  0  0  0  0  0  0
    7.8503    0.1446    1.9102 N   0  0  0  0  0  0  0  0  0  0  0  0
   10.4630    4.6332    3.7411 C   0  0  1  0  0  0  0  0  0  0  0  0
   13.5375    5.1184    6.7912 C   0  0  1  0  0  0  0  0  0  0  0  0
    6.9122    8.0552    3.1064 C   0  0  2  0  0  0  0  0  0  0  0  0
    5.9805    7.6712    4.1812 N   0  0  0  0  0  0  0  0  0  0  0  0
    6.4743    2.1260    1.1181 C   0  0  0  0  0  0  0  0  0  0  0  0
   11.4523    5.8376    3.7036 C   0  0  2  0  0  0  0  0  0  0  0  0
   12.5324    5.6836    2.7505 O   0  0  0  0  0  0  0  0  0  0  0  0
   14.9471    4.4527    6.9879 C   0  0  2  0  0  0  0  0  0  0  0  0
   14.9517    3.0509    6.4722 N   0  0  0  0  0  0  0  0  0  0  0  0
    6.0742    8.7545    2.0203 C   0  0  1  0  0  0  0  0  0  0  0  0
    5.3923    9.8839    2.5683 O   0  0  0  0  0  0  0  0  0  0  0  0
    5.9967    3.5627    1.5546 C   0  0  2  0  0  0  0  0  0  0  0  0
    5.1249    4.1587    0.5067 N   0  0  0  0  0  0  0  0  0  0  0  0
   11.8719    5.9231    5.1719 C   0  0  2  0  0  0  0  0  0  0  0  0
   13.0532    5.1034    5.4425 O   0  0  0  0  0  0  0  0  0  0  0  0
   15.3402    4.4961    8.5404 C   0  0  1  0  0  0  0  0  0  0  0  0
   15.6927    5.8521    8.8954 O   0  0  0  0  0  0  0  0  0  0  0  0
    6.9914    9.1643    0.8455 C   0  0  2  0  0  0  0  0  0  0  0  0
    6.2420    9.8210   -0.1502 O   0  0  0  0  0  0  0  0  0  0  0  0
    7.2365    4.5071    1.8129 C   0  0  2  0  0  0  0  0  0  0  0  0
   10.6606    5.4416    5.9883 C   0  0  2  0  0  0  0  0  0  0  0  0
   10.0415    4.4975    5.1177 O   0  0  0  0  0  0  0  0  0  0  0  0
   14.1610    3.9813    9.4953 C   0  0  2  0  0  0  0  0  0  0  0  0
   14.0189    2.5769    9.2859 O   0  0  0  0  0  0  0  0  0  0  0  0
    7.6805    7.8845    0.2653 C   0  0  2  0  0  0  0  0  0  0  0  0
    8.4436    7.2160    1.3192 O   0  0  0  0  0  0  0  0  0  0  0  0
    8.2023    3.9489    2.8811 C   0  0  2  0  0  0  0  0  0  0  0  0
    9.3550    4.8351    2.8542 O   0  0  0  0  0  0  0  0  0  0  0  0
    9.6588    6.5634    6.4034 C   0  0  0  0  0  0  0  0  0  0  0  0
   10.3523    7.5628    7.1444 O   0  0  0  0  0  0  0  0  0  0  0  0
   12.8113    4.7218    9.1604 C   0  0  1  0  0  0  0  0  0  0  0  0
   12.5476    4.4665    7.7336 O   0  0  0  0  0  0  0  0  0  0  0  0
    8.6052    8.1946   -0.8891 C   0  0  0  0  0  0  0  0  0  0  0  0
    7.8718    8.7132   -1.9719 O   0  0  0  0  0  0  0  0  0  0  0  0
    8.6257    2.4646    2.5163 C   0  0  1  0  0  0  0  0  0  0  0  0
    9.3962    1.8960    3.5787 O   0  0  0  0  0  0  0  0  0  0  0  0
   11.5758    4.2462   10.0413 C   0  0  0  0  0  0  0  0  0  0  0  0
   10.2805    4.9188    9.7471 N   0  0  0  0  0  0  0  0  0  0  0  0
  1  2  1  6  0  0  0
  1  7  1  0  0  0  0
  1 30  1  0  0  0  0
  3  4  1  6  0  0  0
  3  9  1  0  0  0  0
  3 39  1  0  0  0  0
  5 10  1  0  0  0  0
  5 26  1  0  0  0  0
  5 32  1  6  0  0  0
  6 12  1  0  0  0  0
  6 36  1  0  0  0  0
  6 19  1  6  0  0  0
  7  8  1  1  0  0  0
  7 14  1  0  0  0  0
  9 16  1  0  0  0  0
 10 11  1  6  0  0  0
 10 18  1  0  0  0  0
 12 13  1  1  0  0  0
 12 20  1  0  0  0  0
 14 15  1  1  0  0  0
 14 22  1  0  0  0  0
 16 17  1  6  0  0  0
 16 24  1  0  0  0  0
 18 19  1  6  0  0  0
 18 25  1  0  0  0  0
 20 21  1  1  0  0  0
 20 27  1  0  0  0  0
 22 23  1  6  0  0  0
 22 29  1  0  0  0  0
 24  2  1  1  0  0  0
 24 31  1  0  0  0  0
 25 26  1  0  0  0  0
 25 33  1  6  0  0  0
 27 28  1  6  0  0  0
 27 35  1  0  0  0  0
 29 30  1  0  0  0  0
 29 37  1  6  0  0  0
 31 32  1  6  0  0  0
 31 39  1  0  0  0  0
 33 34  1  0  0  0  0
 35 36  1  0  0  0  0
 35 41  1  1  0  0  0
 37 38  1  0  0  0  0
 39 40  1  1  0  0  0
 41 42  1  0  0  0  0
M  END
>  <CHROM.1>
-174.99271331,-179.91380981,179.61272464,-169.08062390,-56.98339741,-64.11667210
179.06209419,-170.01010105,-179.65476259,9.78022765,5.41809461,4.17768650
-2.90354450,0.82045548,-3.13335576

>  <Name>
ligand

>  <RI>
0

>  <Rbt.Current_Directory>
/home/itssahil/PROJECTS/Mol_Feturizer/Test_systems_manuscript/rnas/2o3w

>  <Rbt.Executable>
rbdock ($Id: //depot/dev/client3/rdock/2013.1/src/exe/rbdock.cxx#4 $)

>  <Rbt.Library>
libRbt.so (2013.1, Build901 2013/11/27)

>  <Rbt.Parameter_File>
/export/apps/rDock/src/rDock_2013.1_src/data/scripts/dock_solv.prm

>  <Rbt.Receptor>
prm/pocket_docking_6.prm

>  <SCORE>
-11.4158

>  <SCORE.INTER>
0.679585

>  <SCORE.INTER.CONST>
1

>  <SCORE.INTER.POLAR>
0

>  <SCORE.INTER.ROT>
9

>  <SCORE.INTER.SOLV>
16.6312

>  <SCORE.INTER.VDW>
-14.6907

>  <SCORE.INTER.norm>
0.0161806

>  <SCORE.INTRA>
-12.0953

>  <SCORE.INTRA.DIHEDRAL>
-26.4889

>  <SCORE.INTRA.DIHEDRAL.0>
27.8999

>  <SCORE.INTRA.POLAR>
0

>  <SCORE.INTRA.POLAR.0>
0

>  <SCORE.INTRA.REPUL>
0

>  <SCORE.INTRA.REPUL.0>
0

>  <SCORE.INTRA.SOLV>
-4.10561

>  <SCORE.INTRA.SOLV.lig_0>
-104.479

>  <SCORE.INTRA.VDW>
3.2019

>  <SCORE.INTRA.VDW.0>
-6.17816

>  <SCORE.INTRA.norm>
-0.287984

>  <SCORE.RESTR>
0

>  <SCORE.RESTR.CAVITY>
0

>  <SCORE.RESTR.norm>
0

>  <SCORE.SYSTEM>
0

>  <SCORE.SYSTEM.CONST>
0

>  <SCORE.SYSTEM.DIHEDRAL>
0

>  <SCORE.SYSTEM.SOLV>
0

>  <SCORE.SYSTEM.norm>
0

>  <SCORE.heavy>
42

>  <SCORE.norm>
-0.271804

>  <RMSD>
9.424

$$$$
ligand
 OpenBabel02271912133D
libRbt.so/2013.1/901 2013/11/27
 42 45  0  0  0  0  0  0  0  0999 V2000
    3.9483    4.7671    0.5839 C   0  0  2  0  0  0  0  0  0  0  0  0
    5.0104    5.2467   -0.2584 O   0  0  0  0  0  0  0  0  0  0  0  0
    9.3321    5.3175    0.0791 C   0  0  2  0  0  0  0  0  0  0  0  0
   10.7201    5.4919    0.6018 N   0  0  0  0  0  0  0  0  0  0  0  0
    6.7431    2.2370    2.1706 C   0  0  1  0  0  0  0  0  0  0  0  0
    7.4636   -1.0407    5.0314 C   0  0  1  0  0  0  0  0  0  0  0  0
    2.6090    5.2271   -0.0662 C   0  0  2  0  0  0  0  0  0  0  0  0
    2.5356    4.8966   -1.5001 N   0  0  0  0  0  0  0  0  0  0  0  0
    8.5800    6.7050   -0.0266 C   0  0  0  0  0  0  0  0  0  0  0  0
    7.0550    2.4765    3.6793 C   0  0  2  0  0  0  0  0  0  0  0  0
    8.4254    2.8657    3.9432 O   0  0  0  0  0  0  0  0  0  0  0  0
    8.7499   -1.8703    5.3865 C   0  0  2  0  0  0  0  0  0  0  0  0
    9.5537   -2.1588    4.1612 N   0  0  0  0  0  0  0  0  0  0  0  0
    2.3942    6.7473    0.0513 C   0  0  1  0  0  0  0  0  0  0  0  0
    1.1389    7.1180   -0.5212 O   0  0  0  0  0  0  0  0  0  0  0  0
    7.1344    6.4593   -0.6031 C   0  0  2  0  0  0  0  0  0  0  0  0
    6.4019    7.7481   -0.7297 N   0  0  0  0  0  0  0  0  0  0  0  0
    6.6159    1.1441    4.2884 C   0  0  2  0  0  0  0  0  0  0  0  0
    7.7170    0.1813    4.3271 O   0  0  0  0  0  0  0  0  0  0  0  0
    8.3181   -3.2255    6.1239 C   0  0  1  0  0  0  0  0  0  0  0  0
    7.8892   -2.9102    7.4676 O   0  0  0  0  0  0  0  0  0  0  0  0
    2.4833    7.1673    1.5362 C   0  0  2  0  0  0  0  0  0  0  0  0
    2.2721    8.5544    1.6626 O   0  0  0  0  0  0  0  0  0  0  0  0
    6.3220    5.4773    0.3305 C   0  0  2  0  0  0  0  0  0  0  0  0
    5.4613    0.6352    3.4090 C   0  0  2  0  0  0  0  0  0  0  0  0
    5.7854    1.1546    2.1215 O   0  0  0  0  0  0  0  0  0  0  0  0
    7.1471   -4.0052    5.3567 C   0  0  2  0  0  0  0  0  0  0  0  0
    7.6933   -4.5147    4.1408 O   0  0  0  0  0  0  0  0  0  0  0  0
    3.8895    6.7687    2.0960 C   0  0  2  0  0  0  0  0  0  0  0  0
    4.0886    5.3274    1.9448 O   0  0  0  0  0  0  0  0  0  0  0  0
    7.0265    4.1169    0.5261 C   0  0  2  0  0  0  0  0  0  0  0  0
    6.2475    3.4258    1.5410 O   0  0  0  0  0  0  0  0  0  0  0  0
    4.0397    1.0951    3.8582 C   0  0  0  0  0  0  0  0  0  0  0  0
    3.7216    0.4880    5.1069 O   0  0  0  0  0  0  0  0  0  0  0  0
    5.9428   -3.0369    5.0499 C   0  0  1  0  0  0  0  0  0  0  0  0
    6.5027   -1.9239    4.2636 O   0  0  0  0  0  0  0  0  0  0  0  0
    4.0622    7.1384    3.5511 C   0  0  0  0  0  0  0  0  0  0  0  0
    4.8140    8.3221    3.6647 O   0  0  0  0  0  0  0  0  0  0  0  0
    8.5189    4.3370    1.0160 C   0  0  1  0  0  0  0  0  0  0  0  0
    9.2158    3.0886    1.0512 O   0  0  0  0  0  0  0  0  0  0  0  0
    4.7464   -3.7222    4.2577 C   0  0  0  0  0  0  0  0  0  0  0  0
    4.1196   -4.8940    4.9289 N   0  0  0  0  0  0  0  0  0  0  0  0
  1  2  1  6  0  0  0
  1  7  1  0  0  0  0
  1 30  1  0  0  0  0
  3  4  1  1  0  0  0
  3  9  1  0  0  0  0
  3 39  1  0  0  0  0
  5 10  1  0  0  0  0
  5 26  1  0  0  0  0
  5 32  1  1  0  0  0
  6 12  1  0  0  0  0
  6 36  1  0  0  0  0
  6 19  1  6  0  0  0
  7  8  1  6  0  0  0
  7 14  1  0  0  0  0
  9 16  1  0  0  0  0
 10 11  1  6  0  0  0
 10 18  1  0  0  0  0
 12 13  1  6  0  0  0
 12 20  1  0  0  0  0
 14 15  1  1  0  0  0
 14 22  1  0  0  0  0
 16 17  1  1  0  0  0
 16 24  1  0  0  0  0
 18 19  1  6  0  0  0
 18 25  1  0  0  0  0
 20 21  1  1  0  0  0
 20 27  1  0  0  0  0
 22 23  1  6  0  0  0
 22 29  1  0  0  0  0
 24  2  1  6  0  0  0
 24 31  1  0  0  0  0
 25 26  1  0  0  0  0
 25 33  1  1  0  0  0
 27 28  1  6  0  0  0
 27 35  1  0  0  0  0
 29 30  1  0  0  0  0
 29 37  1  1  0  0  0
 31 32  1  1  0  0  0
 31 39  1  0  0  0  0
 33 34  1  0  0  0  0
 35 36  1  0  0  0  0
 35 41  1  6  0  0  0
 37 38  1  0  0  0  0
 39 40  1  6  0  0  0
 41 42  1  0  0  0  0
M  END
>  <CHROM.1>
154.33549615,-159.67653575,172.37710850,-164.36497812,-67.18053665,-100.77976471
-167.85930384,112.58435857,58.91387453,5.99331808,2.58141505,2.53480337,1.80634900
0.08505484,-0.46491246

>  <Name>
ligand

>  <RI>
0

>  <Rbt.Current_Directory>
/home/itssahil/PROJECTS/Mol_Feturizer/Test_systems_manuscript/rnas/2o3w

>  <Rbt.Executable>
rbdock ($Id: //depot/dev/client3/rdock/2013.1/src/exe/rbdock.cxx#4 $)

>  <Rbt.Library>
libRbt.so (2013.1, Build901 2013/11/27)

>  <Rbt.Parameter_File>
/export/apps/rDock/src/rDock_2013.1_src/data/scripts/dock_solv.prm

>  <Rbt.Receptor>
prm/pocket_docking_3.prm

>  <SCORE>
-4.53194

>  <SCORE.INTER>
0.897672

>  <SCORE.INTER.CONST>
1

>  <SCORE.INTER.POLAR>
0

>  <SCORE.INTER.ROT>
9

>  <SCORE.INTER.SOLV>
11.2287

>  <SCORE.INTER.VDW>
-12.7444

>  <SCORE.INTER.norm>
0.0213732

>  <SCORE.INTRA>
-5.45478

>  <SCORE.INTRA.DIHEDRAL>
-9.86874

>  <SCORE.INTRA.DIHEDRAL.0>
27.8999

>  <SCORE.INTRA.POLAR>
0

>  <SCORE.INTRA.POLAR.0>
0

>  <SCORE.INTRA.REPUL>
0

>  <SCORE.INTRA.REPUL.0>
0

>  <SCORE.INTRA.SOLV>
-4.73686

>  <SCORE.INTRA.SOLV.lig_0>
-104.479

>  <SCORE.INTRA.VDW>
1.84802

>  <SCORE.INTRA.VDW.0>
-6.17816

>  <SCORE.INTRA.norm>
-0.129876

>  <SCORE.RESTR>
0.0251684

>  <SCORE.RESTR.CAVITY>
0.0251684

>  <SCORE.RESTR.norm>
0.000599248

>  <SCORE.SYSTEM>
0

>  <SCORE.SYSTEM.CONST>
0

>  <SCORE.SYSTEM.DIHEDRAL>
0

>  <SCORE.SYSTEM.SOLV>
0

>  <SCORE.SYSTEM.norm>
0

>  <SCORE.heavy>
42

>  <SCORE.norm>
-0.107903

>  <RMSD>
9.427

$$$$
ligand
 OpenBabel02271912133D
libRbt.so/2013.1/901 2013/11/27
 42 45  0  0  0  0  0  0  0  0999 V2000
    6.6506    4.9630    2.7486 C   0  0  2  0  0  0  0  0  0  0  0  0
    5.2681    4.6241    2.9515 O   0  0  0  0  0  0  0  0  0  0  0  0
    2.9151    1.0004    3.3097 C   0  0  2  0  0  0  0  0  0  0  0  0
    2.4108   -0.3957    3.1463 N   0  0  0  0  0  0  0  0  0  0  0  0
    7.1662    1.1320    4.0962 C   0  0  1  0  0  0  0  0  0  0  0  0
    8.3273   -1.7175    4.2139 C   0  0  1  0  0  0  0  0  0  0  0  0
    6.9392    6.2308    3.6074 C   0  0  2  0  0  0  0  0  0  0  0  0
    6.4762    6.0867    4.9986 N   0  0  0  0  0  0  0  0  0  0  0  0
    2.8202    1.8076    1.9528 C   0  0  0  0  0  0  0  0  0  0  0  0
    7.4648    0.7856    2.6057 C   0  0  2  0  0  0  0  0  0  0  0  0
    6.4545   -0.0426    1.9793 O   0  0  0  0  0  0  0  0  0  0  0  0
    9.4487   -1.7924    5.3119 C   0  0  2  0  0  0  0  0  0  0  0  0
   10.5769   -2.6626    4.8637 N   0  0  0  0  0  0  0  0  0  0  0  0
    6.2567    7.4889    3.0396 C   0  0  1  0  0  0  0  0  0  0  0  0
    6.5801    8.6315    3.8338 O   0  0  0  0  0  0  0  0  0  0  0  0
    3.3436    3.2741    2.1936 C   0  0  2  0  0  0  0  0  0  0  0  0
    3.2548    4.0678    0.9384 N   0  0  0  0  0  0  0  0  0  0  0  0
    8.8563    0.1610    2.7189 C   0  0  2  0  0  0  0  0  0  0  0  0
    8.7815   -1.2856    2.9252 O   0  0  0  0  0  0  0  0  0  0  0  0
    8.8138   -2.3324    6.6802 C   0  0  1  0  0  0  0  0  0  0  0  0
    8.0092   -1.2851    7.2672 O   0  0  0  0  0  0  0  0  0  0  0  0
    6.6826    7.6864    1.5669 C   0  0  2  0  0  0  0  0  0  0  0  0
    6.0793    8.8439    1.0373 O   0  0  0  0  0  0  0  0  0  0  0  0
    4.8386    3.2550    2.7041 C   0  0  2  0  0  0  0  0  0  0  0  0
    9.5394    0.8587    3.9072 C   0  0  2  0  0  0  0  0  0  0  0  0
    8.4464    1.1714    4.7674 O   0  0  0  0  0  0  0  0  0  0  0  0
    7.9180   -3.6450    6.4747 C   0  0  2  0  0  0  0  0  0  0  0  0
    8.7964   -4.7175    6.1361 O   0  0  0  0  0  0  0  0  0  0  0  0
    6.2708    6.4214    0.7424 C   0  0  2  0  0  0  0  0  0  0  0  0
    6.9013    5.2331    1.3168 O   0  0  0  0  0  0  0  0  0  0  0  0
    5.0185    2.4345    4.0001 C   0  0  2  0  0  0  0  0  0  0  0  0
    6.4551    2.3710    4.2157 O   0  0  0  0  0  0  0  0  0  0  0  0
   10.3496    2.1407    3.5405 C   0  0  0  0  0  0  0  0  0  0  0  0
    9.4493    3.1634    3.1251 O   0  0  0  0  0  0  0  0  0  0  0  0
    6.8612   -3.4228    5.3276 C   0  0  1  0  0  0  0  0  0  0  0  0
    7.6321   -3.0599    4.1258 O   0  0  0  0  0  0  0  0  0  0  0  0
    6.6567    6.5263   -0.7149 C   0  0  0  0  0  0  0  0  0  0  0  0
    8.0571    6.5070   -0.8483 O   0  0  0  0  0  0  0  0  0  0  0  0
    4.4125    0.9801    3.8176 C   0  0  1  0  0  0  0  0  0  0  0  0
    4.4423    0.2736    5.0608 O   0  0  0  0  0  0  0  0  0  0  0  0
    5.9488   -4.6915    5.0330 C   0  0  0  0  0  0  0  0  0  0  0  0
    5.0827   -4.5932    3.8261 N   0  0  0  0  0  0  0  0  0  0  0  0
  1  2  1  6  0  0  0
  1  7  1  0  0  0  0
  1 30  1  0  0  0  0
  3  4  1  6  0  0  0
  3  9  1  0  0  0  0
  3 39  1  0  0  0  0
  5 10  1  0  0  0  0
  5 26  1  0  0  0  0
  5 32  1  6  0  0  0
  6 12  1  0  0  0  0
  6 36  1  0  0  0  0
  6 19  1  6  0  0  0
  7  8  1  1  0  0  0
  7 14  1  0  0  0  0
  9 16  1  0  0  0  0
 10 11  1  1  0  0  0
 10 18  1  0  0  0  0
 12 13  1  6  0  0  0
 12 20  1  0  0  0  0
 14 15  1  1  0  0  0
 14 22  1  0  0  0  0
 16 17  1  6  0  0  0
 16 24  1  0  0  0  0
 18 19  1  1  0  0  0
 18 25  1  0  0  0  0
 20 21  1  6  0  0  0
 20 27  1  0  0  0  0
 22 23  1  6  0  0  0
 22 29  1  0  0  0  0
 24  2  1  1  0  0  0
 24 31  1  0  0  0  0
 25 26  1  0  0  0  0
 25 33  1  6  0  0  0
 27 28  1  6  0  0  0
 27 35  1  0  0  0  0
 29 30  1  0  0  0  0
 29 37  1  6  0  0  0
 31 32  1  6  0  0  0
 31 39  1  0  0  0  0
 33 34  1  0  0  0  0
 35 36  1  0  0  0  0
 35 41  1  6  0  0  0
 37 38  1  0  0  0  0
 39 40  1  1  0  0  0
 41 42  1  0  0  0  0
M  END
>  <CHROM.1>
-157.18083123,-148.32898809,-71.78752994,-84.75639531,68.06903938,67.35562703
-112.13430374,80.47945748,-171.14125505,6.75384377,1.74488868,3.43436924
-1.72633472,0.19454083,2.83099485

>  <Name>
ligand

>  <RI>
0

>  <Rbt.Current_Directory>
/home/itssahil/PROJECTS/Mol_Feturizer/Test_systems_manuscript/rnas/2o3w

>  <Rbt.Executable>
rbdock ($Id: //depot/dev/client3/rdock/2013.1/src/exe/rbdock.cxx#4 $)

>  <Rbt.Library>
libRbt.so (2013.1, Build901 2013/11/27)

>  <Rbt.Parameter_File>
/export/apps/rDock/src/rDock_2013.1_src/data/scripts/dock_solv.prm

>  <Rbt.Receptor>
prm/pocket_docking_3.prm

>  <SCORE>
0.640242

>  <SCORE.INTER>
3.41256

>  <SCORE.INTER.CONST>
1

>  <SCORE.INTER.POLAR>
0

>  <SCORE.INTER.ROT>
9

>  <SCORE.INTER.SOLV>
7.81283

>  <SCORE.INTER.VDW>
-9.92924

>  <SCORE.INTER.norm>
0.0812515

>  <SCORE.INTRA>
-2.78042

>  <SCORE.INTRA.DIHEDRAL>
-8.88096

>  <SCORE.INTRA.DIHEDRAL.0>
27.8999

>  <SCORE.INTRA.POLAR>
0

>  <SCORE.INTRA.POLAR.0>
0

>  <SCORE.INTRA.REPUL>
0

>  <SCORE.INTRA.REPUL.0>
0

>  <SCORE.INTRA.SOLV>
-1.78068

>  <SCORE.INTRA.SOLV.lig_0>
-104.479

>  <SCORE.INTRA.VDW>
2.5504

>  <SCORE.INTRA.VDW.0>
-6.17816

>  <SCORE.INTRA.norm>
-0.0662005

>  <SCORE.RESTR>
0.00810011

>  <SCORE.RESTR.CAVITY>
0.00810011

>  <SCORE.RESTR.norm>
0.00019286

>  <SCORE.SYSTEM>
0

>  <SCORE.SYSTEM.CONST>
0

>  <SCORE.SYSTEM.DIHEDRAL>
0

>  <SCORE.SYSTEM.SOLV>
0

>  <SCORE.SYSTEM.norm>
0

>  <SCORE.heavy>
42

>  <SCORE.norm>
0.0152439

>  <RMSD>
9.458

$$$$
ligand
 OpenBabel02271912133D
libRbt.so/2013.1/901 2013/11/27
 42 45  0  0  0  0  0  0  0  0999 V2000
    7.6934    2.7552    3.5385 C   0  0  2  0  0  0  0  0  0  0  0  0
    8.6278    3.8400    3.4061 O   0  0  0  0  0  0  0  0  0  0  0  0
   12.6473    3.8915    5.0298 C   0  0  2  0  0  0  0  0  0  0  0  0
   13.8073    3.9815    5.9661 N   0  0  0  0  0  0  0  0  0  0  0  0
    9.5487    0.3092    5.1251 C   0  0  1  0  0  0  0  0  0  0  0  0
    8.2789   -3.8355    6.0372 C   0  0  1  0  0  0  0  0  0  0  0  0
    6.6700    2.8911    2.3714 C   0  0  2  0  0  0  0  0  0  0  0  0
    7.3259    3.0617    1.0633 N   0  0  0  0  0  0  0  0  0  0  0  0
   11.8721    5.2674    4.9423 C   0  0  0  0  0  0  0  0  0  0  0  0
    8.3606   -0.4069    5.8367 C   0  0  2  0  0  0  0  0  0  0  0  0
    8.5928   -0.6800    7.2405 O   0  0  0  0  0  0  0  0  0  0  0  0
    7.6949   -3.4906    7.4545 C   0  0  2  0  0  0  0  0  0  0  0  0
    8.7687   -2.9982    8.3685 N   0  0  0  0  0  0  0  0  0  0  0  0
    5.7284    4.0953    2.5572 C   0  0  1  0  0  0  0  0  0  0  0  0
    4.7838    4.1577    1.4873 O   0  0  0  0  0  0  0  0  0  0  0  0
   10.6775    5.1163    3.9260 C   0  0  2  0  0  0  0  0  0  0  0  0
    9.9334    6.3992    3.8078 N   0  0  0  0  0  0  0  0  0  0  0  0
    8.1770   -1.6356    4.9446 C   0  0  2  0  0  0  0  0  0  0  0  0
    8.9885   -2.7620    5.4066 O   0  0  0  0  0  0  0  0  0  0  0  0
    6.9743   -4.7875    8.0593 C   0  0  1  0  0  0  0  0  0  0  0  0
    5.7273   -4.9980    7.3596 O   0  0  0  0  0  0  0  0  0  0  0  0
    5.0222    3.9909    3.9282 C   0  0  2  0  0  0  0  0  0  0  0  0
    4.1437    5.0776    4.1065 O   0  0  0  0  0  0  0  0  0  0  0  0
    9.6918    3.9727    4.3912 C   0  0  2  0  0  0  0  0  0  0  0  0
    8.5870   -1.1972    3.5286 C   0  0  2  0  0  0  0  0  0  0  0  0
    9.5829   -0.2073    3.7748 O   0  0  0  0  0  0  0  0  0  0  0  0
    7.8774   -6.1069    7.9540 C   0  0  2  0  0  0  0  0  0  0  0  0
    8.9717   -5.9532    8.8568 O   0  0  0  0  0  0  0  0  0  0  0  0
    6.1041    3.9630    5.0588 C   0  0  2  0  0  0  0  0  0  0  0  0
    7.0086    2.8332    4.8464 O   0  0  0  0  0  0  0  0  0  0  0  0
   10.3936    2.6065    4.5535 C   0  0  2  0  0  0  0  0  0  0  0  0
    9.3974    1.7344    5.1547 O   0  0  0  0  0  0  0  0  0  0  0  0
    7.4281   -0.6226    2.6562 C   0  0  0  0  0  0  0  0  0  0  0  0
    6.4325   -1.6253    2.4770 O   0  0  0  0  0  0  0  0  0  0  0  0
    8.4072   -6.3018    6.4831 C   0  0  1  0  0  0  0  0  0  0  0  0
    9.1460   -5.0721    6.1479 O   0  0  0  0  0  0  0  0  0  0  0  0
    5.4994    3.8551    6.4396 C   0  0  0  0  0  0  0  0  0  0  0  0
    4.7315    4.9993    6.7234 O   0  0  0  0  0  0  0  0  0  0  0  0
   11.6598    2.7486    5.4981 C   0  0  1  0  0  0  0  0  0  0  0  0
   12.3942    1.5217    5.5268 O   0  0  0  0  0  0  0  0  0  0  0  0
    9.3430   -7.5736    6.2950 C   0  0  0  0  0  0  0  0  0  0  0  0
    9.8715   -7.7844    4.9192 N   0  0  0  0  0  0  0  0  0  0  0  0
  1  2  1  1  0  0  0
  1  7  1  0  0  0  0
  1 30  1  0  0  0  0
  3  4  1  1  0  0  0
  3  9  1  0  0  0  0
  3 39  1  0  0  0  0
  5 10  1  0  0  0  0
  5 26  1  0  0  0  0
  5 32  1  6  0  0  0
  6 12  1  0  0  0  0
  6 36  1  0  0  0  0
  6 19  1  1  0  0  0
  7  8  1  6  0  0  0
  7 14  1  0  0  0  0
  9 16  1  0  0  0  0
 10 11  1  1  0  0  0
 10 18  1  0  0  0  0
 12 13  1  1  0  0  0
 12 20  1  0  0  0  0
 14 15  1  6  0  0  0
 14 22  1  0  0  0  0
 16 17  1  1  0  0  0
 16 24  1  0  0  0  0
 18 19  1  1  0  0  0
 18 25  1  0  0  0  0
 20 21  1  6  0  0  0
 20 27  1  0  0  0  0
 22 23  1  1  0  0  0
 22 29  1  0  0  0  0
 24  2  1  6  0  0  0
 24 31  1  0  0  0  0
 25 26  1  0  0  0  0
 25 33  1  1  0  0  0
 27 28  1  1  0  0  0
 27 35  1  0  0  0  0
 29 30  1  0  0  0  0
 29 37  1  1  0  0  0
 31 32  1  1  0  0  0
 31 39  1  0  0  0  0
 33 34  1  0  0  0  0
 35 36  1  0  0  0  0
 35 41  1  1  0  0  0
 37 38  1  0  0  0  0
 39 40  1  6  0  0  0
 41 42  1  0  0  0  0
M  END
>  <CHROM.1>
178.88001798,172.96346558,106.88440395,-70.37314857,-61.33737694,-64.08192547
162.79334592,179.73985361,-179.55241691,8.36343928,0.34775996,5.08243675
1.60980211,-0.19158127,-0.27197353

>  <Name>
ligand

>  <RI>
0

>  <Rbt.Current_Directory>
/home/itssahil/PROJECTS/Mol_Feturizer/Test_systems_manuscript/rnas/2o3w

>  <Rbt.Executable>
rbdock ($Id: //depot/dev/client3/rdock/2013.1/src/exe/rbdock.cxx#4 $)

>  <Rbt.Library>
libRbt.so (2013.1, Build901 2013/11/27)

>  <Rbt.Parameter_File>
/export/apps/rDock/src/rDock_2013.1_src/data/scripts/dock_solv.prm

>  <Rbt.Receptor>
prm/pocket_docking_5.prm

>  <SCORE>
-6.7899

>  <SCORE.INTER>
1.55317

>  <SCORE.INTER.CONST>
1

>  <SCORE.INTER.POLAR>
0

>  <SCORE.INTER.ROT>
9

>  <SCORE.INTER.SOLV>
11.4098

>  <SCORE.INTER.VDW>
-12.3678

>  <SCORE.INTER.norm>
0.0369801

>  <SCORE.INTRA>
-8.34306

>  <SCORE.INTRA.DIHEDRAL>
-19.1992

>  <SCORE.INTRA.DIHEDRAL.0>
27.8999

>  <SCORE.INTRA.POLAR>
0

>  <SCORE.INTRA.POLAR.0>
0

>  <SCORE.INTRA.REPUL>
0

>  <SCORE.INTRA.REPUL.0>
0

>  <SCORE.INTRA.SOLV>
-3.79622

>  <SCORE.INTRA.SOLV.lig_0>
-104.479

>  <SCORE.INTRA.VDW>
3.15463

>  <SCORE.INTRA.VDW.0>
-6.17816

>  <SCORE.INTRA.norm>
-0.198644

>  <SCORE.RESTR>
0

>  <SCORE.RESTR.CAVITY>
0

>  <SCORE.RESTR.norm>
0

>  <SCORE.SYSTEM>
0

>  <SCORE.SYSTEM.CONST>
0

>  <SCORE.SYSTEM.DIHEDRAL>
0

>  <SCORE.SYSTEM.SOLV>
0

>  <SCORE.SYSTEM.norm>
0

>  <SCORE.heavy>
42

>  <SCORE.norm>
-0.161664

>  <RMSD>
9.458

$$$$
ligand
 OpenBabel02271912133D
libRbt.so/2013.1/901 2013/11/27
 42 45  0  0  0  0  0  0  0  0999 V2000
    6.0974    2.1265    4.0797 C   0  0  2  0  0  0  0  0  0  0  0  0
    6.3034    3.2521    3.2091 O   0  0  0  0  0  0  0  0  0  0  0  0
    5.7016    3.5824   -1.0717 C   0  0  2  0  0  0  0  0  0  0  0  0
    5.8130    3.3857   -2.5480 N   0  0  0  0  0  0  0  0  0  0  0  0
    4.0696    0.1535    1.6090 C   0  0  1  0  0  0  0  0  0  0  0  0
    2.5634   -3.6622    1.3522 C   0  0  1  0  0  0  0  0  0  0  0  0
    5.8550    2.6958    5.5098 C   0  0  2  0  0  0  0  0  0  0  0  0
    4.8355    3.7593    5.5279 N   0  0  0  0  0  0  0  0  0  0  0  0
    7.0383    4.1758   -0.4692 C   0  0  0  0  0  0  0  0  0  0  0  0
    4.3414   -1.2721    2.1786 C   0  0  2  0  0  0  0  0  0  0  0  0
    4.9173   -2.1907    1.2176 O   0  0  0  0  0  0  0  0  0  0  0  0
    1.6771   -4.3599    0.2584 C   0  0  2  0  0  0  0  0  0  0  0  0
    0.2384   -4.3628    0.6597 N   0  0  0  0  0  0  0  0  0  0  0  0
    7.1333    3.2947    6.1248 C   0  0  1  0  0  0  0  0  0  0  0  0
    6.8744    3.7674    7.4478 O   0  0  0  0  0  0  0  0  0  0  0  0
    6.8518    4.3812    1.0818 C   0  0  2  0  0  0  0  0  0  0  0  0
    8.0881    4.9531    1.6803 N   0  0  0  0  0  0  0  0  0  0  0  0
    2.9569   -1.6494    2.7079 C   0  0  2  0  0  0  0  0  0  0  0  0
    2.1579   -2.3293    1.6880 O   0  0  0  0  0  0  0  0  0  0  0  0
    2.2106   -5.8513    0.0180 C   0  0  1  0  0  0  0  0  0  0  0  0
    3.4520   -5.7903   -0.7196 O   0  0  0  0  0  0  0  0  0  0  0  0
    8.2567    2.2332    6.1145 C   0  0  2  0  0  0  0  0  0  0  0  0
    9.4294    2.7606    6.6897 O   0  0  0  0  0  0  0  0  0  0  0  0
    6.5063    3.0106    1.7875 C   0  0  2  0  0  0  0  0  0  0  0  0
    2.2964   -0.3315    3.1463 C   0  0  2  0  0  0  0  0  0  0  0  0
    2.8638    0.6244    2.2537 O   0  0  0  0  0  0  0  0  0  0  0  0
    2.4377   -6.6584    1.3836 C   0  0  2  0  0  0  0  0  0  0  0  0
    1.1538   -6.9130    1.9522 O   0  0  0  0  0  0  0  0  0  0  0  0
    8.5191    1.7819    4.6390 C   0  0  2  0  0  0  0  0  0  0  0  0
    7.2860    1.2475    4.0613 O   0  0  0  0  0  0  0  0  0  0  0  0
    5.2394    2.3423    1.2099 C   0  0  2  0  0  0  0  0  0  0  0  0
    5.1808    1.0306    1.8348 O   0  0  0  0  0  0  0  0  0  0  0  0
    2.5496    0.0690    4.6328 C   0  0  0  0  0  0  0  0  0  0  0  0
    3.9492    0.2267    4.8456 O   0  0  0  0  0  0  0  0  0  0  0  0
    3.3207   -5.8208    2.3840 C   0  0  1  0  0  0  0  0  0  0  0  0
    2.6142   -4.5434    2.5826 O   0  0  0  0  0  0  0  0  0  0  0  0
    9.6040    0.7349    4.5353 C   0  0  0  0  0  0  0  0  0  0  0  0
   10.8454    1.2849    4.9034 O   0  0  0  0  0  0  0  0  0  0  0  0
    5.3589    2.2093   -0.3661 C   0  0  1  0  0  0  0  0  0  0  0  0
    4.1280    1.7313   -0.9157 O   0  0  0  0  0  0  0  0  0  0  0  0
    3.5688   -6.5350    3.7829 C   0  0  0  0  0  0  0  0  0  0  0  0
    4.4140   -5.7801    4.7484 N   0  0  0  0  0  0  0  0  0  0  0  0
  1  2  1  6  0  0  0
  1  7  1  0  0  0  0
  1 30  1  0  0  0  0
  3  4  1  6  0  0  0
  3  9  1  0  0  0  0
  3 39  1  0  0  0  0
  5 10  1  0  0  0  0
  5 26  1  0  0  0  0
  5 32  1  1  0  0  0
  6 12  1  0  0  0  0
  6 36  1  0  0  0  0
  6 19  1  1  0  0  0
  7  8  1  6  0  0  0
  7 14  1  0  0  0  0
  9 16  1  0  0  0  0
 10 11  1  6  0  0  0
 10 18  1  0  0  0  0
 12 13  1  1  0  0  0
 12 20  1  0  0  0  0
 14 15  1  1  0  0  0
 14 22  1  0  0  0  0
 16 17  1  1  0  0  0
 16 24  1  0  0  0  0
 18 19  1  6  0  0  0
 18 25  1  0  0  0  0
 20 21  1  1  0  0  0
 20 27  1  0  0  0  0
 22 23  1  6  0  0  0
 22 29  1  0  0  0  0
 24  2  1  1  0  0  0
 24 31  1  0  0  0  0
 25 26  1  0  0  0  0
 25 33  1  1  0  0  0
 27 28  1  1  0  0  0
 27 35  1  0  0  0  0
 29 30  1  0  0  0  0
 29 37  1  1  0  0  0
 31 32  1  1  0  0  0
 31 39  1  0  0  0  0
 33 34  1  0  0  0  0
 35 36  1  0  0  0  0
 35 41  1  1  0  0  0
 37 38  1  0  0  0  0
 39 40  1  6  0  0  0
 41 42  1  0  0  0  0
M  END
>  <CHROM.1>
-177.75242214,-174.34966581,71.13023257,179.75084451,60.30884551,-66.60501730
175.35543607,170.27795443,179.26396739,4.97940480,-0.18618387,2.59022801
-0.39597329,0.98376396,2.29716411

>  <Name>
ligand

>  <RI>
0

>  <Rbt.Current_Directory>
/home/itssahil/PROJECTS/Mol_Feturizer/Test_systems_manuscript/rnas/2o3w

>  <Rbt.Executable>
rbdock ($Id: //depot/dev/client3/rdock/2013.1/src/exe/rbdock.cxx#4 $)

>  <Rbt.Library>
libRbt.so (2013.1, Build901 2013/11/27)

>  <Rbt.Parameter_File>
/export/apps/rDock/src/rDock_2013.1_src/data/scripts/dock_solv.prm

>  <Rbt.Receptor>
prm/pocket_docking_7.prm

>  <SCORE>
-8.4963

>  <SCORE.INTER>
4.42828

>  <SCORE.INTER.CONST>
1

>  <SCORE.INTER.POLAR>
0

>  <SCORE.INTER.ROT>
9

>  <SCORE.INTER.SOLV>
8.07394

>  <SCORE.INTER.VDW>
-9.33913

>  <SCORE.INTER.norm>
0.105435

>  <SCORE.INTRA>
-12.9246

>  <SCORE.INTRA.DIHEDRAL>
-26.2614

>  <SCORE.INTRA.DIHEDRAL.0>
27.8999

>  <SCORE.INTRA.POLAR>
0

>  <SCORE.INTRA.POLAR.0>
0

>  <SCORE.INTRA.REPUL>
0

>  <SCORE.INTRA.REPUL.0>
0

>  <SCORE.INTRA.SOLV>
-4.37672

>  <SCORE.INTRA.SOLV.lig_0>
-104.479

>  <SCORE.INTRA.VDW>
2.39449

>  <SCORE.INTRA.VDW.0>
-6.17816

>  <SCORE.INTRA.norm>
-0.307728

>  <SCORE.RESTR>
0

>  <SCORE.RESTR.CAVITY>
0

>  <SCORE.RESTR.norm>
0

>  <SCORE.SYSTEM>
0

>  <SCORE.SYSTEM.CONST>
0

>  <SCORE.SYSTEM.DIHEDRAL>
0

>  <SCORE.SYSTEM.SOLV>
0

>  <SCORE.SYSTEM.norm>
0

>  <SCORE.heavy>
42

>  <SCORE.norm>
-0.202293

>  <RMSD>
9.500

$$$$
ligand
 OpenBabel02271912133D
libRbt.so/2013.1/901 2013/11/27
 42 45  0  0  0  0  0  0  0  0999 V2000
   10.3230    6.0624    7.1157 C   0  0  2  0  0  0  0  0  0  0  0  0
   11.1231    5.1664    6.3256 O   0  0  0  0  0  0  0  0  0  0  0  0
    9.6689    6.3714    2.4231 C   0  0  2  0  0  0  0  0  0  0  0  0
    9.4836    6.5021    0.9469 N   0  0  0  0  0  0  0  0  0  0  0  0
   10.5608    2.3392    3.9371 C   0  0  1  0  0  0  0  0  0  0  0  0
   12.8040   -1.0584    3.6378 C   0  0  1  0  0  0  0  0  0  0  0  0
   10.6408    5.7582    8.6105 C   0  0  2  0  0  0  0  0  0  0  0  0
   12.0882    5.7255    8.8839 N   0  0  0  0  0  0  0  0  0  0  0  0
   11.0919    6.8963    2.8716 C   0  0  0  0  0  0  0  0  0  0  0  0
   10.6699    0.9285    4.5919 C   0  0  2  0  0  0  0  0  0  0  0  0
   11.8319    0.7612    5.4410 O   0  0  0  0  0  0  0  0  0  0  0  0
   14.2217   -1.3383    3.0208 C   0  0  2  0  0  0  0  0  0  0  0  0
   14.1015   -1.9414    1.6597 N   0  0  0  0  0  0  0  0  0  0  0  0
   10.0718    4.4012    9.0644 C   0  0  1  0  0  0  0  0  0  0  0  0
   10.3518    4.1823   10.4481 O   0  0  0  0  0  0  0  0  0  0  0  0
   11.2187    6.7539    4.4357 C   0  0  2  0  0  0  0  0  0  0  0  0
   12.5428    7.2530    4.8951 N   0  0  0  0  0  0  0  0  0  0  0  0
   10.6143    0.0240    3.3598 C   0  0  2  0  0  0  0  0  0  0  0  0
   11.9507   -0.2415    2.8265 O   0  0  0  0  0  0  0  0  0  0  0  0
   15.0464   -2.2972    4.0044 C   0  0  1  0  0  0  0  0  0  0  0  0
   15.4626   -1.5349    5.1596 O   0  0  0  0  0  0  0  0  0  0  0  0
    8.5527    4.3588    8.7823 C   0  0  2  0  0  0  0  0  0  0  0  0
    8.0133    3.1289    9.2077 O   0  0  0  0  0  0  0  0  0  0  0  0
   11.0390    5.2468    4.8741 C   0  0  2  0  0  0  0  0  0  0  0  0
    9.7402    0.7611    2.3312 C   0  0  2  0  0  0  0  0  0  0  0  0
    9.9862    2.1341    2.6260 O   0  0  0  0  0  0  0  0  0  0  0  0
   14.2030   -3.5739    4.4801 C   0  0  2  0  0  0  0  0  0  0  0  0
   14.0311   -4.4235    3.3466 O   0  0  0  0  0  0  0  0  0  0  0  0
    8.3119    4.5679    7.2501 C   0  0  2  0  0  0  0  0  0  0  0  0
    8.8885    5.8454    6.8313 O   0  0  0  0  0  0  0  0  0  0  0  0
    9.6902    4.6475    4.4192 C   0  0  2  0  0  0  0  0  0  0  0  0
    9.7747    3.2312    4.7379 O   0  0  0  0  0  0  0  0  0  0  0  0
    8.2165    0.4348    2.4081 C   0  0  0  0  0  0  0  0  0  0  0  0
    7.5237    1.1863    1.4160 O   0  0  0  0  0  0  0  0  0  0  0  0
   12.8014   -3.1335    5.0490 C   0  0  1  0  0  0  0  0  0  0  0  0
   12.1408   -2.3785    3.9702 O   0  0  0  0  0  0  0  0  0  0  0  0
    6.8459    4.5472    6.8836 C   0  0  0  0  0  0  0  0  0  0  0  0
    6.3010    3.2750    7.1360 O   0  0  0  0  0  0  0  0  0  0  0  0
    9.4920    4.8620    2.8603 C   0  0  1  0  0  0  0  0  0  0  0  0
    8.1818    4.4443    2.4674 O   0  0  0  0  0  0  0  0  0  0  0  0
   11.8821   -4.3445    5.5149 C   0  0  0  0  0  0  0  0  0  0  0  0
   10.5636   -3.9647    6.0927 N   0  0  0  0  0  0  0  0  0  0  0  0
  1  2  1  6  0  0  0
  1  7  1  0  0  0  0
  1 30  1  0  0  0  0
  3  4  1  6  0  0  0
  3  9  1  0  0  0  0
  3 39  1  0  0  0  0
  5 10  1  0  0  0  0
  5 26  1  0  0  0  0
  5 32  1  1  0  0  0
  6 12  1  0  0  0  0
  6 36  1  0  0  0  0
  6 19  1  6  0  0  0
  7  8  1  6  0  0  0
  7 14  1  0  0  0  0
  9 16  1  0  0  0  0
 10 11  1  6  0  0  0
 10 18  1  0  0  0  0
 12 13  1  6  0  0  0
 12 20  1  0  0  0  0
 14 15  1  1  0  0  0
 14 22  1  0  0  0  0
 16 17  1  6  0  0  0
 16 24  1  0  0  0  0
 18 19  1  6  0  0  0
 18 25  1  0  0  0  0
 20 21  1  1  0  0  0
 20 27  1  0  0  0  0
 22 23  1  6  0  0  0
 22 29  1  0  0  0  0
 24  2  1  1  0  0  0
 24 31  1  0  0  0  0
 25 26  1  0  0  0  0
 25 33  1  1  0  0  0
 27 28  1  6  0  0  0
 27 35  1  0  0  0  0
 29 30  1  0  0  0  0
 29 37  1  1  0  0  0
 31 32  1  6  0  0  0
 31 39  1  0  0  0  0
 33 34  1  0  0  0  0
 35 36  1  0  0  0  0
 35 41  1  6  0  0  0
 37 38  1  0  0  0  0
 39 40  1  1  0  0  0
 41 42  1  0  0  0  0
M  END
>  <CHROM.1>
-179.09117024,49.93550329,68.73034641,179.11482089,179.52333687,-64.75989901
-75.40800473,171.44047634,178.41137996,10.73724645,2.15391135,4.92192712
-2.86919955,1.15734999,-1.58359449

>  <Name>
ligand

>  <RI>
0

>  <Rbt.Current_Directory>
/home/itssahil/PROJECTS/Mol_Feturizer/Test_systems_manuscript/rnas/2o3w

>  <Rbt.Executable>
rbdock ($Id: //depot/dev/client3/rdock/2013.1/src/exe/rbdock.cxx#4 $)

>  <Rbt.Library>
libRbt.so (2013.1, Build901 2013/11/27)

>  <Rbt.Parameter_File>
/export/apps/rDock/src/rDock_2013.1_src/data/scripts/dock_solv.prm

>  <Rbt.Receptor>
prm/pocket_docking_7.prm

>  <SCORE>
-13.6899

>  <SCORE.INTER>
-1.85756

>  <SCORE.INTER.CONST>
1

>  <SCORE.INTER.POLAR>
0

>  <SCORE.INTER.ROT>
9

>  <SCORE.INTER.SOLV>
12.7554

>  <SCORE.INTER.VDW>
-15.0902

>  <SCORE.INTER.norm>
-0.0442277

>  <SCORE.INTRA>
-11.8323

>  <SCORE.INTRA.DIHEDRAL>
-25.3371

>  <SCORE.INTRA.DIHEDRAL.0>
27.8999

>  <SCORE.INTRA.POLAR>
0

>  <SCORE.INTRA.POLAR.0>
0

>  <SCORE.INTRA.REPUL>
0

>  <SCORE.INTRA.REPUL.0>
0

>  <SCORE.INTRA.SOLV>
-4.69869

>  <SCORE.INTRA.SOLV.lig_0>
-104.479

>  <SCORE.INTRA.VDW>
3.18557

>  <SCORE.INTRA.VDW.0>
-6.17816

>  <SCORE.INTRA.norm>
-0.281722

>  <SCORE.RESTR>
0

>  <SCORE.RESTR.CAVITY>
0

>  <SCORE.RESTR.norm>
0

>  <SCORE.SYSTEM>
0

>  <SCORE.SYSTEM.CONST>
0

>  <SCORE.SYSTEM.DIHEDRAL>
0

>  <SCORE.SYSTEM.SOLV>
0

>  <SCORE.SYSTEM.norm>
0

>  <SCORE.heavy>
42

>  <SCORE.norm>
-0.325949

>  <RMSD>
9.515

$$$$
ligand
 OpenBabel02271912133D
libRbt.so/2013.1/901 2013/11/27
 42 45  0  0  0  0  0  0  0  0999 V2000
    6.4731    5.8138    3.1086 C   0  0  2  0  0  0  0  0  0  0  0  0
    6.4640    4.7920    2.0970 O   0  0  0  0  0  0  0  0  0  0  0  0
    2.1817    4.2715    1.6647 C   0  0  2  0  0  0  0  0  0  0  0  0
    0.8346    3.9117    1.1298 N   0  0  0  0  0  0  0  0  0  0  0  0
    6.1734    1.6130    3.2217 C   0  0  1  0  0  0  0  0  0  0  0  0
    7.6017   -1.6394    5.2872 C   0  0  1  0  0  0  0  0  0  0  0  0
    7.9419    5.9416    3.6130 C   0  0  2  0  0  0  0  0  0  0  0  0
    8.9077    6.0759    2.5085 N   0  0  0  0  0  0  0  0  0  0  0  0
    2.8842    5.3646    0.7628 C   0  0  0  0  0  0  0  0  0  0  0  0
    6.5845    0.1307    2.9672 C   0  0  2  0  0  0  0  0  0  0  0  0
    5.6429   -0.8396    3.4876 O   0  0  0  0  0  0  0  0  0  0  0  0
    7.7496   -2.0493    6.7969 C   0  0  2  0  0  0  0  0  0  0  0  0
    9.1255   -1.7540    7.2974 N   0  0  0  0  0  0  0  0  0  0  0  0
    8.3828    4.7222    4.4435 C   0  0  1  0  0  0  0  0  0  0  0  0
    9.7187    4.8999    4.9174 O   0  0  0  0  0  0  0  0  0  0  0  0
    4.2866    5.7178    1.3884 C   0  0  2  0  0  0  0  0  0  0  0  0
    4.9707    6.7563    0.5716 N   0  0  0  0  0  0  0  0  0  0  0  0
    7.9809    0.0987    3.5904 C   0  0  2  0  0  0  0  0  0  0  0  0
    7.9305   -0.2736    5.0046 O   0  0  0  0  0  0  0  0  0  0  0  0
    7.3994   -3.6042    6.9593 C   0  0  1  0  0  0  0  0  0  0  0  0
    5.9704   -3.7773    6.8297 O   0  0  0  0  0  0  0  0  0  0  0  0
    7.3932    4.5089    5.6115 C   0  0  2  0  0  0  0  0  0  0  0  0
    7.7923    3.4058    6.3916 O   0  0  0  0  0  0  0  0  0  0  0  0
    5.1966    4.4296    1.4784 C   0  0  2  0  0  0  0  0  0  0  0  0
    8.5605    1.5113    3.4064 C   0  0  2  0  0  0  0  0  0  0  0  0
    7.4021    2.3414    3.4471 O   0  0  0  0  0  0  0  0  0  0  0  0
    8.1506   -4.5264    5.8856 C   0  0  2  0  0  0  0  0  0  0  0  0
    9.5402   -4.5213    6.2102 O   0  0  0  0  0  0  0  0  0  0  0  0
    5.9576    4.2845    5.0299 C   0  0  2  0  0  0  0  0  0  0  0  0
    5.5703    5.4374    4.2172 O   0  0  0  0  0  0  0  0  0  0  0  0
    4.5478    3.2942    2.3001 C   0  0  2  0  0  0  0  0  0  0  0  0
    5.4229    2.1464    2.1230 O   0  0  0  0  0  0  0  0  0  0  0  0
    9.3597    1.7276    2.0840 C   0  0  0  0  0  0  0  0  0  0  0  0
   10.4510    0.8132    2.0389 O   0  0  0  0  0  0  0  0  0  0  0  0
    7.9294   -3.9740    4.4268 C   0  0  1  0  0  0  0  0  0  0  0  0
    8.4221   -2.5857    4.4360 O   0  0  0  0  0  0  0  0  0  0  0  0
    4.9200    4.0728    6.1080 C   0  0  0  0  0  0  0  0  0  0  0  0
    4.9937    2.7570    6.6004 O   0  0  0  0  0  0  0  0  0  0  0  0
    3.0928    2.9819    1.7514 C   0  0  1  0  0  0  0  0  0  0  0  0
    2.4358    2.0397    2.6035 O   0  0  0  0  0  0  0  0  0  0  0  0
    8.6705   -4.8128    3.2973 C   0  0  0  0  0  0  0  0  0  0  0  0
    8.1872   -6.2088    3.1127 N   0  0  0  0  0  0  0  0  0  0  0  0
  1  2  1  6  0  0  0
  1  7  1  0  0  0  0
  1 30  1  0  0  0  0
  3  4  1  6  0  0  0
  3  9  1  0  0  0  0
  3 39  1  0  0  0  0
  5 10  1  0  0  0  0
  5 26  1  0  0  0  0
  5 32  1  6  0  0  0
  6 12  1  0  0  0  0
  6 36  1  0  0  0  0
  6 19  1  1  0  0  0
  7  8  1  6  0  0  0
  7 14  1  0  0  0  0
  9 16  1  0  0  0  0
 10 11  1  1  0  0  0
 10 18  1  0  0  0  0
 12 13  1  6  0  0  0
 12 20  1  0  0  0  0
 14 15  1  1  0  0  0
 14 22  1  0  0  0  0
 16 17  1  6  0  0  0
 16 24  1  0  0  0  0
 18 19  1  1  0  0  0
 18 25  1  0  0  0  0
 20 21  1  6  0  0  0
 20 27  1  0  0  0  0
 22 23  1  6  0  0  0
 22 29  1  0  0  0  0
 24  2  1  1  0  0  0
 24 31  1  0  0  0  0
 25 26  1  0  0  0  0
 25 33  1  6  0  0  0
 27 28  1  1  0  0  0
 27 35  1  0  0  0  0
 29 30  1  0  0  0  0
 29 37  1  1  0  0  0
 31 32  1  6  0  0  0
 31 39  1  0  0  0  0
 33 34  1  0  0  0  0
 35 36  1  0  0  0  0
 35 41  1  6  0  0  0
 37 38  1  0  0  0  0
 39 40  1  1  0  0  0
 41 42  1  0  0  0  0
M  END
>  <CHROM.1>
177.93825335,33.60598373,71.03257349,172.00603606,-59.33514612,-78.23626657
113.22080998,158.14839765,65.31367670,6.66776705,1.53094560,3.83695946,-1.95206639
0.45126907,2.99855185

>  <Name>
ligand

>  <RI>
0

>  <Rbt.Current_Directory>
/home/itssahil/PROJECTS/Mol_Feturizer/Test_systems_manuscript/rnas/2o3w

>  <Rbt.Executable>
rbdock ($Id: //depot/dev/client3/rdock/2013.1/src/exe/rbdock.cxx#4 $)

>  <Rbt.Library>
libRbt.so (2013.1, Build901 2013/11/27)

>  <Rbt.Parameter_File>
/export/apps/rDock/src/rDock_2013.1_src/data/scripts/dock_solv.prm

>  <Rbt.Receptor>
prm/pocket_docking_4.prm

>  <SCORE>
-5.36613

>  <SCORE.INTER>
1.87473

>  <SCORE.INTER.CONST>
1

>  <SCORE.INTER.POLAR>
0

>  <SCORE.INTER.ROT>
9

>  <SCORE.INTER.SOLV>
11.2095

>  <SCORE.INTER.VDW>
-12.0867

>  <SCORE.INTER.norm>
0.0446363

>  <SCORE.INTRA>
-7.24678

>  <SCORE.INTRA.DIHEDRAL>
-13.6607

>  <SCORE.INTRA.DIHEDRAL.0>
27.8999

>  <SCORE.INTRA.POLAR>
0

>  <SCORE.INTRA.POLAR.0>
0

>  <SCORE.INTRA.REPUL>
0.082298

>  <SCORE.INTRA.REPUL.0>
0

>  <SCORE.INTRA.SOLV>
-2.83965

>  <SCORE.INTRA.SOLV.lig_0>
-104.479

>  <SCORE.INTRA.VDW>
0.591878

>  <SCORE.INTRA.VDW.0>
-6.17816

>  <SCORE.INTRA.norm>
-0.172542

>  <SCORE.RESTR>
0.00592576

>  <SCORE.RESTR.CAVITY>
0.00592576

>  <SCORE.RESTR.norm>
0.00014109

>  <SCORE.SYSTEM>
0

>  <SCORE.SYSTEM.CONST>
0

>  <SCORE.SYSTEM.DIHEDRAL>
0

>  <SCORE.SYSTEM.SOLV>
0

>  <SCORE.SYSTEM.norm>
0

>  <SCORE.heavy>
42

>  <SCORE.norm>
-0.127765

>  <RMSD>
9.536

$$$$
ligand
 OpenBabel02271912133D
libRbt.so/2013.1/901 2013/11/27
 42 45  0  0  0  0  0  0  0  0999 V2000
    3.1574    8.1097    0.9070 C   0  0  2  0  0  0  0  0  0  0  0  0
    3.5806    7.0536    0.0278 O   0  0  0  0  0  0  0  0  0  0  0  0
    1.2332    3.8450    1.7572 C   0  0  2  0  0  0  0  0  0  0  0  0
    0.5693    2.5276    1.9897 N   0  0  0  0  0  0  0  0  0  0  0  0
    5.8336    4.0566    1.8801 C   0  0  1  0  0  0  0  0  0  0  0  0
    9.5365    2.2414    3.6234 C   0  0  1  0  0  0  0  0  0  0  0  0
    3.9741    9.3790    0.5196 C   0  0  2  0  0  0  0  0  0  0  0  0
    3.9404    9.6509   -0.9280 N   0  0  0  0  0  0  0  0  0  0  0  0
    0.6701    4.5502    0.4582 C   0  0  0  0  0  0  0  0  0  0  0  0
    6.9611    3.3181    1.0964 C   0  0  2  0  0  0  0  0  0  0  0  0
    6.6428    1.9455    0.7596 O   0  0  0  0  0  0  0  0  0  0  0  0
    9.5833    1.1196    4.7226 C   0  0  2  0  0  0  0  0  0  0  0  0
    8.5478    1.3579    5.7723 N   0  0  0  0  0  0  0  0  0  0  0  0
    5.4575    9.2628    0.9158 C   0  0  1  0  0  0  0  0  0  0  0  0
    6.1577   10.4615    0.5786 O   0  0  0  0  0  0  0  0  0  0  0  0
    1.3901    5.9402    0.2793 C   0  0  2  0  0  0  0  0  0  0  0  0
    0.8731    6.6392   -0.9280 N   0  0  0  0  0  0  0  0  0  0  0  0
    8.1516    3.5102    2.0372 C   0  0  2  0  0  0  0  0  0  0  0  0
    8.2570    2.4153    3.0021 O   0  0  0  0  0  0  0  0  0  0  0  0
   11.0509    1.0680    5.3632 C   0  0  1  0  0  0  0  0  0  0  0  0
   11.9565    0.4699    4.4087 O   0  0  0  0  0  0  0  0  0  0  0  0
    5.5649    8.9523    2.4262 C   0  0  2  0  0  0  0  0  0  0  0  0
    6.9176    8.8595    2.8085 O   0  0  0  0  0  0  0  0  0  0  0  0
    2.9527    5.7456    0.1507 C   0  0  2  0  0  0  0  0  0  0  0  0
    7.9207    4.8561    2.7448 C   0  0  2  0  0  0  0  0  0  0  0  0
    6.4993    4.9479    2.8041 O   0  0  0  0  0  0  0  0  0  0  0  0
   11.5963    2.5141    5.7861 C   0  0  2  0  0  0  0  0  0  0  0  0
   10.8240    2.9567    6.9015 O   0  0  0  0  0  0  0  0  0  0  0  0
    4.8120    7.6136    2.7270 C   0  0  2  0  0  0  0  0  0  0  0  0
    3.4140    7.7318    2.3131 O   0  0  0  0  0  0  0  0  0  0  0  0
    3.5663    5.0103    1.3624 C   0  0  2  0  0  0  0  0  0  0  0  0
    4.9503    4.7575    0.9949 O   0  0  0  0  0  0  0  0  0  0  0  0
    8.5334    6.0944    2.0198 C   0  0  0  0  0  0  0  0  0  0  0  0
    7.8605    6.2943    0.7803 O   0  0  0  0  0  0  0  0  0  0  0  0
   11.4599    3.5310    4.5905 C   0  0  1  0  0  0  0  0  0  0  0  0
   10.0335    3.5405    4.2221 O   0  0  0  0  0  0  0  0  0  0  0  0
    4.8609    7.2349    4.1892 C   0  0  0  0  0  0  0  0  0  0  0  0
    6.1962    7.0954    4.6096 O   0  0  0  0  0  0  0  0  0  0  0  0
    2.7967    3.6486    1.6255 C   0  0  1  0  0  0  0  0  0  0  0  0
    3.2640    3.0433    2.8341 O   0  0  0  0  0  0  0  0  0  0  0  0
   11.9484    5.0046    4.9348 C   0  0  0  0  0  0  0  0  0  0  0  0
   11.8075    6.0008    3.8373 N   0  0  0  0  0  0  0  0  0  0  0  0
  1  2  1  6  0  0  0
  1  7  1  0  0  0  0
  1 30  1  0  0  0  0
  3  4  1  6  0  0  0
  3  9  1  0  0  0  0
  3 39  1  0  0  0  0
  5 10  1  0  0  0  0
  5 26  1  0  0  0  0
  5 32  1  6  0  0  0
  6 12  1  0  0  0  0
  6 36  1  0  0  0  0
  6 19  1  1  0  0  0
  7  8  1  6  0  0  0
  7 14  1  0  0  0  0
  9 16  1  0  0  0  0
 10 11  1  1  0  0  0
 10 18  1  0  0  0  0
 12 13  1  1  0  0  0
 12 20  1  0  0  0  0
 14 15  1  1  0  0  0
 14 22  1  0  0  0  0
 16 17  1  6  0  0  0
 16 24  1  0  0  0  0
 18 19  1  1  0  0  0
 18 25  1  0  0  0  0
 20 21  1  6  0  0  0
 20 27  1  0  0  0  0
 22 23  1  6  0  0  0
 22 29  1  0  0  0  0
 24  2  1  1  0  0  0
 24 31  1  0  0  0  0
 25 26  1  0  0  0  0
 25 33  1  6  0  0  0
 27 28  1  1  0  0  0
 27 35  1  0  0  0  0
 29 30  1  0  0  0  0
 29 37  1  1  0  0  0
 31 32  1  6  0  0  0
 31 39  1  0  0  0  0
 33 34  1  0  0  0  0
 35 36  1  0  0  0  0
 35 41  1  1  0  0  0
 37 38  1  0  0  0  0
 39 40  1  1  0  0  0
 41 42  1  0  0  0  0
M  END
>  <CHROM.1>
-178.72621584,45.00596955,160.00586562,176.06579413,66.16285541,-58.94064277
-178.69818082,152.73448591,-178.75696978,6.34885021,5.10955872,2.46270339
-2.60115326,0.37340616,2.94010805

>  <Name>
ligand

>  <RI>
0

>  <Rbt.Current_Directory>
/home/itssahil/PROJECTS/Mol_Feturizer/Test_systems_manuscript/rnas/2o3w

>  <Rbt.Executable>
rbdock ($Id: //depot/dev/client3/rdock/2013.1/src/exe/rbdock.cxx#4 $)

>  <Rbt.Library>
libRbt.so (2013.1, Build901 2013/11/27)

>  <Rbt.Parameter_File>
/export/apps/rDock/src/rDock_2013.1_src/data/scripts/dock_solv.prm

>  <Rbt.Receptor>
prm/pocket_docking_5.prm

>  <SCORE>
-13.3641

>  <SCORE.INTER>
-1.77821

>  <SCORE.INTER.CONST>
1

>  <SCORE.INTER.POLAR>
0

>  <SCORE.INTER.ROT>
9

>  <SCORE.INTER.SOLV>
14.561

>  <SCORE.INTER.VDW>
-15.6392

>  <SCORE.INTER.norm>
-0.0423383

>  <SCORE.INTRA>
-11.5859

>  <SCORE.INTRA.DIHEDRAL>
-21.5992

>  <SCORE.INTRA.DIHEDRAL.0>
27.8999

>  <SCORE.INTRA.POLAR>
0

>  <SCORE.INTRA.POLAR.0>
0

>  <SCORE.INTRA.REPUL>
0

>  <SCORE.INTRA.REPUL.0>
0

>  <SCORE.INTRA.SOLV>
-2.02985

>  <SCORE.INTRA.SOLV.lig_0>
-104.479

>  <SCORE.INTRA.VDW>
0.228675

>  <SCORE.INTRA.VDW.0>
-6.17816

>  <SCORE.INTRA.norm>
-0.275854

>  <SCORE.RESTR>
0

>  <SCORE.RESTR.CAVITY>
0

>  <SCORE.RESTR.norm>
0

>  <SCORE.SYSTEM>
0

>  <SCORE.SYSTEM.CONST>
0

>  <SCORE.SYSTEM.DIHEDRAL>
0

>  <SCORE.SYSTEM.SOLV>
0

>  <SCORE.SYSTEM.norm>
0

>  <SCORE.heavy>
42

>  <SCORE.norm>
-0.318192

>  <RMSD>
9.543

$$$$
ligand
 OpenBabel02271912133D
libRbt.so/2013.1/901 2013/11/27
 42 45  0  0  0  0  0  0  0  0999 V2000
    8.9215    4.6629    3.2851 C   0  0  2  0  0  0  0  0  0  0  0  0
    9.2568    3.5532    2.4345 O   0  0  0  0  0  0  0  0  0  0  0  0
    5.6901    3.5233   -0.0299 C   0  0  2  0  0  0  0  0  0  0  0  0
    4.7176    3.2499   -1.1300 N   0  0  0  0  0  0  0  0  0  0  0  0
    7.0224    0.0700    2.7659 C   0  0  1  0  0  0  0  0  0  0  0  0
    5.9181   -3.7798    4.8150 C   0  0  1  0  0  0  0  0  0  0  0  0
    9.9356    4.6521    4.4681 C   0  0  2  0  0  0  0  0  0  0  0  0
   11.3328    4.5485    4.0121 N   0  0  0  0  0  0  0  0  0  0  0  0
    6.9423    4.3321   -0.5587 C   0  0  0  0  0  0  0  0  0  0  0  0
    7.7331   -1.3134    2.6570 C   0  0  2  0  0  0  0  0  0  0  0  0
    7.3781   -2.0665    1.4713 O   0  0  0  0  0  0  0  0  0  0  0  0
    4.4828   -4.4191    4.8155 C   0  0  2  0  0  0  0  0  0  0  0  0
    3.4356   -3.3789    5.0441 N   0  0  0  0  0  0  0  0  0  0  0  0
    9.6947    3.4770    5.4336 C   0  0  1  0  0  0  0  0  0  0  0  0
   10.6194    3.5293    6.5213 O   0  0  0  0  0  0  0  0  0  0  0  0
    7.9176    4.6086    0.6475 C   0  0  2  0  0  0  0  0  0  0  0  0
    9.1025    5.3821    0.1880 N   0  0  0  0  0  0  0  0  0  0  0  0
    7.3424   -1.9538    3.9899 C   0  0  2  0  0  0  0  0  0  0  0  0
    6.0946   -2.7097    3.8783 O   0  0  0  0  0  0  0  0  0  0  0  0
    4.4134   -5.5617    5.9364 C   0  0  1  0  0  0  0  0  0  0  0  0
    5.1595   -6.7116    5.4782 O   0  0  0  0  0  0  0  0  0  0  0  0
    8.2326    3.5121    5.9337 C   0  0  2  0  0  0  0  0  0  0  0  0
    8.0004    2.4521    6.8320 O   0  0  0  0  0  0  0  0  0  0  0  0
    8.3919    3.2515    1.3026 C   0  0  2  0  0  0  0  0  0  0  0  0
    7.2047   -0.7960    4.9928 C   0  0  2  0  0  0  0  0  0  0  0  0
    6.7753    0.2890    4.1737 O   0  0  0  0  0  0  0  0  0  0  0  0
    4.9877   -5.0796    7.3525 C   0  0  2  0  0  0  0  0  0  0  0  0
    4.0763   -4.1178    7.8823 O   0  0  0  0  0  0  0  0  0  0  0  0
    7.2698    3.4155    4.7036 C   0  0  2  0  0  0  0  0  0  0  0  0
    7.5365    4.5199    3.7822 O   0  0  0  0  0  0  0  0  0  0  0  0
    7.2151    2.3798    1.7932 C   0  0  2  0  0  0  0  0  0  0  0  0
    7.8149    1.1152    2.1875 O   0  0  0  0  0  0  0  0  0  0  0  0
    8.5120   -0.4341    5.7637 C   0  0  0  0  0  0  0  0  0  0  0  0
    8.9424   -1.5641    6.5164 O   0  0  0  0  0  0  0  0  0  0  0  0
    6.4179   -4.4406    7.1838 C   0  0  1  0  0  0  0  0  0  0  0  0
    6.2616   -3.3361    6.2215 O   0  0  0  0  0  0  0  0  0  0  0  0
    5.8123    3.4493    5.1018 C   0  0  0  0  0  0  0  0  0  0  0  0
    5.4761    2.2814    5.8105 O   0  0  0  0  0  0  0  0  0  0  0  0
    6.1666    2.1641    0.6229 C   0  0  1  0  0  0  0  0  0  0  0  0
    5.0076    1.4873    1.1173 O   0  0  0  0  0  0  0  0  0  0  0  0
    7.0508   -3.9026    8.5398 C   0  0  0  0  0  0  0  0  0  0  0  0
    8.4778   -3.4852    8.4612 N   0  0  0  0  0  0  0  0  0  0  0  0
  1  2  1  6  0  0  0
  1  7  1  0  0  0  0
  1 30  1  0  0  0  0
  3  4  1  6  0  0  0
  3  9  1  0  0  0  0
  3 39  1  0  0  0  0
  5 10  1  0  0  0  0
  5 26  1  0  0  0  0
  5 32  1  1  0  0  0
  6 12  1  0  0  0  0
  6 36  1  0  0  0  0
  6 19  1  6  0  0  0
  7  8  1  6  0  0  0
  7 14  1  0  0  0  0
  9 16  1  0  0  0  0
 10 11  1  6  0  0  0
 10 18  1  0  0  0  0
 12 13  1  1  0  0  0
 12 20  1  0  0  0  0
 14 15  1  1  0  0  0
 14 22  1  0  0  0  0
 16 17  1  6  0  0  0
 16 24  1  0  0  0  0
 18 19  1  6  0  0  0
 18 25  1  0  0  0  0
 20 21  1  6  0  0  0
 20 27  1  0  0  0  0
 22 23  1  1  0  0  0
 22 29  1  0  0  0  0
 24  2  1  1  0  0  0
 24 31  1  0  0  0  0
 25 26  1  0  0  0  0
 25 33  1  6  0  0  0
 27 28  1  6  0  0  0
 27 35  1  0  0  0  0
 29 30  1  0  0  0  0
 29 37  1  1  0  0  0
 31 32  1  6  0  0  0
 31 39  1  0  0  0  0
 33 34  1  0  0  0  0
 35 36  1  0  0  0  0
 35 41  1  1  0  0  0
 37 38  1  0  0  0  0
 39 40  1  1  0  0  0
 41 42  1  0  0  0  0
M  END
>  <CHROM.1>
174.68077645,39.19704225,154.21886823,170.82926811,-60.68367346,-67.58917485
176.74078022,160.55228083,170.95484351,7.10926001,0.37714289,4.13641039,-1.13972560
0.93174474,2.32423964

>  <Name>
ligand

>  <RI>
0

>  <Rbt.Current_Directory>
/home/itssahil/PROJECTS/Mol_Feturizer/Test_systems_manuscript/rnas/2o3w

>  <Rbt.Executable>
rbdock ($Id: //depot/dev/client3/rdock/2013.1/src/exe/rbdock.cxx#4 $)

>  <Rbt.Library>
libRbt.so (2013.1, Build901 2013/11/27)

>  <Rbt.Parameter_File>
/export/apps/rDock/src/rDock_2013.1_src/data/scripts/dock_solv.prm

>  <Rbt.Receptor>
prm/pocket_docking_5.prm

>  <SCORE>
-8.71128

>  <SCORE.INTER>
1.88097

>  <SCORE.INTER.CONST>
1

>  <SCORE.INTER.POLAR>
0

>  <SCORE.INTER.ROT>
9

>  <SCORE.INTER.SOLV>
12.1813

>  <SCORE.INTER.VDW>
-12.4065

>  <SCORE.INTER.norm>
0.044785

>  <SCORE.INTRA>
-10.5922

>  <SCORE.INTRA.DIHEDRAL>
-20.2412

>  <SCORE.INTRA.DIHEDRAL.0>
27.8999

>  <SCORE.INTRA.POLAR>
0

>  <SCORE.INTRA.POLAR.0>
0

>  <SCORE.INTRA.REPUL>
0

>  <SCORE.INTRA.REPUL.0>
0

>  <SCORE.INTRA.SOLV>
-1.97617

>  <SCORE.INTRA.SOLV.lig_0>
-104.479

>  <SCORE.INTRA.VDW>
0.51646

>  <SCORE.INTRA.VDW.0>
-6.17816

>  <SCORE.INTRA.norm>
-0.252196

>  <SCORE.RESTR>
0

>  <SCORE.RESTR.CAVITY>
0

>  <SCORE.RESTR.norm>
0

>  <SCORE.SYSTEM>
0

>  <SCORE.SYSTEM.CONST>
0

>  <SCORE.SYSTEM.DIHEDRAL>
0

>  <SCORE.SYSTEM.SOLV>
0

>  <SCORE.SYSTEM.norm>
0

>  <SCORE.heavy>
42

>  <SCORE.norm>
-0.207411

>  <RMSD>
9.554

$$$$
ligand
 OpenBabel02271912133D
libRbt.so/2013.1/901 2013/11/27
 42 45  0  0  0  0  0  0  0  0999 V2000
    2.9496    6.3852    0.2027 C   0  0  2  0  0  0  0  0  0  0  0  0
    3.9989    5.4215    0.0094 O   0  0  0  0  0  0  0  0  0  0  0  0
    1.5501    1.8467    0.1520 C   0  0  2  0  0  0  0  0  0  0  0  0
    1.1065    0.4229    0.2327 N   0  0  0  0  0  0  0  0  0  0  0  0
    5.1951    3.2657    2.3998 C   0  0  1  0  0  0  0  0  0  0  0  0
    8.9151    1.1722    3.6320 C   0  0  1  0  0  0  0  0  0  0  0  0
    3.5356    7.7783   -0.1768 C   0  0  2  0  0  0  0  0  0  0  0  0
    4.2106    7.7682   -1.4863 N   0  0  0  0  0  0  0  0  0  0  0  0
    2.3847    2.1141   -1.1647 C   0  0  0  0  0  0  0  0  0  0  0  0
    6.1064    3.7047    3.5862 C   0  0  2  0  0  0  0  0  0  0  0  0
    6.9873    4.8119    3.2744 O   0  0  0  0  0  0  0  0  0  0  0  0
   10.3519    1.2006    2.9967 C   0  0  2  0  0  0  0  0  0  0  0  0
   10.2761    1.1804    1.5051 N   0  0  0  0  0  0  0  0  0  0  0  0
    4.5671    8.2781    0.8514 C   0  0  1  0  0  0  0  0  0  0  0  0
    5.0472    9.5728    0.4852 O   0  0  0  0  0  0  0  0  0  0  0  0
    2.8037    3.6324   -1.2038 C   0  0  2  0  0  0  0  0  0  0  0  0
    3.5800    3.9234   -2.4393 N   0  0  0  0  0  0  0  0  0  0  0  0
    6.7982    2.3855    3.9332 C   0  0  2  0  0  0  0  0  0  0  0  0
    8.0433    2.2174    3.1834 O   0  0  0  0  0  0  0  0  0  0  0  0
   11.1979   -0.0438    3.5468 C   0  0  1  0  0  0  0  0  0  0  0  0
   11.5664    0.2126    4.9206 O   0  0  0  0  0  0  0  0  0  0  0  0
    3.9280    8.2904    2.2587 C   0  0  2  0  0  0  0  0  0  0  0  0
    4.8546    8.7616    3.2094 O   0  0  0  0  0  0  0  0  0  0  0  0
    3.6680    4.0045    0.0653 C   0  0  2  0  0  0  0  0  0  0  0  0
    5.7894    1.2751    3.5944 C   0  0  2  0  0  0  0  0  0  0  0  0
    5.0542    1.8304    2.5065 O   0  0  0  0  0  0  0  0  0  0  0  0
   10.3974   -1.4289    3.4562 C   0  0  2  0  0  0  0  0  0  0  0  0
   10.2761   -1.7669    2.0751 O   0  0  0  0  0  0  0  0  0  0  0  0
    3.4556    6.8421    2.6176 C   0  0  2  0  0  0  0  0  0  0  0  0
    2.5028    6.3721    1.6120 O   0  0  0  0  0  0  0  0  0  0  0  0
    2.9358    3.7159    1.3941 C   0  0  2  0  0  0  0  0  0  0  0  0
    3.9288    3.9369    2.4332 O   0  0  0  0  0  0  0  0  0  0  0  0
    4.8402    0.8689    4.7641 C   0  0  0  0  0  0  0  0  0  0  0  0
    3.9061   -0.0997    4.2972 O   0  0  0  0  0  0  0  0  0  0  0  0
    8.9712   -1.2905    4.1111 C   0  0  1  0  0  0  0  0  0  0  0  0
    8.2985   -0.1908    3.3980 O   0  0  0  0  0  0  0  0  0  0  0  0
    2.8094    6.7624    3.9813 C   0  0  0  0  0  0  0  0  0  0  0  0
    2.3779    5.4480    4.2374 O   0  0  0  0  0  0  0  0  0  0  0  0
    2.4177    2.2171    1.4211 C   0  0  1  0  0  0  0  0  0  0  0  0
    1.6115    1.9946    2.5813 O   0  0  0  0  0  0  0  0  0  0  0  0
    8.0925   -2.6136    4.0350 C   0  0  0  0  0  0  0  0  0  0  0  0
    6.7934   -2.5645    4.7607 N   0  0  0  0  0  0  0  0  0  0  0  0
  1  2  1  1  0  0  0
  1  7  1  0  0  0  0
  1 30  1  0  0  0  0
  3  4  1  1  0  0  0
  3  9  1  0  0  0  0
  3 39  1  0  0  0  0
  5 10  1  0  0  0  0
  5 26  1  0  0  0  0
  5 32  1  1  0  0  0
  6 12  1  0  0  0  0
  6 36  1  0  0  0  0
  6 19  1  6  0  0  0
  7  8  1  6  0  0  0
  7 14  1  0  0  0  0
  9 16  1  0  0  0  0
 10 11  1  6  0  0  0
 10 18  1  0  0  0  0
 12 13  1  6  0  0  0
 12 20  1  0  0  0  0
 14 15  1  6  0  0  0
 14 22  1  0  0  0  0
 16 17  1  6  0  0  0
 16 24  1  0  0  0  0
 18 19  1  6  0  0  0
 18 25  1  0  0  0  0
 20 21  1  1  0  0  0
 20 27  1  0  0  0  0
 22 23  1  1  0  0  0
 22 29  1  0  0  0  0
 24  2  1  6  0  0  0
 24 31  1  0  0  0  0
 25 26  1  0  0  0  0
 25 33  1  1  0  0  0
 27 28  1  6  0  0  0
 27 35  1  0  0  0  0
 29 30  1  0  0  0  0
 29 37  1  1  0  0  0
 31 32  1  1  0  0  0
 31 39  1  0  0  0  0
 33 34  1  0  0  0  0
 35 36  1  0  0  0  0
 35 41  1  6  0  0  0
 37 38  1  0  0  0  0
 39 40  1  1  0  0  0
 41 42  1  0  0  0  0
M  END
>  <CHROM.1>
-169.45308606,69.63968688,166.95390996,-168.51628224,176.31290950,178.64880177
-53.93923524,177.82522286,174.17174455,5.43457648,3.09605705,2.20279704,-2.27706446
0.33411437,3.03804485

>  <Name>
ligand

>  <RI>
0

>  <Rbt.Current_Directory>
/home/itssahil/PROJECTS/Mol_Feturizer/Test_systems_manuscript/rnas/2o3w

>  <Rbt.Executable>
rbdock ($Id: //depot/dev/client3/rdock/2013.1/src/exe/rbdock.cxx#4 $)

>  <Rbt.Library>
libRbt.so (2013.1, Build901 2013/11/27)

>  <Rbt.Parameter_File>
/export/apps/rDock/src/rDock_2013.1_src/data/scripts/dock_solv.prm

>  <Rbt.Receptor>
prm/pocket_docking_5.prm

>  <SCORE>
-10.54

>  <SCORE.INTER>
1.72086

>  <SCORE.INTER.CONST>
1

>  <SCORE.INTER.POLAR>
0

>  <SCORE.INTER.ROT>
9

>  <SCORE.INTER.SOLV>
16.7353

>  <SCORE.INTER.VDW>
-14.0312

>  <SCORE.INTER.norm>
0.0409729

>  <SCORE.INTRA>
-12.2609

>  <SCORE.INTRA.DIHEDRAL>
-24.9612

>  <SCORE.INTRA.DIHEDRAL.0>
27.8999

>  <SCORE.INTRA.POLAR>
0

>  <SCORE.INTRA.POLAR.0>
0

>  <SCORE.INTRA.REPUL>
0

>  <SCORE.INTRA.REPUL.0>
0

>  <SCORE.INTRA.SOLV>
-3.07202

>  <SCORE.INTRA.SOLV.lig_0>
-104.479

>  <SCORE.INTRA.VDW>
1.75573

>  <SCORE.INTRA.VDW.0>
-6.17816

>  <SCORE.INTRA.norm>
-0.291926

>  <SCORE.RESTR>
0

>  <SCORE.RESTR.CAVITY>
0

>  <SCORE.RESTR.norm>
0

>  <SCORE.SYSTEM>
0

>  <SCORE.SYSTEM.CONST>
0

>  <SCORE.SYSTEM.DIHEDRAL>
0

>  <SCORE.SYSTEM.SOLV>
0

>  <SCORE.SYSTEM.norm>
0

>  <SCORE.heavy>
42

>  <SCORE.norm>
-0.250953

>  <RMSD>
9.560

$$$$
ligand
 OpenBabel02271912133D
libRbt.so/2013.1/901 2013/11/27
 42 45  0  0  0  0  0  0  0  0999 V2000
   10.2570    6.5194    2.1364 C   0  0  2  0  0  0  0  0  0  0  0  0
   10.2855    5.0844    2.0521 O   0  0  0  0  0  0  0  0  0  0  0  0
    6.8414    4.5463   -0.5256 C   0  0  2  0  0  0  0  0  0  0  0  0
    5.8152    3.9463   -1.4296 N   0  0  0  0  0  0  0  0  0  0  0  0
    8.8498    2.1752    2.8040 C   0  0  1  0  0  0  0  0  0  0  0  0
   10.0138   -2.0694    3.0732 C   0  0  1  0  0  0  0  0  0  0  0  0
   11.3919    6.9402    3.1178 C   0  0  2  0  0  0  0  0  0  0  0  0
   12.6822    6.3082    2.7919 N   0  0  0  0  0  0  0  0  0  0  0  0
    8.2720    4.5446   -1.2002 C   0  0  0  0  0  0  0  0  0  0  0  0
    8.9843    1.4135    4.1577 C   0  0  2  0  0  0  0  0  0  0  0  0
   10.2173    1.6869    4.8677 O   0  0  0  0  0  0  0  0  0  0  0  0
   11.4176   -2.7388    2.8489 C   0  0  2  0  0  0  0  0  0  0  0  0
   12.1738   -2.0420    1.7656 N   0  0  0  0  0  0  0  0  0  0  0  0
   11.0704    6.5681    4.5769 C   0  0  1  0  0  0  0  0  0  0  0  0
   12.1172    7.0069    5.4444 O   0  0  0  0  0  0  0  0  0  0  0  0
    9.3035    5.2078   -0.2109 C   0  0  2  0  0  0  0  0  0  0  0  0
   10.6604    5.2361   -0.8206 N   0  0  0  0  0  0  0  0  0  0  0  0
    8.7880   -0.0341    3.7047 C   0  0  2  0  0  0  0  0  0  0  0  0
   10.0601   -0.6641    3.3501 O   0  0  0  0  0  0  0  0  0  0  0  0
   11.2144   -4.2899    2.5028 C   0  0  1  0  0  0  0  0  0  0  0  0
   10.8330   -4.9913    3.7076 O   0  0  0  0  0  0  0  0  0  0  0  0
    9.7100    7.1827    4.9781 C   0  0  2  0  0  0  0  0  0  0  0  0
    9.4089    6.8650    6.3170 O   0  0  0  0  0  0  0  0  0  0  0  0
    9.3527    4.4164    1.1555 C   0  0  2  0  0  0  0  0  0  0  0  0
    7.8391    0.0244    2.4957 C   0  0  2  0  0  0  0  0  0  0  0  0
    8.1476    1.2853    1.9062 O   0  0  0  0  0  0  0  0  0  0  0  0
   10.1100   -4.5345    1.3679 C   0  0  2  0  0  0  0  0  0  0  0  0
   10.6410   -4.0446    0.1372 O   0  0  0  0  0  0  0  0  0  0  0  0
    8.6007    6.6382    4.0175 C   0  0  2  0  0  0  0  0  0  0  0  0
    8.9406    6.9718    2.6344 O   0  0  0  0  0  0  0  0  0  0  0  0
    7.9742    4.3281    1.8464 C   0  0  2  0  0  0  0  0  0  0  0  0
    8.1670    3.4249    2.9695 O   0  0  0  0  0  0  0  0  0  0  0  0
    6.3217   -0.0759    2.8446 C   0  0  0  0  0  0  0  0  0  0  0  0
    5.5582   -0.0196    1.6435 O   0  0  0  0  0  0  0  0  0  0  0  0
    8.7722   -3.7817    1.7226 C   0  0  1  0  0  0  0  0  0  0  0  0
    9.1309   -2.3613    1.8782 O   0  0  0  0  0  0  0  0  0  0  0  0
    7.2322    7.1950    4.3350 C   0  0  0  0  0  0  0  0  0  0  0  0
    6.2890    6.7238    3.4035 O   0  0  0  0  0  0  0  0  0  0  0  0
    6.8919    3.7514    0.8405 C   0  0  1  0  0  0  0  0  0  0  0  0
    5.5898    3.8115    1.4290 O   0  0  0  0  0  0  0  0  0  0  0  0
    7.6287   -3.9433    0.6295 C   0  0  0  0  0  0  0  0  0  0  0  0
    7.1673   -5.3374    0.3840 N   0  0  0  0  0  0  0  0  0  0  0  0
  1  2  1  1  0  0  0
  1  7  1  0  0  0  0
  1 30  1  0  0  0  0
  3  4  1  6  0  0  0
  3  9  1  0  0  0  0
  3 39  1  0  0  0  0
  5 10  1  0  0  0  0
  5 26  1  0  0  0  0
  5 32  1  1  0  0  0
  6 12  1  0  0  0  0
  6 36  1  0  0  0  0
  6 19  1  6  0  0  0
  7  8  1  6  0  0  0
  7 14  1  0  0  0  0
  9 16  1  0  0  0  0
 10 11  1  6  0  0  0
 10 18  1  0  0  0  0
 12 13  1  6  0  0  0
 12 20  1  0  0  0  0
 14 15  1  1  0  0  0
 14 22  1  0  0  0  0
 16 17  1  6  0  0  0
 16 24  1  0  0  0  0
 18 19  1  6  0  0  0
 18 25  1  0  0  0  0
 20 21  1  1  0  0  0
 20 27  1  0  0  0  0
 22 23  1  1  0  0  0
 22 29  1  0  0  0  0
 24  2  1  1  0  0  0
 24 31  1  0  0  0  0
 25 26  1  0  0  0  0
 25 33  1  1  0  0  0
 27 28  1  6  0  0  0
 27 35  1  0  0  0  0
 29 30  1  0  0  0  0
 29 37  1  1  0  0  0
 31 32  1  1  0  0  0
 31 39  1  0  0  0  0
 33 34  1  0  0  0  0
 35 36  1  0  0  0  0
 35 41  1  6  0  0  0
 37 38  1  0  0  0  0
 39 40  1  1  0  0  0
 41 42  1  0  0  0  0
M  END
>  <CHROM.1>
-177.74477970,43.15999649,172.42528836,-173.72775517,-179.57083285,177.16480226
-47.15102293,177.58384828,61.19116326,9.05100047,2.11649059,2.35156162,-1.59196002
0.68081049,-3.00805103

>  <Name>
ligand

>  <RI>
0

>  <Rbt.Current_Directory>
/home/itssahil/PROJECTS/Mol_Feturizer/Test_systems_manuscript/rnas/2o3w

>  <Rbt.Executable>
rbdock ($Id: //depot/dev/client3/rdock/2013.1/src/exe/rbdock.cxx#4 $)

>  <Rbt.Library>
libRbt.so (2013.1, Build901 2013/11/27)

>  <Rbt.Parameter_File>
/export/apps/rDock/src/rDock_2013.1_src/data/scripts/dock_solv.prm

>  <Rbt.Receptor>
prm/pocket_docking_7.prm

>  <SCORE>
-10.0154

>  <SCORE.INTER>
2.36235

>  <SCORE.INTER.CONST>
1

>  <SCORE.INTER.POLAR>
0

>  <SCORE.INTER.ROT>
9

>  <SCORE.INTER.SOLV>
16.1496

>  <SCORE.INTER.VDW>
-13.4083

>  <SCORE.INTER.norm>
0.0562464

>  <SCORE.INTRA>
-12.3777

>  <SCORE.INTRA.DIHEDRAL>
-25.1128

>  <SCORE.INTRA.DIHEDRAL.0>
27.8999

>  <SCORE.INTRA.POLAR>
0

>  <SCORE.INTRA.POLAR.0>
0

>  <SCORE.INTRA.REPUL>
0

>  <SCORE.INTRA.REPUL.0>
0

>  <SCORE.INTRA.SOLV>
-4.49651

>  <SCORE.INTRA.SOLV.lig_0>
-104.479

>  <SCORE.INTRA.VDW>
2.42693

>  <SCORE.INTRA.VDW.0>
-6.17816

>  <SCORE.INTRA.norm>
-0.294707

>  <SCORE.RESTR>
0

>  <SCORE.RESTR.CAVITY>
0

>  <SCORE.RESTR.norm>
0

>  <SCORE.SYSTEM>
0

>  <SCORE.SYSTEM.CONST>
0

>  <SCORE.SYSTEM.DIHEDRAL>
0

>  <SCORE.SYSTEM.SOLV>
0

>  <SCORE.SYSTEM.norm>
0

>  <SCORE.heavy>
42

>  <SCORE.norm>
-0.238461

>  <RMSD>
9.565

$$$$
ligand
 OpenBabel02271912133D
libRbt.so/2013.1/901 2013/11/27
 42 45  0  0  0  0  0  0  0  0999 V2000
    4.8153    6.9460   -0.4551 C   0  0  2  0  0  0  0  0  0  0  0  0
    4.6333    5.7243    0.2808 O   0  0  0  0  0  0  0  0  0  0  0  0
    4.4381    1.5822   -0.9844 C   0  0  2  0  0  0  0  0  0  0  0  0
    4.7841    0.2469   -1.5570 N   0  0  0  0  0  0  0  0  0  0  0  0
    6.7168    3.0727    2.7416 C   0  0  1  0  0  0  0  0  0  0  0  0
    9.6789    1.8449    5.1576 C   0  0  1  0  0  0  0  0  0  0  0  0
    6.2735    7.4257   -0.1872 C   0  0  2  0  0  0  0  0  0  0  0  0
    7.2658    6.3570   -0.3962 N   0  0  0  0  0  0  0  0  0  0  0  0
    4.4024    2.6962   -2.1067 C   0  0  0  0  0  0  0  0  0  0  0  0
    8.0595    3.6081    3.3259 C   0  0  2  0  0  0  0  0  0  0  0  0
    9.2370    2.9552    2.7909 O   0  0  0  0  0  0  0  0  0  0  0  0
   10.1465    0.4832    5.7868 C   0  0  2  0  0  0  0  0  0  0  0  0
    9.7511    0.3963    7.2245 N   0  0  0  0  0  0  0  0  0  0  0  0
    6.4656    7.9355    1.2530 C   0  0  1  0  0  0  0  0  0  0  0  0
    7.8030    8.4009    1.4416 O   0  0  0  0  0  0  0  0  0  0  0  0
    4.0112    4.0726   -1.4472 C   0  0  2  0  0  0  0  0  0  0  0  0
    3.9539    5.1430   -2.4790 N   0  0  0  0  0  0  0  0  0  0  0  0
    7.8246    3.4247    4.8261 C   0  0  2  0  0  0  0  0  0  0  0  0
    8.2765    2.1108    5.2848 O   0  0  0  0  0  0  0  0  0  0  0  0
   11.7331    0.3394    5.6165 C   0  0  1  0  0  0  0  0  0  0  0  0
   12.0299    0.0485    4.2323 O   0  0  0  0  0  0  0  0  0  0  0  0
    5.4340    9.0482    1.5479 C   0  0  2  0  0  0  0  0  0  0  0  0
    5.6076    9.5375    2.8575 O   0  0  0  0  0  0  0  0  0  0  0  0
    5.0533    4.4701   -0.3283 C   0  0  2  0  0  0  0  0  0  0  0  0
    6.3124    3.6012    5.0437 C   0  0  2  0  0  0  0  0  0  0  0  0
    5.7546    3.1290    3.8196 O   0  0  0  0  0  0  0  0  0  0  0  0
   12.5291    1.6538    6.0706 C   0  0  2  0  0  0  0  0  0  0  0  0
   12.4125    1.7598    7.4889 O   0  0  0  0  0  0  0  0  0  0  0  0
    3.9917    8.4700    1.3602 C   0  0  2  0  0  0  0  0  0  0  0  0
    3.8396    7.9604   -0.0025 O   0  0  0  0  0  0  0  0  0  0  0  0
    5.1837    3.3988    0.7765 C   0  0  2  0  0  0  0  0  0  0  0  0
    6.2975    3.8359    1.6028 O   0  0  0  0  0  0  0  0  0  0  0  0
    5.8565    5.0633    5.3411 C   0  0  0  0  0  0  0  0  0  0  0  0
    4.4503    5.0808    5.5675 O   0  0  0  0  0  0  0  0  0  0  0  0
   11.9288    2.9346    5.3768 C   0  0  1  0  0  0  0  0  0  0  0  0
   10.5033    2.9702    5.7468 O   0  0  0  0  0  0  0  0  0  0  0  0
    2.9148    9.4970    1.6235 C   0  0  0  0  0  0  0  0  0  0  0  0
    1.6435    8.9020    1.5274 O   0  0  0  0  0  0  0  0  0  0  0  0
    5.4835    1.9804    0.1331 C   0  0  1  0  0  0  0  0  0  0  0  0
    5.4539    0.9655    1.1404 O   0  0  0  0  0  0  0  0  0  0  0  0
   12.6401    4.2929    5.7984 C   0  0  0  0  0  0  0  0  0  0  0  0
   12.1276    5.5206    5.1299 N   0  0  0  0  0  0  0  0  0  0  0  0
  1  2  1  1  0  0  0
  1  7  1  0  0  0  0
  1 30  1  0  0  0  0
  3  4  1  6  0  0  0
  3  9  1  0  0  0  0
  3 39  1  0  0  0  0
  5 10  1  0  0  0  0
  5 26  1  0  0  0  0
  5 32  1  6  0  0  0
  6 12  1  0  0  0  0
  6 36  1  0  0  0  0
  6 19  1  1  0  0  0
  7  8  1  1  0  0  0
  7 14  1  0  0  0  0
  9 16  1  0  0  0  0
 10 11  1  6  0  0  0
 10 18  1  0  0  0  0
 12 13  1  1  0  0  0
 12 20  1  0  0  0  0
 14 15  1  6  0  0  0
 14 22  1  0  0  0  0
 16 17  1  6  0  0  0
 16 24  1  0  0  0  0
 18 19  1  6  0  0  0
 18 25  1  0  0  0  0
 20 21  1  6  0  0  0
 20 27  1  0  0  0  0
 22 23  1  1  0  0  0
 22 29  1  0  0  0  0
 24  2  1  1  0  0  0
 24 31  1  0  0  0  0
 25 26  1  0  0  0  0
 25 33  1  6  0  0  0
 27 28  1  1  0  0  0
 27 35  1  0  0  0  0
 29 30  1  0  0  0  0
 29 37  1  6  0  0  0
 31 32  1  1  0  0  0
 31 39  1  0  0  0  0
 33 34  1  0  0  0  0
 35 36  1  0  0  0  0
 35 41  1  1  0  0  0
 37 38  1  0  0  0  0
 39 40  1  1  0  0  0
 41 42  1  0  0  0  0
M  END
>  <CHROM.1>
-84.97366838,-74.59016379,63.13098019,174.34593067,-177.98923621,-176.10857845
-179.85462937,170.72672586,178.14695237,7.08180345,4.27951030,2.60208544
-2.85269503,0.78832432,-2.83077137

>  <Name>
ligand

>  <RI>
0

>  <Rbt.Current_Directory>
/home/itssahil/PROJECTS/Mol_Feturizer/Test_systems_manuscript/rnas/2o3w

>  <Rbt.Executable>
rbdock ($Id: //depot/dev/client3/rdock/2013.1/src/exe/rbdock.cxx#4 $)

>  <Rbt.Library>
libRbt.so (2013.1, Build901 2013/11/27)

>  <Rbt.Parameter_File>
/export/apps/rDock/src/rDock_2013.1_src/data/scripts/dock_solv.prm

>  <Rbt.Receptor>
prm/pocket_docking_5.prm

>  <SCORE>
-10.5473

>  <SCORE.INTER>
-0.720217

>  <SCORE.INTER.CONST>
1

>  <SCORE.INTER.POLAR>
0

>  <SCORE.INTER.ROT>
9

>  <SCORE.INTER.SOLV>
15.1466

>  <SCORE.INTER.VDW>
-15.129

>  <SCORE.INTER.norm>
-0.017148

>  <SCORE.INTRA>
-9.82707

>  <SCORE.INTRA.DIHEDRAL>
-23.3966

>  <SCORE.INTRA.DIHEDRAL.0>
27.8999

>  <SCORE.INTRA.POLAR>
0

>  <SCORE.INTRA.POLAR.0>
0

>  <SCORE.INTRA.REPUL>
0

>  <SCORE.INTRA.REPUL.0>
0

>  <SCORE.INTRA.SOLV>
-2.72627

>  <SCORE.INTRA.SOLV.lig_0>
-104.479

>  <SCORE.INTRA.VDW>
3.23439

>  <SCORE.INTRA.VDW.0>
-6.17816

>  <SCORE.INTRA.norm>
-0.233978

>  <SCORE.RESTR>
0

>  <SCORE.RESTR.CAVITY>
0

>  <SCORE.RESTR.norm>
0

>  <SCORE.SYSTEM>
0

>  <SCORE.SYSTEM.CONST>
0

>  <SCORE.SYSTEM.DIHEDRAL>
0

>  <SCORE.SYSTEM.SOLV>
0

>  <SCORE.SYSTEM.norm>
0

>  <SCORE.heavy>
42

>  <SCORE.norm>
-0.251126

>  <RMSD>
9.572

$$$$
ligand
 OpenBabel02271912133D
libRbt.so/2013.1/901 2013/11/27
 42 45  0  0  0  0  0  0  0  0999 V2000
    9.9495    4.7639    5.5788 C   0  0  2  0  0  0  0  0  0  0  0  0
    8.8578    5.5242    6.1241 O   0  0  0  0  0  0  0  0  0  0  0  0
    4.6192    5.3970    5.2220 C   0  0  2  0  0  0  0  0  0  0  0  0
    3.3094    5.4650    4.5077 N   0  0  0  0  0  0  0  0  0  0  0  0
    7.6701    2.1065    4.0743 C   0  0  1  0  0  0  0  0  0  0  0  0
    7.9893   -2.1952    3.6005 C   0  0  1  0  0  0  0  0  0  0  0  0
   11.1739    4.9890    6.5161 C   0  0  2  0  0  0  0  0  0  0  0  0
   10.8440    4.7745    7.9358 N   0  0  0  0  0  0  0  0  0  0  0  0
    5.3167    6.8155    5.2779 C   0  0  0  0  0  0  0  0  0  0  0  0
    8.8410    1.4858    3.2531 C   0  0  2  0  0  0  0  0  0  0  0  0
    8.6583    1.5600    1.8177 O   0  0  0  0  0  0  0  0  0  0  0  0
    9.3548   -2.9697    3.5331 C   0  0  2  0  0  0  0  0  0  0  0  0
    9.8990   -2.9713    2.1421 N   0  0  0  0  0  0  0  0  0  0  0  0
   11.7423    6.4155    6.4022 C   0  0  1  0  0  0  0  0  0  0  0  0
   12.8847    6.5646    7.2470 O   0  0  0  0  0  0  0  0  0  0  0  0
    6.6781    6.6842    6.0602 C   0  0  2  0  0  0  0  0  0  0  0  0
    7.3559    8.0060    6.1447 N   0  0  0  0  0  0  0  0  0  0  0  0
    8.9010    0.0751    3.8410 C   0  0  2  0  0  0  0  0  0  0  0  0
    8.0401   -0.8514    3.1054 O   0  0  0  0  0  0  0  0  0  0  0  0
    9.1420   -4.4643    4.0695 C   0  0  1  0  0  0  0  0  0  0  0  0
    8.9877   -4.4275    5.5061 O   0  0  0  0  0  0  0  0  0  0  0  0
   12.0888    6.7162    4.9262 C   0  0  2  0  0  0  0  0  0  0  0  0
   12.6263    8.0129    4.8074 O   0  0  0  0  0  0  0  0  0  0  0  0
    7.6312    5.6443    5.3487 C   0  0  2  0  0  0  0  0  0  0  0  0
    8.4540    0.2068    5.3067 C   0  0  2  0  0  0  0  0  0  0  0  0
    7.5380    1.2984    5.2662 O   0  0  0  0  0  0  0  0  0  0  0  0
    7.8713   -5.1860    3.4123 C   0  0  2  0  0  0  0  0  0  0  0  0
    8.1749   -5.4266    2.0389 O   0  0  0  0  0  0  0  0  0  0  0  0
   10.7943    6.5724    4.0584 C   0  0  2  0  0  0  0  0  0  0  0  0
   10.2506    5.2225    4.2059 O   0  0  0  0  0  0  0  0  0  0  0  0
    6.9921    4.2455    5.2074 C   0  0  2  0  0  0  0  0  0  0  0  0
    7.9159    3.4852    4.3808 O   0  0  0  0  0  0  0  0  0  0  0  0
    9.6054    0.4777    6.3241 C   0  0  0  0  0  0  0  0  0  0  0  0
    9.0606    0.5727    7.6368 O   0  0  0  0  0  0  0  0  0  0  0  0
    6.5901   -4.2775    3.5365 C   0  0  1  0  0  0  0  0  0  0  0  0
    6.9281   -3.0018    2.8819 O   0  0  0  0  0  0  0  0  0  0  0  0
   11.0435    6.8440    2.5928 C   0  0  0  0  0  0  0  0  0  0  0  0
   12.0500    5.9901    2.1058 O   0  0  0  0  0  0  0  0  0  0  0  0
    5.5734    4.3583    4.5072 C   0  0  1  0  0  0  0  0  0  0  0  0
    4.9177    3.0872    4.5132 O   0  0  0  0  0  0  0  0  0  0  0  0
    5.2854   -4.9044    2.8782 C   0  0  0  0  0  0  0  0  0  0  0  0
    4.8080   -6.1772    3.4851 N   0  0  0  0  0  0  0  0  0  0  0  0
  1  2  1  1  0  0  0
  1  7  1  0  0  0  0
  1 30  1  0  0  0  0
  3  4  1  6  0  0  0
  3  9  1  0  0  0  0
  3 39  1  0  0  0  0
  5 10  1  0  0  0  0
  5 26  1  0  0  0  0
  5 32  1  1  0  0  0
  6 12  1  0  0  0  0
  6 36  1  0  0  0  0
  6 19  1  6  0  0  0
  7  8  1  1  0  0  0
  7 14  1  0  0  0  0
  9 16  1  0  0  0  0
 10 11  1  6  0  0  0
 10 18  1  0  0  0  0
 12 13  1  6  0  0  0
 12 20  1  0  0  0  0
 14 15  1  1  0  0  0
 14 22  1  0  0  0  0
 16 17  1  6  0  0  0
 16 24  1  0  0  0  0
 18 19  1  6  0  0  0
 18 25  1  0  0  0  0
 20 21  1  1  0  0  0
 20 27  1  0  0  0  0
 22 23  1  1  0  0  0
 22 29  1  0  0  0  0
 24  2  1  1  0  0  0
 24 31  1  0  0  0  0
 25 26  1  0  0  0  0
 25 33  1  1  0  0  0
 27 28  1  6  0  0  0
 27 35  1  0  0  0  0
 29 30  1  0  0  0  0
 29 37  1  6  0  0  0
 31 32  1  6  0  0  0
 31 39  1  0  0  0  0
 33 34  1  0  0  0  0
 35 36  1  0  0  0  0
 35 41  1  6  0  0  0
 37 38  1  0  0  0  0
 39 40  1  1  0  0  0
 41 42  1  0  0  0  0
M  END
>  <CHROM.1>
171.75820056,-172.01235209,-178.10757241,-63.71369636,-179.78529627,56.62688369
177.73056213,-176.37192062,62.86720600,8.51158679,2.05330018,4.54632828,-1.36695827
0.01778845,-2.96826565

>  <Name>
ligand

>  <RI>
0

>  <Rbt.Current_Directory>
/home/itssahil/PROJECTS/Mol_Feturizer/Test_systems_manuscript/rnas/2o3w

>  <Rbt.Executable>
rbdock ($Id: //depot/dev/client3/rdock/2013.1/src/exe/rbdock.cxx#4 $)

>  <Rbt.Library>
libRbt.so (2013.1, Build901 2013/11/27)

>  <Rbt.Parameter_File>
/export/apps/rDock/src/rDock_2013.1_src/data/scripts/dock_solv.prm

>  <Rbt.Receptor>
prm/pocket_docking_6.prm

>  <SCORE>
-11.9665

>  <SCORE.INTER>
1.49834

>  <SCORE.INTER.CONST>
1

>  <SCORE.INTER.POLAR>
0

>  <SCORE.INTER.ROT>
9

>  <SCORE.INTER.SOLV>
12.1861

>  <SCORE.INTER.VDW>
-12.6631

>  <SCORE.INTER.norm>
0.0356748

>  <SCORE.INTRA>
-13.4649

>  <SCORE.INTRA.DIHEDRAL>
-26.8685

>  <SCORE.INTRA.DIHEDRAL.0>
27.8999

>  <SCORE.INTRA.POLAR>
0

>  <SCORE.INTRA.POLAR.0>
0

>  <SCORE.INTRA.REPUL>
0

>  <SCORE.INTRA.REPUL.0>
0

>  <SCORE.INTRA.SOLV>
-5.6343

>  <SCORE.INTRA.SOLV.lig_0>
-104.479

>  <SCORE.INTRA.VDW>
2.78652

>  <SCORE.INTRA.VDW.0>
-6.17816

>  <SCORE.INTRA.norm>
-0.320592

>  <SCORE.RESTR>
0

>  <SCORE.RESTR.CAVITY>
0

>  <SCORE.RESTR.norm>
0

>  <SCORE.SYSTEM>
0

>  <SCORE.SYSTEM.CONST>
0

>  <SCORE.SYSTEM.DIHEDRAL>
0

>  <SCORE.SYSTEM.SOLV>
0

>  <SCORE.SYSTEM.norm>
0

>  <SCORE.heavy>
42

>  <SCORE.norm>
-0.284917

>  <RMSD>
9.574

$$$$
ligand
 OpenBabel02271912133D
libRbt.so/2013.1/901 2013/11/27
 42 45  0  0  0  0  0  0  0  0999 V2000
    7.7636    5.3912    1.1047 C   0  0  2  0  0  0  0  0  0  0  0  0
    7.6280    4.3379    2.0740 O   0  0  0  0  0  0  0  0  0  0  0  0
    5.6438    0.5101    1.6185 C   0  0  2  0  0  0  0  0  0  0  0  0
    5.3217   -0.8914    1.2158 N   0  0  0  0  0  0  0  0  0  0  0  0
    9.3062    1.1442    4.2626 C   0  0  1  0  0  0  0  0  0  0  0  0
   10.0864   -1.2206    5.9388 C   0  0  1  0  0  0  0  0  0  0  0  0
    8.7568    6.4333    1.7012 C   0  0  2  0  0  0  0  0  0  0  0  0
    9.9954    5.8106    2.1998 N   0  0  0  0  0  0  0  0  0  0  0  0
    5.6788    1.4739    0.3648 C   0  0  0  0  0  0  0  0  0  0  0  0
   10.8480    1.2650    4.4606 C   0  0  2  0  0  0  0  0  0  0  0  0
   11.6202    0.3469    3.6484 O   0  0  0  0  0  0  0  0  0  0  0  0
    9.8642   -2.4373    6.9078 C   0  0  2  0  0  0  0  0  0  0  0  0
   11.1262   -3.2169    7.0832 N   0  0  0  0  0  0  0  0  0  0  0  0
    8.1463    7.2145    2.8793 C   0  0  1  0  0  0  0  0  0  0  0  0
    9.0752    8.1837    3.3681 O   0  0  0  0  0  0  0  0  0  0  0  0
    6.0001    2.9366    0.8544 C   0  0  2  0  0  0  0  0  0  0  0  0
    6.0265    3.8747   -0.3001 N   0  0  0  0  0  0  0  0  0  0  0  0
   10.9690    1.0737    5.9733 C   0  0  2  0  0  0  0  0  0  0  0  0
   11.1453   -0.3356    6.3249 O   0  0  0  0  0  0  0  0  0  0  0  0
    8.6906   -3.3640    6.3325 C   0  0  1  0  0  0  0  0  0  0  0  0
    7.4255   -2.6953    6.5354 O   0  0  0  0  0  0  0  0  0  0  0  0
    6.8242    7.8767    2.4291 C   0  0  2  0  0  0  0  0  0  0  0  0
    6.2610    8.6098    3.4920 O   0  0  0  0  0  0  0  0  0  0  0  0
    7.3897    2.9802    1.6047 C   0  0  2  0  0  0  0  0  0  0  0  0
    9.6736    1.6410    6.5779 C   0  0  2  0  0  0  0  0  0  0  0  0
    8.7102    1.4021    5.5546 O   0  0  0  0  0  0  0  0  0  0  0  0
    8.8732   -3.7053    4.7776 C   0  0  2  0  0  0  0  0  0  0  0  0
    9.9968   -4.5766    4.6568 O   0  0  0  0  0  0  0  0  0  0  0  0
    5.8371    6.7649    1.9399 C   0  0  2  0  0  0  0  0  0  0  0  0
    6.4477    6.0125    0.8441 O   0  0  0  0  0  0  0  0  0  0  0  0
    7.4491    2.0183    2.8116 C   0  0  2  0  0  0  0  0  0  0  0  0
    8.8325    2.0509    3.2583 O   0  0  0  0  0  0  0  0  0  0  0  0
    9.7302    3.1543    6.9532 C   0  0  0  0  0  0  0  0  0  0  0  0
    8.4967    3.5364    7.5543 O   0  0  0  0  0  0  0  0  0  0  0  0
    9.1111   -2.3898    3.9440 C   0  0  1  0  0  0  0  0  0  0  0  0
   10.2957   -1.7412    4.5323 O   0  0  0  0  0  0  0  0  0  0  0  0
    4.5142    7.3265    1.4728 C   0  0  0  0  0  0  0  0  0  0  0  0
    3.8307    7.9180    2.5508 O   0  0  0  0  0  0  0  0  0  0  0  0
    7.0364    0.5530    2.3665 C   0  0  1  0  0  0  0  0  0  0  0  0
    6.9446   -0.3023    3.5092 O   0  0  0  0  0  0  0  0  0  0  0  0
    9.3364   -2.6399    2.3898 C   0  0  0  0  0  0  0  0  0  0  0  0
   10.4828   -3.5235    2.0411 N   0  0  0  0  0  0  0  0  0  0  0  0
  1  2  1  1  0  0  0
  1  7  1  0  0  0  0
  1 30  1  0  0  0  0
  3  4  1  6  0  0  0
  3  9  1  0  0  0  0
  3 39  1  0  0  0  0
  5 10  1  0  0  0  0
  5 26  1  0  0  0  0
  5 32  1  6  0  0  0
  6 12  1  0  0  0  0
  6 36  1  0  0  0  0
  6 19  1  1  0  0  0
  7  8  1  1  0  0  0
  7 14  1  0  0  0  0
  9 16  1  0  0  0  0
 10 11  1  6  0  0  0
 10 18  1  0  0  0  0
 12 13  1  6  0  0  0
 12 20  1  0  0  0  0
 14 15  1  6  0  0  0
 14 22  1  0  0  0  0
 16 17  1  6  0  0  0
 16 24  1  0  0  0  0
 18 19  1  6  0  0  0
 18 25  1  0  0  0  0
 20 21  1  6  0  0  0
 20 27  1  0  0  0  0
 22 23  1  1  0  0  0
 22 29  1  0  0  0  0
 24  2  1  1  0  0  0
 24 31  1  0  0  0  0
 25 26  1  0  0  0  0
 25 33  1  6  0  0  0
 27 28  1  1  0  0  0
 27 35  1  0  0  0  0
 29 30  1  0  0  0  0
 29 37  1  6  0  0  0
 31 32  1  6  0  0  0
 31 39  1  0  0  0  0
 33 34  1  0  0  0  0
 35 36  1  0  0  0  0
 35 41  1  6  0  0  0
 37 38  1  0  0  0  0
 39 40  1  1  0  0  0
 41 42  1  0  0  0  0
M  END
>  <CHROM.1>
-147.96266775,-63.33874734,-60.59105939,-148.18656465,-177.39918354,-65.13122321
-171.92774214,173.77172493,-58.45804493,8.26761758,1.89947849,3.59215503
2.09004265,-0.89322948,0.08449838

>  <Name>
ligand

>  <RI>
0

>  <Rbt.Current_Directory>
/home/itssahil/PROJECTS/Mol_Feturizer/Test_systems_manuscript/rnas/2o3w

>  <Rbt.Executable>
rbdock ($Id: //depot/dev/client3/rdock/2013.1/src/exe/rbdock.cxx#4 $)

>  <Rbt.Library>
libRbt.so (2013.1, Build901 2013/11/27)

>  <Rbt.Parameter_File>
/export/apps/rDock/src/rDock_2013.1_src/data/scripts/dock_solv.prm

>  <Rbt.Receptor>
prm/pocket_docking_3.prm

>  <SCORE>
-2.46075

>  <SCORE.INTER>
3.93997

>  <SCORE.INTER.CONST>
1

>  <SCORE.INTER.POLAR>
0

>  <SCORE.INTER.ROT>
9

>  <SCORE.INTER.SOLV>
8.55693

>  <SCORE.INTER.VDW>
-9.82566

>  <SCORE.INTER.norm>
0.0938089

>  <SCORE.INTRA>
-6.40209

>  <SCORE.INTRA.DIHEDRAL>
-19.2038

>  <SCORE.INTRA.DIHEDRAL.0>
27.8999

>  <SCORE.INTRA.POLAR>
0

>  <SCORE.INTRA.POLAR.0>
0

>  <SCORE.INTRA.REPUL>
0

>  <SCORE.INTRA.REPUL.0>
0

>  <SCORE.INTRA.SOLV>
0.0469574

>  <SCORE.INTRA.SOLV.lig_0>
-104.479

>  <SCORE.INTRA.VDW>
3.17634

>  <SCORE.INTRA.VDW.0>
-6.17816

>  <SCORE.INTRA.norm>
-0.152431

>  <SCORE.RESTR>
0.0013705

>  <SCORE.RESTR.CAVITY>
0.0013705

>  <SCORE.RESTR.norm>
3.26309e-05

>  <SCORE.SYSTEM>
0

>  <SCORE.SYSTEM.CONST>
0

>  <SCORE.SYSTEM.DIHEDRAL>
0

>  <SCORE.SYSTEM.SOLV>
0

>  <SCORE.SYSTEM.norm>
0

>  <SCORE.heavy>
42

>  <SCORE.norm>
-0.0585893

>  <RMSD>
9.577

$$$$
ligand
 OpenBabel02271912133D
libRbt.so/2013.1/901 2013/11/27
 42 45  0  0  0  0  0  0  0  0999 V2000
   10.5012    6.5836    2.1478 C   0  0  2  0  0  0  0  0  0  0  0  0
   10.2334    5.1726    2.2145 O   0  0  0  0  0  0  0  0  0  0  0  0
    7.0695    5.0174   -0.7456 C   0  0  2  0  0  0  0  0  0  0  0  0
    6.0359    4.5267   -1.7055 N   0  0  0  0  0  0  0  0  0  0  0  0
    7.5864    2.7610    3.0226 C   0  0  1  0  0  0  0  0  0  0  0  0
    8.5139   -1.5576    3.6637 C   0  0  1  0  0  0  0  0  0  0  0  0
   11.5453    6.9017    3.2600 C   0  0  2  0  0  0  0  0  0  0  0  0
   12.7034    5.9918    3.2228 N   0  0  0  0  0  0  0  0  0  0  0  0
    8.5233    4.5917   -1.2004 C   0  0  0  0  0  0  0  0  0  0  0  0
    8.9753    2.0875    2.8034 C   0  0  2  0  0  0  0  0  0  0  0  0
    9.2755    1.7938    1.4168 O   0  0  0  0  0  0  0  0  0  0  0  0
    7.9265   -2.7817    2.8729 C   0  0  2  0  0  0  0  0  0  0  0  0
    6.4729   -2.5865    2.5907 N   0  0  0  0  0  0  0  0  0  0  0  0
   10.9433    6.7979    4.6734 C   0  0  1  0  0  0  0  0  0  0  0  0
   11.9227    7.1355    5.6571 O   0  0  0  0  0  0  0  0  0  0  0  0
    9.5678    5.1553   -0.1641 C   0  0  2  0  0  0  0  0  0  0  0  0
   10.9505    4.7851   -0.5696 N   0  0  0  0  0  0  0  0  0  0  0  0
    8.8666    0.8746    3.7288 C   0  0  2  0  0  0  0  0  0  0  0  0
    8.3162   -0.2874    3.0303 O   0  0  0  0  0  0  0  0  0  0  0  0
    8.1745   -4.1226    3.7139 C   0  0  1  0  0  0  0  0  0  0  0  0
    9.5753   -4.4703    3.6365 O   0  0  0  0  0  0  0  0  0  0  0  0
    9.7029    7.7146    4.7741 C   0  0  2  0  0  0  0  0  0  0  0  0
    9.1497    7.6438    6.0677 O   0  0  0  0  0  0  0  0  0  0  0  0
    9.2726    4.5969    1.2840 C   0  0  2  0  0  0  0  0  0  0  0  0
    7.9579    1.3078    4.8915 C   0  0  2  0  0  0  0  0  0  0  0  0
    7.0845    2.2548    4.2808 O   0  0  0  0  0  0  0  0  0  0  0  0
    7.7412   -3.9824    5.2502 C   0  0  2  0  0  0  0  0  0  0  0  0
    6.3176   -3.8914    5.2897 O   0  0  0  0  0  0  0  0  0  0  0  0
    8.6540    7.2742    3.6992 C   0  0  2  0  0  0  0  0  0  0  0  0
    9.2543    7.3471    2.3673 O   0  0  0  0  0  0  0  0  0  0  0  0
    7.8455    4.9270    1.7737 C   0  0  2  0  0  0  0  0  0  0  0  0
    7.6888    4.1909    3.0179 O   0  0  0  0  0  0  0  0  0  0  0  0
    8.7028    1.9357    6.1102 C   0  0  0  0  0  0  0  0  0  0  0  0
    9.6233    0.9861    6.6391 O   0  0  0  0  0  0  0  0  0  0  0  0
    8.3878   -2.6987    5.8952 C   0  0  1  0  0  0  0  0  0  0  0  0
    7.9495   -1.5605    5.0688 O   0  0  0  0  0  0  0  0  0  0  0  0
    7.4054    8.1252    3.7223 C   0  0  0  0  0  0  0  0  0  0  0  0
    6.7306    7.9631    4.9460 O   0  0  0  0  0  0  0  0  0  0  0  0
    6.7748    4.4553    0.7028 C   0  0  1  0  0  0  0  0  0  0  0  0
    5.4684    4.8951    1.0843 O   0  0  0  0  0  0  0  0  0  0  0  0
    7.9823   -2.4630    7.4146 C   0  0  0  0  0  0  0  0  0  0  0  0
    8.4427   -3.5066    8.3714 N   0  0  0  0  0  0  0  0  0  0  0  0
  1  2  1  1  0  0  0
  1  7  1  0  0  0  0
  1 30  1  0  0  0  0
  3  4  1  6  0  0  0
  3  9  1  0  0  0  0
  3 39  1  0  0  0  0
  5 10  1  0  0  0  0
  5 26  1  0  0  0  0
  5 32  1  1  0  0  0
  6 12  1  0  0  0  0
  6 36  1  0  0  0  0
  6 19  1  6  0  0  0
  7  8  1  1  0  0  0
  7 14  1  0  0  0  0
  9 16  1  0  0  0  0
 10 11  1  6  0  0  0
 10 18  1  0  0  0  0
 12 13  1  1  0  0  0
 12 20  1  0  0  0  0
 14 15  1  1  0  0  0
 14 22  1  0  0  0  0
 16 17  1  6  0  0  0
 16 24  1  0  0  0  0
 18 19  1  6  0  0  0
 18 25  1  0  0  0  0
 20 21  1  1  0  0  0
 20 27  1  0  0  0  0
 22 23  1  1  0  0  0
 22 29  1  0  0  0  0
 24  2  1  1  0  0  0
 24 31  1  0  0  0  0
 25 26  1  0  0  0  0
 25 33  1  1  0  0  0
 27 28  1  6  0  0  0
 27 35  1  0  0  0  0
 29 30  1  0  0  0  0
 29 37  1  6  0  0  0
 31 32  1  1  0  0  0
 31 39  1  0  0  0  0
 33 34  1  0  0  0  0
 35 36  1  0  0  0  0
 35 41  1  1  0  0  0
 37 38  1  0  0  0  0
 39 40  1  1  0  0  0
 41 42  1  0  0  0  0
M  END
>  <CHROM.1>
179.47446375,45.69575763,163.03929051,-179.17175036,-59.97868559,-64.26924141
-70.09755346,76.45979426,64.34205816,8.60402764,2.66909680,3.36847921,-1.21518371
1.21248278,2.55976534

>  <Name>
ligand

>  <RI>
0

>  <Rbt.Current_Directory>
/home/itssahil/PROJECTS/Mol_Feturizer/Test_systems_manuscript/rnas/2o3w

>  <Rbt.Executable>
rbdock ($Id: //depot/dev/client3/rdock/2013.1/src/exe/rbdock.cxx#4 $)

>  <Rbt.Library>
libRbt.so (2013.1, Build901 2013/11/27)

>  <Rbt.Parameter_File>
/export/apps/rDock/src/rDock_2013.1_src/data/scripts/dock_solv.prm

>  <Rbt.Receptor>
prm/pocket_docking_5.prm

>  <SCORE>
-12.8559

>  <SCORE.INTER>
-1.86489

>  <SCORE.INTER.CONST>
1

>  <SCORE.INTER.POLAR>
0

>  <SCORE.INTER.ROT>
9

>  <SCORE.INTER.SOLV>
19.4447

>  <SCORE.INTER.VDW>
-17.3248

>  <SCORE.INTER.norm>
-0.0444022

>  <SCORE.INTRA>
-10.991

>  <SCORE.INTRA.DIHEDRAL>
-23.5879

>  <SCORE.INTRA.DIHEDRAL.0>
27.8999

>  <SCORE.INTRA.POLAR>
0

>  <SCORE.INTRA.POLAR.0>
0

>  <SCORE.INTRA.REPUL>
0

>  <SCORE.INTRA.REPUL.0>
0

>  <SCORE.INTRA.SOLV>
-3.81937

>  <SCORE.INTRA.SOLV.lig_0>
-104.479

>  <SCORE.INTRA.VDW>
2.71266

>  <SCORE.INTRA.VDW.0>
-6.17816

>  <SCORE.INTRA.norm>
-0.26169

>  <SCORE.RESTR>
0

>  <SCORE.RESTR.CAVITY>
0

>  <SCORE.RESTR.norm>
0

>  <SCORE.SYSTEM>
0

>  <SCORE.SYSTEM.CONST>
0

>  <SCORE.SYSTEM.DIHEDRAL>
0

>  <SCORE.SYSTEM.SOLV>
0

>  <SCORE.SYSTEM.norm>
0

>  <SCORE.heavy>
42

>  <SCORE.norm>
-0.306092

>  <RMSD>
9.588

$$$$
ligand
 OpenBabel02271912133D
libRbt.so/2013.1/901 2013/11/27
 42 45  0  0  0  0  0  0  0  0999 V2000
    5.1566    6.3815    1.0882 C   0  0  2  0  0  0  0  0  0  0  0  0
    6.0323    5.2528    1.2508 O   0  0  0  0  0  0  0  0  0  0  0  0
    3.1228    2.1430    0.4382 C   0  0  2  0  0  0  0  0  0  0  0  0
    2.4801    0.8146    0.2087 N   0  0  0  0  0  0  0  0  0  0  0  0
    6.2434    2.3223    3.5411 C   0  0  1  0  0  0  0  0  0  0  0  0
    9.7555   -0.2718    3.8908 C   0  0  1  0  0  0  0  0  0  0  0  0
    5.9837    7.6538    1.4419 C   0  0  2  0  0  0  0  0  0  0  0  0
    7.2788    7.6972    0.7410 N   0  0  0  0  0  0  0  0  0  0  0  0
    4.1841    2.4694   -0.6883 C   0  0  0  0  0  0  0  0  0  0  0  0
    7.3081    2.2182    2.4069 C   0  0  2  0  0  0  0  0  0  0  0  0
    6.9074    1.3763    1.2980 O   0  0  0  0  0  0  0  0  0  0  0  0
   11.1223    0.0512    3.1864 C   0  0  2  0  0  0  0  0  0  0  0  0
   11.1005   -0.3801    1.7565 N   0  0  0  0  0  0  0  0  0  0  0  0
    6.2895    7.7520    2.9478 C   0  0  1  0  0  0  0  0  0  0  0  0
    7.0132    8.9507    3.2313 O   0  0  0  0  0  0  0  0  0  0  0  0
    4.8092    3.8877   -0.4049 C   0  0  2  0  0  0  0  0  0  0  0  0
    5.8037    4.2341   -1.4558 N   0  0  0  0  0  0  0  0  0  0  0  0
    8.5319    1.7425    3.1911 C   0  0  2  0  0  0  0  0  0  0  0  0
    8.6040    0.2820    3.2419 O   0  0  0  0  0  0  0  0  0  0  0  0
   12.3114   -0.6658    3.9857 C   0  0  1  0  0  0  0  0  0  0  0  0
   12.5363    0.0441    5.2244 O   0  0  0  0  0  0  0  0  0  0  0  0
    4.9683    7.6879    3.7475 C   0  0  2  0  0  0  0  0  0  0  0  0
    5.2297    7.7933    5.1277 O   0  0  0  0  0  0  0  0  0  0  0  0
    5.5047    3.9165    1.0133 C   0  0  2  0  0  0  0  0  0  0  0  0
    8.3929    2.3428    4.6003 C   0  0  2  0  0  0  0  0  0  0  0  0
    6.9805    2.4116    4.7820 O   0  0  0  0  0  0  0  0  0  0  0  0
   12.0091   -2.2079    4.2989 C   0  0  2  0  0  0  0  0  0  0  0  0
   12.0447   -2.9144    3.0595 O   0  0  0  0  0  0  0  0  0  0  0  0
    4.2405    6.3406    3.4238 C   0  0  2  0  0  0  0  0  0  0  0  0
    3.9890    6.2505    1.9856 O   0  0  0  0  0  0  0  0  0  0  0  0
    4.5387    3.5509    2.1616 C   0  0  2  0  0  0  0  0  0  0  0  0
    5.3756    3.4466    3.3461 O   0  0  0  0  0  0  0  0  0  0  0  0
    9.0516    3.7448    4.7863 C   0  0  0  0  0  0  0  0  0  0  0  0
   10.4536    3.6400    4.5573 O   0  0  0  0  0  0  0  0  0  0  0  0
   10.5973   -2.3706    4.9790 C   0  0  1  0  0  0  0  0  0  0  0  0
    9.6239   -1.7720    4.0493 O   0  0  0  0  0  0  0  0  0  0  0  0
    2.9296    6.1960    4.1616 C   0  0  0  0  0  0  0  0  0  0  0  0
    2.2408    5.0564    3.7075 O   0  0  0  0  0  0  0  0  0  0  0  0
    3.8214    2.1696    1.8566 C   0  0  1  0  0  0  0  0  0  0  0  0
    2.8188    1.9062    2.8421 O   0  0  0  0  0  0  0  0  0  0  0  0
   10.2005   -3.8776    5.2950 C   0  0  0  0  0  0  0  0  0  0  0  0
   11.1087   -4.5985    6.2289 N   0  0  0  0  0  0  0  0  0  0  0  0
  1  2  1  1  0  0  0
  1  7  1  0  0  0  0
  1 30  1  0  0  0  0
  3  4  1  6  0  0  0
  3  9  1  0  0  0  0
  3 39  1  0  0  0  0
  5 10  1  0  0  0  0
  5 26  1  0  0  0  0
  5 32  1  6  0  0  0
  6 12  1  0  0  0  0
  6 36  1  0  0  0  0
  6 19  1  6  0  0  0
  7  8  1  6  0  0  0
  7 14  1  0  0  0  0
  9 16  1  0  0  0  0
 10 11  1  6  0  0  0
 10 18  1  0  0  0  0
 12 13  1  6  0  0  0
 12 20  1  0  0  0  0
 14 15  1  6  0  0  0
 14 22  1  0  0  0  0
 16 17  1  6  0  0  0
 16 24  1  0  0  0  0
 18 19  1  1  0  0  0
 18 25  1  0  0  0  0
 20 21  1  1  0  0  0
 20 27  1  0  0  0  0
 22 23  1  1  0  0  0
 22 29  1  0  0  0  0
 24  2  1  1  0  0  0
 24 31  1  0  0  0  0
 25 26  1  0  0  0  0
 25 33  1  6  0  0  0
 27 28  1  6  0  0  0
 27 35  1  0  0  0  0
 29 30  1  0  0  0  0
 29 37  1  1  0  0  0
 31 32  1  1  0  0  0
 31 39  1  0  0  0  0
 33 34  1  0  0  0  0
 35 36  1  0  0  0  0
 35 41  1  6  0  0  0
 37 38  1  0  0  0  0
 39 40  1  1  0  0  0
 41 42  1  0  0  0  0
M  END
>  <CHROM.1>
178.58226283,52.01565286,176.64987430,-63.69695480,-61.80575163,172.51437400
-74.05097648,61.21723792,60.83465846,7.11334456,2.69033707,2.89949438,-2.35590505
0.47966071,-2.98154508

>  <Name>
ligand

>  <RI>
0

>  <Rbt.Current_Directory>
/home/itssahil/PROJECTS/Mol_Feturizer/Test_systems_manuscript/rnas/2o3w

>  <Rbt.Executable>
rbdock ($Id: //depot/dev/client3/rdock/2013.1/src/exe/rbdock.cxx#4 $)

>  <Rbt.Library>
libRbt.so (2013.1, Build901 2013/11/27)

>  <Rbt.Parameter_File>
/export/apps/rDock/src/rDock_2013.1_src/data/scripts/dock_solv.prm

>  <Rbt.Receptor>
prm/pocket_docking_8.prm

>  <SCORE>
-8.7122

>  <SCORE.INTER>
3.16837

>  <SCORE.INTER.CONST>
1

>  <SCORE.INTER.POLAR>
0

>  <SCORE.INTER.ROT>
9

>  <SCORE.INTER.SOLV>
12.2295

>  <SCORE.INTER.VDW>
-11.5643

>  <SCORE.INTER.norm>
0.0754373

>  <SCORE.INTRA>
-11.8806

>  <SCORE.INTRA.DIHEDRAL>
-26.162

>  <SCORE.INTRA.DIHEDRAL.0>
27.8999

>  <SCORE.INTRA.POLAR>
0

>  <SCORE.INTRA.POLAR.0>
0

>  <SCORE.INTRA.REPUL>
0

>  <SCORE.INTRA.REPUL.0>
0

>  <SCORE.INTRA.SOLV>
-3.45399

>  <SCORE.INTRA.SOLV.lig_0>
-104.479

>  <SCORE.INTRA.VDW>
2.9274

>  <SCORE.INTRA.VDW.0>
-6.17816

>  <SCORE.INTRA.norm>
-0.282871

>  <SCORE.RESTR>
0

>  <SCORE.RESTR.CAVITY>
0

>  <SCORE.RESTR.norm>
0

>  <SCORE.SYSTEM>
0

>  <SCORE.SYSTEM.CONST>
0

>  <SCORE.SYSTEM.DIHEDRAL>
0

>  <SCORE.SYSTEM.SOLV>
0

>  <SCORE.SYSTEM.norm>
0

>  <SCORE.heavy>
42

>  <SCORE.norm>
-0.207433

>  <RMSD>
9.606

$$$$
ligand
 OpenBabel02271912133D
libRbt.so/2013.1/901 2013/11/27
 42 45  0  0  0  0  0  0  0  0999 V2000
   10.9006    3.3658    6.1914 C   0  0  2  0  0  0  0  0  0  0  0  0
   11.9634    3.4953    7.1510 O   0  0  0  0  0  0  0  0  0  0  0  0
   14.5331    0.5982    9.1002 C   0  0  2  0  0  0  0  0  0  0  0  0
   15.0252   -0.5838    9.8690 N   0  0  0  0  0  0  0  0  0  0  0  0
   10.9892    0.0368    6.5032 C   0  0  1  0  0  0  0  0  0  0  0  0
    7.9860   -3.0831    6.8413 C   0  0  1  0  0  0  0  0  0  0  0  0
   10.6966    4.7694    5.5460 C   0  0  2  0  0  0  0  0  0  0  0  0
   11.9608    5.3637    5.0778 N   0  0  0  0  0  0  0  0  0  0  0  0
   13.6927    1.5721   10.0205 C   0  0  0  0  0  0  0  0  0  0  0  0
    9.9838   -0.2272    5.3412 C   0  0  2  0  0  0  0  0  0  0  0  0
    8.8894    0.7203    5.2822 O   0  0  0  0  0  0  0  0  0  0  0  0
    7.6415   -4.0016    5.6139 C   0  0  2  0  0  0  0  0  0  0  0  0
    6.6236   -3.3549    4.7327 N   0  0  0  0  0  0  0  0  0  0  0  0
   10.0674    5.7771    6.5257 C   0  0  1  0  0  0  0  0  0  0  0  0
    9.8625    7.0355    5.8813 O   0  0  0  0  0  0  0  0  0  0  0  0
   13.2220    2.8063    9.1615 C   0  0  2  0  0  0  0  0  0  0  0  0
   12.4390    3.7526   10.0012 N   0  0  0  0  0  0  0  0  0  0  0  0
    9.5885   -1.6793    5.6146 C   0  0  2  0  0  0  0  0  0  0  0  0
    8.4229   -1.7629    6.4950 O   0  0  0  0  0  0  0  0  0  0  0  0
    7.1240   -5.4217    6.1451 C   0  0  1  0  0  0  0  0  0  0  0  0
    8.2503   -6.1666    6.6602 O   0  0  0  0  0  0  0  0  0  0  0  0
    8.7423    5.2024    7.0762 C   0  0  2  0  0  0  0  0  0  0  0  0
    8.1451    6.1205    7.9621 O   0  0  0  0  0  0  0  0  0  0  0  0
   12.3426    2.3305    7.9383 C   0  0  2  0  0  0  0  0  0  0  0  0
   10.8199   -2.3408    6.2561 C   0  0  2  0  0  0  0  0  0  0  0  0
   11.4362   -1.2620    6.9554 O   0  0  0  0  0  0  0  0  0  0  0  0
    6.0034   -5.2896    7.2827 C   0  0  2  0  0  0  0  0  0  0  0  0
    4.8220   -4.7783    6.6667 O   0  0  0  0  0  0  0  0  0  0  0  0
    9.0357    3.8461    7.8000 C   0  0  2  0  0  0  0  0  0  0  0  0
    9.6634    2.9143    6.8633 O   0  0  0  0  0  0  0  0  0  0  0  0
   13.0813    1.3296    7.0231 C   0  0  2  0  0  0  0  0  0  0  0  0
   12.0790    0.8651    6.0775 O   0  0  0  0  0  0  0  0  0  0  0  0
   11.8140   -2.9974    5.2487 C   0  0  0  0  0  0  0  0  0  0  0  0
   11.1430   -4.0275    4.5294 O   0  0  0  0  0  0  0  0  0  0  0  0
    6.4849   -4.3198    8.4272 C   0  0  1  0  0  0  0  0  0  0  0  0
    6.7933   -3.0363    7.7731 O   0  0  0  0  0  0  0  0  0  0  0  0
    7.7885    3.2076    8.3663 C   0  0  0  0  0  0  0  0  0  0  0  0
    8.1296    2.0948    9.1567 O   0  0  0  0  0  0  0  0  0  0  0  0
   13.6505    0.1209    7.8780 C   0  0  1  0  0  0  0  0  0  0  0  0
   14.4613   -0.7249    7.0578 O   0  0  0  0  0  0  0  0  0  0  0  0
    5.4167   -4.1038    9.5852 C   0  0  0  0  0  0  0  0  0  0  0  0
    4.0835   -3.6083    9.1449 N   0  0  0  0  0  0  0  0  0  0  0  0
  1  2  1  1  0  0  0
  1  7  1  0  0  0  0
  1 30  1  0  0  0  0
  3  4  1  1  0  0  0
  3  9  1  0  0  0  0
  3 39  1  0  0  0  0
  5 10  1  0  0  0  0
  5 26  1  0  0  0  0
  5 32  1  6  0  0  0
  6 12  1  0  0  0  0
  6 36  1  0  0  0  0
  6 19  1  6  0  0  0
  7  8  1  1  0  0  0
  7 14  1  0  0  0  0
  9 16  1  0  0  0  0
 10 11  1  1  0  0  0
 10 18  1  0  0  0  0
 12 13  1  1  0  0  0
 12 20  1  0  0  0  0
 14 15  1  6  0  0  0
 14 22  1  0  0  0  0
 16 17  1  1  0  0  0
 16 24  1  0  0  0  0
 18 19  1  1  0  0  0
 18 25  1  0  0  0  0
 20 21  1  1  0  0  0
 20 27  1  0  0  0  0
 22 23  1  1  0  0  0
 22 29  1  0  0  0  0
 24  2  1  6  0  0  0
 24 31  1  0  0  0  0
 25 26  1  0  0  0  0
 25 33  1  6  0  0  0
 27 28  1  6  0  0  0
 27 35  1  0  0  0  0
 29 30  1  0  0  0  0
 29 37  1  6  0  0  0
 31 32  1  6  0  0  0
 31 39  1  0  0  0  0
 33 34  1  0  0  0  0
 35 36  1  0  0  0  0
 35 41  1  1  0  0  0
 37 38  1  0  0  0  0
 39 40  1  6  0  0  0
 41 42  1  0  0  0  0
M  END
>  <CHROM.1>
178.28428524,-164.64332974,-178.61070070,-56.89585799,-60.91493934,-172.02713451
-68.68772863,175.01815326,-56.12199936,9.87687210,0.10534731,7.10282856,1.08421153
-0.03892261,0.03851087

>  <Name>
ligand

>  <RI>
0

>  <Rbt.Current_Directory>
/home/itssahil/PROJECTS/Mol_Feturizer/Test_systems_manuscript/rnas/2o3w

>  <Rbt.Executable>
rbdock ($Id: //depot/dev/client3/rdock/2013.1/src/exe/rbdock.cxx#4 $)

>  <Rbt.Library>
libRbt.so (2013.1, Build901 2013/11/27)

>  <Rbt.Parameter_File>
/export/apps/rDock/src/rDock_2013.1_src/data/scripts/dock_solv.prm

>  <Rbt.Receptor>
prm/pocket_docking_6.prm

>  <SCORE>
-11.9474

>  <SCORE.INTER>
0.679778

>  <SCORE.INTER.CONST>
1

>  <SCORE.INTER.POLAR>
0

>  <SCORE.INTER.ROT>
9

>  <SCORE.INTER.SOLV>
17.3367

>  <SCORE.INTER.VDW>
-14.9257

>  <SCORE.INTER.norm>
0.0161852

>  <SCORE.INTRA>
-12.6272

>  <SCORE.INTRA.DIHEDRAL>
-25.8096

>  <SCORE.INTRA.DIHEDRAL.0>
27.8999

>  <SCORE.INTRA.POLAR>
0

>  <SCORE.INTRA.POLAR.0>
0

>  <SCORE.INTRA.REPUL>
0

>  <SCORE.INTRA.REPUL.0>
0

>  <SCORE.INTRA.SOLV>
-3.1448

>  <SCORE.INTRA.SOLV.lig_0>
-104.479

>  <SCORE.INTRA.VDW>
1.85001

>  <SCORE.INTRA.VDW.0>
-6.17816

>  <SCORE.INTRA.norm>
-0.300647

>  <SCORE.RESTR>
0

>  <SCORE.RESTR.CAVITY>
0

>  <SCORE.RESTR.norm>
0

>  <SCORE.SYSTEM>
0

>  <SCORE.SYSTEM.CONST>
0

>  <SCORE.SYSTEM.DIHEDRAL>
0

>  <SCORE.SYSTEM.SOLV>
0

>  <SCORE.SYSTEM.norm>
0

>  <SCORE.heavy>
42

>  <SCORE.norm>
-0.284462

>  <RMSD>
9.607

$$$$
ligand
 OpenBabel02271912133D
libRbt.so/2013.1/901 2013/11/27
 42 45  0  0  0  0  0  0  0  0999 V2000
    5.0771    6.2884   -1.9001 C   0  0  2  0  0  0  0  0  0  0  0  0
    4.0820    6.7946   -0.9941 O   0  0  0  0  0  0  0  0  0  0  0  0
    3.5673   10.7320   -2.7341 C   0  0  2  0  0  0  0  0  0  0  0  0
    3.0297   12.0836   -3.0725 N   0  0  0  0  0  0  0  0  0  0  0  0
    4.9864    7.9443    1.3453 C   0  0  1  0  0  0  0  0  0  0  0  0
    6.2246    4.9132    4.2648 C   0  0  1  0  0  0  0  0  0  0  0  0
    5.5495    4.9148   -1.3360 C   0  0  2  0  0  0  0  0  0  0  0  0
    4.4236    4.0247   -1.0032 N   0  0  0  0  0  0  0  0  0  0  0  0
    2.5779    9.5883   -3.1976 C   0  0  0  0  0  0  0  0  0  0  0  0
    5.5091    8.3229    2.7646 C   0  0  2  0  0  0  0  0  0  0  0  0
    6.8865    8.7716    2.7849 O   0  0  0  0  0  0  0  0  0  0  0  0
    6.1537    5.1416    5.8177 C   0  0  2  0  0  0  0  0  0  0  0  0
    7.3347    5.9204    6.2969 N   0  0  0  0  0  0  0  0  0  0  0  0
    6.3898    5.0671   -0.0547 C   0  0  1  0  0  0  0  0  0  0  0  0
    6.8336    3.7890    0.4038 O   0  0  0  0  0  0  0  0  0  0  0  0
    3.2080    8.1905   -2.8348 C   0  0  2  0  0  0  0  0  0  0  0  0
    2.3083    7.0886   -3.2707 N   0  0  0  0  0  0  0  0  0  0  0  0
    5.2200    7.0369    3.5404 C   0  0  2  0  0  0  0  0  0  0  0  0
    6.3528    6.1122    3.4904 O   0  0  0  0  0  0  0  0  0  0  0  0
    6.0613    3.7232    6.5570 C   0  0  1  0  0  0  0  0  0  0  0  0
    4.7368    3.1792    6.3601 O   0  0  0  0  0  0  0  0  0  0  0  0
    7.5809    6.0133   -0.3287 C   0  0  2  0  0  0  0  0  0  0  0  0
    8.3698    6.1500    0.8303 O   0  0  0  0  0  0  0  0  0  0  0  0
    3.4642    8.0818   -1.2797 C   0  0  2  0  0  0  0  0  0  0  0  0
    3.9692    6.4213    2.8908 C   0  0  2  0  0  0  0  0  0  0  0  0
    4.0769    6.8355    1.5309 O   0  0  0  0  0  0  0  0  0  0  0  0
    7.1544    2.6758    6.0321 C   0  0  2  0  0  0  0  0  0  0  0  0
    8.4336    3.1322    6.4700 O   0  0  0  0  0  0  0  0  0  0  0  0
    7.0322    7.4041   -0.7915 C   0  0  2  0  0  0  0  0  0  0  0  0
    6.2096    7.2346   -1.9892 O   0  0  0  0  0  0  0  0  0  0  0  0
    4.3801    9.2039   -0.7438 C   0  0  2  0  0  0  0  0  0  0  0  0
    4.3548    9.0594    0.7029 O   0  0  0  0  0  0  0  0  0  0  0  0
    2.6127    6.8788    3.5111 C   0  0  0  0  0  0  0  0  0  0  0  0
    2.4575    6.2820    4.7951 O   0  0  0  0  0  0  0  0  0  0  0  0
    7.1196    2.5769    4.4601 C   0  0  1  0  0  0  0  0  0  0  0  0
    7.3467    3.9435    3.9590 O   0  0  0  0  0  0  0  0  0  0  0  0
    8.1343    8.3943   -1.0889 C   0  0  0  0  0  0  0  0  0  0  0  0
    7.5882    9.5959   -1.5760 O   0  0  0  0  0  0  0  0  0  0  0  0
    3.8203   10.6233   -1.1769 C   0  0  1  0  0  0  0  0  0  0  0  0
    4.7458   11.6510   -0.8122 O   0  0  0  0  0  0  0  0  0  0  0  0
    8.1988    1.5812    3.8498 C   0  0  0  0  0  0  0  0  0  0  0  0
    9.6176    1.8939    4.1752 N   0  0  0  0  0  0  0  0  0  0  0  0
  1  2  1  1  0  0  0
  1  7  1  0  0  0  0
  1 30  1  0  0  0  0
  3  4  1  1  0  0  0
  3  9  1  0  0  0  0
  3 39  1  0  0  0  0
  5 10  1  0  0  0  0
  5 26  1  0  0  0  0
  5 32  1  1  0  0  0
  6 12  1  0  0  0  0
  6 36  1  0  0  0  0
  6 19  1  6  0  0  0
  7  8  1  1  0  0  0
  7 14  1  0  0  0  0
  9 16  1  0  0  0  0
 10 11  1  6  0  0  0
 10 18  1  0  0  0  0
 12 13  1  1  0  0  0
 12 20  1  0  0  0  0
 14 15  1  6  0  0  0
 14 22  1  0  0  0  0
 16 17  1  1  0  0  0
 16 24  1  0  0  0  0
 18 19  1  6  0  0  0
 18 25  1  0  0  0  0
 20 21  1  6  0  0  0
 20 27  1  0  0  0  0
 22 23  1  1  0  0  0
 22 29  1  0  0  0  0
 24  2  1  6  0  0  0
 24 31  1  0  0  0  0
 25 26  1  0  0  0  0
 25 33  1  1  0  0  0
 27 28  1  6  0  0  0
 27 35  1  0  0  0  0
 29 30  1  0  0  0  0
 29 37  1  6  0  0  0
 31 32  1  1  0  0  0
 31 39  1  0  0  0  0
 33 34  1  0  0  0  0
 35 36  1  0  0  0  0
 35 41  1  6  0  0  0
 37 38  1  0  0  0  0
 39 40  1  6  0  0  0
 41 42  1  0  0  0  0
M  END
>  <CHROM.1>
179.87252693,39.61264288,175.74515698,-65.04404564,-72.04934966,176.46041480
69.92729004,149.46197041,-58.70014157,5.57270809,6.55516132,1.37415676,-2.01866900
-0.82306906,1.90579043

>  <Name>
ligand

>  <RI>
0

>  <Rbt.Current_Directory>
/home/itssahil/PROJECTS/Mol_Feturizer/Test_systems_manuscript/rnas/2o3w

>  <Rbt.Executable>
rbdock ($Id: //depot/dev/client3/rdock/2013.1/src/exe/rbdock.cxx#4 $)

>  <Rbt.Library>
libRbt.so (2013.1, Build901 2013/11/27)

>  <Rbt.Parameter_File>
/export/apps/rDock/src/rDock_2013.1_src/data/scripts/dock_solv.prm

>  <Rbt.Receptor>
prm/pocket_docking_6.prm

>  <SCORE>
-9.52925

>  <SCORE.INTER>
-0.829282

>  <SCORE.INTER.CONST>
1

>  <SCORE.INTER.POLAR>
0

>  <SCORE.INTER.ROT>
9

>  <SCORE.INTER.SOLV>
9.67942

>  <SCORE.INTER.VDW>
-13.3793

>  <SCORE.INTER.norm>
-0.0197448

>  <SCORE.INTRA>
-8.69997

>  <SCORE.INTRA.DIHEDRAL>
-20.9544

>  <SCORE.INTRA.DIHEDRAL.0>
27.8999

>  <SCORE.INTRA.POLAR>
0

>  <SCORE.INTRA.POLAR.0>
0

>  <SCORE.INTRA.REPUL>
0.474034

>  <SCORE.INTRA.REPUL.0>
0

>  <SCORE.INTRA.SOLV>
-0.968594

>  <SCORE.INTRA.SOLV.lig_0>
-104.479

>  <SCORE.INTRA.VDW>
-0.108638

>  <SCORE.INTRA.VDW.0>
-6.17816

>  <SCORE.INTRA.norm>
-0.207142

>  <SCORE.RESTR>
0

>  <SCORE.RESTR.CAVITY>
0

>  <SCORE.RESTR.norm>
0

>  <SCORE.SYSTEM>
0

>  <SCORE.SYSTEM.CONST>
0

>  <SCORE.SYSTEM.DIHEDRAL>
0

>  <SCORE.SYSTEM.SOLV>
0

>  <SCORE.SYSTEM.norm>
0

>  <SCORE.heavy>
42

>  <SCORE.norm>
-0.226887

>  <RMSD>
9.608

$$$$
ligand
 OpenBabel02271912133D
libRbt.so/2013.1/901 2013/11/27
 42 45  0  0  0  0  0  0  0  0999 V2000
    6.5764    5.6844   -2.7975 C   0  0  2  0  0  0  0  0  0  0  0  0
    5.7286    4.8617   -1.9779 O   0  0  0  0  0  0  0  0  0  0  0  0
    1.7093    3.3722   -2.6277 C   0  0  2  0  0  0  0  0  0  0  0  0
    0.5292    2.6447   -3.1833 N   0  0  0  0  0  0  0  0  0  0  0  0
    5.5204    1.4676   -0.2600 C   0  0  1  0  0  0  0  0  0  0  0  0
    7.3663    1.5520    3.4342 C   0  0  1  0  0  0  0  0  0  0  0  0
    8.0402    5.2035   -2.5643 C   0  0  2  0  0  0  0  0  0  0  0  0
    8.1820    3.7432   -2.6982 N   0  0  0  0  0  0  0  0  0  0  0  0
    2.2853    4.4127   -3.6704 C   0  0  0  0  0  0  0  0  0  0  0  0
    6.0053    2.4986    0.8043 C   0  0  2  0  0  0  0  0  0  0  0  0
    7.4441    2.6611    0.8547 O   0  0  0  0  0  0  0  0  0  0  0  0
    8.5106    0.5247    3.7566 C   0  0  2  0  0  0  0  0  0  0  0  0
    7.9830   -0.6338    4.5379 N   0  0  0  0  0  0  0  0  0  0  0  0
    8.5608    5.5742   -1.1633 C   0  0  1  0  0  0  0  0  0  0  0  0
    9.9161    5.1502   -1.0081 O   0  0  0  0  0  0  0  0  0  0  0  0
    3.5097    5.1618   -3.0207 C   0  0  2  0  0  0  0  0  0  0  0  0
    4.0686    6.1609   -3.9710 N   0  0  0  0  0  0  0  0  0  0  0  0
    5.3567    1.9429    2.0731 C   0  0  2  0  0  0  0  0  0  0  0  0
    6.2356    0.9922    2.7545 O   0  0  0  0  0  0  0  0  0  0  0  0
    9.6820    1.2714    4.5548 C   0  0  1  0  0  0  0  0  0  0  0  0
   10.4077    2.1183    3.6354 O   0  0  0  0  0  0  0  0  0  0  0  0
    8.4177    7.0979   -0.9467 C   0  0  2  0  0  0  0  0  0  0  0  0
    8.9056    7.4561    0.3254 O   0  0  0  0  0  0  0  0  0  0  0  0
    4.6365    4.1339   -2.6087 C   0  0  2  0  0  0  0  0  0  0  0  0
    4.0500    1.2690    1.6217 C   0  0  2  0  0  0  0  0  0  0  0  0
    4.3603    0.8159    0.3061 O   0  0  0  0  0  0  0  0  0  0  0  0
    9.1381    2.1513    5.7785 C   0  0  2  0  0  0  0  0  0  0  0  0
    8.6554    1.2514    6.7752 O   0  0  0  0  0  0  0  0  0  0  0  0
    6.9109    7.4952   -1.0930 C   0  0  2  0  0  0  0  0  0  0  0  0
    6.4257    7.1049   -2.4167 O   0  0  0  0  0  0  0  0  0  0  0  0
    4.1303    3.0500   -1.6319 C   0  0  2  0  0  0  0  0  0  0  0  0
    5.2266    2.1024   -1.5113 O   0  0  0  0  0  0  0  0  0  0  0  0
    2.7980    2.1999    1.6140 C   0  0  0  0  0  0  0  0  0  0  0  0
    1.6279    1.4128    1.4131 O   0  0  0  0  0  0  0  0  0  0  0  0
    7.9815    3.1097    5.3030 C   0  0  1  0  0  0  0  0  0  0  0  0
    6.9465    2.2418    4.7152 O   0  0  0  0  0  0  0  0  0  0  0  0
    6.6788    8.9762   -0.9019 C   0  0  0  0  0  0  0  0  0  0  0  0
    7.3341    9.7040   -1.9120 O   0  0  0  0  0  0  0  0  0  0  0  0
    2.8377    2.3427   -2.2186 C   0  0  1  0  0  0  0  0  0  0  0  0
    2.2824    1.4481   -1.2507 O   0  0  0  0  0  0  0  0  0  0  0  0
    7.3584    3.9988    6.4649 C   0  0  0  0  0  0  0  0  0  0  0  0
    6.2984    4.9555    6.0433 N   0  0  0  0  0  0  0  0  0  0  0  0
  1  2  1  1  0  0  0
  1  7  1  0  0  0  0
  1 30  1  0  0  0  0
  3  4  1  6  0  0  0
  3  9  1  0  0  0  0
  3 39  1  0  0  0  0
  5 10  1  0  0  0  0
  5 26  1  0  0  0  0
  5 32  1  6  0  0  0
  6 12  1  0  0  0  0
  6 36  1  0  0  0  0
  6 19  1  1  0  0  0
  7  8  1  1  0  0  0
  7 14  1  0  0  0  0
  9 16  1  0  0  0  0
 10 11  1  1  0  0  0
 10 18  1  0  0  0  0
 12 13  1  1  0  0  0
 12 20  1  0  0  0  0
 14 15  1  6  0  0  0
 14 22  1  0  0  0  0
 16 17  1  6  0  0  0
 16 24  1  0  0  0  0
 18 19  1  6  0  0  0
 18 25  1  0  0  0  0
 20 21  1  6  0  0  0
 20 27  1  0  0  0  0
 22 23  1  1  0  0  0
 22 29  1  0  0  0  0
 24  2  1  1  0  0  0
 24 31  1  0  0  0  0
 25 26  1  0  0  0  0
 25 33  1  6  0  0  0
 27 28  1  1  0  0  0
 27 35  1  0  0  0  0
 29 30  1  0  0  0  0
 29 37  1  6  0  0  0
 31 32  1  6  0  0  0
 31 39  1  0  0  0  0
 33 34  1  0  0  0  0
 35 36  1  0  0  0  0
 35 41  1  1  0  0  0
 37 38  1  0  0  0  0
 39 40  1  1  0  0  0
 41 42  1  0  0  0  0
M  END
>  <CHROM.1>
-124.47535879,-72.05670168,72.91383590,-161.59762725,-169.74656632,63.79993483
142.99508225,-65.62718272,177.71936035,6.12494878,3.59021516,0.52531601,-2.05671192
0.61058119,2.28971728

>  <Name>
ligand

>  <RI>
0

>  <Rbt.Current_Directory>
/home/itssahil/PROJECTS/Mol_Feturizer/Test_systems_manuscript/rnas/2o3w

>  <Rbt.Executable>
rbdock ($Id: //depot/dev/client3/rdock/2013.1/src/exe/rbdock.cxx#4 $)

>  <Rbt.Library>
libRbt.so (2013.1, Build901 2013/11/27)

>  <Rbt.Parameter_File>
/export/apps/rDock/src/rDock_2013.1_src/data/scripts/dock_solv.prm

>  <Rbt.Receptor>
prm/pocket_docking_7.prm

>  <SCORE>
-6.12094

>  <SCORE.INTER>
-0.425478

>  <SCORE.INTER.CONST>
1

>  <SCORE.INTER.POLAR>
0

>  <SCORE.INTER.ROT>
9

>  <SCORE.INTER.SOLV>
13.4216

>  <SCORE.INTER.VDW>
-14.3575

>  <SCORE.INTER.norm>
-0.0101304

>  <SCORE.INTRA>
-5.69546

>  <SCORE.INTRA.DIHEDRAL>
-12.1796

>  <SCORE.INTRA.DIHEDRAL.0>
27.8999

>  <SCORE.INTRA.POLAR>
0

>  <SCORE.INTRA.POLAR.0>
0

>  <SCORE.INTRA.REPUL>
0

>  <SCORE.INTRA.REPUL.0>
0

>  <SCORE.INTRA.SOLV>
-1.50542

>  <SCORE.INTRA.SOLV.lig_0>
-104.479

>  <SCORE.INTRA.VDW>
1.14704

>  <SCORE.INTRA.VDW.0>
-6.17816

>  <SCORE.INTRA.norm>
-0.135606

>  <SCORE.RESTR>
0

>  <SCORE.RESTR.CAVITY>
0

>  <SCORE.RESTR.norm>
0

>  <SCORE.SYSTEM>
0

>  <SCORE.SYSTEM.CONST>
0

>  <SCORE.SYSTEM.DIHEDRAL>
0

>  <SCORE.SYSTEM.SOLV>
0

>  <SCORE.SYSTEM.norm>
0

>  <SCORE.heavy>
42

>  <SCORE.norm>
-0.145737

>  <RMSD>
9.630

$$$$
ligand
 OpenBabel02271912133D
libRbt.so/2013.1/901 2013/11/27
 42 45  0  0  0  0  0  0  0  0999 V2000
    6.1764    6.3818   -1.1521 C   0  0  2  0  0  0  0  0  0  0  0  0
    4.8907    5.7460   -1.2525 O   0  0  0  0  0  0  0  0  0  0  0  0
    3.5510    1.6367   -0.9134 C   0  0  2  0  0  0  0  0  0  0  0  0
    3.4289    0.1573   -1.0770 N   0  0  0  0  0  0  0  0  0  0  0  0
    7.1695    3.7422    1.3542 C   0  0  1  0  0  0  0  0  0  0  0  0
   10.0237    3.3282    4.6942 C   0  0  1  0  0  0  0  0  0  0  0  0
    5.9182    7.8764   -0.7947 C   0  0  2  0  0  0  0  0  0  0  0  0
    4.9966    8.0326    0.3441 N   0  0  0  0  0  0  0  0  0  0  0  0
    3.2758    2.3896   -2.2769 C   0  0  0  0  0  0  0  0  0  0  0  0
    8.3273    2.6982    1.3645 C   0  0  2  0  0  0  0  0  0  0  0  0
    7.9053    1.3536    1.7009 O   0  0  0  0  0  0  0  0  0  0  0  0
   11.4073    2.5909    4.5895 C   0  0  2  0  0  0  0  0  0  0  0  0
   11.2284    1.1094    4.6531 N   0  0  0  0  0  0  0  0  0  0  0  0
    5.3091    8.6617   -1.9708 C   0  0  1  0  0  0  0  0  0  0  0  0
    5.1267   10.0324   -1.6123 O   0  0  0  0  0  0  0  0  0  0  0  0
    3.3966    3.9420   -2.0361 C   0  0  2  0  0  0  0  0  0  0  0  0
    3.1289    4.6837   -3.2978 N   0  0  0  0  0  0  0  0  0  0  0  0
    9.3058    3.3495    2.3431 C   0  0  2  0  0  0  0  0  0  0  0  0
    9.0552    2.9213    3.7195 O   0  0  0  0  0  0  0  0  0  0  0  0
   12.3705    3.1052    5.7620 C   0  0  1  0  0  0  0  0  0  0  0  0
   12.8168    4.4432    5.4469 O   0  0  0  0  0  0  0  0  0  0  0  0
    6.2189    8.5192   -3.2122 C   0  0  2  0  0  0  0  0  0  0  0  0
    5.6836    9.2465   -4.2934 O   0  0  0  0  0  0  0  0  0  0  0  0
    4.8355    4.3119   -1.4989 C   0  0  2  0  0  0  0  0  0  0  0  0
    9.1139    4.8675    2.1880 C   0  0  2  0  0  0  0  0  0  0  0  0
    7.7380    4.9826    1.8331 O   0  0  0  0  0  0  0  0  0  0  0  0
   11.6592    3.1016    7.1978 C   0  0  2  0  0  0  0  0  0  0  0  0
   11.4638    1.7403    7.5786 O   0  0  0  0  0  0  0  0  0  0  0  0
    6.3511    7.0030   -3.5770 C   0  0  2  0  0  0  0  0  0  0  0  0
    6.8994    6.2687   -2.4368 O   0  0  0  0  0  0  0  0  0  0  0  0
    5.1973    3.5680   -0.1946 C   0  0  2  0  0  0  0  0  0  0  0  0
    6.5970    3.8795    0.0471 O   0  0  0  0  0  0  0  0  0  0  0  0
   10.0279    5.5405    1.1175 C   0  0  0  0  0  0  0  0  0  0  0  0
    9.7506    6.9369    1.0730 O   0  0  0  0  0  0  0  0  0  0  0  0
   10.2765    3.8541    7.1350 C   0  0  1  0  0  0  0  0  0  0  0  0
    9.4839    3.1680    6.0999 O   0  0  0  0  0  0  0  0  0  0  0  0
    7.2334    6.7695   -4.7815 C   0  0  0  0  0  0  0  0  0  0  0  0
    8.5551    7.1587   -4.4973 O   0  0  0  0  0  0  0  0  0  0  0  0
    4.9926    2.0060   -0.3787 C   0  0  1  0  0  0  0  0  0  0  0  0
    5.1809    1.3333    0.8694 O   0  0  0  0  0  0  0  0  0  0  0  0
    9.4842    3.8695    8.5137 C   0  0  0  0  0  0  0  0  0  0  0  0
    8.1785    4.5845    8.4962 N   0  0  0  0  0  0  0  0  0  0  0  0
  1  2  1  6  0  0  0
  1  7  1  0  0  0  0
  1 30  1  0  0  0  0
  3  4  1  6  0  0  0
  3  9  1  0  0  0  0
  3 39  1  0  0  0  0
  5 10  1  0  0  0  0
  5 26  1  0  0  0  0
  5 32  1  6  0  0  0
  6 12  1  0  0  0  0
  6 36  1  0  0  0  0
  6 19  1  6  0  0  0
  7  8  1  1  0  0  0
  7 14  1  0  0  0  0
  9 16  1  0  0  0  0
 10 11  1  1  0  0  0
 10 18  1  0  0  0  0
 12 13  1  1  0  0  0
 12 20  1  0  0  0  0
 14 15  1  1  0  0  0
 14 22  1  0  0  0  0
 16 17  1  6  0  0  0
 16 24  1  0  0  0  0
 18 19  1  1  0  0  0
 18 25  1  0  0  0  0
 20 21  1  6  0  0  0
 20 27  1  0  0  0  0
 22 23  1  6  0  0  0
 22 29  1  0  0  0  0
 24  2  1  1  0  0  0
 24 31  1  0  0  0  0
 25 26  1  0  0  0  0
 25 33  1  6  0  0  0
 27 28  1  6  0  0  0
 27 35  1  0  0  0  0
 29 30  1  0  0  0  0
 29 37  1  6  0  0  0
 31 32  1  6  0  0  0
 31 39  1  0  0  0  0
 33 34  1  0  0  0  0
 35 36  1  0  0  0  0
 35 41  1  1  0  0  0
 37 38  1  0  0  0  0
 39 40  1  1  0  0  0
 41 42  1  0  0  0  0
M  END
>  <CHROM.1>
-176.26613292,-161.41060556,171.90522987,-71.42801691,179.91475917,64.84177719
159.45743438,118.74899035,179.38727759,7.49222061,4.56666643,1.11183807,-2.33763692
0.77442746,2.51807187

>  <Name>
ligand

>  <RI>
0

>  <Rbt.Current_Directory>
/home/itssahil/PROJECTS/Mol_Feturizer/Test_systems_manuscript/rnas/2o3w

>  <Rbt.Executable>
rbdock ($Id: //depot/dev/client3/rdock/2013.1/src/exe/rbdock.cxx#4 $)

>  <Rbt.Library>
libRbt.so (2013.1, Build901 2013/11/27)

>  <Rbt.Parameter_File>
/export/apps/rDock/src/rDock_2013.1_src/data/scripts/dock_solv.prm

>  <Rbt.Receptor>
prm/pocket_docking_6.prm

>  <SCORE>
-7.59462

>  <SCORE.INTER>
1.57396

>  <SCORE.INTER.CONST>
1

>  <SCORE.INTER.POLAR>
0

>  <SCORE.INTER.ROT>
9

>  <SCORE.INTER.SOLV>
12.93

>  <SCORE.INTER.VDW>
-12.8607

>  <SCORE.INTER.norm>
0.0374753

>  <SCORE.INTRA>
-9.16858

>  <SCORE.INTRA.DIHEDRAL>
-16.0255

>  <SCORE.INTRA.DIHEDRAL.0>
27.8999

>  <SCORE.INTRA.POLAR>
0

>  <SCORE.INTRA.POLAR.0>
0

>  <SCORE.INTRA.REPUL>
0

>  <SCORE.INTRA.REPUL.0>
0

>  <SCORE.INTRA.SOLV>
-5.37599

>  <SCORE.INTRA.SOLV.lig_0>
-104.479

>  <SCORE.INTRA.VDW>
1.53217

>  <SCORE.INTRA.VDW.0>
-6.17816

>  <SCORE.INTRA.norm>
-0.2183

>  <SCORE.RESTR>
0

>  <SCORE.RESTR.CAVITY>
0

>  <SCORE.RESTR.norm>
0

>  <SCORE.SYSTEM>
0

>  <SCORE.SYSTEM.CONST>
0

>  <SCORE.SYSTEM.DIHEDRAL>
0

>  <SCORE.SYSTEM.SOLV>
0

>  <SCORE.SYSTEM.norm>
0

>  <SCORE.heavy>
42

>  <SCORE.norm>
-0.180824

>  <RMSD>
9.634

$$$$
ligand
 OpenBabel02271912133D
libRbt.so/2013.1/901 2013/11/27
 42 45  0  0  0  0  0  0  0  0999 V2000
    8.5292    4.1484    3.1869 C   0  0  2  0  0  0  0  0  0  0  0  0
    7.4446    5.0584    3.4372 O   0  0  0  0  0  0  0  0  0  0  0  0
    3.1671    4.5586    2.9376 C   0  0  2  0  0  0  0  0  0  0  0  0
    1.8182    4.3160    2.3443 N   0  0  0  0  0  0  0  0  0  0  0  0
    6.2164    1.0900    3.0815 C   0  0  1  0  0  0  0  0  0  0  0  0
    6.7537   -2.8432    2.1501 C   0  0  1  0  0  0  0  0  0  0  0  0
    9.7199    4.6019    4.0839 C   0  0  2  0  0  0  0  0  0  0  0  0
    9.3218    4.8088    5.4872 N   0  0  0  0  0  0  0  0  0  0  0  0
    3.8289    5.8663    2.3428 C   0  0  0  0  0  0  0  0  0  0  0  0
    7.2757    0.1650    2.4086 C   0  0  2  0  0  0  0  0  0  0  0  0
    6.8866   -0.3226    1.1009 O   0  0  0  0  0  0  0  0  0  0  0  0
    5.8159   -4.1004    2.0550 C   0  0  2  0  0  0  0  0  0  0  0  0
    5.9160   -4.9351    3.2895 N   0  0  0  0  0  0  0  0  0  0  0  0
   10.3460    5.9229    3.5999 C   0  0  1  0  0  0  0  0  0  0  0  0
   11.4560    6.2791    4.4257 O   0  0  0  0  0  0  0  0  0  0  0  0
    5.2348    6.0805    3.0212 C   0  0  2  0  0  0  0  0  0  0  0  0
    5.8810    7.3129    2.4946 N   0  0  0  0  0  0  0  0  0  0  0  0
    7.4628   -0.9048    3.4855 C   0  0  2  0  0  0  0  0  0  0  0  0
    6.5340   -2.0205    3.3027 O   0  0  0  0  0  0  0  0  0  0  0  0
    6.2015   -4.9503    0.7528 C   0  0  1  0  0  0  0  0  0  0  0  0
    5.7346   -4.2461   -0.4199 O   0  0  0  0  0  0  0  0  0  0  0  0
   10.7663    5.7822    2.1192 C   0  0  2  0  0  0  0  0  0  0  0  0
   11.3568    6.9780    1.6656 O   0  0  0  0  0  0  0  0  0  0  0  0
    6.1739    4.8370    2.7613 C   0  0  2  0  0  0  0  0  0  0  0  0
    7.2271   -0.1983    4.8311 C   0  0  2  0  0  0  0  0  0  0  0  0
    6.2816    0.8160    4.4999 O   0  0  0  0  0  0  0  0  0  0  0  0
    7.7767   -5.2155    0.6270 C   0  0  2  0  0  0  0  0  0  0  0  0
    8.1456   -6.1210    1.6665 O   0  0  0  0  0  0  0  0  0  0  0  0
    9.5056    5.4281    1.2620 C   0  0  2  0  0  0  0  0  0  0  0  0
    8.9057    4.1895    1.7578 O   0  0  0  0  0  0  0  0  0  0  0  0
    5.5651    3.5108    3.2670 C   0  0  2  0  0  0  0  0  0  0  0  0
    6.4612    2.4713    2.7863 O   0  0  0  0  0  0  0  0  0  0  0  0
    8.5038    0.4161    5.4844 C   0  0  0  0  0  0  0  0  0  0  0  0
    9.4294   -0.6257    5.7789 O   0  0  0  0  0  0  0  0  0  0  0  0
    8.5802   -3.8676    0.7673 C   0  0  1  0  0  0  0  0  0  0  0  0
    8.1964   -3.2961    2.0698 O   0  0  0  0  0  0  0  0  0  0  0  0
    9.8274    5.2648   -0.2055 C   0  0  0  0  0  0  0  0  0  0  0  0
    8.6634    4.9343   -0.9233 O   0  0  0  0  0  0  0  0  0  0  0  0
    4.1071    3.3147    2.6741 C   0  0  1  0  0  0  0  0  0  0  0  0
    3.4866    2.1667    3.2596 O   0  0  0  0  0  0  0  0  0  0  0  0
   10.1587   -4.0434    0.6880 C   0  0  0  0  0  0  0  0  0  0  0  0
   10.6800   -4.5932   -0.5936 N   0  0  0  0  0  0  0  0  0  0  0  0
  1  2  1  6  0  0  0
  1  7  1  0  0  0  0
  1 30  1  0  0  0  0
  3  4  1  6  0  0  0
  3  9  1  0  0  0  0
  3 39  1  0  0  0  0
  5 10  1  0  0  0  0
  5 26  1  0  0  0  0
  5 32  1  1  0  0  0
  6 12  1  0  0  0  0
  6 36  1  0  0  0  0
  6 19  1  1  0  0  0
  7  8  1  1  0  0  0
  7 14  1  0  0  0  0
  9 16  1  0  0  0  0
 10 11  1  6  0  0  0
 10 18  1  0  0  0  0
 12 13  1  1  0  0  0
 12 20  1  0  0  0  0
 14 15  1  1  0  0  0
 14 22  1  0  0  0  0
 16 17  1  6  0  0  0
 16 24  1  0  0  0  0
 18 19  1  6  0  0  0
 18 25  1  0  0  0  0
 20 21  1  6  0  0  0
 20 27  1  0  0  0  0
 22 23  1  6  0  0  0
 22 29  1  0  0  0  0
 24  2  1  1  0  0  0
 24 31  1  0  0  0  0
 25 26  1  0  0  0  0
 25 33  1  6  0  0  0
 27 28  1  1  0  0  0
 27 35  1  0  0  0  0
 29 30  1  0  0  0  0
 29 37  1  6  0  0  0
 31 32  1  6  0  0  0
 31 39  1  0  0  0  0
 33 34  1  0  0  0  0
 35 36  1  0  0  0  0
 35 41  1  1  0  0  0
 37 38  1  0  0  0  0
 39 40  1  1  0  0  0
 41 42  1  0  0  0  0
M  END
>  <CHROM.1>
-177.70293561,-171.22777178,68.33181755,174.97596750,-62.58790652,179.38076250
179.32670716,177.53597484,61.77476123,7.43768153,1.36972141,2.49094486,-1.53195413
-0.10221387,-3.02312263

>  <Name>
ligand

>  <RI>
0

>  <Rbt.Current_Directory>
/home/itssahil/PROJECTS/Mol_Feturizer/Test_systems_manuscript/rnas/2o3w

>  <Rbt.Executable>
rbdock ($Id: //depot/dev/client3/rdock/2013.1/src/exe/rbdock.cxx#4 $)

>  <Rbt.Library>
libRbt.so (2013.1, Build901 2013/11/27)

>  <Rbt.Parameter_File>
/export/apps/rDock/src/rDock_2013.1_src/data/scripts/dock_solv.prm

>  <Rbt.Receptor>
prm/pocket_docking_5.prm

>  <SCORE>
-11.0998

>  <SCORE.INTER>
2.11122

>  <SCORE.INTER.CONST>
1

>  <SCORE.INTER.POLAR>
0

>  <SCORE.INTER.ROT>
9

>  <SCORE.INTER.SOLV>
8.19605

>  <SCORE.INTER.VDW>
-10.9245

>  <SCORE.INTER.norm>
0.0502671

>  <SCORE.INTRA>
-13.211

>  <SCORE.INTRA.DIHEDRAL>
-26.824

>  <SCORE.INTRA.DIHEDRAL.0>
27.8999

>  <SCORE.INTRA.POLAR>
0

>  <SCORE.INTRA.POLAR.0>
0

>  <SCORE.INTRA.REPUL>
0

>  <SCORE.INTRA.REPUL.0>
0

>  <SCORE.INTRA.SOLV>
-5.72517

>  <SCORE.INTRA.SOLV.lig_0>
-104.479

>  <SCORE.INTRA.VDW>
3.0636

>  <SCORE.INTRA.VDW.0>
-6.17816

>  <SCORE.INTRA.norm>
-0.314547

>  <SCORE.RESTR>
0

>  <SCORE.RESTR.CAVITY>
0

>  <SCORE.RESTR.norm>
0

>  <SCORE.SYSTEM>
0

>  <SCORE.SYSTEM.CONST>
0

>  <SCORE.SYSTEM.DIHEDRAL>
0

>  <SCORE.SYSTEM.SOLV>
0

>  <SCORE.SYSTEM.norm>
0

>  <SCORE.heavy>
42

>  <SCORE.norm>
-0.26428

>  <RMSD>
9.640

$$$$
ligand
 OpenBabel02271912133D
libRbt.so/2013.1/901 2013/11/27
 42 45  0  0  0  0  0  0  0  0999 V2000
    4.5512    7.6616    1.9168 C   0  0  2  0  0  0  0  0  0  0  0  0
    5.4054    6.5698    1.5351 O   0  0  0  0  0  0  0  0  0  0  0  0
    9.6890    5.9508    1.7875 C   0  0  2  0  0  0  0  0  0  0  0  0
   11.0818    5.8050    2.3063 N   0  0  0  0  0  0  0  0  0  0  0  0
    6.7119    2.9123    3.2724 C   0  0  1  0  0  0  0  0  0  0  0  0
    6.2935   -1.3576    4.6613 C   0  0  1  0  0  0  0  0  0  0  0  0
    3.0834    7.1487    1.8135 C   0  0  2  0  0  0  0  0  0  0  0  0
    2.8856    5.8628    2.5047 N   0  0  0  0  0  0  0  0  0  0  0  0
    9.1437    7.4186    2.0115 C   0  0  0  0  0  0  0  0  0  0  0  0
    5.6135    2.2792    4.1799 C   0  0  2  0  0  0  0  0  0  0  0  0
    5.8231    2.4957    5.5970 O   0  0  0  0  0  0  0  0  0  0  0  0
    7.3784   -2.1858    5.4398 C   0  0  2  0  0  0  0  0  0  0  0  0
    8.7206   -2.0399    4.8010 N   0  0  0  0  0  0  0  0  0  0  0  0
    2.6379    6.9423    0.3541 C   0  0  1  0  0  0  0  0  0  0  0  0
    1.2769    6.5110    0.3058 O   0  0  0  0  0  0  0  0  0  0  0  0
    7.6844    7.5158    1.4256 C   0  0  2  0  0  0  0  0  0  0  0  0
    7.1446    8.8905    1.6067 N   0  0  0  0  0  0  0  0  0  0  0  0
    5.6524    0.8210    3.7199 C   0  0  2  0  0  0  0  0  0  0  0  0
    6.6012    0.0335    4.5075 O   0  0  0  0  0  0  0  0  0  0  0  0
    6.9311   -3.7233    5.4946 C   0  0  1  0  0  0  0  0  0  0  0  0
    5.8422   -3.8598    6.4351 O   0  0  0  0  0  0  0  0  0  0  0  0
    2.8428    8.2538   -0.4379 C   0  0  2  0  0  0  0  0  0  0  0  0
    2.4238    8.0863   -1.7724 O   0  0  0  0  0  0  0  0  0  0  0  0
    6.7298    6.4742    2.1326 C   0  0  2  0  0  0  0  0  0  0  0  0
    6.0532    0.8547    2.2355 C   0  0  2  0  0  0  0  0  0  0  0  0
    6.8801    2.0131    2.1525 O   0  0  0  0  0  0  0  0  0  0  0  0
    6.4796   -4.2911    4.0659 C   0  0  2  0  0  0  0  0  0  0  0  0
    7.6451   -4.3719    3.2464 O   0  0  0  0  0  0  0  0  0  0  0  0
    4.3545    8.6549   -0.3790 C   0  0  2  0  0  0  0  0  0  0  0  0
    4.7675    8.8133    1.0153 O   0  0  0  0  0  0  0  0  0  0  0  0
    7.2309    5.0190    2.0032 C   0  0  2  0  0  0  0  0  0  0  0  0
    6.3500    4.2348    2.8538 O   0  0  0  0  0  0  0  0  0  0  0  0
    4.8606    0.9436    1.2335 C   0  0  0  0  0  0  0  0  0  0  0  0
    4.0010   -0.1759    1.4250 O   0  0  0  0  0  0  0  0  0  0  0  0
    5.4116   -3.3415    3.4026 C   0  0  1  0  0  0  0  0  0  0  0  0
    6.0414   -2.0124    3.3193 O   0  0  0  0  0  0  0  0  0  0  0  0
    4.6457    9.9359   -1.1260 C   0  0  0  0  0  0  0  0  0  0  0  0
    3.9979   11.0184   -0.5031 O   0  0  0  0  0  0  0  0  0  0  0  0
    8.7339    4.9099    2.4980 C   0  0  1  0  0  0  0  0  0  0  0  0
    9.2452    3.5998    2.2377 O   0  0  0  0  0  0  0  0  0  0  0  0
    4.9313   -3.8134    1.9621 C   0  0  0  0  0  0  0  0  0  0  0  0
    6.0080   -3.9719    0.9461 N   0  0  0  0  0  0  0  0  0  0  0  0
  1  2  1  6  0  0  0
  1  7  1  0  0  0  0
  1 30  1  0  0  0  0
  3  4  1  1  0  0  0
  3  9  1  0  0  0  0
  3 39  1  0  0  0  0
  5 10  1  0  0  0  0
  5 26  1  0  0  0  0
  5 32  1  6  0  0  0
  6 12  1  0  0  0  0
  6 36  1  0  0  0  0
  6 19  1  6  0  0  0
  7  8  1  1  0  0  0
  7 14  1  0  0  0  0
  9 16  1  0  0  0  0
 10 11  1  1  0  0  0
 10 18  1  0  0  0  0
 12 13  1  6  0  0  0
 12 20  1  0  0  0  0
 14 15  1  1  0  0  0
 14 22  1  0  0  0  0
 16 17  1  1  0  0  0
 16 24  1  0  0  0  0
 18 19  1  1  0  0  0
 18 25  1  0  0  0  0
 20 21  1  1  0  0  0
 20 27  1  0  0  0  0
 22 23  1  6  0  0  0
 22 29  1  0  0  0  0
 24  2  1  6  0  0  0
 24 31  1  0  0  0  0
 25 26  1  0  0  0  0
 25 33  1  6  0  0  0
 27 28  1  6  0  0  0
 27 35  1  0  0  0  0
 29 30  1  0  0  0  0
 29 37  1  6  0  0  0
 31 32  1  1  0  0  0
 31 39  1  0  0  0  0
 33 34  1  0  0  0  0
 35 36  1  0  0  0  0
 35 41  1  6  0  0  0
 37 38  1  0  0  0  0
 39 40  1  6  0  0  0
 41 42  1  0  0  0  0
M  END
>  <CHROM.1>
-149.42857418,-77.59255725,150.38465065,176.53306185,-58.77995917,65.19791139
-163.12813638,179.74808388,-57.49120718,5.92229174,3.14952913,2.32782107
1.72336230,-0.34594875,-0.25224150

>  <Name>
ligand

>  <RI>
0

>  <Rbt.Current_Directory>
/home/itssahil/PROJECTS/Mol_Feturizer/Test_systems_manuscript/rnas/2o3w

>  <Rbt.Executable>
rbdock ($Id: //depot/dev/client3/rdock/2013.1/src/exe/rbdock.cxx#4 $)

>  <Rbt.Library>
libRbt.so (2013.1, Build901 2013/11/27)

>  <Rbt.Parameter_File>
/export/apps/rDock/src/rDock_2013.1_src/data/scripts/dock_solv.prm

>  <Rbt.Receptor>
prm/pocket_docking_3.prm

>  <SCORE>
-2.29335

>  <SCORE.INTER>
4.11444

>  <SCORE.INTER.CONST>
1

>  <SCORE.INTER.POLAR>
0

>  <SCORE.INTER.ROT>
9

>  <SCORE.INTER.SOLV>
10.6278

>  <SCORE.INTER.VDW>
-10.3996

>  <SCORE.INTER.norm>
0.0979627

>  <SCORE.INTRA>
-6.40778

>  <SCORE.INTRA.DIHEDRAL>
-17.6163

>  <SCORE.INTRA.DIHEDRAL.0>
27.8999

>  <SCORE.INTRA.POLAR>
0

>  <SCORE.INTRA.POLAR.0>
0

>  <SCORE.INTRA.REPUL>
0

>  <SCORE.INTRA.REPUL.0>
0

>  <SCORE.INTRA.SOLV>
-0.691306

>  <SCORE.INTRA.SOLV.lig_0>
-104.479

>  <SCORE.INTRA.VDW>
2.74604

>  <SCORE.INTRA.VDW.0>
-6.17816

>  <SCORE.INTRA.norm>
-0.152566

>  <SCORE.RESTR>
0

>  <SCORE.RESTR.CAVITY>
0

>  <SCORE.RESTR.norm>
0

>  <SCORE.SYSTEM>
0

>  <SCORE.SYSTEM.CONST>
0

>  <SCORE.SYSTEM.DIHEDRAL>
0

>  <SCORE.SYSTEM.SOLV>
0

>  <SCORE.SYSTEM.norm>
0

>  <SCORE.heavy>
42

>  <SCORE.norm>
-0.0546035

>  <RMSD>
9.666

$$$$
ligand
 OpenBabel02271912133D
libRbt.so/2013.1/901 2013/11/27
 42 45  0  0  0  0  0  0  0  0999 V2000
    3.5196    5.8493    3.4376 C   0  0  2  0  0  0  0  0  0  0  0  0
    4.0527    5.1491    2.3005 O   0  0  0  0  0  0  0  0  0  0  0  0
    1.3420    1.7660    2.3502 C   0  0  2  0  0  0  0  0  0  0  0  0
    0.6101    0.5181    1.9796 N   0  0  0  0  0  0  0  0  0  0  0  0
    5.8579    1.5257    3.2981 C   0  0  1  0  0  0  0  0  0  0  0  0
    8.9292   -0.8417    5.3173 C   0  0  1  0  0  0  0  0  0  0  0  0
    4.3921    7.1249    3.6366 C   0  0  2  0  0  0  0  0  0  0  0  0
    4.5624    7.8916    2.3901 N   0  0  0  0  0  0  0  0  0  0  0  0
    1.0428    2.9329    1.3252 C   0  0  0  0  0  0  0  0  0  0  0  0
    7.1733    1.1049    2.5745 C   0  0  2  0  0  0  0  0  0  0  0  0
    7.0172   -0.0206    1.6756 O   0  0  0  0  0  0  0  0  0  0  0  0
   10.4596   -0.7409    4.9760 C   0  0  2  0  0  0  0  0  0  0  0  0
   10.7969   -1.5774    3.7854 N   0  0  0  0  0  0  0  0  0  0  0  0
    5.8050    6.7921    4.1505 C   0  0  1  0  0  0  0  0  0  0  0  0
    6.5547    7.9907    4.3560 O   0  0  0  0  0  0  0  0  0  0  0  0
    1.8223    4.2243    1.7803 C   0  0  2  0  0  0  0  0  0  0  0  0
    1.5516    5.3488    0.8445 N   0  0  0  0  0  0  0  0  0  0  0  0
    8.1071    0.8776    3.7643 C   0  0  2  0  0  0  0  0  0  0  0  0
    8.0527   -0.5070    4.2341 O   0  0  0  0  0  0  0  0  0  0  0  0
   11.3168   -1.1868    6.2541 C   0  0  1  0  0  0  0  0  0  0  0  0
   11.2503   -0.1408    7.2493 O   0  0  0  0  0  0  0  0  0  0  0  0
    5.6987    5.9630    5.4507 C   0  0  2  0  0  0  0  0  0  0  0  0
    6.9842    5.6643    5.9433 O   0  0  0  0  0  0  0  0  0  0  0  0
    3.3762    3.9453    1.8384 C   0  0  2  0  0  0  0  0  0  0  0  0
    7.6467    1.8557    4.8582 C   0  0  2  0  0  0  0  0  0  0  0  0
    6.2459    1.9689    4.6188 O   0  0  0  0  0  0  0  0  0  0  0  0
   10.8104   -2.5666    6.8921 C   0  0  2  0  0  0  0  0  0  0  0  0
   11.1267   -3.6093    5.9705 O   0  0  0  0  0  0  0  0  0  0  0  0
    4.9008    4.6495    5.1548 C   0  0  2  0  0  0  0  0  0  0  0  0
    3.5749    4.9855    4.6362 O   0  0  0  0  0  0  0  0  0  0  0  0
    3.7400    2.7767    2.7803 C   0  0  2  0  0  0  0  0  0  0  0  0
    5.1600    2.5442    2.5698 O   0  0  0  0  0  0  0  0  0  0  0  0
    8.3369    3.2545    4.8233 C   0  0  0  0  0  0  0  0  0  0  0  0
    9.7409    3.0909    4.9993 O   0  0  0  0  0  0  0  0  0  0  0  0
    9.2572   -2.5217    7.1525 C   0  0  1  0  0  0  0  0  0  0  0  0
    8.6325   -2.2273    5.8512 O   0  0  0  0  0  0  0  0  0  0  0  0
    4.7427    3.7770    6.3786 C   0  0  0  0  0  0  0  0  0  0  0  0
    3.7644    4.3150    7.2346 O   0  0  0  0  0  0  0  0  0  0  0  0
    2.8974    1.4864    2.4050 C   0  0  1  0  0  0  0  0  0  0  0  0
    3.1217    0.4532    3.3682 O   0  0  0  0  0  0  0  0  0  0  0  0
    8.6625   -3.8674    7.7558 C   0  0  0  0  0  0  0  0  0  0  0  0
    7.1899   -3.8773    7.9748 N   0  0  0  0  0  0  0  0  0  0  0  0
  1  2  1  6  0  0  0
  1  7  1  0  0  0  0
  1 30  1  0  0  0  0
  3  4  1  6  0  0  0
  3  9  1  0  0  0  0
  3 39  1  0  0  0  0
  5 10  1  0  0  0  0
  5 26  1  0  0  0  0
  5 32  1  6  0  0  0
  6 12  1  0  0  0  0
  6 36  1  0  0  0  0
  6 19  1  6  0  0  0
  7  8  1  6  0  0  0
  7 14  1  0  0  0  0
  9 16  1  0  0  0  0
 10 11  1  1  0  0  0
 10 18  1  0  0  0  0
 12 13  1  6  0  0  0
 12 20  1  0  0  0  0
 14 15  1  1  0  0  0
 14 22  1  0  0  0  0
 16 17  1  6  0  0  0
 16 24  1  0  0  0  0
 18 19  1  1  0  0  0
 18 25  1  0  0  0  0
 20 21  1  1  0  0  0
 20 27  1  0  0  0  0
 22 23  1  6  0  0  0
 22 29  1  0  0  0  0
 24  2  1  1  0  0  0
 24 31  1  0  0  0  0
 25 26  1  0  0  0  0
 25 33  1  6  0  0  0
 27 28  1  6  0  0  0
 27 35  1  0  0  0  0
 29 30  1  0  0  0  0
 29 37  1  1  0  0  0
 31 32  1  6  0  0  0
 31 39  1  0  0  0  0
 33 34  1  0  0  0  0
 35 36  1  0  0  0  0
 35 41  1  6  0  0  0
 37 38  1  0  0  0  0
 39 40  1  1  0  0  0
 41 42  1  0  0  0  0
M  END
>  <CHROM.1>
-176.61568867,45.94759725,177.75853115,-64.57065244,-60.64563219,75.69590062
179.32544567,159.16815610,-178.13143636,6.21600868,2.04889857,4.31594999
-2.39663123,0.49318206,-3.08950409

>  <Name>
ligand

>  <RI>
0

>  <Rbt.Current_Directory>
/home/itssahil/PROJECTS/Mol_Feturizer/Test_systems_manuscript/rnas/2o3w

>  <Rbt.Executable>
rbdock ($Id: //depot/dev/client3/rdock/2013.1/src/exe/rbdock.cxx#4 $)

>  <Rbt.Library>
libRbt.so (2013.1, Build901 2013/11/27)

>  <Rbt.Parameter_File>
/export/apps/rDock/src/rDock_2013.1_src/data/scripts/dock_solv.prm

>  <Rbt.Receptor>
prm/pocket_docking_7.prm

>  <SCORE>
-14.87

>  <SCORE.INTER>
-2.18958

>  <SCORE.INTER.CONST>
1

>  <SCORE.INTER.POLAR>
0

>  <SCORE.INTER.ROT>
9

>  <SCORE.INTER.SOLV>
13.4058

>  <SCORE.INTER.VDW>
-15.5283

>  <SCORE.INTER.norm>
-0.0521328

>  <SCORE.INTRA>
-12.6804

>  <SCORE.INTRA.DIHEDRAL>
-23.8434

>  <SCORE.INTRA.DIHEDRAL.0>
27.8999

>  <SCORE.INTRA.POLAR>
0

>  <SCORE.INTRA.POLAR.0>
0

>  <SCORE.INTRA.REPUL>
0

>  <SCORE.INTRA.REPUL.0>
0

>  <SCORE.INTRA.SOLV>
-4.2119

>  <SCORE.INTRA.SOLV.lig_0>
-104.479

>  <SCORE.INTRA.VDW>
1.3472

>  <SCORE.INTRA.VDW.0>
-6.17816

>  <SCORE.INTRA.norm>
-0.301915

>  <SCORE.RESTR>
0

>  <SCORE.RESTR.CAVITY>
0

>  <SCORE.RESTR.norm>
0

>  <SCORE.SYSTEM>
0

>  <SCORE.SYSTEM.CONST>
0

>  <SCORE.SYSTEM.DIHEDRAL>
0

>  <SCORE.SYSTEM.SOLV>
0

>  <SCORE.SYSTEM.norm>
0

>  <SCORE.heavy>
42

>  <SCORE.norm>
-0.354048

>  <RMSD>
9.690

$$$$
ligand
 OpenBabel02271912133D
libRbt.so/2013.1/901 2013/11/27
 42 45  0  0  0  0  0  0  0  0999 V2000
   10.8093    6.3746    7.0740 C   0  0  2  0  0  0  0  0  0  0  0  0
    9.6140    7.1650    6.9559 O   0  0  0  0  0  0  0  0  0  0  0  0
    5.5672    5.8897    6.0655 C   0  0  2  0  0  0  0  0  0  0  0  0
    4.3643    5.3383    5.3730 N   0  0  0  0  0  0  0  0  0  0  0  0
    9.0441    3.0445    7.1649 C   0  0  1  0  0  0  0  0  0  0  0  0
    8.3710   -1.2370    6.6901 C   0  0  1  0  0  0  0  0  0  0  0  0
   11.8422    7.2278    7.8698 C   0  0  2  0  0  0  0  0  0  0  0  0
   11.2761    7.7858    9.1102 N   0  0  0  0  0  0  0  0  0  0  0  0
    6.1083    7.1832    5.3334 C   0  0  0  0  0  0  0  0  0  0  0  0
    8.8211    2.0070    6.0227 C   0  0  2  0  0  0  0  0  0  0  0  0
    7.4281    1.7009    5.7682 O   0  0  0  0  0  0  0  0  0  0  0  0
    9.4499   -2.2707    6.2042 C   0  0  2  0  0  0  0  0  0  0  0  0
   10.4572   -1.6138    5.3184 N   0  0  0  0  0  0  0  0  0  0  0  0
   12.3736    8.4173    7.0489 C   0  0  1  0  0  0  0  0  0  0  0  0
   13.3446    9.1466    7.8013 O   0  0  0  0  0  0  0  0  0  0  0  0
    7.3592    7.7294    6.1205 C   0  0  2  0  0  0  0  0  0  0  0  0
    7.8864    8.9572    5.4663 N   0  0  0  0  0  0  0  0  0  0  0  0
    9.6774    0.8380    6.5121 C   0  0  2  0  0  0  0  0  0  0  0  0
    8.9051   -0.0815    7.3482 O   0  0  0  0  0  0  0  0  0  0  0  0
    8.7205   -3.4803    5.4480 C   0  0  1  0  0  0  0  0  0  0  0  0
    8.0552   -4.3098    6.4269 O   0  0  0  0  0  0  0  0  0  0  0  0
   12.9629    7.9019    5.7162 C   0  0  2  0  0  0  0  0  0  0  0  0
   13.4690    8.9774    4.9602 O   0  0  0  0  0  0  0  0  0  0  0  0
    8.4962    6.6347    6.1880 C   0  0  2  0  0  0  0  0  0  0  0  0
   10.8404    1.4642    7.2999 C   0  0  2  0  0  0  0  0  0  0  0  0
   10.2613    2.6503    7.8386 O   0  0  0  0  0  0  0  0  0  0  0  0
    7.6581   -2.9815    4.3571 C   0  0  2  0  0  0  0  0  0  0  0  0
    8.3882   -2.3864    3.2852 O   0  0  0  0  0  0  0  0  0  0  0  0
   11.8460    7.1452    4.9228 C   0  0  2  0  0  0  0  0  0  0  0  0
   11.3306    6.0406    5.7314 O   0  0  0  0  0  0  0  0  0  0  0  0
    8.0223    5.3184    6.8422 C   0  0  2  0  0  0  0  0  0  0  0  0
    9.1184    4.3817    6.6534 O   0  0  0  0  0  0  0  0  0  0  0  0
   12.1078    1.7936    6.4518 C   0  0  0  0  0  0  0  0  0  0  0  0
   11.7302    2.5852    5.3294 O   0  0  0  0  0  0  0  0  0  0  0  0
    6.6642   -1.9342    4.9875 C   0  0  1  0  0  0  0  0  0  0  0  0
    7.5008   -0.8424    5.5153 O   0  0  0  0  0  0  0  0  0  0  0  0
   12.3389    6.5992    3.6027 C   0  0  0  0  0  0  0  0  0  0  0  0
   11.2800    5.9913    2.9037 O   0  0  0  0  0  0  0  0  0  0  0  0
    6.7058    4.7942    6.1296 C   0  0  1  0  0  0  0  0  0  0  0  0
    6.1832    3.6618    6.8298 O   0  0  0  0  0  0  0  0  0  0  0  0
    5.5931   -1.3594    3.9624 C   0  0  0  0  0  0  0  0  0  0  0  0
    6.1532   -0.6925    2.7549 N   0  0  0  0  0  0  0  0  0  0  0  0
  1  2  1  6  0  0  0
  1  7  1  0  0  0  0
  1 30  1  0  0  0  0
  3  4  1  6  0  0  0
  3  9  1  0  0  0  0
  3 39  1  0  0  0  0
  5 10  1  0  0  0  0
  5 26  1  0  0  0  0
  5 32  1  6  0  0  0
  6 12  1  0  0  0  0
  6 36  1  0  0  0  0
  6 19  1  6  0  0  0
  7  8  1  1  0  0  0
  7 14  1  0  0  0  0
  9 16  1  0  0  0  0
 10 11  1  1  0  0  0
 10 18  1  0  0  0  0
 12 13  1  6  0  0  0
 12 20  1  0  0  0  0
 14 15  1  1  0  0  0
 14 22  1  0  0  0  0
 16 17  1  6  0  0  0
 16 24  1  0  0  0  0
 18 19  1  1  0  0  0
 18 25  1  0  0  0  0
 20 21  1  1  0  0  0
 20 27  1  0  0  0  0
 22 23  1  6  0  0  0
 22 29  1  0  0  0  0
 24  2  1  1  0  0  0
 24 31  1  0  0  0  0
 25 26  1  0  0  0  0
 25 33  1  6  0  0  0
 27 28  1  6  0  0  0
 27 35  1  0  0  0  0
 29 30  1  0  0  0  0
 29 37  1  6  0  0  0
 31 32  1  6  0  0  0
 31 39  1  0  0  0  0
 33 34  1  0  0  0  0
 35 36  1  0  0  0  0
 35 41  1  6  0  0  0
 37 38  1  0  0  0  0
 39 40  1  1  0  0  0
 41 42  1  0  0  0  0
M  END
>  <CHROM.1>
176.75716916,-175.79034189,96.77920412,67.71623610,52.82642447,-176.98374050
178.66873430,106.54122725,-57.74891832,9.26576037,3.36394031,5.92864731,-1.26441260
0.11746764,-3.07594519

>  <Name>
ligand

>  <RI>
0

>  <Rbt.Current_Directory>
/home/itssahil/PROJECTS/Mol_Feturizer/Test_systems_manuscript/rnas/2o3w

>  <Rbt.Executable>
rbdock ($Id: //depot/dev/client3/rdock/2013.1/src/exe/rbdock.cxx#4 $)

>  <Rbt.Library>
libRbt.so (2013.1, Build901 2013/11/27)

>  <Rbt.Parameter_File>
/export/apps/rDock/src/rDock_2013.1_src/data/scripts/dock_solv.prm

>  <Rbt.Receptor>
prm/pocket_docking_7.prm

>  <SCORE>
-9.96588

>  <SCORE.INTER>
-4.07378

>  <SCORE.INTER.CONST>
1

>  <SCORE.INTER.POLAR>
0

>  <SCORE.INTER.ROT>
9

>  <SCORE.INTER.SOLV>
15.7663

>  <SCORE.INTER.VDW>
-17.5713

>  <SCORE.INTER.norm>
-0.0969948

>  <SCORE.INTRA>
-5.8934

>  <SCORE.INTRA.DIHEDRAL>
-15.9001

>  <SCORE.INTRA.DIHEDRAL.0>
27.8999

>  <SCORE.INTRA.POLAR>
0

>  <SCORE.INTRA.POLAR.0>
0

>  <SCORE.INTRA.REPUL>
0

>  <SCORE.INTRA.REPUL.0>
0

>  <SCORE.INTRA.SOLV>
-0.795879

>  <SCORE.INTRA.SOLV.lig_0>
-104.479

>  <SCORE.INTRA.VDW>
2.45457

>  <SCORE.INTRA.VDW.0>
-6.17816

>  <SCORE.INTRA.norm>
-0.140319

>  <SCORE.RESTR>
0.0013024

>  <SCORE.RESTR.CAVITY>
0.0013024

>  <SCORE.RESTR.norm>
3.10096e-05

>  <SCORE.SYSTEM>
0

>  <SCORE.SYSTEM.CONST>
0

>  <SCORE.SYSTEM.DIHEDRAL>
0

>  <SCORE.SYSTEM.SOLV>
0

>  <SCORE.SYSTEM.norm>
0

>  <SCORE.heavy>
42

>  <SCORE.norm>
-0.237283

>  <RMSD>
9.701

$$$$
ligand
 OpenBabel02271912133D
libRbt.so/2013.1/901 2013/11/27
 42 45  0  0  0  0  0  0  0  0999 V2000
    5.5993    6.5883    0.9452 C   0  0  2  0  0  0  0  0  0  0  0  0
    6.1780    5.3040    1.2334 O   0  0  0  0  0  0  0  0  0  0  0  0
    3.3099    2.8887   -0.9428 C   0  0  2  0  0  0  0  0  0  0  0  0
    2.5680    1.7284   -1.5204 N   0  0  0  0  0  0  0  0  0  0  0  0
    5.2855    2.6942    3.1442 C   0  0  1  0  0  0  0  0  0  0  0  0
    7.2657   -0.5553    5.3930 C   0  0  1  0  0  0  0  0  0  0  0  0
    6.5517    7.6628    1.5507 C   0  0  2  0  0  0  0  0  0  0  0  0
    7.9574    7.4529    1.1628 N   0  0  0  0  0  0  0  0  0  0  0  0
    4.7854    2.9652   -1.5076 C   0  0  0  0  0  0  0  0  0  0  0  0
    5.5079    2.7254    4.6871 C   0  0  2  0  0  0  0  0  0  0  0  0
    6.6280    3.5439    5.1046 O   0  0  0  0  0  0  0  0  0  0  0  0
    8.7874   -0.9312    5.5035 C   0  0  2  0  0  0  0  0  0  0  0  0
    9.4840   -0.7244    4.1986 N   0  0  0  0  0  0  0  0  0  0  0  0
    6.5125    7.6776    3.0899 C   0  0  1  0  0  0  0  0  0  0  0  0
    7.3683    8.7018    3.5994 O   0  0  0  0  0  0  0  0  0  0  0  0
    5.5073    4.2176   -0.8810 C   0  0  2  0  0  0  0  0  0  0  0  0
    6.8962    4.3289   -1.4026 N   0  0  0  0  0  0  0  0  0  0  0  0
    5.6250    1.2329    5.0005 C   0  0  2  0  0  0  0  0  0  0  0  0
    7.0120    0.7737    4.9208 O   0  0  0  0  0  0  0  0  0  0  0  0
    8.9224   -2.4506    5.9936 C   0  0  1  0  0  0  0  0  0  0  0  0
    8.5823   -2.5209    7.3966 O   0  0  0  0  0  0  0  0  0  0  0  0
    5.0550    7.8711    3.5667 C   0  0  2  0  0  0  0  0  0  0  0  0
    5.0041    7.9037    4.9741 O   0  0  0  0  0  0  0  0  0  0  0  0
    5.5399    4.1111    0.6949 C   0  0  2  0  0  0  0  0  0  0  0  0
    4.7393    0.5121    3.9703 C   0  0  2  0  0  0  0  0  0  0  0  0
    4.8164    1.3631    2.8292 O   0  0  0  0  0  0  0  0  0  0  0  0
    7.9902   -3.4565    5.1650 C   0  0  2  0  0  0  0  0  0  0  0  0
    8.5200   -3.5451    3.8430 O   0  0  0  0  0  0  0  0  0  0  0  0
    4.1758    6.7028    3.0084 C   0  0  2  0  0  0  0  0  0  0  0  0
    4.2526    6.6840    1.5477 O   0  0  0  0  0  0  0  0  0  0  0  0
    4.1320    3.9760    1.3153 C   0  0  2  0  0  0  0  0  0  0  0  0
    4.3604    3.7062    2.7258 O   0  0  0  0  0  0  0  0  0  0  0  0
    3.2582    0.2974    4.4114 C   0  0  0  0  0  0  0  0  0  0  0  0
    2.5539   -0.3849    3.3782 O   0  0  0  0  0  0  0  0  0  0  0  0
    6.5053   -2.9316    5.1233 C   0  0  1  0  0  0  0  0  0  0  0  0
    6.5642   -1.5839    4.5312 O   0  0  0  0  0  0  0  0  0  0  0  0
    2.7269    6.8162    3.4225 C   0  0  0  0  0  0  0  0  0  0  0  0
    2.5958    6.5685    4.8012 O   0  0  0  0  0  0  0  0  0  0  0  0
    3.3446    2.7793    0.6343 C   0  0  1  0  0  0  0  0  0  0  0  0
    1.9926    2.7501    1.0998 O   0  0  0  0  0  0  0  0  0  0  0  0
    5.5150   -3.8553    4.2899 C   0  0  0  0  0  0  0  0  0  0  0  0
    5.3076   -5.2267    4.8310 N   0  0  0  0  0  0  0  0  0  0  0  0
  1  2  1  1  0  0  0
  1  7  1  0  0  0  0
  1 30  1  0  0  0  0
  3  4  1  6  0  0  0
  3  9  1  0  0  0  0
  3 39  1  0  0  0  0
  5 10  1  0  0  0  0
  5 26  1  0  0  0  0
  5 32  1  1  0  0  0
  6 12  1  0  0  0  0
  6 36  1  0  0  0  0
  6 19  1  6  0  0  0
  7  8  1  1  0  0  0
  7 14  1  0  0  0  0
  9 16  1  0  0  0  0
 10 11  1  6  0  0  0
 10 18  1  0  0  0  0
 12 13  1  6  0  0  0
 12 20  1  0  0  0  0
 14 15  1  6  0  0  0
 14 22  1  0  0  0  0
 16 17  1  6  0  0  0
 16 24  1  0  0  0  0
 18 19  1  6  0  0  0
 18 25  1  0  0  0  0
 20 21  1  1  0  0  0
 20 27  1  0  0  0  0
 22 23  1  1  0  0  0
 22 29  1  0  0  0  0
 24  2  1  1  0  0  0
 24 31  1  0  0  0  0
 25 26  1  0  0  0  0
 25 33  1  1  0  0  0
 27 28  1  6  0  0  0
 27 35  1  0  0  0  0
 29 30  1  0  0  0  0
 29 37  1  6  0  0  0
 31 32  1  1  0  0  0
 31 39  1  0  0  0  0
 33 34  1  0  0  0  0
 35 36  1  0  0  0  0
 35 41  1  6  0  0  0
 37 38  1  0  0  0  0
 39 40  1  1  0  0  0
 41 42  1  0  0  0  0
M  END
>  <CHROM.1>
-175.61225851,59.28197916,170.78504961,-170.83896430,-179.58521932,-69.85499281
-48.79484896,172.04917180,64.01739526,5.58865080,2.49282462,3.05284580,-1.91269391
0.89624626,3.07609769

>  <Name>
ligand

>  <RI>
0

>  <Rbt.Current_Directory>
/home/itssahil/PROJECTS/Mol_Feturizer/Test_systems_manuscript/rnas/2o3w

>  <Rbt.Executable>
rbdock ($Id: //depot/dev/client3/rdock/2013.1/src/exe/rbdock.cxx#4 $)

>  <Rbt.Library>
libRbt.so (2013.1, Build901 2013/11/27)

>  <Rbt.Parameter_File>
/export/apps/rDock/src/rDock_2013.1_src/data/scripts/dock_solv.prm

>  <Rbt.Receptor>
prm/pocket_docking_6.prm

>  <SCORE>
-13.6819

>  <SCORE.INTER>
-1.02168

>  <SCORE.INTER.CONST>
1

>  <SCORE.INTER.POLAR>
0

>  <SCORE.INTER.ROT>
9

>  <SCORE.INTER.SOLV>
10.5433

>  <SCORE.INTER.VDW>
-13.7956

>  <SCORE.INTER.norm>
-0.0243258

>  <SCORE.INTRA>
-12.6602

>  <SCORE.INTRA.DIHEDRAL>
-25.5378

>  <SCORE.INTRA.DIHEDRAL.0>
27.8999

>  <SCORE.INTRA.POLAR>
0

>  <SCORE.INTRA.POLAR.0>
0

>  <SCORE.INTRA.REPUL>
0

>  <SCORE.INTRA.REPUL.0>
0

>  <SCORE.INTRA.SOLV>
-4.84046

>  <SCORE.INTRA.SOLV.lig_0>
-104.479

>  <SCORE.INTRA.VDW>
2.52892

>  <SCORE.INTRA.VDW.0>
-6.17816

>  <SCORE.INTRA.norm>
-0.301434

>  <SCORE.RESTR>
0

>  <SCORE.RESTR.CAVITY>
0

>  <SCORE.RESTR.norm>
0

>  <SCORE.SYSTEM>
0

>  <SCORE.SYSTEM.CONST>
0

>  <SCORE.SYSTEM.DIHEDRAL>
0

>  <SCORE.SYSTEM.SOLV>
0

>  <SCORE.SYSTEM.norm>
0

>  <SCORE.heavy>
42

>  <SCORE.norm>
-0.325759

>  <RMSD>
9.713

$$$$
ligand
 OpenBabel02271912133D
libRbt.so/2013.1/901 2013/11/27
 42 45  0  0  0  0  0  0  0  0999 V2000
    9.3114    5.9386    2.1585 C   0  0  2  0  0  0  0  0  0  0  0  0
    9.6608    4.6612    1.5986 O   0  0  0  0  0  0  0  0  0  0  0  0
    5.8431    3.7926   -0.2634 C   0  0  2  0  0  0  0  0  0  0  0  0
    4.7451    3.1235   -1.0230 N   0  0  0  0  0  0  0  0  0  0  0  0
    8.6832    1.3048    2.1317 C   0  0  1  0  0  0  0  0  0  0  0  0
   11.5636   -1.5938    2.3381 C   0  0  1  0  0  0  0  0  0  0  0  0
   10.5906    6.4969    2.8515 C   0  0  2  0  0  0  0  0  0  0  0  0
   11.7746    6.4439    1.9764 N   0  0  0  0  0  0  0  0  0  0  0  0
    7.0570    4.1563   -1.2100 C   0  0  0  0  0  0  0  0  0  0  0  0
    9.5952    0.6110    3.1890 C   0  0  2  0  0  0  0  0  0  0  0  0
   10.9912    0.9884    3.1016 O   0  0  0  0  0  0  0  0  0  0  0  0
   12.5414   -2.0500    1.1960 C   0  0  2  0  0  0  0  0  0  0  0  0
   12.0603   -3.3096    0.5534 N   0  0  0  0  0  0  0  0  0  0  0  0
   10.9484    5.7192    4.1314 C   0  0  1  0  0  0  0  0  0  0  0  0
   12.1014    6.2888    4.7536 O   0  0  0  0  0  0  0  0  0  0  0  0
    8.1699    4.8771   -0.3587 C   0  0  2  0  0  0  0  0  0  0  0  0
    9.3234    5.2472   -1.2224 N   0  0  0  0  0  0  0  0  0  0  0  0
    9.2899   -0.8638    2.9223 C   0  0  2  0  0  0  0  0  0  0  0  0
   10.2006   -1.4303    1.9270 O   0  0  0  0  0  0  0  0  0  0  0  0
   14.0120   -2.2392    1.8032 C   0  0  1  0  0  0  0  0  0  0  0  0
   14.5808   -0.9364    2.0640 O   0  0  0  0  0  0  0  0  0  0  0  0
    9.7347    5.7151    5.0885 C   0  0  2  0  0  0  0  0  0  0  0  0
   10.0517    5.0210    6.2727 O   0  0  0  0  0  0  0  0  0  0  0  0
    8.6650    3.9433    0.8155 C   0  0  2  0  0  0  0  0  0  0  0  0
    7.8317   -0.9144    2.4361 C   0  0  2  0  0  0  0  0  0  0  0  0
    7.6714    0.3366    1.7714 O   0  0  0  0  0  0  0  0  0  0  0  0
   14.0220   -3.1077    3.1497 C   0  0  2  0  0  0  0  0  0  0  0  0
   13.6938   -4.4513    2.7983 O   0  0  0  0  0  0  0  0  0  0  0  0
    8.5169    5.0484    4.3659 C   0  0  2  0  0  0  0  0  0  0  0  0
    8.2138    5.7803    3.1361 O   0  0  0  0  0  0  0  0  0  0  0  0
    7.5195    3.5003    1.7519 C   0  0  2  0  0  0  0  0  0  0  0  0
    8.1135    2.5168    2.6432 O   0  0  0  0  0  0  0  0  0  0  0  0
    6.7678   -1.0913    3.5635 C   0  0  0  0  0  0  0  0  0  0  0  0
    6.8385    0.0172    4.4553 O   0  0  0  0  0  0  0  0  0  0  0  0
   12.9752   -2.5431    4.1830 C   0  0  1  0  0  0  0  0  0  0  0  0
   11.6717   -2.5624    3.4970 O   0  0  0  0  0  0  0  0  0  0  0  0
    7.2785    5.0076    5.2310 C   0  0  0  0  0  0  0  0  0  0  0  0
    6.2397    4.3376    4.5593 O   0  0  0  0  0  0  0  0  0  0  0  0
    6.3401    2.8558    0.9097 C   0  0  1  0  0  0  0  0  0  0  0  0
    5.2197    2.5850    1.7565 O   0  0  0  0  0  0  0  0  0  0  0  0
   12.8946   -3.3686    5.5397 C   0  0  0  0  0  0  0  0  0  0  0  0
   14.1296   -3.3601    6.3711 N   0  0  0  0  0  0  0  0  0  0  0  0
  1  2  1  1  0  0  0
  1  7  1  0  0  0  0
  1 30  1  0  0  0  0
  3  4  1  6  0  0  0
  3  9  1  0  0  0  0
  3 39  1  0  0  0  0
  5 10  1  0  0  0  0
  5 26  1  0  0  0  0
  5 32  1  1  0  0  0
  6 12  1  0  0  0  0
  6 36  1  0  0  0  0
  6 19  1  6  0  0  0
  7  8  1  6  0  0  0
  7 14  1  0  0  0  0
  9 16  1  0  0  0  0
 10 11  1  6  0  0  0
 10 18  1  0  0  0  0
 12 13  1  1  0  0  0
 12 20  1  0  0  0  0
 14 15  1  1  0  0  0
 14 22  1  0  0  0  0
 16 17  1  6  0  0  0
 16 24  1  0  0  0  0
 18 19  1  6  0  0  0
 18 25  1  0  0  0  0
 20 21  1  1  0  0  0
 20 27  1  0  0  0  0
 22 23  1  1  0  0  0
 22 29  1  0  0  0  0
 24  2  1  1  0  0  0
 24 31  1  0  0  0  0
 25 26  1  0  0  0  0
 25 33  1  1  0  0  0
 27 28  1  6  0  0  0
 27 35  1  0  0  0  0
 29 30  1  0  0  0  0
 29 37  1  1  0  0  0
 31 32  1  1  0  0  0
 31 39  1  0  0  0  0
 33 34  1  0  0  0  0
 35 36  1  0  0  0  0
 35 41  1  1  0  0  0
 37 38  1  0  0  0  0
 39 40  1  1  0  0  0
 41 42  1  0  0  0  0
M  END
>  <CHROM.1>
-176.35022097,55.73474863,69.52209760,-173.40203796,61.38093205,-176.92481058
-60.75222654,164.05117557,64.20736359,9.69571272,1.71646008,2.62746523,-2.22034368
0.52776498,-2.91633583

>  <Name>
ligand

>  <RI>
0

>  <Rbt.Current_Directory>
/home/itssahil/PROJECTS/Mol_Feturizer/Test_systems_manuscript/rnas/2o3w

>  <Rbt.Executable>
rbdock ($Id: //depot/dev/client3/rdock/2013.1/src/exe/rbdock.cxx#4 $)

>  <Rbt.Library>
libRbt.so (2013.1, Build901 2013/11/27)

>  <Rbt.Parameter_File>
/export/apps/rDock/src/rDock_2013.1_src/data/scripts/dock_solv.prm

>  <Rbt.Receptor>
prm/pocket_docking_7.prm

>  <SCORE>
-10.8579

>  <SCORE.INTER>
1.70386

>  <SCORE.INTER.CONST>
1

>  <SCORE.INTER.POLAR>
0

>  <SCORE.INTER.ROT>
9

>  <SCORE.INTER.SOLV>
14.7268

>  <SCORE.INTER.VDW>
-13.373

>  <SCORE.INTER.norm>
0.0405682

>  <SCORE.INTRA>
-12.5617

>  <SCORE.INTRA.DIHEDRAL>
-25.6572

>  <SCORE.INTRA.DIHEDRAL.0>
27.8999

>  <SCORE.INTRA.POLAR>
0

>  <SCORE.INTRA.POLAR.0>
0

>  <SCORE.INTRA.REPUL>
0

>  <SCORE.INTRA.REPUL.0>
0

>  <SCORE.INTRA.SOLV>
-3.7273

>  <SCORE.INTRA.SOLV.lig_0>
-104.479

>  <SCORE.INTRA.VDW>
2.13051

>  <SCORE.INTRA.VDW.0>
-6.17816

>  <SCORE.INTRA.norm>
-0.299089

>  <SCORE.RESTR>
0

>  <SCORE.RESTR.CAVITY>
0

>  <SCORE.RESTR.norm>
0

>  <SCORE.SYSTEM>
0

>  <SCORE.SYSTEM.CONST>
0

>  <SCORE.SYSTEM.DIHEDRAL>
0

>  <SCORE.SYSTEM.SOLV>
0

>  <SCORE.SYSTEM.norm>
0

>  <SCORE.heavy>
42

>  <SCORE.norm>
-0.258521

>  <RMSD>
9.730

$$$$
ligand
 OpenBabel02271912133D
libRbt.so/2013.1/901 2013/11/27
 42 45  0  0  0  0  0  0  0  0999 V2000
    6.3689    6.9795   -0.3906 C   0  0  2  0  0  0  0  0  0  0  0  0
    5.0663    6.4886   -0.7504 O   0  0  0  0  0  0  0  0  0  0  0  0
    3.6345    2.4313   -1.2836 C   0  0  2  0  0  0  0  0  0  0  0  0
    3.4591    1.0332   -1.7786 N   0  0  0  0  0  0  0  0  0  0  0  0
    7.5585    3.5313    0.8536 C   0  0  1  0  0  0  0  0  0  0  0  0
   10.3649    2.1886    4.0073 C   0  0  1  0  0  0  0  0  0  0  0  0
    6.1776    8.4328    0.1381 C   0  0  2  0  0  0  0  0  0  0  0  0
    5.1154    8.5276    1.1546 N   0  0  0  0  0  0  0  0  0  0  0  0
    3.2899    3.4866   -2.4103 C   0  0  0  0  0  0  0  0  0  0  0  0
    9.0290    4.0331    0.9830 C   0  0  2  0  0  0  0  0  0  0  0  0
    9.9507    3.4006    0.0614 O   0  0  0  0  0  0  0  0  0  0  0  0
   11.0452    0.7829    4.1808 C   0  0  2  0  0  0  0  0  0  0  0  0
   10.1108   -0.3140    3.7878 N   0  0  0  0  0  0  0  0  0  0  0  0
    5.8077    9.4191   -0.9850 C   0  0  1  0  0  0  0  0  0  0  0  0
    5.6814   10.7428   -0.4628 O   0  0  0  0  0  0  0  0  0  0  0  0
    3.4714    4.9375   -1.8233 C   0  0  2  0  0  0  0  0  0  0  0  0
    3.1408    5.9579   -2.8544 N   0  0  0  0  0  0  0  0  0  0  0  0
    9.2992    3.7811    2.4672 C   0  0  2  0  0  0  0  0  0  0  0  0
    9.8514    2.4453    2.6943 O   0  0  0  0  0  0  0  0  0  0  0  0
   11.5268    0.6124    5.6993 C   0  0  1  0  0  0  0  0  0  0  0  0
   12.6906    1.4415    5.9162 O   0  0  0  0  0  0  0  0  0  0  0  0
    6.8741    9.3523   -2.1019 C   0  0  2  0  0  0  0  0  0  0  0  0
    6.5588   10.2619   -3.1303 O   0  0  0  0  0  0  0  0  0  0  0  0
    4.9533    5.1533   -1.3199 C   0  0  2  0  0  0  0  0  0  0  0  0
    7.9474    3.9538    3.1801 C   0  0  2  0  0  0  0  0  0  0  0  0
    7.0076    3.5416    2.1906 O   0  0  0  0  0  0  0  0  0  0  0  0
   10.3890    0.9977    6.7597 C   0  0  2  0  0  0  0  0  0  0  0  0
    9.3703    0.0015    6.6798 O   0  0  0  0  0  0  0  0  0  0  0  0
    6.9407    7.8906   -2.6575 C   0  0  2  0  0  0  0  0  0  0  0  0
    7.2596    6.9652   -1.5705 O   0  0  0  0  0  0  0  0  0  0  0  0
    5.3805    4.1196   -0.2549 C   0  0  2  0  0  0  0  0  0  0  0  0
    6.8016    4.3485   -0.0489 O   0  0  0  0  0  0  0  0  0  0  0  0
    7.6439    5.4026    3.6734 C   0  0  0  0  0  0  0  0  0  0  0  0
    7.6769    6.2942    2.5631 O   0  0  0  0  0  0  0  0  0  0  0  0
    9.7885    2.4185    6.4389 C   0  0  1  0  0  0  0  0  0  0  0  0
    9.2845    2.3472    5.0565 O   0  0  0  0  0  0  0  0  0  0  0  0
    7.9676    7.7319   -3.7548 C   0  0  0  0  0  0  0  0  0  0  0  0
    8.0013    6.3970   -4.1979 O   0  0  0  0  0  0  0  0  0  0  0  0
    5.1189    2.6471   -0.7830 C   0  0  1  0  0  0  0  0  0  0  0  0
    5.3714    1.6979    0.2566 O   0  0  0  0  0  0  0  0  0  0  0  0
    8.6251    2.8677    7.4255 C   0  0  0  0  0  0  0  0  0  0  0  0
    8.0555    4.2199    7.1734 N   0  0  0  0  0  0  0  0  0  0  0  0
  1  2  1  6  0  0  0
  1  7  1  0  0  0  0
  1 30  1  0  0  0  0
  3  4  1  6  0  0  0
  3  9  1  0  0  0  0
  3 39  1  0  0  0  0
  5 10  1  0  0  0  0
  5 26  1  0  0  0  0
  5 32  1  6  0  0  0
  6 12  1  0  0  0  0
  6 36  1  0  0  0  0
  6 19  1  6  0  0  0
  7  8  1  1  0  0  0
  7 14  1  0  0  0  0
  9 16  1  0  0  0  0
 10 11  1  6  0  0  0
 10 18  1  0  0  0  0
 12 13  1  1  0  0  0
 12 20  1  0  0  0  0
 14 15  1  1  0  0  0
 14 22  1  0  0  0  0
 16 17  1  6  0  0  0
 16 24  1  0  0  0  0
 18 19  1  6  0  0  0
 18 25  1  0  0  0  0
 20 21  1  1  0  0  0
 20 27  1  0  0  0  0
 22 23  1  6  0  0  0
 22 29  1  0  0  0  0
 24  2  1  1  0  0  0
 24 31  1  0  0  0  0
 25 26  1  0  0  0  0
 25 33  1  6  0  0  0
 27 28  1  6  0  0  0
 27 35  1  0  0  0  0
 29 30  1  0  0  0  0
 29 37  1  6  0  0  0
 31 32  1  6  0  0  0
 31 39  1  0  0  0  0
 33 34  1  0  0  0  0
 35 36  1  0  0  0  0
 35 41  1  1  0  0  0
 37 38  1  0  0  0  0
 39 40  1  1  0  0  0
 41 42  1  0  0  0  0
M  END
>  <CHROM.1>
178.10662139,-171.65038354,169.17436830,-175.64979076,58.21977168,178.90864660
-177.91859881,-175.86439602,178.57615163,7.39460416,4.51316747,1.20331470
-2.31084170,0.87815331,2.83190865

>  <Name>
ligand

>  <RI>
0

>  <Rbt.Current_Directory>
/home/itssahil/PROJECTS/Mol_Feturizer/Test_systems_manuscript/rnas/2o3w

>  <Rbt.Executable>
rbdock ($Id: //depot/dev/client3/rdock/2013.1/src/exe/rbdock.cxx#4 $)

>  <Rbt.Library>
libRbt.so (2013.1, Build901 2013/11/27)

>  <Rbt.Parameter_File>
/export/apps/rDock/src/rDock_2013.1_src/data/scripts/dock_solv.prm

>  <Rbt.Receptor>
prm/pocket_docking_5.prm

>  <SCORE>
-13.9061

>  <SCORE.INTER>
-0.643392

>  <SCORE.INTER.CONST>
1

>  <SCORE.INTER.POLAR>
0

>  <SCORE.INTER.ROT>
9

>  <SCORE.INTER.SOLV>
12.903

>  <SCORE.INTER.VDW>
-14.3299

>  <SCORE.INTER.norm>
-0.0153189

>  <SCORE.INTRA>
-13.2661

>  <SCORE.INTRA.DIHEDRAL>
-26.6143

>  <SCORE.INTRA.DIHEDRAL.0>
27.8999

>  <SCORE.INTRA.POLAR>
0

>  <SCORE.INTRA.POLAR.0>
0

>  <SCORE.INTRA.REPUL>
0

>  <SCORE.INTRA.REPUL.0>
0

>  <SCORE.INTRA.SOLV>
-3.94557

>  <SCORE.INTRA.SOLV.lig_0>
-104.479

>  <SCORE.INTRA.VDW>
2.01385

>  <SCORE.INTRA.VDW.0>
-6.17816

>  <SCORE.INTRA.norm>
-0.315859

>  <SCORE.RESTR>
0.00340399

>  <SCORE.RESTR.CAVITY>
0.00340399

>  <SCORE.RESTR.norm>
8.10473e-05

>  <SCORE.SYSTEM>
0

>  <SCORE.SYSTEM.CONST>
0

>  <SCORE.SYSTEM.DIHEDRAL>
0

>  <SCORE.SYSTEM.SOLV>
0

>  <SCORE.SYSTEM.norm>
0

>  <SCORE.heavy>
42

>  <SCORE.norm>
-0.331097

>  <RMSD>
9.751

$$$$
ligand
 OpenBabel02271912133D
libRbt.so/2013.1/901 2013/11/27
 42 45  0  0  0  0  0  0  0  0999 V2000
    6.0769    6.4710    0.0594 C   0  0  2  0  0  0  0  0  0  0  0  0
    4.8346    6.1106   -0.5682 O   0  0  0  0  0  0  0  0  0  0  0  0
    3.3343    2.1350   -1.4282 C   0  0  2  0  0  0  0  0  0  0  0  0
    3.1580    0.7711   -2.0105 N   0  0  0  0  0  0  0  0  0  0  0  0
    7.0856    3.0625    1.1335 C   0  0  1  0  0  0  0  0  0  0  0  0
    9.1264    1.5713    4.6009 C   0  0  1  0  0  0  0  0  0  0  0  0
    5.8960    7.9075    0.6353 C   0  0  2  0  0  0  0  0  0  0  0  0
    4.6689    8.0421    1.4395 N   0  0  0  0  0  0  0  0  0  0  0  0
    3.1070    3.2583   -2.5183 C   0  0  0  0  0  0  0  0  0  0  0  0
    8.5497    3.5249    1.4043 C   0  0  2  0  0  0  0  0  0  0  0  0
    9.5411    2.8475    0.5936 O   0  0  0  0  0  0  0  0  0  0  0  0
   10.0476    2.4411    5.5302 C   0  0  2  0  0  0  0  0  0  0  0  0
   11.4559    2.4447    5.0329 N   0  0  0  0  0  0  0  0  0  0  0  0
    5.8218    8.9756   -0.4714 C   0  0  1  0  0  0  0  0  0  0  0  0
    5.6961   10.2780    0.1020 O   0  0  0  0  0  0  0  0  0  0  0  0
    3.2837    4.6699   -1.8410 C   0  0  2  0  0  0  0  0  0  0  0  0
    3.0620    5.7529   -2.8367 N   0  0  0  0  0  0  0  0  0  0  0  0
    8.6592    3.2962    2.9127 C   0  0  2  0  0  0  0  0  0  0  0  0
    9.1445    1.9503    3.2190 O   0  0  0  0  0  0  0  0  0  0  0  0
    9.9678    1.8796    7.0286 C   0  0  1  0  0  0  0  0  0  0  0  0
    8.6887    2.2418    7.5958 O   0  0  0  0  0  0  0  0  0  0  0  0
    7.0743    8.8735   -1.3713 C   0  0  2  0  0  0  0  0  0  0  0  0
    7.0298    9.8560   -2.3799 O   0  0  0  0  0  0  0  0  0  0  0  0
    4.7280    4.8112   -1.2167 C   0  0  2  0  0  0  0  0  0  0  0  0
    7.2476    3.5221    3.4798 C   0  0  2  0  0  0  0  0  0  0  0  0
    6.4016    3.1162    2.4065 O   0  0  0  0  0  0  0  0  0  0  0  0
   10.1590    0.2907    7.1085 C   0  0  2  0  0  0  0  0  0  0  0  0
   11.5170    0.0029    6.7780 O   0  0  0  0  0  0  0  0  0  0  0  0
    7.1377    7.4405   -1.9975 C   0  0  2  0  0  0  0  0  0  0  0  0
    7.1734    6.4391   -0.9318 O   0  0  0  0  0  0  0  0  0  0  0  0
    5.0430    3.7100   -0.1806 C   0  0  2  0  0  0  0  0  0  0  0  0
    6.4500    3.8819    0.1438 O   0  0  0  0  0  0  0  0  0  0  0  0
    6.9395    4.9888    3.9135 C   0  0  0  0  0  0  0  0  0  0  0  0
    5.6254    5.0517    4.4595 O   0  0  0  0  0  0  0  0  0  0  0  0
    9.1874   -0.4372    6.1042 C   0  0  1  0  0  0  0  0  0  0  0  0
    9.4909    0.1114    4.7711 O   0  0  0  0  0  0  0  0  0  0  0  0
    8.3410    7.2493   -2.8915 C   0  0  0  0  0  0  0  0  0  0  0  0
    9.5253    7.3533   -2.1394 O   0  0  0  0  0  0  0  0  0  0  0  0
    4.7813    2.2763   -0.8065 C   0  0  1  0  0  0  0  0  0  0  0  0
    4.9265    1.2664    0.1958 O   0  0  0  0  0  0  0  0  0  0  0  0
    9.3344   -2.0205    6.0935 C   0  0  0  0  0  0  0  0  0  0  0  0
    8.9517   -2.7096    7.3566 N   0  0  0  0  0  0  0  0  0  0  0  0
  1  2  1  6  0  0  0
  1  7  1  0  0  0  0
  1 30  1  0  0  0  0
  3  4  1  6  0  0  0
  3  9  1  0  0  0  0
  3 39  1  0  0  0  0
  5 10  1  0  0  0  0
  5 26  1  0  0  0  0
  5 32  1  6  0  0  0
  6 12  1  0  0  0  0
  6 36  1  0  0  0  0
  6 19  1  6  0  0  0
  7  8  1  6  0  0  0
  7 14  1  0  0  0  0
  9 16  1  0  0  0  0
 10 11  1  6  0  0  0
 10 18  1  0  0  0  0
 12 13  1  6  0  0  0
 12 20  1  0  0  0  0
 14 15  1  1  0  0  0
 14 22  1  0  0  0  0
 16 17  1  6  0  0  0
 16 24  1  0  0  0  0
 18 19  1  6  0  0  0
 18 25  1  0  0  0  0
 20 21  1  6  0  0  0
 20 27  1  0  0  0  0
 22 23  1  6  0  0  0
 22 29  1  0  0  0  0
 24  2  1  1  0  0  0
 24 31  1  0  0  0  0
 25 26  1  0  0  0  0
 25 33  1  6  0  0  0
 27 28  1  6  0  0  0
 27 35  1  0  0  0  0
 29 30  1  0  0  0  0
 29 37  1  1  0  0  0
 31 32  1  6  0  0  0
 31 39  1  0  0  0  0
 33 34  1  0  0  0  0
 35 36  1  0  0  0  0
 35 41  1  6  0  0  0
 37 38  1  0  0  0  0
 39 40  1  1  0  0  0
 41 42  1  0  0  0  0
M  END
>  <CHROM.1>
178.98589675,-179.18700602,-172.47392881,-62.66637423,-178.03397199,63.98080002
177.06964338,-174.41184878,65.31545085,7.12659706,3.93703441,1.63631923,-2.14034818
0.78813848,2.70668550

>  <Name>
ligand

>  <RI>
0

>  <Rbt.Current_Directory>
/home/itssahil/PROJECTS/Mol_Feturizer/Test_systems_manuscript/rnas/2o3w

>  <Rbt.Executable>
rbdock ($Id: //depot/dev/client3/rdock/2013.1/src/exe/rbdock.cxx#4 $)

>  <Rbt.Library>
libRbt.so (2013.1, Build901 2013/11/27)

>  <Rbt.Parameter_File>
/export/apps/rDock/src/rDock_2013.1_src/data/scripts/dock_solv.prm

>  <Rbt.Receptor>
prm/pocket_docking_8.prm

>  <SCORE>
-12.2054

>  <SCORE.INTER>
0.960105

>  <SCORE.INTER.CONST>
1

>  <SCORE.INTER.POLAR>
0

>  <SCORE.INTER.ROT>
9

>  <SCORE.INTER.SOLV>
14.7276

>  <SCORE.INTER.VDW>
-13.8691

>  <SCORE.INTER.norm>
0.0228597

>  <SCORE.INTRA>
-13.1655

>  <SCORE.INTRA.DIHEDRAL>
-27.0625

>  <SCORE.INTRA.DIHEDRAL.0>
27.8999

>  <SCORE.INTRA.POLAR>
0

>  <SCORE.INTRA.POLAR.0>
0

>  <SCORE.INTRA.REPUL>
0

>  <SCORE.INTRA.REPUL.0>
0

>  <SCORE.INTRA.SOLV>
-5.71145

>  <SCORE.INTRA.SOLV.lig_0>
-104.479

>  <SCORE.INTRA.VDW>
3.22149

>  <SCORE.INTRA.VDW.0>
-6.17816

>  <SCORE.INTRA.norm>
-0.313464

>  <SCORE.RESTR>
0

>  <SCORE.RESTR.CAVITY>
0

>  <SCORE.RESTR.norm>
0

>  <SCORE.SYSTEM>
0

>  <SCORE.SYSTEM.CONST>
0

>  <SCORE.SYSTEM.DIHEDRAL>
0

>  <SCORE.SYSTEM.SOLV>
0

>  <SCORE.SYSTEM.norm>
0

>  <SCORE.heavy>
42

>  <SCORE.norm>
-0.290604

>  <RMSD>
9.775

$$$$
ligand
 OpenBabel02271912133D
libRbt.so/2013.1/901 2013/11/27
 42 45  0  0  0  0  0  0  0  0999 V2000
    2.4593    8.4440    0.6578 C   0  0  2  0  0  0  0  0  0  0  0  0
    2.7701    7.5095   -0.3899 O   0  0  0  0  0  0  0  0  0  0  0  0
    0.2850    4.2135    0.9356 C   0  0  2  0  0  0  0  0  0  0  0  0
   -0.4799    2.9316    0.9821 N   0  0  0  0  0  0  0  0  0  0  0  0
    4.8962    4.0762    0.6387 C   0  0  1  0  0  0  0  0  0  0  0  0
    8.5927    1.9908    1.9479 C   0  0  1  0  0  0  0  0  0  0  0  0
    3.5404    9.5649    0.6032 C   0  0  2  0  0  0  0  0  0  0  0  0
    3.7215   10.1078   -0.7544 N   0  0  0  0  0  0  0  0  0  0  0  0
   -0.3193    5.2039   -0.1395 C   0  0  0  0  0  0  0  0  0  0  0  0
    6.0181    3.5789   -0.3230 C   0  0  2  0  0  0  0  0  0  0  0  0
    5.7082    2.3339   -0.9960 O   0  0  0  0  0  0  0  0  0  0  0  0
    8.7771    0.5172    2.4611 C   0  0  2  0  0  0  0  0  0  0  0  0
    7.6394    0.1122    3.3401 N   0  0  0  0  0  0  0  0  0  0  0  0
    4.9207    9.0687    1.0716 C   0  0  1  0  0  0  0  0  0  0  0  0
    5.8691   10.1366    1.0429 O   0  0  0  0  0  0  0  0  0  0  0  0
    0.5130    6.5416   -0.1257 C   0  0  2  0  0  0  0  0  0  0  0  0
   -0.0382    7.5042   -1.1173 N   0  0  0  0  0  0  0  0  0  0  0  0
    7.2218    3.5402    0.6198 C   0  0  2  0  0  0  0  0  0  0  0  0
    7.3541    2.2364    1.2703 O   0  0  0  0  0  0  0  0  0  0  0  0
   10.1740    0.3983    3.2365 C   0  0  1  0  0  0  0  0  0  0  0  0
   11.2484    0.4243    2.2702 O   0  0  0  0  0  0  0  0  0  0  0  0
    4.7971    8.4615    2.4877 C   0  0  2  0  0  0  0  0  0  0  0  0
    6.0559    8.0176    2.9379 O   0  0  0  0  0  0  0  0  0  0  0  0
    2.0321    6.2558   -0.4523 C   0  0  2  0  0  0  0  0  0  0  0  0
    6.9890    4.6567    1.6516 C   0  0  2  0  0  0  0  0  0  0  0  0
    5.5678    4.7104    1.7513 O   0  0  0  0  0  0  0  0  0  0  0  0
   10.3908    1.5676    4.3105 C   0  0  2  0  0  0  0  0  0  0  0  0
    9.4653    1.3519    5.3750 O   0  0  0  0  0  0  0  0  0  0  0  0
    3.7747    7.2772    2.4479 C   0  0  2  0  0  0  0  0  0  0  0  0
    2.4800    7.7608    1.9687 O   0  0  0  0  0  0  0  0  0  0  0  0
    2.6759    5.2494    0.5265 C   0  0  2  0  0  0  0  0  0  0  0  0
    3.9914    4.9680   -0.0256 O   0  0  0  0  0  0  0  0  0  0  0  0
    7.5771    6.0478    1.2601 C   0  0  0  0  0  0  0  0  0  0  0  0
    8.9784    5.9207    1.0387 O   0  0  0  0  0  0  0  0  0  0  0  0
   10.1466    2.9784    3.6531 C   0  0  1  0  0  0  0  0  0  0  0  0
    8.7780    2.9450    3.1091 O   0  0  0  0  0  0  0  0  0  0  0  0
    3.5864    6.6259    3.7985 C   0  0  0  0  0  0  0  0  0  0  0  0
    2.7248    5.5193    3.6873 O   0  0  0  0  0  0  0  0  0  0  0  0
    1.8046    3.9264    0.6055 C   0  0  1  0  0  0  0  0  0  0  0  0
    2.3158    3.0590    1.6214 O   0  0  0  0  0  0  0  0  0  0  0  0
   10.3083    4.1987    4.6598 C   0  0  0  0  0  0  0  0  0  0  0  0
    9.3694    4.2067    5.8153 N   0  0  0  0  0  0  0  0  0  0  0  0
  1  2  1  6  0  0  0
  1  7  1  0  0  0  0
  1 30  1  0  0  0  0
  3  4  1  6  0  0  0
  3  9  1  0  0  0  0
  3 39  1  0  0  0  0
  5 10  1  0  0  0  0
  5 26  1  0  0  0  0
  5 32  1  6  0  0  0
  6 12  1  0  0  0  0
  6 36  1  0  0  0  0
  6 19  1  1  0  0  0
  7  8  1  6  0  0  0
  7 14  1  0  0  0  0
  9 16  1  0  0  0  0
 10 11  1  1  0  0  0
 10 18  1  0  0  0  0
 12 13  1  1  0  0  0
 12 20  1  0  0  0  0
 14 15  1  1  0  0  0
 14 22  1  0  0  0  0
 16 17  1  6  0  0  0
 16 24  1  0  0  0  0
 18 19  1  1  0  0  0
 18 25  1  0  0  0  0
 20 21  1  6  0  0  0
 20 27  1  0  0  0  0
 22 23  1  6  0  0  0
 22 29  1  0  0  0  0
 24  2  1  1  0  0  0
 24 31  1  0  0  0  0
 25 26  1  0  0  0  0
 25 33  1  6  0  0  0
 27 28  1  1  0  0  0
 27 35  1  0  0  0  0
 29 30  1  0  0  0  0
 29 37  1  1  0  0  0
 31 32  1  6  0  0  0
 31 39  1  0  0  0  0
 33 34  1  0  0  0  0
 35 36  1  0  0  0  0
 35 41  1  1  0  0  0
 37 38  1  0  0  0  0
 39 40  1  1  0  0  0
 41 42  1  0  0  0  0
M  END
>  <CHROM.1>
171.38800713,40.45562169,167.19825486,-171.94425941,-57.69703174,-176.32385318
179.01258161,161.91671981,-61.20039137,5.38030726,4.90365906,1.66632263,-2.57565018
0.35439538,3.14008946

>  <Name>
ligand

>  <RI>
0

>  <Rbt.Current_Directory>
/home/itssahil/PROJECTS/Mol_Feturizer/Test_systems_manuscript/rnas/2o3w

>  <Rbt.Executable>
rbdock ($Id: //depot/dev/client3/rdock/2013.1/src/exe/rbdock.cxx#4 $)

>  <Rbt.Library>
libRbt.so (2013.1, Build901 2013/11/27)

>  <Rbt.Parameter_File>
/export/apps/rDock/src/rDock_2013.1_src/data/scripts/dock_solv.prm

>  <Rbt.Receptor>
prm/pocket_docking_5.prm

>  <SCORE>
-16.9776

>  <SCORE.INTER>
-4.93389

>  <SCORE.INTER.CONST>
1

>  <SCORE.INTER.POLAR>
0

>  <SCORE.INTER.ROT>
9

>  <SCORE.INTER.SOLV>
13.6045

>  <SCORE.INTER.VDW>
-17.4241

>  <SCORE.INTER.norm>
-0.117474

>  <SCORE.INTRA>
-12.0437

>  <SCORE.INTRA.DIHEDRAL>
-23.0211

>  <SCORE.INTRA.DIHEDRAL.0>
27.8999

>  <SCORE.INTRA.POLAR>
0

>  <SCORE.INTRA.POLAR.0>
0

>  <SCORE.INTRA.REPUL>
0

>  <SCORE.INTRA.REPUL.0>
0

>  <SCORE.INTRA.SOLV>
-1.91643

>  <SCORE.INTRA.SOLV.lig_0>
-104.479

>  <SCORE.INTRA.VDW>
0.425019

>  <SCORE.INTRA.VDW.0>
-6.17816

>  <SCORE.INTRA.norm>
-0.286755

>  <SCORE.RESTR>
0

>  <SCORE.RESTR.CAVITY>
0

>  <SCORE.RESTR.norm>
0

>  <SCORE.SYSTEM>
0

>  <SCORE.SYSTEM.CONST>
0

>  <SCORE.SYSTEM.DIHEDRAL>
0

>  <SCORE.SYSTEM.SOLV>
0

>  <SCORE.SYSTEM.norm>
0

>  <SCORE.heavy>
42

>  <SCORE.norm>
-0.404229

>  <RMSD>
9.779

$$$$
ligand
 OpenBabel02271912133D
libRbt.so/2013.1/901 2013/11/27
 42 45  0  0  0  0  0  0  0  0999 V2000
    5.7675    6.4520    0.8219 C   0  0  2  0  0  0  0  0  0  0  0  0
    6.5280    5.2681    1.1176 O   0  0  0  0  0  0  0  0  0  0  0  0
    3.9882    2.4264   -0.9489 C   0  0  2  0  0  0  0  0  0  0  0  0
    3.4255    1.1650   -1.5171 N   0  0  0  0  0  0  0  0  0  0  0  0
    6.1347    2.3611    2.9961 C   0  0  1  0  0  0  0  0  0  0  0  0
    8.4305   -0.8244    5.0164 C   0  0  1  0  0  0  0  0  0  0  0  0
    6.5278    7.6527    1.4610 C   0  0  2  0  0  0  0  0  0  0  0  0
    7.9590    7.6642    1.1112 N   0  0  0  0  0  0  0  0  0  0  0  0
    5.3824    2.7803   -1.6067 C   0  0  0  0  0  0  0  0  0  0  0  0
    6.4829    2.3871    4.5156 C   0  0  2  0  0  0  0  0  0  0  0  0
    7.5974    3.2504    4.8501 O   0  0  0  0  0  0  0  0  0  0  0  0
    8.2763   -1.0858    6.5580 C   0  0  2  0  0  0  0  0  0  0  0  0
    9.0633   -0.0928    7.3488 N   0  0  0  0  0  0  0  0  0  0  0  0
    6.4459    7.6445    2.9986 C   0  0  1  0  0  0  0  0  0  0  0  0
    7.1211    8.7817    3.5387 O   0  0  0  0  0  0  0  0  0  0  0  0
    5.9126    4.1276   -0.9851 C   0  0  2  0  0  0  0  0  0  0  0  0
    7.2187    4.4992   -1.5931 N   0  0  0  0  0  0  0  0  0  0  0  0
    6.6903    0.8984    4.7983 C   0  0  2  0  0  0  0  0  0  0  0  0
    8.0845    0.5019    4.5983 O   0  0  0  0  0  0  0  0  0  0  0  0
    8.7404   -2.5831    6.8894 C   0  0  1  0  0  0  0  0  0  0  0  0
    7.7301   -3.5012    6.4147 O   0  0  0  0  0  0  0  0  0  0  0  0
    4.9638    7.6079    3.4357 C   0  0  2  0  0  0  0  0  0  0  0  0
    4.8711    7.6169    4.8413 O   0  0  0  0  0  0  0  0  0  0  0  0
    6.0758    3.9924    0.5804 C   0  0  2  0  0  0  0  0  0  0  0  0
    5.7542    0.1490    3.8353 C   0  0  2  0  0  0  0  0  0  0  0  0
    5.6992    1.0137    2.7031 O   0  0  0  0  0  0  0  0  0  0  0  0
   10.1540   -2.9557    6.2334 C   0  0  2  0  0  0  0  0  0  0  0  0
   11.1565   -2.1998    6.9117 O   0  0  0  0  0  0  0  0  0  0  0  0
    4.2888    6.3252    2.8452 C   0  0  2  0  0  0  0  0  0  0  0  0
    4.4065    6.3343    1.3872 O   0  0  0  0  0  0  0  0  0  0  0  0
    4.7623    3.5917    1.2871 C   0  0  2  0  0  0  0  0  0  0  0  0
    5.1350    3.3351    2.6691 O   0  0  0  0  0  0  0  0  0  0  0  0
    4.3256   -0.1354    4.3943 C   0  0  0  0  0  0  0  0  0  0  0  0
    3.6962    1.0985    4.7264 O   0  0  0  0  0  0  0  0  0  0  0  0
   10.1605   -2.6137    4.6955 C   0  0  1  0  0  0  0  0  0  0  0  0
    9.8407   -1.1793    4.5939 O   0  0  0  0  0  0  0  0  0  0  0  0
    2.8291    6.2115    3.2194 C   0  0  0  0  0  0  0  0  0  0  0  0
    2.6980    6.0133    4.6061 O   0  0  0  0  0  0  0  0  0  0  0  0
    4.1542    2.2888    0.6177 C   0  0  1  0  0  0  0  0  0  0  0  0
    2.8656    2.0058    1.1700 O   0  0  0  0  0  0  0  0  0  0  0  0
   11.5413   -2.9217    3.9694 C   0  0  0  0  0  0  0  0  0  0  0  0
   11.9288   -4.3580    3.9090 N   0  0  0  0  0  0  0  0  0  0  0  0
  1  2  1  1  0  0  0
  1  7  1  0  0  0  0
  1 30  1  0  0  0  0
  3  4  1  6  0  0  0
  3  9  1  0  0  0  0
  3 39  1  0  0  0  0
  5 10  1  0  0  0  0
  5 26  1  0  0  0  0
  5 32  1  1  0  0  0
  6 12  1  0  0  0  0
  6 36  1  0  0  0  0
  6 19  1  1  0  0  0
  7  8  1  1  0  0  0
  7 14  1  0  0  0  0
  9 16  1  0  0  0  0
 10 11  1  6  0  0  0
 10 18  1  0  0  0  0
 12 13  1  1  0  0  0
 12 20  1  0  0  0  0
 14 15  1  1  0  0  0
 14 22  1  0  0  0  0
 16 17  1  6  0  0  0
 16 24  1  0  0  0  0
 18 19  1  6  0  0  0
 18 25  1  0  0  0  0
 20 21  1  6  0  0  0
 20 27  1  0  0  0  0
 22 23  1  1  0  0  0
 22 29  1  0  0  0  0
 24  2  1  1  0  0  0
 24 31  1  0  0  0  0
 25 26  1  0  0  0  0
 25 33  1  1  0  0  0
 27 28  1  1  0  0  0
 27 35  1  0  0  0  0
 29 30  1  0  0  0  0
 29 37  1  6  0  0  0
 31 32  1  1  0  0  0
 31 39  1  0  0  0  0
 33 34  1  0  0  0  0
 35 36  1  0  0  0  0
 35 41  1  1  0  0  0
 37 38  1  0  0  0  0
 39 40  1  1  0  0  0
 41 42  1  0  0  0  0
M  END
>  <CHROM.1>
-177.10372751,54.29886919,171.46200423,-63.32834711,59.17968019,-66.25466845
-57.20943766,173.11886579,65.29701600,6.53021182,2.41652571,3.15686632,-2.53409815
1.01070987,-2.69823397

>  <Name>
ligand

>  <RI>
0

>  <Rbt.Current_Directory>
/home/itssahil/PROJECTS/Mol_Feturizer/Test_systems_manuscript/rnas/2o3w

>  <Rbt.Executable>
rbdock ($Id: //depot/dev/client3/rdock/2013.1/src/exe/rbdock.cxx#4 $)

>  <Rbt.Library>
libRbt.so (2013.1, Build901 2013/11/27)

>  <Rbt.Parameter_File>
/export/apps/rDock/src/rDock_2013.1_src/data/scripts/dock_solv.prm

>  <Rbt.Receptor>
prm/pocket_docking_4.prm

>  <SCORE>
-11.756

>  <SCORE.INTER>
1.04846

>  <SCORE.INTER.CONST>
1

>  <SCORE.INTER.POLAR>
0

>  <SCORE.INTER.ROT>
9

>  <SCORE.INTER.SOLV>
14.728

>  <SCORE.INTER.VDW>
-13.8103

>  <SCORE.INTER.norm>
0.0249634

>  <SCORE.INTRA>
-12.8105

>  <SCORE.INTRA.DIHEDRAL>
-26.6332

>  <SCORE.INTRA.DIHEDRAL.0>
27.8999

>  <SCORE.INTRA.POLAR>
0

>  <SCORE.INTRA.POLAR.0>
0

>  <SCORE.INTRA.REPUL>
0

>  <SCORE.INTRA.REPUL.0>
0

>  <SCORE.INTRA.SOLV>
-3.92861

>  <SCORE.INTRA.SOLV.lig_0>
-104.479

>  <SCORE.INTRA.VDW>
2.4704

>  <SCORE.INTRA.VDW.0>
-6.17816

>  <SCORE.INTRA.norm>
-0.305012

>  <SCORE.RESTR>
0.00605943

>  <SCORE.RESTR.CAVITY>
0.00605943

>  <SCORE.RESTR.norm>
0.000144272

>  <SCORE.SYSTEM>
0

>  <SCORE.SYSTEM.CONST>
0

>  <SCORE.SYSTEM.DIHEDRAL>
0

>  <SCORE.SYSTEM.SOLV>
0

>  <SCORE.SYSTEM.norm>
0

>  <SCORE.heavy>
42

>  <SCORE.norm>
-0.279904

>  <RMSD>
9.789

$$$$
ligand
 OpenBabel02271912133D
libRbt.so/2013.1/901 2013/11/27
 42 45  0  0  0  0  0  0  0  0999 V2000
    8.0551    3.9217    2.9661 C   0  0  2  0  0  0  0  0  0  0  0  0
    6.8728    4.7355    3.0514 O   0  0  0  0  0  0  0  0  0  0  0  0
    2.6880    3.7527    2.4880 C   0  0  2  0  0  0  0  0  0  0  0  0
    1.3981    3.2891    1.8950 N   0  0  0  0  0  0  0  0  0  0  0  0
    6.0606    0.6839    3.3739 C   0  0  1  0  0  0  0  0  0  0  0  0
    6.9053   -3.3695    3.2024 C   0  0  1  0  0  0  0  0  0  0  0  0
    9.1707    4.6544    3.7704 C   0  0  2  0  0  0  0  0  0  0  0  0
    8.7239    5.0577    5.1151 N   0  0  0  0  0  0  0  0  0  0  0  0
    3.2604    5.0050    1.7095 C   0  0  0  0  0  0  0  0  0  0  0  0
    7.1144   -0.2874    2.7601 C   0  0  2  0  0  0  0  0  0  0  0  0
    6.6292   -1.0400    1.6211 O   0  0  0  0  0  0  0  0  0  0  0  0
    5.9445   -4.6035    3.3541 C   0  0  2  0  0  0  0  0  0  0  0  0
    5.9726   -5.1328    4.7505 N   0  0  0  0  0  0  0  0  0  0  0  0
    9.6587    5.9315    3.0621 C   0  0  1  0  0  0  0  0  0  0  0  0
   10.7062    6.5475    3.8133 O   0  0  0  0  0  0  0  0  0  0  0  0
    4.6050    5.4599    2.3932 C   0  0  2  0  0  0  0  0  0  0  0  0
    5.1651    6.6476    1.6937 N   0  0  0  0  0  0  0  0  0  0  0  0
    7.5028   -1.1169    3.9850 C   0  0  2  0  0  0  0  0  0  0  0  0
    6.6547   -2.3010    4.1239 O   0  0  0  0  0  0  0  0  0  0  0  0
    6.3667   -5.7348    2.3011 C   0  0  1  0  0  0  0  0  0  0  0  0
    5.9668   -5.3139    0.9776 O   0  0  0  0  0  0  0  0  0  0  0  0
   10.1220    5.5818    1.6296 C   0  0  2  0  0  0  0  0  0  0  0  0
   10.5877    6.7380    0.9733 O   0  0  0  0  0  0  0  0  0  0  0  0
    5.6631    4.2869    2.3763 C   0  0  2  0  0  0  0  0  0  0  0  0
    7.3549   -0.1804    5.1960 C   0  0  2  0  0  0  0  0  0  0  0  0
    6.2993    0.6922    4.8001 O   0  0  0  0  0  0  0  0  0  0  0  0
    7.9396   -6.0406    2.3139 C   0  0  2  0  0  0  0  0  0  0  0  0
    8.2429   -6.6868    3.5495 O   0  0  0  0  0  0  0  0  0  0  0  0
    8.9252    4.9457    0.8470 C   0  0  2  0  0  0  0  0  0  0  0  0
    8.4539    3.7540    1.5524 O   0  0  0  0  0  0  0  0  0  0  0  0
    5.1497    3.0072    3.0720 C   0  0  2  0  0  0  0  0  0  0  0  0
    6.1581    1.9949    2.8021 O   0  0  0  0  0  0  0  0  0  0  0  0
    8.6392    0.6243    5.5664 C   0  0  0  0  0  0  0  0  0  0  0  0
    9.0161    1.4428    4.4632 O   0  0  0  0  0  0  0  0  0  0  0  0
    8.7663   -4.7062    2.1791 C   0  0  1  0  0  0  0  0  0  0  0  0
    8.3396   -3.8458    3.2961 O   0  0  0  0  0  0  0  0  0  0  0  0
    9.2927    4.5652   -0.5686 C   0  0  0  0  0  0  0  0  0  0  0  0
   10.2670    3.5503   -0.5605 O   0  0  0  0  0  0  0  0  0  0  0  0
    3.7472    2.5788    2.4677 C   0  0  1  0  0  0  0  0  0  0  0  0
    3.2022    1.4860    3.2122 O   0  0  0  0  0  0  0  0  0  0  0  0
   10.3424   -4.9143    2.2166 C   0  0  0  0  0  0  0  0  0  0  0  0
   11.1570   -3.6738    2.0971 N   0  0  0  0  0  0  0  0  0  0  0  0
  1  2  1  6  0  0  0
  1  7  1  0  0  0  0
  1 30  1  0  0  0  0
  3  4  1  6  0  0  0
  3  9  1  0  0  0  0
  3 39  1  0  0  0  0
  5 10  1  0  0  0  0
  5 26  1  0  0  0  0
  5 32  1  6  0  0  0
  6 12  1  0  0  0  0
  6 36  1  0  0  0  0
  6 19  1  1  0  0  0
  7  8  1  1  0  0  0
  7 14  1  0  0  0  0
  9 16  1  0  0  0  0
 10 11  1  6  0  0  0
 10 18  1  0  0  0  0
 12 13  1  1  0  0  0
 12 20  1  0  0  0  0
 14 15  1  1  0  0  0
 14 22  1  0  0  0  0
 16 17  1  6  0  0  0
 16 24  1  0  0  0  0
 18 19  1  1  0  0  0
 18 25  1  0  0  0  0
 20 21  1  6  0  0  0
 20 27  1  0  0  0  0
 22 23  1  6  0  0  0
 22 29  1  0  0  0  0
 24  2  1  1  0  0  0
 24 31  1  0  0  0  0
 25 26  1  0  0  0  0
 25 33  1  6  0  0  0
 27 28  1  1  0  0  0
 27 35  1  0  0  0  0
 29 30  1  0  0  0  0
 29 37  1  6  0  0  0
 31 32  1  6  0  0  0
 31 39  1  0  0  0  0
 33 34  1  0  0  0  0
 35 36  1  0  0  0  0
 35 41  1  1  0  0  0
 37 38  1  0  0  0  0
 39 40  1  1  0  0  0
 41 42  1  0  0  0  0
M  END
>  <CHROM.1>
179.74331222,-169.69569878,74.11506636,-178.14672628,60.24539297,64.58111012
175.80910517,170.58929970,-179.76862207,7.24658086,0.99262838,2.75383768
-1.57691087,-0.06640548,3.06661704

>  <Name>
ligand

>  <RI>
0

>  <Rbt.Current_Directory>
/home/itssahil/PROJECTS/Mol_Feturizer/Test_systems_manuscript/rnas/2o3w

>  <Rbt.Executable>
rbdock ($Id: //depot/dev/client3/rdock/2013.1/src/exe/rbdock.cxx#4 $)

>  <Rbt.Library>
libRbt.so (2013.1, Build901 2013/11/27)

>  <Rbt.Parameter_File>
/export/apps/rDock/src/rDock_2013.1_src/data/scripts/dock_solv.prm

>  <Rbt.Receptor>
prm/pocket_docking_4.prm

>  <SCORE>
-10.5518

>  <SCORE.INTER>
2.55389

>  <SCORE.INTER.CONST>
1

>  <SCORE.INTER.POLAR>
0

>  <SCORE.INTER.ROT>
9

>  <SCORE.INTER.SOLV>
8.00675

>  <SCORE.INTER.VDW>
-10.5663

>  <SCORE.INTER.norm>
0.0608069

>  <SCORE.INTRA>
-13.1057

>  <SCORE.INTRA.DIHEDRAL>
-25.6971

>  <SCORE.INTRA.DIHEDRAL.0>
27.8999

>  <SCORE.INTRA.POLAR>
0

>  <SCORE.INTRA.POLAR.0>
0

>  <SCORE.INTRA.REPUL>
0

>  <SCORE.INTRA.REPUL.0>
0

>  <SCORE.INTRA.SOLV>
-4.4301

>  <SCORE.INTRA.SOLV.lig_0>
-104.479

>  <SCORE.INTRA.VDW>
1.95791

>  <SCORE.INTRA.VDW.0>
-6.17816

>  <SCORE.INTRA.norm>
-0.31204

>  <SCORE.RESTR>
0

>  <SCORE.RESTR.CAVITY>
0

>  <SCORE.RESTR.norm>
0

>  <SCORE.SYSTEM>
0

>  <SCORE.SYSTEM.CONST>
0

>  <SCORE.SYSTEM.DIHEDRAL>
0

>  <SCORE.SYSTEM.SOLV>
0

>  <SCORE.SYSTEM.norm>
0

>  <SCORE.heavy>
42

>  <SCORE.norm>
-0.251233

>  <RMSD>
9.859

$$$$
ligand
 OpenBabel02271912133D
libRbt.so/2013.1/901 2013/11/27
 42 45  0  0  0  0  0  0  0  0999 V2000
    7.9068    4.0130    2.9341 C   0  0  2  0  0  0  0  0  0  0  0  0
    6.8175    4.9396    3.0832 O   0  0  0  0  0  0  0  0  0  0  0  0
    2.5639    4.3505    2.4863 C   0  0  2  0  0  0  0  0  0  0  0  0
    1.2359    4.0643    1.8658 N   0  0  0  0  0  0  0  0  0  0  0  0
    5.7220    0.9575    2.9278 C   0  0  1  0  0  0  0  0  0  0  0  0
    6.5354   -3.2101    4.2259 C   0  0  1  0  0  0  0  0  0  0  0  0
    9.0817    4.5478    3.8068 C   0  0  2  0  0  0  0  0  0  0  0  0
    8.6596    4.8789    5.1789 N   0  0  0  0  0  0  0  0  0  0  0  0
    3.2212    5.6472    1.8630 C   0  0  0  0  0  0  0  0  0  0  0  0
    6.7589    0.0093    2.2521 C   0  0  2  0  0  0  0  0  0  0  0  0
    6.2879   -0.6004    1.0251 O   0  0  0  0  0  0  0  0  0  0  0  0
    5.5849   -4.4574    4.1283 C   0  0  2  0  0  0  0  0  0  0  0  0
    4.1683   -4.0713    4.4025 N   0  0  0  0  0  0  0  0  0  0  0  0
    9.7152    5.8213    3.2169 C   0  0  1  0  0  0  0  0  0  0  0  0
   10.8107    6.2526    4.0260 O   0  0  0  0  0  0  0  0  0  0  0  0
    4.6041    5.9090    2.5710 C   0  0  2  0  0  0  0  0  0  0  0  0
    5.2451    7.1325    2.0181 N   0  0  0  0  0  0  0  0  0  0  0  0
    7.0668   -0.9577    3.3964 C   0  0  2  0  0  0  0  0  0  0  0  0
    6.1674   -2.1117    3.3823 O   0  0  0  0  0  0  0  0  0  0  0  0
    6.0831   -5.5833    5.1535 C   0  0  1  0  0  0  0  0  0  0  0  0
    7.2867   -6.1903    4.6320 O   0  0  0  0  0  0  0  0  0  0  0  0
   10.1608    5.5492    1.7620 C   0  0  2  0  0  0  0  0  0  0  0  0
   10.7582    6.7007    1.2130 O   0  0  0  0  0  0  0  0  0  0  0  0
    5.5696    4.6729    2.3816 C   0  0  2  0  0  0  0  0  0  0  0  0
    6.9103   -0.1450    4.6927 C   0  0  2  0  0  0  0  0  0  0  0  0
    5.9063    0.8089    4.3544 O   0  0  0  0  0  0  0  0  0  0  0  0
    6.3664   -5.0066    6.6214 C   0  0  2  0  0  0  0  0  0  0  0  0
    5.1091   -4.6492    7.1940 O   0  0  0  0  0  0  0  0  0  0  0  0
    8.9151    5.1169    0.9189 C   0  0  2  0  0  0  0  0  0  0  0  0
    8.3076    3.9265    1.5136 O   0  0  0  0  0  0  0  0  0  0  0  0
    4.9682    3.3555    2.9181 C   0  0  2  0  0  0  0  0  0  0  0  0
    5.8935    2.3148    2.4995 O   0  0  0  0  0  0  0  0  0  0  0  0
    8.2107    0.5605    5.1882 C   0  0  0  0  0  0  0  0  0  0  0  0
    9.1707   -0.4258    5.5547 O   0  0  0  0  0  0  0  0  0  0  0  0
    7.3112   -3.7478    6.5512 C   0  0  1  0  0  0  0  0  0  0  0  0
    6.6348   -2.7770    5.6735 O   0  0  0  0  0  0  0  0  0  0  0  0
    9.2620    4.8232   -0.5224 C   0  0  0  0  0  0  0  0  0  0  0  0
   10.0691    3.6737   -0.6023 O   0  0  0  0  0  0  0  0  0  0  0  0
    3.5304    3.1139    2.2933 C   0  0  1  0  0  0  0  0  0  0  0  0
    2.9122    1.9773    2.9027 O   0  0  0  0  0  0  0  0  0  0  0  0
    7.6185   -3.0890    7.9655 C   0  0  0  0  0  0  0  0  0  0  0  0
    8.4101   -3.9284    8.9065 N   0  0  0  0  0  0  0  0  0  0  0  0
  1  2  1  6  0  0  0
  1  7  1  0  0  0  0
  1 30  1  0  0  0  0
  3  4  1  6  0  0  0
  3  9  1  0  0  0  0
  3 39  1  0  0  0  0
  5 10  1  0  0  0  0
  5 26  1  0  0  0  0
  5 32  1  6  0  0  0
  6 12  1  0  0  0  0
  6 36  1  0  0  0  0
  6 19  1  6  0  0  0
  7  8  1  1  0  0  0
  7 14  1  0  0  0  0
  9 16  1  0  0  0  0
 10 11  1  6  0  0  0
 10 18  1  0  0  0  0
 12 13  1  1  0  0  0
 12 20  1  0  0  0  0
 14 15  1  1  0  0  0
 14 22  1  0  0  0  0
 16 17  1  6  0  0  0
 16 24  1  0  0  0  0
 18 19  1  1  0  0  0
 18 25  1  0  0  0  0
 20 21  1  6  0  0  0
 20 27  1  0  0  0  0
 22 23  1  6  0  0  0
 22 29  1  0  0  0  0
 24  2  1  1  0  0  0
 24 31  1  0  0  0  0
 25 26  1  0  0  0  0
 25 33  1  6  0  0  0
 27 28  1  6  0  0  0
 27 35  1  0  0  0  0
 29 30  1  0  0  0  0
 29 37  1  6  0  0  0
 31 32  1  6  0  0  0
 31 39  1  0  0  0  0
 33 34  1  0  0  0  0
 35 36  1  0  0  0  0
 35 41  1  1  0  0  0
 37 38  1  0  0  0  0
 39 40  1  1  0  0  0
 41 42  1  0  0  0  0
M  END
>  <CHROM.1>
-179.22187334,-173.48367029,167.41888800,-177.06417402,-65.34810950,67.40052723
174.22092961,175.00270056,65.97579147,6.78070852,1.27603007,3.53008063,-1.46802748
0.16845590,2.74143366

>  <Name>
ligand

>  <RI>
0

>  <Rbt.Current_Directory>
/home/itssahil/PROJECTS/Mol_Feturizer/Test_systems_manuscript/rnas/2o3w

>  <Rbt.Executable>
rbdock ($Id: //depot/dev/client3/rdock/2013.1/src/exe/rbdock.cxx#4 $)

>  <Rbt.Library>
libRbt.so (2013.1, Build901 2013/11/27)

>  <Rbt.Parameter_File>
/export/apps/rDock/src/rDock_2013.1_src/data/scripts/dock_solv.prm

>  <Rbt.Receptor>
prm/pocket_docking_5.prm

>  <SCORE>
-13.6098

>  <SCORE.INTER>
-0.166406

>  <SCORE.INTER.CONST>
1

>  <SCORE.INTER.POLAR>
0

>  <SCORE.INTER.ROT>
9

>  <SCORE.INTER.SOLV>
11.9949

>  <SCORE.INTER.VDW>
-13.7092

>  <SCORE.INTER.norm>
-0.00396205

>  <SCORE.INTRA>
-13.4434

>  <SCORE.INTRA.DIHEDRAL>
-26.0253

>  <SCORE.INTRA.DIHEDRAL.0>
27.8999

>  <SCORE.INTRA.POLAR>
0

>  <SCORE.INTRA.POLAR.0>
0

>  <SCORE.INTRA.REPUL>
0

>  <SCORE.INTRA.REPUL.0>
0

>  <SCORE.INTRA.SOLV>
-5.41947

>  <SCORE.INTRA.SOLV.lig_0>
-104.479

>  <SCORE.INTRA.VDW>
2.27898

>  <SCORE.INTRA.VDW.0>
-6.17816

>  <SCORE.INTRA.norm>
-0.320081

>  <SCORE.RESTR>
0

>  <SCORE.RESTR.CAVITY>
0

>  <SCORE.RESTR.norm>
0

>  <SCORE.SYSTEM>
0

>  <SCORE.SYSTEM.CONST>
0

>  <SCORE.SYSTEM.DIHEDRAL>
0

>  <SCORE.SYSTEM.SOLV>
0

>  <SCORE.SYSTEM.norm>
0

>  <SCORE.heavy>
42

>  <SCORE.norm>
-0.324043

>  <RMSD>
9.877

$$$$
ligand
 OpenBabel02271912133D
libRbt.so/2013.1/901 2013/11/27
 42 45  0  0  0  0  0  0  0  0999 V2000
    7.0845    1.2890    4.3473 C   0  0  2  0  0  0  0  0  0  0  0  0
    8.2512    2.0278    3.9470 O   0  0  0  0  0  0  0  0  0  0  0  0
   12.2359    2.2701    5.6380 C   0  0  2  0  0  0  0  0  0  0  0  0
   13.3762    2.4711    6.5812 N   0  0  0  0  0  0  0  0  0  0  0  0
    9.1063   -1.2757    6.0678 C   0  0  1  0  0  0  0  0  0  0  0  0
    8.3601   -5.5801    6.0250 C   0  0  1  0  0  0  0  0  0  0  0  0
    6.2191    1.0774    3.0688 C   0  0  2  0  0  0  0  0  0  0  0  0
    7.0017    0.5445    1.9401 N   0  0  0  0  0  0  0  0  0  0  0  0
   11.4677    3.6263    5.3690 C   0  0  0  0  0  0  0  0  0  0  0  0
    7.8967   -1.9007    6.8275 C   0  0  2  0  0  0  0  0  0  0  0  0
    8.1032   -2.0349    8.2552 O   0  0  0  0  0  0  0  0  0  0  0  0
    8.9037   -6.7805    6.8806 C   0  0  2  0  0  0  0  0  0  0  0  0
   10.3304   -6.5597    7.2636 N   0  0  0  0  0  0  0  0  0  0  0  0
    5.5683    2.3848    2.5808 C   0  0  1  0  0  0  0  0  0  0  0  0
    4.7544    2.1371    1.4332 O   0  0  0  0  0  0  0  0  0  0  0  0
   10.2942    3.3552    4.3531 C   0  0  2  0  0  0  0  0  0  0  0  0
    9.5574    4.6154    4.0655 N   0  0  0  0  0  0  0  0  0  0  0  0
    7.7081   -3.2100    6.0596 C   0  0  2  0  0  0  0  0  0  0  0  0
    8.4952   -4.2954    6.6453 O   0  0  0  0  0  0  0  0  0  0  0  0
    8.7345   -8.1406    6.0509 C   0  0  1  0  0  0  0  0  0  0  0  0
    7.3363   -8.5063    6.0335 O   0  0  0  0  0  0  0  0  0  0  0  0
    4.7471    3.0123    3.7302 C   0  0  2  0  0  0  0  0  0  0  0  0
    4.1310    4.2018    3.2945 O   0  0  0  0  0  0  0  0  0  0  0  0
    9.2948    2.2770    4.9314 C   0  0  2  0  0  0  0  0  0  0  0  0
    8.1463   -2.9211    4.6140 C   0  0  2  0  0  0  0  0  0  0  0  0
    9.1534   -1.9252    4.7766 O   0  0  0  0  0  0  0  0  0  0  0  0
    9.2767   -8.0237    4.5476 C   0  0  2  0  0  0  0  0  0  0  0  0
   10.6981   -7.9135    4.6096 O   0  0  0  0  0  0  0  0  0  0  0  0
    5.6970    3.2933    4.9420 C   0  0  2  0  0  0  0  0  0  0  0  0
    6.3312    2.0463    5.3694 O   0  0  0  0  0  0  0  0  0  0  0  0
    9.9881    0.9396    5.2720 C   0  0  2  0  0  0  0  0  0  0  0  0
    8.9763    0.1472    5.9524 O   0  0  0  0  0  0  0  0  0  0  0  0
    7.0098   -2.4210    3.6692 C   0  0  0  0  0  0  0  0  0  0  0  0
    5.9918   -3.4142    3.5912 O   0  0  0  0  0  0  0  0  0  0  0  0
    8.6626   -6.7617    3.8318 C   0  0  1  0  0  0  0  0  0  0  0  0
    9.0252   -5.6020    4.6648 O   0  0  0  0  0  0  0  0  0  0  0  0
    4.9726    3.9044    6.1191 C   0  0  0  0  0  0  0  0  0  0  0  0
    5.8992    4.3814    7.0642 O   0  0  0  0  0  0  0  0  0  0  0  0
   11.2347    1.1931    6.2193 C   0  0  1  0  0  0  0  0  0  0  0  0
   11.9638   -0.0223    6.4112 O   0  0  0  0  0  0  0  0  0  0  0  0
    9.1747   -6.5494    2.3414 C   0  0  0  0  0  0  0  0  0  0  0  0
    8.6221   -5.3607    1.6356 N   0  0  0  0  0  0  0  0  0  0  0  0
  1  2  1  6  0  0  0
  1  7  1  0  0  0  0
  1 30  1  0  0  0  0
  3  4  1  1  0  0  0
  3  9  1  0  0  0  0
  3 39  1  0  0  0  0
  5 10  1  0  0  0  0
  5 26  1  0  0  0  0
  5 32  1  6  0  0  0
  6 12  1  0  0  0  0
  6 36  1  0  0  0  0
  6 19  1  1  0  0  0
  7  8  1  6  0  0  0
  7 14  1  0  0  0  0
  9 16  1  0  0  0  0
 10 11  1  1  0  0  0
 10 18  1  0  0  0  0
 12 13  1  6  0  0  0
 12 20  1  0  0  0  0
 14 15  1  6  0  0  0
 14 22  1  0  0  0  0
 16 17  1  1  0  0  0
 16 24  1  0  0  0  0
 18 19  1  1  0  0  0
 18 25  1  0  0  0  0
 20 21  1  6  0  0  0
 20 27  1  0  0  0  0
 22 23  1  6  0  0  0
 22 29  1  0  0  0  0
 24  2  1  6  0  0  0
 24 31  1  0  0  0  0
 25 26  1  0  0  0  0
 25 33  1  6  0  0  0
 27 28  1  1  0  0  0
 27 35  1  0  0  0  0
 29 30  1  0  0  0  0
 29 37  1  1  0  0  0
 31 32  1  1  0  0  0
 31 39  1  0  0  0  0
 33 34  1  0  0  0  0
 35 36  1  0  0  0  0
 35 41  1  6  0  0  0
 37 38  1  0  0  0  0
 39 40  1  6  0  0  0
 41 42  1  0  0  0  0
M  END
>  <CHROM.1>
-175.18539692,-167.70055028,178.19056345,-164.75429466,-60.42201915,-168.17223018
161.18126679,-179.62952368,-179.62709006,8.30162042,-1.14913221,4.93527009
1.73993974,-0.46313937,0.01477094

>  <Name>
ligand

>  <RI>
0

>  <Rbt.Current_Directory>
/home/itssahil/PROJECTS/Mol_Feturizer/Test_systems_manuscript/rnas/2o3w

>  <Rbt.Executable>
rbdock ($Id: //depot/dev/client3/rdock/2013.1/src/exe/rbdock.cxx#4 $)

>  <Rbt.Library>
libRbt.so (2013.1, Build901 2013/11/27)

>  <Rbt.Parameter_File>
/export/apps/rDock/src/rDock_2013.1_src/data/scripts/dock_solv.prm

>  <Rbt.Receptor>
prm/pocket_docking_5.prm

>  <SCORE>
-9.64435

>  <SCORE.INTER>
2.91665

>  <SCORE.INTER.CONST>
1

>  <SCORE.INTER.POLAR>
0

>  <SCORE.INTER.ROT>
9

>  <SCORE.INTER.SOLV>
8.26486

>  <SCORE.INTER.VDW>
-10.4105

>  <SCORE.INTER.norm>
0.0694442

>  <SCORE.INTRA>
-12.561

>  <SCORE.INTRA.DIHEDRAL>
-23.7277

>  <SCORE.INTRA.DIHEDRAL.0>
27.8999

>  <SCORE.INTRA.POLAR>
0

>  <SCORE.INTRA.POLAR.0>
0

>  <SCORE.INTRA.REPUL>
0

>  <SCORE.INTRA.REPUL.0>
0

>  <SCORE.INTRA.SOLV>
-3.98921

>  <SCORE.INTRA.SOLV.lig_0>
-104.479

>  <SCORE.INTRA.VDW>
1.29747

>  <SCORE.INTRA.VDW.0>
-6.17816

>  <SCORE.INTRA.norm>
-0.299072

>  <SCORE.RESTR>
0

>  <SCORE.RESTR.CAVITY>
0

>  <SCORE.RESTR.norm>
0

>  <SCORE.SYSTEM>
0

>  <SCORE.SYSTEM.CONST>
0

>  <SCORE.SYSTEM.DIHEDRAL>
0

>  <SCORE.SYSTEM.SOLV>
0

>  <SCORE.SYSTEM.norm>
0

>  <SCORE.heavy>
42

>  <SCORE.norm>
-0.229627

>  <RMSD>
9.907

$$$$
ligand
 OpenBabel02271912133D
libRbt.so/2013.1/901 2013/11/27
 42 45  0  0  0  0  0  0  0  0999 V2000
    7.6990    3.7575    1.4836 C   0  0  2  0  0  0  0  0  0  0  0  0
    6.6093    4.6208    1.8502 O   0  0  0  0  0  0  0  0  0  0  0  0
    2.3428    3.9872    2.2886 C   0  0  2  0  0  0  0  0  0  0  0  0
    0.9251    3.5921    2.0348 N   0  0  0  0  0  0  0  0  0  0  0  0
    6.3892    1.2242    3.0730 C   0  0  1  0  0  0  0  0  0  0  0  0
    7.5221   -1.8493    6.1009 C   0  0  1  0  0  0  0  0  0  0  0  0
    9.0095    4.4489    1.9662 C   0  0  2  0  0  0  0  0  0  0  0  0
    8.9338    4.8812    3.3726 N   0  0  0  0  0  0  0  0  0  0  0  0
    2.8201    5.0988    1.2695 C   0  0  0  0  0  0  0  0  0  0  0  0
    5.4321    0.6045    4.1364 C   0  0  2  0  0  0  0  0  0  0  0  0
    5.2083    1.4498    5.2916 O   0  0  0  0  0  0  0  0  0  0  0  0
    8.5162   -1.6835    7.3063 C   0  0  2  0  0  0  0  0  0  0  0  0
    9.7071   -0.8747    6.9082 N   0  0  0  0  0  0  0  0  0  0  0  0
    9.3511    5.6988    1.1345 C   0  0  1  0  0  0  0  0  0  0  0  0
   10.5777    6.2762    1.5851 O   0  0  0  0  0  0  0  0  0  0  0  0
    4.3103    5.4888    1.6010 C   0  0  2  0  0  0  0  0  0  0  0  0
    4.7882    6.5452    0.6686 N   0  0  0  0  0  0  0  0  0  0  0  0
    6.1239   -0.7305    4.4166 C   0  0  2  0  0  0  0  0  0  0  0  0
    7.0880   -0.6174    5.5114 O   0  0  0  0  0  0  0  0  0  0  0  0
    8.9542   -3.1316    7.8335 C   0  0  1  0  0  0  0  0  0  0  0  0
    7.8467   -3.7228    8.5496 O   0  0  0  0  0  0  0  0  0  0  0  0
    9.4225    5.3187   -0.3621 C   0  0  2  0  0  0  0  0  0  0  0  0
    9.7510    6.4491   -1.1358 O   0  0  0  0  0  0  0  0  0  0  0  0
    5.2528    4.2251    1.4982 C   0  0  2  0  0  0  0  0  0  0  0  0
    6.8161   -1.1337    3.1038 C   0  0  2  0  0  0  0  0  0  0  0  0
    7.1399    0.1226    2.5126 O   0  0  0  0  0  0  0  0  0  0  0  0
    9.4125   -4.1115    6.6514 C   0  0  2  0  0  0  0  0  0  0  0  0
   10.6497   -3.6189    6.1386 O   0  0  0  0  0  0  0  0  0  0  0  0
    8.0427    4.7273   -0.8049 C   0  0  2  0  0  0  0  0  0  0  0  0
    7.7199    3.5620    0.0183 O   0  0  0  0  0  0  0  0  0  0  0  0
    4.8130    3.0728    2.4277 C   0  0  2  0  0  0  0  0  0  0  0  0
    5.6636    1.9486    2.0712 O   0  0  0  0  0  0  0  0  0  0  0  0
    5.9468   -1.9999    2.1404 C   0  0  0  0  0  0  0  0  0  0  0  0
    5.5760   -3.2073    2.7989 O   0  0  0  0  0  0  0  0  0  0  0  0
    8.3267   -4.1519    5.5106 C   0  0  1  0  0  0  0  0  0  0  0  0
    8.1490   -2.7589    5.0653 O   0  0  0  0  0  0  0  0  0  0  0  0
    8.0246    4.3206   -2.2603 C   0  0  0  0  0  0  0  0  0  0  0  0
    7.9870    5.4617   -3.0822 O   0  0  0  0  0  0  0  0  0  0  0  0
    3.2857    2.7222    2.1824 C   0  0  1  0  0  0  0  0  0  0  0  0
    2.8390    1.7627    3.1444 O   0  0  0  0  0  0  0  0  0  0  0  0
    8.7167   -5.0775    4.2778 C   0  0  0  0  0  0  0  0  0  0  0  0
    8.8629   -6.5271    4.5840 N   0  0  0  0  0  0  0  0  0  0  0  0
  1  2  1  6  0  0  0
  1  7  1  0  0  0  0
  1 30  1  0  0  0  0
  3  4  1  6  0  0  0
  3  9  1  0  0  0  0
  3 39  1  0  0  0  0
  5 10  1  0  0  0  0
  5 26  1  0  0  0  0
  5 32  1  6  0  0  0
  6 12  1  0  0  0  0
  6 36  1  0  0  0  0
  6 19  1  6  0  0  0
  7  8  1  1  0  0  0
  7 14  1  0  0  0  0
  9 16  1  0  0  0  0
 10 11  1  1  0  0  0
 10 18  1  0  0  0  0
 12 13  1  6  0  0  0
 12 20  1  0  0  0  0
 14 15  1  1  0  0  0
 14 22  1  0  0  0  0
 16 17  1  6  0  0  0
 16 24  1  0  0  0  0
 18 19  1  1  0  0  0
 18 25  1  0  0  0  0
 20 21  1  6  0  0  0
 20 27  1  0  0  0  0
 22 23  1  6  0  0  0
 22 29  1  0  0  0  0
 24  2  1  1  0  0  0
 24 31  1  0  0  0  0
 25 26  1  0  0  0  0
 25 33  1  6  0  0  0
 27 28  1  6  0  0  0
 27 35  1  0  0  0  0
 29 30  1  0  0  0  0
 29 37  1  6  0  0  0
 31 32  1  6  0  0  0
 31 39  1  0  0  0  0
 33 34  1  0  0  0  0
 35 36  1  0  0  0  0
 35 41  1  6  0  0  0
 37 38  1  0  0  0  0
 39 40  1  1  0  0  0
 41 42  1  0  0  0  0
M  END
>  <CHROM.1>
179.08171450,-163.07947606,163.57283642,-177.88187051,-59.92430195,-73.21612861
128.79949461,59.20873527,63.52461874,6.98528576,1.32889688,2.95998403,-1.72289792
-0.08458262,2.54821911

>  <Name>
ligand

>  <RI>
0

>  <Rbt.Current_Directory>
/home/itssahil/PROJECTS/Mol_Feturizer/Test_systems_manuscript/rnas/2o3w

>  <Rbt.Executable>
rbdock ($Id: //depot/dev/client3/rdock/2013.1/src/exe/rbdock.cxx#4 $)

>  <Rbt.Library>
libRbt.so (2013.1, Build901 2013/11/27)

>  <Rbt.Parameter_File>
/export/apps/rDock/src/rDock_2013.1_src/data/scripts/dock_solv.prm

>  <Rbt.Receptor>
prm/pocket_docking_5.prm

>  <SCORE>
-12.3198

>  <SCORE.INTER>
-2.65725

>  <SCORE.INTER.CONST>
1

>  <SCORE.INTER.POLAR>
0

>  <SCORE.INTER.ROT>
9

>  <SCORE.INTER.SOLV>
14.5803

>  <SCORE.INTER.VDW>
-16.2316

>  <SCORE.INTER.norm>
-0.0632679

>  <SCORE.INTRA>
-9.67849

>  <SCORE.INTRA.DIHEDRAL>
-17.6997

>  <SCORE.INTRA.DIHEDRAL.0>
27.8999

>  <SCORE.INTRA.POLAR>
0

>  <SCORE.INTRA.POLAR.0>
0

>  <SCORE.INTRA.REPUL>
0

>  <SCORE.INTRA.REPUL.0>
0

>  <SCORE.INTRA.SOLV>
-4.80851

>  <SCORE.INTRA.SOLV.lig_0>
-104.479

>  <SCORE.INTRA.VDW>
1.57562

>  <SCORE.INTRA.VDW.0>
-6.17816

>  <SCORE.INTRA.norm>
-0.23044

>  <SCORE.RESTR>
0.0159394

>  <SCORE.RESTR.CAVITY>
0.0159394

>  <SCORE.RESTR.norm>
0.000379511

>  <SCORE.SYSTEM>
0

>  <SCORE.SYSTEM.CONST>
0

>  <SCORE.SYSTEM.DIHEDRAL>
0

>  <SCORE.SYSTEM.SOLV>
0

>  <SCORE.SYSTEM.norm>
0

>  <SCORE.heavy>
42

>  <SCORE.norm>
-0.293329

>  <RMSD>
9.917

$$$$
ligand
 OpenBabel02271912133D
libRbt.so/2013.1/901 2013/11/27
 42 45  0  0  0  0  0  0  0  0999 V2000
    7.8152    4.1312    2.8997 C   0  0  2  0  0  0  0  0  0  0  0  0
    6.6386    4.9576    2.9127 O   0  0  0  0  0  0  0  0  0  0  0  0
    2.4535    3.9480    2.4013 C   0  0  2  0  0  0  0  0  0  0  0  0
    1.1647    3.4479    1.8362 N   0  0  0  0  0  0  0  0  0  0  0  0
    6.0658    1.1313    3.7826 C   0  0  1  0  0  0  0  0  0  0  0  0
    7.7372   -2.1502    6.2203 C   0  0  1  0  0  0  0  0  0  0  0  0
    8.9158    4.8940    3.6964 C   0  0  2  0  0  0  0  0  0  0  0  0
    8.4373    5.3673    5.0070 N   0  0  0  0  0  0  0  0  0  0  0  0
    3.0319    5.1431    1.5416 C   0  0  0  0  0  0  0  0  0  0  0  0
    6.9223   -0.0283    3.1888 C   0  0  2  0  0  0  0  0  0  0  0  0
    6.1441   -1.0597    2.5333 O   0  0  0  0  0  0  0  0  0  0  0  0
    8.9224   -3.0660    5.7455 C   0  0  2  0  0  0  0  0  0  0  0  0
    8.4417   -4.1069    4.7882 N   0  0  0  0  0  0  0  0  0  0  0  0
    9.4343    6.1305    2.9393 C   0  0  1  0  0  0  0  0  0  0  0  0
   10.4671    6.7747    3.6870 O   0  0  0  0  0  0  0  0  0  0  0  0
    4.3751    5.6405    2.1980 C   0  0  2  0  0  0  0  0  0  0  0  0
    4.9407    6.7766    1.4214 N   0  0  0  0  0  0  0  0  0  0  0  0
    7.7109   -0.4758    4.4205 C   0  0  2  0  0  0  0  0  0  0  0  0
    7.0055   -1.5231    5.1597 O   0  0  0  0  0  0  0  0  0  0  0  0
    9.6172   -3.7367    7.0239 C   0  0  1  0  0  0  0  0  0  0  0  0
   10.3890   -2.7307    7.7177 O   0  0  0  0  0  0  0  0  0  0  0  0
    9.9321    5.7063    1.5388 C   0  0  2  0  0  0  0  0  0  0  0  0
   10.4257    6.8247    0.8388 O   0  0  0  0  0  0  0  0  0  0  0  0
    5.4304    4.4667    2.2650 C   0  0  2  0  0  0  0  0  0  0  0  0
    7.9015    0.7832    5.2830 C   0  0  2  0  0  0  0  0  0  0  0  0
    6.7347    1.5497    4.9944 O   0  0  0  0  0  0  0  0  0  0  0  0
    8.5602   -4.3925    8.0339 C   0  0  2  0  0  0  0  0  0  0  0  0
    8.0026   -5.5377    7.3905 O   0  0  0  0  0  0  0  0  0  0  0  0
    8.7506    5.0416    0.7567 C   0  0  2  0  0  0  0  0  0  0  0  0
    8.2498    3.8902    1.5073 O   0  0  0  0  0  0  0  0  0  0  0  0
    4.9112    3.2385    3.0442 C   0  0  2  0  0  0  0  0  0  0  0  0
    5.9181    2.2079    2.8477 O   0  0  0  0  0  0  0  0  0  0  0  0
    9.1973    1.5979    4.9809 C   0  0  0  0  0  0  0  0  0  0  0  0
   10.3369    0.7958    5.2757 O   0  0  0  0  0  0  0  0  0  0  0  0
    7.4238   -3.3627    8.3951 C   0  0  1  0  0  0  0  0  0  0  0  0
    6.8186   -2.9556    7.1151 O   0  0  0  0  0  0  0  0  0  0  0  0
    9.1519    4.5883   -0.6280 C   0  0  0  0  0  0  0  0  0  0  0  0
   10.1865    3.6384   -0.5463 O   0  0  0  0  0  0  0  0  0  0  0  0
    3.5099    2.7731    2.4650 C   0  0  1  0  0  0  0  0  0  0  0  0
    2.9594    1.7347    3.2800 O   0  0  0  0  0  0  0  0  0  0  0  0
    6.3097   -3.9432    9.3698 C   0  0  0  0  0  0  0  0  0  0  0  0
    5.5361   -5.1014    8.8436 N   0  0  0  0  0  0  0  0  0  0  0  0
  1  2  1  6  0  0  0
  1  7  1  0  0  0  0
  1 30  1  0  0  0  0
  3  4  1  6  0  0  0
  3  9  1  0  0  0  0
  3 39  1  0  0  0  0
  5 10  1  0  0  0  0
  5 26  1  0  0  0  0
  5 32  1  6  0  0  0
  6 12  1  0  0  0  0
  6 36  1  0  0  0  0
  6 19  1  6  0  0  0
  7  8  1  1  0  0  0
  7 14  1  0  0  0  0
  9 16  1  0  0  0  0
 10 11  1  1  0  0  0
 10 18  1  0  0  0  0
 12 13  1  6  0  0  0
 12 20  1  0  0  0  0
 14 15  1  1  0  0  0
 14 22  1  0  0  0  0
 16 17  1  6  0  0  0
 16 24  1  0  0  0  0
 18 19  1  1  0  0  0
 18 25  1  0  0  0  0
 20 21  1  1  0  0  0
 20 27  1  0  0  0  0
 22 23  1  6  0  0  0
 22 29  1  0  0  0  0
 24  2  1  1  0  0  0
 24 31  1  0  0  0  0
 25 26  1  0  0  0  0
 25 33  1  6  0  0  0
 27 28  1  6  0  0  0
 27 35  1  0  0  0  0
 29 30  1  0  0  0  0
 29 37  1  6  0  0  0
 31 32  1  6  0  0  0
 31 39  1  0  0  0  0
 33 34  1  0  0  0  0
 35 36  1  0  0  0  0
 35 41  1  1  0  0  0
 37 38  1  0  0  0  0
 39 40  1  1  0  0  0
 41 42  1  0  0  0  0
M  END
>  <CHROM.1>
-178.31740724,-170.33859223,171.37473770,-69.71368155,-63.26200828,60.24338845
156.16160916,164.96415952,-61.71942436,7.24344790,1.48855717,3.99922901,-1.63836466
0.08774079,2.59544262

>  <Name>
ligand

>  <RI>
0

>  <Rbt.Current_Directory>
/home/itssahil/PROJECTS/Mol_Feturizer/Test_systems_manuscript/rnas/2o3w

>  <Rbt.Executable>
rbdock ($Id: //depot/dev/client3/rdock/2013.1/src/exe/rbdock.cxx#4 $)

>  <Rbt.Library>
libRbt.so (2013.1, Build901 2013/11/27)

>  <Rbt.Parameter_File>
/export/apps/rDock/src/rDock_2013.1_src/data/scripts/dock_solv.prm

>  <Rbt.Receptor>
prm/pocket_docking_7.prm

>  <SCORE>
-13.5216

>  <SCORE.INTER>
-1.59923

>  <SCORE.INTER.CONST>
1

>  <SCORE.INTER.POLAR>
0

>  <SCORE.INTER.ROT>
9

>  <SCORE.INTER.SOLV>
11.164

>  <SCORE.INTER.VDW>
-14.3875

>  <SCORE.INTER.norm>
-0.0380769

>  <SCORE.INTRA>
-11.9223

>  <SCORE.INTRA.DIHEDRAL>
-22.913

>  <SCORE.INTRA.DIHEDRAL.0>
27.8999

>  <SCORE.INTRA.POLAR>
0

>  <SCORE.INTRA.POLAR.0>
0

>  <SCORE.INTRA.REPUL>
0

>  <SCORE.INTRA.REPUL.0>
0

>  <SCORE.INTRA.SOLV>
-3.64814

>  <SCORE.INTRA.SOLV.lig_0>
-104.479

>  <SCORE.INTRA.VDW>
1.35826

>  <SCORE.INTRA.VDW.0>
-6.17816

>  <SCORE.INTRA.norm>
-0.283865

>  <SCORE.RESTR>
0

>  <SCORE.RESTR.CAVITY>
0

>  <SCORE.RESTR.norm>
0

>  <SCORE.SYSTEM>
0

>  <SCORE.SYSTEM.CONST>
0

>  <SCORE.SYSTEM.DIHEDRAL>
0

>  <SCORE.SYSTEM.SOLV>
0

>  <SCORE.SYSTEM.norm>
0

>  <SCORE.heavy>
42

>  <SCORE.norm>
-0.321942

>  <RMSD>
9.944

$$$$
ligand
 OpenBabel02271912133D
libRbt.so/2013.1/901 2013/11/27
 42 45  0  0  0  0  0  0  0  0999 V2000
    3.6419    3.8144    1.5920 C   0  0  2  0  0  0  0  0  0  0  0  0
    4.9531    3.8928    1.0072 O   0  0  0  0  0  0  0  0  0  0  0  0
    8.4816    1.5089    1.8208 C   0  0  2  0  0  0  0  0  0  0  0  0
    9.6512    0.8767    2.5011 N   0  0  0  0  0  0  0  0  0  0  0  0
    4.1999    0.4504    3.2222 C   0  0  1  0  0  0  0  0  0  0  0  0
    1.5240   -2.9139    4.1194 C   0  0  1  0  0  0  0  0  0  0  0  0
    2.6967    4.6823    0.7080 C   0  0  2  0  0  0  0  0  0  0  0  0
    2.8169    4.3652   -0.7257 N   0  0  0  0  0  0  0  0  0  0  0  0
    8.6639    3.0756    1.7033 C   0  0  0  0  0  0  0  0  0  0  0  0
    2.9634    0.5948    4.1609 C   0  0  2  0  0  0  0  0  0  0  0  0
    3.2908    0.5870    5.5722 O   0  0  0  0  0  0  0  0  0  0  0  0
   -0.0025   -2.6808    4.4098 C   0  0  2  0  0  0  0  0  0  0  0  0
   -0.2177   -2.2583    5.8261 N   0  0  0  0  0  0  0  0  0  0  0  0
    2.9789    6.1888    0.8554 C   0  0  1  0  0  0  0  0  0  0  0  0
    2.0654    6.9461    0.0599 O   0  0  0  0  0  0  0  0  0  0  0  0
    7.4134    3.6805    0.9597 C   0  0  2  0  0  0  0  0  0  0  0  0
    7.5585    5.1545    0.8184 N   0  0  0  0  0  0  0  0  0  0  0  0
    2.0872   -0.5620    3.6779 C   0  0  2  0  0  0  0  0  0  0  0  0
    2.3661   -1.7933    4.4173 O   0  0  0  0  0  0  0  0  0  0  0  0
   -0.8143   -4.0221    4.0797 C   0  0  1  0  0  0  0  0  0  0  0  0
   -0.8912   -4.1806    2.6452 O   0  0  0  0  0  0  0  0  0  0  0  0
    2.8922    6.5861    2.3467 C   0  0  2  0  0  0  0  0  0  0  0  0
    3.1317    7.9662    2.4968 O   0  0  0  0  0  0  0  0  0  0  0  0
    6.0841    3.3517    1.7476 C   0  0  2  0  0  0  0  0  0  0  0  0
    2.3934   -0.7298    2.1801 C   0  0  2  0  0  0  0  0  0  0  0  0
    3.7561   -0.3224    2.0834 O   0  0  0  0  0  0  0  0  0  0  0  0
   -0.1487   -5.3275    4.7283 C   0  0  2  0  0  0  0  0  0  0  0  0
   -0.3210   -5.2417    6.1423 O   0  0  0  0  0  0  0  0  0  0  0  0
    3.9380    5.7518    3.1589 C   0  0  2  0  0  0  0  0  0  0  0  0
    3.6746    4.3241    2.9794 O   0  0  0  0  0  0  0  0  0  0  0  0
    5.8676    1.8361    1.9505 C   0  0  2  0  0  0  0  0  0  0  0  0
    4.7202    1.7296    2.8375 O   0  0  0  0  0  0  0  0  0  0  0  0
    1.4878    0.1083    1.2252 C   0  0  0  0  0  0  0  0  0  0  0  0
    0.1324   -0.2999    1.3836 O   0  0  0  0  0  0  0  0  0  0  0  0
    1.3833   -5.4070    4.3695 C   0  0  1  0  0  0  0  0  0  0  0  0
    1.9835   -4.1535    4.8579 O   0  0  0  0  0  0  0  0  0  0  0  0
    3.9178    6.0730    4.6354 C   0  0  0  0  0  0  0  0  0  0  0  0
    4.4408    7.3598    4.8589 O   0  0  0  0  0  0  0  0  0  0  0  0
    7.1521    1.1818    2.6120 C   0  0  1  0  0  0  0  0  0  0  0  0
    7.0117   -0.2407    2.6606 O   0  0  0  0  0  0  0  0  0  0  0  0
    2.1326   -6.6585    5.0026 C   0  0  0  0  0  0  0  0  0  0  0  0
    3.5803   -6.7735    4.6748 N   0  0  0  0  0  0  0  0  0  0  0  0
  1  2  1  6  0  0  0
  1  7  1  0  0  0  0
  1 30  1  0  0  0  0
  3  4  1  1  0  0  0
  3  9  1  0  0  0  0
  3 39  1  0  0  0  0
  5 10  1  0  0  0  0
  5 26  1  0  0  0  0
  5 32  1  6  0  0  0
  6 12  1  0  0  0  0
  6 36  1  0  0  0  0
  6 19  1  1  0  0  0
  7  8  1  6  0  0  0
  7 14  1  0  0  0  0
  9 16  1  0  0  0  0
 10 11  1  1  0  0  0
 10 18  1  0  0  0  0
 12 13  1  1  0  0  0
 12 20  1  0  0  0  0
 14 15  1  6  0  0  0
 14 22  1  0  0  0  0
 16 17  1  1  0  0  0
 16 24  1  0  0  0  0
 18 19  1  1  0  0  0
 18 25  1  0  0  0  0
 20 21  1  6  0  0  0
 20 27  1  0  0  0  0
 22 23  1  6  0  0  0
 22 29  1  0  0  0  0
 24  2  1  6  0  0  0
 24 31  1  0  0  0  0
 25 26  1  0  0  0  0
 25 33  1  6  0  0  0
 27 28  1  1  0  0  0
 27 35  1  0  0  0  0
 29 30  1  0  0  0  0
 29 37  1  1  0  0  0
 31 32  1  1  0  0  0
 31 39  1  0  0  0  0
 33 34  1  0  0  0  0
 35 36  1  0  0  0  0
 35 41  1  1  0  0  0
 37 38  1  0  0  0  0
 39 40  1  6  0  0  0
 41 42  1  0  0  0  0
M  END
>  <CHROM.1>
170.17152003,-174.74608072,175.09975939,-60.61139207,-61.69527143,-70.48702803
178.27358378,-179.34989043,179.46793042,3.41865201,0.92866067,2.92854437
1.19013608,0.10525242,-0.22419944

>  <Name>
ligand

>  <RI>
0

>  <Rbt.Current_Directory>
/home/itssahil/PROJECTS/Mol_Feturizer/Test_systems_manuscript/rnas/2o3w

>  <Rbt.Executable>
rbdock ($Id: //depot/dev/client3/rdock/2013.1/src/exe/rbdock.cxx#4 $)

>  <Rbt.Library>
libRbt.so (2013.1, Build901 2013/11/27)

>  <Rbt.Parameter_File>
/export/apps/rDock/src/rDock_2013.1_src/data/scripts/dock_solv.prm

>  <Rbt.Receptor>
prm/pocket_docking_8.prm

>  <SCORE>
-11.2736

>  <SCORE.INTER>
2.12897

>  <SCORE.INTER.CONST>
1

>  <SCORE.INTER.POLAR>
0

>  <SCORE.INTER.ROT>
9

>  <SCORE.INTER.SOLV>
9.73464

>  <SCORE.INTER.VDW>
-11.4256

>  <SCORE.INTER.norm>
0.0506897

>  <SCORE.INTRA>
-13.4025

>  <SCORE.INTRA.DIHEDRAL>
-26.6193

>  <SCORE.INTRA.DIHEDRAL.0>
27.8999

>  <SCORE.INTRA.POLAR>
0

>  <SCORE.INTRA.POLAR.0>
0

>  <SCORE.INTRA.REPUL>
0

>  <SCORE.INTRA.REPUL.0>
0

>  <SCORE.INTRA.SOLV>
-5.82039

>  <SCORE.INTRA.SOLV.lig_0>
-104.479

>  <SCORE.INTRA.VDW>
2.81732

>  <SCORE.INTRA.VDW.0>
-6.17816

>  <SCORE.INTRA.norm>
-0.319108

>  <SCORE.RESTR>
0

>  <SCORE.RESTR.CAVITY>
0

>  <SCORE.RESTR.norm>
0

>  <SCORE.SYSTEM>
0

>  <SCORE.SYSTEM.CONST>
0

>  <SCORE.SYSTEM.DIHEDRAL>
0

>  <SCORE.SYSTEM.SOLV>
0

>  <SCORE.SYSTEM.norm>
0

>  <SCORE.heavy>
42

>  <SCORE.norm>
-0.268418

>  <RMSD>
9.944

$$$$
ligand
 OpenBabel02271912133D
libRbt.so/2013.1/901 2013/11/27
 42 45  0  0  0  0  0  0  0  0999 V2000
    0.7032    7.7331   -1.3560 C   0  0  2  0  0  0  0  0  0  0  0  0
    1.0777    6.5708   -2.1150 O   0  0  0  0  0  0  0  0  0  0  0  0
    2.1063    3.9709    1.1984 C   0  0  2  0  0  0  0  0  0  0  0  0
    2.4644    2.7723    2.0142 N   0  0  0  0  0  0  0  0  0  0  0  0
    5.1090    5.3161   -1.9498 C   0  0  1  0  0  0  0  0  0  0  0  0
    7.9581    5.0343   -1.0644 C   0  0  1  0  0  0  0  0  0  0  0  0
    0.4489    8.8815   -2.3781 C   0  0  2  0  0  0  0  0  0  0  0  0
   -0.4471    8.4728   -3.4739 N   0  0  0  0  0  0  0  0  0  0  0  0
    0.6599    3.8292    0.5743 C   0  0  0  0  0  0  0  0  0  0  0  0
    5.6193    3.9898   -2.5913 C   0  0  2  0  0  0  0  0  0  0  0  0
    5.7247    2.8864   -1.6583 O   0  0  0  0  0  0  0  0  0  0  0  0
    8.3077    6.5619   -1.1788 C   0  0  2  0  0  0  0  0  0  0  0  0
    9.6675    6.7554   -1.7657 N   0  0  0  0  0  0  0  0  0  0  0  0
    1.7507    9.3815   -3.0311 C   0  0  1  0  0  0  0  0  0  0  0  0
    1.4752   10.4580   -3.9289 O   0  0  0  0  0  0  0  0  0  0  0  0
    0.3316    5.1292   -0.2533 C   0  0  2  0  0  0  0  0  0  0  0  0
   -1.0307    5.0361   -0.8441 N   0  0  0  0  0  0  0  0  0  0  0  0
    6.9339    4.4516   -3.2221 C   0  0  2  0  0  0  0  0  0  0  0  0
    8.0561    4.3058   -2.2946 O   0  0  0  0  0  0  0  0  0  0  0  0
    8.2046    7.2378    0.2701 C   0  0  1  0  0  0  0  0  0  0  0  0
    6.8102    7.3638    0.6288 O   0  0  0  0  0  0  0  0  0  0  0  0
    2.7496    9.8059   -1.9306 C   0  0  2  0  0  0  0  0  0  0  0  0
    3.9408   10.2820   -2.5126 O   0  0  0  0  0  0  0  0  0  0  0  0
    1.3945    5.3409   -1.4027 C   0  0  2  0  0  0  0  0  0  0  0  0
    6.7226    5.9237   -3.6140 C   0  0  2  0  0  0  0  0  0  0  0  0
    5.7993    6.3881   -2.6320 O   0  0  0  0  0  0  0  0  0  0  0  0
    8.9758    6.4050    1.4012 C   0  0  2  0  0  0  0  0  0  0  0  0
   10.3745    6.5195    1.1423 O   0  0  0  0  0  0  0  0  0  0  0  0
    3.0391    8.5789   -1.0031 C   0  0  2  0  0  0  0  0  0  0  0  0
    1.7874    8.0975   -0.4191 O   0  0  0  0  0  0  0  0  0  0  0  0
    2.8416    5.4319   -0.8708 C   0  0  2  0  0  0  0  0  0  0  0  0
    3.6845    5.4373   -2.0558 O   0  0  0  0  0  0  0  0  0  0  0  0
    6.1690    6.1480   -5.0554 C   0  0  0  0  0  0  0  0  0  0  0  0
    4.8396    5.6426   -5.1327 O   0  0  0  0  0  0  0  0  0  0  0  0
    8.5382    4.8918    1.3730 C   0  0  1  0  0  0  0  0  0  0  0  0
    8.8222    4.4090    0.0104 O   0  0  0  0  0  0  0  0  0  0  0  0
    4.0063    8.9072    0.1106 C   0  0  0  0  0  0  0  0  0  0  0  0
    3.4456    9.8676    0.9724 O   0  0  0  0  0  0  0  0  0  0  0  0
    3.1691    4.1800    0.0464 C   0  0  1  0  0  0  0  0  0  0  0  0
    4.4516    4.3393    0.6591 O   0  0  0  0  0  0  0  0  0  0  0  0
    9.2820    3.9824    2.4445 C   0  0  0  0  0  0  0  0  0  0  0  0
    8.8361    2.5631    2.5026 N   0  0  0  0  0  0  0  0  0  0  0  0
  1  2  1  6  0  0  0
  1  7  1  0  0  0  0
  1 30  1  0  0  0  0
  3  4  1  6  0  0  0
  3  9  1  0  0  0  0
  3 39  1  0  0  0  0
  5 10  1  0  0  0  0
  5 26  1  0  0  0  0
  5 32  1  6  0  0  0
  6 12  1  0  0  0  0
  6 36  1  0  0  0  0
  6 19  1  6  0  0  0
  7  8  1  6  0  0  0
  7 14  1  0  0  0  0
  9 16  1  0  0  0  0
 10 11  1  1  0  0  0
 10 18  1  0  0  0  0
 12 13  1  1  0  0  0
 12 20  1  0  0  0  0
 14 15  1  6  0  0  0
 14 22  1  0  0  0  0
 16 17  1  6  0  0  0
 16 24  1  0  0  0  0
 18 19  1  1  0  0  0
 18 25  1  0  0  0  0
 20 21  1  1  0  0  0
 20 27  1  0  0  0  0
 22 23  1  6  0  0  0
 22 29  1  0  0  0  0
 24  2  1  1  0  0  0
 24 31  1  0  0  0  0
 25 26  1  0  0  0  0
 25 33  1  6  0  0  0
 27 28  1  6  0  0  0
 27 35  1  0  0  0  0
 29 30  1  0  0  0  0
 29 37  1  1  0  0  0
 31 32  1  6  0  0  0
 31 39  1  0  0  0  0
 33 34  1  0  0  0  0
 35 36  1  0  0  0  0
 35 41  1  1  0  0  0
 37 38  1  0  0  0  0
 39 40  1  1  0  0  0
 41 42  1  0  0  0  0
M  END
>  <CHROM.1>
179.15726135,43.05874101,-59.66711989,-78.97049931,66.81894424,64.09520669
-170.76778344,114.67307605,176.50810817,4.66135160,6.19217543,-1.06942696
2.71979306,0.00356790,-0.62653413

>  <Name>
ligand

>  <RI>
0

>  <Rbt.Current_Directory>
/home/itssahil/PROJECTS/Mol_Feturizer/Test_systems_manuscript/rnas/2o3w

>  <Rbt.Executable>
rbdock ($Id: //depot/dev/client3/rdock/2013.1/src/exe/rbdock.cxx#4 $)

>  <Rbt.Library>
libRbt.so (2013.1, Build901 2013/11/27)

>  <Rbt.Parameter_File>
/export/apps/rDock/src/rDock_2013.1_src/data/scripts/dock_solv.prm

>  <Rbt.Receptor>
prm/pocket_docking_8.prm

>  <SCORE>
-10.8815

>  <SCORE.INTER>
-3.34678

>  <SCORE.INTER.CONST>
1

>  <SCORE.INTER.POLAR>
0

>  <SCORE.INTER.ROT>
9

>  <SCORE.INTER.SOLV>
12.7867

>  <SCORE.INTER.VDW>
-16.0934

>  <SCORE.INTER.norm>
-0.0796853

>  <SCORE.INTRA>
-7.53468

>  <SCORE.INTRA.DIHEDRAL>
-17.0937

>  <SCORE.INTRA.DIHEDRAL.0>
27.8999

>  <SCORE.INTRA.POLAR>
0

>  <SCORE.INTRA.POLAR.0>
0

>  <SCORE.INTRA.REPUL>
0.0123861

>  <SCORE.INTRA.REPUL.0>
0

>  <SCORE.INTRA.SOLV>
-2.10249

>  <SCORE.INTRA.SOLV.lig_0>
-104.479

>  <SCORE.INTRA.VDW>
2.00149

>  <SCORE.INTRA.VDW.0>
-6.17816

>  <SCORE.INTRA.norm>
-0.179397

>  <SCORE.RESTR>
0

>  <SCORE.RESTR.CAVITY>
0

>  <SCORE.RESTR.norm>
0

>  <SCORE.SYSTEM>
0

>  <SCORE.SYSTEM.CONST>
0

>  <SCORE.SYSTEM.DIHEDRAL>
0

>  <SCORE.SYSTEM.SOLV>
0

>  <SCORE.SYSTEM.norm>
0

>  <SCORE.heavy>
42

>  <SCORE.norm>
-0.259082

>  <RMSD>
9.964

$$$$
ligand
 OpenBabel02271912133D
libRbt.so/2013.1/901 2013/11/27
 42 45  0  0  0  0  0  0  0  0999 V2000
    9.7655    2.5916    4.0841 C   0  0  2  0  0  0  0  0  0  0  0  0
    8.9621    3.3640    4.9926 O   0  0  0  0  0  0  0  0  0  0  0  0
    9.6620    4.5151    9.1134 C   0  0  2  0  0  0  0  0  0  0  0  0
    9.9190    4.4699   10.5839 N   0  0  0  0  0  0  0  0  0  0  0  0
   11.5254    1.4352    6.4539 C   0  0  1  0  0  0  0  0  0  0  0  0
   12.8016   -2.6369    7.5339 C   0  0  1  0  0  0  0  0  0  0  0  0
    9.3676    3.0272    2.6418 C   0  0  2  0  0  0  0  0  0  0  0  0
    9.3746    4.4908    2.4728 N   0  0  0  0  0  0  0  0  0  0  0  0
    8.2590    3.8782    8.7561 C   0  0  0  0  0  0  0  0  0  0  0  0
   12.6504    0.6726    5.6901 C   0  0  2  0  0  0  0  0  0  0  0  0
   12.2219    0.0955    4.4322 O   0  0  0  0  0  0  0  0  0  0  0  0
   12.0042   -3.9821    7.3809 C   0  0  2  0  0  0  0  0  0  0  0  0
   10.5407   -3.7603    7.5801 N   0  0  0  0  0  0  0  0  0  0  0  0
    7.9594    2.5413    2.2522 C   0  0  1  0  0  0  0  0  0  0  0  0
    7.6530    2.9281    0.9115 O   0  0  0  0  0  0  0  0  0  0  0  0
    8.0361    3.9752    7.1993 C   0  0  2  0  0  0  0  0  0  0  0  0
    6.7163    3.3972    6.8286 N   0  0  0  0  0  0  0  0  0  0  0  0
   13.1083   -0.3255    6.7548 C   0  0  2  0  0  0  0  0  0  0  0  0
   12.3573   -1.5787    6.6758 O   0  0  0  0  0  0  0  0  0  0  0  0
   12.5713   -5.0548    8.4272 C   0  0  1  0  0  0  0  0  0  0  0  0
   13.8615   -5.5177    7.9687 O   0  0  0  0  0  0  0  0  0  0  0  0
    7.8753    1.0082    2.4305 C   0  0  2  0  0  0  0  0  0  0  0  0
    6.5970    0.5452    2.0618 O   0  0  0  0  0  0  0  0  0  0  0  0
    9.1842    3.2157    6.4240 C   0  0  2  0  0  0  0  0  0  0  0  0
   12.8914    0.3696    8.1095 C   0  0  2  0  0  0  0  0  0  0  0  0
   11.7684    1.2122    7.8619 O   0  0  0  0  0  0  0  0  0  0  0  0
   12.7098   -4.4642    9.9102 C   0  0  2  0  0  0  0  0  0  0  0  0
   11.3918   -4.2559   10.4159 O   0  0  0  0  0  0  0  0  0  0  0  0
    8.1842    0.6501    3.9224 C   0  0  2  0  0  0  0  0  0  0  0  0
    9.5110    1.1490    4.2836 O   0  0  0  0  0  0  0  0  0  0  0  0
   10.5926    3.7483    6.7675 C   0  0  2  0  0  0  0  0  0  0  0  0
   11.5163    2.8297    6.1214 O   0  0  0  0  0  0  0  0  0  0  0  0
   14.1094    1.1956    8.6278 C   0  0  0  0  0  0  0  0  0  0  0  0
   13.7967    1.7440    9.9047 O   0  0  0  0  0  0  0  0  0  0  0  0
   13.5090   -3.1065    9.8954 C   0  0  1  0  0  0  0  0  0  0  0  0
   12.7749   -2.2094    8.9864 O   0  0  0  0  0  0  0  0  0  0  0  0
    8.1300   -0.8369    4.1867 C   0  0  0  0  0  0  0  0  0  0  0  0
    6.8219   -1.3166    3.9921 O   0  0  0  0  0  0  0  0  0  0  0  0
   10.8100    3.7519    8.3386 C   0  0  1  0  0  0  0  0  0  0  0  0
   12.0511    4.3841    8.6636 O   0  0  0  0  0  0  0  0  0  0  0  0
   13.6650   -2.4312   11.3266 C   0  0  0  0  0  0  0  0  0  0  0  0
   14.5512   -1.2360   11.3797 N   0  0  0  0  0  0  0  0  0  0  0  0
  1  2  1  1  0  0  0
  1  7  1  0  0  0  0
  1 30  1  0  0  0  0
  3  4  1  1  0  0  0
  3  9  1  0  0  0  0
  3 39  1  0  0  0  0
  5 10  1  0  0  0  0
  5 26  1  0  0  0  0
  5 32  1  1  0  0  0
  6 12  1  0  0  0  0
  6 36  1  0  0  0  0
  6 19  1  6  0  0  0
  7  8  1  1  0  0  0
  7 14  1  0  0  0  0
  9 16  1  0  0  0  0
 10 11  1  6  0  0  0
 10 18  1  0  0  0  0
 12 13  1  1  0  0  0
 12 20  1  0  0  0  0
 14 15  1  6  0  0  0
 14 22  1  0  0  0  0
 16 17  1  1  0  0  0
 16 24  1  0  0  0  0
 18 19  1  1  0  0  0
 18 25  1  0  0  0  0
 20 21  1  6  0  0  0
 20 27  1  0  0  0  0
 22 23  1  1  0  0  0
 22 29  1  0  0  0  0
 24  2  1  6  0  0  0
 24 31  1  0  0  0  0
 25 26  1  0  0  0  0
 25 33  1  6  0  0  0
 27 28  1  6  0  0  0
 27 35  1  0  0  0  0
 29 30  1  0  0  0  0
 29 37  1  6  0  0  0
 31 32  1  6  0  0  0
 31 39  1  0  0  0  0
 33 34  1  0  0  0  0
 35 36  1  0  0  0  0
 35 41  1  1  0  0  0
 37 38  1  0  0  0  0
 39 40  1  6  0  0  0
 41 42  1  0  0  0  0
M  END
>  <CHROM.1>
-176.41854789,-170.81693331,173.55913297,-177.81983956,-177.91977135,-64.72266852
-59.99687840,-176.87986420,172.92778918,10.75713086,0.56528434,6.70713131
2.75697742,-0.97260832,0.34967266

>  <Name>
ligand

>  <RI>
0

>  <Rbt.Current_Directory>
/home/itssahil/PROJECTS/Mol_Feturizer/Test_systems_manuscript/rnas/2o3w

>  <Rbt.Executable>
rbdock ($Id: //depot/dev/client3/rdock/2013.1/src/exe/rbdock.cxx#4 $)

>  <Rbt.Library>
libRbt.so (2013.1, Build901 2013/11/27)

>  <Rbt.Parameter_File>
/export/apps/rDock/src/rDock_2013.1_src/data/scripts/dock_solv.prm

>  <Rbt.Receptor>
prm/pocket_docking_7.prm

>  <SCORE>
-11.6353

>  <SCORE.INTER>
0.83233

>  <SCORE.INTER.CONST>
1

>  <SCORE.INTER.POLAR>
0

>  <SCORE.INTER.ROT>
9

>  <SCORE.INTER.SOLV>
14.072

>  <SCORE.INTER.VDW>
-13.7358

>  <SCORE.INTER.norm>
0.0198174

>  <SCORE.INTRA>
-12.4676

>  <SCORE.INTRA.DIHEDRAL>
-26.7417

>  <SCORE.INTRA.DIHEDRAL.0>
27.8999

>  <SCORE.INTRA.POLAR>
0

>  <SCORE.INTRA.POLAR.0>
0

>  <SCORE.INTRA.REPUL>
0

>  <SCORE.INTRA.REPUL.0>
0

>  <SCORE.INTRA.SOLV>
-3.02482

>  <SCORE.INTRA.SOLV.lig_0>
-104.479

>  <SCORE.INTRA.VDW>
2.41562

>  <SCORE.INTRA.VDW.0>
-6.17816

>  <SCORE.INTRA.norm>
-0.296848

>  <SCORE.RESTR>
0

>  <SCORE.RESTR.CAVITY>
0

>  <SCORE.RESTR.norm>
0

>  <SCORE.SYSTEM>
0

>  <SCORE.SYSTEM.CONST>
0

>  <SCORE.SYSTEM.DIHEDRAL>
0

>  <SCORE.SYSTEM.SOLV>
0

>  <SCORE.SYSTEM.norm>
0

>  <SCORE.heavy>
42

>  <SCORE.norm>
-0.277031

>  <RMSD>
9.977

$$$$
ligand
 OpenBabel02271912133D
libRbt.so/2013.1/901 2013/11/27
 42 45  0  0  0  0  0  0  0  0999 V2000
    7.4602    8.2523    0.1457 C   0  0  2  0  0  0  0  0  0  0  0  0
    7.3135    6.8388   -0.0727 O   0  0  0  0  0  0  0  0  0  0  0  0
    6.4479    7.0031   -4.3177 C   0  0  2  0  0  0  0  0  0  0  0  0
    6.1370    6.6182   -5.7268 N   0  0  0  0  0  0  0  0  0  0  0  0
    4.4733    4.6570   -1.1647 C   0  0  1  0  0  0  0  0  0  0  0  0
    5.3959    0.2546   -1.0539 C   0  0  1  0  0  0  0  0  0  0  0  0
    8.0639    8.4323    1.5709 C   0  0  2  0  0  0  0  0  0  0  0  0
    9.2509    7.5879    1.7912 N   0  0  0  0  0  0  0  0  0  0  0  0
    7.8704    6.4697   -3.8775 C   0  0  0  0  0  0  0  0  0  0  0  0
    5.7380    3.7945   -0.8694 C   0  0  2  0  0  0  0  0  0  0  0  0
    6.5694    3.5506   -2.0306 O   0  0  0  0  0  0  0  0  0  0  0  0
    4.8731   -0.8616   -2.0284 C   0  0  2  0  0  0  0  0  0  0  0  0
    3.3884   -0.9965   -1.9375 N   0  0  0  0  0  0  0  0  0  0  0  0
    7.0561    8.0811    2.6809 C   0  0  1  0  0  0  0  0  0  0  0  0
    7.6377    8.2982    3.9676 O   0  0  0  0  0  0  0  0  0  0  0  0
    8.1498    6.9249   -2.3952 C   0  0  2  0  0  0  0  0  0  0  0  0
    9.4890    6.4516   -1.9523 N   0  0  0  0  0  0  0  0  0  0  0  0
    5.1095    2.5540   -0.2326 C   0  0  2  0  0  0  0  0  0  0  0  0
    4.7870    1.5390   -1.2359 O   0  0  0  0  0  0  0  0  0  0  0  0
    5.5992   -2.2474   -1.6831 C   0  0  1  0  0  0  0  0  0  0  0  0
    6.9677   -2.1853   -2.1436 O   0  0  0  0  0  0  0  0  0  0  0  0
    5.7706    8.9188    2.4941 C   0  0  2  0  0  0  0  0  0  0  0  0
    4.8440    8.6211    3.5125 O   0  0  0  0  0  0  0  0  0  0  0  0
    7.0401    6.3627   -1.4214 C   0  0  2  0  0  0  0  0  0  0  0  0
    3.8441    3.0435    0.4916 C   0  0  2  0  0  0  0  0  0  0  0  0
    3.4277    4.1515   -0.3031 O   0  0  0  0  0  0  0  0  0  0  0  0
    5.5753   -2.5890   -0.1178 C   0  0  2  0  0  0  0  0  0  0  0  0
    4.2261   -2.8885    0.2374 O   0  0  0  0  0  0  0  0  0  0  0  0
    5.1616    8.6119    1.0853 C   0  0  2  0  0  0  0  0  0  0  0  0
    6.1447    8.9196    0.0468 O   0  0  0  0  0  0  0  0  0  0  0  0
    5.6139    6.7978   -1.8238 C   0  0  2  0  0  0  0  0  0  0  0  0
    4.7253    6.0514   -0.9476 O   0  0  0  0  0  0  0  0  0  0  0  0
    4.0588    3.4678    1.9776 C   0  0  0  0  0  0  0  0  0  0  0  0
    4.5044    2.3424    2.7284 O   0  0  0  0  0  0  0  0  0  0  0  0
    6.1029   -1.3674    0.7258 C   0  0  1  0  0  0  0  0  0  0  0  0
    5.2418   -0.2250    0.3742 O   0  0  0  0  0  0  0  0  0  0  0  0
    3.8989    9.3968    0.8142 C   0  0  0  0  0  0  0  0  0  0  0  0
    2.8896    9.0190    1.7186 O   0  0  0  0  0  0  0  0  0  0  0  0
    5.3383    6.4371   -3.3436 C   0  0  1  0  0  0  0  0  0  0  0  0
    4.0789    6.9739   -3.7575 O   0  0  0  0  0  0  0  0  0  0  0  0
    6.0819   -1.6083    2.2974 C   0  0  0  0  0  0  0  0  0  0  0  0
    6.5374   -0.4607    3.1293 N   0  0  0  0  0  0  0  0  0  0  0  0
  1  2  1  1  0  0  0
  1  7  1  0  0  0  0
  1 30  1  0  0  0  0
  3  4  1  6  0  0  0
  3  9  1  0  0  0  0
  3 39  1  0  0  0  0
  5 10  1  0  0  0  0
  5 26  1  0  0  0  0
  5 32  1  1  0  0  0
  6 12  1  0  0  0  0
  6 36  1  0  0  0  0
  6 19  1  1  0  0  0
  7  8  1  6  0  0  0
  7 14  1  0  0  0  0
  9 16  1  0  0  0  0
 10 11  1  6  0  0  0
 10 18  1  0  0  0  0
 12 13  1  1  0  0  0
 12 20  1  0  0  0  0
 14 15  1  1  0  0  0
 14 22  1  0  0  0  0
 16 17  1  1  0  0  0
 16 24  1  0  0  0  0
 18 19  1  6  0  0  0
 18 25  1  0  0  0  0
 20 21  1  1  0  0  0
 20 27  1  0  0  0  0
 22 23  1  1  0  0  0
 22 29  1  0  0  0  0
 24  2  1  1  0  0  0
 24 31  1  0  0  0  0
 25 26  1  0  0  0  0
 25 33  1  1  0  0  0
 27 28  1  1  0  0  0
 27 35  1  0  0  0  0
 29 30  1  0  0  0  0
 29 37  1  6  0  0  0
 31 32  1  1  0  0  0
 31 39  1  0  0  0  0
 33 34  1  0  0  0  0
 35 36  1  0  0  0  0
 35 41  1  1  0  0  0
 37 38  1  0  0  0  0
 39 40  1  6  0  0  0
 41 42  1  0  0  0  0
M  END
>  <CHROM.1>
-167.06977906,54.37478695,122.06288705,171.86129084,-62.13324968,-64.02956323
-75.46036756,68.92604084,-178.33502537,5.75269878,4.30968117,-0.27083441
0.73679627,1.43147997,0.89109120

>  <Name>
ligand

>  <RI>
0

>  <Rbt.Current_Directory>
/home/itssahil/PROJECTS/Mol_Feturizer/Test_systems_manuscript/rnas/2o3w

>  <Rbt.Executable>
rbdock ($Id: //depot/dev/client3/rdock/2013.1/src/exe/rbdock.cxx#4 $)

>  <Rbt.Library>
libRbt.so (2013.1, Build901 2013/11/27)

>  <Rbt.Parameter_File>
/export/apps/rDock/src/rDock_2013.1_src/data/scripts/dock_solv.prm

>  <Rbt.Receptor>
prm/pocket_docking_8.prm

>  <SCORE>
-9.47683

>  <SCORE.INTER>
-1.35325

>  <SCORE.INTER.CONST>
1

>  <SCORE.INTER.POLAR>
0

>  <SCORE.INTER.ROT>
9

>  <SCORE.INTER.SOLV>
19.1938

>  <SCORE.INTER.VDW>
-16.9001

>  <SCORE.INTER.norm>
-0.0322202

>  <SCORE.INTRA>
-8.12358

>  <SCORE.INTRA.DIHEDRAL>
-17.7413

>  <SCORE.INTRA.DIHEDRAL.0>
27.8999

>  <SCORE.INTRA.POLAR>
0

>  <SCORE.INTRA.POLAR.0>
0

>  <SCORE.INTRA.REPUL>
0

>  <SCORE.INTRA.REPUL.0>
0

>  <SCORE.INTRA.SOLV>
-3.20868

>  <SCORE.INTRA.SOLV.lig_0>
-104.479

>  <SCORE.INTRA.VDW>
2.35144

>  <SCORE.INTRA.VDW.0>
-6.17816

>  <SCORE.INTRA.norm>
-0.193418

>  <SCORE.RESTR>
0

>  <SCORE.RESTR.CAVITY>
0

>  <SCORE.RESTR.norm>
0

>  <SCORE.SYSTEM>
0

>  <SCORE.SYSTEM.CONST>
0

>  <SCORE.SYSTEM.DIHEDRAL>
0

>  <SCORE.SYSTEM.SOLV>
0

>  <SCORE.SYSTEM.norm>
0

>  <SCORE.heavy>
42

>  <SCORE.norm>
-0.225639

>  <RMSD>
10.015

$$$$
ligand
 OpenBabel02271912133D
libRbt.so/2013.1/901 2013/11/27
 42 45  0  0  0  0  0  0  0  0999 V2000
    2.8586    6.0039    2.9375 C   0  0  2  0  0  0  0  0  0  0  0  0
    3.4736    5.2029    1.9141 O   0  0  0  0  0  0  0  0  0  0  0  0
    0.6307    1.9298    1.9423 C   0  0  2  0  0  0  0  0  0  0  0  0
   -0.1003    0.6714    1.6070 N   0  0  0  0  0  0  0  0  0  0  0  0
    4.9545    1.6218    3.4937 C   0  0  1  0  0  0  0  0  0  0  0  0
    7.8237   -0.9650    5.7228 C   0  0  1  0  0  0  0  0  0  0  0  0
    3.5484    7.4006    2.8982 C   0  0  2  0  0  0  0  0  0  0  0  0
    3.6008    7.9655    1.5385 N   0  0  0  0  0  0  0  0  0  0  0  0
    0.5256    2.9848    0.7685 C   0  0  0  0  0  0  0  0  0  0  0  0
    6.2151    0.9352    2.8851 C   0  0  2  0  0  0  0  0  0  0  0  0
    5.9263   -0.2745    2.1420 O   0  0  0  0  0  0  0  0  0  0  0  0
    9.2173   -1.3222    5.0911 C   0  0  2  0  0  0  0  0  0  0  0  0
    9.0684   -2.3481    4.0158 N   0  0  0  0  0  0  0  0  0  0  0  0
    4.9979    7.3511    3.4153 C   0  0  1  0  0  0  0  0  0  0  0  0
    5.5768    8.6571    3.3987 O   0  0  0  0  0  0  0  0  0  0  0  0
    1.2942    4.2943    1.1891 C   0  0  2  0  0  0  0  0  0  0  0  0
    1.2035    5.3162    0.1115 N   0  0  0  0  0  0  0  0  0  0  0  0
    7.0856    0.7559    4.1298 C   0  0  2  0  0  0  0  0  0  0  0  0
    6.8351   -0.5303    4.7808 O   0  0  0  0  0  0  0  0  0  0  0  0
   10.2043   -1.8359    6.2438 C   0  0  1  0  0  0  0  0  0  0  0  0
   10.6159   -0.7052    7.0445 O   0  0  0  0  0  0  0  0  0  0  0  0
    5.0180    6.7429    4.8361 C   0  0  2  0  0  0  0  0  0  0  0  0
    6.3365    6.7061    5.3307 O   0  0  0  0  0  0  0  0  0  0  0  0
    2.8119    3.9765    1.4918 C   0  0  2  0  0  0  0  0  0  0  0  0
    6.7399    1.9290    5.0623 C   0  0  2  0  0  0  0  0  0  0  0  0
    5.3723    2.1904    4.7559 O   0  0  0  0  0  0  0  0  0  0  0  0
    9.5352   -2.9453    7.1868 C   0  0  2  0  0  0  0  0  0  0  0  0
    9.3767   -4.1320    6.4104 O   0  0  0  0  0  0  0  0  0  0  0  0
    4.4065    5.3032    4.7839 C   0  0  2  0  0  0  0  0  0  0  0  0
    3.0426    5.3667    4.2588 O   0  0  0  0  0  0  0  0  0  0  0  0
    2.9920    2.9086    2.5929 C   0  0  2  0  0  0  0  0  0  0  0  0
    4.4153    2.6113    2.6075 O   0  0  0  0  0  0  0  0  0  0  0  0
    7.6134    3.2065    4.8645 C   0  0  0  0  0  0  0  0  0  0  0  0
    8.9758    2.8915    5.1359 O   0  0  0  0  0  0  0  0  0  0  0  0
    8.1373   -2.4517    7.7201 C   0  0  1  0  0  0  0  0  0  0  0  0
    7.3281   -2.1486    6.5269 O   0  0  0  0  0  0  0  0  0  0  0  0
    4.3806    4.6329    6.1380 C   0  0  0  0  0  0  0  0  0  0  0  0
    5.6794    4.5755    6.6756 O   0  0  0  0  0  0  0  0  0  0  0  0
    2.1502    1.6109    2.2420 C   0  0  1  0  0  0  0  0  0  0  0  0
    2.1954    0.6842    3.3305 O   0  0  0  0  0  0  0  0  0  0  0  0
    7.3853   -3.5084    8.6402 C   0  0  0  0  0  0  0  0  0  0  0  0
    7.0569   -4.8070    7.9903 N   0  0  0  0  0  0  0  0  0  0  0  0
  1  2  1  6  0  0  0
  1  7  1  0  0  0  0
  1 30  1  0  0  0  0
  3  4  1  6  0  0  0
  3  9  1  0  0  0  0
  3 39  1  0  0  0  0
  5 10  1  0  0  0  0
  5 26  1  0  0  0  0
  5 32  1  6  0  0  0
  6 12  1  0  0  0  0
  6 36  1  0  0  0  0
  6 19  1  6  0  0  0
  7  8  1  6  0  0  0
  7 14  1  0  0  0  0
  9 16  1  0  0  0  0
 10 11  1  1  0  0  0
 10 18  1  0  0  0  0
 12 13  1  6  0  0  0
 12 20  1  0  0  0  0
 14 15  1  1  0  0  0
 14 22  1  0  0  0  0
 16 17  1  6  0  0  0
 16 24  1  0  0  0  0
 18 19  1  1  0  0  0
 18 25  1  0  0  0  0
 20 21  1  1  0  0  0
 20 27  1  0  0  0  0
 22 23  1  6  0  0  0
 22 29  1  0  0  0  0
 24  2  1  1  0  0  0
 24 31  1  0  0  0  0
 25 26  1  0  0  0  0
 25 33  1  6  0  0  0
 27 28  1  6  0  0  0
 27 35  1  0  0  0  0
 29 30  1  0  0  0  0
 29 37  1  1  0  0  0
 31 32  1  6  0  0  0
 31 39  1  0  0  0  0
 33 34  1  0  0  0  0
 35 36  1  0  0  0  0
 35 41  1  6  0  0  0
 37 38  1  0  0  0  0
 39 40  1  1  0  0  0
 41 42  1  0  0  0  0
M  END
>  <CHROM.1>
-164.59153219,49.21856959,163.68111312,-67.32087075,-61.56829531,-57.26103647
-178.26575875,149.72287847,-60.88608360,5.42815882,2.10600718,4.21214989
-2.27749899,0.58389505,3.10697814

>  <Name>
ligand

>  <RI>
0

>  <Rbt.Current_Directory>
/home/itssahil/PROJECTS/Mol_Feturizer/Test_systems_manuscript/rnas/2o3w

>  <Rbt.Executable>
rbdock ($Id: //depot/dev/client3/rdock/2013.1/src/exe/rbdock.cxx#4 $)

>  <Rbt.Library>
libRbt.so (2013.1, Build901 2013/11/27)

>  <Rbt.Parameter_File>
/export/apps/rDock/src/rDock_2013.1_src/data/scripts/dock_solv.prm

>  <Rbt.Receptor>
prm/pocket_docking_7.prm

>  <SCORE>
-16.8168

>  <SCORE.INTER>
-6.92094

>  <SCORE.INTER.CONST>
1

>  <SCORE.INTER.POLAR>
0

>  <SCORE.INTER.ROT>
9

>  <SCORE.INTER.SOLV>
12.7591

>  <SCORE.INTER.VDW>
-18.467

>  <SCORE.INTER.norm>
-0.164784

>  <SCORE.INTRA>
-9.89584

>  <SCORE.INTRA.DIHEDRAL>
-20.8915

>  <SCORE.INTRA.DIHEDRAL.0>
27.8999

>  <SCORE.INTRA.POLAR>
0

>  <SCORE.INTRA.POLAR.0>
0

>  <SCORE.INTRA.REPUL>
0

>  <SCORE.INTRA.REPUL.0>
0

>  <SCORE.INTRA.SOLV>
-1.40088

>  <SCORE.INTRA.SOLV.lig_0>
-104.479

>  <SCORE.INTRA.VDW>
1.25033

>  <SCORE.INTRA.VDW.0>
-6.17816

>  <SCORE.INTRA.norm>
-0.235615

>  <SCORE.RESTR>
0

>  <SCORE.RESTR.CAVITY>
0

>  <SCORE.RESTR.norm>
0

>  <SCORE.SYSTEM>
0

>  <SCORE.SYSTEM.CONST>
0

>  <SCORE.SYSTEM.DIHEDRAL>
0

>  <SCORE.SYSTEM.SOLV>
0

>  <SCORE.SYSTEM.norm>
0

>  <SCORE.heavy>
42

>  <SCORE.norm>
-0.4004

>  <RMSD>
10.040

$$$$
ligand
 OpenBabel02271912133D
libRbt.so/2013.1/901 2013/11/27
 42 45  0  0  0  0  0  0  0  0999 V2000
    2.7731    4.5976    1.7046 C   0  0  2  0  0  0  0  0  0  0  0  0
    1.4188    4.2767    2.0653 O   0  0  0  0  0  0  0  0  0  0  0  0
   -0.6953    0.5015    2.3387 C   0  0  2  0  0  0  0  0  0  0  0  0
   -1.2802   -0.8336    2.0132 N   0  0  0  0  0  0  0  0  0  0  0  0
    3.9426    1.1060    2.6634 C   0  0  1  0  0  0  0  0  0  0  0  0
    7.8880   -0.1927    4.3368 C   0  0  1  0  0  0  0  0  0  0  0  0
    3.0871    5.9966    2.3147 C   0  0  2  0  0  0  0  0  0  0  0  0
    2.7296    6.0827    3.7414 N   0  0  0  0  0  0  0  0  0  0  0  0
   -1.3387    1.6418    1.4512 C   0  0  0  0  0  0  0  0  0  0  0  0
    5.3346    1.2497    1.9760 C   0  0  2  0  0  0  0  0  0  0  0  0
    5.6077    0.2336    0.9801 O   0  0  0  0  0  0  0  0  0  0  0  0
    8.2530   -1.6505    4.7954 C   0  0  2  0  0  0  0  0  0  0  0  0
    7.1117   -2.2824    5.5228 N   0  0  0  0  0  0  0  0  0  0  0  0
    2.3308    7.1300    1.5976 C   0  0  1  0  0  0  0  0  0  0  0  0
    2.6784    8.3952    2.1625 O   0  0  0  0  0  0  0  0  0  0  0  0
   -0.6998    3.0243    1.8550 C   0  0  2  0  0  0  0  0  0  0  0  0
   -1.2938    4.1242    1.0481 N   0  0  0  0  0  0  0  0  0  0  0  0
    6.2658    1.2550    3.1894 C   0  0  2  0  0  0  0  0  0  0  0  0
    6.7012   -0.0973    3.5393 O   0  0  0  0  0  0  0  0  0  0  0  0
    9.5650   -1.6029    5.7137 C   0  0  1  0  0  0  0  0  0  0  0  0
   10.7138   -1.3489    4.8742 O   0  0  0  0  0  0  0  0  0  0  0  0
    2.6440    7.0822    0.0847 C   0  0  2  0  0  0  0  0  0  0  0  0
    1.9721    8.1242   -0.5841 O   0  0  0  0  0  0  0  0  0  0  0  0
    0.8656    2.9974    1.6435 C   0  0  2  0  0  0  0  0  0  0  0  0
    5.4661    1.8970    4.3355 C   0  0  2  0  0  0  0  0  0  0  0  0
    4.1220    1.5292    4.0345 O   0  0  0  0  0  0  0  0  0  0  0  0
    9.4817   -0.4867    6.8603 C   0  0  2  0  0  0  0  0  0  0  0  0
    8.4995   -0.9113    7.8044 O   0  0  0  0  0  0  0  0  0  0  0  0
    2.2094    5.6899   -0.4829 C   0  0  2  0  0  0  0  0  0  0  0  0
    2.9125    4.6256    0.2330 O   0  0  0  0  0  0  0  0  0  0  0  0
    1.5580    1.8688    2.4386 C   0  0  2  0  0  0  0  0  0  0  0  0
    2.9403    1.8761    1.9871 O   0  0  0  0  0  0  0  0  0  0  0  0
    5.6113    3.4461    4.4522 C   0  0  0  0  0  0  0  0  0  0  0  0
    6.9641    3.7700    4.7587 O   0  0  0  0  0  0  0  0  0  0  0  0
    9.0826    0.9094    6.2489 C   0  0  1  0  0  0  0  0  0  0  0  0
    7.7993    0.7010    5.5561 O   0  0  0  0  0  0  0  0  0  0  0  0
    2.4865    5.5528   -1.9622 C   0  0  0  0  0  0  0  0  0  0  0  0
    2.0322    4.3051   -2.4270 O   0  0  0  0  0  0  0  0  0  0  0  0
    0.8711    0.4743    2.1236 C   0  0  1  0  0  0  0  0  0  0  0  0
    1.4105   -0.5439    2.9708 O   0  0  0  0  0  0  0  0  0  0  0  0
    8.9438    2.0718    7.3251 C   0  0  0  0  0  0  0  0  0  0  0  0
   10.2225    2.6914    7.7697 N   0  0  0  0  0  0  0  0  0  0  0  0
  1  2  1  6  0  0  0
  1  7  1  0  0  0  0
  1 30  1  0  0  0  0
  3  4  1  6  0  0  0
  3  9  1  0  0  0  0
  3 39  1  0  0  0  0
  5 10  1  0  0  0  0
  5 26  1  0  0  0  0
  5 32  1  6  0  0  0
  6 12  1  0  0  0  0
  6 36  1  0  0  0  0
  6 19  1  1  0  0  0
  7  8  1  1  0  0  0
  7 14  1  0  0  0  0
  9 16  1  0  0  0  0
 10 11  1  6  0  0  0
 10 18  1  0  0  0  0
 12 13  1  1  0  0  0
 12 20  1  0  0  0  0
 14 15  1  1  0  0  0
 14 22  1  0  0  0  0
 16 17  1  6  0  0  0
 16 24  1  0  0  0  0
 18 19  1  1  0  0  0
 18 25  1  0  0  0  0
 20 21  1  6  0  0  0
 20 27  1  0  0  0  0
 22 23  1  6  0  0  0
 22 29  1  0  0  0  0
 24  2  1  1  0  0  0
 24 31  1  0  0  0  0
 25 26  1  0  0  0  0
 25 33  1  6  0  0  0
 27 28  1  1  0  0  0
 27 35  1  0  0  0  0
 29 30  1  0  0  0  0
 29 37  1  6  0  0  0
 31 32  1  6  0  0  0
 31 39  1  0  0  0  0
 33 34  1  0  0  0  0
 35 36  1  0  0  0  0
 35 41  1  1  0  0  0
 37 38  1  0  0  0  0
 39 40  1  1  0  0  0
 41 42  1  0  0  0  0
M  END
>  <CHROM.1>
-178.78615701,-166.81325199,159.80458125,174.96048113,-63.79509307,-177.83415117
169.69095828,178.66785020,80.19582774,4.28788888,2.37506245,2.96638721,-2.52065063
0.46160545,2.87788030

>  <Name>
ligand

>  <RI>
0

>  <Rbt.Current_Directory>
/home/itssahil/PROJECTS/Mol_Feturizer/Test_systems_manuscript/rnas/2o3w

>  <Rbt.Executable>
rbdock ($Id: //depot/dev/client3/rdock/2013.1/src/exe/rbdock.cxx#4 $)

>  <Rbt.Library>
libRbt.so (2013.1, Build901 2013/11/27)

>  <Rbt.Parameter_File>
/export/apps/rDock/src/rDock_2013.1_src/data/scripts/dock_solv.prm

>  <Rbt.Receptor>
prm/pocket_docking_7.prm

>  <SCORE>
-13.7422

>  <SCORE.INTER>
-1.03474

>  <SCORE.INTER.CONST>
1

>  <SCORE.INTER.POLAR>
0

>  <SCORE.INTER.ROT>
9

>  <SCORE.INTER.SOLV>
17.7027

>  <SCORE.INTER.VDW>
-16.1907

>  <SCORE.INTER.norm>
-0.0246368

>  <SCORE.INTRA>
-12.7075

>  <SCORE.INTRA.DIHEDRAL>
-23.0354

>  <SCORE.INTRA.DIHEDRAL.0>
27.8999

>  <SCORE.INTRA.POLAR>
0

>  <SCORE.INTRA.POLAR.0>
0

>  <SCORE.INTRA.REPUL>
0

>  <SCORE.INTRA.REPUL.0>
0

>  <SCORE.INTRA.SOLV>
-5.56787

>  <SCORE.INTRA.SOLV.lig_0>
-104.479

>  <SCORE.INTRA.VDW>
1.59415

>  <SCORE.INTRA.VDW.0>
-6.17816

>  <SCORE.INTRA.norm>
-0.302559

>  <SCORE.RESTR>
0

>  <SCORE.RESTR.CAVITY>
0

>  <SCORE.RESTR.norm>
0

>  <SCORE.SYSTEM>
0

>  <SCORE.SYSTEM.CONST>
0

>  <SCORE.SYSTEM.DIHEDRAL>
0

>  <SCORE.SYSTEM.SOLV>
0

>  <SCORE.SYSTEM.norm>
0

>  <SCORE.heavy>
42

>  <SCORE.norm>
-0.327196

>  <RMSD>
10.057

$$$$
ligand
 OpenBabel02271912133D
libRbt.so/2013.1/901 2013/11/27
 42 45  0  0  0  0  0  0  0  0999 V2000
    9.8667    6.2317    5.5751 C   0  0  2  0  0  0  0  0  0  0  0  0
    9.4805    5.3164    4.5356 O   0  0  0  0  0  0  0  0  0  0  0  0
    5.1904    5.4117    5.1536 C   0  0  2  0  0  0  0  0  0  0  0  0
    3.7177    5.2476    4.9676 N   0  0  0  0  0  0  0  0  0  0  0  0
    7.8283    1.6487    5.6324 C   0  0  1  0  0  0  0  0  0  0  0  0
    8.1161   -2.2796    7.5737 C   0  0  1  0  0  0  0  0  0  0  0  0
   11.4092    6.0969    5.7502 C   0  0  2  0  0  0  0  0  0  0  0  0
   12.1318    6.1855    4.4694 N   0  0  0  0  0  0  0  0  0  0  0  0
    5.7995    6.3930    4.0729 C   0  0  0  0  0  0  0  0  0  0  0  0
    8.3344    0.3808    4.8794 C   0  0  2  0  0  0  0  0  0  0  0  0
    7.3432   -0.2254    4.0139 O   0  0  0  0  0  0  0  0  0  0  0  0
    9.2063   -3.3255    7.1421 C   0  0  2  0  0  0  0  0  0  0  0  0
    8.7770   -4.0704    5.9208 N   0  0  0  0  0  0  0  0  0  0  0  0
   11.8092    4.7569    6.3947 C   0  0  1  0  0  0  0  0  0  0  0  0
   13.2254    4.6934    6.5721 O   0  0  0  0  0  0  0  0  0  0  0  0
    7.3461    6.5430    4.3339 C   0  0  2  0  0  0  0  0  0  0  0  0
    7.9505    7.4728    3.3421 N   0  0  0  0  0  0  0  0  0  0  0  0
    8.8143   -0.4852    6.0451 C   0  0  2  0  0  0  0  0  0  0  0  0
    7.7454   -1.3471    6.5506 O   0  0  0  0  0  0  0  0  0  0  0  0
    9.4873   -4.3290    8.3591 C   0  0  1  0  0  0  0  0  0  0  0  0
   10.2477   -3.6332    9.3723 O   0  0  0  0  0  0  0  0  0  0  0  0
   11.0640    4.5882    7.7384 C   0  0  2  0  0  0  0  0  0  0  0  0
   11.4322    3.3735    8.3494 O   0  0  0  0  0  0  0  0  0  0  0  0
    8.0639    5.1382    4.2495 C   0  0  2  0  0  0  0  0  0  0  0  0
    9.3009    0.4924    7.1281 C   0  0  2  0  0  0  0  0  0  0  0  0
    8.4682    1.6324    6.9291 O   0  0  0  0  0  0  0  0  0  0  0  0
    8.1432   -4.9146    9.0055 C   0  0  2  0  0  0  0  0  0  0  0  0
    7.5548   -5.7970    8.0507 O   0  0  0  0  0  0  0  0  0  0  0  0
    9.5217    4.6299    7.4755 C   0  0  2  0  0  0  0  0  0  0  0  0
    9.1662    5.8949    6.8328 O   0  0  0  0  0  0  0  0  0  0  0  0
    7.4813    4.1074    5.2411 C   0  0  2  0  0  0  0  0  0  0  0  0
    8.1206    2.8464    4.9008 O   0  0  0  0  0  0  0  0  0  0  0  0
   10.8102    0.8772    7.0372 C   0  0  0  0  0  0  0  0  0  0  0  0
   11.6036   -0.3002    7.1521 O   0  0  0  0  0  0  0  0  0  0  0  0
    7.1435   -3.7497    9.3599 C   0  0  1  0  0  0  0  0  0  0  0  0
    6.9051   -3.0185    8.1034 O   0  0  0  0  0  0  0  0  0  0  0  0
    8.7116    4.4779    8.7422 C   0  0  0  0  0  0  0  0  0  0  0  0
    8.8384    3.1701    9.2449 O   0  0  0  0  0  0  0  0  0  0  0  0
    5.9082    4.0055    5.0657 C   0  0  1  0  0  0  0  0  0  0  0  0
    5.3517    3.1670    6.0821 O   0  0  0  0  0  0  0  0  0  0  0  0
    5.7645   -4.2451    9.9776 C   0  0  0  0  0  0  0  0  0  0  0  0
    4.9397   -5.1134    9.0931 N   0  0  0  0  0  0  0  0  0  0  0  0
  1  2  1  6  0  0  0
  1  7  1  0  0  0  0
  1 30  1  0  0  0  0
  3  4  1  6  0  0  0
  3  9  1  0  0  0  0
  3 39  1  0  0  0  0
  5 10  1  0  0  0  0
  5 26  1  0  0  0  0
  5 32  1  6  0  0  0
  6 12  1  0  0  0  0
  6 36  1  0  0  0  0
  6 19  1  6  0  0  0
  7  8  1  6  0  0  0
  7 14  1  0  0  0  0
  9 16  1  0  0  0  0
 10 11  1  1  0  0  0
 10 18  1  0  0  0  0
 12 13  1  6  0  0  0
 12 20  1  0  0  0  0
 14 15  1  1  0  0  0
 14 22  1  0  0  0  0
 16 17  1  6  0  0  0
 16 24  1  0  0  0  0
 18 19  1  1  0  0  0
 18 25  1  0  0  0  0
 20 21  1  1  0  0  0
 20 27  1  0  0  0  0
 22 23  1  6  0  0  0
 22 29  1  0  0  0  0
 24  2  1  1  0  0  0
 24 31  1  0  0  0  0
 25 26  1  0  0  0  0
 25 33  1  6  0  0  0
 27 28  1  6  0  0  0
 27 35  1  0  0  0  0
 29 30  1  0  0  0  0
 29 37  1  1  0  0  0
 31 32  1  6  0  0  0
 31 39  1  0  0  0  0
 33 34  1  0  0  0  0
 35 36  1  0  0  0  0
 35 41  1  6  0  0  0
 37 38  1  0  0  0  0
 39 40  1  1  0  0  0
 41 42  1  0  0  0  0
M  END
>  <CHROM.1>
174.11627273,39.74967231,175.11223692,-61.18046043,-59.70459323,-69.30872980
179.35556364,165.51794686,-61.82223661,8.54360414,1.58788254,6.60149261,-1.46985186
0.26896912,2.82291119

>  <Name>
ligand

>  <RI>
0

>  <Rbt.Current_Directory>
/home/itssahil/PROJECTS/Mol_Feturizer/Test_systems_manuscript/rnas/2o3w

>  <Rbt.Executable>
rbdock ($Id: //depot/dev/client3/rdock/2013.1/src/exe/rbdock.cxx#4 $)

>  <Rbt.Library>
libRbt.so (2013.1, Build901 2013/11/27)

>  <Rbt.Parameter_File>
/export/apps/rDock/src/rDock_2013.1_src/data/scripts/dock_solv.prm

>  <Rbt.Receptor>
prm/pocket_docking_8.prm

>  <SCORE>
-13.9566

>  <SCORE.INTER>
-2.01728

>  <SCORE.INTER.CONST>
1

>  <SCORE.INTER.POLAR>
0

>  <SCORE.INTER.ROT>
9

>  <SCORE.INTER.SOLV>
13.4128

>  <SCORE.INTER.VDW>
-15.4158

>  <SCORE.INTER.norm>
-0.0480306

>  <SCORE.INTRA>
-11.9393

>  <SCORE.INTRA.DIHEDRAL>
-24.3335

>  <SCORE.INTRA.DIHEDRAL.0>
27.8999

>  <SCORE.INTRA.POLAR>
0

>  <SCORE.INTRA.POLAR.0>
0

>  <SCORE.INTRA.REPUL>
0

>  <SCORE.INTRA.REPUL.0>
0

>  <SCORE.INTRA.SOLV>
-1.81562

>  <SCORE.INTRA.SOLV.lig_0>
-104.479

>  <SCORE.INTRA.VDW>
1.13529

>  <SCORE.INTRA.VDW.0>
-6.17816

>  <SCORE.INTRA.norm>
-0.284269

>  <SCORE.RESTR>
0

>  <SCORE.RESTR.CAVITY>
0

>  <SCORE.RESTR.norm>
0

>  <SCORE.SYSTEM>
0

>  <SCORE.SYSTEM.CONST>
0

>  <SCORE.SYSTEM.DIHEDRAL>
0

>  <SCORE.SYSTEM.SOLV>
0

>  <SCORE.SYSTEM.norm>
0

>  <SCORE.heavy>
42

>  <SCORE.norm>
-0.332299

>  <RMSD>
10.090

$$$$
ligand
 OpenBabel02271912133D
libRbt.so/2013.1/901 2013/11/27
 42 45  0  0  0  0  0  0  0  0999 V2000
    9.3339    4.6934    4.3546 C   0  0  2  0  0  0  0  0  0  0  0  0
    8.1407    5.0547    3.6383 O   0  0  0  0  0  0  0  0  0  0  0  0
    5.8774    2.6458    0.8328 C   0  0  2  0  0  0  0  0  0  0  0  0
    5.4666    1.8712   -0.3761 N   0  0  0  0  0  0  0  0  0  0  0  0
    9.3430    1.0849    3.4936 C   0  0  1  0  0  0  0  0  0  0  0  0
   12.0738   -2.1902    4.4490 C   0  0  1  0  0  0  0  0  0  0  0  0
    9.4183    5.6277    5.5988 C   0  0  2  0  0  0  0  0  0  0  0  0
    8.1582    5.6664    6.3613 N   0  0  0  0  0  0  0  0  0  0  0  0
    6.0775    4.1775    0.4924 C   0  0  0  0  0  0  0  0  0  0  0  0
   10.8744    0.8400    3.6538 C   0  0  2  0  0  0  0  0  0  0  0  0
   11.5144    0.3132    2.4656 O   0  0  0  0  0  0  0  0  0  0  0  0
   12.7622   -2.4119    5.8439 C   0  0  2  0  0  0  0  0  0  0  0  0
   12.9563   -1.1130    6.5553 N   0  0  0  0  0  0  0  0  0  0  0  0
    9.7514    7.0815    5.2162 C   0  0  1  0  0  0  0  0  0  0  0  0
    9.8577    7.8922    6.3877 O   0  0  0  0  0  0  0  0  0  0  0  0
    6.4868    4.9432    1.8072 C   0  0  2  0  0  0  0  0  0  0  0  0
    6.6696    6.3927    1.5262 N   0  0  0  0  0  0  0  0  0  0  0  0
   10.9025   -0.0724    4.8810 C   0  0  2  0  0  0  0  0  0  0  0  0
   10.8280   -1.4841    4.5036 O   0  0  0  0  0  0  0  0  0  0  0  0
   14.1598   -3.1654    5.6300 C   0  0  1  0  0  0  0  0  0  0  0  0
   13.8992   -4.5477    5.2981 O   0  0  0  0  0  0  0  0  0  0  0  0
   11.0568    7.1109    4.3891 C   0  0  2  0  0  0  0  0  0  0  0  0
   11.3847    8.4370    4.0451 O   0  0  0  0  0  0  0  0  0  0  0  0
    7.8214    4.3469    2.4064 C   0  0  2  0  0  0  0  0  0  0  0  0
    9.6968    0.3383    5.7430 C   0  0  2  0  0  0  0  0  0  0  0  0
    8.7479    0.7834    4.7766 O   0  0  0  0  0  0  0  0  0  0  0  0
   15.0568   -2.4984    4.4819 C   0  0  2  0  0  0  0  0  0  0  0  0
   15.4984   -1.2295    4.9628 O   0  0  0  0  0  0  0  0  0  0  0  0
   10.8671    6.2370    3.1046 C   0  0  2  0  0  0  0  0  0  0  0  0
   10.5183    4.8690    3.4874 O   0  0  0  0  0  0  0  0  0  0  0  0
    7.7184    2.8366    2.7120 C   0  0  2  0  0  0  0  0  0  0  0  0
    9.0664    2.4268    3.0718 O   0  0  0  0  0  0  0  0  0  0  0  0
    9.9896    1.4514    6.7963 C   0  0  0  0  0  0  0  0  0  0  0  0
    8.8598    1.5990    7.6512 O   0  0  0  0  0  0  0  0  0  0  0  0
   14.2219   -2.3193    3.1579 C   0  0  1  0  0  0  0  0  0  0  0  0
   13.0512   -1.5015    3.5198 O   0  0  0  0  0  0  0  0  0  0  0  0
   12.1033    6.2039    2.2360 C   0  0  0  0  0  0  0  0  0  0  0  0
   13.2006    5.7214    2.9725 O   0  0  0  0  0  0  0  0  0  0  0  0
    7.2150    2.0502    1.4299 C   0  0  1  0  0  0  0  0  0  0  0  0
    6.9750    0.6782    1.7552 O   0  0  0  0  0  0  0  0  0  0  0  0
   15.0277   -1.6313    1.9722 C   0  0  0  0  0  0  0  0  0  0  0  0
   16.2062   -2.3906    1.4712 N   0  0  0  0  0  0  0  0  0  0  0  0
  1  2  1  6  0  0  0
  1  7  1  0  0  0  0
  1 30  1  0  0  0  0
  3  4  1  6  0  0  0
  3  9  1  0  0  0  0
  3 39  1  0  0  0  0
  5 10  1  0  0  0  0
  5 26  1  0  0  0  0
  5 32  1  1  0  0  0
  6 12  1  0  0  0  0
  6 36  1  0  0  0  0
  6 19  1  1  0  0  0
  7  8  1  6  0  0  0
  7 14  1  0  0  0  0
  9 16  1  0  0  0  0
 10 11  1  6  0  0  0
 10 18  1  0  0  0  0
 12 13  1  6  0  0  0
 12 20  1  0  0  0  0
 14 15  1  1  0  0  0
 14 22  1  0  0  0  0
 16 17  1  6  0  0  0
 16 24  1  0  0  0  0
 18 19  1  6  0  0  0
 18 25  1  0  0  0  0
 20 21  1  6  0  0  0
 20 27  1  0  0  0  0
 22 23  1  6  0  0  0
 22 29  1  0  0  0  0
 24  2  1  1  0  0  0
 24 31  1  0  0  0  0
 25 26  1  0  0  0  0
 25 33  1  1  0  0  0
 27 28  1  1  0  0  0
 27 35  1  0  0  0  0
 29 30  1  0  0  0  0
 29 37  1  1  0  0  0
 31 32  1  6  0  0  0
 31 39  1  0  0  0  0
 33 34  1  0  0  0  0
 35 36  1  0  0  0  0
 35 41  1  6  0  0  0
 37 38  1  0  0  0  0
 39 40  1  1  0  0  0
 41 42  1  0  0  0  0
M  END
>  <CHROM.1>
179.04212710,-179.07163748,98.07218408,68.51199663,-171.54654909,57.51807711
176.58422634,172.95586605,63.29164630,10.47247509,2.07089721,3.79626692,-2.23888777
0.46696775,-2.94401940

>  <Name>
ligand

>  <RI>
0

>  <Rbt.Current_Directory>
/home/itssahil/PROJECTS/Mol_Feturizer/Test_systems_manuscript/rnas/2o3w

>  <Rbt.Executable>
rbdock ($Id: //depot/dev/client3/rdock/2013.1/src/exe/rbdock.cxx#4 $)

>  <Rbt.Library>
libRbt.so (2013.1, Build901 2013/11/27)

>  <Rbt.Parameter_File>
/export/apps/rDock/src/rDock_2013.1_src/data/scripts/dock_solv.prm

>  <Rbt.Receptor>
prm/pocket_docking_8.prm

>  <SCORE>
-8.66028

>  <SCORE.INTER>
1.12478

>  <SCORE.INTER.CONST>
1

>  <SCORE.INTER.POLAR>
0

>  <SCORE.INTER.ROT>
9

>  <SCORE.INTER.SOLV>
10.7283

>  <SCORE.INTER.VDW>
-12.4263

>  <SCORE.INTER.norm>
0.0267804

>  <SCORE.INTRA>
-9.78505

>  <SCORE.INTRA.DIHEDRAL>
-21.7314

>  <SCORE.INTRA.DIHEDRAL.0>
27.8999

>  <SCORE.INTRA.POLAR>
0

>  <SCORE.INTRA.POLAR.0>
0

>  <SCORE.INTRA.REPUL>
0

>  <SCORE.INTRA.REPUL.0>
0

>  <SCORE.INTRA.SOLV>
-3.42886

>  <SCORE.INTRA.SOLV.lig_0>
-104.479

>  <SCORE.INTRA.VDW>
2.79509

>  <SCORE.INTRA.VDW.0>
-6.17816

>  <SCORE.INTRA.norm>
-0.232977

>  <SCORE.RESTR>
0

>  <SCORE.RESTR.CAVITY>
0

>  <SCORE.RESTR.norm>
0

>  <SCORE.SYSTEM>
0

>  <SCORE.SYSTEM.CONST>
0

>  <SCORE.SYSTEM.DIHEDRAL>
0

>  <SCORE.SYSTEM.SOLV>
0

>  <SCORE.SYSTEM.norm>
0

>  <SCORE.heavy>
42

>  <SCORE.norm>
-0.206197

>  <RMSD>
10.102

$$$$
ligand
 OpenBabel02271912133D
libRbt.so/2013.1/901 2013/11/27
 42 45  0  0  0  0  0  0  0  0999 V2000
   10.5798    5.6969    7.0938 C   0  0  2  0  0  0  0  0  0  0  0  0
    9.3645    6.4620    7.1634 O   0  0  0  0  0  0  0  0  0  0  0  0
    5.2848    5.2877    6.2839 C   0  0  2  0  0  0  0  0  0  0  0  0
    4.0548    4.8213    5.5768 N   0  0  0  0  0  0  0  0  0  0  0  0
    8.8759    2.3824    7.0056 C   0  0  1  0  0  0  0  0  0  0  0  0
    8.3691   -1.7308    6.3123 C   0  0  1  0  0  0  0  0  0  0  0  0
   11.7042    6.5702    7.7273 C   0  0  2  0  0  0  0  0  0  0  0  0
   11.3224    7.1136    9.0424 N   0  0  0  0  0  0  0  0  0  0  0  0
    5.7957    6.6655    5.6987 C   0  0  0  0  0  0  0  0  0  0  0  0
    8.8664    1.3653    5.8239 C   0  0  2  0  0  0  0  0  0  0  0  0
    7.5415    0.9281    5.4333 O   0  0  0  0  0  0  0  0  0  0  0  0
    7.5237   -2.7655    7.1389 C   0  0  2  0  0  0  0  0  0  0  0  0
    8.3688   -3.4458    8.1656 N   0  0  0  0  0  0  0  0  0  0  0  0
   12.0795    7.7724    6.8413 C   0  0  1  0  0  0  0  0  0  0  0  0
   13.1386    8.5206    7.4407 O   0  0  0  0  0  0  0  0  0  0  0  0
    7.0775    7.1151    6.4970 C   0  0  2  0  0  0  0  0  0  0  0  0
    7.5777    8.4180    5.9813 N   0  0  0  0  0  0  0  0  0  0  0  0
    9.7915    0.2737    6.3642 C   0  0  2  0  0  0  0  0  0  0  0  0
    9.0463   -0.7460    7.1030 O   0  0  0  0  0  0  0  0  0  0  0  0
    6.8653   -3.8297    6.1384 C   0  0  1  0  0  0  0  0  0  0  0  0
    5.7831   -3.1917    5.4238 O   0  0  0  0  0  0  0  0  0  0  0  0
   12.4693    7.2722    5.4317 C   0  0  2  0  0  0  0  0  0  0  0  0
   12.8318    8.3597    4.6129 O   0  0  0  0  0  0  0  0  0  0  0  0
    8.2164    6.0264    6.3807 C   0  0  2  0  0  0  0  0  0  0  0  0
   10.8069    0.9885    7.2716 C   0  0  2  0  0  0  0  0  0  0  0  0
   10.0614    2.0917    7.7810 O   0  0  0  0  0  0  0  0  0  0  0  0
    7.9175   -4.4324    5.0910 C   0  0  2  0  0  0  0  0  0  0  0  0
    8.8231   -5.2613    5.8184 O   0  0  0  0  0  0  0  0  0  0  0  0
   11.2603    6.4937    4.8138 C   0  0  2  0  0  0  0  0  0  0  0  0
   10.8971    5.3767    5.6858 O   0  0  0  0  0  0  0  0  0  0  0  0
    7.7694    4.6361    6.8831 C   0  0  2  0  0  0  0  0  0  0  0  0
    8.8570    3.7361    6.5343 O   0  0  0  0  0  0  0  0  0  0  0  0
   12.1050    1.4720    6.5535 C   0  0  0  0  0  0  0  0  0  0  0  0
   12.7856    0.3476    6.0046 O   0  0  0  0  0  0  0  0  0  0  0  0
    8.7016   -3.2759    4.3630 C   0  0  1  0  0  0  0  0  0  0  0  0
    9.3408   -2.4822    5.4268 O   0  0  0  0  0  0  0  0  0  0  0  0
   11.5573    5.9608    3.4312 C   0  0  0  0  0  0  0  0  0  0  0  0
   11.5177    7.0058    2.4900 O   0  0  0  0  0  0  0  0  0  0  0  0
    6.4251    4.1987    6.1641 C   0  0  1  0  0  0  0  0  0  0  0  0
    5.9314    2.9848    6.7372 O   0  0  0  0  0  0  0  0  0  0  0  0
    9.7941   -3.7867    3.3265 C   0  0  0  0  0  0  0  0  0  0  0  0
   10.8726   -4.6391    3.8982 N   0  0  0  0  0  0  0  0  0  0  0  0
  1  2  1  6  0  0  0
  1  7  1  0  0  0  0
  1 30  1  0  0  0  0
  3  4  1  6  0  0  0
  3  9  1  0  0  0  0
  3 39  1  0  0  0  0
  5 10  1  0  0  0  0
  5 26  1  0  0  0  0
  5 32  1  6  0  0  0
  6 12  1  0  0  0  0
  6 36  1  0  0  0  0
  6 19  1  1  0  0  0
  7  8  1  1  0  0  0
  7 14  1  0  0  0  0
  9 16  1  0  0  0  0
 10 11  1  1  0  0  0
 10 18  1  0  0  0  0
 12 13  1  1  0  0  0
 12 20  1  0  0  0  0
 14 15  1  1  0  0  0
 14 22  1  0  0  0  0
 16 17  1  6  0  0  0
 16 24  1  0  0  0  0
 18 19  1  1  0  0  0
 18 25  1  0  0  0  0
 20 21  1  6  0  0  0
 20 27  1  0  0  0  0
 22 23  1  6  0  0  0
 22 29  1  0  0  0  0
 24  2  1  1  0  0  0
 24 31  1  0  0  0  0
 25 26  1  0  0  0  0
 25 33  1  6  0  0  0
 27 28  1  1  0  0  0
 27 35  1  0  0  0  0
 29 30  1  0  0  0  0
 29 37  1  6  0  0  0
 31 32  1  6  0  0  0
 31 39  1  0  0  0  0
 33 34  1  0  0  0  0
 35 36  1  0  0  0  0
 35 41  1  6  0  0  0
 37 38  1  0  0  0  0
 39 40  1  1  0  0  0
 41 42  1  0  0  0  0
M  END
>  <CHROM.1>
166.29690591,-173.48452045,79.47635546,-177.15408990,-60.75462279,-75.54859611
171.54627459,119.45400255,-59.93342030,9.26719933,2.53408267,6.05865138,-1.39297447
-0.09351066,-3.08464605

>  <Name>
ligand

>  <RI>
0

>  <Rbt.Current_Directory>
/home/itssahil/PROJECTS/Mol_Feturizer/Test_systems_manuscript/rnas/2o3w

>  <Rbt.Executable>
rbdock ($Id: //depot/dev/client3/rdock/2013.1/src/exe/rbdock.cxx#4 $)

>  <Rbt.Library>
libRbt.so (2013.1, Build901 2013/11/27)

>  <Rbt.Parameter_File>
/export/apps/rDock/src/rDock_2013.1_src/data/scripts/dock_solv.prm

>  <Rbt.Receptor>
prm/pocket_docking_7.prm

>  <SCORE>
-10.8979

>  <SCORE.INTER>
-2.75582

>  <SCORE.INTER.CONST>
1

>  <SCORE.INTER.POLAR>
0

>  <SCORE.INTER.ROT>
9

>  <SCORE.INTER.SOLV>
16.3146

>  <SCORE.INTER.VDW>
-16.8754

>  <SCORE.INTER.norm>
-0.0656147

>  <SCORE.INTRA>
-8.14213

>  <SCORE.INTRA.DIHEDRAL>
-16.5487

>  <SCORE.INTRA.DIHEDRAL.0>
27.8999

>  <SCORE.INTRA.POLAR>
0

>  <SCORE.INTRA.POLAR.0>
0

>  <SCORE.INTRA.REPUL>
0

>  <SCORE.INTRA.REPUL.0>
0

>  <SCORE.INTRA.SOLV>
-4.05747

>  <SCORE.INTRA.SOLV.lig_0>
-104.479

>  <SCORE.INTRA.VDW>
2.16098

>  <SCORE.INTRA.VDW.0>
-6.17816

>  <SCORE.INTRA.norm>
-0.19386

>  <SCORE.RESTR>
0

>  <SCORE.RESTR.CAVITY>
0

>  <SCORE.RESTR.norm>
0

>  <SCORE.SYSTEM>
0

>  <SCORE.SYSTEM.CONST>
0

>  <SCORE.SYSTEM.DIHEDRAL>
0

>  <SCORE.SYSTEM.SOLV>
0

>  <SCORE.SYSTEM.norm>
0

>  <SCORE.heavy>
42

>  <SCORE.norm>
-0.259475

>  <RMSD>
10.124

$$$$
ligand
 OpenBabel02271912133D
libRbt.so/2013.1/901 2013/11/27
 42 45  0  0  0  0  0  0  0  0999 V2000
    7.0091    4.5300    2.9830 C   0  0  2  0  0  0  0  0  0  0  0  0
    5.9949    4.3841    1.9743 O   0  0  0  0  0  0  0  0  0  0  0  0
    4.7917    1.0347   -0.5015 C   0  0  2  0  0  0  0  0  0  0  0  0
    4.8114   -0.1178   -1.4511 N   0  0  0  0  0  0  0  0  0  0  0  0
    6.8449    0.8487    3.7523 C   0  0  1  0  0  0  0  0  0  0  0  0
    7.5310   -2.9437    5.2235 C   0  0  1  0  0  0  0  0  0  0  0  0
    6.6290    5.7793    3.8331 C   0  0  2  0  0  0  0  0  0  0  0  0
    5.2269    5.7488    4.2844 N   0  0  0  0  0  0  0  0  0  0  0  0
    5.1802    2.3844   -1.2289 C   0  0  0  0  0  0  0  0  0  0  0  0
    7.8127   -0.3542    3.5349 C   0  0  2  0  0  0  0  0  0  0  0  0
    7.2076   -1.4821    2.8560 O   0  0  0  0  0  0  0  0  0  0  0  0
    6.6257   -3.9530    6.0174 C   0  0  2  0  0  0  0  0  0  0  0  0
    6.8895   -3.8657    7.4850 N   0  0  0  0  0  0  0  0  0  0  0  0
    6.8173    7.0948    3.0552 C   0  0  1  0  0  0  0  0  0  0  0  0
    6.4959    8.2131    3.8839 O   0  0  0  0  0  0  0  0  0  0  0  0
    5.1200    3.5626   -0.1845 C   0  0  2  0  0  0  0  0  0  0  0  0
    5.4665    4.8528   -0.8394 N   0  0  0  0  0  0  0  0  0  0  0  0
    8.2848   -0.6179    4.9656 C   0  0  2  0  0  0  0  0  0  0  0  0
    7.4196   -1.5798    5.6490 O   0  0  0  0  0  0  0  0  0  0  0  0
    6.8857   -5.4373    5.4733 C   0  0  1  0  0  0  0  0  0  0  0  0
    6.2685   -5.5732    4.1735 O   0  0  0  0  0  0  0  0  0  0  0  0
    8.2685    7.1800    2.5300 C   0  0  2  0  0  0  0  0  0  0  0  0
    8.4620    8.3868    1.8295 O   0  0  0  0  0  0  0  0  0  0  0  0
    6.1115    3.2942    1.0158 C   0  0  2  0  0  0  0  0  0  0  0  0
    8.2710    0.7464    5.6754 C   0  0  2  0  0  0  0  0  0  0  0  0
    7.2093    1.4377    5.0217 O   0  0  0  0  0  0  0  0  0  0  0  0
    8.4436   -5.7968    5.3671 C   0  0  2  0  0  0  0  0  0  0  0  0
    8.9544   -5.8968    6.6958 O   0  0  0  0  0  0  0  0  0  0  0  0
    8.5488    5.9510    1.6024 C   0  0  2  0  0  0  0  0  0  0  0  0
    8.3322    4.7118    2.3488 O   0  0  0  0  0  0  0  0  0  0  0  0
    5.8270    1.9605    1.7408 C   0  0  2  0  0  0  0  0  0  0  0  0
    6.9280    1.7915    2.6756 O   0  0  0  0  0  0  0  0  0  0  0  0
    9.6051    1.5501    5.5826 C   0  0  0  0  0  0  0  0  0  0  0  0
    9.9230    1.7775    4.2128 O   0  0  0  0  0  0  0  0  0  0  0  0
    9.2181   -4.6818    4.5677 C   0  0  1  0  0  0  0  0  0  0  0  0
    8.9679   -3.4178    5.2818 O   0  0  0  0  0  0  0  0  0  0  0  0
    9.9542    5.9503    1.0468 C   0  0  0  0  0  0  0  0  0  0  0  0
   10.1160    7.0102    0.1359 O   0  0  0  0  0  0  0  0  0  0  0  0
    5.7868    0.7663    0.6977 C   0  0  1  0  0  0  0  0  0  0  0  0
    5.3749   -0.4406    1.3451 O   0  0  0  0  0  0  0  0  0  0  0  0
   10.7818   -4.9424    4.4429 C   0  0  0  0  0  0  0  0  0  0  0  0
   11.5463   -3.9121    3.6875 N   0  0  0  0  0  0  0  0  0  0  0  0
  1  2  1  6  0  0  0
  1  7  1  0  0  0  0
  1 30  1  0  0  0  0
  3  4  1  6  0  0  0
  3  9  1  0  0  0  0
  3 39  1  0  0  0  0
  5 10  1  0  0  0  0
  5 26  1  0  0  0  0
  5 32  1  6  0  0  0
  6 12  1  0  0  0  0
  6 36  1  0  0  0  0
  6 19  1  1  0  0  0
  7  8  1  6  0  0  0
  7 14  1  0  0  0  0
  9 16  1  0  0  0  0
 10 11  1  1  0  0  0
 10 18  1  0  0  0  0
 12 13  1  1  0  0  0
 12 20  1  0  0  0  0
 14 15  1  1  0  0  0
 14 22  1  0  0  0  0
 16 17  1  6  0  0  0
 16 24  1  0  0  0  0
 18 19  1  1  0  0  0
 18 25  1  0  0  0  0
 20 21  1  6  0  0  0
 20 27  1  0  0  0  0
 22 23  1  6  0  0  0
 22 29  1  0  0  0  0
 24  2  1  1  0  0  0
 24 31  1  0  0  0  0
 25 26  1  0  0  0  0
 25 33  1  6  0  0  0
 27 28  1  1  0  0  0
 27 35  1  0  0  0  0
 29 30  1  0  0  0  0
 29 37  1  1  0  0  0
 31 32  1  1  0  0  0
 31 39  1  0  0  0  0
 33 34  1  0  0  0  0
 35 36  1  0  0  0  0
 35 41  1  1  0  0  0
 37 38  1  0  0  0  0
 39 40  1  1  0  0  0
 41 42  1  0  0  0  0
M  END
>  <CHROM.1>
179.10806455,-165.47670094,72.44023088,177.81729691,58.78510779,-68.33859151
164.24778811,110.63304170,179.71137784,7.45007806,1.11008241,3.16406305,-1.71917925
0.91052038,2.92671263

>  <Name>
ligand

>  <RI>
0

>  <Rbt.Current_Directory>
/home/itssahil/PROJECTS/Mol_Feturizer/Test_systems_manuscript/rnas/2o3w

>  <Rbt.Executable>
rbdock ($Id: //depot/dev/client3/rdock/2013.1/src/exe/rbdock.cxx#4 $)

>  <Rbt.Library>
libRbt.so (2013.1, Build901 2013/11/27)

>  <Rbt.Parameter_File>
/export/apps/rDock/src/rDock_2013.1_src/data/scripts/dock_solv.prm

>  <Rbt.Receptor>
prm/pocket_docking_4.prm

>  <SCORE>
-5.23313

>  <SCORE.INTER>
3.9419

>  <SCORE.INTER.CONST>
1

>  <SCORE.INTER.POLAR>
0

>  <SCORE.INTER.ROT>
9

>  <SCORE.INTER.SOLV>
9.00211

>  <SCORE.INTER.VDW>
-9.97277

>  <SCORE.INTER.norm>
0.0938548

>  <SCORE.INTRA>
-9.19283

>  <SCORE.INTRA.DIHEDRAL>
-17.831

>  <SCORE.INTRA.DIHEDRAL.0>
27.8999

>  <SCORE.INTRA.POLAR>
0

>  <SCORE.INTRA.POLAR.0>
0

>  <SCORE.INTRA.REPUL>
0

>  <SCORE.INTRA.REPUL.0>
0

>  <SCORE.INTRA.SOLV>
-4.70333

>  <SCORE.INTRA.SOLV.lig_0>
-104.479

>  <SCORE.INTRA.VDW>
2.07432

>  <SCORE.INTRA.VDW.0>
-6.17816

>  <SCORE.INTRA.norm>
-0.218877

>  <SCORE.RESTR>
0.017802

>  <SCORE.RESTR.CAVITY>
0.017802

>  <SCORE.RESTR.norm>
0.000423858

>  <SCORE.SYSTEM>
0

>  <SCORE.SYSTEM.CONST>
0

>  <SCORE.SYSTEM.DIHEDRAL>
0

>  <SCORE.SYSTEM.SOLV>
0

>  <SCORE.SYSTEM.norm>
0

>  <SCORE.heavy>
42

>  <SCORE.norm>
-0.124598

>  <RMSD>
10.136

$$$$
ligand
 OpenBabel02271912133D
libRbt.so/2013.1/901 2013/11/27
 42 45  0  0  0  0  0  0  0  0999 V2000
   10.9623    4.2455    5.2852 C   0  0  2  0  0  0  0  0  0  0  0  0
    9.7452    4.5511    5.9870 O   0  0  0  0  0  0  0  0  0  0  0  0
    5.8535    2.6695    5.6553 C   0  0  2  0  0  0  0  0  0  0  0  0
    4.5402    2.1898    5.1302 N   0  0  0  0  0  0  0  0  0  0  0  0
    9.7728    0.9713    3.8682 C   0  0  1  0  0  0  0  0  0  0  0  0
   11.7847   -2.7897    2.9895 C   0  0  1  0  0  0  0  0  0  0  0  0
   12.1274    4.8952    6.0904 C   0  0  2  0  0  0  0  0  0  0  0  0
   12.0739    4.5651    7.5253 N   0  0  0  0  0  0  0  0  0  0  0  0
    5.9032    4.2491    5.7203 C   0  0  0  0  0  0  0  0  0  0  0  0
   10.9430    0.9073    2.8400 C   0  0  2  0  0  0  0  0  0  0  0  0
   10.5128    0.9118    1.4565 O   0  0  0  0  0  0  0  0  0  0  0  0
   13.3312   -2.8522    2.7190 C   0  0  2  0  0  0  0  0  0  0  0  0
   13.6359   -2.5396    1.2906 N   0  0  0  0  0  0  0  0  0  0  0  0
   12.1235    6.4316    5.9871 C   0  0  1  0  0  0  0  0  0  0  0  0
   13.2290    6.9812    6.7059 O   0  0  0  0  0  0  0  0  0  0  0  0
    7.2993    4.6922    6.3010 C   0  0  2  0  0  0  0  0  0  0  0  0
    7.3756    6.1754    6.3899 N   0  0  0  0  0  0  0  0  0  0  0  0
   11.6754   -0.3536    3.3016 C   0  0  2  0  0  0  0  0  0  0  0  0
   11.1653   -1.5487    2.6290 O   0  0  0  0  0  0  0  0  0  0  0  0
   13.8800   -4.3029    3.1204 C   0  0  1  0  0  0  0  0  0  0  0  0
   13.9105   -4.4086    4.5615 O   0  0  0  0  0  0  0  0  0  0  0  0
   12.1543    6.8484    4.4990 C   0  0  2  0  0  0  0  0  0  0  0  0
   12.1680    8.2526    4.3876 O   0  0  0  0  0  0  0  0  0  0  0  0
    8.4758    4.1543    5.3941 C   0  0  2  0  0  0  0  0  0  0  0  0
   11.4615   -0.4360    4.8224 C   0  0  2  0  0  0  0  0  0  0  0  0
   10.1837    0.1708    5.0002 O   0  0  0  0  0  0  0  0  0  0  0  0
   12.9940   -5.4926    2.5143 C   0  0  2  0  0  0  0  0  0  0  0  0
   13.1949   -5.5029    1.1016 O   0  0  0  0  0  0  0  0  0  0  0  0
   10.9034    6.2483    3.7747 C   0  0  2  0  0  0  0  0  0  0  0  0
   10.9067    4.7920    3.9126 O   0  0  0  0  0  0  0  0  0  0  0  0
    8.4574    2.6178    5.2383 C   0  0  2  0  0  0  0  0  0  0  0  0
    9.4747    2.3228    4.2420 O   0  0  0  0  0  0  0  0  0  0  0  0
   12.5486    0.2833    5.6798 C   0  0  0  0  0  0  0  0  0  0  0  0
   13.8293   -0.2532    5.3621 O   0  0  0  0  0  0  0  0  0  0  0  0
   11.4694   -5.2752    2.8468 C   0  0  1  0  0  0  0  0  0  0  0  0
   11.1143   -3.9563    2.2949 O   0  0  0  0  0  0  0  0  0  0  0  0
   10.8562    6.6024    2.3063 C   0  0  0  0  0  0  0  0  0  0  0  0
    9.7209    6.0287    1.7054 O   0  0  0  0  0  0  0  0  0  0  0  0
    7.0300    2.1332    4.7450 C   0  0  1  0  0  0  0  0  0  0  0  0
    6.9665    0.7043    4.7463 O   0  0  0  0  0  0  0  0  0  0  0  0
   10.5108   -6.3960    2.2523 C   0  0  0  0  0  0  0  0  0  0  0  0
    9.0645   -6.2376    2.5679 N   0  0  0  0  0  0  0  0  0  0  0  0
  1  2  1  1  0  0  0
  1  7  1  0  0  0  0
  1 30  1  0  0  0  0
  3  4  1  6  0  0  0
  3  9  1  0  0  0  0
  3 39  1  0  0  0  0
  5 10  1  0  0  0  0
  5 26  1  0  0  0  0
  5 32  1  1  0  0  0
  6 12  1  0  0  0  0
  6 36  1  0  0  0  0
  6 19  1  6  0  0  0
  7  8  1  1  0  0  0
  7 14  1  0  0  0  0
  9 16  1  0  0  0  0
 10 11  1  6  0  0  0
 10 18  1  0  0  0  0
 12 13  1  6  0  0  0
 12 20  1  0  0  0  0
 14 15  1  1  0  0  0
 14 22  1  0  0  0  0
 16 17  1  6  0  0  0
 16 24  1  0  0  0  0
 18 19  1  6  0  0  0
 18 25  1  0  0  0  0
 20 21  1  1  0  0  0
 20 27  1  0  0  0  0
 22 23  1  1  0  0  0
 22 29  1  0  0  0  0
 24  2  1  1  0  0  0
 24 31  1  0  0  0  0
 25 26  1  0  0  0  0
 25 33  1  1  0  0  0
 27 28  1  6  0  0  0
 27 35  1  0  0  0  0
 29 30  1  0  0  0  0
 29 37  1  6  0  0  0
 31 32  1  6  0  0  0
 31 39  1  0  0  0  0
 33 34  1  0  0  0  0
 35 36  1  0  0  0  0
 35 41  1  6  0  0  0
 37 38  1  0  0  0  0
 39 40  1  1  0  0  0
 41 42  1  0  0  0  0
M  END
>  <CHROM.1>
175.11293010,-175.99004237,179.98909090,-59.41179443,-57.11029054,179.48954708
177.94460858,-177.15141282,178.89825825,10.62655862,1.27013503,4.14659122
-1.78337112,-0.11281726,-2.92099753

>  <Name>
ligand

>  <RI>
0

>  <Rbt.Current_Directory>
/home/itssahil/PROJECTS/Mol_Feturizer/Test_systems_manuscript/rnas/2o3w

>  <Rbt.Executable>
rbdock ($Id: //depot/dev/client3/rdock/2013.1/src/exe/rbdock.cxx#4 $)

>  <Rbt.Library>
libRbt.so (2013.1, Build901 2013/11/27)

>  <Rbt.Parameter_File>
/export/apps/rDock/src/rDock_2013.1_src/data/scripts/dock_solv.prm

>  <Rbt.Receptor>
prm/pocket_docking_8.prm

>  <SCORE>
-13.7228

>  <SCORE.INTER>
0.183808

>  <SCORE.INTER.CONST>
1

>  <SCORE.INTER.POLAR>
0

>  <SCORE.INTER.ROT>
9

>  <SCORE.INTER.SOLV>
11.4025

>  <SCORE.INTER.VDW>
-13.2783

>  <SCORE.INTER.norm>
0.00437638

>  <SCORE.INTRA>
-13.9066

>  <SCORE.INTRA.DIHEDRAL>
-27.4602

>  <SCORE.INTRA.DIHEDRAL.0>
27.8999

>  <SCORE.INTRA.POLAR>
0

>  <SCORE.INTRA.POLAR.0>
0

>  <SCORE.INTRA.REPUL>
0

>  <SCORE.INTRA.REPUL.0>
0

>  <SCORE.INTRA.SOLV>
-6.08424

>  <SCORE.INTRA.SOLV.lig_0>
-104.479

>  <SCORE.INTRA.VDW>
2.86558

>  <SCORE.INTRA.VDW.0>
-6.17816

>  <SCORE.INTRA.norm>
-0.33111

>  <SCORE.RESTR>
0

>  <SCORE.RESTR.CAVITY>
0

>  <SCORE.RESTR.norm>
0

>  <SCORE.SYSTEM>
0

>  <SCORE.SYSTEM.CONST>
0

>  <SCORE.SYSTEM.DIHEDRAL>
0

>  <SCORE.SYSTEM.SOLV>
0

>  <SCORE.SYSTEM.norm>
0

>  <SCORE.heavy>
42

>  <SCORE.norm>
-0.326734

>  <RMSD>
10.192

$$$$
ligand
 OpenBabel02271912133D
libRbt.so/2013.1/901 2013/11/27
 42 45  0  0  0  0  0  0  0  0999 V2000
    6.3487    8.7495   -0.6253 C   0  0  2  0  0  0  0  0  0  0  0  0
    6.4034    7.3184   -0.4977 O   0  0  0  0  0  0  0  0  0  0  0  0
    5.8855    6.3343   -4.6881 C   0  0  2  0  0  0  0  0  0  0  0  0
    5.7824    5.5854   -5.9761 N   0  0  0  0  0  0  0  0  0  0  0  0
    4.5581    4.5387   -0.7257 C   0  0  1  0  0  0  0  0  0  0  0  0
    4.3413    1.5832    2.1919 C   0  0  1  0  0  0  0  0  0  0  0  0
    6.3837    9.3367    0.8176 C   0  0  2  0  0  0  0  0  0  0  0  0
    7.4758    8.7722    1.6296 N   0  0  0  0  0  0  0  0  0  0  0  0
    7.3455    6.2432   -4.0865 C   0  0  0  0  0  0  0  0  0  0  0  0
    3.5573    3.9795    0.3310 C   0  0  2  0  0  0  0  0  0  0  0  0
    3.8721    4.3515    1.6954 O   0  0  0  0  0  0  0  0  0  0  0  0
    5.5511    1.0629    3.0489 C   0  0  2  0  0  0  0  0  0  0  0  0
    6.1280   -0.1812    2.4571 N   0  0  0  0  0  0  0  0  0  0  0  0
    5.0760    9.0744    1.5871 C   0  0  1  0  0  0  0  0  0  0  0  0
    5.1374    9.6631    2.8873 O   0  0  0  0  0  0  0  0  0  0  0  0
    7.3971    7.0682   -2.7451 C   0  0  2  0  0  0  0  0  0  0  0  0
    8.7631    7.0161   -2.1579 N   0  0  0  0  0  0  0  0  0  0  0  0
    3.6077    2.4819    0.0244 C   0  0  2  0  0  0  0  0  0  0  0  0
    4.6420    1.8067    0.8087 O   0  0  0  0  0  0  0  0  0  0  0  0
    5.0633    0.8115    4.5542 C   0  0  1  0  0  0  0  0  0  0  0  0
    4.8748    2.0888    5.2037 O   0  0  0  0  0  0  0  0  0  0  0  0
    3.8809    9.6233    0.7749 C   0  0  2  0  0  0  0  0  0  0  0  0
    2.6773    9.4060    1.4738 O   0  0  0  0  0  0  0  0  0  0  0  0
    6.3508    6.5048   -1.7042 C   0  0  2  0  0  0  0  0  0  0  0  0
    3.8875    2.3665   -1.4835 C   0  0  2  0  0  0  0  0  0  0  0  0
    4.6662    3.5293   -1.7555 O   0  0  0  0  0  0  0  0  0  0  0  0
    3.7059   -0.0363    4.6348 C   0  0  2  0  0  0  0  0  0  0  0  0
    4.0037   -1.3674    4.2154 O   0  0  0  0  0  0  0  0  0  0  0  0
    3.8451    8.9170   -0.6213 C   0  0  2  0  0  0  0  0  0  0  0  0
    5.1077    9.1490   -1.3225 O   0  0  0  0  0  0  0  0  0  0  0  0
    4.9045    6.5102   -2.2461 C   0  0  2  0  0  0  0  0  0  0  0  0
    4.1203    5.7995   -1.2489 O   0  0  0  0  0  0  0  0  0  0  0  0
    2.6163    2.3183   -2.3869 C   0  0  0  0  0  0  0  0  0  0  0  0
    1.8359    1.1782   -2.0405 O   0  0  0  0  0  0  0  0  0  0  0  0
    2.6009    0.5940    3.7053 C   0  0  1  0  0  0  0  0  0  0  0  0
    3.1771    0.6279    2.3498 O   0  0  0  0  0  0  0  0  0  0  0  0
    2.7057    9.4004   -1.4884 C   0  0  0  0  0  0  0  0  0  0  0  0
    2.8392   10.7780   -1.7409 O   0  0  0  0  0  0  0  0  0  0  0  0
    4.8400    5.7674   -3.6460 C   0  0  1  0  0  0  0  0  0  0  0  0
    3.5360    5.9040   -4.2174 O   0  0  0  0  0  0  0  0  0  0  0  0
    1.2268   -0.2063    3.6985 C   0  0  0  0  0  0  0  0  0  0  0  0
    1.2950   -1.5951    3.1664 N   0  0  0  0  0  0  0  0  0  0  0  0
  1  2  1  1  0  0  0
  1  7  1  0  0  0  0
  1 30  1  0  0  0  0
  3  4  1  6  0  0  0
  3  9  1  0  0  0  0
  3 39  1  0  0  0  0
  5 10  1  0  0  0  0
  5 26  1  0  0  0  0
  5 32  1  6  0  0  0
  6 12  1  0  0  0  0
  6 36  1  0  0  0  0
  6 19  1  6  0  0  0
  7  8  1  1  0  0  0
  7 14  1  0  0  0  0
  9 16  1  0  0  0  0
 10 11  1  1  0  0  0
 10 18  1  0  0  0  0
 12 13  1  6  0  0  0
 12 20  1  0  0  0  0
 14 15  1  1  0  0  0
 14 22  1  0  0  0  0
 16 17  1  1  0  0  0
 16 24  1  0  0  0  0
 18 19  1  1  0  0  0
 18 25  1  0  0  0  0
 20 21  1  6  0  0  0
 20 27  1  0  0  0  0
 22 23  1  1  0  0  0
 22 29  1  0  0  0  0
 24  2  1  1  0  0  0
 24 31  1  0  0  0  0
 25 26  1  0  0  0  0
 25 33  1  6  0  0  0
 27 28  1  6  0  0  0
 27 35  1  0  0  0  0
 29 30  1  0  0  0  0
 29 37  1  6  0  0  0
 31 32  1  1  0  0  0
 31 39  1  0  0  0  0
 33 34  1  0  0  0  0
 35 36  1  0  0  0  0
 35 41  1  6  0  0  0
 37 38  1  0  0  0  0
 39 40  1  6  0  0  0
 41 42  1  0  0  0  0
M  END
>  <CHROM.1>
178.44863661,49.07221490,75.43776334,-170.95031518,-60.81306214,61.26180576
-48.06828215,179.69374128,-63.31283005,4.53982868,4.83273083,0.10426316,-0.14339418
1.38265458,1.19753181

>  <Name>
ligand

>  <RI>
0

>  <Rbt.Current_Directory>
/home/itssahil/PROJECTS/Mol_Feturizer/Test_systems_manuscript/rnas/2o3w

>  <Rbt.Executable>
rbdock ($Id: //depot/dev/client3/rdock/2013.1/src/exe/rbdock.cxx#4 $)

>  <Rbt.Library>
libRbt.so (2013.1, Build901 2013/11/27)

>  <Rbt.Parameter_File>
/export/apps/rDock/src/rDock_2013.1_src/data/scripts/dock_solv.prm

>  <Rbt.Receptor>
prm/pocket_docking_7.prm

>  <SCORE>
-12.9421

>  <SCORE.INTER>
-1.51381

>  <SCORE.INTER.CONST>
1

>  <SCORE.INTER.POLAR>
0

>  <SCORE.INTER.ROT>
9

>  <SCORE.INTER.SOLV>
19.5779

>  <SCORE.INTER.VDW>
-17.1352

>  <SCORE.INTER.norm>
-0.0360431

>  <SCORE.INTRA>
-11.4283

>  <SCORE.INTRA.DIHEDRAL>
-24.9407

>  <SCORE.INTRA.DIHEDRAL.0>
27.8999

>  <SCORE.INTRA.POLAR>
0

>  <SCORE.INTRA.POLAR.0>
0

>  <SCORE.INTRA.REPUL>
0

>  <SCORE.INTRA.REPUL.0>
0

>  <SCORE.INTRA.SOLV>
-3.56879

>  <SCORE.INTRA.SOLV.lig_0>
-104.479

>  <SCORE.INTRA.VDW>
2.82648

>  <SCORE.INTRA.VDW.0>
-6.17816

>  <SCORE.INTRA.norm>
-0.272102

>  <SCORE.RESTR>
0

>  <SCORE.RESTR.CAVITY>
0

>  <SCORE.RESTR.norm>
0

>  <SCORE.SYSTEM>
0

>  <SCORE.SYSTEM.CONST>
0

>  <SCORE.SYSTEM.DIHEDRAL>
0

>  <SCORE.SYSTEM.SOLV>
0

>  <SCORE.SYSTEM.norm>
0

>  <SCORE.heavy>
42

>  <SCORE.norm>
-0.308145

>  <RMSD>
10.203

$$$$
ligand
 OpenBabel02271912133D
libRbt.so/2013.1/901 2013/11/27
 42 45  0  0  0  0  0  0  0  0999 V2000
    4.9076    5.1153   -2.3347 C   0  0  2  0  0  0  0  0  0  0  0  0
    4.7268    6.3006   -1.5413 O   0  0  0  0  0  0  0  0  0  0  0  0
    3.3530    6.7658    2.5443 C   0  0  2  0  0  0  0  0  0  0  0  0
    2.5175    6.7316    3.7818 N   0  0  0  0  0  0  0  0  0  0  0  0
    4.9526    2.8136    0.6210 C   0  0  1  0  0  0  0  0  0  0  0  0
    5.7411   -1.3801    1.9523 C   0  0  1  0  0  0  0  0  0  0  0  0
    6.0860    5.3987   -3.3141 C   0  0  2  0  0  0  0  0  0  0  0  0
    7.2721    5.9395   -2.6276 N   0  0  0  0  0  0  0  0  0  0  0  0
    2.7064    7.6964    1.4408 C   0  0  0  0  0  0  0  0  0  0  0  0
    3.8932    1.8123    1.1741 C   0  0  2  0  0  0  0  0  0  0  0  0
    3.5511    2.0254    2.5658 O   0  0  0  0  0  0  0  0  0  0  0  0
    6.6610   -1.8312    3.1436 C   0  0  2  0  0  0  0  0  0  0  0  0
    7.9107   -1.0146    3.1915 N   0  0  0  0  0  0  0  0  0  0  0  0
    5.7050    6.4123   -4.4088 C   0  0  1  0  0  0  0  0  0  0  0  0
    6.7995    6.6113   -5.3051 O   0  0  0  0  0  0  0  0  0  0  0  0
    3.6413    7.7096    0.1727 C   0  0  2  0  0  0  0  0  0  0  0  0
    3.0695    8.5888   -0.8826 N   0  0  0  0  0  0  0  0  0  0  0  0
    4.5554    0.4716    0.8527 C   0  0  2  0  0  0  0  0  0  0  0  0
    5.4027    0.0124    1.9537 O   0  0  0  0  0  0  0  0  0  0  0  0
    6.9976   -3.3901    2.9907 C   0  0  1  0  0  0  0  0  0  0  0  0
    5.8201   -4.1576    3.3272 O   0  0  0  0  0  0  0  0  0  0  0  0
    4.4466    5.9153   -5.1563 C   0  0  2  0  0  0  0  0  0  0  0  0
    4.0944    6.8243   -6.1732 O   0  0  0  0  0  0  0  0  0  0  0  0
    3.8266    6.2481   -0.3979 C   0  0  2  0  0  0  0  0  0  0  0  0
    5.3788    0.7006   -0.4259 C   0  0  2  0  0  0  0  0  0  0  0  0
    5.7587    2.0708   -0.3221 O   0  0  0  0  0  0  0  0  0  0  0  0
    7.4872   -3.7789    1.5153 C   0  0  2  0  0  0  0  0  0  0  0  0
    8.7763   -3.1981    1.3220 O   0  0  0  0  0  0  0  0  0  0  0  0
    3.2754    5.7513   -4.1311 C   0  0  2  0  0  0  0  0  0  0  0  0
    3.6684    4.8114   -3.0814 O   0  0  0  0  0  0  0  0  0  0  0  0
    4.4034    5.2664    0.6456 C   0  0  2  0  0  0  0  0  0  0  0  0
    4.3315    3.9565    0.0184 O   0  0  0  0  0  0  0  0  0  0  0  0
    4.6140    0.4296   -1.7585 C   0  0  0  0  0  0  0  0  0  0  0  0
    3.4219    1.2089   -1.7836 O   0  0  0  0  0  0  0  0  0  0  0  0
    6.4775   -3.2374    0.4339 C   0  0  1  0  0  0  0  0  0  0  0  0
    6.3926   -1.7820    0.6458 O   0  0  0  0  0  0  0  0  0  0  0  0
    2.0009    5.2602   -4.7780 C   0  0  0  0  0  0  0  0  0  0  0  0
    1.5225    6.2154   -5.6934 O   0  0  0  0  0  0  0  0  0  0  0  0
    3.5351    5.3029    1.9724 C   0  0  1  0  0  0  0  0  0  0  0  0
    4.1543    4.5105    2.9893 O   0  0  0  0  0  0  0  0  0  0  0  0
    6.9049   -3.5506   -1.0654 C   0  0  0  0  0  0  0  0  0  0  0  0
    8.2713   -3.1023   -1.4507 N   0  0  0  0  0  0  0  0  0  0  0  0
  1  2  1  6  0  0  0
  1  7  1  0  0  0  0
  1 30  1  0  0  0  0
  3  4  1  1  0  0  0
  3  9  1  0  0  0  0
  3 39  1  0  0  0  0
  5 10  1  0  0  0  0
  5 26  1  0  0  0  0
  5 32  1  6  0  0  0
  6 12  1  0  0  0  0
  6 36  1  0  0  0  0
  6 19  1  6  0  0  0
  7  8  1  1  0  0  0
  7 14  1  0  0  0  0
  9 16  1  0  0  0  0
 10 11  1  1  0  0  0
 10 18  1  0  0  0  0
 12 13  1  6  0  0  0
 12 20  1  0  0  0  0
 14 15  1  6  0  0  0
 14 22  1  0  0  0  0
 16 17  1  6  0  0  0
 16 24  1  0  0  0  0
 18 19  1  1  0  0  0
 18 25  1  0  0  0  0
 20 21  1  6  0  0  0
 20 27  1  0  0  0  0
 22 23  1  6  0  0  0
 22 29  1  0  0  0  0
 24  2  1  6  0  0  0
 24 31  1  0  0  0  0
 25 26  1  0  0  0  0
 25 33  1  6  0  0  0
 27 28  1  6  0  0  0
 27 35  1  0  0  0  0
 29 30  1  0  0  0  0
 29 37  1  6  0  0  0
 31 32  1  6  0  0  0
 31 39  1  0  0  0  0
 33 34  1  0  0  0  0
 35 36  1  0  0  0  0
 35 41  1  6  0  0  0
 37 38  1  0  0  0  0
 39 40  1  1  0  0  0
 41 42  1  0  0  0  0
M  END
>  <CHROM.1>
-170.57518162,-171.91145420,161.62540962,179.53550898,54.96646275,-64.31968649
171.23260484,109.80173618,-54.13116086,4.97091720,2.71544715,-0.44096070
-2.35740271,-1.17518258,1.95103221

>  <Name>
ligand

>  <RI>
0

>  <Rbt.Current_Directory>
/home/itssahil/PROJECTS/Mol_Feturizer/Test_systems_manuscript/rnas/2o3w

>  <Rbt.Executable>
rbdock ($Id: //depot/dev/client3/rdock/2013.1/src/exe/rbdock.cxx#4 $)

>  <Rbt.Library>
libRbt.so (2013.1, Build901 2013/11/27)

>  <Rbt.Parameter_File>
/export/apps/rDock/src/rDock_2013.1_src/data/scripts/dock_solv.prm

>  <Rbt.Receptor>
prm/pocket_docking_8.prm

>  <SCORE>
-6.71609

>  <SCORE.INTER>
1.71467

>  <SCORE.INTER.CONST>
1

>  <SCORE.INTER.POLAR>
0

>  <SCORE.INTER.ROT>
9

>  <SCORE.INTER.SOLV>
15.0536

>  <SCORE.INTER.VDW>
-13.4747

>  <SCORE.INTER.norm>
0.0408254

>  <SCORE.INTRA>
-8.43076

>  <SCORE.INTRA.DIHEDRAL>
-18.116

>  <SCORE.INTRA.DIHEDRAL.0>
27.8999

>  <SCORE.INTRA.POLAR>
0

>  <SCORE.INTRA.POLAR.0>
0

>  <SCORE.INTRA.REPUL>
0

>  <SCORE.INTRA.REPUL.0>
0

>  <SCORE.INTRA.SOLV>
-3.231

>  <SCORE.INTRA.SOLV.lig_0>
-104.479

>  <SCORE.INTRA.VDW>
2.24274

>  <SCORE.INTRA.VDW.0>
-6.17816

>  <SCORE.INTRA.norm>
-0.200732

>  <SCORE.RESTR>
0

>  <SCORE.RESTR.CAVITY>
0

>  <SCORE.RESTR.norm>
0

>  <SCORE.SYSTEM>
0

>  <SCORE.SYSTEM.CONST>
0

>  <SCORE.SYSTEM.DIHEDRAL>
0

>  <SCORE.SYSTEM.SOLV>
0

>  <SCORE.SYSTEM.norm>
0

>  <SCORE.heavy>
42

>  <SCORE.norm>
-0.159907

>  <RMSD>
10.413

$$$$
ligand
 OpenBabel02271912133D
libRbt.so/2013.1/901 2013/11/27
 42 45  0  0  0  0  0  0  0  0999 V2000
    7.2648    1.4045    4.3210 C   0  0  2  0  0  0  0  0  0  0  0  0
    8.3903    2.2079    3.9272 O   0  0  0  0  0  0  0  0  0  0  0  0
   12.3913    2.5066    5.5699 C   0  0  2  0  0  0  0  0  0  0  0  0
   13.5398    2.7190    6.5006 N   0  0  0  0  0  0  0  0  0  0  0  0
    9.4475   -1.0483    6.2301 C   0  0  1  0  0  0  0  0  0  0  0  0
    9.2137   -5.4096    6.6250 C   0  0  1  0  0  0  0  0  0  0  0  0
    6.3445    1.2667    3.0711 C   0  0  2  0  0  0  0  0  0  0  0  0
    7.0858    0.8479    1.8687 N   0  0  0  0  0  0  0  0  0  0  0  0
   11.5949    3.8510    5.3248 C   0  0  0  0  0  0  0  0  0  0  0  0
    8.1832   -1.7630    6.7973 C   0  0  2  0  0  0  0  0  0  0  0  0
    8.0794   -1.7186    8.2417 O   0  0  0  0  0  0  0  0  0  0  0  0
    7.8536   -6.1908    6.5320 C   0  0  2  0  0  0  0  0  0  0  0  0
    7.1238   -6.1481    7.8345 N   0  0  0  0  0  0  0  0  0  0  0  0
    5.6356    2.5874    2.7189 C   0  0  1  0  0  0  0  0  0  0  0  0
    4.7742    2.4050    1.5940 O   0  0  0  0  0  0  0  0  0  0  0  0
   10.4136    3.5687    4.3211 C   0  0  2  0  0  0  0  0  0  0  0  0
    9.6502    4.8179    4.0560 N   0  0  0  0  0  0  0  0  0  0  0  0
    8.3311   -3.1574    6.1864 C   0  0  2  0  0  0  0  0  0  0  0  0
    9.0924   -4.0498    7.0609 O   0  0  0  0  0  0  0  0  0  0  0  0
    8.1413   -7.7015    6.0827 C   0  0  1  0  0  0  0  0  0  0  0  0
    8.4910   -7.7133    4.6804 O   0  0  0  0  0  0  0  0  0  0  0  0
    4.8543    3.0977    3.9511 C   0  0  2  0  0  0  0  0  0  0  0  0
    4.1857    4.2980    3.6401 O   0  0  0  0  0  0  0  0  0  0  0  0
    9.4417    2.4663    4.9009 C   0  0  2  0  0  0  0  0  0  0  0  0
    9.0436   -2.9569    4.8383 C   0  0  2  0  0  0  0  0  0  0  0  0
    9.8606   -1.8126    5.0741 O   0  0  0  0  0  0  0  0  0  0  0  0
    9.3114   -8.3911    6.9327 C   0  0  2  0  0  0  0  0  0  0  0  0
    8.8229   -8.5862    8.2593 O   0  0  0  0  0  0  0  0  0  0  0  0
    5.8537    3.3125    5.1363 C   0  0  2  0  0  0  0  0  0  0  0  0
    6.5415    2.0562    5.4336 O   0  0  0  0  0  0  0  0  0  0  0  0
   10.1637    1.1386    5.2186 C   0  0  2  0  0  0  0  0  0  0  0  0
    9.1755    0.3208    5.9035 O   0  0  0  0  0  0  0  0  0  0  0  0
    8.0956   -2.7283    3.6204 C   0  0  0  0  0  0  0  0  0  0  0  0
    7.2731   -3.8775    3.4423 O   0  0  0  0  0  0  0  0  0  0  0  0
   10.5955   -7.4785    6.9533 C   0  0  1  0  0  0  0  0  0  0  0  0
   10.1681   -6.1833    7.5102 O   0  0  0  0  0  0  0  0  0  0  0  0
    5.1709    3.8073    6.3904 C   0  0  0  0  0  0  0  0  0  0  0  0
    4.2832    2.8302    6.8768 O   0  0  0  0  0  0  0  0  0  0  0  0
   11.4176    1.4054    6.1527 C   0  0  1  0  0  0  0  0  0  0  0  0
   12.1713    0.2018    6.3225 O   0  0  0  0  0  0  0  0  0  0  0  0
   11.7990   -8.0730    7.8058 C   0  0  0  0  0  0  0  0  0  0  0  0
   11.5076   -8.3162    9.2455 N   0  0  0  0  0  0  0  0  0  0  0  0
  1  2  1  6  0  0  0
  1  7  1  0  0  0  0
  1 30  1  0  0  0  0
  3  4  1  1  0  0  0
  3  9  1  0  0  0  0
  3 39  1  0  0  0  0
  5 10  1  0  0  0  0
  5 26  1  0  0  0  0
  5 32  1  6  0  0  0
  6 12  1  0  0  0  0
  6 36  1  0  0  0  0
  6 19  1  1  0  0  0
  7  8  1  6  0  0  0
  7 14  1  0  0  0  0
  9 16  1  0  0  0  0
 10 11  1  1  0  0  0
 10 18  1  0  0  0  0
 12 13  1  1  0  0  0
 12 20  1  0  0  0  0
 14 15  1  6  0  0  0
 14 22  1  0  0  0  0
 16 17  1  1  0  0  0
 16 24  1  0  0  0  0
 18 19  1  1  0  0  0
 18 25  1  0  0  0  0
 20 21  1  6  0  0  0
 20 27  1  0  0  0  0
 22 23  1  6  0  0  0
 22 29  1  0  0  0  0
 24  2  1  6  0  0  0
 24 31  1  0  0  0  0
 25 26  1  0  0  0  0
 25 33  1  6  0  0  0
 27 28  1  1  0  0  0
 27 35  1  0  0  0  0
 29 30  1  0  0  0  0
 29 37  1  1  0  0  0
 31 32  1  1  0  0  0
 31 39  1  0  0  0  0
 33 34  1  0  0  0  0
 35 36  1  0  0  0  0
 35 41  1  1  0  0  0
 37 38  1  0  0  0  0
 39 40  1  6  0  0  0
 41 42  1  0  0  0  0
M  END
>  <CHROM.1>
-178.17804147,-169.84053282,175.95022135,-63.32810836,-61.95074587,64.78995081
173.33278324,-172.94765568,-59.58066424,8.55904765,-1.20676410,5.55696057
1.78157181,-0.31779954,-0.19669435

>  <Name>
ligand

>  <RI>
0

>  <Rbt.Current_Directory>
/home/itssahil/PROJECTS/Mol_Feturizer/Test_systems_manuscript/rnas/2o3w

>  <Rbt.Executable>
rbdock ($Id: //depot/dev/client3/rdock/2013.1/src/exe/rbdock.cxx#4 $)

>  <Rbt.Library>
libRbt.so (2013.1, Build901 2013/11/27)

>  <Rbt.Parameter_File>
/export/apps/rDock/src/rDock_2013.1_src/data/scripts/dock_solv.prm

>  <Rbt.Receptor>
prm/pocket_docking_7.prm

>  <SCORE>
-10.7326

>  <SCORE.INTER>
2.26841

>  <SCORE.INTER.CONST>
1

>  <SCORE.INTER.POLAR>
0

>  <SCORE.INTER.ROT>
9

>  <SCORE.INTER.SOLV>
9.78765

>  <SCORE.INTER.VDW>
-11.3503

>  <SCORE.INTER.norm>
0.0540097

>  <SCORE.INTRA>
-13.001

>  <SCORE.INTRA.DIHEDRAL>
-26.545

>  <SCORE.INTRA.DIHEDRAL.0>
27.8999

>  <SCORE.INTRA.POLAR>
0

>  <SCORE.INTRA.POLAR.0>
0

>  <SCORE.INTRA.REPUL>
0

>  <SCORE.INTRA.REPUL.0>
0

>  <SCORE.INTRA.SOLV>
-3.75852

>  <SCORE.INTRA.SOLV.lig_0>
-104.479

>  <SCORE.INTRA.VDW>
2.15076

>  <SCORE.INTRA.VDW.0>
-6.17816

>  <SCORE.INTRA.norm>
-0.309548

>  <SCORE.RESTR>
0

>  <SCORE.RESTR.CAVITY>
0

>  <SCORE.RESTR.norm>
0

>  <SCORE.SYSTEM>
0

>  <SCORE.SYSTEM.CONST>
0

>  <SCORE.SYSTEM.DIHEDRAL>
0

>  <SCORE.SYSTEM.SOLV>
0

>  <SCORE.SYSTEM.norm>
0

>  <SCORE.heavy>
42

>  <SCORE.norm>
-0.255538

>  <RMSD>
10.416

$$$$
ligand
 OpenBabel02271912133D
libRbt.so/2013.1/901 2013/11/27
 42 45  0  0  0  0  0  0  0  0999 V2000
    4.5328    5.8113    2.2066 C   0  0  2  0  0  0  0  0  0  0  0  0
    3.2680    6.4919    2.1415 O   0  0  0  0  0  0  0  0  0  0  0  0
    0.0487    6.3596   -0.7594 C   0  0  2  0  0  0  0  0  0  0  0  0
   -0.7268    6.4170   -2.0344 N   0  0  0  0  0  0  0  0  0  0  0  0
    3.2250    3.0195   -0.0996 C   0  0  1  0  0  0  0  0  0  0  0  0
    4.1455   -1.2923   -0.3941 C   0  0  1  0  0  0  0  0  0  0  0  0
    5.0031    5.8659    3.6912 C   0  0  2  0  0  0  0  0  0  0  0  0
    3.9542    5.4335    4.6310 N   0  0  0  0  0  0  0  0  0  0  0  0
    0.6428    7.7768   -0.3845 C   0  0  0  0  0  0  0  0  0  0  0  0
    4.5981    2.4642   -0.5866 C   0  0  2  0  0  0  0  0  0  0  0  0
    4.7647    2.4836   -2.0256 O   0  0  0  0  0  0  0  0  0  0  0  0
    5.5982   -1.8769   -0.5238 C   0  0  2  0  0  0  0  0  0  0  0  0
    6.1078   -1.7343   -1.9205 N   0  0  0  0  0  0  0  0  0  0  0  0
    5.4261    7.2835    4.1183 C   0  0  1  0  0  0  0  0  0  0  0  0
    5.8862    7.2789    5.4708 O   0  0  0  0  0  0  0  0  0  0  0  0
    1.4281    7.6572    0.9762 C   0  0  2  0  0  0  0  0  0  0  0  0
    1.9895    8.9783    1.3674 N   0  0  0  0  0  0  0  0  0  0  0  0
    4.6053    1.0792    0.0623 C   0  0  2  0  0  0  0  0  0  0  0  0
    4.0108    0.0708   -0.8154 O   0  0  0  0  0  0  0  0  0  0  0  0
    5.5928   -3.4126   -0.0671 C   0  0  1  0  0  0  0  0  0  0  0  0
    5.4662   -3.4717    1.3714 O   0  0  0  0  0  0  0  0  0  0  0  0
    6.5135    7.8097    3.1540 C   0  0  2  0  0  0  0  0  0  0  0  0
    6.9237    9.1004    3.5416 O   0  0  0  0  0  0  0  0  0  0  0  0
    2.5958    6.6001    0.8543 C   0  0  2  0  0  0  0  0  0  0  0  0
    3.8084    1.2191    1.3703 C   0  0  2  0  0  0  0  0  0  0  0  0
    2.8605    2.2382    1.0614 O   0  0  0  0  0  0  0  0  0  0  0  0
    4.4126   -4.2588   -0.7443 C   0  0  2  0  0  0  0  0  0  0  0  0
    4.7151   -4.3852   -2.1331 O   0  0  0  0  0  0  0  0  0  0  0  0
    5.9402    7.8255    1.6978 C   0  0  2  0  0  0  0  0  0  0  0  0
    5.5129    6.4777    1.3227 O   0  0  0  0  0  0  0  0  0  0  0  0
    2.0953    5.2006    0.4345 C   0  0  2  0  0  0  0  0  0  0  0  0
    3.2988    4.4208    0.1938 O   0  0  0  0  0  0  0  0  0  0  0  0
    4.6584    1.6036    2.6209 C   0  0  0  0  0  0  0  0  0  0  0  0
    3.8347    1.5567    3.7820 O   0  0  0  0  0  0  0  0  0  0  0  0
    3.0274   -3.5334   -0.5517 C   0  0  1  0  0  0  0  0  0  0  0  0
    3.1827   -2.1919   -1.1403 O   0  0  0  0  0  0  0  0  0  0  0  0
    6.9437    8.3227    0.6832 C   0  0  0  0  0  0  0  0  0  0  0  0
    7.1119    9.7138    0.8090 O   0  0  0  0  0  0  0  0  0  0  0  0
    1.2191    5.3035   -0.8836 C   0  0  1  0  0  0  0  0  0  0  0  0
    0.6322    4.0349   -1.1863 O   0  0  0  0  0  0  0  0  0  0  0  0
    1.8011   -4.2901   -1.2244 C   0  0  0  0  0  0  0  0  0  0  0  0
    0.4679   -3.6593   -1.0216 N   0  0  0  0  0  0  0  0  0  0  0  0
  1  2  1  1  0  0  0
  1  7  1  0  0  0  0
  1 30  1  0  0  0  0
  3  4  1  6  0  0  0
  3  9  1  0  0  0  0
  3 39  1  0  0  0  0
  5 10  1  0  0  0  0
  5 26  1  0  0  0  0
  5 32  1  1  0  0  0
  6 12  1  0  0  0  0
  6 36  1  0  0  0  0
  6 19  1  6  0  0  0
  7  8  1  1  0  0  0
  7 14  1  0  0  0  0
  9 16  1  0  0  0  0
 10 11  1  6  0  0  0
 10 18  1  0  0  0  0
 12 13  1  6  0  0  0
 12 20  1  0  0  0  0
 14 15  1  1  0  0  0
 14 22  1  0  0  0  0
 16 17  1  6  0  0  0
 16 24  1  0  0  0  0
 18 19  1  6  0  0  0
 18 25  1  0  0  0  0
 20 21  1  1  0  0  0
 20 27  1  0  0  0  0
 22 23  1  1  0  0  0
 22 29  1  0  0  0  0
 24  2  1  1  0  0  0
 24 31  1  0  0  0  0
 25 26  1  0  0  0  0
 25 33  1  1  0  0  0
 27 28  1  6  0  0  0
 27 35  1  0  0  0  0
 29 30  1  0  0  0  0
 29 37  1  6  0  0  0
 31 32  1  6  0  0  0
 31 39  1  0  0  0  0
 33 34  1  0  0  0  0
 35 36  1  0  0  0  0
 35 41  1  6  0  0  0
 37 38  1  0  0  0  0
 39 40  1  1  0  0  0
 41 42  1  0  0  0  0
M  END
>  <CHROM.1>
179.60170984,-166.92138834,170.99142152,-71.90766337,-173.67023092,-73.25392474
174.23328885,168.99942522,177.90132956,3.86056908,3.13838089,0.69969898,-1.51342778
0.58664761,-2.92000486

>  <Name>
ligand

>  <RI>
0

>  <Rbt.Current_Directory>
/home/itssahil/PROJECTS/Mol_Feturizer/Test_systems_manuscript/rnas/2o3w

>  <Rbt.Executable>
rbdock ($Id: //depot/dev/client3/rdock/2013.1/src/exe/rbdock.cxx#4 $)

>  <Rbt.Library>
libRbt.so (2013.1, Build901 2013/11/27)

>  <Rbt.Parameter_File>
/export/apps/rDock/src/rDock_2013.1_src/data/scripts/dock_solv.prm

>  <Rbt.Receptor>
prm/pocket_docking_7.prm

>  <SCORE>
-9.307

>  <SCORE.INTER>
3.64129

>  <SCORE.INTER.CONST>
1

>  <SCORE.INTER.POLAR>
0

>  <SCORE.INTER.ROT>
9

>  <SCORE.INTER.SOLV>
16.513

>  <SCORE.INTER.VDW>
-12.6768

>  <SCORE.INTER.norm>
0.0866974

>  <SCORE.INTRA>
-12.9602

>  <SCORE.INTRA.DIHEDRAL>
-24.3922

>  <SCORE.INTRA.DIHEDRAL.0>
27.8999

>  <SCORE.INTRA.POLAR>
0

>  <SCORE.INTRA.POLAR.0>
0

>  <SCORE.INTRA.REPUL>
0

>  <SCORE.INTRA.REPUL.0>
0

>  <SCORE.INTRA.SOLV>
-5.81517

>  <SCORE.INTRA.SOLV.lig_0>
-104.479

>  <SCORE.INTRA.VDW>
2.14351

>  <SCORE.INTRA.VDW.0>
-6.17816

>  <SCORE.INTRA.norm>
-0.308575

>  <SCORE.RESTR>
0.0118754

>  <SCORE.RESTR.CAVITY>
0.0118754

>  <SCORE.RESTR.norm>
0.000282748

>  <SCORE.SYSTEM>
0

>  <SCORE.SYSTEM.CONST>
0

>  <SCORE.SYSTEM.DIHEDRAL>
0

>  <SCORE.SYSTEM.SOLV>
0

>  <SCORE.SYSTEM.norm>
0

>  <SCORE.heavy>
42

>  <SCORE.norm>
-0.221595

>  <RMSD>
10.530

$$$$
ligand
 OpenBabel02271912133D
libRbt.so/2013.1/901 2013/11/27
 42 45  0  0  0  0  0  0  0  0999 V2000
    9.5010    1.5896    6.4737 C   0  0  2  0  0  0  0  0  0  0  0  0
   10.4741    2.4287    5.8285 O   0  0  0  0  0  0  0  0  0  0  0  0
   14.8076    2.4237    5.6999 C   0  0  2  0  0  0  0  0  0  0  0  0
   16.2472    2.3857    6.0957 N   0  0  0  0  0  0  0  0  0  0  0  0
   11.9469   -1.3219    6.1276 C   0  0  1  0  0  0  0  0  0  0  0  0
   11.0970   -5.4850    5.0941 C   0  0  1  0  0  0  0  0  0  0  0  0
    8.2056    1.6477    5.6096 C   0  0  2  0  0  0  0  0  0  0  0  0
    8.4692    1.4012    4.1812 N   0  0  0  0  0  0  0  0  0  0  0  0
   14.0904    3.7146    6.2664 C   0  0  0  0  0  0  0  0  0  0  0  0
   11.2734   -2.2958    7.1418 C   0  0  2  0  0  0  0  0  0  0  0  0
   12.1775   -2.8189    8.1458 O   0  0  0  0  0  0  0  0  0  0  0  0
    9.8426   -6.2391    5.6655 C   0  0  2  0  0  0  0  0  0  0  0  0
   10.1182   -6.7728    7.0330 N   0  0  0  0  0  0  0  0  0  0  0  0
    7.5020    3.0142    5.7026 C   0  0  1  0  0  0  0  0  0  0  0  0
    6.3014    3.0092    4.9285 O   0  0  0  0  0  0  0  0  0  0  0  0
   12.5859    3.7093    5.7983 C   0  0  2  0  0  0  0  0  0  0  0  0
   11.8830    4.9199    6.3024 N   0  0  0  0  0  0  0  0  0  0  0  0
   10.6615   -3.3317    6.1974 C   0  0  2  0  0  0  0  0  0  0  0  0
   11.5904   -4.4297    5.9287 O   0  0  0  0  0  0  0  0  0  0  0  0
    9.4306   -7.4168    4.6604 C   0  0  1  0  0  0  0  0  0  0  0  0
    8.8157   -6.8367    3.4880 O   0  0  0  0  0  0  0  0  0  0  0  0
    7.2165    3.3473    7.1847 C   0  0  2  0  0  0  0  0  0  0  0  0
    6.5573    4.5881    7.2860 O   0  0  0  0  0  0  0  0  0  0  0  0
   11.8462    2.4128    6.3158 C   0  0  2  0  0  0  0  0  0  0  0  0
   10.3073   -2.5731    4.9073 C   0  0  2  0  0  0  0  0  0  0  0  0
   11.2966   -1.5478    4.8559 O   0  0  0  0  0  0  0  0  0  0  0  0
   10.6766   -8.3226    4.2194 C   0  0  2  0  0  0  0  0  0  0  0  0
   11.0929   -9.0687    5.3624 O   0  0  0  0  0  0  0  0  0  0  0  0
    8.5691    3.3738    7.9718 C   0  0  2  0  0  0  0  0  0  0  0  0
    9.2382    2.0794    7.8437 O   0  0  0  0  0  0  0  0  0  0  0  0
   12.5264    1.1079    5.8469 C   0  0  2  0  0  0  0  0  0  0  0  0
   11.8370    0.0418    6.5559 O   0  0  0  0  0  0  0  0  0  0  0  0
    8.8696   -1.9680    4.8732 C   0  0  0  0  0  0  0  0  0  0  0  0
    7.9145   -3.0174    4.9972 O   0  0  0  0  0  0  0  0  0  0  0  0
   11.8592   -7.4236    3.6946 C   0  0  1  0  0  0  0  0  0  0  0  0
   12.1842   -6.4944    4.7906 O   0  0  0  0  0  0  0  0  0  0  0  0
    8.3824    3.6872    9.4383 C   0  0  0  0  0  0  0  0  0  0  0  0
    9.6268    3.9487   10.0404 O   0  0  0  0  0  0  0  0  0  0  0  0
   14.0676    1.1270    6.2211 C   0  0  1  0  0  0  0  0  0  0  0  0
   14.7268   -0.0091    5.6553 O   0  0  0  0  0  0  0  0  0  0  0  0
   13.1535   -8.2418    3.2657 C   0  0  0  0  0  0  0  0  0  0  0  0
   14.2625   -7.4331    2.6887 N   0  0  0  0  0  0  0  0  0  0  0  0
  1  2  1  6  0  0  0
  1  7  1  0  0  0  0
  1 30  1  0  0  0  0
  3  4  1  1  0  0  0
  3  9  1  0  0  0  0
  3 39  1  0  0  0  0
  5 10  1  0  0  0  0
  5 26  1  0  0  0  0
  5 32  1  1  0  0  0
  6 12  1  0  0  0  0
  6 36  1  0  0  0  0
  6 19  1  1  0  0  0
  7  8  1  6  0  0  0
  7 14  1  0  0  0  0
  9 16  1  0  0  0  0
 10 11  1  1  0  0  0
 10 18  1  0  0  0  0
 12 13  1  1  0  0  0
 12 20  1  0  0  0  0
 14 15  1  6  0  0  0
 14 22  1  0  0  0  0
 16 17  1  1  0  0  0
 16 24  1  0  0  0  0
 18 19  1  6  0  0  0
 18 25  1  0  0  0  0
 20 21  1  6  0  0  0
 20 27  1  0  0  0  0
 22 23  1  6  0  0  0
 22 29  1  0  0  0  0
 24  2  1  6  0  0  0
 24 31  1  0  0  0  0
 25 26  1  0  0  0  0
 25 33  1  1  0  0  0
 27 28  1  1  0  0  0
 27 35  1  0  0  0  0
 29 30  1  0  0  0  0
 29 37  1  1  0  0  0
 31 32  1  1  0  0  0
 31 39  1  0  0  0  0
 33 34  1  0  0  0  0
 35 36  1  0  0  0  0
 35 41  1  1  0  0  0
 37 38  1  0  0  0  0
 39 40  1  6  0  0  0
 41 42  1  0  0  0  0
M  END
>  <CHROM.1>
-171.31909053,-161.65159666,177.64885356,-60.87297437,-60.50764515,-168.85247454
163.49862993,172.79003930,176.51386168,10.76895828,-1.13031857,5.87976000
1.69047440,0.06582735,0.21117546

>  <Name>
ligand

>  <RI>
0

>  <Rbt.Current_Directory>
/home/itssahil/PROJECTS/Mol_Feturizer/Test_systems_manuscript/rnas/2o3w

>  <Rbt.Executable>
rbdock ($Id: //depot/dev/client3/rdock/2013.1/src/exe/rbdock.cxx#4 $)

>  <Rbt.Library>
libRbt.so (2013.1, Build901 2013/11/27)

>  <Rbt.Parameter_File>
/export/apps/rDock/src/rDock_2013.1_src/data/scripts/dock_solv.prm

>  <Rbt.Receptor>
prm/pocket_docking_8.prm

>  <SCORE>
-11.2672

>  <SCORE.INTER>
1.7397

>  <SCORE.INTER.CONST>
1

>  <SCORE.INTER.POLAR>
0

>  <SCORE.INTER.ROT>
9

>  <SCORE.INTER.SOLV>
5.97571

>  <SCORE.INTER.VDW>
-10.4321

>  <SCORE.INTER.norm>
0.0414214

>  <SCORE.INTRA>
-13.0069

>  <SCORE.INTRA.DIHEDRAL>
-23.8295

>  <SCORE.INTRA.DIHEDRAL.0>
27.8999

>  <SCORE.INTRA.POLAR>
0

>  <SCORE.INTRA.POLAR.0>
0

>  <SCORE.INTRA.REPUL>
0

>  <SCORE.INTRA.REPUL.0>
0

>  <SCORE.INTRA.SOLV>
-4.94247

>  <SCORE.INTRA.SOLV.lig_0>
-104.479

>  <SCORE.INTRA.VDW>
1.37912

>  <SCORE.INTRA.VDW.0>
-6.17816

>  <SCORE.INTRA.norm>
-0.309687

>  <SCORE.RESTR>
0

>  <SCORE.RESTR.CAVITY>
0

>  <SCORE.RESTR.norm>
0

>  <SCORE.SYSTEM>
0

>  <SCORE.SYSTEM.CONST>
0

>  <SCORE.SYSTEM.DIHEDRAL>
0

>  <SCORE.SYSTEM.SOLV>
0

>  <SCORE.SYSTEM.norm>
0

>  <SCORE.heavy>
42

>  <SCORE.norm>
-0.268266

>  <RMSD>
10.651

$$$$
ligand
 OpenBabel02271912133D
libRbt.so/2013.1/901 2013/11/27
 42 45  0  0  0  0  0  0  0  0999 V2000
    5.4813    2.0824    2.0388 C   0  0  2  0  0  0  0  0  0  0  0  0
    6.3702    1.0468    2.4912 O   0  0  0  0  0  0  0  0  0  0  0  0
    8.9823    0.8398    5.9452 C   0  0  2  0  0  0  0  0  0  0  0  0
    9.4919    0.7860    7.3480 N   0  0  0  0  0  0  0  0  0  0  0  0
    6.5207   -2.7095    4.1501 C   0  0  1  0  0  0  0  0  0  0  0  0
    6.5712   -6.9853    3.3111 C   0  0  1  0  0  0  0  0  0  0  0  0
    4.0564    1.7150    2.5514 C   0  0  2  0  0  0  0  0  0  0  0  0
    4.0404    1.3912    3.9886 N   0  0  0  0  0  0  0  0  0  0  0  0
    8.2646    2.2175    5.6477 C   0  0  0  0  0  0  0  0  0  0  0  0
    5.1953   -3.5143    3.9870 C   0  0  2  0  0  0  0  0  0  0  0  0
    4.5499   -3.8471    5.2407 O   0  0  0  0  0  0  0  0  0  0  0  0
    5.5044   -7.6549    2.3716 C   0  0  2  0  0  0  0  0  0  0  0  0
    4.2559   -7.9758    3.1258 N   0  0  0  0  0  0  0  0  0  0  0  0
    3.4661    0.4984    1.8149 C   0  0  1  0  0  0  0  0  0  0  0  0
    2.1467    0.2225    2.2881 O   0  0  0  0  0  0  0  0  0  0  0  0
    7.7704    2.2229    4.1516 C   0  0  2  0  0  0  0  0  0  0  0  0
    7.1017    3.5130    3.8322 N   0  0  0  0  0  0  0  0  0  0  0  0
    5.6708   -4.7033    3.1508 C   0  0  2  0  0  0  0  0  0  0  0  0
    6.1117   -5.8134    3.9959 O   0  0  0  0  0  0  0  0  0  0  0  0
    6.1334   -8.9727    1.7123 C   0  0  1  0  0  0  0  0  0  0  0  0
    7.0903   -8.5792    0.7031 O   0  0  0  0  0  0  0  0  0  0  0  0
    3.4757    0.7631    0.2920 C   0  0  2  0  0  0  0  0  0  0  0  0
    2.9228   -0.3349   -0.3958 O   0  0  0  0  0  0  0  0  0  0  0  0
    6.7697    1.0284    3.8913 C   0  0  2  0  0  0  0  0  0  0  0  0
    6.8224   -4.1755    2.2787 C   0  0  2  0  0  0  0  0  0  0  0  0
    7.3983   -3.1549    3.0906 O   0  0  0  0  0  0  0  0  0  0  0  0
    6.8472   -9.9250    2.7853 C   0  0  2  0  0  0  0  0  0  0  0  0
    5.8263  -10.4884    3.6079 O   0  0  0  0  0  0  0  0  0  0  0  0
    4.9479    1.0220   -0.1719 C   0  0  2  0  0  0  0  0  0  0  0  0
    5.5023    2.1591    0.5625 O   0  0  0  0  0  0  0  0  0  0  0  0
    7.3856   -0.3503    4.2156 C   0  0  2  0  0  0  0  0  0  0  0  0
    6.2871   -1.2960    4.0999 O   0  0  0  0  0  0  0  0  0  0  0  0
    6.3908   -3.6111    0.8897 C   0  0  0  0  0  0  0  0  0  0  0  0
    7.5489   -3.2069    0.1656 O   0  0  0  0  0  0  0  0  0  0  0  0
    7.8658   -9.1058    3.6648 C   0  0  1  0  0  0  0  0  0  0  0  0
    7.0883   -8.0206    4.2877 O   0  0  0  0  0  0  0  0  0  0  0  0
    5.0504    1.2976   -1.6542 C   0  0  0  0  0  0  0  0  0  0  0  0
    4.3574    2.4787   -1.9769 O   0  0  0  0  0  0  0  0  0  0  0  0
    7.9784   -0.3543    5.6868 C   0  0  1  0  0  0  0  0  0  0  0  0
    8.6805   -1.5759    5.9325 O   0  0  0  0  0  0  0  0  0  0  0  0
    8.5972   -9.9692    4.7820 C   0  0  0  0  0  0  0  0  0  0  0  0
    9.4949  -11.0444    4.2775 N   0  0  0  0  0  0  0  0  0  0  0  0
  1  2  1  6  0  0  0
  1  7  1  0  0  0  0
  1 30  1  0  0  0  0
  3  4  1  1  0  0  0
  3  9  1  0  0  0  0
  3 39  1  0  0  0  0
  5 10  1  0  0  0  0
  5 26  1  0  0  0  0
  5 32  1  6  0  0  0
  6 12  1  0  0  0  0
  6 36  1  0  0  0  0
  6 19  1  1  0  0  0
  7  8  1  1  0  0  0
  7 14  1  0  0  0  0
  9 16  1  0  0  0  0
 10 11  1  1  0  0  0
 10 18  1  0  0  0  0
 12 13  1  1  0  0  0
 12 20  1  0  0  0  0
 14 15  1  1  0  0  0
 14 22  1  0  0  0  0
 16 17  1  1  0  0  0
 16 24  1  0  0  0  0
 18 19  1  1  0  0  0
 18 25  1  0  0  0  0
 20 21  1  6  0  0  0
 20 27  1  0  0  0  0
 22 23  1  6  0  0  0
 22 29  1  0  0  0  0
 24  2  1  6  0  0  0
 24 31  1  0  0  0  0
 25 26  1  0  0  0  0
 25 33  1  6  0  0  0
 27 28  1  1  0  0  0
 27 35  1  0  0  0  0
 29 30  1  0  0  0  0
 29 37  1  6  0  0  0
 31 32  1  1  0  0  0
 31 39  1  0  0  0  0
 33 34  1  0  0  0  0
 35 36  1  0  0  0  0
 35 41  1  1  0  0  0
 37 38  1  0  0  0  0
 39 40  1  6  0  0  0
 41 42  1  0  0  0  0
M  END
>  <CHROM.1>
-75.56824927,-72.00000991,179.63274223,-59.80878759,-177.72797416,63.31348214
171.21724486,-179.28802267,64.82761762,6.22211632,-2.68283912,2.92899526
1.79326985,-0.94731814,0.07960533

>  <Name>
ligand

>  <RI>
0

>  <Rbt.Current_Directory>
/home/itssahil/PROJECTS/Mol_Feturizer/Test_systems_manuscript/rnas/2o3w

>  <Rbt.Executable>
rbdock ($Id: //depot/dev/client3/rdock/2013.1/src/exe/rbdock.cxx#4 $)

>  <Rbt.Library>
libRbt.so (2013.1, Build901 2013/11/27)

>  <Rbt.Parameter_File>
/export/apps/rDock/src/rDock_2013.1_src/data/scripts/dock_solv.prm

>  <Rbt.Receptor>
prm/pocket_docking_8.prm

>  <SCORE>
-4.02255

>  <SCORE.INTER>
6.6041

>  <SCORE.INTER.CONST>
1

>  <SCORE.INTER.POLAR>
0

>  <SCORE.INTER.ROT>
9

>  <SCORE.INTER.SOLV>
8.54167

>  <SCORE.INTER.VDW>
-8.04449

>  <SCORE.INTER.norm>
0.15724

>  <SCORE.INTRA>
-10.6267

>  <SCORE.INTRA.DIHEDRAL>
-25.4179

>  <SCORE.INTRA.DIHEDRAL.0>
27.8999

>  <SCORE.INTRA.POLAR>
0

>  <SCORE.INTRA.POLAR.0>
0

>  <SCORE.INTRA.REPUL>
0

>  <SCORE.INTRA.REPUL.0>
0

>  <SCORE.INTRA.SOLV>
-1.57579

>  <SCORE.INTRA.SOLV.lig_0>
-104.479

>  <SCORE.INTRA.VDW>
2.8702

>  <SCORE.INTRA.VDW.0>
-6.17816

>  <SCORE.INTRA.norm>
-0.253016

>  <SCORE.RESTR>
0

>  <SCORE.RESTR.CAVITY>
0

>  <SCORE.RESTR.norm>
0

>  <SCORE.SYSTEM>
0

>  <SCORE.SYSTEM.CONST>
0

>  <SCORE.SYSTEM.DIHEDRAL>
0

>  <SCORE.SYSTEM.SOLV>
0

>  <SCORE.SYSTEM.norm>
0

>  <SCORE.heavy>
42

>  <SCORE.norm>
-0.0957751

>  <RMSD>
10.692

$$$$
ligand
 OpenBabel02271912133D
libRbt.so/2013.1/901 2013/11/27
 42 45  0  0  0  0  0  0  0  0999 V2000
    2.9656    8.4153    1.3426 C   0  0  2  0  0  0  0  0  0  0  0  0
    3.2474    7.4895    0.2792 O   0  0  0  0  0  0  0  0  0  0  0  0
   -0.8410    6.7559   -0.9631 C   0  0  2  0  0  0  0  0  0  0  0  0
   -2.0409    6.2761   -1.7117 N   0  0  0  0  0  0  0  0  0  0  0  0
    1.7368    3.5208    0.7269 C   0  0  1  0  0  0  0  0  0  0  0  0
    1.4009   -0.7348    1.7913 C   0  0  1  0  0  0  0  0  0  0  0  0
    4.3195    9.0756    1.7415 C   0  0  2  0  0  0  0  0  0  0  0  0
    5.0608    9.5899    0.5768 N   0  0  0  0  0  0  0  0  0  0  0  0
    0.0299    7.7393   -1.8441 C   0  0  0  0  0  0  0  0  0  0  0  0
    2.6481    2.4217    0.1005 C   0  0  2  0  0  0  0  0  0  0  0  0
    2.2513    2.0167   -1.2328 O   0  0  0  0  0  0  0  0  0  0  0  0
    0.6211   -1.9618    1.1953 C   0  0  2  0  0  0  0  0  0  0  0  0
   -0.7559   -1.5650    0.7740 N   0  0  0  0  0  0  0  0  0  0  0  0
    5.2573    8.0934    2.4672 C   0  0  1  0  0  0  0  0  0  0  0  0
    6.4671    8.7505    2.8486 O   0  0  0  0  0  0  0  0  0  0  0  0
    1.2644    8.2272   -0.9954 C   0  0  2  0  0  0  0  0  0  0  0  0
    2.0996    9.1676   -1.7902 N   0  0  0  0  0  0  0  0  0  0  0  0
    2.5786    1.3323    1.1718 C   0  0  2  0  0  0  0  0  0  0  0  0
    1.4757    0.4034    0.9238 O   0  0  0  0  0  0  0  0  0  0  0  0
    0.5738   -3.1371    2.2831 C   0  0  1  0  0  0  0  0  0  0  0  0
    1.8837   -3.7408    2.3758 O   0  0  0  0  0  0  0  0  0  0  0  0
    4.5293    7.4954    3.6926 C   0  0  2  0  0  0  0  0  0  0  0  0
    5.3805    6.6063    4.3778 O   0  0  0  0  0  0  0  0  0  0  0  0
    2.1433    6.9984   -0.5333 C   0  0  2  0  0  0  0  0  0  0  0  0
    2.3991    2.0655    2.5118 C   0  0  2  0  0  0  0  0  0  0  0  0
    1.6720    3.2350    2.1429 O   0  0  0  0  0  0  0  0  0  0  0  0
    0.1153   -2.6265    3.7311 C   0  0  2  0  0  0  0  0  0  0  0  0
   -1.2648   -2.2733    3.6464 O   0  0  0  0  0  0  0  0  0  0  0  0
    3.2352    6.7599    3.2089 C   0  0  2  0  0  0  0  0  0  0  0  0
    2.3733    7.7004    2.4932 O   0  0  0  0  0  0  0  0  0  0  0  0
    1.3421    5.9641    0.2875 C   0  0  2  0  0  0  0  0  0  0  0  0
    2.2427    4.8361    0.4637 O   0  0  0  0  0  0  0  0  0  0  0  0
    3.7270    2.4371    3.2418 C   0  0  0  0  0  0  0  0  0  0  0  0
    4.4118    1.2434    3.6092 O   0  0  0  0  0  0  0  0  0  0  0  0
    0.9704   -1.3809    4.1777 C   0  0  1  0  0  0  0  0  0  0  0  0
    0.7916   -0.3638    3.1270 O   0  0  0  0  0  0  0  0  0  0  0  0
    2.4541    6.1475    4.3485 C   0  0  0  0  0  0  0  0  0  0  0  0
    3.2612    5.2381    5.0561 O   0  0  0  0  0  0  0  0  0  0  0  0
    0.0395    5.5253   -0.5039 C   0  0  1  0  0  0  0  0  0  0  0  0
   -0.7774    4.6861    0.3171 O   0  0  0  0  0  0  0  0  0  0  0  0
    0.5582   -0.7865    5.5938 C   0  0  0  0  0  0  0  0  0  0  0  0
    0.6026   -1.7466    6.7308 N   0  0  0  0  0  0  0  0  0  0  0  0
  1  2  1  6  0  0  0
  1  7  1  0  0  0  0
  1 30  1  0  0  0  0
  3  4  1  6  0  0  0
  3  9  1  0  0  0  0
  3 39  1  0  0  0  0
  5 10  1  0  0  0  0
  5 26  1  0  0  0  0
  5 32  1  1  0  0  0
  6 12  1  0  0  0  0
  6 36  1  0  0  0  0
  6 19  1  6  0  0  0
  7  8  1  6  0  0  0
  7 14  1  0  0  0  0
  9 16  1  0  0  0  0
 10 11  1  6  0  0  0
 10 18  1  0  0  0  0
 12 13  1  1  0  0  0
 12 20  1  0  0  0  0
 14 15  1  1  0  0  0
 14 22  1  0  0  0  0
 16 17  1  6  0  0  0
 16 24  1  0  0  0  0
 18 19  1  6  0  0  0
 18 25  1  0  0  0  0
 20 21  1  1  0  0  0
 20 27  1  0  0  0  0
 22 23  1  6  0  0  0
 22 29  1  0  0  0  0
 24  2  1  1  0  0  0
 24 31  1  0  0  0  0
 25 26  1  0  0  0  0
 25 33  1  6  0  0  0
 27 28  1  6  0  0  0
 27 35  1  0  0  0  0
 29 30  1  0  0  0  0
 29 37  1  1  0  0  0
 31 32  1  6  0  0  0
 31 39  1  0  0  0  0
 33 34  1  0  0  0  0
 35 36  1  0  0  0  0
 35 41  1  1  0  0  0
 37 38  1  0  0  0  0
 39 40  1  1  0  0  0
 41 42  1  0  0  0  0
M  END
>  <CHROM.1>
-163.54184318,48.58519987,173.92076336,-156.89595126,-64.36854564,-58.03447000
-156.73987811,147.33349582,56.66326431,1.98286814,3.68760397,1.78613807,-1.22197371
0.84027459,2.66569981

>  <Name>
ligand

>  <RI>
0

>  <Rbt.Current_Directory>
/home/itssahil/PROJECTS/Mol_Feturizer/Test_systems_manuscript/rnas/2o3w

>  <Rbt.Executable>
rbdock ($Id: //depot/dev/client3/rdock/2013.1/src/exe/rbdock.cxx#4 $)

>  <Rbt.Library>
libRbt.so (2013.1, Build901 2013/11/27)

>  <Rbt.Parameter_File>
/export/apps/rDock/src/rDock_2013.1_src/data/scripts/dock_solv.prm

>  <Rbt.Receptor>
prm/pocket_docking_7.prm

>  <SCORE>
-11.4196

>  <SCORE.INTER>
-3.48297

>  <SCORE.INTER.CONST>
1

>  <SCORE.INTER.POLAR>
0

>  <SCORE.INTER.ROT>
9

>  <SCORE.INTER.SOLV>
15.3357

>  <SCORE.INTER.VDW>
-17.0339

>  <SCORE.INTER.norm>
-0.0829279

>  <SCORE.INTRA>
-7.93664

>  <SCORE.INTRA.DIHEDRAL>
-16.8246

>  <SCORE.INTRA.DIHEDRAL.0>
27.8999

>  <SCORE.INTRA.POLAR>
0

>  <SCORE.INTRA.POLAR.0>
0

>  <SCORE.INTRA.REPUL>
0

>  <SCORE.INTRA.REPUL.0>
0

>  <SCORE.INTRA.SOLV>
-3.5826

>  <SCORE.INTRA.SOLV.lig_0>
-104.479

>  <SCORE.INTRA.VDW>
2.26696

>  <SCORE.INTRA.VDW.0>
-6.17816

>  <SCORE.INTRA.norm>
-0.188968

>  <SCORE.RESTR>
0

>  <SCORE.RESTR.CAVITY>
0

>  <SCORE.RESTR.norm>
0

>  <SCORE.SYSTEM>
0

>  <SCORE.SYSTEM.CONST>
0

>  <SCORE.SYSTEM.DIHEDRAL>
0

>  <SCORE.SYSTEM.SOLV>
0

>  <SCORE.SYSTEM.norm>
0

>  <SCORE.heavy>
42

>  <SCORE.norm>
-0.271896

>  <RMSD>
11.051

$$$$
ligand
 OpenBabel02271912133D
libRbt.so/2013.1/901 2013/11/27
 42 45  0  0  0  0  0  0  0  0999 V2000
    4.4356    9.6188   -2.6172 C   0  0  2  0  0  0  0  0  0  0  0  0
    3.0841    9.4500   -3.0779 O   0  0  0  0  0  0  0  0  0  0  0  0
    1.0567    6.0100   -4.7670 C   0  0  2  0  0  0  0  0  0  0  0  0
    0.6882    4.8598   -5.6453 N   0  0  0  0  0  0  0  0  0  0  0  0
    4.9464    5.9486   -2.1244 C   0  0  1  0  0  0  0  0  0  0  0  0
    7.4192    3.8258    0.8407 C   0  0  1  0  0  0  0  0  0  0  0  0
    4.4111   10.7414   -1.5368 C   0  0  2  0  0  0  0  0  0  0  0  0
    3.3723   10.5190   -0.5161 N   0  0  0  0  0  0  0  0  0  0  0  0
    0.9445    7.3837   -5.5429 C   0  0  0  0  0  0  0  0  0  0  0  0
    6.5001    5.8628   -2.2215 C   0  0  2  0  0  0  0  0  0  0  0  0
    6.9778    4.8783   -3.1710 O   0  0  0  0  0  0  0  0  0  0  0  0
    8.9509    4.1019    1.0562 C   0  0  2  0  0  0  0  0  0  0  0  0
    9.7684    3.4194    0.0089 N   0  0  0  0  0  0  0  0  0  0  0  0
    4.1473   12.1314   -2.1444 C   0  0  1  0  0  0  0  0  0  0  0  0
    4.1730   13.1326   -1.1257 O   0  0  0  0  0  0  0  0  0  0  0  0
    1.3225    8.5567   -4.5612 C   0  0  2  0  0  0  0  0  0  0  0  0
    1.2135    9.8680   -5.2555 N   0  0  0  0  0  0  0  0  0  0  0  0
    6.8755    5.6104   -0.7604 C   0  0  2  0  0  0  0  0  0  0  0  0
    6.9256    4.1799   -0.4573 O   0  0  0  0  0  0  0  0  0  0  0  0
    9.3742    3.6172    2.5234 C   0  0  1  0  0  0  0  0  0  0  0  0
    8.8499    4.5515    3.4935 O   0  0  0  0  0  0  0  0  0  0  0  0
    5.1930   12.4197   -3.2456 C   0  0  2  0  0  0  0  0  0  0  0  0
    4.9753   13.6961   -3.8006 O   0  0  0  0  0  0  0  0  0  0  0  0
    2.7909    8.3696   -4.0092 C   0  0  2  0  0  0  0  0  0  0  0  0
    5.8032    6.3213    0.0823 C   0  0  2  0  0  0  0  0  0  0  0  0
    4.6422    6.2410   -0.7413 O   0  0  0  0  0  0  0  0  0  0  0  0
    8.8533    2.1409    2.8651 C   0  0  2  0  0  0  0  0  0  0  0  0
    9.5855    1.2262    2.0505 O   0  0  0  0  0  0  0  0  0  0  0  0
    5.0922   11.3130   -4.3477 C   0  0  2  0  0  0  0  0  0  0  0  0
    5.3120    9.9980   -3.7458 O   0  0  0  0  0  0  0  0  0  0  0  0
    2.9913    7.0200   -3.2857 C   0  0  2  0  0  0  0  0  0  0  0  0
    4.4178    6.9398   -3.0150 O   0  0  0  0  0  0  0  0  0  0  0  0
    6.1295    7.8021    0.4494 C   0  0  0  0  0  0  0  0  0  0  0  0
    7.3286    7.8432    1.2171 O   0  0  0  0  0  0  0  0  0  0  0  0
    7.3099    2.0149    2.5746 C   0  0  1  0  0  0  0  0  0  0  0  0
    7.1298    2.3735    1.1571 O   0  0  0  0  0  0  0  0  0  0  0  0
    6.0884   11.5138   -5.4662 C   0  0  0  0  0  0  0  0  0  0  0  0
    5.9017   10.5384   -6.4627 O   0  0  0  0  0  0  0  0  0  0  0  0
    2.5278    5.8233   -4.2177 C   0  0  1  0  0  0  0  0  0  0  0  0
    2.5707    4.5898   -3.4950 O   0  0  0  0  0  0  0  0  0  0  0  0
    6.7141    0.5676    2.8553 C   0  0  0  0  0  0  0  0  0  0  0  0
    7.3353   -0.5435    2.0833 N   0  0  0  0  0  0  0  0  0  0  0  0
  1  2  1  6  0  0  0
  1  7  1  0  0  0  0
  1 30  1  0  0  0  0
  3  4  1  6  0  0  0
  3  9  1  0  0  0  0
  3 39  1  0  0  0  0
  5 10  1  0  0  0  0
  5 26  1  0  0  0  0
  5 32  1  6  0  0  0
  6 12  1  0  0  0  0
  6 36  1  0  0  0  0
  6 19  1  6  0  0  0
  7  8  1  1  0  0  0
  7 14  1  0  0  0  0
  9 16  1  0  0  0  0
 10 11  1  6  0  0  0
 10 18  1  0  0  0  0
 12 13  1  6  0  0  0
 12 20  1  0  0  0  0
 14 15  1  1  0  0  0
 14 22  1  0  0  0  0
 16 17  1  6  0  0  0
 16 24  1  0  0  0  0
 18 19  1  6  0  0  0
 18 25  1  0  0  0  0
 20 21  1  1  0  0  0
 20 27  1  0  0  0  0
 22 23  1  6  0  0  0
 22 29  1  0  0  0  0
 24  2  1  1  0  0  0
 24 31  1  0  0  0  0
 25 26  1  0  0  0  0
 25 33  1  6  0  0  0
 27 28  1  6  0  0  0
 27 35  1  0  0  0  0
 29 30  1  0  0  0  0
 29 37  1  6  0  0  0
 31 32  1  6  0  0  0
 31 39  1  0  0  0  0
 33 34  1  0  0  0  0
 35 36  1  0  0  0  0
 35 41  1  6  0  0  0
 37 38  1  0  0  0  0
 39 40  1  1  0  0  0
 41 42  1  0  0  0  0
M  END
>  <CHROM.1>
-174.31609341,-169.74325727,172.97230935,-68.90744807,-60.79163492,-176.61301051
167.66713327,168.06976393,-58.61429039,5.36255626,6.83162136,-1.61788005
-2.19553336,0.75844968,2.95855820

>  <Name>
ligand

>  <RI>
0

>  <Rbt.Current_Directory>
/home/itssahil/PROJECTS/Mol_Feturizer/Test_systems_manuscript/rnas/2o3w

>  <Rbt.Executable>
rbdock ($Id: //depot/dev/client3/rdock/2013.1/src/exe/rbdock.cxx#4 $)

>  <Rbt.Library>
libRbt.so (2013.1, Build901 2013/11/27)

>  <Rbt.Parameter_File>
/export/apps/rDock/src/rDock_2013.1_src/data/scripts/dock_solv.prm

>  <Rbt.Receptor>
prm/pocket_docking_8.prm

>  <SCORE>
-11.4142

>  <SCORE.INTER>
1.33681

>  <SCORE.INTER.CONST>
1

>  <SCORE.INTER.POLAR>
0

>  <SCORE.INTER.ROT>
9

>  <SCORE.INTER.SOLV>
18.401

>  <SCORE.INTER.VDW>
-14.8425

>  <SCORE.INTER.norm>
0.0318288

>  <SCORE.INTRA>
-12.751

>  <SCORE.INTRA.DIHEDRAL>
-25.0132

>  <SCORE.INTRA.DIHEDRAL.0>
27.8999

>  <SCORE.INTRA.POLAR>
0

>  <SCORE.INTRA.POLAR.0>
0

>  <SCORE.INTRA.REPUL>
0

>  <SCORE.INTRA.REPUL.0>
0

>  <SCORE.INTRA.SOLV>
-4.16867

>  <SCORE.INTRA.SOLV.lig_0>
-104.479

>  <SCORE.INTRA.VDW>
1.83991

>  <SCORE.INTRA.VDW.0>
-6.17816

>  <SCORE.INTRA.norm>
-0.303596

>  <SCORE.RESTR>
0

>  <SCORE.RESTR.CAVITY>
0

>  <SCORE.RESTR.norm>
0

>  <SCORE.SYSTEM>
0

>  <SCORE.SYSTEM.CONST>
0

>  <SCORE.SYSTEM.DIHEDRAL>
0

>  <SCORE.SYSTEM.SOLV>
0

>  <SCORE.SYSTEM.norm>
0

>  <SCORE.heavy>
42

>  <SCORE.norm>
-0.271767

>  <RMSD>
11.873

$$$$
ligand
 OpenBabel02271912133D
libRbt.so/2013.1/901 2013/11/27
 42 45  0  0  0  0  0  0  0  0999 V2000
    4.4203   -1.9091   14.1233 C   0  0  2  0  0  0  0  0  0  0  0  0
    3.3828   -2.5283   14.9028 O   0  0  0  0  0  0  0  0  0  0  0  0
    1.0528   -1.8129   18.4882 C   0  0  2  0  0  0  0  0  0  0  0  0
    0.5171   -1.2114   19.7459 N   0  0  0  0  0  0  0  0  0  0  0  0
    0.6830    0.7828   14.8807 C   0  0  1  0  0  0  0  0  0  0  0  0
   -1.6005    4.3491   13.3622 C   0  0  1  0  0  0  0  0  0  0  0  0
    4.8335   -2.9312   13.0221 C   0  0  2  0  0  0  0  0  0  0  0  0
    3.6740   -3.4744   12.2934 N   0  0  0  0  0  0  0  0  0  0  0  0
    2.5548   -2.2753   18.6676 C   0  0  0  0  0  0  0  0  0  0  0  0
    1.2260    1.9905   14.0575 C   0  0  2  0  0  0  0  0  0  0  0  0
    1.8906    2.9984   14.8584 O   0  0  0  0  0  0  0  0  0  0  0  0
   -2.0941    5.6058   14.1657 C   0  0  2  0  0  0  0  0  0  0  0  0
   -2.8043    5.1956   15.4140 N   0  0  0  0  0  0  0  0  0  0  0  0
    5.5993   -4.1354   13.6004 C   0  0  1  0  0  0  0  0  0  0  0  0
    5.9921   -5.0244   12.5534 O   0  0  0  0  0  0  0  0  0  0  0  0
    3.0548   -2.9196   17.3194 C   0  0  2  0  0  0  0  0  0  0  0  0
    4.4628   -3.3800   17.4570 N   0  0  0  0  0  0  0  0  0  0  0  0
   -0.0404    2.4493   13.3329 C   0  0  2  0  0  0  0  0  0  0  0  0
   -0.7723    3.4499   14.1100 O   0  0  0  0  0  0  0  0  0  0  0  0
   -3.0435    6.4931   13.2286 C   0  0  1  0  0  0  0  0  0  0  0  0
   -2.2282    7.1731   12.2478 O   0  0  0  0  0  0  0  0  0  0  0  0
    6.8216   -3.6326   14.4019 C   0  0  2  0  0  0  0  0  0  0  0  0
    7.5430   -4.7240   14.9241 O   0  0  0  0  0  0  0  0  0  0  0  0
    2.9500   -1.8812   16.1334 C   0  0  2  0  0  0  0  0  0  0  0  0
   -0.8871    1.1840   13.1154 C   0  0  2  0  0  0  0  0  0  0  0  0
   -0.5442    0.3718   14.2358 O   0  0  0  0  0  0  0  0  0  0  0  0
   -4.1673    5.6272   12.4838 C   0  0  2  0  0  0  0  0  0  0  0  0
   -5.0945    5.1823   13.4732 O   0  0  0  0  0  0  0  0  0  0  0  0
    6.3264   -2.6951   15.5533 C   0  0  2  0  0  0  0  0  0  0  0  0
    5.5730   -1.5764   14.9871 O   0  0  0  0  0  0  0  0  0  0  0  0
    1.5167   -1.3413   15.9349 C   0  0  2  0  0  0  0  0  0  0  0  0
    1.6412   -0.2814   14.9472 O   0  0  0  0  0  0  0  0  0  0  0  0
   -0.6168    0.4336   11.7745 C   0  0  0  0  0  0  0  0  0  0  0  0
   -1.5481   -0.6354   11.6376 O   0  0  0  0  0  0  0  0  0  0  0  0
   -3.5213    4.3932   11.7478 C   0  0  1  0  0  0  0  0  0  0  0  0
   -2.8009    3.6309   12.7823 O   0  0  0  0  0  0  0  0  0  0  0  0
    7.4620   -2.1500   16.3882 C   0  0  0  0  0  0  0  0  0  0  0  0
    6.9551   -1.4519   17.4995 O   0  0  0  0  0  0  0  0  0  0  0  0
    0.9504   -0.7716   17.3026 C   0  0  1  0  0  0  0  0  0  0  0  0
   -0.4260   -0.4119   17.1551 O   0  0  0  0  0  0  0  0  0  0  0  0
   -4.5726    3.4574   11.0077 C   0  0  0  0  0  0  0  0  0  0  0  0
   -5.6849    2.9458   11.8548 N   0  0  0  0  0  0  0  0  0  0  0  0
  1  2  1  1  0  0  0
  1  7  1  0  0  0  0
  1 30  1  0  0  0  0
  3  4  1  1  0  0  0
  3  9  1  0  0  0  0
  3 39  1  0  0  0  0
  5 10  1  0  0  0  0
  5 26  1  0  0  0  0
  5 32  1  6  0  0  0
  6 12  1  0  0  0  0
  6 36  1  0  0  0  0
  6 19  1  1  0  0  0
  7  8  1  1  0  0  0
  7 14  1  0  0  0  0
  9 16  1  0  0  0  0
 10 11  1  1  0  0  0
 10 18  1  0  0  0  0
 12 13  1  1  0  0  0
 12 20  1  0  0  0  0
 14 15  1  6  0  0  0
 14 22  1  0  0  0  0
 16 17  1  1  0  0  0
 16 24  1  0  0  0  0
 18 19  1  1  0  0  0
 18 25  1  0  0  0  0
 20 21  1  6  0  0  0
 20 27  1  0  0  0  0
 22 23  1  1  0  0  0
 22 29  1  0  0  0  0
 24  2  1  6  0  0  0
 24 31  1  0  0  0  0
 25 26  1  0  0  0  0
 25 33  1  6  0  0  0
 27 28  1  1  0  0  0
 27 35  1  0  0  0  0
 29 30  1  0  0  0  0
 29 37  1  6  0  0  0
 31 32  1  6  0  0  0
 31 39  1  0  0  0  0
 33 34  1  0  0  0  0
 35 36  1  0  0  0  0
 35 41  1  1  0  0  0
 37 38  1  0  0  0  0
 39 40  1  6  0  0  0
 41 42  1  0  0  0  0
M  END
>  <CHROM.1>
170.54997702,-125.93625984,154.26138421,-166.10830661,-174.40053432,-172.82288201
-155.16441047,163.39768243,-54.47891089,1.16576736,0.34724396,14.54069457
-0.21288108,0.73181752,-1.58253630

>  <Name>
ligand

>  <RI>
0

>  <Rbt.Current_Directory>
/home/itssahil/PROJECTS/Mol_Feturizer/Test_systems_manuscript/rnas/2o3w

>  <Rbt.Executable>
rbdock ($Id: //depot/dev/client3/rdock/2013.1/src/exe/rbdock.cxx#4 $)

>  <Rbt.Library>
libRbt.so (2013.1, Build901 2013/11/27)

>  <Rbt.Parameter_File>
/export/apps/rDock/src/rDock_2013.1_src/data/scripts/dock_solv.prm

>  <Rbt.Receptor>
prm/blind_docking_40.prm

>  <SCORE>
22.1918

>  <SCORE.INTER>
6.38472

>  <SCORE.INTER.CONST>
1

>  <SCORE.INTER.POLAR>
0

>  <SCORE.INTER.ROT>
9

>  <SCORE.INTER.SOLV>
26.8818

>  <SCORE.INTER.VDW>
-14.3041

>  <SCORE.INTER.norm>
0.152017

>  <SCORE.INTRA>
-4.39679

>  <SCORE.INTRA.DIHEDRAL>
-12.3523

>  <SCORE.INTRA.DIHEDRAL.0>
27.8999

>  <SCORE.INTRA.POLAR>
0

>  <SCORE.INTRA.POLAR.0>
0

>  <SCORE.INTRA.REPUL>
0

>  <SCORE.INTRA.REPUL.0>
0

>  <SCORE.INTRA.SOLV>
-0.882601

>  <SCORE.INTRA.SOLV.lig_0>
-104.479

>  <SCORE.INTRA.VDW>
2.22065

>  <SCORE.INTRA.VDW.0>
-6.17816

>  <SCORE.INTRA.norm>
-0.104685

>  <SCORE.RESTR>
20.2038

>  <SCORE.RESTR.CAVITY>
20.2038

>  <SCORE.RESTR.norm>
0.481044

>  <SCORE.SYSTEM>
0

>  <SCORE.SYSTEM.CONST>
0

>  <SCORE.SYSTEM.DIHEDRAL>
0

>  <SCORE.SYSTEM.SOLV>
0

>  <SCORE.SYSTEM.norm>
0

>  <SCORE.heavy>
42

>  <SCORE.norm>
0.528375

>  <RMSD>
13.816

$$$$
ligand
 OpenBabel02271912133D
libRbt.so/2013.1/901 2013/11/27
 42 45  0  0  0  0  0  0  0  0999 V2000
   -3.9103    2.3964   14.5007 C   0  0  2  0  0  0  0  0  0  0  0  0
   -3.7006    2.1374   13.1021 O   0  0  0  0  0  0  0  0  0  0  0  0
   -0.0031   -0.1034   13.4242 C   0  0  2  0  0  0  0  0  0  0  0  0
    1.1753   -0.9655   13.1101 N   0  0  0  0  0  0  0  0  0  0  0  0
   -2.2578    4.2126   11.7833 C   0  0  1  0  0  0  0  0  0  0  0  0
   -2.8441    8.3935   11.3587 C   0  0  1  0  0  0  0  0  0  0  0  0
   -3.8800    3.9432   14.6866 C   0  0  2  0  0  0  0  0  0  0  0  0
   -4.7563    4.6431   13.7312 N   0  0  0  0  0  0  0  0  0  0  0  0
   -1.3535   -0.9221   13.3343 C   0  0  0  0  0  0  0  0  0  0  0  0
   -1.6832    5.4205   10.9823 C   0  0  2  0  0  0  0  0  0  0  0  0
   -0.7844    6.2607   11.7472 O   0  0  0  0  0  0  0  0  0  0  0  0
   -3.1409    9.3414   12.5762 C   0  0  2  0  0  0  0  0  0  0  0  0
   -4.6116    9.4862   12.7933 N   0  0  0  0  0  0  0  0  0  0  0  0
   -2.4667    4.5262   14.5032 C   0  0  1  0  0  0  0  0  0  0  0  0
   -2.4789    5.9380   14.7212 O   0  0  0  0  0  0  0  0  0  0  0  0
   -2.5538    0.0321   13.6967 C   0  0  2  0  0  0  0  0  0  0  0  0
   -3.8416   -0.7106   13.6361 N   0  0  0  0  0  0  0  0  0  0  0  0
   -2.9682    6.0940   10.4980 C   0  0  2  0  0  0  0  0  0  0  0  0
   -3.4437    7.0953   11.4531 O   0  0  0  0  0  0  0  0  0  0  0  0
   -2.4545   10.7657   12.3168 C   0  0  1  0  0  0  0  0  0  0  0  0
   -1.0258   10.6344   12.4913 O   0  0  0  0  0  0  0  0  0  0  0  0
   -1.4870    3.8151   15.4643 C   0  0  2  0  0  0  0  0  0  0  0  0
   -0.1914    4.3492   15.3207 O   0  0  0  0  0  0  0  0  0  0  0  0
   -2.6048    1.2632   12.7079 C   0  0  2  0  0  0  0  0  0  0  0  0
   -3.9966    4.9650   10.3159 C   0  0  2  0  0  0  0  0  0  0  0  0
   -3.6078    4.0141   11.3043 O   0  0  0  0  0  0  0  0  0  0  0  0
   -2.7648   11.3492   10.8571 C   0  0  2  0  0  0  0  0  0  0  0  0
   -4.1478   11.6984   10.8177 O   0  0  0  0  0  0  0  0  0  0  0  0
   -1.4904    2.2811   15.1539 C   0  0  2  0  0  0  0  0  0  0  0  0
   -2.8465    1.7526   15.3004 O   0  0  0  0  0  0  0  0  0  0  0  0
   -1.2939    2.0798   12.7002 C   0  0  2  0  0  0  0  0  0  0  0  0
   -1.4487    3.0405   11.6197 O   0  0  0  0  0  0  0  0  0  0  0  0
   -4.0212    4.3200    8.8955 C   0  0  0  0  0  0  0  0  0  0  0  0
   -2.7874    3.6473    8.6628 O   0  0  0  0  0  0  0  0  0  0  0  0
   -2.4414   10.2765    9.7494 C   0  0  1  0  0  0  0  0  0  0  0  0
   -3.2524    9.0914   10.0784 O   0  0  0  0  0  0  0  0  0  0  0  0
   -0.5601    1.5033   16.0558 C   0  0  0  0  0  0  0  0  0  0  0  0
    0.7484    1.5275   15.5395 O   0  0  0  0  0  0  0  0  0  0  0  0
   -0.0549    1.1267   12.4319 C   0  0  1  0  0  0  0  0  0  0  0  0
    1.1678    1.8548   12.5749 O   0  0  0  0  0  0  0  0  0  0  0  0
   -2.7530   10.7616    8.2675 C   0  0  0  0  0  0  0  0  0  0  0  0
   -4.1930   10.9628    7.9471 N   0  0  0  0  0  0  0  0  0  0  0  0
  1  2  1  6  0  0  0
  1  7  1  0  0  0  0
  1 30  1  0  0  0  0
  3  4  1  6  0  0  0
  3  9  1  0  0  0  0
  3 39  1  0  0  0  0
  5 10  1  0  0  0  0
  5 26  1  0  0  0  0
  5 32  1  6  0  0  0
  6 12  1  0  0  0  0
  6 36  1  0  0  0  0
  6 19  1  1  0  0  0
  7  8  1  6  0  0  0
  7 14  1  0  0  0  0
  9 16  1  0  0  0  0
 10 11  1  1  0  0  0
 10 18  1  0  0  0  0
 12 13  1  6  0  0  0
 12 20  1  0  0  0  0
 14 15  1  1  0  0  0
 14 22  1  0  0  0  0
 16 17  1  6  0  0  0
 16 24  1  0  0  0  0
 18 19  1  1  0  0  0
 18 25  1  0  0  0  0
 20 21  1  6  0  0  0
 20 27  1  0  0  0  0
 22 23  1  6  0  0  0
 22 29  1  0  0  0  0
 24  2  1  1  0  0  0
 24 31  1  0  0  0  0
 25 26  1  0  0  0  0
 25 33  1  6  0  0  0
 27 28  1  1  0  0  0
 27 35  1  0  0  0  0
 29 30  1  0  0  0  0
 29 37  1  1  0  0  0
 31 32  1  6  0  0  0
 31 39  1  0  0  0  0
 33 34  1  0  0  0  0
 35 36  1  0  0  0  0
 35 41  1  6  0  0  0
 37 38  1  0  0  0  0
 39 40  1  1  0  0  0
 41 42  1  0  0  0  0
M  END
>  <CHROM.1>
124.35244204,41.74443261,83.54280668,-167.40748237,65.67763740,-84.78946327
77.23635633,146.57068102,-67.53188273,-2.29393344,4.88101853,12.42997868
-0.89625112,-1.25813039,0.29104461

>  <Name>
ligand

>  <RI>
0

>  <Rbt.Current_Directory>
/home/itssahil/PROJECTS/Mol_Feturizer/Test_systems_manuscript/rnas/2o3w

>  <Rbt.Executable>
rbdock ($Id: //depot/dev/client3/rdock/2013.1/src/exe/rbdock.cxx#4 $)

>  <Rbt.Library>
libRbt.so (2013.1, Build901 2013/11/27)

>  <Rbt.Parameter_File>
/export/apps/rDock/src/rDock_2013.1_src/data/scripts/dock_solv.prm

>  <Rbt.Receptor>
prm/blind_docking_60.prm

>  <SCORE>
29.2762

>  <SCORE.INTER>
1.43834

>  <SCORE.INTER.CONST>
1

>  <SCORE.INTER.POLAR>
0

>  <SCORE.INTER.ROT>
9

>  <SCORE.INTER.SOLV>
24.8416

>  <SCORE.INTER.VDW>
-16.9216

>  <SCORE.INTER.norm>
0.0342462

>  <SCORE.INTRA>
15.4065

>  <SCORE.INTRA.DIHEDRAL>
-8.16681

>  <SCORE.INTRA.DIHEDRAL.0>
27.8999

>  <SCORE.INTRA.POLAR>
0

>  <SCORE.INTRA.POLAR.0>
0

>  <SCORE.INTRA.REPUL>
0.452532

>  <SCORE.INTRA.REPUL.0>
0

>  <SCORE.INTRA.SOLV>
5.43552

>  <SCORE.INTRA.SOLV.lig_0>
-104.479

>  <SCORE.INTRA.VDW>
14.5095

>  <SCORE.INTRA.VDW.0>
-6.17816

>  <SCORE.INTRA.norm>
0.366821

>  <SCORE.RESTR>
12.4314

>  <SCORE.RESTR.CAVITY>
12.4314

>  <SCORE.RESTR.norm>
0.295986

>  <SCORE.SYSTEM>
0

>  <SCORE.SYSTEM.CONST>
0

>  <SCORE.SYSTEM.DIHEDRAL>
0

>  <SCORE.SYSTEM.SOLV>
0

>  <SCORE.SYSTEM.norm>
0

>  <SCORE.heavy>
42

>  <SCORE.norm>
0.697053

>  <RMSD>
14.114

$$$$
ligand
 OpenBabel02271912133D
libRbt.so/2013.1/901 2013/11/27
 42 45  0  0  0  0  0  0  0  0999 V2000
   -1.7159    3.3697   13.7384 C   0  0  2  0  0  0  0  0  0  0  0  0
   -2.4498    3.2402   12.5089 O   0  0  0  0  0  0  0  0  0  0  0  0
   -6.1739    4.9039   11.0392 C   0  0  2  0  0  0  0  0  0  0  0  0
   -7.2536    5.8569   10.6437 N   0  0  0  0  0  0  0  0  0  0  0  0
   -1.8965    6.0801   10.4773 C   0  0  1  0  0  0  0  0  0  0  0  0
   -2.5018   10.1616   10.7888 C   0  0  1  0  0  0  0  0  0  0  0  0
   -0.2119    3.1485   13.3961 C   0  0  2  0  0  0  0  0  0  0  0  0
    0.2328    3.9669   12.2546 N   0  0  0  0  0  0  0  0  0  0  0  0
   -5.9153    4.9447   12.5991 C   0  0  0  0  0  0  0  0  0  0  0  0
   -3.0630    7.1007   10.6465 C   0  0  2  0  0  0  0  0  0  0  0  0
   -3.3756    7.8433    9.4423 O   0  0  0  0  0  0  0  0  0  0  0  0
   -1.7080   10.9763    9.7048 C   0  0  2  0  0  0  0  0  0  0  0  0
   -0.4207   11.4907   10.2609 N   0  0  0  0  0  0  0  0  0  0  0  0
    0.0967    1.6827   13.0395 C   0  0  1  0  0  0  0  0  0  0  0  0
    1.4905    1.5187   12.7723 O   0  0  0  0  0  0  0  0  0  0  0  0
   -4.7859    3.9058   12.9565 C   0  0  2  0  0  0  0  0  0  0  0  0
   -4.5265    3.9072   14.4216 N   0  0  0  0  0  0  0  0  0  0  0  0
   -2.5601    7.9337   11.8265 C   0  0  2  0  0  0  0  0  0  0  0  0
   -1.7691    9.0799   11.3776 O   0  0  0  0  0  0  0  0  0  0  0  0
   -2.6242   12.1767    9.1696 C   0  0  1  0  0  0  0  0  0  0  0  0
   -3.6553   11.6325    8.3155 O   0  0  0  0  0  0  0  0  0  0  0  0
   -0.3693    0.7628   14.1909 C   0  0  2  0  0  0  0  0  0  0  0  0
   -0.0786   -0.5817   13.8870 O   0  0  0  0  0  0  0  0  0  0  0  0
   -3.4517    4.2450   12.1816 C   0  0  2  0  0  0  0  0  0  0  0  0
   -1.7183    6.9801   12.6911 C   0  0  2  0  0  0  0  0  0  0  0  0
   -1.1831    6.0680   11.7351 O   0  0  0  0  0  0  0  0  0  0  0  0
   -3.2987   13.0199   10.3536 C   0  0  2  0  0  0  0  0  0  0  0  0
   -2.2599   13.7400   11.0158 O   0  0  0  0  0  0  0  0  0  0  0  0
   -1.9062    0.9601   14.4118 C   0  0  2  0  0  0  0  0  0  0  0  0
   -2.1832    2.3638   14.7159 O   0  0  0  0  0  0  0  0  0  0  0  0
   -3.6413    4.2788   10.6492 C   0  0  2  0  0  0  0  0  0  0  0  0
   -2.3832    4.7800   10.1196 O   0  0  0  0  0  0  0  0  0  0  0  0
   -2.5118    6.2264   13.8030 C   0  0  0  0  0  0  0  0  0  0  0  0
   -1.6005    5.7393   14.7834 O   0  0  0  0  0  0  0  0  0  0  0  0
   -4.0323   12.0640   11.3687 C   0  0  1  0  0  0  0  0  0  0  0  0
   -3.0119   11.1158   11.8482 O   0  0  0  0  0  0  0  0  0  0  0  0
   -2.4482    0.0992   15.5294 C   0  0  0  0  0  0  0  0  0  0  0  0
   -1.9254    0.5228   16.7649 O   0  0  0  0  0  0  0  0  0  0  0  0
   -4.8381    5.2462   10.2653 C   0  0  1  0  0  0  0  0  0  0  0  0
   -5.1113    5.1612    8.8640 O   0  0  0  0  0  0  0  0  0  0  0  0
   -4.7036   12.8171   12.5978 C   0  0  0  0  0  0  0  0  0  0  0  0
   -5.1533   11.9448   13.7175 N   0  0  0  0  0  0  0  0  0  0  0  0
  1  2  1  6  0  0  0
  1  7  1  0  0  0  0
  1 30  1  0  0  0  0
  3  4  1  1  0  0  0
  3  9  1  0  0  0  0
  3 39  1  0  0  0  0
  5 10  1  0  0  0  0
  5 26  1  0  0  0  0
  5 32  1  1  0  0  0
  6 12  1  0  0  0  0
  6 36  1  0  0  0  0
  6 19  1  1  0  0  0
  7  8  1  6  0  0  0
  7 14  1  0  0  0  0
  9 16  1  0  0  0  0
 10 11  1  6  0  0  0
 10 18  1  0  0  0  0
 12 13  1  1  0  0  0
 12 20  1  0  0  0  0
 14 15  1  1  0  0  0
 14 22  1  0  0  0  0
 16 17  1  1  0  0  0
 16 24  1  0  0  0  0
 18 19  1  6  0  0  0
 18 25  1  0  0  0  0
 20 21  1  6  0  0  0
 20 27  1  0  0  0  0
 22 23  1  6  0  0  0
 22 29  1  0  0  0  0
 24  2  1  6  0  0  0
 24 31  1  0  0  0  0
 25 26  1  0  0  0  0
 25 33  1  1  0  0  0
 27 28  1  1  0  0  0
 27 35  1  0  0  0  0
 29 30  1  0  0  0  0
 29 37  1  1  0  0  0
 31 32  1  6  0  0  0
 31 39  1  0  0  0  0
 33 34  1  0  0  0  0
 35 36  1  0  0  0  0
 35 41  1  1  0  0  0
 37 38  1  0  0  0  0
 39 40  1  6  0  0  0
 41 42  1  0  0  0  0
M  END
>  <CHROM.1>
-133.03283462,-81.37818647,73.56375737,-150.08590380,-161.12634842,67.21407977
-60.68941206,-35.34984255,-167.65767267,-2.65512309,6.23135957,12.07651915
-1.40295573,-0.26741395,-0.28008426

>  <Name>
ligand

>  <RI>
0

>  <Rbt.Current_Directory>
/home/itssahil/PROJECTS/Mol_Feturizer/Test_systems_manuscript/rnas/2o3w

>  <Rbt.Executable>
rbdock ($Id: //depot/dev/client3/rdock/2013.1/src/exe/rbdock.cxx#4 $)

>  <Rbt.Library>
libRbt.so (2013.1, Build901 2013/11/27)

>  <Rbt.Parameter_File>
/export/apps/rDock/src/rDock_2013.1_src/data/scripts/dock_solv.prm

>  <Rbt.Receptor>
prm/blind_docking_60.prm

>  <SCORE>
26.5857

>  <SCORE.INTER>
9.26829

>  <SCORE.INTER.CONST>
1

>  <SCORE.INTER.POLAR>
0

>  <SCORE.INTER.ROT>
9

>  <SCORE.INTER.SOLV>
32.8099

>  <SCORE.INTER.VDW>
-14.3578

>  <SCORE.INTER.norm>
0.220674

>  <SCORE.INTRA>
5.47005

>  <SCORE.INTRA.DIHEDRAL>
-10.4669

>  <SCORE.INTRA.DIHEDRAL.0>
27.8999

>  <SCORE.INTRA.POLAR>
0

>  <SCORE.INTRA.POLAR.0>
0

>  <SCORE.INTRA.REPUL>
0

>  <SCORE.INTRA.REPUL.0>
0

>  <SCORE.INTRA.SOLV>
3.83195

>  <SCORE.INTRA.SOLV.lig_0>
-104.479

>  <SCORE.INTRA.VDW>
8.78755

>  <SCORE.INTRA.VDW.0>
-6.17816

>  <SCORE.INTRA.norm>
0.130239

>  <SCORE.RESTR>
11.8473

>  <SCORE.RESTR.CAVITY>
11.8473

>  <SCORE.RESTR.norm>
0.282079

>  <SCORE.SYSTEM>
0

>  <SCORE.SYSTEM.CONST>
0

>  <SCORE.SYSTEM.DIHEDRAL>
0

>  <SCORE.SYSTEM.SOLV>
0

>  <SCORE.SYSTEM.norm>
0

>  <SCORE.heavy>
42

>  <SCORE.norm>
0.632992

>  <RMSD>
14.614

$$$$
ligand
 OpenBabel02271912133D
libRbt.so/2013.1/901 2013/11/27
 42 45  0  0  0  0  0  0  0  0999 V2000
   -0.6078    3.8536   12.1804 C   0  0  2  0  0  0  0  0  0  0  0  0
   -1.8109    4.0113   11.4090 O   0  0  0  0  0  0  0  0  0  0  0  0
   -2.9443    7.9543   12.8105 C   0  0  2  0  0  0  0  0  0  0  0  0
   -3.6158    9.2810   12.9498 N   0  0  0  0  0  0  0  0  0  0  0  0
   -4.6266    3.7525   11.2417 C   0  0  1  0  0  0  0  0  0  0  0  0
   -5.3753    2.7499    8.0355 C   0  0  1  0  0  0  0  0  0  0  0  0
   -0.4779    2.3374   12.5160 C   0  0  2  0  0  0  0  0  0  0  0  0
   -0.6353    1.4814   11.3272 N   0  0  0  0  0  0  0  0  0  0  0  0
   -2.1345    7.8605   11.4550 C   0  0  0  0  0  0  0  0  0  0  0  0
   -4.7136    2.1987   11.3362 C   0  0  2  0  0  0  0  0  0  0  0  0
   -3.4481    1.5240   11.1302 O   0  0  0  0  0  0  0  0  0  0  0  0
   -5.0025    2.3805    6.5545 C   0  0  2  0  0  0  0  0  0  0  0  0
   -3.6154    1.8322    6.4745 N   0  0  0  0  0  0  0  0  0  0  0  0
   -1.5296    1.8736   13.5405 C   0  0  1  0  0  0  0  0  0  0  0  0
   -1.3485    0.4902   13.8476 O   0  0  0  0  0  0  0  0  0  0  0  0
   -1.4328    6.4520   11.3763 C   0  0  2  0  0  0  0  0  0  0  0  0
   -0.6483    6.3343   10.1176 N   0  0  0  0  0  0  0  0  0  0  0  0
   -5.8001    1.8986   10.3024 C   0  0  2  0  0  0  0  0  0  0  0  0
   -5.2309    1.6757    8.9730 O   0  0  0  0  0  0  0  0  0  0  0  0
   -5.1624    3.6789    5.6295 C   0  0  1  0  0  0  0  0  0  0  0  0
   -6.5699    3.9441    5.4359 O   0  0  0  0  0  0  0  0  0  0  0  0
   -1.4349    2.7506   14.8097 C   0  0  2  0  0  0  0  0  0  0  0  0
   -2.3804    2.3278   15.7645 O   0  0  0  0  0  0  0  0  0  0  0  0
   -2.5031    5.2919   11.4443 C   0  0  2  0  0  0  0  0  0  0  0  0
   -6.7402    3.1158   10.3091 C   0  0  2  0  0  0  0  0  0  0  0  0
   -5.8690    4.1925   10.6467 O   0  0  0  0  0  0  0  0  0  0  0  0
   -4.4529    4.9751    6.2491 C   0  0  2  0  0  0  0  0  0  0  0  0
   -3.0428    4.7651    6.1882 O   0  0  0  0  0  0  0  0  0  0  0  0
   -1.6770    4.2460   14.4162 C   0  0  2  0  0  0  0  0  0  0  0  0
   -0.6902    4.6580   13.4181 O   0  0  0  0  0  0  0  0  0  0  0  0
   -3.3725    5.3533   12.7193 C   0  0  2  0  0  0  0  0  0  0  0  0
   -4.4034    4.3458   12.5275 O   0  0  0  0  0  0  0  0  0  0  0  0
   -7.9313    3.0218   11.3124 C   0  0  0  0  0  0  0  0  0  0  0  0
   -8.5019    4.3151   11.4878 O   0  0  0  0  0  0  0  0  0  0  0  0
   -4.9072    5.1977    7.7411 C   0  0  1  0  0  0  0  0  0  0  0  0
   -4.5680    3.9581    8.4613 O   0  0  0  0  0  0  0  0  0  0  0  0
   -1.5958    5.1797   15.6016 C   0  0  0  0  0  0  0  0  0  0  0  0
   -2.8853    5.5944   15.9815 O   0  0  0  0  0  0  0  0  0  0  0  0
   -4.0169    6.7942   12.8755 C   0  0  1  0  0  0  0  0  0  0  0  0
   -4.6963    6.8975   14.1298 O   0  0  0  0  0  0  0  0  0  0  0  0
   -4.2233    6.4479    8.4467 C   0  0  0  0  0  0  0  0  0  0  0  0
   -4.8477    6.8846    9.7257 N   0  0  0  0  0  0  0  0  0  0  0  0
  1  2  1  6  0  0  0
  1  7  1  0  0  0  0
  1 30  1  0  0  0  0
  3  4  1  6  0  0  0
  3  9  1  0  0  0  0
  3 39  1  0  0  0  0
  5 10  1  0  0  0  0
  5 26  1  0  0  0  0
  5 32  1  1  0  0  0
  6 12  1  0  0  0  0
  6 36  1  0  0  0  0
  6 19  1  1  0  0  0
  7  8  1  6  0  0  0
  7 14  1  0  0  0  0
  9 16  1  0  0  0  0
 10 11  1  6  0  0  0
 10 18  1  0  0  0  0
 12 13  1  1  0  0  0
 12 20  1  0  0  0  0
 14 15  1  1  0  0  0
 14 22  1  0  0  0  0
 16 17  1  6  0  0  0
 16 24  1  0  0  0  0
 18 19  1  6  0  0  0
 18 25  1  0  0  0  0
 20 21  1  1  0  0  0
 20 27  1  0  0  0  0
 22 23  1  1  0  0  0
 22 29  1  0  0  0  0
 24  2  1  1  0  0  0
 24 31  1  0  0  0  0
 25 26  1  0  0  0  0
 25 33  1  1  0  0  0
 27 28  1  1  0  0  0
 27 35  1  0  0  0  0
 29 30  1  0  0  0  0
 29 37  1  1  0  0  0
 31 32  1  6  0  0  0
 31 39  1  0  0  0  0
 33 34  1  0  0  0  0
 35 36  1  0  0  0  0
 35 41  1  1  0  0  0
 37 38  1  0  0  0  0
 39 40  1  1  0  0  0
 41 42  1  0  0  0  0
M  END
>  <CHROM.1>
153.38656030,41.79933396,-104.18747025,-168.94536222,164.48970291,-104.90751020
-13.31930229,131.96228623,166.23417874,-3.62590716,4.21935705,11.04401624
-0.37203282,1.07783632,-2.84730979

>  <Name>
ligand

>  <RI>
0

>  <Rbt.Current_Directory>
/home/itssahil/PROJECTS/Mol_Feturizer/Test_systems_manuscript/rnas/2o3w

>  <Rbt.Executable>
rbdock ($Id: //depot/dev/client3/rdock/2013.1/src/exe/rbdock.cxx#4 $)

>  <Rbt.Library>
libRbt.so (2013.1, Build901 2013/11/27)

>  <Rbt.Parameter_File>
/export/apps/rDock/src/rDock_2013.1_src/data/scripts/dock_solv.prm

>  <Rbt.Receptor>
prm/blind_docking_20.prm

>  <SCORE>
60.8982

>  <SCORE.INTER>
14.0659

>  <SCORE.INTER.CONST>
1

>  <SCORE.INTER.POLAR>
0

>  <SCORE.INTER.ROT>
9

>  <SCORE.INTER.SOLV>
25.1057

>  <SCORE.INTER.VDW>
-8.59129

>  <SCORE.INTER.norm>
0.334903

>  <SCORE.INTRA>
11.535

>  <SCORE.INTRA.DIHEDRAL>
2.13245

>  <SCORE.INTRA.DIHEDRAL.0>
27.8999

>  <SCORE.INTRA.POLAR>
0

>  <SCORE.INTRA.POLAR.0>
0

>  <SCORE.INTRA.REPUL>
0.146446

>  <SCORE.INTRA.REPUL.0>
0

>  <SCORE.INTRA.SOLV>
5.71702

>  <SCORE.INTRA.SOLV.lig_0>
-104.479

>  <SCORE.INTRA.VDW>
6.87804

>  <SCORE.INTRA.VDW.0>
-6.17816

>  <SCORE.INTRA.norm>
0.274643

>  <SCORE.RESTR>
35.2972

>  <SCORE.RESTR.CAVITY>
35.2972

>  <SCORE.RESTR.norm>
0.840411

>  <SCORE.SYSTEM>
0

>  <SCORE.SYSTEM.CONST>
0

>  <SCORE.SYSTEM.DIHEDRAL>
0

>  <SCORE.SYSTEM.SOLV>
0

>  <SCORE.SYSTEM.norm>
0

>  <SCORE.heavy>
42

>  <SCORE.norm>
1.44996

>  <RMSD>
14.834

$$$$
ligand
 OpenBabel02271912133D
libRbt.so/2013.1/901 2013/11/27
 42 45  0  0  0  0  0  0  0  0999 V2000
   -0.8989    4.1475   12.5786 C   0  0  2  0  0  0  0  0  0  0  0  0
   -1.7330    4.2224   11.4098 O   0  0  0  0  0  0  0  0  0  0  0  0
   -3.1756    8.2699   11.9870 C   0  0  2  0  0  0  0  0  0  0  0  0
   -3.8673    9.5795   11.7950 N   0  0  0  0  0  0  0  0  0  0  0  0
   -4.8974    4.3008   10.5111 C   0  0  1  0  0  0  0  0  0  0  0  0
   -5.2528    3.2837    7.6573 C   0  0  1  0  0  0  0  0  0  0  0  0
   -0.7591    2.6386   12.9419 C   0  0  2  0  0  0  0  0  0  0  0  0
   -0.3748    1.8132   11.7837 N   0  0  0  0  0  0  0  0  0  0  0  0
   -2.0765    8.0327   10.8745 C   0  0  0  0  0  0  0  0  0  0  0  0
   -6.4109    3.9391   10.4152 C   0  0  2  0  0  0  0  0  0  0  0  0
   -6.6865    2.5215   10.5309 O   0  0  0  0  0  0  0  0  0  0  0  0
   -5.0626    2.5937    6.2585 C   0  0  2  0  0  0  0  0  0  0  0  0
   -5.9417    1.3929    6.1321 N   0  0  0  0  0  0  0  0  0  0  0  0
   -2.0688    2.0469   13.4947 C   0  0  1  0  0  0  0  0  0  0  0  0
   -1.8839    0.6758   13.8507 O   0  0  0  0  0  0  0  0  0  0  0  0
   -1.3688    6.6508   11.1428 C   0  0  2  0  0  0  0  0  0  0  0  0
   -0.3164    6.4014   10.1210 N   0  0  0  0  0  0  0  0  0  0  0  0
   -6.7851    4.5794    9.0775 C   0  0  2  0  0  0  0  0  0  0  0  0
   -6.6047    3.6462    7.9652 O   0  0  0  0  0  0  0  0  0  0  0  0
   -3.5211    2.2011    6.0680 C   0  0  1  0  0  0  0  0  0  0  0  0
   -2.7599    3.4041    5.8183 O   0  0  0  0  0  0  0  0  0  0  0  0
   -2.5433    2.8850   14.7037 C   0  0  2  0  0  0  0  0  0  0  0  0
   -3.7329    2.3461   15.2320 O   0  0  0  0  0  0  0  0  0  0  0  0
   -2.4208    5.4724   11.1187 C   0  0  2  0  0  0  0  0  0  0  0  0
   -5.8744    5.8095    8.9262 C   0  0  2  0  0  0  0  0  0  0  0  0
   -4.6908    5.4198    9.6187 O   0  0  0  0  0  0  0  0  0  0  0  0
   -2.9126    1.4357    7.3374 C   0  0  2  0  0  0  0  0  0  0  0  0
   -3.5206    0.1459    7.3951 O   0  0  0  0  0  0  0  0  0  0  0  0
   -2.7628    4.3650   14.2444 C   0  0  2  0  0  0  0  0  0  0  0  0
   -1.5178    4.8983   13.6917 O   0  0  0  0  0  0  0  0  0  0  0  0
   -3.5594    5.6651   12.1442 C   0  0  2  0  0  0  0  0  0  0  0  0
   -4.5142    4.6063   11.8583 O   0  0  0  0  0  0  0  0  0  0  0  0
   -6.4557    7.1345    9.5100 C   0  0  0  0  0  0  0  0  0  0  0  0
   -6.2335    8.1938    8.5841 O   0  0  0  0  0  0  0  0  0  0  0  0
   -3.2056    2.2364    8.6622 C   0  0  1  0  0  0  0  0  0  0  0  0
   -4.6691    2.3907    8.7319 O   0  0  0  0  0  0  0  0  0  0  0  0
   -3.2236    5.2611   15.3707 C   0  0  0  0  0  0  0  0  0  0  0  0
   -4.2161    6.1459   14.9112 O   0  0  0  0  0  0  0  0  0  0  0  0
   -4.2291    7.0910   11.9596 C   0  0  1  0  0  0  0  0  0  0  0  0
   -5.1782    7.3292   13.0027 O   0  0  0  0  0  0  0  0  0  0  0  0
   -2.6642    1.5292    9.9796 C   0  0  0  0  0  0  0  0  0  0  0  0
   -1.4075    0.7473    9.8185 N   0  0  0  0  0  0  0  0  0  0  0  0
  1  2  1  6  0  0  0
  1  7  1  0  0  0  0
  1 30  1  0  0  0  0
  3  4  1  6  0  0  0
  3  9  1  0  0  0  0
  3 39  1  0  0  0  0
  5 10  1  0  0  0  0
  5 26  1  0  0  0  0
  5 32  1  1  0  0  0
  6 12  1  0  0  0  0
  6 36  1  0  0  0  0
  6 19  1  1  0  0  0
  7  8  1  6  0  0  0
  7 14  1  0  0  0  0
  9 16  1  0  0  0  0
 10 11  1  6  0  0  0
 10 18  1  0  0  0  0
 12 13  1  1  0  0  0
 12 20  1  0  0  0  0
 14 15  1  1  0  0  0
 14 22  1  0  0  0  0
 16 17  1  6  0  0  0
 16 24  1  0  0  0  0
 18 19  1  6  0  0  0
 18 25  1  0  0  0  0
 20 21  1  1  0  0  0
 20 27  1  0  0  0  0
 22 23  1  6  0  0  0
 22 29  1  0  0  0  0
 24  2  1  1  0  0  0
 24 31  1  0  0  0  0
 25 26  1  0  0  0  0
 25 33  1  1  0  0  0
 27 28  1  1  0  0  0
 27 35  1  0  0  0  0
 29 30  1  0  0  0  0
 29 37  1  1  0  0  0
 31 32  1  6  0  0  0
 31 39  1  0  0  0  0
 33 34  1  0  0  0  0
 35 36  1  0  0  0  0
 35 41  1  1  0  0  0
 37 38  1  0  0  0  0
 39 40  1  1  0  0  0
 41 42  1  0  0  0  0
M  END
>  <CHROM.1>
158.43120762,51.62400102,-68.12629584,-164.99343145,-135.63626252,-139.30419867
-44.57808660,-142.14092293,33.06490092,-3.64453706,4.21555821,10.70851784
-1.06136214,0.98294007,-2.43284108

>  <Name>
ligand

>  <RI>
0

>  <Rbt.Current_Directory>
/home/itssahil/PROJECTS/Mol_Feturizer/Test_systems_manuscript/rnas/2o3w

>  <Rbt.Executable>
rbdock ($Id: //depot/dev/client3/rdock/2013.1/src/exe/rbdock.cxx#4 $)

>  <Rbt.Library>
libRbt.so (2013.1, Build901 2013/11/27)

>  <Rbt.Parameter_File>
/export/apps/rDock/src/rDock_2013.1_src/data/scripts/dock_solv.prm

>  <Rbt.Receptor>
prm/blind_docking_20.prm

>  <SCORE>
59.3047

>  <SCORE.INTER>
14.8268

>  <SCORE.INTER.CONST>
1

>  <SCORE.INTER.POLAR>
0

>  <SCORE.INTER.ROT>
9

>  <SCORE.INTER.SOLV>
21.4293

>  <SCORE.INTER.VDW>
-6.85856

>  <SCORE.INTER.norm>
0.353019

>  <SCORE.INTRA>
6.86382

>  <SCORE.INTRA.DIHEDRAL>
-7.21887

>  <SCORE.INTRA.DIHEDRAL.0>
27.8999

>  <SCORE.INTRA.POLAR>
0

>  <SCORE.INTRA.POLAR.0>
0

>  <SCORE.INTRA.REPUL>
0

>  <SCORE.INTRA.REPUL.0>
0

>  <SCORE.INTRA.SOLV>
4.20088

>  <SCORE.INTRA.SOLV.lig_0>
-104.479

>  <SCORE.INTRA.VDW>
8.37281

>  <SCORE.INTRA.VDW.0>
-6.17816

>  <SCORE.INTRA.norm>
0.163424

>  <SCORE.RESTR>
37.6141

>  <SCORE.RESTR.CAVITY>
37.6141

>  <SCORE.RESTR.norm>
0.895573

>  <SCORE.SYSTEM>
0

>  <SCORE.SYSTEM.CONST>
0

>  <SCORE.SYSTEM.DIHEDRAL>
0

>  <SCORE.SYSTEM.SOLV>
0

>  <SCORE.SYSTEM.norm>
0

>  <SCORE.heavy>
42

>  <SCORE.norm>
1.41202

>  <RMSD>
14.990

$$$$
ligand
 OpenBabel02271912133D
libRbt.so/2013.1/901 2013/11/27
 42 45  0  0  0  0  0  0  0  0999 V2000
   -0.7075    2.5819   12.2080 C   0  0  2  0  0  0  0  0  0  0  0  0
   -1.9968    2.0601   11.8437 O   0  0  0  0  0  0  0  0  0  0  0  0
   -5.1284    4.0908    9.6379 C   0  0  2  0  0  0  0  0  0  0  0  0
   -6.2294    5.0246    9.2556 N   0  0  0  0  0  0  0  0  0  0  0  0
   -1.8491    5.7620   12.0650 C   0  0  1  0  0  0  0  0  0  0  0  0
   -3.6174    9.5320   13.3195 C   0  0  1  0  0  0  0  0  0  0  0  0
    0.1749    1.3662   12.6221 C   0  0  2  0  0  0  0  0  0  0  0  0
    0.1423    0.2807   11.6265 N   0  0  0  0  0  0  0  0  0  0  0  0
   -5.5624    3.1505   10.8334 C   0  0  0  0  0  0  0  0  0  0  0  0
   -2.8136    6.8548   11.5116 C   0  0  2  0  0  0  0  0  0  0  0  0
   -2.1382    8.0003   10.9363 O   0  0  0  0  0  0  0  0  0  0  0  0
   -5.1375    9.7157   13.6724 C   0  0  2  0  0  0  0  0  0  0  0  0
   -5.9777    8.7144   12.9497 N   0  0  0  0  0  0  0  0  0  0  0  0
   -0.2675    0.7528   13.9634 C   0  0  1  0  0  0  0  0  0  0  0  0
    0.5916   -0.3306   14.3224 O   0  0  0  0  0  0  0  0  0  0  0  0
   -4.3717    2.1768   11.1749 C   0  0  2  0  0  0  0  0  0  0  0  0
   -4.7513    1.2658   12.2883 N   0  0  0  0  0  0  0  0  0  0  0  0
   -3.6739    7.1428   12.7429 C   0  0  2  0  0  0  0  0  0  0  0  0
   -3.1040    8.2156   13.5585 O   0  0  0  0  0  0  0  0  0  0  0  0
   -5.5868   11.2109   13.3125 C   0  0  1  0  0  0  0  0  0  0  0  0
   -5.0290   12.1150   14.2924 O   0  0  0  0  0  0  0  0  0  0  0  0
   -0.2787    1.8492   15.0529 C   0  0  2  0  0  0  0  0  0  0  0  0
   -0.6657    1.3002   16.2912 O   0  0  0  0  0  0  0  0  0  0  0  0
   -3.0809    2.9947   11.5759 C   0  0  2  0  0  0  0  0  0  0  0  0
   -3.7452    5.8229   13.5291 C   0  0  2  0  0  0  0  0  0  0  0  0
   -2.4954    5.2046   13.2323 O   0  0  0  0  0  0  0  0  0  0  0  0
   -5.1283   11.6619   11.8449 C   0  0  2  0  0  0  0  0  0  0  0  0
   -5.8938   10.9099   10.9041 O   0  0  0  0  0  0  0  0  0  0  0  0
   -1.2619    2.9879   14.6213 C   0  0  2  0  0  0  0  0  0  0  0  0
   -0.8450    3.5346   13.3302 O   0  0  0  0  0  0  0  0  0  0  0  0
   -2.6294    3.9788   10.4745 C   0  0  2  0  0  0  0  0  0  0  0  0
   -1.5636    4.7634   11.0769 O   0  0  0  0  0  0  0  0  0  0  0  0
   -4.9371    4.8920   13.1455 C   0  0  0  0  0  0  0  0  0  0  0  0
   -4.8618    3.6923   13.9098 O   0  0  0  0  0  0  0  0  0  0  0  0
   -3.5902   11.3926   11.6357 C   0  0  1  0  0  0  0  0  0  0  0  0
   -3.3893    9.9543   11.8833 O   0  0  0  0  0  0  0  0  0  0  0  0
   -1.3306    4.1104   15.6308 C   0  0  0  0  0  0  0  0  0  0  0  0
   -0.0649    4.7061   15.7804 O   0  0  0  0  0  0  0  0  0  0  0  0
   -3.8379    4.9106   10.0420 C   0  0  1  0  0  0  0  0  0  0  0  0
   -3.4634    5.7159    8.9209 O   0  0  0  0  0  0  0  0  0  0  0  0
   -3.0555   11.7812   10.1895 C   0  0  0  0  0  0  0  0  0  0  0  0
   -1.6009   11.5598    9.9616 N   0  0  0  0  0  0  0  0  0  0  0  0
  1  2  1  1  0  0  0
  1  7  1  0  0  0  0
  1 30  1  0  0  0  0
  3  4  1  1  0  0  0
  3  9  1  0  0  0  0
  3 39  1  0  0  0  0
  5 10  1  0  0  0  0
  5 26  1  0  0  0  0
  5 32  1  6  0  0  0
  6 12  1  0  0  0  0
  6 36  1  0  0  0  0
  6 19  1  6  0  0  0
  7  8  1  6  0  0  0
  7 14  1  0  0  0  0
  9 16  1  0  0  0  0
 10 11  1  1  0  0  0
 10 18  1  0  0  0  0
 12 13  1  6  0  0  0
 12 20  1  0  0  0  0
 14 15  1  1  0  0  0
 14 22  1  0  0  0  0
 16 17  1  1  0  0  0
 16 24  1  0  0  0  0
 18 19  1  1  0  0  0
 18 25  1  0  0  0  0
 20 21  1  1  0  0  0
 20 27  1  0  0  0  0
 22 23  1  1  0  0  0
 22 29  1  0  0  0  0
 24  2  1  6  0  0  0
 24 31  1  0  0  0  0
 25 26  1  0  0  0  0
 25 33  1  6  0  0  0
 27 28  1  6  0  0  0
 27 35  1  0  0  0  0
 29 30  1  0  0  0  0
 29 37  1  1  0  0  0
 31 32  1  1  0  0  0
 31 39  1  0  0  0  0
 33 34  1  0  0  0  0
 35 36  1  0  0  0  0
 35 41  1  6  0  0  0
 37 38  1  0  0  0  0
 39 40  1  6  0  0  0
 41 42  1  0  0  0  0
M  END
>  <CHROM.1>
172.23477550,178.96730004,95.36802531,64.63056623,178.07085784,61.07802938
-73.03845805,-58.93735713,179.10729640,-2.94802720,5.65593888,12.43194749
0.99281407,0.90937017,-2.83003726

>  <Name>
ligand

>  <RI>
0

>  <Rbt.Current_Directory>
/home/itssahil/PROJECTS/Mol_Feturizer/Test_systems_manuscript/rnas/2o3w

>  <Rbt.Executable>
rbdock ($Id: //depot/dev/client3/rdock/2013.1/src/exe/rbdock.cxx#4 $)

>  <Rbt.Library>
libRbt.so (2013.1, Build901 2013/11/27)

>  <Rbt.Parameter_File>
/export/apps/rDock/src/rDock_2013.1_src/data/scripts/dock_solv.prm

>  <Rbt.Receptor>
prm/blind_docking_60.prm

>  <SCORE>
19.0796

>  <SCORE.INTER>
5.72188

>  <SCORE.INTER.CONST>
1

>  <SCORE.INTER.POLAR>
0

>  <SCORE.INTER.ROT>
9

>  <SCORE.INTER.SOLV>
22.1282

>  <SCORE.INTER.VDW>
-13.1615

>  <SCORE.INTER.norm>
0.136235

>  <SCORE.INTRA>
-1.54839

>  <SCORE.INTRA.DIHEDRAL>
-21.9275

>  <SCORE.INTRA.DIHEDRAL.0>
27.8999

>  <SCORE.INTRA.POLAR>
0

>  <SCORE.INTRA.POLAR.0>
0

>  <SCORE.INTRA.REPUL>
0.133857

>  <SCORE.INTRA.REPUL.0>
0

>  <SCORE.INTRA.SOLV>
1.94065

>  <SCORE.INTRA.SOLV.lig_0>
-104.479

>  <SCORE.INTRA.VDW>
7.77576

>  <SCORE.INTRA.VDW.0>
-6.17816

>  <SCORE.INTRA.norm>
-0.0368665

>  <SCORE.RESTR>
14.9061

>  <SCORE.RESTR.CAVITY>
14.9061

>  <SCORE.RESTR.norm>
0.354907

>  <SCORE.SYSTEM>
0

>  <SCORE.SYSTEM.CONST>
0

>  <SCORE.SYSTEM.DIHEDRAL>
0

>  <SCORE.SYSTEM.SOLV>
0

>  <SCORE.SYSTEM.norm>
0

>  <SCORE.heavy>
42

>  <SCORE.norm>
0.454276

>  <RMSD>
15.005

$$$$
ligand
 OpenBabel02271912133D
libRbt.so/2013.1/901 2013/11/27
 42 45  0  0  0  0  0  0  0  0999 V2000
   -0.7345    3.8456   12.3587 C   0  0  2  0  0  0  0  0  0  0  0  0
   -1.7064    4.1444   11.3421 O   0  0  0  0  0  0  0  0  0  0  0  0
   -3.0040    7.9740   12.9061 C   0  0  2  0  0  0  0  0  0  0  0  0
   -3.7254    9.2679   13.0957 N   0  0  0  0  0  0  0  0  0  0  0  0
   -4.9170    4.1809   11.1334 C   0  0  1  0  0  0  0  0  0  0  0  0
   -5.6879    3.5382    8.2562 C   0  0  1  0  0  0  0  0  0  0  0  0
   -0.9068    2.3408   12.7247 C   0  0  2  0  0  0  0  0  0  0  0  0
   -0.9303    1.4706   11.5361 N   0  0  0  0  0  0  0  0  0  0  0  0
   -2.1707    7.9731   11.5618 C   0  0  0  0  0  0  0  0  0  0  0  0
   -6.3857    3.6669   11.2307 C   0  0  2  0  0  0  0  0  0  0  0  0
   -6.5112    2.2251   11.1620 O   0  0  0  0  0  0  0  0  0  0  0  0
   -5.6821    3.3253    6.6995 C   0  0  2  0  0  0  0  0  0  0  0  0
   -6.5483    2.1706    6.3157 N   0  0  0  0  0  0  0  0  0  0  0  0
   -2.2113    2.0731   13.4977 C   0  0  1  0  0  0  0  0  0  0  0  0
   -2.3082    0.6911   13.8463 O   0  0  0  0  0  0  0  0  0  0  0  0
   -1.4170    6.5958   11.4295 C   0  0  2  0  0  0  0  0  0  0  0  0
   -0.6096    6.5657   10.1802 N   0  0  0  0  0  0  0  0  0  0  0  0
   -7.0485    4.4443   10.0925 C   0  0  2  0  0  0  0  0  0  0  0  0
   -6.9900    3.7055    8.8309 O   0  0  0  0  0  0  0  0  0  0  0  0
   -4.1752    3.1048    6.2017 C   0  0  1  0  0  0  0  0  0  0  0  0
   -3.4783    4.3702    6.2472 O   0  0  0  0  0  0  0  0  0  0  0  0
   -2.2626    2.9762   14.7511 C   0  0  2  0  0  0  0  0  0  0  0  0
   -3.4434    2.7311   15.4790 O   0  0  0  0  0  0  0  0  0  0  0  0
   -2.4452    5.3964   11.4252 C   0  0  2  0  0  0  0  0  0  0  0  0
   -6.2907    5.7789    9.9923 C   0  0  2  0  0  0  0  0  0  0  0  0
   -4.9725    5.4316   10.4098 O   0  0  0  0  0  0  0  0  0  0  0  0
   -3.3820    2.0242    7.0796 C   0  0  2  0  0  0  0  0  0  0  0  0
   -3.9525    0.7449    6.8069 O   0  0  0  0  0  0  0  0  0  0  0  0
   -2.1892    4.4744   14.3042 C   0  0  2  0  0  0  0  0  0  0  0  0
   -0.9608    4.7011   13.5431 O   0  0  0  0  0  0  0  0  0  0  0  0
   -3.3358    5.3666   12.6867 C   0  0  2  0  0  0  0  0  0  0  0  0
   -4.3262    4.3331   12.4307 O   0  0  0  0  0  0  0  0  0  0  0  0
   -6.8710    6.9325   10.8678 C   0  0  0  0  0  0  0  0  0  0  0  0
   -7.1958    6.4257   12.1588 O   0  0  0  0  0  0  0  0  0  0  0  0
   -3.5020    2.3588    8.6144 C   0  0  1  0  0  0  0  0  0  0  0  0
   -4.9440    2.3950    8.9139 O   0  0  0  0  0  0  0  0  0  0  0  0
   -2.2270    5.4322   15.4725 C   0  0  0  0  0  0  0  0  0  0  0  0
   -1.0083    5.3896   16.1740 O   0  0  0  0  0  0  0  0  0  0  0  0
   -4.0345    6.7746   12.8988 C   0  0  1  0  0  0  0  0  0  0  0  0
   -4.7363    6.7944   14.1449 O   0  0  0  0  0  0  0  0  0  0  0  0
   -2.7695    1.3147    9.5641 C   0  0  0  0  0  0  0  0  0  0  0  0
   -1.5037    0.7399    9.0311 N   0  0  0  0  0  0  0  0  0  0  0  0
  1  2  1  6  0  0  0
  1  7  1  0  0  0  0
  1 30  1  0  0  0  0
  3  4  1  6  0  0  0
  3  9  1  0  0  0  0
  3 39  1  0  0  0  0
  5 10  1  0  0  0  0
  5 26  1  0  0  0  0
  5 32  1  1  0  0  0
  6 12  1  0  0  0  0
  6 36  1  0  0  0  0
  6 19  1  1  0  0  0
  7  8  1  6  0  0  0
  7 14  1  0  0  0  0
  9 16  1  0  0  0  0
 10 11  1  6  0  0  0
 10 18  1  0  0  0  0
 12 13  1  1  0  0  0
 12 20  1  0  0  0  0
 14 15  1  1  0  0  0
 14 22  1  0  0  0  0
 16 17  1  6  0  0  0
 16 24  1  0  0  0  0
 18 19  1  6  0  0  0
 18 25  1  0  0  0  0
 20 21  1  1  0  0  0
 20 27  1  0  0  0  0
 22 23  1  6  0  0  0
 22 29  1  0  0  0  0
 24  2  1  1  0  0  0
 24 31  1  0  0  0  0
 25 26  1  0  0  0  0
 25 33  1  1  0  0  0
 27 28  1  1  0  0  0
 27 35  1  0  0  0  0
 29 30  1  0  0  0  0
 29 37  1  1  0  0  0
 31 32  1  6  0  0  0
 31 39  1  0  0  0  0
 33 34  1  0  0  0  0
 35 36  1  0  0  0  0
 35 41  1  1  0  0  0
 37 38  1  0  0  0  0
 39 40  1  1  0  0  0
 41 42  1  0  0  0  0
M  END
>  <CHROM.1>
137.72336721,58.02222785,-67.69183814,-154.94275034,43.63126193,72.30027232
-39.84532298,-147.97674380,35.45613892,-3.67238989,4.17878274,11.15281799
-1.05134808,0.76681917,-2.33806092

>  <Name>
ligand

>  <RI>
0

>  <Rbt.Current_Directory>
/home/itssahil/PROJECTS/Mol_Feturizer/Test_systems_manuscript/rnas/2o3w

>  <Rbt.Executable>
rbdock ($Id: //depot/dev/client3/rdock/2013.1/src/exe/rbdock.cxx#4 $)

>  <Rbt.Library>
libRbt.so (2013.1, Build901 2013/11/27)

>  <Rbt.Parameter_File>
/export/apps/rDock/src/rDock_2013.1_src/data/scripts/dock_solv.prm

>  <Rbt.Receptor>
prm/blind_docking_20.prm

>  <SCORE>
58.0477

>  <SCORE.INTER>
10.1792

>  <SCORE.INTER.CONST>
1

>  <SCORE.INTER.POLAR>
0

>  <SCORE.INTER.ROT>
9

>  <SCORE.INTER.SOLV>
22.7414

>  <SCORE.INTER.VDW>
-10.3944

>  <SCORE.INTER.norm>
0.242361

>  <SCORE.INTRA>
15.0087

>  <SCORE.INTRA.DIHEDRAL>
-9.9055

>  <SCORE.INTRA.DIHEDRAL.0>
27.8999

>  <SCORE.INTRA.POLAR>
0

>  <SCORE.INTRA.POLAR.0>
0

>  <SCORE.INTRA.REPUL>
0

>  <SCORE.INTRA.REPUL.0>
0

>  <SCORE.INTRA.SOLV>
3.54133

>  <SCORE.INTRA.SOLV.lig_0>
-104.479

>  <SCORE.INTRA.VDW>
18.1908

>  <SCORE.INTRA.VDW.0>
-6.17816

>  <SCORE.INTRA.norm>
0.357351

>  <SCORE.RESTR>
32.8598

>  <SCORE.RESTR.CAVITY>
32.8598

>  <SCORE.RESTR.norm>
0.782375

>  <SCORE.SYSTEM>
0

>  <SCORE.SYSTEM.CONST>
0

>  <SCORE.SYSTEM.DIHEDRAL>
0

>  <SCORE.SYSTEM.SOLV>
0

>  <SCORE.SYSTEM.norm>
0

>  <SCORE.heavy>
42

>  <SCORE.norm>
1.38209

>  <RMSD>
15.128

$$$$
ligand
 OpenBabel02271912133D
libRbt.so/2013.1/901 2013/11/27
 42 45  0  0  0  0  0  0  0  0999 V2000
   -5.6132    3.8003   13.2961 C   0  0  2  0  0  0  0  0  0  0  0  0
   -4.5239    3.3143   12.4932 O   0  0  0  0  0  0  0  0  0  0  0  0
   -1.8149    2.1742   15.6803 C   0  0  2  0  0  0  0  0  0  0  0  0
   -0.5840    1.8246   16.4504 N   0  0  0  0  0  0  0  0  0  0  0  0
   -2.6263    5.2131   11.9916 C   0  0  1  0  0  0  0  0  0  0  0  0
   -3.4419    5.1479    9.1570 C   0  0  1  0  0  0  0  0  0  0  0  0
   -6.8636    3.8750   12.3693 C   0  0  2  0  0  0  0  0  0  0  0  0
   -7.0831    2.6275   11.6169 N   0  0  0  0  0  0  0  0  0  0  0  0
   -2.1025    1.1116   14.5445 C   0  0  0  0  0  0  0  0  0  0  0  0
   -2.5135    6.6468   11.3894 C   0  0  2  0  0  0  0  0  0  0  0  0
   -3.7902    7.2587   11.0814 O   0  0  0  0  0  0  0  0  0  0  0  0
   -3.0711    3.6436    8.8954 C   0  0  2  0  0  0  0  0  0  0  0  0
   -2.4769    3.4693    7.5362 N   0  0  0  0  0  0  0  0  0  0  0  0
   -6.7547    5.0071   11.3313 C   0  0  1  0  0  0  0  0  0  0  0  0
   -7.9370    5.0638   10.5314 O   0  0  0  0  0  0  0  0  0  0  0  0
   -3.4206    1.5210   13.7846 C   0  0  2  0  0  0  0  0  0  0  0  0
   -3.7300    0.5330   12.7161 N   0  0  0  0  0  0  0  0  0  0  0  0
   -1.5941    6.3951   10.1933 C   0  0  2  0  0  0  0  0  0  0  0  0
   -2.3565    6.0683    8.9880 O   0  0  0  0  0  0  0  0  0  0  0  0
   -4.3809    2.7379    9.0713 C   0  0  1  0  0  0  0  0  0  0  0  0
   -4.6950    2.6391   10.4786 O   0  0  0  0  0  0  0  0  0  0  0  0
   -6.4987    6.3482   12.0559 C   0  0  2  0  0  0  0  0  0  0  0  0
   -6.4131    7.3978   11.1203 O   0  0  0  0  0  0  0  0  0  0  0  0
   -3.2733    2.9600   13.1495 C   0  0  2  0  0  0  0  0  0  0  0  0
   -0.6736    5.2331   10.6026 C   0  0  2  0  0  0  0  0  0  0  0  0
   -1.4921    4.4713   11.4871 O   0  0  0  0  0  0  0  0  0  0  0  0
   -5.6479    3.3159    8.2786 C   0  0  2  0  0  0  0  0  0  0  0  0
   -5.3907    3.1609    6.8835 O   0  0  0  0  0  0  0  0  0  0  0  0
   -5.1754    6.2364   12.8842 C   0  0  2  0  0  0  0  0  0  0  0  0
   -5.2853    5.1351   13.8406 O   0  0  0  0  0  0  0  0  0  0  0  0
   -2.9349    4.0446   14.1956 C   0  0  2  0  0  0  0  0  0  0  0  0
   -2.6566    5.2456   13.4244 O   0  0  0  0  0  0  0  0  0  0  0  0
    0.6567    5.6604   11.2970 C   0  0  0  0  0  0  0  0  0  0  0  0
    1.7503    5.0041   10.6628 O   0  0  0  0  0  0  0  0  0  0  0  0
   -5.8746    4.8359    8.6258 C   0  0  1  0  0  0  0  0  0  0  0  0
   -4.6189    5.5257    8.2825 O   0  0  0  0  0  0  0  0  0  0  0  0
   -4.8497    7.5074   13.6341 C   0  0  0  0  0  0  0  0  0  0  0  0
   -6.0157    8.0419   14.2118 O   0  0  0  0  0  0  0  0  0  0  0  0
   -1.6650    3.6134   15.0424 C   0  0  1  0  0  0  0  0  0  0  0  0
   -1.4434    4.5420   16.1073 O   0  0  0  0  0  0  0  0  0  0  0  0
   -7.0957    5.5011    7.8545 C   0  0  0  0  0  0  0  0  0  0  0  0
   -7.2758    5.0677    6.4416 N   0  0  0  0  0  0  0  0  0  0  0  0
  1  2  1  6  0  0  0
  1  7  1  0  0  0  0
  1 30  1  0  0  0  0
  3  4  1  6  0  0  0
  3  9  1  0  0  0  0
  3 39  1  0  0  0  0
  5 10  1  0  0  0  0
  5 26  1  0  0  0  0
  5 32  1  1  0  0  0
  6 12  1  0  0  0  0
  6 36  1  0  0  0  0
  6 19  1  6  0  0  0
  7  8  1  6  0  0  0
  7 14  1  0  0  0  0
  9 16  1  0  0  0  0
 10 11  1  6  0  0  0
 10 18  1  0  0  0  0
 12 13  1  6  0  0  0
 12 20  1  0  0  0  0
 14 15  1  1  0  0  0
 14 22  1  0  0  0  0
 16 17  1  6  0  0  0
 16 24  1  0  0  0  0
 18 19  1  6  0  0  0
 18 25  1  0  0  0  0
 20 21  1  1  0  0  0
 20 27  1  0  0  0  0
 22 23  1  6  0  0  0
 22 29  1  0  0  0  0
 24  2  1  1  0  0  0
 24 31  1  0  0  0  0
 25 26  1  0  0  0  0
 25 33  1  1  0  0  0
 27 28  1  6  0  0  0
 27 35  1  0  0  0  0
 29 30  1  0  0  0  0
 29 37  1  1  0  0  0
 31 32  1  6  0  0  0
 31 39  1  0  0  0  0
 33 34  1  0  0  0  0
 35 36  1  0  0  0  0
 35 41  1  6  0  0  0
 37 38  1  0  0  0  0
 39 40  1  1  0  0  0
 41 42  1  0  0  0  0
M  END
>  <CHROM.1>
-171.15903484,80.10110936,-43.64434293,-93.11919741,-129.97997805,42.06712842
-4.98152206,171.81765640,-38.11746621,-3.88829968,4.53566550,11.50547353
0.94895206,-0.16501403,1.69931073

>  <Name>
ligand

>  <RI>
0

>  <Rbt.Current_Directory>
/home/itssahil/PROJECTS/Mol_Feturizer/Test_systems_manuscript/rnas/2o3w

>  <Rbt.Executable>
rbdock ($Id: //depot/dev/client3/rdock/2013.1/src/exe/rbdock.cxx#4 $)

>  <Rbt.Library>
libRbt.so (2013.1, Build901 2013/11/27)

>  <Rbt.Parameter_File>
/export/apps/rDock/src/rDock_2013.1_src/data/scripts/dock_solv.prm

>  <Rbt.Receptor>
prm/blind_docking_20.prm

>  <SCORE>
198.331

>  <SCORE.INTER>
151.549

>  <SCORE.INTER.CONST>
1

>  <SCORE.INTER.POLAR>
0

>  <SCORE.INTER.ROT>
9

>  <SCORE.INTER.SOLV>
29.7136

>  <SCORE.INTER.VDW>
81.5281

>  <SCORE.INTER.norm>
3.60831

>  <SCORE.INTRA>
20.2682

>  <SCORE.INTRA.DIHEDRAL>
-5.33521

>  <SCORE.INTRA.DIHEDRAL.0>
27.8999

>  <SCORE.INTRA.POLAR>
0

>  <SCORE.INTRA.POLAR.0>
0

>  <SCORE.INTRA.REPUL>
1

>  <SCORE.INTRA.REPUL.0>
0

>  <SCORE.INTRA.SOLV>
5.44508

>  <SCORE.INTRA.SOLV.lig_0>
-104.479

>  <SCORE.INTRA.VDW>
15.2133

>  <SCORE.INTRA.VDW.0>
-6.17816

>  <SCORE.INTRA.norm>
0.482577

>  <SCORE.RESTR>
26.5136

>  <SCORE.RESTR.CAVITY>
26.5136

>  <SCORE.RESTR.norm>
0.631277

>  <SCORE.SYSTEM>
0

>  <SCORE.SYSTEM.CONST>
0

>  <SCORE.SYSTEM.DIHEDRAL>
0

>  <SCORE.SYSTEM.SOLV>
0

>  <SCORE.SYSTEM.norm>
0

>  <SCORE.heavy>
42

>  <SCORE.norm>
4.72216

>  <RMSD>
15.225

$$$$
ligand
 OpenBabel02271912133D
libRbt.so/2013.1/901 2013/11/27
 42 45  0  0  0  0  0  0  0  0999 V2000
   -1.0932    5.5012   12.5102 C   0  0  2  0  0  0  0  0  0  0  0  0
   -1.9749    5.7961   13.6069 O   0  0  0  0  0  0  0  0  0  0  0  0
   -2.8317    1.7244   14.8245 C   0  0  2  0  0  0  0  0  0  0  0  0
   -3.3048    0.5338   15.5921 N   0  0  0  0  0  0  0  0  0  0  0  0
   -4.6176    6.1201   12.8459 C   0  0  1  0  0  0  0  0  0  0  0  0
   -4.1846    9.4417   11.1518 C   0  0  1  0  0  0  0  0  0  0  0  0
   -1.4050    6.5335   11.3853 C   0  0  2  0  0  0  0  0  0  0  0  0
   -1.4243    7.9203   11.8824 N   0  0  0  0  0  0  0  0  0  0  0  0
   -1.7067    2.5067   15.6146 C   0  0  0  0  0  0  0  0  0  0  0  0
   -6.0362    6.6658   12.4983 C   0  0  2  0  0  0  0  0  0  0  0  0
   -6.5851    6.1376   11.2659 O   0  0  0  0  0  0  0  0  0  0  0  0
   -4.0856   10.5765   12.2340 C   0  0  2  0  0  0  0  0  0  0  0  0
   -5.2623   11.4930   12.1551 N   0  0  0  0  0  0  0  0  0  0  0  0
   -2.7712    6.2798   10.7217 C   0  0  1  0  0  0  0  0  0  0  0  0
   -2.9973    7.2228    9.6726 O   0  0  0  0  0  0  0  0  0  0  0  0
   -1.2340    3.7343   14.7474 C   0  0  2  0  0  0  0  0  0  0  0  0
   -0.1632    4.4863   15.4556 N   0  0  0  0  0  0  0  0  0  0  0  0
   -5.7873    8.1747   12.5193 C   0  0  2  0  0  0  0  0  0  0  0  0
   -5.3932    8.6734   11.2014 O   0  0  0  0  0  0  0  0  0  0  0  0
   -2.7149   11.3812   12.0325 C   0  0  1  0  0  0  0  0  0  0  0  0
   -1.6181   10.5566   12.4864 O   0  0  0  0  0  0  0  0  0  0  0  0
   -2.8276    4.8271   10.1968 C   0  0  2  0  0  0  0  0  0  0  0  0
   -4.0662    4.5839    9.5713 O   0  0  0  0  0  0  0  0  0  0  0  0
   -2.4463    4.7000   14.4415 C   0  0  2  0  0  0  0  0  0  0  0  0
   -4.6771    8.4075   13.5579 C   0  0  2  0  0  0  0  0  0  0  0  0
   -3.9088    7.2090   13.4806 O   0  0  0  0  0  0  0  0  0  0  0  0
   -2.4658   11.8140   10.5100 C   0  0  2  0  0  0  0  0  0  0  0  0
   -3.4257   12.8187   10.1851 O   0  0  0  0  0  0  0  0  0  0  0  0
   -2.6098    3.8428   11.3940 C   0  0  2  0  0  0  0  0  0  0  0  0
   -1.3233    4.1212   12.0320 O   0  0  0  0  0  0  0  0  0  0  0  0
   -3.6109    3.9885   13.7184 C   0  0  2  0  0  0  0  0  0  0  0  0
   -4.6915    4.9609   13.6861 O   0  0  0  0  0  0  0  0  0  0  0  0
   -5.1797    8.6591   15.0133 C   0  0  0  0  0  0  0  0  0  0  0  0
   -5.9324    9.8678   15.0487 O   0  0  0  0  0  0  0  0  0  0  0  0
   -2.6241   10.5769    9.5474 C   0  0  1  0  0  0  0  0  0  0  0  0
   -3.9796   10.0486    9.7797 O   0  0  0  0  0  0  0  0  0  0  0  0
   -2.6433    2.3931   10.9683 C   0  0  0  0  0  0  0  0  0  0  0  0
   -3.8723    2.0974   10.3507 O   0  0  0  0  0  0  0  0  0  0  0  0
   -4.0454    2.6917   14.5216 C   0  0  1  0  0  0  0  0  0  0  0  0
   -5.0174    1.9526   13.7769 O   0  0  0  0  0  0  0  0  0  0  0  0
   -2.4259   10.9243    8.0084 C   0  0  0  0  0  0  0  0  0  0  0  0
   -3.1898   12.1019    7.5123 N   0  0  0  0  0  0  0  0  0  0  0  0
  1  2  1  1  0  0  0
  1  7  1  0  0  0  0
  1 30  1  0  0  0  0
  3  4  1  1  0  0  0
  3  9  1  0  0  0  0
  3 39  1  0  0  0  0
  5 10  1  0  0  0  0
  5 26  1  0  0  0  0
  5 32  1  1  0  0  0
  6 12  1  0  0  0  0
  6 36  1  0  0  0  0
  6 19  1  6  0  0  0
  7  8  1  1  0  0  0
  7 14  1  0  0  0  0
  9 16  1  0  0  0  0
 10 11  1  6  0  0  0
 10 18  1  0  0  0  0
 12 13  1  6  0  0  0
 12 20  1  0  0  0  0
 14 15  1  6  0  0  0
 14 22  1  0  0  0  0
 16 17  1  1  0  0  0
 16 24  1  0  0  0  0
 18 19  1  6  0  0  0
 18 25  1  0  0  0  0
 20 21  1  6  0  0  0
 20 27  1  0  0  0  0
 22 23  1  1  0  0  0
 22 29  1  0  0  0  0
 24  2  1  6  0  0  0
 24 31  1  0  0  0  0
 25 26  1  0  0  0  0
 25 33  1  1  0  0  0
 27 28  1  6  0  0  0
 27 35  1  0  0  0  0
 29 30  1  0  0  0  0
 29 37  1  6  0  0  0
 31 32  1  1  0  0  0
 31 39  1  0  0  0  0
 33 34  1  0  0  0  0
 35 36  1  0  0  0  0
 35 41  1  6  0  0  0
 37 38  1  0  0  0  0
 39 40  1  6  0  0  0
 41 42  1  0  0  0  0
M  END
>  <CHROM.1>
147.50562520,43.32700814,-127.10977800,-48.46886358,-63.97175021,-58.10976985
70.76915354,155.61853474,-48.90057315,-3.41296378,6.76998900,12.20920498
-1.36942862,1.19189654,-0.56190892

>  <Name>
ligand

>  <RI>
0

>  <Rbt.Current_Directory>
/home/itssahil/PROJECTS/Mol_Feturizer/Test_systems_manuscript/rnas/2o3w

>  <Rbt.Executable>
rbdock ($Id: //depot/dev/client3/rdock/2013.1/src/exe/rbdock.cxx#4 $)

>  <Rbt.Library>
libRbt.so (2013.1, Build901 2013/11/27)

>  <Rbt.Parameter_File>
/export/apps/rDock/src/rDock_2013.1_src/data/scripts/dock_solv.prm

>  <Rbt.Receptor>
prm/blind_docking_60.prm

>  <SCORE>
30.2496

>  <SCORE.INTER>
5.44667

>  <SCORE.INTER.CONST>
1

>  <SCORE.INTER.POLAR>
0

>  <SCORE.INTER.ROT>
9

>  <SCORE.INTER.SOLV>
27.5687

>  <SCORE.INTER.VDW>
-15.1585

>  <SCORE.INTER.norm>
0.129683

>  <SCORE.INTRA>
13.5055

>  <SCORE.INTRA.DIHEDRAL>
-11.2265

>  <SCORE.INTRA.DIHEDRAL.0>
27.8999

>  <SCORE.INTRA.POLAR>
0

>  <SCORE.INTRA.POLAR.0>
0

>  <SCORE.INTRA.REPUL>
0.63893

>  <SCORE.INTRA.REPUL.0>
0

>  <SCORE.INTRA.SOLV>
7.64273

>  <SCORE.INTRA.SOLV.lig_0>
-104.479

>  <SCORE.INTRA.VDW>
12.1027

>  <SCORE.INTRA.VDW.0>
-6.17816

>  <SCORE.INTRA.norm>
0.32156

>  <SCORE.RESTR>
11.2974

>  <SCORE.RESTR.CAVITY>
11.2974

>  <SCORE.RESTR.norm>
0.268986

>  <SCORE.SYSTEM>
0

>  <SCORE.SYSTEM.CONST>
0

>  <SCORE.SYSTEM.DIHEDRAL>
0

>  <SCORE.SYSTEM.SOLV>
0

>  <SCORE.SYSTEM.norm>
0

>  <SCORE.heavy>
42

>  <SCORE.norm>
0.720229

>  <RMSD>
15.271

$$$$
ligand
 OpenBabel02271912133D
libRbt.so/2013.1/901 2013/11/27
 42 45  0  0  0  0  0  0  0  0999 V2000
   -2.4336    6.5045   13.6452 C   0  0  2  0  0  0  0  0  0  0  0  0
   -2.2668    5.1794   13.1128 O   0  0  0  0  0  0  0  0  0  0  0  0
   -1.1930    1.4270   15.0002 C   0  0  2  0  0  0  0  0  0  0  0  0
   -1.2028    0.2120   15.8687 N   0  0  0  0  0  0  0  0  0  0  0  0
   -4.0758    3.4886   11.3116 C   0  0  1  0  0  0  0  0  0  0  0  0
   -4.9336    4.8218    8.4591 C   0  0  1  0  0  0  0  0  0  0  0  0
   -3.9626    6.7225   13.8525 C   0  0  2  0  0  0  0  0  0  0  0  0
   -4.5954    5.6142   14.5884 N   0  0  0  0  0  0  0  0  0  0  0  0
   -1.0621    2.7471   15.8616 C   0  0  0  0  0  0  0  0  0  0  0  0
   -2.7068    3.7709   10.6211 C   0  0  2  0  0  0  0  0  0  0  0  0
   -2.1930    5.1053   10.8546 O   0  0  0  0  0  0  0  0  0  0  0  0
   -5.4222    6.0423    7.5987 C   0  0  2  0  0  0  0  0  0  0  0  0
   -4.7185    7.2961    8.0033 N   0  0  0  0  0  0  0  0  0  0  0  0
   -4.7193    6.8599   12.5185 C   0  0  1  0  0  0  0  0  0  0  0  0
   -6.1077    7.0974   12.7564 O   0  0  0  0  0  0  0  0  0  0  0  0
   -1.0347    3.9886   14.8918 C   0  0  2  0  0  0  0  0  0  0  0  0
   -0.8974    5.2496   15.6693 N   0  0  0  0  0  0  0  0  0  0  0  0
   -3.0328    3.4320    9.1657 C   0  0  2  0  0  0  0  0  0  0  0  0
   -3.5174    4.6040    8.4359 O   0  0  0  0  0  0  0  0  0  0  0  0
   -7.0092    6.1973    7.7543 C   0  0  1  0  0  0  0  0  0  0  0  0
   -7.6569    5.1396    7.0123 O   0  0  0  0  0  0  0  0  0  0  0  0
   -4.0876    7.9959   11.6820 C   0  0  2  0  0  0  0  0  0  0  0  0
   -4.7798    8.1457   10.4643 O   0  0  0  0  0  0  0  0  0  0  0  0
   -2.3512    4.0438   14.0203 C   0  0  2  0  0  0  0  0  0  0  0  0
   -4.1005    2.3263    9.2162 C   0  0  2  0  0  0  0  0  0  0  0  0
   -4.8081    2.6179   10.4190 O   0  0  0  0  0  0  0  0  0  0  0  0
   -7.4917    6.1536    9.2816 C   0  0  2  0  0  0  0  0  0  0  0  0
   -7.0347    7.3494    9.9123 O   0  0  0  0  0  0  0  0  0  0  0  0
   -2.5803    7.6624   11.4240 C   0  0  2  0  0  0  0  0  0  0  0  0
   -1.8862    7.5024   12.7017 O   0  0  0  0  0  0  0  0  0  0  0  0
   -2.5754    2.7597   13.1920 C   0  0  2  0  0  0  0  0  0  0  0  0
   -3.8998    2.9069   12.6099 O   0  0  0  0  0  0  0  0  0  0  0  0
   -3.5399    0.8704    9.2337 C   0  0  0  0  0  0  0  0  0  0  0  0
   -2.5653    0.7540   10.2659 O   0  0  0  0  0  0  0  0  0  0  0  0
   -6.9013    4.8904   10.0151 C   0  0  1  0  0  0  0  0  0  0  0  0
   -5.4376    4.9844    9.8778 O   0  0  0  0  0  0  0  0  0  0  0  0
   -1.8792    8.7287   10.6144 C   0  0  0  0  0  0  0  0  0  0  0  0
   -1.7844    9.9187   11.3587 O   0  0  0  0  0  0  0  0  0  0  0  0
   -2.5126    1.4828   14.1308 C   0  0  1  0  0  0  0  0  0  0  0  0
   -2.5684    0.2892   13.3448 O   0  0  0  0  0  0  0  0  0  0  0  0
   -7.3038    4.7858   11.5499 C   0  0  0  0  0  0  0  0  0  0  0  0
   -8.7597    4.6379   11.8235 N   0  0  0  0  0  0  0  0  0  0  0  0
  1  2  1  6  0  0  0
  1  7  1  0  0  0  0
  1 30  1  0  0  0  0
  3  4  1  1  0  0  0
  3  9  1  0  0  0  0
  3 39  1  0  0  0  0
  5 10  1  0  0  0  0
  5 26  1  0  0  0  0
  5 32  1  1  0  0  0
  6 12  1  0  0  0  0
  6 36  1  0  0  0  0
  6 19  1  1  0  0  0
  7  8  1  6  0  0  0
  7 14  1  0  0  0  0
  9 16  1  0  0  0  0
 10 11  1  6  0  0  0
 10 18  1  0  0  0  0
 12 13  1  1  0  0  0
 12 20  1  0  0  0  0
 14 15  1  1  0  0  0
 14 22  1  0  0  0  0
 16 17  1  1  0  0  0
 16 24  1  0  0  0  0
 18 19  1  6  0  0  0
 18 25  1  0  0  0  0
 20 21  1  6  0  0  0
 20 27  1  0  0  0  0
 22 23  1  6  0  0  0
 22 29  1  0  0  0  0
 24  2  1  6  0  0  0
 24 31  1  0  0  0  0
 25 26  1  0  0  0  0
 25 33  1  1  0  0  0
 27 28  1  1  0  0  0
 27 35  1  0  0  0  0
 29 30  1  0  0  0  0
 29 37  1  1  0  0  0
 31 32  1  1  0  0  0
 31 39  1  0  0  0  0
 33 34  1  0  0  0  0
 35 36  1  0  0  0  0
 35 41  1  1  0  0  0
 37 38  1  0  0  0  0
 39 40  1  6  0  0  0
 41 42  1  0  0  0  0
M  END
>  <CHROM.1>
-78.21463167,-73.85799681,-89.95867675,-176.73167999,51.58104038,67.24333514
92.13412814,5.74951585,62.77289744,-3.90296281,4.83219349,11.50121802,-0.46617402
-0.91482896,0.06675813

>  <Name>
ligand

>  <RI>
0

>  <Rbt.Current_Directory>
/home/itssahil/PROJECTS/Mol_Feturizer/Test_systems_manuscript/rnas/2o3w

>  <Rbt.Executable>
rbdock ($Id: //depot/dev/client3/rdock/2013.1/src/exe/rbdock.cxx#4 $)

>  <Rbt.Library>
libRbt.so (2013.1, Build901 2013/11/27)

>  <Rbt.Parameter_File>
/export/apps/rDock/src/rDock_2013.1_src/data/scripts/dock_solv.prm

>  <Rbt.Receptor>
prm/blind_docking_20.prm

>  <SCORE>
50.6421

>  <SCORE.INTER>
9.03073

>  <SCORE.INTER.CONST>
1

>  <SCORE.INTER.POLAR>
0

>  <SCORE.INTER.ROT>
9

>  <SCORE.INTER.SOLV>
23.7483

>  <SCORE.INTER.VDW>
-11.4956

>  <SCORE.INTER.norm>
0.215017

>  <SCORE.INTRA>
6.21977

>  <SCORE.INTRA.DIHEDRAL>
-10.192

>  <SCORE.INTRA.DIHEDRAL.0>
27.8999

>  <SCORE.INTRA.POLAR>
0

>  <SCORE.INTRA.POLAR.0>
0

>  <SCORE.INTRA.REPUL>
0.128514

>  <SCORE.INTRA.REPUL.0>
0

>  <SCORE.INTRA.SOLV>
7.20515

>  <SCORE.INTRA.SOLV.lig_0>
-104.479

>  <SCORE.INTRA.VDW>
7.07064

>  <SCORE.INTRA.VDW.0>
-6.17816

>  <SCORE.INTRA.norm>
0.14809

>  <SCORE.RESTR>
35.3916

>  <SCORE.RESTR.CAVITY>
35.3916

>  <SCORE.RESTR.norm>
0.842658

>  <SCORE.SYSTEM>
0

>  <SCORE.SYSTEM.CONST>
0

>  <SCORE.SYSTEM.DIHEDRAL>
0

>  <SCORE.SYSTEM.SOLV>
0

>  <SCORE.SYSTEM.norm>
0

>  <SCORE.heavy>
42

>  <SCORE.norm>
1.20577

>  <RMSD>
15.277

$$$$
ligand
 OpenBabel02271912133D
libRbt.so/2013.1/901 2013/11/27
 42 45  0  0  0  0  0  0  0  0999 V2000
   -4.9361    3.3410   13.0938 C   0  0  2  0  0  0  0  0  0  0  0  0
   -3.9368    3.4534   12.0661 O   0  0  0  0  0  0  0  0  0  0  0  0
   -0.3238    2.9234   14.4032 C   0  0  2  0  0  0  0  0  0  0  0  0
    1.0800    3.0227   14.9031 N   0  0  0  0  0  0  0  0  0  0  0  0
   -3.7036    5.9675   12.3541 C   0  0  1  0  0  0  0  0  0  0  0  0
   -5.4187    6.0140    9.8275 C   0  0  1  0  0  0  0  0  0  0  0  0
   -5.4118    1.8571   13.1056 C   0  0  2  0  0  0  0  0  0  0  0  0
   -4.2881    0.9052   13.1490 N   0  0  0  0  0  0  0  0  0  0  0  0
   -0.3769    2.2562   12.9700 C   0  0  0  0  0  0  0  0  0  0  0  0
   -4.6889    7.1546   12.5792 C   0  0  2  0  0  0  0  0  0  0  0  0
   -6.0150    6.7485   12.9982 O   0  0  0  0  0  0  0  0  0  0  0  0
   -4.1099    5.7956    8.9860 C   0  0  2  0  0  0  0  0  0  0  0  0
   -4.0576    6.7365    7.8272 N   0  0  0  0  0  0  0  0  0  0  0  0
   -6.2480    1.5017   11.8625 C   0  0  1  0  0  0  0  0  0  0  0  0
   -6.6951    0.1468   11.9346 O   0  0  0  0  0  0  0  0  0  0  0  0
   -1.8801    2.1589   12.5078 C   0  0  2  0  0  0  0  0  0  0  0  0
   -1.9687    1.5213   11.1665 N   0  0  0  0  0  0  0  0  0  0  0  0
   -4.6104    7.8661   11.2275 C   0  0  2  0  0  0  0  0  0  0  0  0
   -5.6129    7.3558   10.2919 O   0  0  0  0  0  0  0  0  0  0  0  0
   -4.0459    4.2722    8.4938 C   0  0  1  0  0  0  0  0  0  0  0  0
   -3.7179    3.4302    9.6218 O   0  0  0  0  0  0  0  0  0  0  0  0
   -7.4366    2.4826   11.7429 C   0  0  2  0  0  0  0  0  0  0  0  0
   -8.2218    2.1602   10.6187 O   0  0  0  0  0  0  0  0  0  0  0  0
   -2.5413    3.5928   12.4579 C   0  0  2  0  0  0  0  0  0  0  0  0
   -3.1849    7.6251   10.7031 C   0  0  2  0  0  0  0  0  0  0  0  0
   -2.8531    6.3507   11.2491 O   0  0  0  0  0  0  0  0  0  0  0  0
   -5.4183    3.7736    7.8339 C   0  0  2  0  0  0  0  0  0  0  0  0
   -5.5729    4.4585    6.5916 O   0  0  0  0  0  0  0  0  0  0  0  0
   -6.8842    3.9428   11.6313 C   0  0  2  0  0  0  0  0  0  0  0  0
   -6.0655    4.2499   12.8040 O   0  0  0  0  0  0  0  0  0  0  0  0
   -2.4757    4.3301   13.8134 C   0  0  2  0  0  0  0  0  0  0  0  0
   -2.9514    5.6766   13.5393 O   0  0  0  0  0  0  0  0  0  0  0  0
   -2.1386    8.7044   11.1211 C   0  0  0  0  0  0  0  0  0  0  0  0
   -1.6617    8.4146   12.4316 O   0  0  0  0  0  0  0  0  0  0  0  0
   -6.6367    4.0843    8.7832 C   0  0  1  0  0  0  0  0  0  0  0  0
   -6.6091    5.5378    9.0218 O   0  0  0  0  0  0  0  0  0  0  0  0
   -7.9837    4.9732   11.5165 C   0  0  0  0  0  0  0  0  0  0  0  0
   -8.7597    4.9871   12.6899 O   0  0  0  0  0  0  0  0  0  0  0  0
   -0.9836    4.3595   14.3506 C   0  0  1  0  0  0  0  0  0  0  0  0
   -0.9455    4.9061   15.6717 O   0  0  0  0  0  0  0  0  0  0  0  0
   -8.0469    3.6514    8.1896 C   0  0  0  0  0  0  0  0  0  0  0  0
   -9.2246    3.9478    9.0510 N   0  0  0  0  0  0  0  0  0  0  0  0
  1  2  1  6  0  0  0
  1  7  1  0  0  0  0
  1 30  1  0  0  0  0
  3  4  1  6  0  0  0
  3  9  1  0  0  0  0
  3 39  1  0  0  0  0
  5 10  1  0  0  0  0
  5 26  1  0  0  0  0
  5 32  1  1  0  0  0
  6 12  1  0  0  0  0
  6 36  1  0  0  0  0
  6 19  1  6  0  0  0
  7  8  1  6  0  0  0
  7 14  1  0  0  0  0
  9 16  1  0  0  0  0
 10 11  1  6  0  0  0
 10 18  1  0  0  0  0
 12 13  1  6  0  0  0
 12 20  1  0  0  0  0
 14 15  1  1  0  0  0
 14 22  1  0  0  0  0
 16 17  1  6  0  0  0
 16 24  1  0  0  0  0
 18 19  1  6  0  0  0
 18 25  1  0  0  0  0
 20 21  1  1  0  0  0
 20 27  1  0  0  0  0
 22 23  1  6  0  0  0
 22 29  1  0  0  0  0
 24  2  1  1  0  0  0
 24 31  1  0  0  0  0
 25 26  1  0  0  0  0
 25 33  1  1  0  0  0
 27 28  1  6  0  0  0
 27 35  1  0  0  0  0
 29 30  1  0  0  0  0
 29 37  1  1  0  0  0
 31 32  1  6  0  0  0
 31 39  1  0  0  0  0
 33 34  1  0  0  0  0
 35 36  1  0  0  0  0
 35 41  1  6  0  0  0
 37 38  1  0  0  0  0
 39 40  1  1  0  0  0
 41 42  1  0  0  0  0
M  END
>  <CHROM.1>
-106.71993145,92.90610497,-68.60913070,-63.55298262,82.55722409,64.17364572
17.98755289,150.75062767,-179.13907039,-4.49592610,4.46500818,11.45698479
0.24666784,0.56984857,2.68730179

>  <Name>
ligand

>  <RI>
0

>  <Rbt.Current_Directory>
/home/itssahil/PROJECTS/Mol_Feturizer/Test_systems_manuscript/rnas/2o3w

>  <Rbt.Executable>
rbdock ($Id: //depot/dev/client3/rdock/2013.1/src/exe/rbdock.cxx#4 $)

>  <Rbt.Library>
libRbt.so (2013.1, Build901 2013/11/27)

>  <Rbt.Parameter_File>
/export/apps/rDock/src/rDock_2013.1_src/data/scripts/dock_solv.prm

>  <Rbt.Receptor>
prm/blind_docking_20.prm

>  <SCORE>
59.0546

>  <SCORE.INTER>
7.46593

>  <SCORE.INTER.CONST>
1

>  <SCORE.INTER.POLAR>
0

>  <SCORE.INTER.ROT>
9

>  <SCORE.INTER.SOLV>
24.4109

>  <SCORE.INTER.VDW>
-12.7597

>  <SCORE.INTER.norm>
0.17776

>  <SCORE.INTRA>
14.6786

>  <SCORE.INTRA.DIHEDRAL>
-6.02635

>  <SCORE.INTRA.DIHEDRAL.0>
27.8999

>  <SCORE.INTRA.POLAR>
0

>  <SCORE.INTRA.POLAR.0>
0

>  <SCORE.INTRA.REPUL>
0.624246

>  <SCORE.INTRA.REPUL.0>
0

>  <SCORE.INTRA.SOLV>
10.1039

>  <SCORE.INTRA.SOLV.lig_0>
-104.479

>  <SCORE.INTRA.VDW>
9.51857

>  <SCORE.INTRA.VDW.0>
-6.17816

>  <SCORE.INTRA.norm>
0.34949

>  <SCORE.RESTR>
36.9101

>  <SCORE.RESTR.CAVITY>
36.9101

>  <SCORE.RESTR.norm>
0.878812

>  <SCORE.SYSTEM>
0

>  <SCORE.SYSTEM.CONST>
0

>  <SCORE.SYSTEM.DIHEDRAL>
0

>  <SCORE.SYSTEM.SOLV>
0

>  <SCORE.SYSTEM.norm>
0

>  <SCORE.heavy>
42

>  <SCORE.norm>
1.40606

>  <RMSD>
15.290

$$$$
ligand
 OpenBabel02271912133D
libRbt.so/2013.1/901 2013/11/27
 42 45  0  0  0  0  0  0  0  0999 V2000
   -2.5844    3.8373   12.9410 C   0  0  2  0  0  0  0  0  0  0  0  0
   -2.9155    5.0811   13.5819 O   0  0  0  0  0  0  0  0  0  0  0  0
   -3.0099    9.2488   12.3913 C   0  0  2  0  0  0  0  0  0  0  0  0
   -3.2523   10.5104   11.6296 N   0  0  0  0  0  0  0  0  0  0  0  0
   -5.7466    5.4689   12.4360 C   0  0  1  0  0  0  0  0  0  0  0  0
   -6.0714    3.3173    8.9517 C   0  0  1  0  0  0  0  0  0  0  0  0
   -3.4543    2.7332   13.6137 C   0  0  2  0  0  0  0  0  0  0  0  0
   -4.8795    3.1007   13.6798 N   0  0  0  0  0  0  0  0  0  0  0  0
   -2.0369    8.2813   11.6045 C   0  0  0  0  0  0  0  0  0  0  0  0
   -6.7017    6.1030   11.3794 C   0  0  2  0  0  0  0  0  0  0  0  0
   -8.1074    5.8673   11.6391 O   0  0  0  0  0  0  0  0  0  0  0  0
   -5.3503    2.1731    9.7514 C   0  0  2  0  0  0  0  0  0  0  0  0
   -4.4624    2.7401   10.8102 N   0  0  0  0  0  0  0  0  0  0  0  0
   -3.0050    2.4331   15.0556 C   0  0  1  0  0  0  0  0  0  0  0  0
   -3.8026    1.3898   15.6181 O   0  0  0  0  0  0  0  0  0  0  0  0
   -1.8026    6.9827   12.4654 C   0  0  2  0  0  0  0  0  0  0  0  0
   -0.8782    6.0543   11.7603 N   0  0  0  0  0  0  0  0  0  0  0  0
   -6.1568    5.4972   10.0850 C   0  0  2  0  0  0  0  0  0  0  0  0
   -6.8185    4.2328    9.7624 O   0  0  0  0  0  0  0  0  0  0  0  0
   -4.5187    1.2586    8.7320 C   0  0  1  0  0  0  0  0  0  0  0  0
   -5.4420    0.4426    7.9766 O   0  0  0  0  0  0  0  0  0  0  0  0
   -1.5046    2.0620   15.0615 C   0  0  2  0  0  0  0  0  0  0  0  0
   -1.0816    1.7679   16.3726 O   0  0  0  0  0  0  0  0  0  0  0  0
   -3.1726    6.2501   12.7525 C   0  0  2  0  0  0  0  0  0  0  0  0
   -4.6492    5.2950   10.3128 C   0  0  2  0  0  0  0  0  0  0  0  0
   -4.5667    5.0469   11.7142 O   0  0  0  0  0  0  0  0  0  0  0  0
   -3.6129    2.1150    7.7251 C   0  0  2  0  0  0  0  0  0  0  0  0
   -2.5608    2.7049    8.4876 O   0  0  0  0  0  0  0  0  0  0  0  0
   -0.6815    3.2542   14.4691 C   0  0  2  0  0  0  0  0  0  0  0  0
   -1.1452    3.5462   13.1128 O   0  0  0  0  0  0  0  0  0  0  0  0
   -4.1967    7.1555   13.4713 C   0  0  2  0  0  0  0  0  0  0  0  0
   -5.4355    6.3942   13.4859 O   0  0  0  0  0  0  0  0  0  0  0  0
   -3.7536    6.5051    9.9033 C   0  0  0  0  0  0  0  0  0  0  0  0
   -4.4749    7.3409    9.0033 O   0  0  0  0  0  0  0  0  0  0  0  0
   -4.4699    3.2341    7.0214 C   0  0  1  0  0  0  0  0  0  0  0  0
   -5.0501    4.0469    8.1044 O   0  0  0  0  0  0  0  0  0  0  0  0
    0.8030    2.9737   14.4309 C   0  0  0  0  0  0  0  0  0  0  0  0
    1.0961    1.8122   15.1686 O   0  0  0  0  0  0  0  0  0  0  0  0
   -4.3815    8.5149   12.6753 C   0  0  1  0  0  0  0  0  0  0  0  0
   -5.2114    9.4125   13.4176 O   0  0  0  0  0  0  0  0  0  0  0  0
   -3.6397    4.1560    6.0267 C   0  0  0  0  0  0  0  0  0  0  0  0
   -2.1657    4.1626    6.2363 N   0  0  0  0  0  0  0  0  0  0  0  0
  1  2  1  1  0  0  0
  1  7  1  0  0  0  0
  1 30  1  0  0  0  0
  3  4  1  6  0  0  0
  3  9  1  0  0  0  0
  3 39  1  0  0  0  0
  5 10  1  0  0  0  0
  5 26  1  0  0  0  0
  5 32  1  1  0  0  0
  6 12  1  0  0  0  0
  6 36  1  0  0  0  0
  6 19  1  1  0  0  0
  7  8  1  1  0  0  0
  7 14  1  0  0  0  0
  9 16  1  0  0  0  0
 10 11  1  1  0  0  0
 10 18  1  0  0  0  0
 12 13  1  1  0  0  0
 12 20  1  0  0  0  0
 14 15  1  6  0  0  0
 14 22  1  0  0  0  0
 16 17  1  6  0  0  0
 16 24  1  0  0  0  0
 18 19  1  1  0  0  0
 18 25  1  0  0  0  0
 20 21  1  6  0  0  0
 20 27  1  0  0  0  0
 22 23  1  1  0  0  0
 22 29  1  0  0  0  0
 24  2  1  1  0  0  0
 24 31  1  0  0  0  0
 25 26  1  0  0  0  0
 25 33  1  1  0  0  0
 27 28  1  1  0  0  0
 27 35  1  0  0  0  0
 29 30  1  0  0  0  0
 29 37  1  6  0  0  0
 31 32  1  6  0  0  0
 31 39  1  0  0  0  0
 33 34  1  0  0  0  0
 35 36  1  0  0  0  0
 35 41  1  6  0  0  0
 37 38  1  0  0  0  0
 39 40  1  1  0  0  0
 41 42  1  0  0  0  0
M  END
>  <CHROM.1>
-133.35809192,-87.59329966,-154.83337533,98.87444616,-19.56342791,-11.05828675
-30.72851688,-98.16337452,-20.06303887,-3.69145124,4.61374338,11.55936208
-0.35320295,1.03796798,-2.60633976

>  <Name>
ligand

>  <RI>
0

>  <Rbt.Current_Directory>
/home/itssahil/PROJECTS/Mol_Feturizer/Test_systems_manuscript/rnas/2o3w

>  <Rbt.Executable>
rbdock ($Id: //depot/dev/client3/rdock/2013.1/src/exe/rbdock.cxx#4 $)

>  <Rbt.Library>
libRbt.so (2013.1, Build901 2013/11/27)

>  <Rbt.Parameter_File>
/export/apps/rDock/src/rDock_2013.1_src/data/scripts/dock_solv.prm

>  <Rbt.Receptor>
prm/blind_docking_20.prm

>  <SCORE>
69.6811

>  <SCORE.INTER>
-1.44934

>  <SCORE.INTER.CONST>
1

>  <SCORE.INTER.POLAR>
0

>  <SCORE.INTER.ROT>
9

>  <SCORE.INTER.SOLV>
19.8941

>  <SCORE.INTER.VDW>
-17.1976

>  <SCORE.INTER.norm>
-0.034508

>  <SCORE.INTRA>
35.5921

>  <SCORE.INTRA.DIHEDRAL>
10.8313

>  <SCORE.INTRA.DIHEDRAL.0>
27.8999

>  <SCORE.INTRA.POLAR>
0

>  <SCORE.INTRA.POLAR.0>
0

>  <SCORE.INTRA.REPUL>
0

>  <SCORE.INTRA.REPUL.0>
0

>  <SCORE.INTRA.SOLV>
11.6857

>  <SCORE.INTRA.SOLV.lig_0>
-104.479

>  <SCORE.INTRA.VDW>
24.3336

>  <SCORE.INTRA.VDW.0>
-6.17816

>  <SCORE.INTRA.norm>
0.84743

>  <SCORE.RESTR>
35.5384

>  <SCORE.RESTR.CAVITY>
35.5384

>  <SCORE.RESTR.norm>
0.846153

>  <SCORE.SYSTEM>
0

>  <SCORE.SYSTEM.CONST>
0

>  <SCORE.SYSTEM.DIHEDRAL>
0

>  <SCORE.SYSTEM.SOLV>
0

>  <SCORE.SYSTEM.norm>
0

>  <SCORE.heavy>
42

>  <SCORE.norm>
1.65907

>  <RMSD>
15.314

$$$$
ligand
 OpenBabel02271912133D
libRbt.so/2013.1/901 2013/11/27
 42 45  0  0  0  0  0  0  0  0999 V2000
   -4.8597    2.5253   10.2152 C   0  0  2  0  0  0  0  0  0  0  0  0
   -4.4378    3.7931   10.7462 O   0  0  0  0  0  0  0  0  0  0  0  0
   -7.4972    6.3362    9.0230 C   0  0  2  0  0  0  0  0  0  0  0  0
   -8.4191    7.4809    8.7584 N   0  0  0  0  0  0  0  0  0  0  0  0
   -2.7853    5.7158   10.5277 C   0  0  1  0  0  0  0  0  0  0  0  0
   -1.0790    4.6436   13.5706 C   0  0  1  0  0  0  0  0  0  0  0  0
   -3.5747    1.7759    9.7514 C   0  0  2  0  0  0  0  0  0  0  0  0
   -2.5268    1.7595   10.7870 N   0  0  0  0  0  0  0  0  0  0  0  0
   -7.8007    5.6667   10.4235 C   0  0  0  0  0  0  0  0  0  0  0  0
   -1.3938    6.4190   10.5224 C   0  0  2  0  0  0  0  0  0  0  0  0
   -0.3809    5.7157    9.7619 O   0  0  0  0  0  0  0  0  0  0  0  0
   -0.3208    3.3512   14.0435 C   0  0  2  0  0  0  0  0  0  0  0  0
   -0.0265    2.4523   12.8876 N   0  0  0  0  0  0  0  0  0  0  0  0
   -2.9492    2.4106    8.4957 C   0  0  1  0  0  0  0  0  0  0  0  0
   -1.7993    1.6695    8.0840 O   0  0  0  0  0  0  0  0  0  0  0  0
   -6.8146    4.4561   10.6348 C   0  0  2  0  0  0  0  0  0  0  0  0
   -7.0821    3.7924   11.9392 N   0  0  0  0  0  0  0  0  0  0  0  0
   -1.1227    6.5523   12.0218 C   0  0  2  0  0  0  0  0  0  0  0  0
   -0.4089    5.3872   12.5451 O   0  0  0  0  0  0  0  0  0  0  0  0
   -1.2007    2.5969   15.1497 C   0  0  1  0  0  0  0  0  0  0  0  0
   -1.1397    3.3448   16.3849 O   0  0  0  0  0  0  0  0  0  0  0  0
   -4.0077    2.4808    7.3716 C   0  0  2  0  0  0  0  0  0  0  0  0
   -3.4459    3.0444    6.2092 O   0  0  0  0  0  0  0  0  0  0  0  0
   -5.3133    4.9458   10.5873 C   0  0  2  0  0  0  0  0  0  0  0  0
   -2.4992    6.7088   12.6898 C   0  0  2  0  0  0  0  0  0  0  0  0
   -3.3591    5.9624   11.8320 O   0  0  0  0  0  0  0  0  0  0  0  0
   -2.7304    2.4140   14.7089 C   0  0  2  0  0  0  0  0  0  0  0  0
   -2.7608    1.4685   13.6405 O   0  0  0  0  0  0  0  0  0  0  0  0
   -5.2233    3.3329    7.8675 C   0  0  2  0  0  0  0  0  0  0  0  0
   -5.7825    2.7336    9.0791 O   0  0  0  0  0  0  0  0  0  0  0  0
   -4.9587    5.6623    9.2659 C   0  0  2  0  0  0  0  0  0  0  0  0
   -3.6225    6.1990    9.4690 O   0  0  0  0  0  0  0  0  0  0  0  0
   -2.9948    8.1807   12.8387 C   0  0  0  0  0  0  0  0  0  0  0  0
   -3.3138    8.7021   11.5522 O   0  0  0  0  0  0  0  0  0  0  0  0
   -3.3415    3.7879   14.2388 C   0  0  1  0  0  0  0  0  0  0  0  0
   -2.4811    4.2646   13.1421 O   0  0  0  0  0  0  0  0  0  0  0  0
   -6.3145    3.4490    6.8284 C   0  0  0  0  0  0  0  0  0  0  0  0
   -5.8539    4.1858    5.7219 O   0  0  0  0  0  0  0  0  0  0  0  0
   -5.9950    6.8281    8.9783 C   0  0  1  0  0  0  0  0  0  0  0  0
   -5.7582    7.3909    7.6850 O   0  0  0  0  0  0  0  0  0  0  0  0
   -4.8517    3.6916   13.7504 C   0  0  0  0  0  0  0  0  0  0  0  0
   -5.4696    4.9750   13.3170 N   0  0  0  0  0  0  0  0  0  0  0  0
  1  2  1  6  0  0  0
  1  7  1  0  0  0  0
  1 30  1  0  0  0  0
  3  4  1  1  0  0  0
  3  9  1  0  0  0  0
  3 39  1  0  0  0  0
  5 10  1  0  0  0  0
  5 26  1  0  0  0  0
  5 32  1  6  0  0  0
  6 12  1  0  0  0  0
  6 36  1  0  0  0  0
  6 19  1  6  0  0  0
  7  8  1  1  0  0  0
  7 14  1  0  0  0  0
  9 16  1  0  0  0  0
 10 11  1  6  0  0  0
 10 18  1  0  0  0  0
 12 13  1  6  0  0  0
 12 20  1  0  0  0  0
 14 15  1  6  0  0  0
 14 22  1  0  0  0  0
 16 17  1  1  0  0  0
 16 24  1  0  0  0  0
 18 19  1  1  0  0  0
 18 25  1  0  0  0  0
 20 21  1  1  0  0  0
 20 27  1  0  0  0  0
 22 23  1  6  0  0  0
 22 29  1  0  0  0  0
 24  2  1  6  0  0  0
 24 31  1  0  0  0  0
 25 26  1  0  0  0  0
 25 33  1  6  0  0  0
 27 28  1  6  0  0  0
 27 35  1  0  0  0  0
 29 30  1  0  0  0  0
 29 37  1  6  0  0  0
 31 32  1  1  0  0  0
 31 39  1  0  0  0  0
 33 34  1  0  0  0  0
 35 36  1  0  0  0  0
 35 41  1  6  0  0  0
 37 38  1  0  0  0  0
 39 40  1  6  0  0  0
 41 42  1  0  0  0  0
M  END
>  <CHROM.1>
147.05044823,32.93460255,-119.51998934,176.41873649,69.91105186,-66.10386326
17.29215034,178.72276434,179.14026350,-3.73424760,4.48969524,10.85561932
-2.67622745,-0.84650453,0.75931375

>  <Name>
ligand

>  <RI>
0

>  <Rbt.Current_Directory>
/home/itssahil/PROJECTS/Mol_Feturizer/Test_systems_manuscript/rnas/2o3w

>  <Rbt.Executable>
rbdock ($Id: //depot/dev/client3/rdock/2013.1/src/exe/rbdock.cxx#4 $)

>  <Rbt.Library>
libRbt.so (2013.1, Build901 2013/11/27)

>  <Rbt.Parameter_File>
/export/apps/rDock/src/rDock_2013.1_src/data/scripts/dock_solv.prm

>  <Rbt.Receptor>
prm/blind_docking_20.prm

>  <SCORE>
71.2591

>  <SCORE.INTER>
16.3575

>  <SCORE.INTER.CONST>
1

>  <SCORE.INTER.POLAR>
0

>  <SCORE.INTER.ROT>
9

>  <SCORE.INTER.SOLV>
24.9987

>  <SCORE.INTER.VDW>
-7.02786

>  <SCORE.INTER.norm>
0.389465

>  <SCORE.INTRA>
24.1344

>  <SCORE.INTRA.DIHEDRAL>
-7.04714

>  <SCORE.INTRA.DIHEDRAL.0>
27.8999

>  <SCORE.INTRA.POLAR>
0

>  <SCORE.INTRA.POLAR.0>
0

>  <SCORE.INTRA.REPUL>
1.14079

>  <SCORE.INTRA.REPUL.0>
0

>  <SCORE.INTRA.SOLV>
11.9179

>  <SCORE.INTRA.SOLV.lig_0>
-104.479

>  <SCORE.INTRA.VDW>
15.9951

>  <SCORE.INTRA.VDW.0>
-6.17816

>  <SCORE.INTRA.norm>
0.574628

>  <SCORE.RESTR>
30.7671

>  <SCORE.RESTR.CAVITY>
30.7671

>  <SCORE.RESTR.norm>
0.732551

>  <SCORE.SYSTEM>
0

>  <SCORE.SYSTEM.CONST>
0

>  <SCORE.SYSTEM.DIHEDRAL>
0

>  <SCORE.SYSTEM.SOLV>
0

>  <SCORE.SYSTEM.norm>
0

>  <SCORE.heavy>
42

>  <SCORE.norm>
1.69664

>  <RMSD>
15.502

$$$$
ligand
 OpenBabel02271912133D
libRbt.so/2013.1/901 2013/11/27
 42 45  0  0  0  0  0  0  0  0999 V2000
   -1.2384    3.4440   12.1146 C   0  0  2  0  0  0  0  0  0  0  0  0
   -2.6041    3.6988   11.7441 O   0  0  0  0  0  0  0  0  0  0  0  0
   -2.9404    7.8534   12.9369 C   0  0  2  0  0  0  0  0  0  0  0  0
   -3.3844    9.2750   13.0475 N   0  0  0  0  0  0  0  0  0  0  0  0
   -5.7618    4.3501   11.9932 C   0  0  1  0  0  0  0  0  0  0  0  0
   -6.7839    4.1169    9.2223 C   0  0  1  0  0  0  0  0  0  0  0  0
   -1.1086    1.9085   12.3459 C   0  0  2  0  0  0  0  0  0  0  0  0
   -1.6641    1.1215   11.2311 N   0  0  0  0  0  0  0  0  0  0  0  0
   -2.3517    7.5460   11.5014 C   0  0  0  0  0  0  0  0  0  0  0  0
   -6.1454    2.8568   11.7617 C   0  0  2  0  0  0  0  0  0  0  0  0
   -5.2387    2.1446   10.8843 O   0  0  0  0  0  0  0  0  0  0  0  0
   -7.3038    4.7108    7.8637 C   0  0  2  0  0  0  0  0  0  0  0  0
   -7.5490    3.6262    6.8665 N   0  0  0  0  0  0  0  0  0  0  0  0
   -1.8355    1.4463   13.6222 C   0  0  1  0  0  0  0  0  0  0  0  0
   -1.6570    0.0421   13.8154 O   0  0  0  0  0  0  0  0  0  0  0  0
   -1.8816    6.0429   11.4538 C   0  0  2  0  0  0  0  0  0  0  0  0
   -1.3076    5.7223   10.1191 N   0  0  0  0  0  0  0  0  0  0  0  0
   -7.5831    2.9941   11.2581 C   0  0  2  0  0  0  0  0  0  0  0  0
   -7.6332    3.1182    9.8011 O   0  0  0  0  0  0  0  0  0  0  0  0
   -6.2398    5.7726    7.3092 C   0  0  1  0  0  0  0  0  0  0  0  0
   -6.3166    6.9729    8.1107 O   0  0  0  0  0  0  0  0  0  0  0  0
   -1.3145    2.2533   14.8332 C   0  0  2  0  0  0  0  0  0  0  0  0
   -1.9583    1.8303   16.0126 O   0  0  0  0  0  0  0  0  0  0  0  0
   -3.0897    5.0715   11.7585 C   0  0  2  0  0  0  0  0  0  0  0  0
   -8.1554    4.2460   11.9440 C   0  0  2  0  0  0  0  0  0  0  0  0
   -7.0075    5.0755   12.1077 O   0  0  0  0  0  0  0  0  0  0  0  0
   -4.7382    5.2138    7.3234 C   0  0  2  0  0  0  0  0  0  0  0  0
   -4.6496    4.1912    6.3320 O   0  0  0  0  0  0  0  0  0  0  0  0
   -1.5698    3.7765   14.5796 C   0  0  2  0  0  0  0  0  0  0  0  0
   -0.9001    4.1888   13.3461 O   0  0  0  0  0  0  0  0  0  0  0  0
   -3.7529    5.3511   13.1250 C   0  0  2  0  0  0  0  0  0  0  0  0
   -4.9366    4.5069   13.1549 O   0  0  0  0  0  0  0  0  0  0  0  0
   -8.8580    3.9837   13.3122 C   0  0  0  0  0  0  0  0  0  0  0  0
  -10.0515    3.2380   13.0928 O   0  0  0  0  0  0  0  0  0  0  0  0
   -4.3752    4.6313    8.7415 C   0  0  1  0  0  0  0  0  0  0  0  0
   -5.3780    3.5900    9.0251 O   0  0  0  0  0  0  0  0  0  0  0  0
   -1.0830    4.6449   15.7165 C   0  0  0  0  0  0  0  0  0  0  0  0
   -1.4738    5.9802   15.5085 O   0  0  0  0  0  0  0  0  0  0  0  0
   -4.1512    6.8821   13.2389 C   0  0  1  0  0  0  0  0  0  0  0  0
   -4.6251    7.1719   14.5569 O   0  0  0  0  0  0  0  0  0  0  0  0
   -2.9092    4.0226    8.8358 C   0  0  0  0  0  0  0  0  0  0  0  0
   -2.7346    2.6720    8.2340 N   0  0  0  0  0  0  0  0  0  0  0  0
  1  2  1  1  0  0  0
  1  7  1  0  0  0  0
  1 30  1  0  0  0  0
  3  4  1  6  0  0  0
  3  9  1  0  0  0  0
  3 39  1  0  0  0  0
  5 10  1  0  0  0  0
  5 26  1  0  0  0  0
  5 32  1  1  0  0  0
  6 12  1  0  0  0  0
  6 36  1  0  0  0  0
  6 19  1  6  0  0  0
  7  8  1  6  0  0  0
  7 14  1  0  0  0  0
  9 16  1  0  0  0  0
 10 11  1  6  0  0  0
 10 18  1  0  0  0  0
 12 13  1  6  0  0  0
 12 20  1  0  0  0  0
 14 15  1  1  0  0  0
 14 22  1  0  0  0  0
 16 17  1  6  0  0  0
 16 24  1  0  0  0  0
 18 19  1  6  0  0  0
 18 25  1  0  0  0  0
 20 21  1  1  0  0  0
 20 27  1  0  0  0  0
 22 23  1  1  0  0  0
 22 29  1  0  0  0  0
 24  2  1  1  0  0  0
 24 31  1  0  0  0  0
 25 26  1  0  0  0  0
 25 33  1  1  0  0  0
 27 28  1  6  0  0  0
 27 35  1  0  0  0  0
 29 30  1  0  0  0  0
 29 37  1  1  0  0  0
 31 32  1  6  0  0  0
 31 39  1  0  0  0  0
 33 34  1  0  0  0  0
 35 36  1  0  0  0  0
 35 41  1  6  0  0  0
 37 38  1  0  0  0  0
 39 40  1  1  0  0  0
 41 42  1  0  0  0  0
M  END
>  <CHROM.1>
166.36146128,29.38204942,-51.13653437,-152.04662284,-67.87141426,-173.22917156
-40.89991679,135.04981439,-77.58991999,-4.21470835,4.29931347,11.54187363
-0.80385811,0.11044809,-1.57357522

>  <Name>
ligand

>  <RI>
0

>  <Rbt.Current_Directory>
/home/itssahil/PROJECTS/Mol_Feturizer/Test_systems_manuscript/rnas/2o3w

>  <Rbt.Executable>
rbdock ($Id: //depot/dev/client3/rdock/2013.1/src/exe/rbdock.cxx#4 $)

>  <Rbt.Library>
libRbt.so (2013.1, Build901 2013/11/27)

>  <Rbt.Parameter_File>
/export/apps/rDock/src/rDock_2013.1_src/data/scripts/dock_solv.prm

>  <Rbt.Receptor>
prm/blind_docking_20.prm

>  <SCORE>
50.276

>  <SCORE.INTER>
14.0311

>  <SCORE.INTER.CONST>
1

>  <SCORE.INTER.POLAR>
0

>  <SCORE.INTER.ROT>
9

>  <SCORE.INTER.SOLV>
24.4566

>  <SCORE.INTER.VDW>
-8.3981

>  <SCORE.INTER.norm>
0.334075

>  <SCORE.INTRA>
1.74699

>  <SCORE.INTRA.DIHEDRAL>
-10.4251

>  <SCORE.INTRA.DIHEDRAL.0>
27.8999

>  <SCORE.INTRA.POLAR>
0

>  <SCORE.INTRA.POLAR.0>
0

>  <SCORE.INTRA.REPUL>
0

>  <SCORE.INTRA.REPUL.0>
0

>  <SCORE.INTRA.SOLV>
4.48288

>  <SCORE.INTRA.SOLV.lig_0>
-104.479

>  <SCORE.INTRA.VDW>
4.71809

>  <SCORE.INTRA.VDW.0>
-6.17816

>  <SCORE.INTRA.norm>
0.041595

>  <SCORE.RESTR>
34.4979

>  <SCORE.RESTR.CAVITY>
34.4979

>  <SCORE.RESTR.norm>
0.821378

>  <SCORE.SYSTEM>
0

>  <SCORE.SYSTEM.CONST>
0

>  <SCORE.SYSTEM.DIHEDRAL>
0

>  <SCORE.SYSTEM.SOLV>
0

>  <SCORE.SYSTEM.norm>
0

>  <SCORE.heavy>
42

>  <SCORE.norm>
1.19705

>  <RMSD>
15.503

$$$$
ligand
 OpenBabel02271912133D
libRbt.so/2013.1/901 2013/11/27
 42 45  0  0  0  0  0  0  0  0999 V2000
   -5.6617    2.3162    8.3795 C   0  0  2  0  0  0  0  0  0  0  0  0
   -5.0467    2.6750    9.6285 O   0  0  0  0  0  0  0  0  0  0  0  0
   -8.0998    5.4296   11.0021 C   0  0  2  0  0  0  0  0  0  0  0  0
   -8.8449    6.4585   11.7874 N   0  0  0  0  0  0  0  0  0  0  0  0
   -3.4975    5.2812   10.4547 C   0  0  1  0  0  0  0  0  0  0  0  0
   -1.5750    4.7708   12.9816 C   0  0  1  0  0  0  0  0  0  0  0  0
   -4.7066    1.3062    7.6754 C   0  0  2  0  0  0  0  0  0  0  0  0
   -4.2932    0.2071    8.5652 N   0  0  0  0  0  0  0  0  0  0  0  0
   -7.8471    4.1248   11.8598 C   0  0  0  0  0  0  0  0  0  0  0  0
   -2.0825    5.1654    9.8103 C   0  0  2  0  0  0  0  0  0  0  0  0
   -1.6733    3.8047    9.5276 O   0  0  0  0  0  0  0  0  0  0  0  0
   -0.8306    4.4434   14.3260 C   0  0  2  0  0  0  0  0  0  0  0  0
    0.0992    3.2874   14.1531 N   0  0  0  0  0  0  0  0  0  0  0  0
   -3.4166    1.9775    7.1691 C   0  0  1  0  0  0  0  0  0  0  0  0
   -2.5908    1.0249    6.4973 O   0  0  0  0  0  0  0  0  0  0  0  0
   -7.0801    3.0720   10.9733 C   0  0  2  0  0  0  0  0  0  0  0  0
   -6.8379    1.8237   11.7457 N   0  0  0  0  0  0  0  0  0  0  0  0
   -1.2279    5.9150   10.8335 C   0  0  2  0  0  0  0  0  0  0  0  0
   -0.7108    5.0152   11.8649 O   0  0  0  0  0  0  0  0  0  0  0  0
   -1.9119    4.1461   15.4702 C   0  0  1  0  0  0  0  0  0  0  0  0
   -2.5287    5.3921   15.8652 O   0  0  0  0  0  0  0  0  0  0  0  0
   -3.7803    3.1612    6.2440 C   0  0  2  0  0  0  0  0  0  0  0  0
   -2.6096    3.7763    5.7585 O   0  0  0  0  0  0  0  0  0  0  0  0
   -5.7023    3.6625   10.4744 C   0  0  2  0  0  0  0  0  0  0  0  0
   -2.1412    6.9929   11.4413 C   0  0  2  0  0  0  0  0  0  0  0  0
   -3.4327    6.3924   11.3778 O   0  0  0  0  0  0  0  0  0  0  0  0
   -3.0436    3.1123   15.0032 C   0  0  2  0  0  0  0  0  0  0  0  0
   -2.4278    1.8322   14.8663 O   0  0  0  0  0  0  0  0  0  0  0  0
   -4.6522    4.1854    7.0442 C   0  0  2  0  0  0  0  0  0  0  0  0
   -5.8554    3.5214    7.5453 O   0  0  0  0  0  0  0  0  0  0  0  0
   -5.8670    4.9732    9.6743 C   0  0  2  0  0  0  0  0  0  0  0  0
   -4.5146    5.4630    9.4609 O   0  0  0  0  0  0  0  0  0  0  0  0
   -2.1233    8.3654   10.6995 C   0  0  0  0  0  0  0  0  0  0  0  0
   -2.2423    9.4169   11.6529 O   0  0  0  0  0  0  0  0  0  0  0  0
   -3.6760    3.5625   13.6322 C   0  0  1  0  0  0  0  0  0  0  0  0
   -2.5579    3.6596   12.6780 O   0  0  0  0  0  0  0  0  0  0  0  0
   -5.0605    5.3778    6.2103 C   0  0  0  0  0  0  0  0  0  0  0  0
   -4.0511    6.3574    6.2380 O   0  0  0  0  0  0  0  0  0  0  0  0
   -6.7196    6.0206   10.5060 C   0  0  1  0  0  0  0  0  0  0  0  0
   -7.0001    7.1735    9.7075 O   0  0  0  0  0  0  0  0  0  0  0  0
   -4.7888    2.5719   13.0761 C   0  0  0  0  0  0  0  0  0  0  0  0
   -4.3004    1.2316   12.6499 N   0  0  0  0  0  0  0  0  0  0  0  0
  1  2  1  1  0  0  0
  1  7  1  0  0  0  0
  1 30  1  0  0  0  0
  3  4  1  1  0  0  0
  3  9  1  0  0  0  0
  3 39  1  0  0  0  0
  5 10  1  0  0  0  0
  5 26  1  0  0  0  0
  5 32  1  6  0  0  0
  6 12  1  0  0  0  0
  6 36  1  0  0  0  0
  6 19  1  6  0  0  0
  7  8  1  1  0  0  0
  7 14  1  0  0  0  0
  9 16  1  0  0  0  0
 10 11  1  1  0  0  0
 10 18  1  0  0  0  0
 12 13  1  6  0  0  0
 12 20  1  0  0  0  0
 14 15  1  6  0  0  0
 14 22  1  0  0  0  0
 16 17  1  1  0  0  0
 16 24  1  0  0  0  0
 18 19  1  1  0  0  0
 18 25  1  0  0  0  0
 20 21  1  6  0  0  0
 20 27  1  0  0  0  0
 22 23  1  1  0  0  0
 22 29  1  0  0  0  0
 24  2  1  6  0  0  0
 24 31  1  0  0  0  0
 25 26  1  0  0  0  0
 25 33  1  6  0  0  0
 27 28  1  6  0  0  0
 27 35  1  0  0  0  0
 29 30  1  0  0  0  0
 29 37  1  6  0  0  0
 31 32  1  1  0  0  0
 31 39  1  0  0  0  0
 33 34  1  0  0  0  0
 35 36  1  0  0  0  0
 35 41  1  6  0  0  0
 37 38  1  0  0  0  0
 39 40  1  6  0  0  0
 41 42  1  0  0  0  0
M  END
>  <CHROM.1>
177.30082233,65.25399766,-85.77918005,-151.20364356,-143.98200405,-85.59023400
-34.93962774,150.03728729,-67.48295049,-3.94593335,4.27097775,10.60879491
2.68137681,-1.13739356,-0.63316013

>  <Name>
ligand

>  <RI>
0

>  <Rbt.Current_Directory>
/home/itssahil/PROJECTS/Mol_Feturizer/Test_systems_manuscript/rnas/2o3w

>  <Rbt.Executable>
rbdock ($Id: //depot/dev/client3/rdock/2013.1/src/exe/rbdock.cxx#4 $)

>  <Rbt.Library>
libRbt.so (2013.1, Build901 2013/11/27)

>  <Rbt.Parameter_File>
/export/apps/rDock/src/rDock_2013.1_src/data/scripts/dock_solv.prm

>  <Rbt.Receptor>
prm/blind_docking_20.prm

>  <SCORE>
70.6305

>  <SCORE.INTER>
32.5256

>  <SCORE.INTER.CONST>
1

>  <SCORE.INTER.POLAR>
0

>  <SCORE.INTER.ROT>
9

>  <SCORE.INTER.SOLV>
17.0596

>  <SCORE.INTER.VDW>
6.39721

>  <SCORE.INTER.norm>
0.77442

>  <SCORE.INTRA>
3.34093

>  <SCORE.INTRA.DIHEDRAL>
-9.57751

>  <SCORE.INTRA.DIHEDRAL.0>
27.8999

>  <SCORE.INTRA.POLAR>
0

>  <SCORE.INTRA.POLAR.0>
0

>  <SCORE.INTRA.REPUL>
0.0536174

>  <SCORE.INTRA.REPUL.0>
0

>  <SCORE.INTRA.SOLV>
3.22674

>  <SCORE.INTRA.SOLV.lig_0>
-104.479

>  <SCORE.INTRA.VDW>
6.24823

>  <SCORE.INTRA.VDW.0>
-6.17816

>  <SCORE.INTRA.norm>
0.079546

>  <SCORE.RESTR>
34.764

>  <SCORE.RESTR.CAVITY>
34.764

>  <SCORE.RESTR.norm>
0.827714

>  <SCORE.SYSTEM>
0

>  <SCORE.SYSTEM.CONST>
0

>  <SCORE.SYSTEM.DIHEDRAL>
0

>  <SCORE.SYSTEM.SOLV>
0

>  <SCORE.SYSTEM.norm>
0

>  <SCORE.heavy>
42

>  <SCORE.norm>
1.68168

>  <RMSD>
15.521

$$$$
ligand
 OpenBabel02271912133D
libRbt.so/2013.1/901 2013/11/27
 42 45  0  0  0  0  0  0  0  0999 V2000
   -5.2688    2.2128    8.3705 C   0  0  2  0  0  0  0  0  0  0  0  0
   -4.6819    2.6034    9.6236 O   0  0  0  0  0  0  0  0  0  0  0  0
   -8.3286    3.8214   11.6270 C   0  0  2  0  0  0  0  0  0  0  0  0
   -9.2913    4.4100   12.6055 N   0  0  0  0  0  0  0  0  0  0  0  0
   -4.2270    5.6472   10.6996 C   0  0  1  0  0  0  0  0  0  0  0  0
   -2.0830    5.0235   12.7003 C   0  0  1  0  0  0  0  0  0  0  0  0
   -4.2267    1.3131    7.6407 C   0  0  2  0  0  0  0  0  0  0  0  0
   -3.7041    0.2407    8.5053 N   0  0  0  0  0  0  0  0  0  0  0  0
   -7.4830    2.6570   12.2833 C   0  0  0  0  0  0  0  0  0  0  0  0
   -2.8259    5.3172   10.1005 C   0  0  2  0  0  0  0  0  0  0  0  0
   -2.3682    3.9710   10.3789 O   0  0  0  0  0  0  0  0  0  0  0  0
   -2.6727    5.4734   14.0855 C   0  0  2  0  0  0  0  0  0  0  0  0
   -1.6082    6.0613   14.9527 N   0  0  0  0  0  0  0  0  0  0  0  0
   -3.0103    2.1147    7.1418 C   0  0  1  0  0  0  0  0  0  0  0  0
   -2.1022    1.2591    6.4461 O   0  0  0  0  0  0  0  0  0  0  0  0
   -6.5053    2.0632   11.1998 C   0  0  2  0  0  0  0  0  0  0  0  0
   -5.7025    0.9531   11.7801 N   0  0  0  0  0  0  0  0  0  0  0  0
   -1.9765    6.4416   10.6949 C   0  0  2  0  0  0  0  0  0  0  0  0
   -1.3956    6.0548   11.9809 O   0  0  0  0  0  0  0  0  0  0  0  0
   -3.3667    4.2172   14.7977 C   0  0  1  0  0  0  0  0  0  0  0  0
   -4.6098    3.9244   14.1210 O   0  0  0  0  0  0  0  0  0  0  0  0
   -3.4918    3.2766    6.2434 C   0  0  2  0  0  0  0  0  0  0  0  0
   -2.3887    4.0105    5.7648 O   0  0  0  0  0  0  0  0  0  0  0  0
   -5.5386    3.1842   10.6479 C   0  0  2  0  0  0  0  0  0  0  0  0
   -2.9174    7.6484   10.8489 C   0  0  2  0  0  0  0  0  0  0  0  0
   -4.1841    7.0395   11.0878 O   0  0  0  0  0  0  0  0  0  0  0  0
   -2.4374    2.9119   14.8001 C   0  0  2  0  0  0  0  0  0  0  0  0
   -1.3456    3.1618   15.6844 O   0  0  0  0  0  0  0  0  0  0  0  0
   -4.4517    4.1965    7.0692 C   0  0  2  0  0  0  0  0  0  0  0  0
   -5.5825    3.4106    7.5626 O   0  0  0  0  0  0  0  0  0  0  0  0
   -6.2980    4.3841   10.0405 C   0  0  2  0  0  0  0  0  0  0  0  0
   -5.2765    5.3804    9.7602 O   0  0  0  0  0  0  0  0  0  0  0  0
   -2.9759    8.5993    9.6133 C   0  0  0  0  0  0  0  0  0  0  0  0
   -1.8908    9.5199    9.6764 O   0  0  0  0  0  0  0  0  0  0  0  0
   -1.9050    2.6059   13.3492 C   0  0  1  0  0  0  0  0  0  0  0  0
   -1.1913    3.8180   12.9112 O   0  0  0  0  0  0  0  0  0  0  0  0
   -4.9779    5.3611    6.2625 C   0  0  0  0  0  0  0  0  0  0  0  0
   -6.3105    5.6359    6.6200 O   0  0  0  0  0  0  0  0  0  0  0  0
   -7.3595    4.9437   11.0777 C   0  0  1  0  0  0  0  0  0  0  0  0
   -8.1648    5.9535   10.4632 O   0  0  0  0  0  0  0  0  0  0  0  0
   -0.9440    1.3417   13.2652 C   0  0  0  0  0  0  0  0  0  0  0  0
   -0.7822    0.7470   11.9099 N   0  0  0  0  0  0  0  0  0  0  0  0
  1  2  1  1  0  0  0
  1  7  1  0  0  0  0
  1 30  1  0  0  0  0
  3  4  1  1  0  0  0
  3  9  1  0  0  0  0
  3 39  1  0  0  0  0
  5 10  1  0  0  0  0
  5 26  1  0  0  0  0
  5 32  1  6  0  0  0
  6 12  1  0  0  0  0
  6 36  1  0  0  0  0
  6 19  1  1  0  0  0
  7  8  1  1  0  0  0
  7 14  1  0  0  0  0
  9 16  1  0  0  0  0
 10 11  1  1  0  0  0
 10 18  1  0  0  0  0
 12 13  1  1  0  0  0
 12 20  1  0  0  0  0
 14 15  1  6  0  0  0
 14 22  1  0  0  0  0
 16 17  1  1  0  0  0
 16 24  1  0  0  0  0
 18 19  1  1  0  0  0
 18 25  1  0  0  0  0
 20 21  1  6  0  0  0
 20 27  1  0  0  0  0
 22 23  1  1  0  0  0
 22 29  1  0  0  0  0
 24  2  1  6  0  0  0
 24 31  1  0  0  0  0
 25 26  1  0  0  0  0
 25 33  1  6  0  0  0
 27 28  1  1  0  0  0
 27 35  1  0  0  0  0
 29 30  1  0  0  0  0
 29 37  1  6  0  0  0
 31 32  1  1  0  0  0
 31 39  1  0  0  0  0
 33 34  1  0  0  0  0
 35 36  1  0  0  0  0
 35 41  1  1  0  0  0
 37 38  1  0  0  0  0
 39 40  1  6  0  0  0
 41 42  1  0  0  0  0
M  END
>  <CHROM.1>
-165.77521146,69.29216455,-23.98037120,-116.68687134,-83.70940867,143.58361060
-42.61608676,117.75723984,160.54507673,-3.97673376,4.14636094,10.60401085
2.25400837,-0.95716467,-1.07025992

>  <Name>
ligand

>  <RI>
0

>  <Rbt.Current_Directory>
/home/itssahil/PROJECTS/Mol_Feturizer/Test_systems_manuscript/rnas/2o3w

>  <Rbt.Executable>
rbdock ($Id: //depot/dev/client3/rdock/2013.1/src/exe/rbdock.cxx#4 $)

>  <Rbt.Library>
libRbt.so (2013.1, Build901 2013/11/27)

>  <Rbt.Parameter_File>
/export/apps/rDock/src/rDock_2013.1_src/data/scripts/dock_solv.prm

>  <Rbt.Receptor>
prm/blind_docking_20.prm

>  <SCORE>
56.0937

>  <SCORE.INTER>
15.1057

>  <SCORE.INTER.CONST>
1

>  <SCORE.INTER.POLAR>
0

>  <SCORE.INTER.ROT>
9

>  <SCORE.INTER.SOLV>
18.6554

>  <SCORE.INTER.VDW>
-5.74802

>  <SCORE.INTER.norm>
0.359659

>  <SCORE.INTRA>
2.97559

>  <SCORE.INTRA.DIHEDRAL>
0.435466

>  <SCORE.INTRA.DIHEDRAL.0>
27.8999

>  <SCORE.INTRA.POLAR>
0

>  <SCORE.INTRA.POLAR.0>
0

>  <SCORE.INTRA.REPUL>
0

>  <SCORE.INTRA.REPUL.0>
0

>  <SCORE.INTRA.SOLV>
-2.50497

>  <SCORE.INTRA.SOLV.lig_0>
-104.479

>  <SCORE.INTRA.VDW>
4.01034

>  <SCORE.INTRA.VDW.0>
-6.17816

>  <SCORE.INTRA.norm>
0.0708474

>  <SCORE.RESTR>
38.0124

>  <SCORE.RESTR.CAVITY>
38.0124

>  <SCORE.RESTR.norm>
0.905058

>  <SCORE.SYSTEM>
0

>  <SCORE.SYSTEM.CONST>
0

>  <SCORE.SYSTEM.DIHEDRAL>
0

>  <SCORE.SYSTEM.SOLV>
0

>  <SCORE.SYSTEM.norm>
0

>  <SCORE.heavy>
42

>  <SCORE.norm>
1.33556

>  <RMSD>
15.527

$$$$
ligand
 OpenBabel02271912133D
libRbt.so/2013.1/901 2013/11/27
 42 45  0  0  0  0  0  0  0  0999 V2000
   -4.1341    3.8626    8.4883 C   0  0  2  0  0  0  0  0  0  0  0  0
   -5.5496    3.9225    8.7336 O   0  0  0  0  0  0  0  0  0  0  0  0
   -8.1878    5.9322   11.5259 C   0  0  2  0  0  0  0  0  0  0  0  0
   -8.7501    6.5597   12.7590 N   0  0  0  0  0  0  0  0  0  0  0  0
   -3.7771    6.1865   10.5792 C   0  0  1  0  0  0  0  0  0  0  0  0
   -1.7023    5.4254   13.0640 C   0  0  1  0  0  0  0  0  0  0  0  0
   -3.9148    2.8352    7.3374 C   0  0  2  0  0  0  0  0  0  0  0  0
   -4.7907    3.0893    6.1804 N   0  0  0  0  0  0  0  0  0  0  0  0
   -7.9431    4.3830   11.7306 C   0  0  0  0  0  0  0  0  0  0  0  0
   -2.3694    6.2553    9.9125 C   0  0  2  0  0  0  0  0  0  0  0  0
   -1.9119    4.9922    9.3700 O   0  0  0  0  0  0  0  0  0  0  0  0
   -0.9306    4.5080   14.0797 C   0  0  2  0  0  0  0  0  0  0  0  0
   -0.4466    3.2626   13.4122 N   0  0  0  0  0  0  0  0  0  0  0  0
   -4.1820    1.3873    7.7879 C   0  0  1  0  0  0  0  0  0  0  0  0
   -3.9308    0.4782    6.7149 O   0  0  0  0  0  0  0  0  0  0  0  0
   -7.3729    3.7754   10.3934 C   0  0  2  0  0  0  0  0  0  0  0  0
   -7.1440    2.3132   10.5457 N   0  0  0  0  0  0  0  0  0  0  0  0
   -1.5281    6.8295   11.0535 C   0  0  2  0  0  0  0  0  0  0  0  0
   -0.9595    5.7709   11.8882 O   0  0  0  0  0  0  0  0  0  0  0  0
   -1.8905    4.1630   15.3152 C   0  0  1  0  0  0  0  0  0  0  0  0
   -2.0229    5.3380   16.1463 O   0  0  0  0  0  0  0  0  0  0  0  0
   -3.3078    1.0611    9.0203 C   0  0  2  0  0  0  0  0  0  0  0  0
   -3.5284   -0.2669    9.4351 O   0  0  0  0  0  0  0  0  0  0  0  0
   -6.0196    4.4848    9.9919 C   0  0  2  0  0  0  0  0  0  0  0  0
   -2.4729    7.7320   11.8649 C   0  0  2  0  0  0  0  0  0  0  0  0
   -3.7407    7.1018   11.6982 O   0  0  0  0  0  0  0  0  0  0  0  0
   -3.3425    3.6657   14.8548 C   0  0  2  0  0  0  0  0  0  0  0  0
   -3.1881    2.3788   14.2578 O   0  0  0  0  0  0  0  0  0  0  0  0
   -3.6529    2.0644   10.1709 C   0  0  2  0  0  0  0  0  0  0  0  0
   -3.4252    3.4350    9.7132 O   0  0  0  0  0  0  0  0  0  0  0  0
   -6.1700    6.0133    9.8292 C   0  0  2  0  0  0  0  0  0  0  0  0
   -4.8166    6.5131    9.6476 O   0  0  0  0  0  0  0  0  0  0  0  0
   -2.5207    9.2208   11.4008 C   0  0  0  0  0  0  0  0  0  0  0  0
   -2.9785   10.0344   12.4766 O   0  0  0  0  0  0  0  0  0  0  0  0
   -3.9736    4.6739   13.8217 C   0  0  1  0  0  0  0  0  0  0  0  0
   -3.0177    4.7670   12.7046 O   0  0  0  0  0  0  0  0  0  0  0  0
   -2.8359    1.8213   11.4188 C   0  0  0  0  0  0  0  0  0  0  0  0
   -3.5096    0.9296   12.2734 O   0  0  0  0  0  0  0  0  0  0  0  0
   -6.8317    6.6410   11.1268 C   0  0  1  0  0  0  0  0  0  0  0  0
   -7.1094    8.0283   10.9173 O   0  0  0  0  0  0  0  0  0  0  0  0
   -5.4058    4.2392   13.2847 C   0  0  0  0  0  0  0  0  0  0  0  0
   -5.4656    2.9085   12.6195 N   0  0  0  0  0  0  0  0  0  0  0  0
  1  2  1  1  0  0  0
  1  7  1  0  0  0  0
  1 30  1  0  0  0  0
  3  4  1  1  0  0  0
  3  9  1  0  0  0  0
  3 39  1  0  0  0  0
  5 10  1  0  0  0  0
  5 26  1  0  0  0  0
  5 32  1  6  0  0  0
  6 12  1  0  0  0  0
  6 36  1  0  0  0  0
  6 19  1  6  0  0  0
  7  8  1  6  0  0  0
  7 14  1  0  0  0  0
  9 16  1  0  0  0  0
 10 11  1  1  0  0  0
 10 18  1  0  0  0  0
 12 13  1  6  0  0  0
 12 20  1  0  0  0  0
 14 15  1  6  0  0  0
 14 22  1  0  0  0  0
 16 17  1  1  0  0  0
 16 24  1  0  0  0  0
 18 19  1  1  0  0  0
 18 25  1  0  0  0  0
 20 21  1  1  0  0  0
 20 27  1  0  0  0  0
 22 23  1  1  0  0  0
 22 29  1  0  0  0  0
 24  2  1  6  0  0  0
 24 31  1  0  0  0  0
 25 26  1  0  0  0  0
 25 33  1  6  0  0  0
 27 28  1  6  0  0  0
 27 35  1  0  0  0  0
 29 30  1  0  0  0  0
 29 37  1  1  0  0  0
 31 32  1  1  0  0  0
 31 39  1  0  0  0  0
 33 34  1  0  0  0  0
 35 36  1  0  0  0  0
 35 41  1  6  0  0  0
 37 38  1  0  0  0  0
 39 40  1  6  0  0  0
 41 42  1  0  0  0  0
M  END
>  <CHROM.1>
162.08310875,-149.19641902,-95.10610048,-168.10753735,-157.69216940,-90.87274274
-52.79758883,154.55207892,-57.84183907,-4.04394754,4.49152529,11.18161249
1.90434578,0.71160006,-2.57468910

>  <Name>
ligand

>  <RI>
0

>  <Rbt.Current_Directory>
/home/itssahil/PROJECTS/Mol_Feturizer/Test_systems_manuscript/rnas/2o3w

>  <Rbt.Executable>
rbdock ($Id: //depot/dev/client3/rdock/2013.1/src/exe/rbdock.cxx#4 $)

>  <Rbt.Library>
libRbt.so (2013.1, Build901 2013/11/27)

>  <Rbt.Parameter_File>
/export/apps/rDock/src/rDock_2013.1_src/data/scripts/dock_solv.prm

>  <Rbt.Receptor>
prm/blind_docking_20.prm

>  <SCORE>
62.3778

>  <SCORE.INTER>
23.2686

>  <SCORE.INTER.CONST>
1

>  <SCORE.INTER.POLAR>
0

>  <SCORE.INTER.ROT>
9

>  <SCORE.INTER.SOLV>
15.9897

>  <SCORE.INTER.VDW>
0.582502

>  <SCORE.INTER.norm>
0.554015

>  <SCORE.INTRA>
9.85452

>  <SCORE.INTRA.DIHEDRAL>
-10.0383

>  <SCORE.INTRA.DIHEDRAL.0>
27.8999

>  <SCORE.INTRA.POLAR>
0

>  <SCORE.INTRA.POLAR.0>
0

>  <SCORE.INTRA.REPUL>
0.698388

>  <SCORE.INTRA.REPUL.0>
0

>  <SCORE.INTRA.SOLV>
10.4511

>  <SCORE.INTRA.SOLV.lig_0>
-104.479

>  <SCORE.INTRA.VDW>
6.15615

>  <SCORE.INTRA.VDW.0>
-6.17816

>  <SCORE.INTRA.norm>
0.234632

>  <SCORE.RESTR>
29.2546

>  <SCORE.RESTR.CAVITY>
29.2546

>  <SCORE.RESTR.norm>
0.696539

>  <SCORE.SYSTEM>
0

>  <SCORE.SYSTEM.CONST>
0

>  <SCORE.SYSTEM.DIHEDRAL>
0

>  <SCORE.SYSTEM.SOLV>
0

>  <SCORE.SYSTEM.norm>
0

>  <SCORE.heavy>
42

>  <SCORE.norm>
1.48518

>  <RMSD>
15.572

$$$$
ligand
 OpenBabel02271912133D
libRbt.so/2013.1/901 2013/11/27
 42 45  0  0  0  0  0  0  0  0999 V2000
   -2.0395    4.5632   13.9317 C   0  0  2  0  0  0  0  0  0  0  0  0
   -2.7375    4.6964   12.6818 O   0  0  0  0  0  0  0  0  0  0  0  0
   -4.4101    8.6375   13.3644 C   0  0  2  0  0  0  0  0  0  0  0  0
   -5.1229    9.9369   13.1803 N   0  0  0  0  0  0  0  0  0  0  0  0
   -5.6968    4.7065   11.3659 C   0  0  1  0  0  0  0  0  0  0  0  0
   -5.5356    4.0218    8.1878 C   0  0  1  0  0  0  0  0  0  0  0  0
   -0.7006    3.8258   13.6289 C   0  0  2  0  0  0  0  0  0  0  0  0
    0.0352    4.4317   12.5055 N   0  0  0  0  0  0  0  0  0  0  0  0
   -3.1622    8.5256   12.3990 C   0  0  0  0  0  0  0  0  0  0  0  0
   -7.1815    4.8091   10.9011 C   0  0  2  0  0  0  0  0  0  0  0  0
   -7.8935    3.5474   10.9202 O   0  0  0  0  0  0  0  0  0  0  0  0
   -5.4098    3.0328    6.9734 C   0  0  2  0  0  0  0  0  0  0  0  0
   -6.2868    1.8390    7.1645 N   0  0  0  0  0  0  0  0  0  0  0  0
   -0.9177    2.3440   13.2707 C   0  0  1  0  0  0  0  0  0  0  0  0
    0.3361    1.6992   13.0404 O   0  0  0  0  0  0  0  0  0  0  0  0
   -2.4409    7.1484   12.6550 C   0  0  2  0  0  0  0  0  0  0  0  0
   -1.2510    7.0154   11.7718 N   0  0  0  0  0  0  0  0  0  0  0  0
   -7.0180    5.4564    9.5251 C   0  0  2  0  0  0  0  0  0  0  0  0
   -6.8730    4.4515    8.4716 O   0  0  0  0  0  0  0  0  0  0  0  0
   -3.8770    2.5992    6.8013 C   0  0  1  0  0  0  0  0  0  0  0  0
   -3.1362    3.7108    6.2496 O   0  0  0  0  0  0  0  0  0  0  0  0
   -1.7095    1.6506   14.4027 C   0  0  2  0  0  0  0  0  0  0  0  0
   -1.9021    0.2889   14.0977 O   0  0  0  0  0  0  0  0  0  0  0  0
   -3.4307    5.9446   12.3957 C   0  0  2  0  0  0  0  0  0  0  0  0
   -5.7681    6.3475    9.6211 C   0  0  2  0  0  0  0  0  0  0  0  0
   -4.9565    5.6609   10.5709 O   0  0  0  0  0  0  0  0  0  0  0  0
   -3.2028    2.1371    8.1795 C   0  0  2  0  0  0  0  0  0  0  0  0
   -3.7996    0.8969    8.5566 O   0  0  0  0  0  0  0  0  0  0  0  0
   -3.0842    2.3768   14.5831 C   0  0  2  0  0  0  0  0  0  0  0  0
   -2.8579    3.7892   14.8892 O   0  0  0  0  0  0  0  0  0  0  0  0
   -4.7041    6.0182   13.2665 C   0  0  2  0  0  0  0  0  0  0  0  0
   -5.5673    4.9579   12.7712 O   0  0  0  0  0  0  0  0  0  0  0  0
   -6.0400    7.8161   10.0725 C   0  0  0  0  0  0  0  0  0  0  0  0
   -7.0898    7.8256   11.0351 O   0  0  0  0  0  0  0  0  0  0  0  0
   -3.4356    3.2178    9.3020 C   0  0  1  0  0  0  0  0  0  0  0  0
   -4.8948    3.3915    9.4065 O   0  0  0  0  0  0  0  0  0  0  0  0
   -3.9253    1.7653   15.6796 C   0  0  0  0  0  0  0  0  0  0  0  0
   -4.5131    0.5688   15.2297 O   0  0  0  0  0  0  0  0  0  0  0  0
   -5.4009    7.4335   13.1016 C   0  0  1  0  0  0  0  0  0  0  0  0
   -6.4909    7.5567   14.0193 O   0  0  0  0  0  0  0  0  0  0  0  0
   -2.8264    2.8236   10.7169 C   0  0  0  0  0  0  0  0  0  0  0  0
   -3.2777    1.5165   11.2688 N   0  0  0  0  0  0  0  0  0  0  0  0
  1  2  1  6  0  0  0
  1  7  1  0  0  0  0
  1 30  1  0  0  0  0
  3  4  1  6  0  0  0
  3  9  1  0  0  0  0
  3 39  1  0  0  0  0
  5 10  1  0  0  0  0
  5 26  1  0  0  0  0
  5 32  1  1  0  0  0
  6 12  1  0  0  0  0
  6 36  1  0  0  0  0
  6 19  1  1  0  0  0
  7  8  1  6  0  0  0
  7 14  1  0  0  0  0
  9 16  1  0  0  0  0
 10 11  1  6  0  0  0
 10 18  1  0  0  0  0
 12 13  1  1  0  0  0
 12 20  1  0  0  0  0
 14 15  1  1  0  0  0
 14 22  1  0  0  0  0
 16 17  1  6  0  0  0
 16 24  1  0  0  0  0
 18 19  1  6  0  0  0
 18 25  1  0  0  0  0
 20 21  1  1  0  0  0
 20 27  1  0  0  0  0
 22 23  1  6  0  0  0
 22 29  1  0  0  0  0
 24  2  1  1  0  0  0
 24 31  1  0  0  0  0
 25 26  1  0  0  0  0
 25 33  1  1  0  0  0
 27 28  1  1  0  0  0
 27 35  1  0  0  0  0
 29 30  1  0  0  0  0
 29 37  1  1  0  0  0
 31 32  1  6  0  0  0
 31 39  1  0  0  0  0
 33 34  1  0  0  0  0
 35 36  1  0  0  0  0
 35 41  1  1  0  0  0
 37 38  1  0  0  0  0
 39 40  1  1  0  0  0
 41 42  1  0  0  0  0
M  END
>  <CHROM.1>
-139.34070271,50.16116146,-89.23444946,-175.20249090,36.01705104,-76.85100425
-41.22088527,-122.61928137,-55.30733380,-4.07282561,4.37143213,11.48848335
0.27217994,-0.91887742,0.78966024

>  <Name>
ligand

>  <RI>
0

>  <Rbt.Current_Directory>
/home/itssahil/PROJECTS/Mol_Feturizer/Test_systems_manuscript/rnas/2o3w

>  <Rbt.Executable>
rbdock ($Id: //depot/dev/client3/rdock/2013.1/src/exe/rbdock.cxx#4 $)

>  <Rbt.Library>
libRbt.so (2013.1, Build901 2013/11/27)

>  <Rbt.Parameter_File>
/export/apps/rDock/src/rDock_2013.1_src/data/scripts/dock_solv.prm

>  <Rbt.Receptor>
prm/blind_docking_20.prm

>  <SCORE>
60.0233

>  <SCORE.INTER>
11.9304

>  <SCORE.INTER.CONST>
1

>  <SCORE.INTER.POLAR>
0

>  <SCORE.INTER.ROT>
9

>  <SCORE.INTER.SOLV>
19.1728

>  <SCORE.INTER.VDW>
-8.03733

>  <SCORE.INTER.norm>
0.284057

>  <SCORE.INTRA>
9.61911

>  <SCORE.INTRA.DIHEDRAL>
-6.6083

>  <SCORE.INTRA.DIHEDRAL.0>
27.8999

>  <SCORE.INTRA.POLAR>
0

>  <SCORE.INTRA.POLAR.0>
0

>  <SCORE.INTRA.REPUL>
0

>  <SCORE.INTRA.REPUL.0>
0

>  <SCORE.INTRA.SOLV>
8.24177

>  <SCORE.INTRA.SOLV.lig_0>
-104.479

>  <SCORE.INTRA.VDW>
8.80238

>  <SCORE.INTRA.VDW.0>
-6.17816

>  <SCORE.INTRA.norm>
0.229027

>  <SCORE.RESTR>
38.4737

>  <SCORE.RESTR.CAVITY>
38.4737

>  <SCORE.RESTR.norm>
0.916041

>  <SCORE.SYSTEM>
0

>  <SCORE.SYSTEM.CONST>
0

>  <SCORE.SYSTEM.DIHEDRAL>
0

>  <SCORE.SYSTEM.SOLV>
0

>  <SCORE.SYSTEM.norm>
0

>  <SCORE.heavy>
42

>  <SCORE.norm>
1.42913

>  <RMSD>
15.591

$$$$
ligand
 OpenBabel02271912133D
libRbt.so/2013.1/901 2013/11/27
 42 45  0  0  0  0  0  0  0  0999 V2000
   -5.3811    2.4906   10.5933 C   0  0  2  0  0  0  0  0  0  0  0  0
   -4.9973    3.7647   11.1379 O   0  0  0  0  0  0  0  0  0  0  0  0
   -7.5723    6.2685    8.7096 C   0  0  2  0  0  0  0  0  0  0  0  0
   -8.3203    7.4394    8.1620 N   0  0  0  0  0  0  0  0  0  0  0  0
   -3.2983    5.9882   10.8818 C   0  0  1  0  0  0  0  0  0  0  0  0
   -2.0620    5.6166   13.5423 C   0  0  1  0  0  0  0  0  0  0  0  0
   -4.2610    1.4766   10.9747 C   0  0  2  0  0  0  0  0  0  0  0  0
   -3.9215    1.5242   12.4075 N   0  0  0  0  0  0  0  0  0  0  0  0
   -8.0640    5.9044   10.1682 C   0  0  0  0  0  0  0  0  0  0  0  0
   -1.9240    6.7246   10.8799 C   0  0  2  0  0  0  0  0  0  0  0  0
   -0.7795    5.8363   10.8748 O   0  0  0  0  0  0  0  0  0  0  0  0
   -2.5362    5.3291   15.0125 C   0  0  2  0  0  0  0  0  0  0  0  0
   -1.4513    5.6349   15.9924 N   0  0  0  0  0  0  0  0  0  0  0  0
   -2.9549    1.7300   10.1995 C   0  0  1  0  0  0  0  0  0  0  0  0
   -1.9712    0.7553   10.5505 O   0  0  0  0  0  0  0  0  0  0  0  0
   -7.2566    4.6524   10.6812 C   0  0  2  0  0  0  0  0  0  0  0  0
   -7.7046    4.2725   12.0482 N   0  0  0  0  0  0  0  0  0  0  0  0
   -2.0639    7.6174   12.1139 C   0  0  2  0  0  0  0  0  0  0  0  0
   -1.5785    6.9473   13.3206 O   0  0  0  0  0  0  0  0  0  0  0  0
   -3.0022    3.8006   15.1282 C   0  0  1  0  0  0  0  0  0  0  0  0
   -4.2743    3.6480   14.4594 O   0  0  0  0  0  0  0  0  0  0  0  0
   -3.2456    1.7172    8.6814 C   0  0  2  0  0  0  0  0  0  0  0  0
   -2.0566    1.9310    7.9569 O   0  0  0  0  0  0  0  0  0  0  0  0
   -5.7066    4.9576   10.6971 C   0  0  2  0  0  0  0  0  0  0  0  0
   -3.5603    7.9540   12.2269 C   0  0  2  0  0  0  0  0  0  0  0  0
   -4.1914    6.7989   11.6794 O   0  0  0  0  0  0  0  0  0  0  0  0
   -1.9406    2.7774   14.5006 C   0  0  2  0  0  0  0  0  0  0  0  0
   -0.7896    2.7795   15.3441 O   0  0  0  0  0  0  0  0  0  0  0  0
   -4.2999    2.8266    8.3541 C   0  0  2  0  0  0  0  0  0  0  0  0
   -5.5202    2.5883    9.1247 O   0  0  0  0  0  0  0  0  0  0  0  0
   -5.1645    5.3765    9.3129 C   0  0  2  0  0  0  0  0  0  0  0  0
   -3.7912    5.7915    9.5501 O   0  0  0  0  0  0  0  0  0  0  0  0
   -4.0031    9.2461   11.4728 C   0  0  0  0  0  0  0  0  0  0  0  0
   -3.7543    9.0862   10.0795 O   0  0  0  0  0  0  0  0  0  0  0  0
   -1.5462    3.2129   13.0388 C   0  0  1  0  0  0  0  0  0  0  0  0
   -1.0248    4.5864   13.1476 O   0  0  0  0  0  0  0  0  0  0  0  0
   -4.6496    2.8811    6.8849 C   0  0  0  0  0  0  0  0  0  0  0  0
   -5.3104    4.0872    6.5882 O   0  0  0  0  0  0  0  0  0  0  0  0
   -6.0213    6.5762    8.7279 C   0  0  1  0  0  0  0  0  0  0  0  0
   -5.6172    6.8630    7.3862 O   0  0  0  0  0  0  0  0  0  0  0  0
   -0.4678    2.2685   12.3505 C   0  0  0  0  0  0  0  0  0  0  0  0
    0.8600    2.2142   13.0217 N   0  0  0  0  0  0  0  0  0  0  0  0
  1  2  1  6  0  0  0
  1  7  1  0  0  0  0
  1 30  1  0  0  0  0
  3  4  1  1  0  0  0
  3  9  1  0  0  0  0
  3 39  1  0  0  0  0
  5 10  1  0  0  0  0
  5 26  1  0  0  0  0
  5 32  1  6  0  0  0
  6 12  1  0  0  0  0
  6 36  1  0  0  0  0
  6 19  1  1  0  0  0
  7  8  1  1  0  0  0
  7 14  1  0  0  0  0
  9 16  1  0  0  0  0
 10 11  1  1  0  0  0
 10 18  1  0  0  0  0
 12 13  1  1  0  0  0
 12 20  1  0  0  0  0
 14 15  1  6  0  0  0
 14 22  1  0  0  0  0
 16 17  1  1  0  0  0
 16 24  1  0  0  0  0
 18 19  1  1  0  0  0
 18 25  1  0  0  0  0
 20 21  1  6  0  0  0
 20 27  1  0  0  0  0
 22 23  1  6  0  0  0
 22 29  1  0  0  0  0
 24  2  1  6  0  0  0
 24 31  1  0  0  0  0
 25 26  1  0  0  0  0
 25 33  1  6  0  0  0
 27 28  1  1  0  0  0
 27 35  1  0  0  0  0
 29 30  1  0  0  0  0
 29 37  1  6  0  0  0
 31 32  1  1  0  0  0
 31 39  1  0  0  0  0
 33 34  1  0  0  0  0
 35 36  1  0  0  0  0
 35 41  1  1  0  0  0
 37 38  1  0  0  0  0
 39 40  1  6  0  0  0
 41 42  1  0  0  0  0
M  END
>  <CHROM.1>
166.95189992,44.46118224,-48.91022105,-134.47765437,61.69824812,-164.65852268
-11.55945542,-167.39602697,-62.47334839,-3.71544451,4.62151299,11.12169388
-3.05232823,-0.85543635,0.43518088

>  <Name>
ligand

>  <RI>
0

>  <Rbt.Current_Directory>
/home/itssahil/PROJECTS/Mol_Feturizer/Test_systems_manuscript/rnas/2o3w

>  <Rbt.Executable>
rbdock ($Id: //depot/dev/client3/rdock/2013.1/src/exe/rbdock.cxx#4 $)

>  <Rbt.Library>
libRbt.so (2013.1, Build901 2013/11/27)

>  <Rbt.Parameter_File>
/export/apps/rDock/src/rDock_2013.1_src/data/scripts/dock_solv.prm

>  <Rbt.Receptor>
prm/blind_docking_20.prm

>  <SCORE>
41.642

>  <SCORE.INTER>
7.03396

>  <SCORE.INTER.CONST>
1

>  <SCORE.INTER.POLAR>
0

>  <SCORE.INTER.ROT>
9

>  <SCORE.INTER.SOLV>
29.427

>  <SCORE.INTER.VDW>
-14.7197

>  <SCORE.INTER.norm>
0.167475

>  <SCORE.INTRA>
2.58342

>  <SCORE.INTRA.DIHEDRAL>
-10.9672

>  <SCORE.INTRA.DIHEDRAL.0>
27.8999

>  <SCORE.INTRA.POLAR>
0

>  <SCORE.INTRA.POLAR.0>
0

>  <SCORE.INTRA.REPUL>
0.25149

>  <SCORE.INTRA.REPUL.0>
0

>  <SCORE.INTRA.SOLV>
3.94182

>  <SCORE.INTRA.SOLV.lig_0>
-104.479

>  <SCORE.INTRA.VDW>
4.83867

>  <SCORE.INTRA.VDW.0>
-6.17816

>  <SCORE.INTRA.norm>
0.0615101

>  <SCORE.RESTR>
32.0246

>  <SCORE.RESTR.CAVITY>
32.0246

>  <SCORE.RESTR.norm>
0.762491

>  <SCORE.SYSTEM>
0

>  <SCORE.SYSTEM.CONST>
0

>  <SCORE.SYSTEM.DIHEDRAL>
0

>  <SCORE.SYSTEM.SOLV>
0

>  <SCORE.SYSTEM.norm>
0

>  <SCORE.heavy>
42

>  <SCORE.norm>
0.991476

>  <RMSD>
15.602

$$$$
ligand
 OpenBabel02271912133D
libRbt.so/2013.1/901 2013/11/27
 42 45  0  0  0  0  0  0  0  0999 V2000
   -2.5023    6.9791   13.6787 C   0  0  2  0  0  0  0  0  0  0  0  0
   -3.5160    6.0698   14.1400 O   0  0  0  0  0  0  0  0  0  0  0  0
   -1.2667    2.3690   14.3427 C   0  0  2  0  0  0  0  0  0  0  0  0
   -0.7932    1.0059   14.7275 N   0  0  0  0  0  0  0  0  0  0  0  0
   -5.4218    4.1701   12.1145 C   0  0  1  0  0  0  0  0  0  0  0  0
   -6.3667    5.0498    9.2789 C   0  0  1  0  0  0  0  0  0  0  0  0
   -3.2326    8.1286   12.9214 C   0  0  2  0  0  0  0  0  0  0  0  0
   -4.3468    8.6974   13.6995 N   0  0  0  0  0  0  0  0  0  0  0  0
   -1.1121    3.3899   15.5409 C   0  0  0  0  0  0  0  0  0  0  0  0
   -6.9737    4.0407   12.1882 C   0  0  2  0  0  0  0  0  0  0  0  0
   -7.4900    2.8104   11.6235 O   0  0  0  0  0  0  0  0  0  0  0  0
   -6.5653    5.2077    7.7283 C   0  0  2  0  0  0  0  0  0  0  0  0
   -7.5473    4.2078    7.2118 N   0  0  0  0  0  0  0  0  0  0  0  0
   -3.8215    7.6612   11.5776 C   0  0  1  0  0  0  0  0  0  0  0  0
   -4.4454    8.7539   10.9012 O   0  0  0  0  0  0  0  0  0  0  0  0
   -1.6051    4.8098   15.0684 C   0  0  2  0  0  0  0  0  0  0  0  0
   -1.4599    5.8005   16.1688 N   0  0  0  0  0  0  0  0  0  0  0  0
   -7.4127    5.3269   11.4864 C   0  0  2  0  0  0  0  0  0  0  0  0
   -7.5746    5.1256   10.0463 O   0  0  0  0  0  0  0  0  0  0  0  0
   -5.1488    5.0546    6.9956 C   0  0  1  0  0  0  0  0  0  0  0  0
   -4.3683    6.2475    7.2337 O   0  0  0  0  0  0  0  0  0  0  0  0
   -2.7041    7.0287   10.7171 C   0  0  2  0  0  0  0  0  0  0  0  0
   -3.2237    6.6107    9.4763 O   0  0  0  0  0  0  0  0  0  0  0  0
   -3.1142    4.7496   14.6049 C   0  0  2  0  0  0  0  0  0  0  0  0
   -6.3198    6.3672   11.7843 C   0  0  2  0  0  0  0  0  0  0  0  0
   -5.1418    5.5720   11.8970 O   0  0  0  0  0  0  0  0  0  0  0  0
   -4.3285    3.7699    7.4896 C   0  0  2  0  0  0  0  0  0  0  0  0
   -5.0125    2.6121    7.0122 O   0  0  0  0  0  0  0  0  0  0  0  0
   -2.0850    5.8188   11.4933 C   0  0  2  0  0  0  0  0  0  0  0  0
   -1.5617    6.2760   12.7805 O   0  0  0  0  0  0  0  0  0  0  0  0
   -3.3522    3.7284   13.4710 C   0  0  2  0  0  0  0  0  0  0  0  0
   -4.7956    3.6723   13.3041 O   0  0  0  0  0  0  0  0  0  0  0  0
   -6.5510    7.2138   13.0742 C   0  0  0  0  0  0  0  0  0  0  0  0
   -7.7859    7.9148   12.9618 O   0  0  0  0  0  0  0  0  0  0  0  0
   -4.2373    3.7396    9.0622 C   0  0  1  0  0  0  0  0  0  0  0  0
   -5.6262    3.7576    9.5530 O   0  0  0  0  0  0  0  0  0  0  0  0
   -0.9744    5.1415   10.7242 C   0  0  0  0  0  0  0  0  0  0  0  0
   -0.3579    4.1621   11.5243 O   0  0  0  0  0  0  0  0  0  0  0  0
   -2.7782    2.3081   13.8820 C   0  0  1  0  0  0  0  0  0  0  0  0
   -2.8617    1.4036   12.7772 O   0  0  0  0  0  0  0  0  0  0  0  0
   -3.4659    2.4757    9.6420 C   0  0  0  0  0  0  0  0  0  0  0  0
   -2.5424    1.7959    8.6925 N   0  0  0  0  0  0  0  0  0  0  0  0
  1  2  1  6  0  0  0
  1  7  1  0  0  0  0
  1 30  1  0  0  0  0
  3  4  1  1  0  0  0
  3  9  1  0  0  0  0
  3 39  1  0  0  0  0
  5 10  1  0  0  0  0
  5 26  1  0  0  0  0
  5 32  1  1  0  0  0
  6 12  1  0  0  0  0
  6 36  1  0  0  0  0
  6 19  1  1  0  0  0
  7  8  1  1  0  0  0
  7 14  1  0  0  0  0
  9 16  1  0  0  0  0
 10 11  1  6  0  0  0
 10 18  1  0  0  0  0
 12 13  1  6  0  0  0
 12 20  1  0  0  0  0
 14 15  1  6  0  0  0
 14 22  1  0  0  0  0
 16 17  1  1  0  0  0
 16 24  1  0  0  0  0
 18 19  1  6  0  0  0
 18 25  1  0  0  0  0
 20 21  1  1  0  0  0
 20 27  1  0  0  0  0
 22 23  1  6  0  0  0
 22 29  1  0  0  0  0
 24  2  1  6  0  0  0
 24 31  1  0  0  0  0
 25 26  1  0  0  0  0
 25 33  1  1  0  0  0
 27 28  1  1  0  0  0
 27 35  1  0  0  0  0
 29 30  1  0  0  0  0
 29 37  1  6  0  0  0
 31 32  1  1  0  0  0
 31 39  1  0  0  0  0
 33 34  1  0  0  0  0
 35 36  1  0  0  0  0
 35 41  1  6  0  0  0
 37 38  1  0  0  0  0
 39 40  1  6  0  0  0
 41 42  1  0  0  0  0
M  END
>  <CHROM.1>
165.78920980,23.86720937,-75.93412563,-164.92220291,-59.23577210,173.49214651
112.13953010,-178.24647709,21.32583449,-4.10926779,4.93131733,11.51601465
0.60714005,-0.79709405,0.82568030

>  <Name>
ligand

>  <RI>
0

>  <Rbt.Current_Directory>
/home/itssahil/PROJECTS/Mol_Feturizer/Test_systems_manuscript/rnas/2o3w

>  <Rbt.Executable>
rbdock ($Id: //depot/dev/client3/rdock/2013.1/src/exe/rbdock.cxx#4 $)

>  <Rbt.Library>
libRbt.so (2013.1, Build901 2013/11/27)

>  <Rbt.Parameter_File>
/export/apps/rDock/src/rDock_2013.1_src/data/scripts/dock_solv.prm

>  <Rbt.Receptor>
prm/blind_docking_20.prm

>  <SCORE>
48.8934

>  <SCORE.INTER>
20.7919

>  <SCORE.INTER.CONST>
1

>  <SCORE.INTER.POLAR>
0

>  <SCORE.INTER.ROT>
9

>  <SCORE.INTER.SOLV>
29.5803

>  <SCORE.INTER.VDW>
-5.59887

>  <SCORE.INTER.norm>
0.495044

>  <SCORE.INTRA>
1.37447

>  <SCORE.INTRA.DIHEDRAL>
-9.03235

>  <SCORE.INTRA.DIHEDRAL.0>
27.8999

>  <SCORE.INTRA.POLAR>
0

>  <SCORE.INTRA.POLAR.0>
0

>  <SCORE.INTRA.REPUL>
0.015148

>  <SCORE.INTRA.REPUL.0>
0

>  <SCORE.INTRA.SOLV>
4.19912

>  <SCORE.INTRA.SOLV.lig_0>
-104.479

>  <SCORE.INTRA.VDW>
3.71534

>  <SCORE.INTRA.VDW.0>
-6.17816

>  <SCORE.INTRA.norm>
0.0327254

>  <SCORE.RESTR>
26.7271

>  <SCORE.RESTR.CAVITY>
26.7271

>  <SCORE.RESTR.norm>
0.636359

>  <SCORE.SYSTEM>
0

>  <SCORE.SYSTEM.CONST>
0

>  <SCORE.SYSTEM.DIHEDRAL>
0

>  <SCORE.SYSTEM.SOLV>
0

>  <SCORE.SYSTEM.norm>
0

>  <SCORE.heavy>
42

>  <SCORE.norm>
1.16413

>  <RMSD>
15.608

$$$$
ligand
 OpenBabel02271912133D
libRbt.so/2013.1/901 2013/11/27
 42 45  0  0  0  0  0  0  0  0999 V2000
   -2.5006    7.0442   13.6500 C   0  0  2  0  0  0  0  0  0  0  0  0
   -3.5565    6.1795   14.1022 O   0  0  0  0  0  0  0  0  0  0  0  0
   -1.4861    2.3746   14.2796 C   0  0  2  0  0  0  0  0  0  0  0  0
   -1.0777    0.9882   14.6557 N   0  0  0  0  0  0  0  0  0  0  0  0
   -5.5488    4.2455   12.0133 C   0  0  1  0  0  0  0  0  0  0  0  0
   -6.4430    5.0060    9.0601 C   0  0  1  0  0  0  0  0  0  0  0  0
   -3.1738    8.2229   12.8848 C   0  0  2  0  0  0  0  0  0  0  0  0
   -4.2702    8.8398   13.6517 N   0  0  0  0  0  0  0  0  0  0  0  0
   -1.2812    3.3799   15.4834 C   0  0  0  0  0  0  0  0  0  0  0  0
   -7.1044    4.1612   12.0761 C   0  0  2  0  0  0  0  0  0  0  0  0
   -7.6446    2.8946   11.6256 O   0  0  0  0  0  0  0  0  0  0  0  0
   -6.6603    4.9027    7.5074 C   0  0  2  0  0  0  0  0  0  0  0  0
   -7.5100    3.7230    7.1650 N   0  0  0  0  0  0  0  0  0  0  0  0
   -3.7692    7.7796   11.5358 C   0  0  1  0  0  0  0  0  0  0  0  0
   -4.3394    8.8971   10.8525 O   0  0  0  0  0  0  0  0  0  0  0  0
   -1.7066    4.8244   15.0199 C   0  0  2  0  0  0  0  0  0  0  0  0
   -1.5127    5.8007   16.1258 N   0  0  0  0  0  0  0  0  0  0  0  0
   -7.5017    5.3833   11.2466 C   0  0  2  0  0  0  0  0  0  0  0  0
   -7.6507    5.0469    9.8304 O   0  0  0  0  0  0  0  0  0  0  0  0
   -5.2360    4.8169    6.7788 C   0  0  1  0  0  0  0  0  0  0  0  0
   -4.6104    6.1191    6.8210 O   0  0  0  0  0  0  0  0  0  0  0  0
   -2.6716    7.0989   10.6866 C   0  0  2  0  0  0  0  0  0  0  0  0
   -3.1966    6.7020    9.4411 O   0  0  0  0  0  0  0  0  0  0  0  0
   -3.2175    4.8390   14.5588 C   0  0  2  0  0  0  0  0  0  0  0  0
   -6.3865    6.4210   11.4585 C   0  0  2  0  0  0  0  0  0  0  0  0
   -5.2307    5.6125   11.6652 O   0  0  0  0  0  0  0  0  0  0  0  0
   -4.2616    3.7324    7.4435 C   0  0  2  0  0  0  0  0  0  0  0  0
   -4.7958    2.4404    7.1576 O   0  0  0  0  0  0  0  0  0  0  0  0
   -2.1122    5.8646   11.4696 C   0  0  2  0  0  0  0  0  0  0  0  0
   -1.5822    6.3006   12.7615 O   0  0  0  0  0  0  0  0  0  0  0  0
   -3.5056    3.8370   13.4194 C   0  0  2  0  0  0  0  0  0  0  0  0
   -4.9503    3.8508   13.2547 O   0  0  0  0  0  0  0  0  0  0  0  0
   -6.6123    7.3943   12.6568 C   0  0  0  0  0  0  0  0  0  0  0  0
   -5.9218    6.9004   13.8005 O   0  0  0  0  0  0  0  0  0  0  0  0
   -4.1668    3.9509    9.0009 C   0  0  1  0  0  0  0  0  0  0  0  0
   -5.5470    3.8712    9.5100 O   0  0  0  0  0  0  0  0  0  0  0  0
   -1.0241    5.1397   10.7118 C   0  0  0  0  0  0  0  0  0  0  0  0
   -0.3630    4.2335   11.5610 O   0  0  0  0  0  0  0  0  0  0  0  0
   -2.9995    2.3885   13.8212 C   0  0  1  0  0  0  0  0  0  0  0  0
   -3.1277    1.4955   12.7114 O   0  0  0  0  0  0  0  0  0  0  0  0
   -3.2435    2.8937    9.7482 C   0  0  0  0  0  0  0  0  0  0  0  0
   -3.5024    1.4659    9.4149 N   0  0  0  0  0  0  0  0  0  0  0  0
  1  2  1  6  0  0  0
  1  7  1  0  0  0  0
  1 30  1  0  0  0  0
  3  4  1  1  0  0  0
  3  9  1  0  0  0  0
  3 39  1  0  0  0  0
  5 10  1  0  0  0  0
  5 26  1  0  0  0  0
  5 32  1  1  0  0  0
  6 12  1  0  0  0  0
  6 36  1  0  0  0  0
  6 19  1  1  0  0  0
  7  8  1  1  0  0  0
  7 14  1  0  0  0  0
  9 16  1  0  0  0  0
 10 11  1  6  0  0  0
 10 18  1  0  0  0  0
 12 13  1  1  0  0  0
 12 20  1  0  0  0  0
 14 15  1  6  0  0  0
 14 22  1  0  0  0  0
 16 17  1  1  0  0  0
 16 24  1  0  0  0  0
 18 19  1  6  0  0  0
 18 25  1  0  0  0  0
 20 21  1  1  0  0  0
 20 27  1  0  0  0  0
 22 23  1  6  0  0  0
 22 29  1  0  0  0  0
 24  2  1  6  0  0  0
 24 31  1  0  0  0  0
 25 26  1  0  0  0  0
 25 33  1  1  0  0  0
 27 28  1  1  0  0  0
 27 35  1  0  0  0  0
 29 30  1  0  0  0  0
 29 37  1  6  0  0  0
 31 32  1  1  0  0  0
 31 39  1  0  0  0  0
 33 34  1  0  0  0  0
 35 36  1  0  0  0  0
 35 41  1  1  0  0  0
 37 38  1  0  0  0  0
 39 40  1  6  0  0  0
 41 42  1  0  0  0  0
M  END
>  <CHROM.1>
165.15261105,23.59129118,-82.26229930,-169.37926422,95.95993508,167.30348474
119.14838910,179.26648550,-49.01461411,-4.13152447,4.92978808,11.47242726
0.52349355,-0.90444039,0.59014911

>  <Name>
ligand

>  <RI>
0

>  <Rbt.Current_Directory>
/home/itssahil/PROJECTS/Mol_Feturizer/Test_systems_manuscript/rnas/2o3w

>  <Rbt.Executable>
rbdock ($Id: //depot/dev/client3/rdock/2013.1/src/exe/rbdock.cxx#4 $)

>  <Rbt.Library>
libRbt.so (2013.1, Build901 2013/11/27)

>  <Rbt.Parameter_File>
/export/apps/rDock/src/rDock_2013.1_src/data/scripts/dock_solv.prm

>  <Rbt.Receptor>
prm/blind_docking_20.prm

>  <SCORE>
47.4476

>  <SCORE.INTER>
17.6004

>  <SCORE.INTER.CONST>
1

>  <SCORE.INTER.POLAR>
0

>  <SCORE.INTER.ROT>
9

>  <SCORE.INTER.SOLV>
26.0049

>  <SCORE.INTER.VDW>
-6.53474

>  <SCORE.INTER.norm>
0.419056

>  <SCORE.INTRA>
3.8934

>  <SCORE.INTRA.DIHEDRAL>
-7.70553

>  <SCORE.INTRA.DIHEDRAL.0>
27.8999

>  <SCORE.INTRA.POLAR>
0

>  <SCORE.INTRA.POLAR.0>
0

>  <SCORE.INTRA.REPUL>
0.371336

>  <SCORE.INTRA.REPUL.0>
0

>  <SCORE.INTRA.SOLV>
6.47722

>  <SCORE.INTRA.SOLV.lig_0>
-104.479

>  <SCORE.INTRA.VDW>
2.65088

>  <SCORE.INTRA.VDW.0>
-6.17816

>  <SCORE.INTRA.norm>
0.0927001

>  <SCORE.RESTR>
25.9538

>  <SCORE.RESTR.CAVITY>
25.9538

>  <SCORE.RESTR.norm>
0.617948

>  <SCORE.SYSTEM>
0

>  <SCORE.SYSTEM.CONST>
0

>  <SCORE.SYSTEM.DIHEDRAL>
0

>  <SCORE.SYSTEM.SOLV>
0

>  <SCORE.SYSTEM.norm>
0

>  <SCORE.heavy>
42

>  <SCORE.norm>
1.1297

>  <RMSD>
15.626

$$$$
ligand
 OpenBabel02271912133D
libRbt.so/2013.1/901 2013/11/27
 42 45  0  0  0  0  0  0  0  0999 V2000
   -1.7221    4.2445   12.0895 C   0  0  2  0  0  0  0  0  0  0  0  0
   -3.1138    4.5986   12.0186 O   0  0  0  0  0  0  0  0  0  0  0  0
   -3.1132    8.8169   13.0196 C   0  0  2  0  0  0  0  0  0  0  0  0
   -3.4324   10.2755   13.0549 N   0  0  0  0  0  0  0  0  0  0  0  0
   -5.7747    4.8004   12.2440 C   0  0  1  0  0  0  0  0  0  0  0  0
   -5.6307    3.0120    9.9024 C   0  0  1  0  0  0  0  0  0  0  0  0
   -1.6395    2.6944   11.9537 C   0  0  2  0  0  0  0  0  0  0  0  0
   -2.4077    2.1875   10.8033 N   0  0  0  0  0  0  0  0  0  0  0  0
   -2.5155    8.3939   11.6176 C   0  0  0  0  0  0  0  0  0  0  0  0
   -5.8351    3.3126   12.7064 C   0  0  2  0  0  0  0  0  0  0  0  0
   -4.5977    2.5845   12.5122 O   0  0  0  0  0  0  0  0  0  0  0  0
   -6.1708    4.2809    9.1494 C   0  0  2  0  0  0  0  0  0  0  0  0
   -7.2750    3.9154    8.2124 N   0  0  0  0  0  0  0  0  0  0  0  0
   -2.1763    1.9691   13.2013 C   0  0  1  0  0  0  0  0  0  0  0  0
   -2.0448    0.5547   13.0495 O   0  0  0  0  0  0  0  0  0  0  0  0
   -2.1791    6.8550   11.6496 C   0  0  2  0  0  0  0  0  0  0  0  0
   -1.6001    6.4247   10.3484 N   0  0  0  0  0  0  0  0  0  0  0  0
   -7.0361    2.8022   11.9086 C   0  0  2  0  0  0  0  0  0  0  0  0
   -6.6303    2.2667   10.6089 O   0  0  0  0  0  0  0  0  0  0  0  0
   -4.9628    4.9861    8.3681 C   0  0  1  0  0  0  0  0  0  0  0  0
   -4.1119    5.6528    9.3275 O   0  0  0  0  0  0  0  0  0  0  0  0
   -1.4257    2.4744   14.4545 C   0  0  2  0  0  0  0  0  0  0  0  0
   -1.8941    1.8078   15.6036 O   0  0  0  0  0  0  0  0  0  0  0  0
   -3.4762    6.0077   11.9587 C   0  0  2  0  0  0  0  0  0  0  0  0
   -7.9798    4.0056   11.7455 C   0  0  2  0  0  0  0  0  0  0  0  0
   -7.0841    5.1144   11.7168 O   0  0  0  0  0  0  0  0  0  0  0  0
   -4.0922    3.9532    7.5063 C   0  0  2  0  0  0  0  0  0  0  0  0
   -4.9024    3.5093    6.4186 O   0  0  0  0  0  0  0  0  0  0  0  0
   -1.6362    4.0197   14.5872 C   0  0  2  0  0  0  0  0  0  0  0  0
   -1.1515    4.6876   13.3794 O   0  0  0  0  0  0  0  0  0  0  0  0
   -4.1486    6.4063   13.2907 C   0  0  2  0  0  0  0  0  0  0  0  0
   -5.4027    5.6708   13.3206 O   0  0  0  0  0  0  0  0  0  0  0  0
   -9.0395    4.1693   12.8788 C   0  0  0  0  0  0  0  0  0  0  0  0
   -9.7599    5.3816   12.6777 O   0  0  0  0  0  0  0  0  0  0  0  0
   -3.6479    2.7274    8.3909 C   0  0  1  0  0  0  0  0  0  0  0  0
   -4.8880    2.1326    8.9185 O   0  0  0  0  0  0  0  0  0  0  0  0
   -0.9278    4.6020   15.7883 C   0  0  0  0  0  0  0  0  0  0  0  0
   -1.4753    5.8566   16.1131 O   0  0  0  0  0  0  0  0  0  0  0  0
   -4.4128    7.9698   13.3260 C   0  0  1  0  0  0  0  0  0  0  0  0
   -4.8945    8.3599   14.6149 O   0  0  0  0  0  0  0  0  0  0  0  0
   -2.8048    1.6327    7.6038 C   0  0  0  0  0  0  0  0  0  0  0  0
   -3.2473    1.3624    6.2082 N   0  0  0  0  0  0  0  0  0  0  0  0
  1  2  1  1  0  0  0
  1  7  1  0  0  0  0
  1 30  1  0  0  0  0
  3  4  1  6  0  0  0
  3  9  1  0  0  0  0
  3 39  1  0  0  0  0
  5 10  1  0  0  0  0
  5 26  1  0  0  0  0
  5 32  1  1  0  0  0
  6 12  1  0  0  0  0
  6 36  1  0  0  0  0
  6 19  1  6  0  0  0
  7  8  1  6  0  0  0
  7 14  1  0  0  0  0
  9 16  1  0  0  0  0
 10 11  1  6  0  0  0
 10 18  1  0  0  0  0
 12 13  1  6  0  0  0
 12 20  1  0  0  0  0
 14 15  1  6  0  0  0
 14 22  1  0  0  0  0
 16 17  1  6  0  0  0
 16 24  1  0  0  0  0
 18 19  1  6  0  0  0
 18 25  1  0  0  0  0
 20 21  1  1  0  0  0
 20 27  1  0  0  0  0
 22 23  1  1  0  0  0
 22 29  1  0  0  0  0
 24  2  1  1  0  0  0
 24 31  1  0  0  0  0
 25 26  1  0  0  0  0
 25 33  1  1  0  0  0
 27 28  1  6  0  0  0
 27 35  1  0  0  0  0
 29 30  1  0  0  0  0
 29 37  1  1  0  0  0
 31 32  1  6  0  0  0
 31 39  1  0  0  0  0
 33 34  1  0  0  0  0
 35 36  1  0  0  0  0
 35 41  1  6  0  0  0
 37 38  1  0  0  0  0
 39 40  1  1  0  0  0
 41 42  1  0  0  0  0
M  END
>  <CHROM.1>
-172.75454735,13.04560724,-41.37725861,-79.48790110,174.52707813,-161.09445437
-0.05733602,114.69565106,-38.53770891,-4.11795701,4.42512304,11.64916365
-1.07485600,0.53638699,-2.32755201

>  <Name>
ligand

>  <RI>
0

>  <Rbt.Current_Directory>
/home/itssahil/PROJECTS/Mol_Feturizer/Test_systems_manuscript/rnas/2o3w

>  <Rbt.Executable>
rbdock ($Id: //depot/dev/client3/rdock/2013.1/src/exe/rbdock.cxx#4 $)

>  <Rbt.Library>
libRbt.so (2013.1, Build901 2013/11/27)

>  <Rbt.Parameter_File>
/export/apps/rDock/src/rDock_2013.1_src/data/scripts/dock_solv.prm

>  <Rbt.Receptor>
prm/blind_docking_20.prm

>  <SCORE>
46.3793

>  <SCORE.INTER>
6.46535

>  <SCORE.INTER.CONST>
1

>  <SCORE.INTER.POLAR>
0

>  <SCORE.INTER.ROT>
9

>  <SCORE.INTER.SOLV>
19.8123

>  <SCORE.INTER.VDW>
-11.8939

>  <SCORE.INTER.norm>
0.153937

>  <SCORE.INTRA>
10.9998

>  <SCORE.INTRA.DIHEDRAL>
-0.835893

>  <SCORE.INTRA.DIHEDRAL.0>
27.8999

>  <SCORE.INTRA.POLAR>
0

>  <SCORE.INTRA.POLAR.0>
0

>  <SCORE.INTRA.REPUL>
0

>  <SCORE.INTRA.REPUL.0>
0

>  <SCORE.INTRA.SOLV>
7.1284

>  <SCORE.INTRA.SOLV.lig_0>
-104.479

>  <SCORE.INTRA.VDW>
7.85353

>  <SCORE.INTRA.VDW.0>
-6.17816

>  <SCORE.INTRA.norm>
0.2619

>  <SCORE.RESTR>
28.9142

>  <SCORE.RESTR.CAVITY>
28.9142

>  <SCORE.RESTR.norm>
0.688433

>  <SCORE.SYSTEM>
0

>  <SCORE.SYSTEM.CONST>
0

>  <SCORE.SYSTEM.DIHEDRAL>
0

>  <SCORE.SYSTEM.SOLV>
0

>  <SCORE.SYSTEM.norm>
0

>  <SCORE.heavy>
42

>  <SCORE.norm>
1.10427

>  <RMSD>
15.649

$$$$
ligand
 OpenBabel02271912133D
libRbt.so/2013.1/901 2013/11/27
 42 45  0  0  0  0  0  0  0  0999 V2000
   -1.6558    4.2274   12.1241 C   0  0  2  0  0  0  0  0  0  0  0  0
   -3.0529    4.5590   12.0498 O   0  0  0  0  0  0  0  0  0  0  0  0
   -3.1116    8.7967   12.9631 C   0  0  2  0  0  0  0  0  0  0  0  0
   -3.4526   10.2507   12.9696 N   0  0  0  0  0  0  0  0  0  0  0  0
   -5.7472    4.7759   12.2528 C   0  0  1  0  0  0  0  0  0  0  0  0
   -5.6674    3.0503    9.8616 C   0  0  1  0  0  0  0  0  0  0  0  0
   -1.5480    2.6786   11.9914 C   0  0  2  0  0  0  0  0  0  0  0  0
   -2.3058    2.1573   10.8405 N   0  0  0  0  0  0  0  0  0  0  0  0
   -2.5134    8.3537   11.5676 C   0  0  0  0  0  0  0  0  0  0  0  0
   -5.7918    3.2781   12.6833 C   0  0  2  0  0  0  0  0  0  0  0  0
   -4.5571    2.5590   12.4435 O   0  0  0  0  0  0  0  0  0  0  0  0
   -6.2617    4.2814    9.0869 C   0  0  2  0  0  0  0  0  0  0  0  0
   -7.3500    3.8525    8.1582 N   0  0  0  0  0  0  0  0  0  0  0  0
   -2.0757    1.9471   13.2394 C   0  0  1  0  0  0  0  0  0  0  0  0
   -1.9212    0.5347   13.0905 O   0  0  0  0  0  0  0  0  0  0  0  0
   -2.1538    6.8209   11.6300 C   0  0  2  0  0  0  0  0  0  0  0  0
   -1.5736    6.3724   10.3355 N   0  0  0  0  0  0  0  0  0  0  0  0
   -7.0099    2.7809   11.9034 C   0  0  2  0  0  0  0  0  0  0  0  0
   -6.6337    2.2758   10.5827 O   0  0  0  0  0  0  0  0  0  0  0  0
   -5.0855    5.0234    8.2914 C   0  0  1  0  0  0  0  0  0  0  0  0
   -4.2630    5.7428    9.2374 O   0  0  0  0  0  0  0  0  0  0  0  0
   -1.3358    2.4668   14.4930 C   0  0  2  0  0  0  0  0  0  0  0  0
   -1.7957    1.7948   15.6425 O   0  0  0  0  0  0  0  0  0  0  0  0
   -3.4367    5.9609   11.9622 C   0  0  2  0  0  0  0  0  0  0  0  0
   -7.9611    3.9841   11.7896 C   0  0  2  0  0  0  0  0  0  0  0  0
   -7.0699    5.0966   11.7641 O   0  0  0  0  0  0  0  0  0  0  0  0
   -4.1723    4.0133    7.4468 C   0  0  2  0  0  0  0  0  0  0  0  0
   -4.9636    3.5160    6.3684 O   0  0  0  0  0  0  0  0  0  0  0  0
   -1.5713    4.0087   14.6223 C   0  0  2  0  0  0  0  0  0  0  0  0
   -1.0950    4.6821   13.4143 O   0  0  0  0  0  0  0  0  0  0  0  0
   -4.1096    6.3770   13.2886 C   0  0  2  0  0  0  0  0  0  0  0  0
   -5.3524    5.6237   13.3392 O   0  0  0  0  0  0  0  0  0  0  0  0
   -8.9939    4.1188   12.9513 C   0  0  0  0  0  0  0  0  0  0  0  0
   -9.7044    5.3451   12.8092 O   0  0  0  0  0  0  0  0  0  0  0  0
   -3.6754    2.8236    8.3523 C   0  0  1  0  0  0  0  0  0  0  0  0
   -4.8886    2.1860    8.8923 O   0  0  0  0  0  0  0  0  0  0  0  0
   -0.8747    4.6046   15.8238 C   0  0  0  0  0  0  0  0  0  0  0  0
   -1.4227    5.8645   16.1265 O   0  0  0  0  0  0  0  0  0  0  0  0
   -4.3971    7.9368   13.2926 C   0  0  1  0  0  0  0  0  0  0  0  0
   -4.8794    8.3464   14.5753 O   0  0  0  0  0  0  0  0  0  0  0  0
   -2.7870    1.7520    7.5836 C   0  0  0  0  0  0  0  0  0  0  0  0
   -2.3326    0.5914    8.3980 N   0  0  0  0  0  0  0  0  0  0  0  0
  1  2  1  1  0  0  0
  1  7  1  0  0  0  0
  1 30  1  0  0  0  0
  3  4  1  6  0  0  0
  3  9  1  0  0  0  0
  3 39  1  0  0  0  0
  5 10  1  0  0  0  0
  5 26  1  0  0  0  0
  5 32  1  1  0  0  0
  6 12  1  0  0  0  0
  6 36  1  0  0  0  0
  6 19  1  6  0  0  0
  7  8  1  6  0  0  0
  7 14  1  0  0  0  0
  9 16  1  0  0  0  0
 10 11  1  6  0  0  0
 10 18  1  0  0  0  0
 12 13  1  6  0  0  0
 12 20  1  0  0  0  0
 14 15  1  6  0  0  0
 14 22  1  0  0  0  0
 16 17  1  6  0  0  0
 16 24  1  0  0  0  0
 18 19  1  6  0  0  0
 18 25  1  0  0  0  0
 20 21  1  1  0  0  0
 20 27  1  0  0  0  0
 22 23  1  1  0  0  0
 22 29  1  0  0  0  0
 24  2  1  1  0  0  0
 24 31  1  0  0  0  0
 25 26  1  0  0  0  0
 25 33  1  1  0  0  0
 27 28  1  6  0  0  0
 27 35  1  0  0  0  0
 29 30  1  0  0  0  0
 29 37  1  1  0  0  0
 31 32  1  6  0  0  0
 31 39  1  0  0  0  0
 33 34  1  0  0  0  0
 35 36  1  0  0  0  0
 35 41  1  6  0  0  0
 37 38  1  0  0  0  0
 39 40  1  1  0  0  0
 41 42  1  0  0  0  0
M  END
>  <CHROM.1>
-171.66668456,13.14439661,-42.20473844,-82.50684191,173.38950572,-162.42650781
-3.15960535,115.45728027,-178.25818729,-4.07717587,4.40009752,11.69630612
-0.96734399,0.56290681,-2.38827547

>  <Name>
ligand

>  <RI>
0

>  <Rbt.Current_Directory>
/home/itssahil/PROJECTS/Mol_Feturizer/Test_systems_manuscript/rnas/2o3w

>  <Rbt.Executable>
rbdock ($Id: //depot/dev/client3/rdock/2013.1/src/exe/rbdock.cxx#4 $)

>  <Rbt.Library>
libRbt.so (2013.1, Build901 2013/11/27)

>  <Rbt.Parameter_File>
/export/apps/rDock/src/rDock_2013.1_src/data/scripts/dock_solv.prm

>  <Rbt.Receptor>
prm/blind_docking_20.prm

>  <SCORE>
44.0645

>  <SCORE.INTER>
6.3374

>  <SCORE.INTER.CONST>
1

>  <SCORE.INTER.POLAR>
0

>  <SCORE.INTER.ROT>
9

>  <SCORE.INTER.SOLV>
20.1632

>  <SCORE.INTER.VDW>
-12.0961

>  <SCORE.INTER.norm>
0.15089

>  <SCORE.INTRA>
8.60782

>  <SCORE.INTRA.DIHEDRAL>
-1.99863

>  <SCORE.INTRA.DIHEDRAL.0>
27.8999

>  <SCORE.INTRA.POLAR>
0

>  <SCORE.INTRA.POLAR.0>
0

>  <SCORE.INTRA.REPUL>
0

>  <SCORE.INTRA.REPUL.0>
0

>  <SCORE.INTRA.SOLV>
6.23569

>  <SCORE.INTRA.SOLV.lig_0>
-104.479

>  <SCORE.INTRA.VDW>
6.48929

>  <SCORE.INTRA.VDW.0>
-6.17816

>  <SCORE.INTRA.norm>
0.204948

>  <SCORE.RESTR>
29.1193

>  <SCORE.RESTR.CAVITY>
29.1193

>  <SCORE.RESTR.norm>
0.693316

>  <SCORE.SYSTEM>
0

>  <SCORE.SYSTEM.CONST>
0

>  <SCORE.SYSTEM.DIHEDRAL>
0

>  <SCORE.SYSTEM.SOLV>
0

>  <SCORE.SYSTEM.norm>
0

>  <SCORE.heavy>
42

>  <SCORE.norm>
1.04915

>  <RMSD>
15.650

$$$$
ligand
 OpenBabel02271912133D
libRbt.so/2013.1/901 2013/11/27
 42 45  0  0  0  0  0  0  0  0999 V2000
   -2.4996    6.9119   13.6993 C   0  0  2  0  0  0  0  0  0  0  0  0
   -3.5335    6.0076   14.1242 O   0  0  0  0  0  0  0  0  0  0  0  0
   -1.3259    2.2944   14.4922 C   0  0  2  0  0  0  0  0  0  0  0  0
   -0.8725    0.9412   14.9322 N   0  0  0  0  0  0  0  0  0  0  0  0
   -5.4337    4.1187   12.1663 C   0  0  1  0  0  0  0  0  0  0  0  0
   -6.3441    5.0935    9.3304 C   0  0  1  0  0  0  0  0  0  0  0  0
   -3.2040    8.1088   12.9927 C   0  0  2  0  0  0  0  0  0  0  0  0
   -4.3039    8.6699   13.7964 N   0  0  0  0  0  0  0  0  0  0  0  0
   -1.1789    3.3556   15.6559 C   0  0  0  0  0  0  0  0  0  0  0  0
   -6.9884    4.0198   12.2293 C   0  0  2  0  0  0  0  0  0  0  0  0
   -7.5258    2.8068   11.6471 O   0  0  0  0  0  0  0  0  0  0  0  0
   -6.5544    5.1097    7.7734 C   0  0  2  0  0  0  0  0  0  0  0  0
   -7.4593    4.0010    7.3458 N   0  0  0  0  0  0  0  0  0  0  0  0
   -3.8052    7.7121   11.6317 C   0  0  1  0  0  0  0  0  0  0  0  0
   -4.4045    8.8464   11.0032 O   0  0  0  0  0  0  0  0  0  0  0  0
   -1.6500    4.7626   15.1260 C   0  0  2  0  0  0  0  0  0  0  0  0
   -1.5113    5.7903   16.1929 N   0  0  0  0  0  0  0  0  0  0  0  0
   -7.3971    5.3226   11.5401 C   0  0  2  0  0  0  0  0  0  0  0  0
   -7.5541    5.1414   10.0967 O   0  0  0  0  0  0  0  0  0  0  0  0
   -5.1306    5.0033    7.0464 C   0  0  1  0  0  0  0  0  0  0  0  0
   -4.4412    6.2663    7.1822 O   0  0  0  0  0  0  0  0  0  0  0  0
   -2.7037    7.0908   10.7429 C   0  0  2  0  0  0  0  0  0  0  0  0
   -3.2343    6.7375    9.4867 O   0  0  0  0  0  0  0  0  0  0  0  0
   -3.1525    4.7008   14.6415 C   0  0  2  0  0  0  0  0  0  0  0  0
   -6.2854    6.3372   11.8566 C   0  0  2  0  0  0  0  0  0  0  0  0
   -5.1243    5.5172   11.9670 O   0  0  0  0  0  0  0  0  0  0  0  0
   -4.2167    3.8274    7.6377 C   0  0  2  0  0  0  0  0  0  0  0  0
   -4.8126    2.5870    7.2600 O   0  0  0  0  0  0  0  0  0  0  0  0
   -2.1118    5.8354   11.4662 C   0  0  2  0  0  0  0  0  0  0  0  0
   -1.5765    6.2258   12.7703 O   0  0  0  0  0  0  0  0  0  0  0  0
   -3.3838    3.6424   13.5408 C   0  0  2  0  0  0  0  0  0  0  0  0
   -4.8250    3.5947   13.3537 O   0  0  0  0  0  0  0  0  0  0  0  0
   -6.5075    7.1732   13.1551 C   0  0  0  0  0  0  0  0  0  0  0  0
   -7.6251    8.0373   12.9727 O   0  0  0  0  0  0  0  0  0  0  0  0
   -4.1231    3.9319    9.2070 C   0  0  1  0  0  0  0  0  0  0  0  0
   -5.5093    3.8865    9.7035 O   0  0  0  0  0  0  0  0  0  0  0  0
   -1.0180    5.1656   10.6669 C   0  0  0  0  0  0  0  0  0  0  0  0
   -0.3103    4.2597   11.4778 O   0  0  0  0  0  0  0  0  0  0  0  0
   -2.8308    2.2320   14.0106 C   0  0  1  0  0  0  0  0  0  0  0  0
   -2.9070    1.2898   12.9372 O   0  0  0  0  0  0  0  0  0  0  0  0
   -3.2594    2.7801    9.8823 C   0  0  0  0  0  0  0  0  0  0  0  0
   -3.5293    1.4016    9.3887 N   0  0  0  0  0  0  0  0  0  0  0  0
  1  2  1  6  0  0  0
  1  7  1  0  0  0  0
  1 30  1  0  0  0  0
  3  4  1  1  0  0  0
  3  9  1  0  0  0  0
  3 39  1  0  0  0  0
  5 10  1  0  0  0  0
  5 26  1  0  0  0  0
  5 32  1  1  0  0  0
  6 12  1  0  0  0  0
  6 36  1  0  0  0  0
  6 19  1  1  0  0  0
  7  8  1  1  0  0  0
  7 14  1  0  0  0  0
  9 16  1  0  0  0  0
 10 11  1  6  0  0  0
 10 18  1  0  0  0  0
 12 13  1  6  0  0  0
 12 20  1  0  0  0  0
 14 15  1  6  0  0  0
 14 22  1  0  0  0  0
 16 17  1  1  0  0  0
 16 24  1  0  0  0  0
 18 19  1  6  0  0  0
 18 25  1  0  0  0  0
 20 21  1  1  0  0  0
 20 27  1  0  0  0  0
 22 23  1  6  0  0  0
 22 29  1  0  0  0  0
 24  2  1  6  0  0  0
 24 31  1  0  0  0  0
 25 26  1  0  0  0  0
 25 33  1  1  0  0  0
 27 28  1  1  0  0  0
 27 35  1  0  0  0  0
 29 30  1  0  0  0  0
 29 37  1  6  0  0  0
 31 32  1  1  0  0  0
 31 39  1  0  0  0  0
 33 34  1  0  0  0  0
 35 36  1  0  0  0  0
 35 41  1  1  0  0  0
 37 38  1  0  0  0  0
 39 40  1  6  0  0  0
 41 42  1  0  0  0  0
M  END
>  <CHROM.1>
171.04387278,21.27360197,-77.87596323,-171.48713093,-67.13152420,165.95275714
108.91257930,-177.07881731,-45.44983163,-4.11692621,4.92105763,11.59927237
0.49437162,-0.86803520,0.70012812

>  <Name>
ligand

>  <RI>
0

>  <Rbt.Current_Directory>
/home/itssahil/PROJECTS/Mol_Feturizer/Test_systems_manuscript/rnas/2o3w

>  <Rbt.Executable>
rbdock ($Id: //depot/dev/client3/rdock/2013.1/src/exe/rbdock.cxx#4 $)

>  <Rbt.Library>
libRbt.so (2013.1, Build901 2013/11/27)

>  <Rbt.Parameter_File>
/export/apps/rDock/src/rDock_2013.1_src/data/scripts/dock_solv.prm

>  <Rbt.Receptor>
prm/blind_docking_20.prm

>  <SCORE>
47.7632

>  <SCORE.INTER>
21.4927

>  <SCORE.INTER.CONST>
1

>  <SCORE.INTER.POLAR>
0

>  <SCORE.INTER.ROT>
9

>  <SCORE.INTER.SOLV>
27.3537

>  <SCORE.INTER.VDW>
-4.38944

>  <SCORE.INTER.norm>
0.511731

>  <SCORE.INTRA>
0.201754

>  <SCORE.INTRA.DIHEDRAL>
-12.1767

>  <SCORE.INTRA.DIHEDRAL.0>
27.8999

>  <SCORE.INTRA.POLAR>
0

>  <SCORE.INTRA.POLAR.0>
0

>  <SCORE.INTRA.REPUL>
0.0197528

>  <SCORE.INTRA.REPUL.0>
0

>  <SCORE.INTRA.SOLV>
4.87223

>  <SCORE.INTRA.SOLV.lig_0>
-104.479

>  <SCORE.INTRA.VDW>
3.75523

>  <SCORE.INTRA.VDW.0>
-6.17816

>  <SCORE.INTRA.norm>
0.00480366

>  <SCORE.RESTR>
26.0688

>  <SCORE.RESTR.CAVITY>
26.0688

>  <SCORE.RESTR.norm>
0.620685

>  <SCORE.SYSTEM>
0

>  <SCORE.SYSTEM.CONST>
0

>  <SCORE.SYSTEM.DIHEDRAL>
0

>  <SCORE.SYSTEM.SOLV>
0

>  <SCORE.SYSTEM.norm>
0

>  <SCORE.heavy>
42

>  <SCORE.norm>
1.13722

>  <RMSD>
15.658

$$$$
ligand
 OpenBabel02271912133D
libRbt.so/2013.1/901 2013/11/27
 42 45  0  0  0  0  0  0  0  0999 V2000
   -5.2678    2.4050    8.0821 C   0  0  2  0  0  0  0  0  0  0  0  0
   -4.2772    2.5602    9.1126 O   0  0  0  0  0  0  0  0  0  0  0  0
   -6.6021    1.0451   12.4435 C   0  0  2  0  0  0  0  0  0  0  0  0
   -7.0875    0.7358   13.8216 N   0  0  0  0  0  0  0  0  0  0  0  0
   -4.5212    4.9609   11.4161 C   0  0  1  0  0  0  0  0  0  0  0  0
   -1.7917    5.4435   12.4548 C   0  0  1  0  0  0  0  0  0  0  0  0
   -4.5864    2.7888    6.7343 C   0  0  2  0  0  0  0  0  0  0  0  0
   -3.2964    2.1042    6.5398 N   0  0  0  0  0  0  0  0  0  0  0  0
   -5.1921    0.3828   12.1695 C   0  0  0  0  0  0  0  0  0  0  0  0
   -3.9478    6.2077   10.6763 C   0  0  2  0  0  0  0  0  0  0  0  0
   -2.9065    5.8971    9.7179 O   0  0  0  0  0  0  0  0  0  0  0  0
   -2.4858    4.7700   13.6931 C   0  0  2  0  0  0  0  0  0  0  0  0
   -2.2149    5.5428   14.9422 N   0  0  0  0  0  0  0  0  0  0  0  0
   -4.3084    4.2996    6.6295 C   0  0  1  0  0  0  0  0  0  0  0  0
   -3.7211    4.6107    5.3649 O   0  0  0  0  0  0  0  0  0  0  0  0
   -4.7451    0.7248   10.6978 C   0  0  2  0  0  0  0  0  0  0  0  0
   -3.4261    0.1040   10.4003 N   0  0  0  0  0  0  0  0  0  0  0  0
   -3.5224    7.0835   11.8558 C   0  0  2  0  0  0  0  0  0  0  0  0
   -2.1387    6.8188   12.2509 O   0  0  0  0  0  0  0  0  0  0  0  0
   -1.9732    3.2582   13.8290 C   0  0  1  0  0  0  0  0  0  0  0  0
   -2.5799    2.4635   12.7853 O   0  0  0  0  0  0  0  0  0  0  0  0
   -5.6230    5.0823    6.8491 C   0  0  2  0  0  0  0  0  0  0  0  0
   -5.3886    6.4670    6.7397 O   0  0  0  0  0  0  0  0  0  0  0  0
   -4.6533    2.2886   10.4928 C   0  0  2  0  0  0  0  0  0  0  0  0
   -4.4997    6.7603   12.9986 C   0  0  2  0  0  0  0  0  0  0  0  0
   -4.8322    5.3946   12.7601 O   0  0  0  0  0  0  0  0  0  0  0  0
   -0.3783    3.1318   13.7404 C   0  0  2  0  0  0  0  0  0  0  0  0
    0.1666    3.7152   14.9232 O   0  0  0  0  0  0  0  0  0  0  0  0
   -6.1979    4.7286    8.2612 C   0  0  2  0  0  0  0  0  0  0  0  0
   -6.4235    3.2862    8.3533 O   0  0  0  0  0  0  0  0  0  0  0  0
   -5.9833    3.0117   10.7984 C   0  0  2  0  0  0  0  0  0  0  0  0
   -5.6688    4.4303   10.7405 O   0  0  0  0  0  0  0  0  0  0  0  0
   -5.7802    7.6506   13.0411 C   0  0  0  0  0  0  0  0  0  0  0  0
   -6.5050    7.4906   11.8253 O   0  0  0  0  0  0  0  0  0  0  0  0
    0.1681    3.8760   12.4638 C   0  0  1  0  0  0  0  0  0  0  0  0
   -0.2920    5.2711   12.5750 O   0  0  0  0  0  0  0  0  0  0  0  0
   -7.4931    5.4482    8.5587 C   0  0  0  0  0  0  0  0  0  0  0  0
   -7.3968    6.7983    8.1751 O   0  0  0  0  0  0  0  0  0  0  0  0
   -6.5076    2.6105   12.2405 C   0  0  1  0  0  0  0  0  0  0  0  0
   -7.8097    3.1590   12.4624 O   0  0  0  0  0  0  0  0  0  0  0  0
    1.7506    3.8295   12.3147 C   0  0  0  0  0  0  0  0  0  0  0  0
    2.3900    2.5292   12.6570 N   0  0  0  0  0  0  0  0  0  0  0  0
  1  2  1  1  0  0  0
  1  7  1  0  0  0  0
  1 30  1  0  0  0  0
  3  4  1  1  0  0  0
  3  9  1  0  0  0  0
  3 39  1  0  0  0  0
  5 10  1  0  0  0  0
  5 26  1  0  0  0  0
  5 32  1  6  0  0  0
  6 12  1  0  0  0  0
  6 36  1  0  0  0  0
  6 19  1  1  0  0  0
  7  8  1  1  0  0  0
  7 14  1  0  0  0  0
  9 16  1  0  0  0  0
 10 11  1  6  0  0  0
 10 18  1  0  0  0  0
 12 13  1  1  0  0  0
 12 20  1  0  0  0  0
 14 15  1  6  0  0  0
 14 22  1  0  0  0  0
 16 17  1  1  0  0  0
 16 24  1  0  0  0  0
 18 19  1  1  0  0  0
 18 25  1  0  0  0  0
 20 21  1  6  0  0  0
 20 27  1  0  0  0  0
 22 23  1  1  0  0  0
 22 29  1  0  0  0  0
 24  2  1  6  0  0  0
 24 31  1  0  0  0  0
 25 26  1  0  0  0  0
 25 33  1  6  0  0  0
 27 28  1  1  0  0  0
 27 35  1  0  0  0  0
 29 30  1  0  0  0  0
 29 37  1  6  0  0  0
 31 32  1  1  0  0  0
 31 39  1  0  0  0  0
 33 34  1  0  0  0  0
 35 36  1  0  0  0  0
 35 41  1  1  0  0  0
 37 38  1  0  0  0  0
 39 40  1  6  0  0  0
 41 42  1  0  0  0  0
M  END
>  <CHROM.1>
178.89635317,75.39776258,-50.16945878,-67.57734129,60.10268685,-44.25286924
-47.53508094,149.87407571,40.60766228,-3.99969839,4.11803336,10.90372906
3.02205033,-0.80101632,-0.11067596

>  <Name>
ligand

>  <RI>
0

>  <Rbt.Current_Directory>
/home/itssahil/PROJECTS/Mol_Feturizer/Test_systems_manuscript/rnas/2o3w

>  <Rbt.Executable>
rbdock ($Id: //depot/dev/client3/rdock/2013.1/src/exe/rbdock.cxx#4 $)

>  <Rbt.Library>
libRbt.so (2013.1, Build901 2013/11/27)

>  <Rbt.Parameter_File>
/export/apps/rDock/src/rDock_2013.1_src/data/scripts/dock_solv.prm

>  <Rbt.Receptor>
prm/blind_docking_20.prm

>  <SCORE>
61.2661

>  <SCORE.INTER>
23.36

>  <SCORE.INTER.CONST>
1

>  <SCORE.INTER.POLAR>
0

>  <SCORE.INTER.ROT>
9

>  <SCORE.INTER.SOLV>
17.2033

>  <SCORE.INTER.VDW>
0.23889

>  <SCORE.INTER.norm>
0.55619

>  <SCORE.INTRA>
-1.94076

>  <SCORE.INTRA.DIHEDRAL>
-19.4492

>  <SCORE.INTRA.DIHEDRAL.0>
27.8999

>  <SCORE.INTRA.POLAR>
0

>  <SCORE.INTRA.POLAR.0>
0

>  <SCORE.INTRA.REPUL>
0

>  <SCORE.INTRA.REPUL.0>
0

>  <SCORE.INTRA.SOLV>
0.756276

>  <SCORE.INTRA.SOLV.lig_0>
-104.479

>  <SCORE.INTRA.VDW>
7.40571

>  <SCORE.INTRA.VDW.0>
-6.17816

>  <SCORE.INTRA.norm>
-0.0462086

>  <SCORE.RESTR>
39.8469

>  <SCORE.RESTR.CAVITY>
39.8469

>  <SCORE.RESTR.norm>
0.948735

>  <SCORE.SYSTEM>
0

>  <SCORE.SYSTEM.CONST>
0

>  <SCORE.SYSTEM.DIHEDRAL>
0

>  <SCORE.SYSTEM.SOLV>
0

>  <SCORE.SYSTEM.norm>
0

>  <SCORE.heavy>
42

>  <SCORE.norm>
1.45872

>  <RMSD>
15.682

$$$$
ligand
 OpenBabel02271912133D
libRbt.so/2013.1/901 2013/11/27
 42 45  0  0  0  0  0  0  0  0999 V2000
   -0.9846    4.5001   14.1066 C   0  0  2  0  0  0  0  0  0  0  0  0
   -2.4073    4.5715   13.9117 O   0  0  0  0  0  0  0  0  0  0  0  0
   -3.7112    8.5236   12.6962 C   0  0  2  0  0  0  0  0  0  0  0  0
   -4.2713    9.6623   11.9087 N   0  0  0  0  0  0  0  0  0  0  0  0
   -5.4881    4.4139   12.3076 C   0  0  1  0  0  0  0  0  0  0  0  0
   -5.4653    2.8630    9.7553 C   0  0  1  0  0  0  0  0  0  0  0  0
   -0.4969    3.1878   13.4224 C   0  0  2  0  0  0  0  0  0  0  0  0
   -0.9974    3.0512   12.0435 N   0  0  0  0  0  0  0  0  0  0  0  0
   -2.4142    7.9337   12.0094 C   0  0  0  0  0  0  0  0  0  0  0  0
   -6.6377    3.3677   12.4294 C   0  0  2  0  0  0  0  0  0  0  0  0
   -6.1798    2.0145   12.6706 O   0  0  0  0  0  0  0  0  0  0  0  0
   -5.0962    4.1134    8.8785 C   0  0  2  0  0  0  0  0  0  0  0  0
   -5.8755    4.1203    7.6043 N   0  0  0  0  0  0  0  0  0  0  0  0
   -0.9471    1.9287   14.1858 C   0  0  1  0  0  0  0  0  0  0  0  0
   -0.4455    0.7536   13.5468 O   0  0  0  0  0  0  0  0  0  0  0  0
   -1.8590    6.7549   12.8952 C   0  0  2  0  0  0  0  0  0  0  0  0
   -0.6277    6.1847   12.2849 N   0  0  0  0  0  0  0  0  0  0  0  0
   -7.3823    3.5900   11.1120 C   0  0  2  0  0  0  0  0  0  0  0  0
   -6.8619    2.7307   10.0483 O   0  0  0  0  0  0  0  0  0  0  0  0
   -3.5203    4.1097    8.5893 C   0  0  1  0  0  0  0  0  0  0  0  0
   -2.8225    4.4831    9.7986 O   0  0  0  0  0  0  0  0  0  0  0  0
   -0.4729    2.0188   15.6542 C   0  0  2  0  0  0  0  0  0  0  0  0
   -0.8628    0.8654   16.3627 O   0  0  0  0  0  0  0  0  0  0  0  0
   -2.9457    5.6194   13.0558 C   0  0  2  0  0  0  0  0  0  0  0  0
   -7.1991    5.0774   10.7666 C   0  0  2  0  0  0  0  0  0  0  0  0
   -5.9236    5.3822   11.3259 O   0  0  0  0  0  0  0  0  0  0  0  0
   -2.9850    2.6884    8.0786 C   0  0  2  0  0  0  0  0  0  0  0  0
   -3.5065    2.4773    6.7672 O   0  0  0  0  0  0  0  0  0  0  0  0
   -1.0821    3.3029   16.3096 C   0  0  2  0  0  0  0  0  0  0  0  0
   -0.6712    4.4844   15.5513 O   0  0  0  0  0  0  0  0  0  0  0  0
   -4.2651    6.1359   13.6705 C   0  0  2  0  0  0  0  0  0  0  0  0
   -5.1941    5.0216   13.5723 O   0  0  0  0  0  0  0  0  0  0  0  0
   -8.3013    6.0252   11.3332 C   0  0  0  0  0  0  0  0  0  0  0  0
   -9.5739    5.6116   10.8448 O   0  0  0  0  0  0  0  0  0  0  0  0
   -3.4567    1.5369    9.0449 C   0  0  1  0  0  0  0  0  0  0  0  0
   -4.9272    1.6151    9.0873 O   0  0  0  0  0  0  0  0  0  0  0  0
   -0.6631    3.4745   17.7514 C   0  0  0  0  0  0  0  0  0  0  0  0
   -0.9043    4.7950   18.1725 O   0  0  0  0  0  0  0  0  0  0  0  0
   -4.7987    7.3864   12.8537 C   0  0  1  0  0  0  0  0  0  0  0  0
   -5.9344    7.9563   13.5101 O   0  0  0  0  0  0  0  0  0  0  0  0
   -2.9965    0.0833    8.5934 C   0  0  0  0  0  0  0  0  0  0  0  0
   -2.0898    0.0344    7.4135 N   0  0  0  0  0  0  0  0  0  0  0  0
  1  2  1  1  0  0  0
  1  7  1  0  0  0  0
  1 30  1  0  0  0  0
  3  4  1  6  0  0  0
  3  9  1  0  0  0  0
  3 39  1  0  0  0  0
  5 10  1  0  0  0  0
  5 26  1  0  0  0  0
  5 32  1  1  0  0  0
  6 12  1  0  0  0  0
  6 36  1  0  0  0  0
  6 19  1  6  0  0  0
  7  8  1  6  0  0  0
  7 14  1  0  0  0  0
  9 16  1  0  0  0  0
 10 11  1  6  0  0  0
 10 18  1  0  0  0  0
 12 13  1  6  0  0  0
 12 20  1  0  0  0  0
 14 15  1  6  0  0  0
 14 22  1  0  0  0  0
 16 17  1  6  0  0  0
 16 24  1  0  0  0  0
 18 19  1  6  0  0  0
 18 25  1  0  0  0  0
 20 21  1  1  0  0  0
 20 27  1  0  0  0  0
 22 23  1  1  0  0  0
 22 29  1  0  0  0  0
 24  2  1  1  0  0  0
 24 31  1  0  0  0  0
 25 26  1  0  0  0  0
 25 33  1  1  0  0  0
 27 28  1  6  0  0  0
 27 35  1  0  0  0  0
 29 30  1  0  0  0  0
 29 37  1  1  0  0  0
 31 32  1  6  0  0  0
 31 39  1  0  0  0  0
 33 34  1  0  0  0  0
 35 36  1  0  0  0  0
 35 41  1  6  0  0  0
 37 38  1  0  0  0  0
 39 40  1  1  0  0  0
 41 42  1  0  0  0  0
M  END
>  <CHROM.1>
-112.67610369,-18.57908468,-57.60619802,-78.56695021,-58.31301587,163.21776081
-56.77577971,-172.82675286,5.58399575,-3.66670388,4.13200172,12.06609928
-0.63793758,0.70700689,-2.30456755

>  <Name>
ligand

>  <RI>
0

>  <Rbt.Current_Directory>
/home/itssahil/PROJECTS/Mol_Feturizer/Test_systems_manuscript/rnas/2o3w

>  <Rbt.Executable>
rbdock ($Id: //depot/dev/client3/rdock/2013.1/src/exe/rbdock.cxx#4 $)

>  <Rbt.Library>
libRbt.so (2013.1, Build901 2013/11/27)

>  <Rbt.Parameter_File>
/export/apps/rDock/src/rDock_2013.1_src/data/scripts/dock_solv.prm

>  <Rbt.Receptor>
prm/blind_docking_20.prm

>  <SCORE>
60.278

>  <SCORE.INTER>
16.3228

>  <SCORE.INTER.CONST>
1

>  <SCORE.INTER.POLAR>
0

>  <SCORE.INTER.ROT>
9

>  <SCORE.INTER.SOLV>
21.5169

>  <SCORE.INTER.VDW>
-5.89041

>  <SCORE.INTER.norm>
0.388638

>  <SCORE.INTRA>
6.9574

>  <SCORE.INTRA.DIHEDRAL>
-7.24914

>  <SCORE.INTRA.DIHEDRAL.0>
27.8999

>  <SCORE.INTRA.POLAR>
0

>  <SCORE.INTRA.POLAR.0>
0

>  <SCORE.INTRA.REPUL>
0.459779

>  <SCORE.INTRA.REPUL.0>
0

>  <SCORE.INTRA.SOLV>
2.96462

>  <SCORE.INTRA.SOLV.lig_0>
-104.479

>  <SCORE.INTRA.VDW>
6.80077

>  <SCORE.INTRA.VDW.0>
-6.17816

>  <SCORE.INTRA.norm>
0.165652

>  <SCORE.RESTR>
36.9978

>  <SCORE.RESTR.CAVITY>
36.9978

>  <SCORE.RESTR.norm>
0.8809

>  <SCORE.SYSTEM>
0

>  <SCORE.SYSTEM.CONST>
0

>  <SCORE.SYSTEM.DIHEDRAL>
0

>  <SCORE.SYSTEM.SOLV>
0

>  <SCORE.SYSTEM.norm>
0

>  <SCORE.heavy>
42

>  <SCORE.norm>
1.43519

>  <RMSD>
15.689

$$$$
ligand
 OpenBabel02271912133D
libRbt.so/2013.1/901 2013/11/27
 42 45  0  0  0  0  0  0  0  0999 V2000
   -1.9171    4.3348   11.9232 C   0  0  2  0  0  0  0  0  0  0  0  0
   -3.1986    4.7764   11.4436 O   0  0  0  0  0  0  0  0  0  0  0  0
   -3.2214    8.7587   13.1574 C   0  0  2  0  0  0  0  0  0  0  0  0
   -3.5540   10.1852   13.4486 N   0  0  0  0  0  0  0  0  0  0  0  0
   -5.7864    4.7791   11.7977 C   0  0  1  0  0  0  0  0  0  0  0  0
   -5.8198    2.9185    9.4296 C   0  0  1  0  0  0  0  0  0  0  0  0
   -1.9928    2.7846   12.0619 C   0  0  2  0  0  0  0  0  0  0  0  0
   -2.5208    2.1351   10.8495 N   0  0  0  0  0  0  0  0  0  0  0  0
   -2.6437    8.5911   11.6945 C   0  0  0  0  0  0  0  0  0  0  0  0
   -6.9021    3.7367   12.1131 C   0  0  2  0  0  0  0  0  0  0  0  0
   -6.3996    2.4475   12.5428 O   0  0  0  0  0  0  0  0  0  0  0  0
   -5.6202    4.0602    8.3687 C   0  0  2  0  0  0  0  0  0  0  0  0
   -6.5009    3.8454    7.1817 N   0  0  0  0  0  0  0  0  0  0  0  0
   -2.8948    2.3458   13.2302 C   0  0  1  0  0  0  0  0  0  0  0  0
   -2.9031    0.9218   13.3446 O   0  0  0  0  0  0  0  0  0  0  0  0
   -2.2921    7.0740   11.4554 C   0  0  2  0  0  0  0  0  0  0  0  0
   -1.7311    6.8817   10.0909 N   0  0  0  0  0  0  0  0  0  0  0  0
   -7.6885    3.7372   10.8013 C   0  0  2  0  0  0  0  0  0  0  0  0
   -7.1732    2.7381    9.8648 O   0  0  0  0  0  0  0  0  0  0  0  0
   -4.0780    4.1180    7.9382 C   0  0  1  0  0  0  0  0  0  0  0  0
   -3.3123    4.6948    9.0198 O   0  0  0  0  0  0  0  0  0  0  0  0
   -2.4084    3.0141   14.5363 C   0  0  2  0  0  0  0  0  0  0  0  0
   -3.2139    2.6093   15.6188 O   0  0  0  0  0  0  0  0  0  0  0  0
   -3.5755    6.1701   11.6332 C   0  0  2  0  0  0  0  0  0  0  0  0
   -7.5571    5.1583   10.2281 C   0  0  2  0  0  0  0  0  0  0  0  0
   -6.2759    5.5753   10.6942 O   0  0  0  0  0  0  0  0  0  0  0  0
   -3.4813    2.6779    7.5675 C   0  0  2  0  0  0  0  0  0  0  0  0
   -4.0926    2.2590    6.3480 O   0  0  0  0  0  0  0  0  0  0  0  0
   -2.4558    4.5688   14.3627 C   0  0  2  0  0  0  0  0  0  0  0  0
   -1.6205    4.9628   13.2283 O   0  0  0  0  0  0  0  0  0  0  0  0
   -4.2290    6.3248   13.0240 C   0  0  2  0  0  0  0  0  0  0  0  0
   -5.4753    5.5797   12.9454 O   0  0  0  0  0  0  0  0  0  0  0  0
   -8.6698    6.1550   10.6782 C   0  0  0  0  0  0  0  0  0  0  0  0
   -8.2866    6.7641   11.9075 O   0  0  0  0  0  0  0  0  0  0  0  0
   -3.7829    1.6395    8.7134 C   0  0  1  0  0  0  0  0  0  0  0  0
   -5.2465    1.6288    8.8810 O   0  0  0  0  0  0  0  0  0  0  0  0
   -1.9884    5.3062   15.5962 C   0  0  0  0  0  0  0  0  0  0  0  0
   -0.7520    4.7929   16.0286 O   0  0  0  0  0  0  0  0  0  0  0  0
   -4.5075    7.8554   13.3325 C   0  0  1  0  0  0  0  0  0  0  0  0
   -4.9709    8.0115   14.6766 O   0  0  0  0  0  0  0  0  0  0  0  0
   -3.2534    0.1707    8.4122 C   0  0  0  0  0  0  0  0  0  0  0  0
   -1.7871    0.0508    8.1837 N   0  0  0  0  0  0  0  0  0  0  0  0
  1  2  1  1  0  0  0
  1  7  1  0  0  0  0
  1 30  1  0  0  0  0
  3  4  1  6  0  0  0
  3  9  1  0  0  0  0
  3 39  1  0  0  0  0
  5 10  1  0  0  0  0
  5 26  1  0  0  0  0
  5 32  1  1  0  0  0
  6 12  1  0  0  0  0
  6 36  1  0  0  0  0
  6 19  1  6  0  0  0
  7  8  1  6  0  0  0
  7 14  1  0  0  0  0
  9 16  1  0  0  0  0
 10 11  1  6  0  0  0
 10 18  1  0  0  0  0
 12 13  1  6  0  0  0
 12 20  1  0  0  0  0
 14 15  1  1  0  0  0
 14 22  1  0  0  0  0
 16 17  1  6  0  0  0
 16 24  1  0  0  0  0
 18 19  1  6  0  0  0
 18 25  1  0  0  0  0
 20 21  1  1  0  0  0
 20 27  1  0  0  0  0
 22 23  1  1  0  0  0
 22 29  1  0  0  0  0
 24  2  1  1  0  0  0
 24 31  1  0  0  0  0
 25 26  1  0  0  0  0
 25 33  1  1  0  0  0
 27 28  1  6  0  0  0
 27 35  1  0  0  0  0
 29 30  1  0  0  0  0
 29 37  1  1  0  0  0
 31 32  1  6  0  0  0
 31 39  1  0  0  0  0
 33 34  1  0  0  0  0
 35 36  1  0  0  0  0
 35 41  1  6  0  0  0
 37 38  1  0  0  0  0
 39 40  1  1  0  0  0
 41 42  1  0  0  0  0
M  END
>  <CHROM.1>
159.93376411,36.59631124,-62.35635716,-75.59729169,87.13239413,50.09777242
7.12913114,161.47068856,59.12583565,-4.19855444,4.43806352,11.41425588,-1.27469232
0.68282483,-2.42650418

>  <Name>
ligand

>  <RI>
0

>  <Rbt.Current_Directory>
/home/itssahil/PROJECTS/Mol_Feturizer/Test_systems_manuscript/rnas/2o3w

>  <Rbt.Executable>
rbdock ($Id: //depot/dev/client3/rdock/2013.1/src/exe/rbdock.cxx#4 $)

>  <Rbt.Library>
libRbt.so (2013.1, Build901 2013/11/27)

>  <Rbt.Parameter_File>
/export/apps/rDock/src/rDock_2013.1_src/data/scripts/dock_solv.prm

>  <Rbt.Receptor>
prm/blind_docking_20.prm

>  <SCORE>
50.3972

>  <SCORE.INTER>
13.4814

>  <SCORE.INTER.CONST>
1

>  <SCORE.INTER.POLAR>
0

>  <SCORE.INTER.ROT>
9

>  <SCORE.INTER.SOLV>
20.0698

>  <SCORE.INTER.VDW>
-7.30236

>  <SCORE.INTER.norm>
0.320985

>  <SCORE.INTRA>
5.687

>  <SCORE.INTRA.DIHEDRAL>
-11.3856

>  <SCORE.INTRA.DIHEDRAL.0>
27.8999

>  <SCORE.INTRA.POLAR>
0

>  <SCORE.INTRA.POLAR.0>
0

>  <SCORE.INTRA.REPUL>
0.00588409

>  <SCORE.INTRA.REPUL.0>
0

>  <SCORE.INTRA.SOLV>
6.50301

>  <SCORE.INTRA.SOLV.lig_0>
-104.479

>  <SCORE.INTRA.VDW>
8.09885

>  <SCORE.INTRA.VDW.0>
-6.17816

>  <SCORE.INTRA.norm>
0.135405

>  <SCORE.RESTR>
31.2288

>  <SCORE.RESTR.CAVITY>
31.2288

>  <SCORE.RESTR.norm>
0.743542

>  <SCORE.SYSTEM>
0

>  <SCORE.SYSTEM.CONST>
0

>  <SCORE.SYSTEM.DIHEDRAL>
0

>  <SCORE.SYSTEM.SOLV>
0

>  <SCORE.SYSTEM.norm>
0

>  <SCORE.heavy>
42

>  <SCORE.norm>
1.19993

>  <RMSD>
15.689

$$$$
ligand
 OpenBabel02271912133D
libRbt.so/2013.1/901 2013/11/27
 42 45  0  0  0  0  0  0  0  0999 V2000
   -1.8333    4.2024   12.0615 C   0  0  2  0  0  0  0  0  0  0  0  0
   -3.2204    4.5804   12.0425 O   0  0  0  0  0  0  0  0  0  0  0  0
   -3.1605    8.8010   13.0322 C   0  0  2  0  0  0  0  0  0  0  0  0
   -3.4572   10.2644   13.0615 N   0  0  0  0  0  0  0  0  0  0  0  0
   -5.9800    4.9996   12.1662 C   0  0  1  0  0  0  0  0  0  0  0  0
   -6.0227    3.3961    9.6881 C   0  0  1  0  0  0  0  0  0  0  0  0
   -1.7823    2.6515   11.9189 C   0  0  2  0  0  0  0  0  0  0  0  0
   -2.6007    2.1614   10.7962 N   0  0  0  0  0  0  0  0  0  0  0  0
   -2.5605    8.3648   11.6352 C   0  0  0  0  0  0  0  0  0  0  0  0
   -6.2836    3.5025   12.4782 C   0  0  2  0  0  0  0  0  0  0  0  0
   -5.1717    2.6098   12.2217 O   0  0  0  0  0  0  0  0  0  0  0  0
   -6.2692    4.7991    9.0249 C   0  0  2  0  0  0  0  0  0  0  0  0
   -7.3636    4.7251    8.0112 N   0  0  0  0  0  0  0  0  0  0  0  0
   -2.2856    1.9317   13.1836 C   0  0  1  0  0  0  0  0  0  0  0  0
   -2.1840    0.5157   13.0236 O   0  0  0  0  0  0  0  0  0  0  0  0
   -2.2483    6.8209   11.6736 C   0  0  2  0  0  0  0  0  0  0  0  0
   -1.6676    6.3781   10.3773 N   0  0  0  0  0  0  0  0  0  0  0  0
   -7.5313    3.2685   11.6250 C   0  0  2  0  0  0  0  0  0  0  0  0
   -7.1849    2.8039   10.2815 O   0  0  0  0  0  0  0  0  0  0  0  0
   -4.9056    5.3179    8.3629 C   0  0  1  0  0  0  0  0  0  0  0  0
   -4.0045    5.7334    9.4138 O   0  0  0  0  0  0  0  0  0  0  0  0
   -1.4810    2.4203   14.4096 C   0  0  2  0  0  0  0  0  0  0  0  0
   -1.9184    1.7582   15.5736 O   0  0  0  0  0  0  0  0  0  0  0  0
   -3.5604    5.9948   11.9764 C   0  0  2  0  0  0  0  0  0  0  0  0
   -8.2705    4.6163   11.5753 C   0  0  2  0  0  0  0  0  0  0  0  0
   -7.2115    5.5667   11.6633 O   0  0  0  0  0  0  0  0  0  0  0  0
   -4.1932    4.2068    7.4543 C   0  0  2  0  0  0  0  0  0  0  0  0
   -5.0049    4.0114    6.2969 O   0  0  0  0  0  0  0  0  0  0  0  0
   -1.6599    3.9684   14.5537 C   0  0  2  0  0  0  0  0  0  0  0  0
   -1.2084    4.6318   13.3307 O   0  0  0  0  0  0  0  0  0  0  0  0
   -4.2352    6.4075   13.3029 C   0  0  2  0  0  0  0  0  0  0  0  0
   -5.5007    5.6917   13.3266 O   0  0  0  0  0  0  0  0  0  0  0  0
   -9.3170    4.8352   12.7115 C   0  0  0  0  0  0  0  0  0  0  0  0
   -8.7502    4.4374   13.9562 O   0  0  0  0  0  0  0  0  0  0  0  0
   -4.0404    2.8543    8.2477 C   0  0  1  0  0  0  0  0  0  0  0  0
   -5.3996    2.4692    8.6655 O   0  0  0  0  0  0  0  0  0  0  0  0
   -0.8981    4.5349   15.7296 C   0  0  0  0  0  0  0  0  0  0  0  0
   -1.2653    5.8759   15.9446 O   0  0  0  0  0  0  0  0  0  0  0  0
   -4.4752    7.9750   13.3323 C   0  0  1  0  0  0  0  0  0  0  0  0
   -4.9591    8.3761   14.6170 O   0  0  0  0  0  0  0  0  0  0  0  0
   -3.3711    1.6822    7.4069 C   0  0  0  0  0  0  0  0  0  0  0  0
   -1.9142    1.4788    7.6357 N   0  0  0  0  0  0  0  0  0  0  0  0
  1  2  1  1  0  0  0
  1  7  1  0  0  0  0
  1 30  1  0  0  0  0
  3  4  1  6  0  0  0
  3  9  1  0  0  0  0
  3 39  1  0  0  0  0
  5 10  1  0  0  0  0
  5 26  1  0  0  0  0
  5 32  1  1  0  0  0
  6 12  1  0  0  0  0
  6 36  1  0  0  0  0
  6 19  1  6  0  0  0
  7  8  1  6  0  0  0
  7 14  1  0  0  0  0
  9 16  1  0  0  0  0
 10 11  1  6  0  0  0
 10 18  1  0  0  0  0
 12 13  1  6  0  0  0
 12 20  1  0  0  0  0
 14 15  1  6  0  0  0
 14 22  1  0  0  0  0
 16 17  1  6  0  0  0
 16 24  1  0  0  0  0
 18 19  1  6  0  0  0
 18 25  1  0  0  0  0
 20 21  1  1  0  0  0
 20 27  1  0  0  0  0
 22 23  1  1  0  0  0
 22 29  1  0  0  0  0
 24  2  1  1  0  0  0
 24 31  1  0  0  0  0
 25 26  1  0  0  0  0
 25 33  1  1  0  0  0
 27 28  1  6  0  0  0
 27 35  1  0  0  0  0
 29 30  1  0  0  0  0
 29 37  1  1  0  0  0
 31 32  1  6  0  0  0
 31 39  1  0  0  0  0
 33 34  1  0  0  0  0
 35 36  1  0  0  0  0
 35 41  1  6  0  0  0
 37 38  1  0  0  0  0
 39 40  1  1  0  0  0
 41 42  1  0  0  0  0
M  END
>  <CHROM.1>
-171.72661316,10.22629225,-38.19226550,-81.76981021,45.14684555,-170.32420115
-10.28257691,124.92014147,97.95000422,-4.21211152,4.54400181,11.64095522
-0.96123208,0.55490457,-2.29524280

>  <Name>
ligand

>  <RI>
0

>  <Rbt.Current_Directory>
/home/itssahil/PROJECTS/Mol_Feturizer/Test_systems_manuscript/rnas/2o3w

>  <Rbt.Executable>
rbdock ($Id: //depot/dev/client3/rdock/2013.1/src/exe/rbdock.cxx#4 $)

>  <Rbt.Library>
libRbt.so (2013.1, Build901 2013/11/27)

>  <Rbt.Parameter_File>
/export/apps/rDock/src/rDock_2013.1_src/data/scripts/dock_solv.prm

>  <Rbt.Receptor>
prm/blind_docking_20.prm

>  <SCORE>
48.0788

>  <SCORE.INTER>
7.81781

>  <SCORE.INTER.CONST>
1

>  <SCORE.INTER.POLAR>
0

>  <SCORE.INTER.ROT>
9

>  <SCORE.INTER.SOLV>
25.8411

>  <SCORE.INTER.VDW>
-13.0018

>  <SCORE.INTER.norm>
0.186138

>  <SCORE.INTRA>
10.6884

>  <SCORE.INTRA.DIHEDRAL>
1.94558

>  <SCORE.INTRA.DIHEDRAL.0>
27.8999

>  <SCORE.INTRA.POLAR>
0

>  <SCORE.INTRA.POLAR.0>
0

>  <SCORE.INTRA.REPUL>
0

>  <SCORE.INTRA.REPUL.0>
0

>  <SCORE.INTRA.SOLV>
5.98713

>  <SCORE.INTRA.SOLV.lig_0>
-104.479

>  <SCORE.INTRA.VDW>
6.72201

>  <SCORE.INTRA.VDW.0>
-6.17816

>  <SCORE.INTRA.norm>
0.254485

>  <SCORE.RESTR>
29.5726

>  <SCORE.RESTR.CAVITY>
29.5726

>  <SCORE.RESTR.norm>
0.704109

>  <SCORE.SYSTEM>
0

>  <SCORE.SYSTEM.CONST>
0

>  <SCORE.SYSTEM.DIHEDRAL>
0

>  <SCORE.SYSTEM.SOLV>
0

>  <SCORE.SYSTEM.norm>
0

>  <SCORE.heavy>
42

>  <SCORE.norm>
1.14473

>  <RMSD>
15.693

$$$$
ligand
 OpenBabel02271912133D
libRbt.so/2013.1/901 2013/11/27
 42 45  0  0  0  0  0  0  0  0999 V2000
   -5.4122    1.9815   10.1753 C   0  0  2  0  0  0  0  0  0  0  0  0
   -5.3030    3.3003   10.7375 O   0  0  0  0  0  0  0  0  0  0  0  0
   -8.7508    5.0443    8.7710 C   0  0  2  0  0  0  0  0  0  0  0  0
   -9.8045    6.0027    8.3217 N   0  0  0  0  0  0  0  0  0  0  0  0
   -4.2438    5.9197    9.9278 C   0  0  1  0  0  0  0  0  0  0  0  0
   -2.7814    6.2946   12.4620 C   0  0  1  0  0  0  0  0  0  0  0  0
   -4.1750    1.1727   10.6686 C   0  0  2  0  0  0  0  0  0  0  0  0
   -3.9810    1.2720   12.1257 N   0  0  0  0  0  0  0  0  0  0  0  0
   -8.8537    4.7649   10.3244 C   0  0  0  0  0  0  0  0  0  0  0  0
   -2.7747    6.3485    9.6301 C   0  0  2  0  0  0  0  0  0  0  0  0
   -1.7877    5.3424    9.9658 O   0  0  0  0  0  0  0  0  0  0  0  0
   -4.1943    6.5466   13.1017 C   0  0  2  0  0  0  0  0  0  0  0  0
   -4.1574    7.7133   14.0336 N   0  0  0  0  0  0  0  0  0  0  0  0
   -2.8660    1.6489   10.0122 C   0  0  1  0  0  0  0  0  0  0  0  0
   -1.7666    0.8555   10.4625 O   0  0  0  0  0  0  0  0  0  0  0  0
   -7.7347    3.7335   10.7326 C   0  0  2  0  0  0  0  0  0  0  0  0
   -7.8115    3.4359   12.1883 N   0  0  0  0  0  0  0  0  0  0  0  0
   -2.6816    7.6563   10.4176 C   0  0  2  0  0  0  0  0  0  0  0  0
   -2.2209    7.4279   11.7874 O   0  0  0  0  0  0  0  0  0  0  0  0
   -4.6758    5.2197   13.8596 C   0  0  1  0  0  0  0  0  0  0  0  0
   -5.0595    4.2330   12.8757 O   0  0  0  0  0  0  0  0  0  0  0  0
   -3.0102    1.5926    8.4743 C   0  0  2  0  0  0  0  0  0  0  0  0
   -1.8140    2.0097    7.8582 O   0  0  0  0  0  0  0  0  0  0  0  0
   -6.3017    4.2986   10.3819 C   0  0  2  0  0  0  0  0  0  0  0  0
   -4.0941    8.2645   10.3989 C   0  0  2  0  0  0  0  0  0  0  0  0
   -4.9375    7.1162   10.3502 O   0  0  0  0  0  0  0  0  0  0  0  0
   -3.5486    4.6085   14.8205 C   0  0  2  0  0  0  0  0  0  0  0  0
   -3.3829    5.5073   15.9164 O   0  0  0  0  0  0  0  0  0  0  0  0
   -4.2041    2.5066    8.0397 C   0  0  2  0  0  0  0  0  0  0  0  0
   -5.4311    2.0599    8.6991 O   0  0  0  0  0  0  0  0  0  0  0  0
   -6.1456    4.6485    8.8857 C   0  0  2  0  0  0  0  0  0  0  0  0
   -4.8576    5.3155    8.7818 O   0  0  0  0  0  0  0  0  0  0  0  0
   -4.3819    9.2235    9.2024 C   0  0  0  0  0  0  0  0  0  0  0  0
   -4.8435    8.4626    8.0902 O   0  0  0  0  0  0  0  0  0  0  0  0
   -2.1884    4.4389   14.0439 C   0  0  1  0  0  0  0  0  0  0  0  0
   -1.8415    5.7751   13.5296 O   0  0  0  0  0  0  0  0  0  0  0  0
   -4.4222    2.5063    6.5443 C   0  0  0  0  0  0  0  0  0  0  0  0
   -3.3583    3.1628    5.8990 O   0  0  0  0  0  0  0  0  0  0  0  0
   -7.3168    5.6124    8.4223 C   0  0  1  0  0  0  0  0  0  0  0  0
   -7.2593    5.8141    7.0075 O   0  0  0  0  0  0  0  0  0  0  0  0
   -1.0012    3.8674   14.9342 C   0  0  0  0  0  0  0  0  0  0  0  0
   -0.7165    4.6218   16.1858 N   0  0  0  0  0  0  0  0  0  0  0  0
  1  2  1  1  0  0  0
  1  7  1  0  0  0  0
  1 30  1  0  0  0  0
  3  4  1  1  0  0  0
  3  9  1  0  0  0  0
  3 39  1  0  0  0  0
  5 10  1  0  0  0  0
  5 26  1  0  0  0  0
  5 32  1  6  0  0  0
  6 12  1  0  0  0  0
  6 36  1  0  0  0  0
  6 19  1  1  0  0  0
  7  8  1  1  0  0  0
  7 14  1  0  0  0  0
  9 16  1  0  0  0  0
 10 11  1  1  0  0  0
 10 18  1  0  0  0  0
 12 13  1  1  0  0  0
 12 20  1  0  0  0  0
 14 15  1  1  0  0  0
 14 22  1  0  0  0  0
 16 17  1  1  0  0  0
 16 24  1  0  0  0  0
 18 19  1  1  0  0  0
 18 25  1  0  0  0  0
 20 21  1  6  0  0  0
 20 27  1  0  0  0  0
 22 23  1  6  0  0  0
 22 29  1  0  0  0  0
 24  2  1  6  0  0  0
 24 31  1  0  0  0  0
 25 26  1  0  0  0  0
 25 33  1  6  0  0  0
 27 28  1  1  0  0  0
 27 35  1  0  0  0  0
 29 30  1  0  0  0  0
 29 37  1  6  0  0  0
 31 32  1  1  0  0  0
 31 39  1  0  0  0  0
 33 34  1  0  0  0  0
 35 36  1  0  0  0  0
 35 41  1  1  0  0  0
 37 38  1  0  0  0  0
 39 40  1  6  0  0  0
 41 42  1  0  0  0  0
M  END
>  <CHROM.1>
176.89067963,55.87335262,-42.04717229,-82.19982158,87.09004643,-69.06919941
-21.17563142,170.10766722,-54.41415497,-4.39875616,4.70319631,10.66565182
-2.47652482,-0.84449074,0.65194452

>  <Name>
ligand

>  <RI>
0

>  <Rbt.Current_Directory>
/home/itssahil/PROJECTS/Mol_Feturizer/Test_systems_manuscript/rnas/2o3w

>  <Rbt.Executable>
rbdock ($Id: //depot/dev/client3/rdock/2013.1/src/exe/rbdock.cxx#4 $)

>  <Rbt.Library>
libRbt.so (2013.1, Build901 2013/11/27)

>  <Rbt.Parameter_File>
/export/apps/rDock/src/rDock_2013.1_src/data/scripts/dock_solv.prm

>  <Rbt.Receptor>
prm/blind_docking_20.prm

>  <SCORE>
60.5823

>  <SCORE.INTER>
22.2863

>  <SCORE.INTER.CONST>
1

>  <SCORE.INTER.POLAR>
0

>  <SCORE.INTER.ROT>
9

>  <SCORE.INTER.SOLV>
29.6948

>  <SCORE.INTER.VDW>
-4.64075

>  <SCORE.INTER.norm>
0.530626

>  <SCORE.INTRA>
1.55986

>  <SCORE.INTRA.DIHEDRAL>
-15.7472

>  <SCORE.INTRA.DIHEDRAL.0>
27.8999

>  <SCORE.INTRA.POLAR>
0

>  <SCORE.INTRA.POLAR.0>
0

>  <SCORE.INTRA.REPUL>
0.569025

>  <SCORE.INTRA.REPUL.0>
0

>  <SCORE.INTRA.SOLV>
2.88682

>  <SCORE.INTRA.SOLV.lig_0>
-104.479

>  <SCORE.INTRA.VDW>
5.14491

>  <SCORE.INTRA.VDW.0>
-6.17816

>  <SCORE.INTRA.norm>
0.0371395

>  <SCORE.RESTR>
36.7361

>  <SCORE.RESTR.CAVITY>
36.7361

>  <SCORE.RESTR.norm>
0.874669

>  <SCORE.SYSTEM>
0

>  <SCORE.SYSTEM.CONST>
0

>  <SCORE.SYSTEM.DIHEDRAL>
0

>  <SCORE.SYSTEM.SOLV>
0

>  <SCORE.SYSTEM.norm>
0

>  <SCORE.heavy>
42

>  <SCORE.norm>
1.44244

>  <RMSD>
15.699

$$$$
ligand
 OpenBabel02271912133D
libRbt.so/2013.1/901 2013/11/27
 42 45  0  0  0  0  0  0  0  0999 V2000
   -4.9364    2.0411    9.3908 C   0  0  2  0  0  0  0  0  0  0  0  0
   -4.5187    3.1266   10.2361 O   0  0  0  0  0  0  0  0  0  0  0  0
   -8.3594    4.9949   10.9808 C   0  0  2  0  0  0  0  0  0  0  0  0
   -9.4620    5.7977   11.5893 N   0  0  0  0  0  0  0  0  0  0  0  0
   -3.8156    6.0039   11.1461 C   0  0  1  0  0  0  0  0  0  0  0  0
   -1.8995    5.4489   13.3875 C   0  0  1  0  0  0  0  0  0  0  0  0
   -3.7258    1.0675    9.2689 C   0  0  2  0  0  0  0  0  0  0  0  0
   -3.1478    0.7199   10.5787 N   0  0  0  0  0  0  0  0  0  0  0  0
   -7.9237    3.8065   11.9293 C   0  0  0  0  0  0  0  0  0  0  0  0
   -2.5626    6.8836   10.8512 C   0  0  2  0  0  0  0  0  0  0  0  0
   -1.4308    6.1424   10.3329 O   0  0  0  0  0  0  0  0  0  0  0  0
   -2.4934    5.2924   14.8338 C   0  0  2  0  0  0  0  0  0  0  0  0
   -1.5180    5.7587   15.8643 N   0  0  0  0  0  0  0  0  0  0  0  0
   -2.5839    1.6583    8.4216 C   0  0  1  0  0  0  0  0  0  0  0  0
   -1.5144    0.7185    8.3038 O   0  0  0  0  0  0  0  0  0  0  0  0
   -6.7775    2.9859   11.2255 C   0  0  2  0  0  0  0  0  0  0  0  0
   -6.3524    1.8487   12.0855 N   0  0  0  0  0  0  0  0  0  0  0  0
   -2.3477    7.5582   12.2070 C   0  0  2  0  0  0  0  0  0  0  0  0
   -1.4583    6.7733   13.0635 O   0  0  0  0  0  0  0  0  0  0  0  0
   -2.8986    3.7614   15.0761 C   0  0  1  0  0  0  0  0  0  0  0  0
   -4.0957    3.4698   14.3206 O   0  0  0  0  0  0  0  0  0  0  0  0
   -3.1298    2.0688    7.0350 C   0  0  2  0  0  0  0  0  0  0  0  0
   -2.0928    2.5963    6.2408 O   0  0  0  0  0  0  0  0  0  0  0  0
   -5.5353    3.9131   10.9204 C   0  0  2  0  0  0  0  0  0  0  0  0
   -3.7438    7.7014   12.8359 C   0  0  2  0  0  0  0  0  0  0  0  0
   -4.4485    6.5780   12.3127 O   0  0  0  0  0  0  0  0  0  0  0  0
   -1.7388    2.7374   14.6589 C   0  0  2  0  0  0  0  0  0  0  0  0
   -0.6714    2.8914   15.5933 O   0  0  0  0  0  0  0  0  0  0  0  0
   -4.2703    3.1233    7.2271 C   0  0  2  0  0  0  0  0  0  0  0  0
   -5.3293    2.5560    8.0618 O   0  0  0  0  0  0  0  0  0  0  0  0
   -5.8982    5.1306   10.0422 C   0  0  2  0  0  0  0  0  0  0  0  0
   -4.7010    5.9557   10.0197 O   0  0  0  0  0  0  0  0  0  0  0  0
   -4.4833    9.0337   12.5005 C   0  0  0  0  0  0  0  0  0  0  0  0
   -5.7086    9.0869   13.2249 O   0  0  0  0  0  0  0  0  0  0  0  0
   -1.2319    3.0373   13.1976 C   0  0  1  0  0  0  0  0  0  0  0  0
   -0.7851    4.4411   13.1995 O   0  0  0  0  0  0  0  0  0  0  0  0
   -4.8689    3.5778    5.9161 C   0  0  0  0  0  0  0  0  0  0  0  0
   -5.4985    4.8256    6.0772 O   0  0  0  0  0  0  0  0  0  0  0  0
   -7.1155    5.9234   10.6788 C   0  0  1  0  0  0  0  0  0  0  0  0
   -7.5483    6.9583    9.7916 O   0  0  0  0  0  0  0  0  0  0  0  0
   -0.0533    2.0861   12.7131 C   0  0  0  0  0  0  0  0  0  0  0  0
   -0.3214    1.3142   11.4685 N   0  0  0  0  0  0  0  0  0  0  0  0
  1  2  1  1  0  0  0
  1  7  1  0  0  0  0
  1 30  1  0  0  0  0
  3  4  1  1  0  0  0
  3  9  1  0  0  0  0
  3 39  1  0  0  0  0
  5 10  1  0  0  0  0
  5 26  1  0  0  0  0
  5 32  1  6  0  0  0
  6 12  1  0  0  0  0
  6 36  1  0  0  0  0
  6 19  1  1  0  0  0
  7  8  1  1  0  0  0
  7 14  1  0  0  0  0
  9 16  1  0  0  0  0
 10 11  1  1  0  0  0
 10 18  1  0  0  0  0
 12 13  1  1  0  0  0
 12 20  1  0  0  0  0
 14 15  1  6  0  0  0
 14 22  1  0  0  0  0
 16 17  1  1  0  0  0
 16 24  1  0  0  0  0
 18 19  1  1  0  0  0
 18 25  1  0  0  0  0
 20 21  1  6  0  0  0
 20 27  1  0  0  0  0
 22 23  1  6  0  0  0
 22 29  1  0  0  0  0
 24  2  1  6  0  0  0
 24 31  1  0  0  0  0
 25 26  1  0  0  0  0
 25 33  1  6  0  0  0
 27 28  1  1  0  0  0
 27 35  1  0  0  0  0
 29 30  1  0  0  0  0
 29 37  1  6  0  0  0
 31 32  1  1  0  0  0
 31 39  1  0  0  0  0
 33 34  1  0  0  0  0
 35 36  1  0  0  0  0
 35 41  1  1  0  0  0
 37 38  1  0  0  0  0
 39 40  1  6  0  0  0
 41 42  1  0  0  0  0
M  END
>  <CHROM.1>
-157.77233509,30.72013144,-60.36893121,-102.66412530,-175.39680989,-158.31073009
-32.04918474,176.45115668,122.52519967,-3.86361446,4.33902626,11.14159191
-2.02924174,-0.60344928,0.92838099

>  <Name>
ligand

>  <RI>
0

>  <Rbt.Current_Directory>
/home/itssahil/PROJECTS/Mol_Feturizer/Test_systems_manuscript/rnas/2o3w

>  <Rbt.Executable>
rbdock ($Id: //depot/dev/client3/rdock/2013.1/src/exe/rbdock.cxx#4 $)

>  <Rbt.Library>
libRbt.so (2013.1, Build901 2013/11/27)

>  <Rbt.Parameter_File>
/export/apps/rDock/src/rDock_2013.1_src/data/scripts/dock_solv.prm

>  <Rbt.Receptor>
prm/blind_docking_20.prm

>  <SCORE>
43.0148

>  <SCORE.INTER>
7.68824

>  <SCORE.INTER.CONST>
1

>  <SCORE.INTER.POLAR>
0

>  <SCORE.INTER.ROT>
9

>  <SCORE.INTER.SOLV>
25.453

>  <SCORE.INTER.VDW>
-12.9588

>  <SCORE.INTER.norm>
0.183053

>  <SCORE.INTRA>
0.74125

>  <SCORE.INTRA.DIHEDRAL>
-6.28924

>  <SCORE.INTRA.DIHEDRAL.0>
27.8999

>  <SCORE.INTRA.POLAR>
0

>  <SCORE.INTRA.POLAR.0>
0

>  <SCORE.INTRA.REPUL>
0.00683032

>  <SCORE.INTRA.REPUL.0>
0

>  <SCORE.INTRA.SOLV>
0.893928

>  <SCORE.INTRA.SOLV.lig_0>
-104.479

>  <SCORE.INTRA.VDW>
3.40476

>  <SCORE.INTRA.VDW.0>
-6.17816

>  <SCORE.INTRA.norm>
0.0176488

>  <SCORE.RESTR>
34.5853

>  <SCORE.RESTR.CAVITY>
34.5853

>  <SCORE.RESTR.norm>
0.82346

>  <SCORE.SYSTEM>
0

>  <SCORE.SYSTEM.CONST>
0

>  <SCORE.SYSTEM.DIHEDRAL>
0

>  <SCORE.SYSTEM.SOLV>
0

>  <SCORE.SYSTEM.norm>
0

>  <SCORE.heavy>
42

>  <SCORE.norm>
1.02416

>  <RMSD>
15.705

$$$$
ligand
 OpenBabel02271912133D
libRbt.so/2013.1/901 2013/11/27
 42 45  0  0  0  0  0  0  0  0999 V2000
   -5.0665    2.0354    9.6555 C   0  0  2  0  0  0  0  0  0  0  0  0
   -4.6393    3.0388   10.5926 O   0  0  0  0  0  0  0  0  0  0  0  0
   -8.2386    5.4553   10.5600 C   0  0  2  0  0  0  0  0  0  0  0  0
   -9.2629    6.4945   10.8784 N   0  0  0  0  0  0  0  0  0  0  0  0
   -3.5259    5.7481   10.8807 C   0  0  1  0  0  0  0  0  0  0  0  0
   -1.6928    5.1102   13.1923 C   0  0  1  0  0  0  0  0  0  0  0  0
   -3.7889    1.2749    9.1892 C   0  0  2  0  0  0  0  0  0  0  0  0
   -2.9526    0.8322   10.3185 N   0  0  0  0  0  0  0  0  0  0  0  0
   -8.0294    4.4644   11.7749 C   0  0  0  0  0  0  0  0  0  0  0  0
   -2.1686    6.4242   10.5183 C   0  0  2  0  0  0  0  0  0  0  0  0
   -1.1593    5.5011   10.0407 O   0  0  0  0  0  0  0  0  0  0  0  0
   -2.4211    5.2585   14.5766 C   0  0  2  0  0  0  0  0  0  0  0  0
   -1.4814    5.7629   15.6223 N   0  0  0  0  0  0  0  0  0  0  0  0
   -2.8921    2.1392    8.2838 C   0  0  1  0  0  0  0  0  0  0  0  0
   -1.7557    1.3907    7.8489 O   0  0  0  0  0  0  0  0  0  0  0  0
   -6.9579    3.3818   11.3717 C   0  0  2  0  0  0  0  0  0  0  0  0
   -6.7464    2.4221   12.4887 N   0  0  0  0  0  0  0  0  0  0  0  0
   -1.8391    7.1479   11.8248 C   0  0  2  0  0  0  0  0  0  0  0  0
   -1.0522    6.3035   12.7239 O   0  0  0  0  0  0  0  0  0  0  0  0
   -3.0470    3.8454   14.9988 C   0  0  1  0  0  0  0  0  0  0  0  0
   -4.2051    3.5826   14.1750 O   0  0  0  0  0  0  0  0  0  0  0  0
   -3.7181    2.6590    7.0851 C   0  0  2  0  0  0  0  0  0  0  0  0
   -2.9070    3.4386    6.2374 O   0  0  0  0  0  0  0  0  0  0  0  0
   -5.5858    4.0690   10.9963 C   0  0  2  0  0  0  0  0  0  0  0  0
   -3.1910    7.5240   12.4544 C   0  0  2  0  0  0  0  0  0  0  0  0
   -4.0531    6.4783   12.0120 O   0  0  0  0  0  0  0  0  0  0  0  0
   -2.0045    2.6366   14.8591 C   0  0  2  0  0  0  0  0  0  0  0  0
   -1.0079    2.8086   15.8659 O   0  0  0  0  0  0  0  0  0  0  0  0
   -4.9245    3.4989    7.6223 C   0  0  2  0  0  0  0  0  0  0  0  0
   -5.7451    2.6714    8.5064 O   0  0  0  0  0  0  0  0  0  0  0  0
   -5.7239    5.0953    9.8504 C   0  0  2  0  0  0  0  0  0  0  0  0
   -4.4288    5.7514    9.7672 O   0  0  0  0  0  0  0  0  0  0  0  0
   -3.7448    8.9219   12.0379 C   0  0  0  0  0  0  0  0  0  0  0  0
   -2.8458    9.9347   12.4794 O   0  0  0  0  0  0  0  0  0  0  0  0
   -1.3415    2.6368   13.4299 C   0  0  1  0  0  0  0  0  0  0  0  0
   -0.7120    3.9592   13.2710 O   0  0  0  0  0  0  0  0  0  0  0  0
   -5.7938    4.0435    6.5125 C   0  0  0  0  0  0  0  0  0  0  0  0
   -6.5590    5.1263    6.9830 O   0  0  0  0  0  0  0  0  0  0  0  0
   -6.8648    6.1442   10.1875 C   0  0  1  0  0  0  0  0  0  0  0  0
   -7.0958    6.9998    9.0649 O   0  0  0  0  0  0  0  0  0  0  0  0
   -0.2650    1.4863   13.2153 C   0  0  0  0  0  0  0  0  0  0  0  0
    0.1336    1.2350   11.8029 N   0  0  0  0  0  0  0  0  0  0  0  0
  1  2  1  1  0  0  0
  1  7  1  0  0  0  0
  1 30  1  0  0  0  0
  3  4  1  1  0  0  0
  3  9  1  0  0  0  0
  3 39  1  0  0  0  0
  5 10  1  0  0  0  0
  5 26  1  0  0  0  0
  5 32  1  6  0  0  0
  6 12  1  0  0  0  0
  6 36  1  0  0  0  0
  6 19  1  1  0  0  0
  7  8  1  1  0  0  0
  7 14  1  0  0  0  0
  9 16  1  0  0  0  0
 10 11  1  1  0  0  0
 10 18  1  0  0  0  0
 12 13  1  1  0  0  0
 12 20  1  0  0  0  0
 14 15  1  6  0  0  0
 14 22  1  0  0  0  0
 16 17  1  1  0  0  0
 16 24  1  0  0  0  0
 18 19  1  1  0  0  0
 18 25  1  0  0  0  0
 20 21  1  6  0  0  0
 20 27  1  0  0  0  0
 22 23  1  6  0  0  0
 22 29  1  0  0  0  0
 24  2  1  6  0  0  0
 24 31  1  0  0  0  0
 25 26  1  0  0  0  0
 25 33  1  6  0  0  0
 27 28  1  1  0  0  0
 27 35  1  0  0  0  0
 29 30  1  0  0  0  0
 29 37  1  6  0  0  0
 31 32  1  1  0  0  0
 31 39  1  0  0  0  0
 33 34  1  0  0  0  0
 35 36  1  0  0  0  0
 35 41  1  1  0  0  0
 37 38  1  0  0  0  0
 39 40  1  6  0  0  0
 41 42  1  0  0  0  0
M  END
>  <CHROM.1>
168.22131584,47.36003968,-63.43153510,-93.79360981,-62.63363238,-160.04716593
-21.46533664,175.98240822,165.43200448,-3.81856453,4.41892407,11.06907023
-2.56471537,-0.69679876,0.77339905

>  <Name>
ligand

>  <RI>
0

>  <Rbt.Current_Directory>
/home/itssahil/PROJECTS/Mol_Feturizer/Test_systems_manuscript/rnas/2o3w

>  <Rbt.Executable>
rbdock ($Id: //depot/dev/client3/rdock/2013.1/src/exe/rbdock.cxx#4 $)

>  <Rbt.Library>
libRbt.so (2013.1, Build901 2013/11/27)

>  <Rbt.Parameter_File>
/export/apps/rDock/src/rDock_2013.1_src/data/scripts/dock_solv.prm

>  <Rbt.Receptor>
prm/blind_docking_20.prm

>  <SCORE>
39.2959

>  <SCORE.INTER>
10.0875

>  <SCORE.INTER.CONST>
1

>  <SCORE.INTER.POLAR>
0

>  <SCORE.INTER.ROT>
9

>  <SCORE.INTER.SOLV>
29.1288

>  <SCORE.INTER.VDW>
-12.5846

>  <SCORE.INTER.norm>
0.24018

>  <SCORE.INTRA>
-3.81261

>  <SCORE.INTRA.DIHEDRAL>
-14.7263

>  <SCORE.INTRA.DIHEDRAL.0>
27.8999

>  <SCORE.INTRA.POLAR>
0

>  <SCORE.INTRA.POLAR.0>
0

>  <SCORE.INTRA.REPUL>
0

>  <SCORE.INTRA.REPUL.0>
0

>  <SCORE.INTRA.SOLV>
-0.568179

>  <SCORE.INTRA.SOLV.lig_0>
-104.479

>  <SCORE.INTRA.VDW>
3.83463

>  <SCORE.INTRA.VDW.0>
-6.17816

>  <SCORE.INTRA.norm>
-0.0907764

>  <SCORE.RESTR>
33.021

>  <SCORE.RESTR.CAVITY>
33.021

>  <SCORE.RESTR.norm>
0.786215

>  <SCORE.SYSTEM>
0

>  <SCORE.SYSTEM.CONST>
0

>  <SCORE.SYSTEM.DIHEDRAL>
0

>  <SCORE.SYSTEM.SOLV>
0

>  <SCORE.SYSTEM.norm>
0

>  <SCORE.heavy>
42

>  <SCORE.norm>
0.935618

>  <RMSD>
15.706

$$$$
ligand
 OpenBabel02271912133D
libRbt.so/2013.1/901 2013/11/27
 42 45  0  0  0  0  0  0  0  0999 V2000
   -6.7281    5.3284    9.7863 C   0  0  2  0  0  0  0  0  0  0  0  0
   -5.5181    5.6083    9.0620 O   0  0  0  0  0  0  0  0  0  0  0  0
   -4.7705    1.6770    7.3939 C   0  0  2  0  0  0  0  0  0  0  0  0
   -4.2620    0.5619    6.5405 N   0  0  0  0  0  0  0  0  0  0  0  0
   -2.7462    5.0382   10.6240 C   0  0  1  0  0  0  0  0  0  0  0  0
   -1.8472    5.1056   13.4751 C   0  0  1  0  0  0  0  0  0  0  0  0
   -6.9102    6.4731   10.8278 C   0  0  2  0  0  0  0  0  0  0  0  0
   -6.7783    7.8106   10.2242 N   0  0  0  0  0  0  0  0  0  0  0  0
   -5.6799    2.6681    6.5616 C   0  0  0  0  0  0  0  0  0  0  0  0
   -1.3201    5.6262   10.8503 C   0  0  2  0  0  0  0  0  0  0  0  0
   -0.3706    4.6766   11.3942 O   0  0  0  0  0  0  0  0  0  0  0  0
   -2.7047    4.8815   14.7725 C   0  0  2  0  0  0  0  0  0  0  0  0
   -2.0794    5.5576   15.9485 N   0  0  0  0  0  0  0  0  0  0  0  0
   -5.8779    6.3957   11.9676 C   0  0  1  0  0  0  0  0  0  0  0  0
   -6.1067    7.4379   12.9175 O   0  0  0  0  0  0  0  0  0  0  0  0
   -6.2025    3.8060    7.5179 C   0  0  2  0  0  0  0  0  0  0  0  0
   -7.0752    4.7505    6.7696 N   0  0  0  0  0  0  0  0  0  0  0  0
   -1.6332    6.8318   11.7378 C   0  0  2  0  0  0  0  0  0  0  0  0
   -1.5932    6.4797   13.1574 O   0  0  0  0  0  0  0  0  0  0  0  0
   -2.8688    3.3092   15.0328 C   0  0  1  0  0  0  0  0  0  0  0  0
   -3.7985    2.7702   14.0663 O   0  0  0  0  0  0  0  0  0  0  0  0
   -5.9467    5.0017   12.6318 C   0  0  2  0  0  0  0  0  0  0  0  0
   -5.0189    4.9203   13.6887 O   0  0  0  0  0  0  0  0  0  0  0  0
   -4.9926    4.5955    8.1573 C   0  0  2  0  0  0  0  0  0  0  0  0
   -3.0338    7.3125   11.3221 C   0  0  2  0  0  0  0  0  0  0  0  0
   -3.6757    6.1095   10.9059 O   0  0  0  0  0  0  0  0  0  0  0  0
   -1.4800    2.5153   14.9411 C   0  0  2  0  0  0  0  0  0  0  0  0
   -0.6889    2.8997   16.0649 O   0  0  0  0  0  0  0  0  0  0  0  0
   -5.6529    3.9069   11.5525 C   0  0  2  0  0  0  0  0  0  0  0  0
   -6.6223    4.0180   10.4626 O   0  0  0  0  0  0  0  0  0  0  0  0
   -4.0274    3.6796    8.9413 C   0  0  2  0  0  0  0  0  0  0  0  0
   -2.8990    4.5264    9.2937 O   0  0  0  0  0  0  0  0  0  0  0  0
   -3.0524    8.3809   10.1853 C   0  0  0  0  0  0  0  0  0  0  0  0
   -1.8890    9.1965   10.2871 O   0  0  0  0  0  0  0  0  0  0  0  0
   -0.7285    2.8628   13.6007 C   0  0  1  0  0  0  0  0  0  0  0  0
   -0.5549    4.3257   13.5964 O   0  0  0  0  0  0  0  0  0  0  0  0
   -5.7061    2.5057   12.1161 C   0  0  0  0  0  0  0  0  0  0  0  0
   -5.1656    1.5912   11.1937 O   0  0  0  0  0  0  0  0  0  0  0  0
   -3.5587    2.4685    8.0308 C   0  0  1  0  0  0  0  0  0  0  0  0
   -2.7883    1.5415    8.8008 O   0  0  0  0  0  0  0  0  0  0  0  0
    0.6799    2.1417   13.4422 C   0  0  0  0  0  0  0  0  0  0  0  0
    1.7697    2.9798   12.8708 N   0  0  0  0  0  0  0  0  0  0  0  0
  1  2  1  1  0  0  0
  1  7  1  0  0  0  0
  1 30  1  0  0  0  0
  3  4  1  6  0  0  0
  3  9  1  0  0  0  0
  3 39  1  0  0  0  0
  5 10  1  0  0  0  0
  5 26  1  0  0  0  0
  5 32  1  6  0  0  0
  6 12  1  0  0  0  0
  6 36  1  0  0  0  0
  6 19  1  1  0  0  0
  7  8  1  6  0  0  0
  7 14  1  0  0  0  0
  9 16  1  0  0  0  0
 10 11  1  1  0  0  0
 10 18  1  0  0  0  0
 12 13  1  1  0  0  0
 12 20  1  0  0  0  0
 14 15  1  1  0  0  0
 14 22  1  0  0  0  0
 16 17  1  6  0  0  0
 16 24  1  0  0  0  0
 18 19  1  1  0  0  0
 18 25  1  0  0  0  0
 20 21  1  6  0  0  0
 20 27  1  0  0  0  0
 22 23  1  1  0  0  0
 22 29  1  0  0  0  0
 24  2  1  1  0  0  0
 24 31  1  0  0  0  0
 25 26  1  0  0  0  0
 25 33  1  6  0  0  0
 27 28  1  1  0  0  0
 27 35  1  0  0  0  0
 29 30  1  0  0  0  0
 29 37  1  1  0  0  0
 31 32  1  6  0  0  0
 31 39  1  0  0  0  0
 33 34  1  0  0  0  0
 35 36  1  0  0  0  0
 35 41  1  1  0  0  0
 37 38  1  0  0  0  0
 39 40  1  1  0  0  0
 41 42  1  0  0  0  0
M  END
>  <CHROM.1>
170.90499818,33.32931491,-25.53944836,-141.30888443,-32.29072833,-167.60913531
103.32842886,166.61471193,-139.24592200,-3.59644257,4.53795270,11.28053639
2.63106569,0.78411968,-2.48450434

>  <Name>
ligand

>  <RI>
0

>  <Rbt.Current_Directory>
/home/itssahil/PROJECTS/Mol_Feturizer/Test_systems_manuscript/rnas/2o3w

>  <Rbt.Executable>
rbdock ($Id: //depot/dev/client3/rdock/2013.1/src/exe/rbdock.cxx#4 $)

>  <Rbt.Library>
libRbt.so (2013.1, Build901 2013/11/27)

>  <Rbt.Parameter_File>
/export/apps/rDock/src/rDock_2013.1_src/data/scripts/dock_solv.prm

>  <Rbt.Receptor>
prm/blind_docking_20.prm

>  <SCORE>
42.7892

>  <SCORE.INTER>
1.57057

>  <SCORE.INTER.CONST>
1

>  <SCORE.INTER.POLAR>
0

>  <SCORE.INTER.ROT>
9

>  <SCORE.INTER.SOLV>
22.2378

>  <SCORE.INTER.VDW>
-15.9656

>  <SCORE.INTER.norm>
0.0373945

>  <SCORE.INTRA>
11.1784

>  <SCORE.INTRA.DIHEDRAL>
-1.25766

>  <SCORE.INTRA.DIHEDRAL.0>
27.8999

>  <SCORE.INTRA.POLAR>
0

>  <SCORE.INTRA.POLAR.0>
0

>  <SCORE.INTRA.REPUL>
0.109203

>  <SCORE.INTRA.REPUL.0>
0

>  <SCORE.INTRA.SOLV>
3.31097

>  <SCORE.INTRA.SOLV.lig_0>
-104.479

>  <SCORE.INTRA.VDW>
9.60576

>  <SCORE.INTRA.VDW.0>
-6.17816

>  <SCORE.INTRA.norm>
0.266153

>  <SCORE.RESTR>
30.0402

>  <SCORE.RESTR.CAVITY>
30.0402

>  <SCORE.RESTR.norm>
0.715243

>  <SCORE.SYSTEM>
0

>  <SCORE.SYSTEM.CONST>
0

>  <SCORE.SYSTEM.DIHEDRAL>
0

>  <SCORE.SYSTEM.SOLV>
0

>  <SCORE.SYSTEM.norm>
0

>  <SCORE.heavy>
42

>  <SCORE.norm>
1.01879

>  <RMSD>
15.732

$$$$
ligand
 OpenBabel02271912133D
libRbt.so/2013.1/901 2013/11/27
 42 45  0  0  0  0  0  0  0  0999 V2000
   -1.5548    5.4762   12.1602 C   0  0  2  0  0  0  0  0  0  0  0  0
   -2.9740    5.6271   11.9865 O   0  0  0  0  0  0  0  0  0  0  0  0
   -3.5076    9.7111   13.3400 C   0  0  2  0  0  0  0  0  0  0  0  0
   -4.0422   11.0921   13.5339 N   0  0  0  0  0  0  0  0  0  0  0  0
   -5.4729    5.2457   12.5873 C   0  0  1  0  0  0  0  0  0  0  0  0
   -5.2733    3.3428   10.3069 C   0  0  1  0  0  0  0  0  0  0  0  0
   -1.1563    4.1238   11.4964 C   0  0  2  0  0  0  0  0  0  0  0  0
   -1.6876    3.9890   10.1288 N   0  0  0  0  0  0  0  0  0  0  0  0
   -3.0217    9.4875   11.8515 C   0  0  0  0  0  0  0  0  0  0  0  0
   -5.6439    3.8169   13.1872 C   0  0  2  0  0  0  0  0  0  0  0  0
   -4.4143    3.0531   13.2500 O   0  0  0  0  0  0  0  0  0  0  0  0
   -5.9388    4.5797    9.6026 C   0  0  2  0  0  0  0  0  0  0  0  0
   -7.1154    4.1586    8.7847 N   0  0  0  0  0  0  0  0  0  0  0  0
   -1.6663    2.9091   12.2934 C   0  0  1  0  0  0  0  0  0  0  0  0
   -1.2451    1.6938   11.6715 O   0  0  0  0  0  0  0  0  0  0  0  0
   -2.4499    8.0256   11.7156 C   0  0  2  0  0  0  0  0  0  0  0  0
   -1.9692    7.7849   10.3283 N   0  0  0  0  0  0  0  0  0  0  0  0
   -6.7345    3.2429   12.2814 C   0  0  2  0  0  0  0  0  0  0  0  0
   -6.1648    2.5657   11.1162 O   0  0  0  0  0  0  0  0  0  0  0  0
   -4.8459    5.3243    8.6981 C   0  0  1  0  0  0  0  0  0  0  0  0
   -3.9313    6.0362    9.5616 O   0  0  0  0  0  0  0  0  0  0  0  0
   -1.1624    3.0008   13.7517 C   0  0  2  0  0  0  0  0  0  0  0  0
   -1.6069    1.8869   14.4907 O   0  0  0  0  0  0  0  0  0  0  0  0
   -3.5546    6.9588   12.0864 C   0  0  2  0  0  0  0  0  0  0  0  0
   -7.6082    4.4365   11.8603 C   0  0  2  0  0  0  0  0  0  0  0  0
   -6.6840    5.5220   11.8469 O   0  0  0  0  0  0  0  0  0  0  0  0
   -4.0241    4.3176    7.7606 C   0  0  2  0  0  0  0  0  0  0  0  0
   -4.9203    3.8285    6.7637 O   0  0  0  0  0  0  0  0  0  0  0  0
   -1.6842    4.3315   14.3894 C   0  0  2  0  0  0  0  0  0  0  0  0
   -1.2181    5.4713   13.5998 O   0  0  0  0  0  0  0  0  0  0  0  0
   -4.1183    7.1509   13.5113 C   0  0  2  0  0  0  0  0  0  0  0  0
   -5.2312    6.2202   13.6106 O   0  0  0  0  0  0  0  0  0  0  0  0
   -8.8126    4.7364   12.8056 C   0  0  0  0  0  0  0  0  0  0  0  0
   -9.0533    3.6035   13.6348 O   0  0  0  0  0  0  0  0  0  0  0  0
   -3.4424    3.1214    8.6050 C   0  0  1  0  0  0  0  0  0  0  0  0
   -4.5973    2.4829    9.2596 O   0  0  0  0  0  0  0  0  0  0  0  0
   -1.2313    4.5074   15.8204 C   0  0  0  0  0  0  0  0  0  0  0  0
   -1.4364    5.8363   16.2340 O   0  0  0  0  0  0  0  0  0  0  0  0
   -4.6151    8.6442   13.7084 C   0  0  1  0  0  0  0  0  0  0  0  0
   -4.9956    8.8621   15.0698 O   0  0  0  0  0  0  0  0  0  0  0  0
   -2.6378    2.0528    7.7452 C   0  0  0  0  0  0  0  0  0  0  0  0
   -3.3961    1.4248    6.6284 N   0  0  0  0  0  0  0  0  0  0  0  0
  1  2  1  1  0  0  0
  1  7  1  0  0  0  0
  1 30  1  0  0  0  0
  3  4  1  6  0  0  0
  3  9  1  0  0  0  0
  3 39  1  0  0  0  0
  5 10  1  0  0  0  0
  5 26  1  0  0  0  0
  5 32  1  1  0  0  0
  6 12  1  0  0  0  0
  6 36  1  0  0  0  0
  6 19  1  6  0  0  0
  7  8  1  6  0  0  0
  7 14  1  0  0  0  0
  9 16  1  0  0  0  0
 10 11  1  6  0  0  0
 10 18  1  0  0  0  0
 12 13  1  6  0  0  0
 12 20  1  0  0  0  0
 14 15  1  6  0  0  0
 14 22  1  0  0  0  0
 16 17  1  6  0  0  0
 16 24  1  0  0  0  0
 18 19  1  6  0  0  0
 18 25  1  0  0  0  0
 20 21  1  1  0  0  0
 20 27  1  0  0  0  0
 22 23  1  1  0  0  0
 22 29  1  0  0  0  0
 24  2  1  1  0  0  0
 24 31  1  0  0  0  0
 25 26  1  0  0  0  0
 25 33  1  1  0  0  0
 27 28  1  6  0  0  0
 27 35  1  0  0  0  0
 29 30  1  0  0  0  0
 29 37  1  1  0  0  0
 31 32  1  6  0  0  0
 31 39  1  0  0  0  0
 33 34  1  0  0  0  0
 35 36  1  0  0  0  0
 35 41  1  6  0  0  0
 37 38  1  0  0  0  0
 39 40  1  1  0  0  0
 41 42  1  0  0  0  0
M  END
>  <CHROM.1>
-159.30297986,25.91137980,-55.33286256,-64.12920015,-16.64347212,165.50962739
8.85193557,129.55876695,-57.26886644,-3.98360381,4.96363945,11.76502460,-1.35847668
0.37924903,-2.37255352

>  <Name>
ligand

>  <RI>
0

>  <Rbt.Current_Directory>
/home/itssahil/PROJECTS/Mol_Feturizer/Test_systems_manuscript/rnas/2o3w

>  <Rbt.Executable>
rbdock ($Id: //depot/dev/client3/rdock/2013.1/src/exe/rbdock.cxx#4 $)

>  <Rbt.Library>
libRbt.so (2013.1, Build901 2013/11/27)

>  <Rbt.Parameter_File>
/export/apps/rDock/src/rDock_2013.1_src/data/scripts/dock_solv.prm

>  <Rbt.Receptor>
prm/blind_docking_20.prm

>  <SCORE>
86.1945

>  <SCORE.INTER>
46.2307

>  <SCORE.INTER.CONST>
1

>  <SCORE.INTER.POLAR>
0

>  <SCORE.INTER.ROT>
9

>  <SCORE.INTER.SOLV>
24.8615

>  <SCORE.INTER.VDW>
12.9333

>  <SCORE.INTER.norm>
1.10073

>  <SCORE.INTRA>
13.3134

>  <SCORE.INTRA.DIHEDRAL>
-2.74263

>  <SCORE.INTRA.DIHEDRAL.0>
27.8999

>  <SCORE.INTRA.POLAR>
0

>  <SCORE.INTRA.POLAR.0>
0

>  <SCORE.INTRA.REPUL>
0

>  <SCORE.INTRA.REPUL.0>
0

>  <SCORE.INTRA.SOLV>
8.91208

>  <SCORE.INTRA.SOLV.lig_0>
-104.479

>  <SCORE.INTRA.VDW>
10.2286

>  <SCORE.INTRA.VDW.0>
-6.17816

>  <SCORE.INTRA.norm>
0.316985

>  <SCORE.RESTR>
26.6505

>  <SCORE.RESTR.CAVITY>
26.6505

>  <SCORE.RESTR.norm>
0.634535

>  <SCORE.SYSTEM>
0

>  <SCORE.SYSTEM.CONST>
0

>  <SCORE.SYSTEM.DIHEDRAL>
0

>  <SCORE.SYSTEM.SOLV>
0

>  <SCORE.SYSTEM.norm>
0

>  <SCORE.heavy>
42

>  <SCORE.norm>
2.05225

>  <RMSD>
15.743

$$$$
ligand
 OpenBabel02271912133D
libRbt.so/2013.1/901 2013/11/27
 42 45  0  0  0  0  0  0  0  0999 V2000
   -5.0282    1.9971    9.7039 C   0  0  2  0  0  0  0  0  0  0  0  0
   -4.6087    3.0317   10.6100 O   0  0  0  0  0  0  0  0  0  0  0  0
   -8.3140    5.2783   10.7512 C   0  0  2  0  0  0  0  0  0  0  0  0
   -9.3799    6.2501   11.1381 N   0  0  0  0  0  0  0  0  0  0  0  0
   -3.6753    5.8783   11.0803 C   0  0  1  0  0  0  0  0  0  0  0  0
   -1.7562    5.3938   13.3216 C   0  0  1  0  0  0  0  0  0  0  0  0
   -3.7417    1.2525    9.2364 C   0  0  2  0  0  0  0  0  0  0  0  0
   -2.8794    0.8551   10.3630 N   0  0  0  0  0  0  0  0  0  0  0  0
   -8.0437    4.2326   11.9067 C   0  0  0  0  0  0  0  0  0  0  0  0
   -2.4673    6.8291   10.8207 C   0  0  2  0  0  0  0  0  0  0  0  0
   -1.2852    6.1570   10.3207 O   0  0  0  0  0  0  0  0  0  0  0  0
   -2.5047    5.1641   14.6838 C   0  0  2  0  0  0  0  0  0  0  0  0
   -1.7109    5.7068   15.8268 N   0  0  0  0  0  0  0  0  0  0  0  0
   -2.8772    2.1133    8.2968 C   0  0  1  0  0  0  0  0  0  0  0  0
   -1.7316    1.3785    7.8626 O   0  0  0  0  0  0  0  0  0  0  0  0
   -6.9298    3.2243   11.4322 C   0  0  2  0  0  0  0  0  0  0  0  0
   -6.6600    2.2153   12.4918 N   0  0  0  0  0  0  0  0  0  0  0  0
   -2.3191    7.5008   12.1868 C   0  0  2  0  0  0  0  0  0  0  0  0
   -1.4059    6.7577   13.0555 O   0  0  0  0  0  0  0  0  0  0  0  0
   -2.7899    3.5989   14.8730 C   0  0  1  0  0  0  0  0  0  0  0  0
   -3.8529    3.2060   13.9760 O   0  0  0  0  0  0  0  0  0  0  0  0
   -3.7318    2.5863    7.0989 C   0  0  2  0  0  0  0  0  0  0  0  0
   -2.9503    3.3620    6.2203 O   0  0  0  0  0  0  0  0  0  0  0  0
   -5.5954    3.9936   11.0806 C   0  0  2  0  0  0  0  0  0  0  0  0
   -3.7342    7.5600   12.7864 C   0  0  2  0  0  0  0  0  0  0  0  0
   -4.3639    6.4045   12.2379 O   0  0  0  0  0  0  0  0  0  0  0  0
   -1.4963    2.6935   14.6002 C   0  0  2  0  0  0  0  0  0  0  0  0
   -0.5703    2.9350   15.6588 O   0  0  0  0  0  0  0  0  0  0  0  0
   -4.9478    3.4135    7.6342 C   0  0  2  0  0  0  0  0  0  0  0  0
   -5.7373    2.5906    8.5504 O   0  0  0  0  0  0  0  0  0  0  0  0
   -5.7953    5.0740    9.9952 C   0  0  2  0  0  0  0  0  0  0  0  0
   -4.5325    5.7925    9.9345 O   0  0  0  0  0  0  0  0  0  0  0  0
   -4.5393    8.8525   12.4469 C   0  0  0  0  0  0  0  0  0  0  0  0
   -4.4237    9.1264   11.0538 O   0  0  0  0  0  0  0  0  0  0  0  0
   -0.8453    3.0580   13.2126 C   0  0  1  0  0  0  0  0  0  0  0  0
   -0.5369    4.4974   13.2707 O   0  0  0  0  0  0  0  0  0  0  0  0
   -5.8450    3.9125    6.5252 C   0  0  0  0  0  0  0  0  0  0  0  0
   -6.7061    4.9132    7.0114 O   0  0  0  0  0  0  0  0  0  0  0  0
   -6.9780    6.0491   10.4025 C   0  0  1  0  0  0  0  0  0  0  0  0
   -7.2625    6.9537    9.3318 O   0  0  0  0  0  0  0  0  0  0  0  0
    0.4682    2.2276   12.8754 C   0  0  0  0  0  0  0  0  0  0  0  0
    1.7530    2.9596   13.0490 N   0  0  0  0  0  0  0  0  0  0  0  0
  1  2  1  1  0  0  0
  1  7  1  0  0  0  0
  1 30  1  0  0  0  0
  3  4  1  1  0  0  0
  3  9  1  0  0  0  0
  3 39  1  0  0  0  0
  5 10  1  0  0  0  0
  5 26  1  0  0  0  0
  5 32  1  6  0  0  0
  6 12  1  0  0  0  0
  6 36  1  0  0  0  0
  6 19  1  1  0  0  0
  7  8  1  1  0  0  0
  7 14  1  0  0  0  0
  9 16  1  0  0  0  0
 10 11  1  1  0  0  0
 10 18  1  0  0  0  0
 12 13  1  1  0  0  0
 12 20  1  0  0  0  0
 14 15  1  6  0  0  0
 14 22  1  0  0  0  0
 16 17  1  1  0  0  0
 16 24  1  0  0  0  0
 18 19  1  1  0  0  0
 18 25  1  0  0  0  0
 20 21  1  6  0  0  0
 20 27  1  0  0  0  0
 22 23  1  6  0  0  0
 22 29  1  0  0  0  0
 24  2  1  6  0  0  0
 24 31  1  0  0  0  0
 25 26  1  0  0  0  0
 25 33  1  6  0  0  0
 27 28  1  1  0  0  0
 27 35  1  0  0  0  0
 29 30  1  0  0  0  0
 29 37  1  6  0  0  0
 31 32  1  1  0  0  0
 31 39  1  0  0  0  0
 33 34  1  0  0  0  0
 35 36  1  0  0  0  0
 35 41  1  1  0  0  0
 37 38  1  0  0  0  0
 39 40  1  6  0  0  0
 41 42  1  0  0  0  0
M  END
>  <CHROM.1>
172.69216749,42.48636349,-58.34522059,-97.60637390,46.61421994,-165.03373603
-27.61716232,-173.51625355,-103.46846320,-3.84785443,4.47101519,11.13878029
-2.58633416,-0.58813015,0.84414324

>  <Name>
ligand

>  <RI>
0

>  <Rbt.Current_Directory>
/home/itssahil/PROJECTS/Mol_Feturizer/Test_systems_manuscript/rnas/2o3w

>  <Rbt.Executable>
rbdock ($Id: //depot/dev/client3/rdock/2013.1/src/exe/rbdock.cxx#4 $)

>  <Rbt.Library>
libRbt.so (2013.1, Build901 2013/11/27)

>  <Rbt.Parameter_File>
/export/apps/rDock/src/rDock_2013.1_src/data/scripts/dock_solv.prm

>  <Rbt.Receptor>
prm/blind_docking_20.prm

>  <SCORE>
37.8826

>  <SCORE.INTER>
7.88867

>  <SCORE.INTER.CONST>
1

>  <SCORE.INTER.POLAR>
0

>  <SCORE.INTER.ROT>
9

>  <SCORE.INTER.SOLV>
23.1775

>  <SCORE.INTER.VDW>
-12.0667

>  <SCORE.INTER.norm>
0.187826

>  <SCORE.INTRA>
-2.79284

>  <SCORE.INTRA.DIHEDRAL>
-11.1611

>  <SCORE.INTRA.DIHEDRAL.0>
27.8999

>  <SCORE.INTRA.POLAR>
0

>  <SCORE.INTRA.POLAR.0>
0

>  <SCORE.INTRA.REPUL>
0

>  <SCORE.INTRA.REPUL.0>
0

>  <SCORE.INTRA.SOLV>
-0.199188

>  <SCORE.INTRA.SOLV.lig_0>
-104.479

>  <SCORE.INTRA.VDW>
2.88729

>  <SCORE.INTRA.VDW.0>
-6.17816

>  <SCORE.INTRA.norm>
-0.0664963

>  <SCORE.RESTR>
32.7867

>  <SCORE.RESTR.CAVITY>
32.7867

>  <SCORE.RESTR.norm>
0.780637

>  <SCORE.SYSTEM>
0

>  <SCORE.SYSTEM.CONST>
0

>  <SCORE.SYSTEM.DIHEDRAL>
0

>  <SCORE.SYSTEM.SOLV>
0

>  <SCORE.SYSTEM.norm>
0

>  <SCORE.heavy>
42

>  <SCORE.norm>
0.901966

>  <RMSD>
15.753

$$$$
ligand
 OpenBabel02271912133D
libRbt.so/2013.1/901 2013/11/27
 42 45  0  0  0  0  0  0  0  0999 V2000
   -1.9153    4.6683   12.0407 C   0  0  2  0  0  0  0  0  0  0  0  0
   -3.2735    5.1119   11.8796 O   0  0  0  0  0  0  0  0  0  0  0  0
   -2.9992    9.2693   13.0784 C   0  0  2  0  0  0  0  0  0  0  0  0
   -3.2280   10.7410   13.1884 N   0  0  0  0  0  0  0  0  0  0  0  0
   -5.8655    5.3704   12.2172 C   0  0  1  0  0  0  0  0  0  0  0  0
   -5.7910    3.5187    9.9219 C   0  0  1  0  0  0  0  0  0  0  0  0
   -1.9305    3.1130   11.9470 C   0  0  2  0  0  0  0  0  0  0  0  0
   -2.6644    2.6265   10.7657 N   0  0  0  0  0  0  0  0  0  0  0  0
   -2.4508    8.8791   11.6470 C   0  0  0  0  0  0  0  0  0  0  0  0
   -6.0167    3.9046   12.7266 C   0  0  2  0  0  0  0  0  0  0  0  0
   -4.8164    3.1054   12.5870 O   0  0  0  0  0  0  0  0  0  0  0  0
   -6.2717    4.8137    9.1730 C   0  0  2  0  0  0  0  0  0  0  0  0
   -7.4086    4.5075    8.2540 N   0  0  0  0  0  0  0  0  0  0  0  0
   -2.5857    2.4597   13.1778 C   0  0  1  0  0  0  0  0  0  0  0  0
   -2.5421    1.0361   13.0677 O   0  0  0  0  0  0  0  0  0  0  0  0
   -2.2086    7.3230   11.6001 C   0  0  2  0  0  0  0  0  0  0  0  0
   -1.6776    6.9219   10.2694 N   0  0  0  0  0  0  0  0  0  0  0  0
   -7.2250    3.4319   11.9168 C   0  0  2  0  0  0  0  0  0  0  0  0
   -6.8192    2.8315   10.6458 O   0  0  0  0  0  0  0  0  0  0  0  0
   -5.0387    5.4492    8.3712 C   0  0  1  0  0  0  0  0  0  0  0  0
   -4.1377    6.0702    9.3155 O   0  0  0  0  0  0  0  0  0  0  0  0
   -1.8753    2.9487   14.4605 C   0  0  2  0  0  0  0  0  0  0  0  0
   -2.4528    2.3467   15.5957 O   0  0  0  0  0  0  0  0  0  0  0  0
   -3.5500    6.5415   11.8930 C   0  0  2  0  0  0  0  0  0  0  0  0
   -8.0983    4.6776   11.6910 C   0  0  2  0  0  0  0  0  0  0  0  0
   -7.1436    5.7355   11.6479 O   0  0  0  0  0  0  0  0  0  0  0  0
   -4.2397    4.3678    7.4997 C   0  0  2  0  0  0  0  0  0  0  0  0
   -5.0897    3.9668    6.4258 O   0  0  0  0  0  0  0  0  0  0  0  0
   -1.9877    4.5076   14.5437 C   0  0  2  0  0  0  0  0  0  0  0  0
   -1.3906    5.1082   13.3510 O   0  0  0  0  0  0  0  0  0  0  0  0
   -4.1756    6.9152   13.2547 C   0  0  2  0  0  0  0  0  0  0  0  0
   -5.4717    6.2561   13.2734 O   0  0  0  0  0  0  0  0  0  0  0  0
   -9.1732    4.9361   12.7919 C   0  0  0  0  0  0  0  0  0  0  0  0
   -9.7887    6.1997   12.5609 O   0  0  0  0  0  0  0  0  0  0  0  0
   -3.8502    3.1215    8.3813 C   0  0  1  0  0  0  0  0  0  0  0  0
   -5.1131    2.5974    8.9296 O   0  0  0  0  0  0  0  0  0  0  0  0
   -1.3111    5.0747   15.7703 C   0  0  0  0  0  0  0  0  0  0  0  0
   -0.0327    4.5081   15.9245 O   0  0  0  0  0  0  0  0  0  0  0  0
   -4.3431    8.4883   13.3687 C   0  0  1  0  0  0  0  0  0  0  0  0
   -4.7796    8.8440   14.6834 O   0  0  0  0  0  0  0  0  0  0  0  0
   -3.0810    1.9800    7.5852 C   0  0  0  0  0  0  0  0  0  0  0  0
   -2.8337    0.7230    8.3436 N   0  0  0  0  0  0  0  0  0  0  0  0
  1  2  1  1  0  0  0
  1  7  1  0  0  0  0
  1 30  1  0  0  0  0
  3  4  1  6  0  0  0
  3  9  1  0  0  0  0
  3 39  1  0  0  0  0
  5 10  1  0  0  0  0
  5 26  1  0  0  0  0
  5 32  1  1  0  0  0
  6 12  1  0  0  0  0
  6 36  1  0  0  0  0
  6 19  1  6  0  0  0
  7  8  1  6  0  0  0
  7 14  1  0  0  0  0
  9 16  1  0  0  0  0
 10 11  1  6  0  0  0
 10 18  1  0  0  0  0
 12 13  1  6  0  0  0
 12 20  1  0  0  0  0
 14 15  1  6  0  0  0
 14 22  1  0  0  0  0
 16 17  1  6  0  0  0
 16 24  1  0  0  0  0
 18 19  1  6  0  0  0
 18 25  1  0  0  0  0
 20 21  1  1  0  0  0
 20 27  1  0  0  0  0
 22 23  1  1  0  0  0
 22 29  1  0  0  0  0
 24  2  1  1  0  0  0
 24 31  1  0  0  0  0
 25 26  1  0  0  0  0
 25 33  1  1  0  0  0
 27 28  1  6  0  0  0
 27 35  1  0  0  0  0
 29 30  1  0  0  0  0
 29 37  1  1  0  0  0
 31 32  1  6  0  0  0
 31 39  1  0  0  0  0
 33 34  1  0  0  0  0
 35 36  1  0  0  0  0
 35 41  1  6  0  0  0
 37 38  1  0  0  0  0
 39 40  1  1  0  0  0
 41 42  1  0  0  0  0
M  END
>  <CHROM.1>
-178.54739938,19.11821612,-43.06533149,-76.33645581,172.44671205,46.79903022
5.38277375,114.27069309,-173.30409786,-4.21901240,4.86197929,11.68376150
-0.93099815,0.59648416,-2.44965006

>  <Name>
ligand

>  <RI>
0

>  <Rbt.Current_Directory>
/home/itssahil/PROJECTS/Mol_Feturizer/Test_systems_manuscript/rnas/2o3w

>  <Rbt.Executable>
rbdock ($Id: //depot/dev/client3/rdock/2013.1/src/exe/rbdock.cxx#4 $)

>  <Rbt.Library>
libRbt.so (2013.1, Build901 2013/11/27)

>  <Rbt.Parameter_File>
/export/apps/rDock/src/rDock_2013.1_src/data/scripts/dock_solv.prm

>  <Rbt.Receptor>
prm/blind_docking_20.prm

>  <SCORE>
50.6767

>  <SCORE.INTER>
9.73874

>  <SCORE.INTER.CONST>
1

>  <SCORE.INTER.POLAR>
0

>  <SCORE.INTER.ROT>
9

>  <SCORE.INTER.SOLV>
19.5382

>  <SCORE.INTER.VDW>
-9.62025

>  <SCORE.INTER.norm>
0.231875

>  <SCORE.INTRA>
12.2343

>  <SCORE.INTRA.DIHEDRAL>
-4.65703

>  <SCORE.INTRA.DIHEDRAL.0>
27.8999

>  <SCORE.INTRA.POLAR>
0

>  <SCORE.INTRA.POLAR.0>
0

>  <SCORE.INTRA.REPUL>
0

>  <SCORE.INTRA.REPUL.0>
0

>  <SCORE.INTRA.SOLV>
7.8767

>  <SCORE.INTRA.SOLV.lig_0>
-104.479

>  <SCORE.INTRA.VDW>
10.6245

>  <SCORE.INTRA.VDW.0>
-6.17816

>  <SCORE.INTRA.norm>
0.291293

>  <SCORE.RESTR>
28.7037

>  <SCORE.RESTR.CAVITY>
28.7037

>  <SCORE.RESTR.norm>
0.683421

>  <SCORE.SYSTEM>
0

>  <SCORE.SYSTEM.CONST>
0

>  <SCORE.SYSTEM.DIHEDRAL>
0

>  <SCORE.SYSTEM.SOLV>
0

>  <SCORE.SYSTEM.norm>
0

>  <SCORE.heavy>
42

>  <SCORE.norm>
1.20659

>  <RMSD>
15.763

$$$$
ligand
 OpenBabel02271912133D
libRbt.so/2013.1/901 2013/11/27
 42 45  0  0  0  0  0  0  0  0999 V2000
   -5.4730    4.7186    8.2276 C   0  0  2  0  0  0  0  0  0  0  0  0
   -5.5452    4.7515    9.6632 O   0  0  0  0  0  0  0  0  0  0  0  0
   -4.9373    9.0054   10.2382 C   0  0  2  0  0  0  0  0  0  0  0  0
   -4.6194   10.3325   10.8449 N   0  0  0  0  0  0  0  0  0  0  0  0
   -2.6303    5.3468   11.4605 C   0  0  1  0  0  0  0  0  0  0  0  0
   -2.1859    4.1523   14.4279 C   0  0  1  0  0  0  0  0  0  0  0  0
   -6.8451    4.1867    7.7151 C   0  0  2  0  0  0  0  0  0  0  0  0
   -7.9861    4.8975    8.3180 N   0  0  0  0  0  0  0  0  0  0  0  0
   -6.1919    8.3411   10.9356 C   0  0  0  0  0  0  0  0  0  0  0  0
   -1.8150    6.4653   12.1782 C   0  0  2  0  0  0  0  0  0  0  0  0
   -0.3802    6.2695   12.1335 O   0  0  0  0  0  0  0  0  0  0  0  0
   -1.4043    3.1865   15.3898 C   0  0  2  0  0  0  0  0  0  0  0  0
    0.0643    3.2416   15.1231 N   0  0  0  0  0  0  0  0  0  0  0  0
   -7.0422    2.6903    8.0194 C   0  0  1  0  0  0  0  0  0  0  0  0
   -8.2928    2.2372    7.4980 O   0  0  0  0  0  0  0  0  0  0  0  0
   -6.4904    6.9594   10.2398 C   0  0  2  0  0  0  0  0  0  0  0  0
   -7.6763    6.3119   10.8627 N   0  0  0  0  0  0  0  0  0  0  0  0
   -2.4433    6.4426   13.5725 C   0  0  2  0  0  0  0  0  0  0  0  0
   -1.7445    5.5152   14.4625 O   0  0  0  0  0  0  0  0  0  0  0  0
   -1.9658    1.6963   15.2134 C   0  0  1  0  0  0  0  0  0  0  0  0
   -3.2674    1.6108   15.8358 O   0  0  0  0  0  0  0  0  0  0  0  0
   -5.8609    1.8847    7.4323 C   0  0  2  0  0  0  0  0  0  0  0  0
   -6.0349    0.5104    7.6879 O   0  0  0  0  0  0  0  0  0  0  0  0
   -5.2417    5.9981   10.3518 C   0  0  2  0  0  0  0  0  0  0  0  0
   -3.9093    6.0235   13.3707 C   0  0  2  0  0  0  0  0  0  0  0  0
   -3.8467    5.1785   12.2242 O   0  0  0  0  0  0  0  0  0  0  0  0
   -2.0754    1.2506   13.6782 C   0  0  2  0  0  0  0  0  0  0  0  0
   -0.7477    1.1063   13.1755 O   0  0  0  0  0  0  0  0  0  0  0  0
   -4.5261    2.4005    8.0662 C   0  0  2  0  0  0  0  0  0  0  0  0
   -4.3732    3.8299    7.7957 O   0  0  0  0  0  0  0  0  0  0  0  0
   -3.9609    6.6064    9.7397 C   0  0  2  0  0  0  0  0  0  0  0  0
   -2.8936    5.6838   10.0923 O   0  0  0  0  0  0  0  0  0  0  0  0
   -4.9058    7.2026   13.1452 C   0  0  0  0  0  0  0  0  0  0  0  0
   -5.0787    7.9128   14.3677 O   0  0  0  0  0  0  0  0  0  0  0  0
   -2.8613    2.3293   12.8410 C   0  0  1  0  0  0  0  0  0  0  0  0
   -2.1325    3.5969   13.0201 O   0  0  0  0  0  0  0  0  0  0  0  0
   -3.3124    1.6689    7.5415 C   0  0  0  0  0  0  0  0  0  0  0  0
   -2.1602    2.0810    8.2357 O   0  0  0  0  0  0  0  0  0  0  0  0
   -3.6878    8.0431   10.3537 C   0  0  1  0  0  0  0  0  0  0  0  0
   -2.5919    8.6676    9.6795 O   0  0  0  0  0  0  0  0  0  0  0  0
   -2.9884    1.9822   11.2944 C   0  0  0  0  0  0  0  0  0  0  0  0
   -3.9828    0.9283   10.9523 N   0  0  0  0  0  0  0  0  0  0  0  0
  1  2  1  1  0  0  0
  1  7  1  0  0  0  0
  1 30  1  0  0  0  0
  3  4  1  1  0  0  0
  3  9  1  0  0  0  0
  3 39  1  0  0  0  0
  5 10  1  0  0  0  0
  5 26  1  0  0  0  0
  5 32  1  6  0  0  0
  6 12  1  0  0  0  0
  6 36  1  0  0  0  0
  6 19  1  6  0  0  0
  7  8  1  1  0  0  0
  7 14  1  0  0  0  0
  9 16  1  0  0  0  0
 10 11  1  1  0  0  0
 10 18  1  0  0  0  0
 12 13  1  6  0  0  0
 12 20  1  0  0  0  0
 14 15  1  6  0  0  0
 14 22  1  0  0  0  0
 16 17  1  1  0  0  0
 16 24  1  0  0  0  0
 18 19  1  1  0  0  0
 18 25  1  0  0  0  0
 20 21  1  6  0  0  0
 20 27  1  0  0  0  0
 22 23  1  1  0  0  0
 22 29  1  0  0  0  0
 24  2  1  6  0  0  0
 24 31  1  0  0  0  0
 25 26  1  0  0  0  0
 25 33  1  6  0  0  0
 27 28  1  6  0  0  0
 27 35  1  0  0  0  0
 29 30  1  0  0  0  0
 29 37  1  6  0  0  0
 31 32  1  1  0  0  0
 31 39  1  0  0  0  0
 33 34  1  0  0  0  0
 35 36  1  0  0  0  0
 35 41  1  6  0  0  0
 37 38  1  0  0  0  0
 39 40  1  6  0  0  0
 41 42  1  0  0  0  0
M  END
>  <CHROM.1>
-125.82477519,77.99930822,-87.00756902,179.58754574,-71.45959534,-174.34229298
-56.70169187,-79.24290986,75.58865010,-3.93220918,4.57960928,11.12710861
-2.93317612,-0.92532809,0.28776671

>  <Name>
ligand

>  <RI>
0

>  <Rbt.Current_Directory>
/home/itssahil/PROJECTS/Mol_Feturizer/Test_systems_manuscript/rnas/2o3w

>  <Rbt.Executable>
rbdock ($Id: //depot/dev/client3/rdock/2013.1/src/exe/rbdock.cxx#4 $)

>  <Rbt.Library>
libRbt.so (2013.1, Build901 2013/11/27)

>  <Rbt.Parameter_File>
/export/apps/rDock/src/rDock_2013.1_src/data/scripts/dock_solv.prm

>  <Rbt.Receptor>
prm/blind_docking_20.prm

>  <SCORE>
55.1073

>  <SCORE.INTER>
4.4503

>  <SCORE.INTER.CONST>
1

>  <SCORE.INTER.POLAR>
0

>  <SCORE.INTER.ROT>
9

>  <SCORE.INTER.SOLV>
17.2432

>  <SCORE.INTER.VDW>
-12.3809

>  <SCORE.INTER.norm>
0.10596

>  <SCORE.INTRA>
6.50664

>  <SCORE.INTRA.DIHEDRAL>
-13.0661

>  <SCORE.INTRA.DIHEDRAL.0>
27.8999

>  <SCORE.INTRA.POLAR>
0

>  <SCORE.INTRA.POLAR.0>
0

>  <SCORE.INTRA.REPUL>
0

>  <SCORE.INTRA.REPUL.0>
0

>  <SCORE.INTRA.SOLV>
3.78344

>  <SCORE.INTRA.SOLV.lig_0>
-104.479

>  <SCORE.INTRA.VDW>
11.148

>  <SCORE.INTRA.VDW.0>
-6.17816

>  <SCORE.INTRA.norm>
0.15492

>  <SCORE.RESTR>
44.1504

>  <SCORE.RESTR.CAVITY>
44.1504

>  <SCORE.RESTR.norm>
1.0512

>  <SCORE.SYSTEM>
0

>  <SCORE.SYSTEM.CONST>
0

>  <SCORE.SYSTEM.DIHEDRAL>
0

>  <SCORE.SYSTEM.SOLV>
0

>  <SCORE.SYSTEM.norm>
0

>  <SCORE.heavy>
42

>  <SCORE.norm>
1.31208

>  <RMSD>
15.768

$$$$
ligand
 OpenBabel02271912133D
libRbt.so/2013.1/901 2013/11/27
 42 45  0  0  0  0  0  0  0  0999 V2000
   -5.0782    2.0208    9.6355 C   0  0  2  0  0  0  0  0  0  0  0  0
   -4.6701    3.0259   10.5791 O   0  0  0  0  0  0  0  0  0  0  0  0
   -8.3197    5.3661   10.5947 C   0  0  2  0  0  0  0  0  0  0  0  0
   -9.3709    6.3684   10.9420 N   0  0  0  0  0  0  0  0  0  0  0  0
   -3.6959    5.8868   11.0560 C   0  0  1  0  0  0  0  0  0  0  0  0
   -1.8932    5.4409   13.3981 C   0  0  1  0  0  0  0  0  0  0  0  0
   -3.7897    1.2677    9.1871 C   0  0  2  0  0  0  0  0  0  0  0  0
   -2.9673    0.8290   10.3281 N   0  0  0  0  0  0  0  0  0  0  0  0
   -8.1079    4.3265   11.7679 C   0  0  0  0  0  0  0  0  0  0  0  0
   -2.4413    6.7781   10.8062 C   0  0  2  0  0  0  0  0  0  0  0  0
   -1.2660    6.0386   10.3927 O   0  0  0  0  0  0  0  0  0  0  0  0
   -2.4094    5.2401   14.8685 C   0  0  2  0  0  0  0  0  0  0  0  0
   -1.3858    5.6891   15.8592 N   0  0  0  0  0  0  0  0  0  0  0  0
   -2.8850    2.1376    8.2952 C   0  0  1  0  0  0  0  0  0  0  0  0
   -1.7383    1.3958    7.8762 O   0  0  0  0  0  0  0  0  0  0  0  0
   -7.0073    3.2855   11.3347 C   0  0  2  0  0  0  0  0  0  0  0  0
   -6.7923    2.2816   12.4115 N   0  0  0  0  0  0  0  0  0  0  0  0
   -2.3261    7.5106   12.1439 C   0  0  2  0  0  0  0  0  0  0  0  0
   -1.4813    6.7779   13.0875 O   0  0  0  0  0  0  0  0  0  0  0  0
   -2.7877    3.6991   15.0901 C   0  0  1  0  0  0  0  0  0  0  0  0
   -4.0199    3.4152   14.3902 O   0  0  0  0  0  0  0  0  0  0  0  0
   -3.6965    2.6535    7.0850 C   0  0  2  0  0  0  0  0  0  0  0  0
   -2.8777    3.4382    6.2494 O   0  0  0  0  0  0  0  0  0  0  0  0
   -5.6447    4.0172   11.0125 C   0  0  2  0  0  0  0  0  0  0  0  0
   -3.7624    7.6519   12.6755 C   0  0  2  0  0  0  0  0  0  0  0  0
   -4.4127    6.4950   12.1549 O   0  0  0  0  0  0  0  0  0  0  0  0
   -1.6421    2.6986   14.5858 C   0  0  2  0  0  0  0  0  0  0  0  0
   -0.5288    2.8388   15.4675 O   0  0  0  0  0  0  0  0  0  0  0  0
   -4.9152    3.4864    7.6053 C   0  0  2  0  0  0  0  0  0  0  0  0
   -5.7438    2.6538    8.4770 O   0  0  0  0  0  0  0  0  0  0  0  0
   -5.7872    5.0905    9.9110 C   0  0  2  0  0  0  0  0  0  0  0  0
   -4.5054    5.7764    9.8781 O   0  0  0  0  0  0  0  0  0  0  0  0
   -4.5006    8.9551   12.2386 C   0  0  0  0  0  0  0  0  0  0  0  0
   -4.6495    8.9590   10.8220 O   0  0  0  0  0  0  0  0  0  0  0  0
   -1.2147    3.0422   13.1089 C   0  0  1  0  0  0  0  0  0  0  0  0
   -0.7811    4.4501   13.1254 O   0  0  0  0  0  0  0  0  0  0  0  0
   -5.7716    4.0268    6.4835 C   0  0  0  0  0  0  0  0  0  0  0  0
   -6.6094    5.0503    6.9628 O   0  0  0  0  0  0  0  0  0  0  0  0
   -6.9555    6.0993   10.2755 C   0  0  1  0  0  0  0  0  0  0  0  0
   -7.1875    6.9991    9.1882 O   0  0  0  0  0  0  0  0  0  0  0  0
   -0.0545    2.1164   12.5384 C   0  0  0  0  0  0  0  0  0  0  0  0
   -0.4675    0.7439   12.1358 N   0  0  0  0  0  0  0  0  0  0  0  0
  1  2  1  1  0  0  0
  1  7  1  0  0  0  0
  1 30  1  0  0  0  0
  3  4  1  1  0  0  0
  3  9  1  0  0  0  0
  3 39  1  0  0  0  0
  5 10  1  0  0  0  0
  5 26  1  0  0  0  0
  5 32  1  6  0  0  0
  6 12  1  0  0  0  0
  6 36  1  0  0  0  0
  6 19  1  1  0  0  0
  7  8  1  1  0  0  0
  7 14  1  0  0  0  0
  9 16  1  0  0  0  0
 10 11  1  1  0  0  0
 10 18  1  0  0  0  0
 12 13  1  1  0  0  0
 12 20  1  0  0  0  0
 14 15  1  6  0  0  0
 14 22  1  0  0  0  0
 16 17  1  1  0  0  0
 16 24  1  0  0  0  0
 18 19  1  1  0  0  0
 18 25  1  0  0  0  0
 20 21  1  6  0  0  0
 20 27  1  0  0  0  0
 22 23  1  6  0  0  0
 22 29  1  0  0  0  0
 24  2  1  6  0  0  0
 24 31  1  0  0  0  0
 25 26  1  0  0  0  0
 25 33  1  6  0  0  0
 27 28  1  1  0  0  0
 27 35  1  0  0  0  0
 29 30  1  0  0  0  0
 29 37  1  6  0  0  0
 31 32  1  1  0  0  0
 31 39  1  0  0  0  0
 33 34  1  0  0  0  0
 35 36  1  0  0  0  0
 35 41  1  1  0  0  0
 37 38  1  0  0  0  0
 39 40  1  6  0  0  0
 41 42  1  0  0  0  0
M  END
>  <CHROM.1>
170.76709021,44.67598982,-58.10257086,-111.12815310,63.25113279,-163.66703545
-29.45304067,-174.51364333,76.05873793,-3.93766905,4.44818732,11.07041846
-2.58274291,-0.67858351,0.81837989

>  <Name>
ligand

>  <RI>
0

>  <Rbt.Current_Directory>
/home/itssahil/PROJECTS/Mol_Feturizer/Test_systems_manuscript/rnas/2o3w

>  <Rbt.Executable>
rbdock ($Id: //depot/dev/client3/rdock/2013.1/src/exe/rbdock.cxx#4 $)

>  <Rbt.Library>
libRbt.so (2013.1, Build901 2013/11/27)

>  <Rbt.Parameter_File>
/export/apps/rDock/src/rDock_2013.1_src/data/scripts/dock_solv.prm

>  <Rbt.Receptor>
prm/blind_docking_20.prm

>  <SCORE>
35.7803

>  <SCORE.INTER>
6.70751

>  <SCORE.INTER.CONST>
1

>  <SCORE.INTER.POLAR>
0

>  <SCORE.INTER.ROT>
9

>  <SCORE.INTER.SOLV>
23.6096

>  <SCORE.INTER.VDW>
-12.9982

>  <SCORE.INTER.norm>
0.159703

>  <SCORE.INTRA>
-4.23376

>  <SCORE.INTRA.DIHEDRAL>
-13.8428

>  <SCORE.INTRA.DIHEDRAL.0>
27.8999

>  <SCORE.INTRA.POLAR>
0

>  <SCORE.INTRA.POLAR.0>
0

>  <SCORE.INTRA.REPUL>
0

>  <SCORE.INTRA.REPUL.0>
0

>  <SCORE.INTRA.SOLV>
0.498233

>  <SCORE.INTRA.SOLV.lig_0>
-104.479

>  <SCORE.INTRA.VDW>
2.43852

>  <SCORE.INTRA.VDW.0>
-6.17816

>  <SCORE.INTRA.norm>
-0.100804

>  <SCORE.RESTR>
33.3066

>  <SCORE.RESTR.CAVITY>
33.3066

>  <SCORE.RESTR.norm>
0.793013

>  <SCORE.SYSTEM>
0

>  <SCORE.SYSTEM.CONST>
0

>  <SCORE.SYSTEM.DIHEDRAL>
0

>  <SCORE.SYSTEM.SOLV>
0

>  <SCORE.SYSTEM.norm>
0

>  <SCORE.heavy>
42

>  <SCORE.norm>
0.851912

>  <RMSD>
15.768

$$$$
ligand
 OpenBabel02271912133D
libRbt.so/2013.1/901 2013/11/27
 42 45  0  0  0  0  0  0  0  0999 V2000
   -7.6196    3.1179   10.1129 C   0  0  2  0  0  0  0  0  0  0  0  0
   -7.5139    4.3928    9.4565 O   0  0  0  0  0  0  0  0  0  0  0  0
   -4.0248    3.5006    7.0427 C   0  0  2  0  0  0  0  0  0  0  0  0
   -2.8677    3.6232    6.1064 N   0  0  0  0  0  0  0  0  0  0  0  0
   -4.0364    5.6900   11.1888 C   0  0  1  0  0  0  0  0  0  0  0  0
   -1.8500    5.3086   13.2976 C   0  0  1  0  0  0  0  0  0  0  0  0
   -7.4015    3.3704   11.6350 C   0  0  2  0  0  0  0  0  0  0  0  0
   -8.2394    4.4671   12.1504 N   0  0  0  0  0  0  0  0  0  0  0  0
   -5.3975    3.7345    6.2925 C   0  0  0  0  0  0  0  0  0  0  0  0
   -3.0040    6.8160   10.8771 C   0  0  2  0  0  0  0  0  0  0  0  0
   -1.8401    6.3618   10.1436 O   0  0  0  0  0  0  0  0  0  0  0  0
   -2.4306    5.1219   14.7456 C   0  0  2  0  0  0  0  0  0  0  0  0
   -1.5518    5.7757   15.7611 N   0  0  0  0  0  0  0  0  0  0  0  0
   -5.9417    3.7338   11.9637 C   0  0  1  0  0  0  0  0  0  0  0  0
   -5.7796    3.9170   13.3712 O   0  0  0  0  0  0  0  0  0  0  0  0
   -6.5771    3.5704    7.3241 C   0  0  2  0  0  0  0  0  0  0  0  0
   -7.8873    3.7700    6.6478 N   0  0  0  0  0  0  0  0  0  0  0  0
   -2.7311    7.3650   12.2783 C   0  0  2  0  0  0  0  0  0  0  0  0
   -1.6143    6.6708   12.9200 O   0  0  0  0  0  0  0  0  0  0  0  0
   -2.5978    3.5580   15.0506 C   0  0  1  0  0  0  0  0  0  0  0  0
   -3.7261    3.0538   14.3011 O   0  0  0  0  0  0  0  0  0  0  0  0
   -5.0021    2.6303   11.4263 C   0  0  2  0  0  0  0  0  0  0  0  0
   -3.6627    2.9399   11.7339 O   0  0  0  0  0  0  0  0  0  0  0  0
   -6.4290    4.6051    8.5087 C   0  0  2  0  0  0  0  0  0  0  0  0
   -4.0353    7.1737   13.0706 C   0  0  2  0  0  0  0  0  0  0  0  0
   -4.5987    6.0029   12.4838 O   0  0  0  0  0  0  0  0  0  0  0  0
   -1.2889    2.7094   14.6845 C   0  0  2  0  0  0  0  0  0  0  0  0
   -0.2697    3.0650   15.6179 O   0  0  0  0  0  0  0  0  0  0  0  0
   -5.1986    2.5015    9.8789 C   0  0  2  0  0  0  0  0  0  0  0  0
   -6.5972    2.1897    9.5849 O   0  0  0  0  0  0  0  0  0  0  0  0
   -5.0830    4.4730    9.2544 C   0  0  2  0  0  0  0  0  0  0  0  0
   -5.0414    5.6015   10.1705 O   0  0  0  0  0  0  0  0  0  0  0  0
   -5.0311    8.3726   12.9984 C   0  0  0  0  0  0  0  0  0  0  0  0
   -6.2302    8.0303   13.6867 O   0  0  0  0  0  0  0  0  0  0  0  0
   -0.8159    3.0235   13.2148 C   0  0  1  0  0  0  0  0  0  0  0  0
   -0.5911    4.4784   13.1595 O   0  0  0  0  0  0  0  0  0  0  0  0
   -4.3189    1.4355    9.2678 C   0  0  0  0  0  0  0  0  0  0  0  0
   -3.9583    1.7971    7.9569 O   0  0  0  0  0  0  0  0  0  0  0  0
   -3.8770    4.5388    8.2262 C   0  0  1  0  0  0  0  0  0  0  0  0
   -2.6428    4.2655    8.8952 O   0  0  0  0  0  0  0  0  0  0  0  0
    0.5013    2.2469   12.7785 C   0  0  0  0  0  0  0  0  0  0  0  0
    1.7623    2.7099   13.4204 N   0  0  0  0  0  0  0  0  0  0  0  0
  1  2  1  6  0  0  0
  1  7  1  0  0  0  0
  1 30  1  0  0  0  0
  3  4  1  6  0  0  0
  3  9  1  0  0  0  0
  3 39  1  0  0  0  0
  5 10  1  0  0  0  0
  5 26  1  0  0  0  0
  5 32  1  6  0  0  0
  6 12  1  0  0  0  0
  6 36  1  0  0  0  0
  6 19  1  1  0  0  0
  7  8  1  6  0  0  0
  7 14  1  0  0  0  0
  9 16  1  0  0  0  0
 10 11  1  1  0  0  0
 10 18  1  0  0  0  0
 12 13  1  1  0  0  0
 12 20  1  0  0  0  0
 14 15  1  1  0  0  0
 14 22  1  0  0  0  0
 16 17  1  6  0  0  0
 16 24  1  0  0  0  0
 18 19  1  1  0  0  0
 18 25  1  0  0  0  0
 20 21  1  6  0  0  0
 20 27  1  0  0  0  0
 22 23  1  6  0  0  0
 22 29  1  0  0  0  0
 24  2  1  1  0  0  0
 24 31  1  0  0  0  0
 25 26  1  0  0  0  0
 25 33  1  6  0  0  0
 27 28  1  1  0  0  0
 27 35  1  0  0  0  0
 29 30  1  0  0  0  0
 29 37  1  1  0  0  0
 31 32  1  1  0  0  0
 31 39  1  0  0  0  0
 33 34  1  0  0  0  0
 35 36  1  0  0  0  0
 35 41  1  1  0  0  0
 37 38  1  0  0  0  0
 39 40  1  1  0  0  0
 41 42  1  0  0  0  0
M  END
>  <CHROM.1>
115.98411675,61.13326806,-69.57445527,-89.63222301,175.73875428,-148.06181025
169.64029972,109.37001889,-71.48864648,-3.96447898,4.33270187,11.27412664
2.30604061,0.40187057,-2.06351445

>  <Name>
ligand

>  <RI>
0

>  <Rbt.Current_Directory>
/home/itssahil/PROJECTS/Mol_Feturizer/Test_systems_manuscript/rnas/2o3w

>  <Rbt.Executable>
rbdock ($Id: //depot/dev/client3/rdock/2013.1/src/exe/rbdock.cxx#4 $)

>  <Rbt.Library>
libRbt.so (2013.1, Build901 2013/11/27)

>  <Rbt.Parameter_File>
/export/apps/rDock/src/rDock_2013.1_src/data/scripts/dock_solv.prm

>  <Rbt.Receptor>
prm/blind_docking_20.prm

>  <SCORE>
83.9758

>  <SCORE.INTER>
19.0983

>  <SCORE.INTER.CONST>
1

>  <SCORE.INTER.POLAR>
0

>  <SCORE.INTER.ROT>
9

>  <SCORE.INTER.SOLV>
23.6864

>  <SCORE.INTER.VDW>
-4.76327

>  <SCORE.INTER.norm>
0.454721

>  <SCORE.INTRA>
36.7445

>  <SCORE.INTRA.DIHEDRAL>
-6.09945

>  <SCORE.INTRA.DIHEDRAL.0>
27.8999

>  <SCORE.INTRA.POLAR>
0

>  <SCORE.INTRA.POLAR.0>
0

>  <SCORE.INTRA.REPUL>
0

>  <SCORE.INTRA.REPUL.0>
0

>  <SCORE.INTRA.SOLV>
6.67368

>  <SCORE.INTRA.SOLV.lig_0>
-104.479

>  <SCORE.INTRA.VDW>
36.4574

>  <SCORE.INTRA.VDW.0>
-6.17816

>  <SCORE.INTRA.norm>
0.874869

>  <SCORE.RESTR>
28.133

>  <SCORE.RESTR.CAVITY>
28.133

>  <SCORE.RESTR.norm>
0.669833

>  <SCORE.SYSTEM>
0

>  <SCORE.SYSTEM.CONST>
0

>  <SCORE.SYSTEM.DIHEDRAL>
0

>  <SCORE.SYSTEM.SOLV>
0

>  <SCORE.SYSTEM.norm>
0

>  <SCORE.heavy>
42

>  <SCORE.norm>
1.99942

>  <RMSD>
15.791

$$$$
ligand
 OpenBabel02271912133D
libRbt.so/2013.1/901 2013/11/27
 42 45  0  0  0  0  0  0  0  0999 V2000
   -5.9288    3.0780    9.0973 C   0  0  2  0  0  0  0  0  0  0  0  0
   -5.2473    3.6895   10.2058 O   0  0  0  0  0  0  0  0  0  0  0  0
   -7.6864    7.2639   10.4719 C   0  0  2  0  0  0  0  0  0  0  0  0
   -8.2454    8.5818   10.8972 N   0  0  0  0  0  0  0  0  0  0  0  0
   -3.2058    5.8395   10.6561 C   0  0  1  0  0  0  0  0  0  0  0  0
   -1.6294    4.8865   13.4373 C   0  0  1  0  0  0  0  0  0  0  0  0
   -5.0417    1.8905    8.6167 C   0  0  2  0  0  0  0  0  0  0  0  0
   -4.6289    1.0109    9.7242 N   0  0  0  0  0  0  0  0  0  0  0  0
   -7.8467    6.1780   11.6107 C   0  0  0  0  0  0  0  0  0  0  0  0
   -1.7598    6.3896   10.4636 C   0  0  2  0  0  0  0  0  0  0  0  0
   -0.8540    5.4557    9.8261 O   0  0  0  0  0  0  0  0  0  0  0  0
   -0.8976    4.0890   14.5763 C   0  0  2  0  0  0  0  0  0  0  0  0
    0.1886    3.2317   14.0140 N   0  0  0  0  0  0  0  0  0  0  0  0
   -3.7523    2.3676    7.9234 C   0  0  1  0  0  0  0  0  0  0  0  0
   -2.9909    1.2491    7.4651 O   0  0  0  0  0  0  0  0  0  0  0  0
   -7.2611    4.8087   11.0962 C   0  0  2  0  0  0  0  0  0  0  0  0
   -7.4089    3.7582   12.1394 N   0  0  0  0  0  0  0  0  0  0  0  0
   -1.4004    6.7879   11.8959 C   0  0  2  0  0  0  0  0  0  0  0  0
   -0.7662    5.6847   12.6180 O   0  0  0  0  0  0  0  0  0  0  0  0
   -1.9694    3.2081   15.3776 C   0  0  1  0  0  0  0  0  0  0  0  0
   -2.7665    4.0829   16.2072 O   0  0  0  0  0  0  0  0  0  0  0  0
   -4.1141    3.3188    6.7600 C   0  0  2  0  0  0  0  0  0  0  0  0
   -2.9449    3.7515    6.1041 O   0  0  0  0  0  0  0  0  0  0  0  0
   -5.7365    4.9640   10.7125 C   0  0  2  0  0  0  0  0  0  0  0  0
   -2.7210    7.2054   12.5645 C   0  0  2  0  0  0  0  0  0  0  0  0
   -3.6870    6.3920   11.9029 O   0  0  0  0  0  0  0  0  0  0  0  0
   -2.9294    2.3652   14.4104 C   0  0  2  0  0  0  0  0  0  0  0  0
   -2.1384    1.3474   13.7983 O   0  0  0  0  0  0  0  0  0  0  0  0
   -4.9134    4.5388    7.3278 C   0  0  2  0  0  0  0  0  0  0  0  0
   -6.1162    4.0637    8.0114 O   0  0  0  0  0  0  0  0  0  0  0  0
   -5.4961    6.0510    9.6420 C   0  0  2  0  0  0  0  0  0  0  0  0
   -4.0510    6.1842    9.5506 O   0  0  0  0  0  0  0  0  0  0  0  0
   -3.0762    8.7188   12.4318 C   0  0  0  0  0  0  0  0  0  0  0  0
   -3.2833    9.0348   11.0584 O   0  0  0  0  0  0  0  0  0  0  0  0
   -3.5665    3.2961   13.3105 C   0  0  1  0  0  0  0  0  0  0  0  0
   -2.4376    3.9193   12.5981 O   0  0  0  0  0  0  0  0  0  0  0  0
   -5.3155    5.5218    6.2527 C   0  0  0  0  0  0  0  0  0  0  0  0
   -6.3546    4.9861    5.4700 O   0  0  0  0  0  0  0  0  0  0  0  0
   -6.1596    7.4199   10.0911 C   0  0  1  0  0  0  0  0  0  0  0  0
   -6.0687    8.3816    9.0363 O   0  0  0  0  0  0  0  0  0  0  0  0
   -4.5104    2.5327   12.2835 C   0  0  0  0  0  0  0  0  0  0  0  0
   -5.6904    1.8495   12.8814 N   0  0  0  0  0  0  0  0  0  0  0  0
  1  2  1  1  0  0  0
  1  7  1  0  0  0  0
  1 30  1  0  0  0  0
  3  4  1  1  0  0  0
  3  9  1  0  0  0  0
  3 39  1  0  0  0  0
  5 10  1  0  0  0  0
  5 26  1  0  0  0  0
  5 32  1  6  0  0  0
  6 12  1  0  0  0  0
  6 36  1  0  0  0  0
  6 19  1  6  0  0  0
  7  8  1  1  0  0  0
  7 14  1  0  0  0  0
  9 16  1  0  0  0  0
 10 11  1  1  0  0  0
 10 18  1  0  0  0  0
 12 13  1  6  0  0  0
 12 20  1  0  0  0  0
 14 15  1  6  0  0  0
 14 22  1  0  0  0  0
 16 17  1  1  0  0  0
 16 24  1  0  0  0  0
 18 19  1  1  0  0  0
 18 25  1  0  0  0  0
 20 21  1  6  0  0  0
 20 27  1  0  0  0  0
 22 23  1  1  0  0  0
 22 29  1  0  0  0  0
 24  2  1  6  0  0  0
 24 31  1  0  0  0  0
 25 26  1  0  0  0  0
 25 33  1  6  0  0  0
 27 28  1  6  0  0  0
 27 35  1  0  0  0  0
 29 30  1  0  0  0  0
 29 37  1  6  0  0  0
 31 32  1  1  0  0  0
 31 39  1  0  0  0  0
 33 34  1  0  0  0  0
 35 36  1  0  0  0  0
 35 41  1  6  0  0  0
 37 38  1  0  0  0  0
 39 40  1  6  0  0  0
 41 42  1  0  0  0  0
M  END
>  <CHROM.1>
169.77071796,55.72453929,-95.95961469,-158.40450571,64.13212385,72.95322359
-25.33451487,-165.78142204,60.41876709,-4.08226214,4.75373452,10.79165774
-2.75146890,-0.96711433,0.63185538

>  <Name>
ligand

>  <RI>
0

>  <Rbt.Current_Directory>
/home/itssahil/PROJECTS/Mol_Feturizer/Test_systems_manuscript/rnas/2o3w

>  <Rbt.Executable>
rbdock ($Id: //depot/dev/client3/rdock/2013.1/src/exe/rbdock.cxx#4 $)

>  <Rbt.Library>
libRbt.so (2013.1, Build901 2013/11/27)

>  <Rbt.Parameter_File>
/export/apps/rDock/src/rDock_2013.1_src/data/scripts/dock_solv.prm

>  <Rbt.Receptor>
prm/blind_docking_20.prm

>  <SCORE>
74.2073

>  <SCORE.INTER>
35.9305

>  <SCORE.INTER.CONST>
1

>  <SCORE.INTER.POLAR>
0

>  <SCORE.INTER.ROT>
9

>  <SCORE.INTER.SOLV>
20.2951

>  <SCORE.INTER.VDW>
7.58866

>  <SCORE.INTER.norm>
0.855489

>  <SCORE.INTRA>
3.82909

>  <SCORE.INTRA.DIHEDRAL>
-14.3657

>  <SCORE.INTRA.DIHEDRAL.0>
27.8999

>  <SCORE.INTRA.POLAR>
0

>  <SCORE.INTRA.POLAR.0>
0

>  <SCORE.INTRA.REPUL>
0

>  <SCORE.INTRA.REPUL.0>
0

>  <SCORE.INTRA.SOLV>
5.20912

>  <SCORE.INTRA.SOLV.lig_0>
-104.479

>  <SCORE.INTRA.VDW>
8.4074

>  <SCORE.INTRA.VDW.0>
-6.17816

>  <SCORE.INTRA.norm>
0.0911688

>  <SCORE.RESTR>
34.4477

>  <SCORE.RESTR.CAVITY>
34.4477

>  <SCORE.RESTR.norm>
0.820183

>  <SCORE.SYSTEM>
0

>  <SCORE.SYSTEM.CONST>
0

>  <SCORE.SYSTEM.DIHEDRAL>
0

>  <SCORE.SYSTEM.SOLV>
0

>  <SCORE.SYSTEM.norm>
0

>  <SCORE.heavy>
42

>  <SCORE.norm>
1.76684

>  <RMSD>
15.792

$$$$
ligand
 OpenBabel02271912133D
libRbt.so/2013.1/901 2013/11/27
 42 45  0  0  0  0  0  0  0  0999 V2000
   -1.8849    4.5999   11.8860 C   0  0  2  0  0  0  0  0  0  0  0  0
   -3.2580    4.9213   11.6053 O   0  0  0  0  0  0  0  0  0  0  0  0
   -3.3886    8.9571   13.1836 C   0  0  2  0  0  0  0  0  0  0  0  0
   -3.7862   10.3704   13.4571 N   0  0  0  0  0  0  0  0  0  0  0  0
   -5.8135    4.7975   12.1804 C   0  0  1  0  0  0  0  0  0  0  0  0
   -5.7873    3.0831    9.7702 C   0  0  1  0  0  0  0  0  0  0  0  0
   -1.7789    3.0456   11.9187 C   0  0  2  0  0  0  0  0  0  0  0  0
   -2.3927    2.4137   10.7379 N   0  0  0  0  0  0  0  0  0  0  0  0
   -2.9321    8.7698   11.6808 C   0  0  0  0  0  0  0  0  0  0  0  0
   -6.0384    3.3244   12.6388 C   0  0  2  0  0  0  0  0  0  0  0  0
   -4.8605    2.4877   12.5321 O   0  0  0  0  0  0  0  0  0  0  0  0
   -6.3525    4.2983    8.9501 C   0  0  2  0  0  0  0  0  0  0  0  0
   -7.4260    3.8549    8.0110 N   0  0  0  0  0  0  0  0  0  0  0  0
   -2.4666    2.4389   13.1557 C   0  0  1  0  0  0  0  0  0  0  0  0
   -2.3106    1.0189   13.1651 O   0  0  0  0  0  0  0  0  0  0  0  0
   -2.5051    7.2693   11.4605 C   0  0  2  0  0  0  0  0  0  0  0  0
   -2.0551    7.0600   10.0579 N   0  0  0  0  0  0  0  0  0  0  0  0
   -7.2219    2.9171   11.7597 C   0  0  2  0  0  0  0  0  0  0  0  0
   -6.7763    2.3384   10.4919 O   0  0  0  0  0  0  0  0  0  0  0  0
   -5.1524    5.0063    8.1592 C   0  0  1  0  0  0  0  0  0  0  0  0
   -4.3420    5.7432    9.1022 O   0  0  0  0  0  0  0  0  0  0  0  0
   -1.8832    3.0792   14.4359 C   0  0  2  0  0  0  0  0  0  0  0  0
   -2.4907    2.5222   15.5783 O   0  0  0  0  0  0  0  0  0  0  0  0
   -3.7065    6.2952   11.7826 C   0  0  2  0  0  0  0  0  0  0  0  0
   -8.0408    4.1985   11.5300 C   0  0  2  0  0  0  0  0  0  0  0  0
   -7.0499    5.2230   11.5628 O   0  0  0  0  0  0  0  0  0  0  0  0
   -4.2328    3.9644    7.3616 C   0  0  2  0  0  0  0  0  0  0  0  0
   -5.0071    3.4456    6.2810 O   0  0  0  0  0  0  0  0  0  0  0  0
   -2.1157    4.6261   14.3845 C   0  0  2  0  0  0  0  0  0  0  0  0
   -1.4846    5.1789   13.1862 O   0  0  0  0  0  0  0  0  0  0  0  0
   -4.2437    6.4622   13.2210 C   0  0  2  0  0  0  0  0  0  0  0  0
   -5.4410    5.6391   13.2795 O   0  0  0  0  0  0  0  0  0  0  0  0
   -9.1578    4.4640   12.5864 C   0  0  0  0  0  0  0  0  0  0  0  0
   -9.7130    5.7575   12.3691 O   0  0  0  0  0  0  0  0  0  0  0  0
   -3.7672    2.7951    8.3093 C   0  0  1  0  0  0  0  0  0  0  0  0
   -4.9980    2.1847    8.8412 O   0  0  0  0  0  0  0  0  0  0  0  0
   -1.5680    5.3371   15.6003 C   0  0  0  0  0  0  0  0  0  0  0  0
   -0.3578    4.7443   16.0045 O   0  0  0  0  0  0  0  0  0  0  0  0
   -4.5928    7.9834   13.5034 C   0  0  1  0  0  0  0  0  0  0  0  0
   -4.9454    8.1618   14.8780 O   0  0  0  0  0  0  0  0  0  0  0  0
   -2.8746    1.6939    7.5888 C   0  0  0  0  0  0  0  0  0  0  0  0
   -2.4999    0.5218    8.4268 N   0  0  0  0  0  0  0  0  0  0  0  0
  1  2  1  1  0  0  0
  1  7  1  0  0  0  0
  1 30  1  0  0  0  0
  3  4  1  6  0  0  0
  3  9  1  0  0  0  0
  3 39  1  0  0  0  0
  5 10  1  0  0  0  0
  5 26  1  0  0  0  0
  5 32  1  1  0  0  0
  6 12  1  0  0  0  0
  6 36  1  0  0  0  0
  6 19  1  6  0  0  0
  7  8  1  6  0  0  0
  7 14  1  0  0  0  0
  9 16  1  0  0  0  0
 10 11  1  6  0  0  0
 10 18  1  0  0  0  0
 12 13  1  6  0  0  0
 12 20  1  0  0  0  0
 14 15  1  1  0  0  0
 14 22  1  0  0  0  0
 16 17  1  6  0  0  0
 16 24  1  0  0  0  0
 18 19  1  6  0  0  0
 18 25  1  0  0  0  0
 20 21  1  1  0  0  0
 20 27  1  0  0  0  0
 22 23  1  1  0  0  0
 22 29  1  0  0  0  0
 24  2  1  1  0  0  0
 24 31  1  0  0  0  0
 25 26  1  0  0  0  0
 25 33  1  1  0  0  0
 27 28  1  6  0  0  0
 27 35  1  0  0  0  0
 29 30  1  0  0  0  0
 29 37  1  1  0  0  0
 31 32  1  6  0  0  0
 31 39  1  0  0  0  0
 33 34  1  0  0  0  0
 35 36  1  0  0  0  0
 35 41  1  6  0  0  0
 37 38  1  0  0  0  0
 39 40  1  1  0  0  0
 41 42  1  0  0  0  0
M  END
>  <CHROM.1>
167.66742014,31.96910781,-49.22698643,-79.62627503,172.10471664,37.62495474
5.87496774,126.69545858,-175.64881246,-4.26609409,4.57555926,11.60927271
-1.07363030,0.53999988,-2.37667157

>  <Name>
ligand

>  <RI>
0

>  <Rbt.Current_Directory>
/home/itssahil/PROJECTS/Mol_Feturizer/Test_systems_manuscript/rnas/2o3w

>  <Rbt.Executable>
rbdock ($Id: //depot/dev/client3/rdock/2013.1/src/exe/rbdock.cxx#4 $)

>  <Rbt.Library>
libRbt.so (2013.1, Build901 2013/11/27)

>  <Rbt.Parameter_File>
/export/apps/rDock/src/rDock_2013.1_src/data/scripts/dock_solv.prm

>  <Rbt.Receptor>
prm/blind_docking_20.prm

>  <SCORE>
47.3287

>  <SCORE.INTER>
10.2303

>  <SCORE.INTER.CONST>
1

>  <SCORE.INTER.POLAR>
0

>  <SCORE.INTER.ROT>
9

>  <SCORE.INTER.SOLV>
19.729

>  <SCORE.INTER.VDW>
-9.35614

>  <SCORE.INTER.norm>
0.243578

>  <SCORE.INTRA>
7.88159

>  <SCORE.INTRA.DIHEDRAL>
-5.66247

>  <SCORE.INTRA.DIHEDRAL.0>
27.8999

>  <SCORE.INTRA.POLAR>
0

>  <SCORE.INTRA.POLAR.0>
0

>  <SCORE.INTRA.REPUL>
0

>  <SCORE.INTRA.REPUL.0>
0

>  <SCORE.INTRA.SOLV>
6.62989

>  <SCORE.INTRA.SOLV.lig_0>
-104.479

>  <SCORE.INTRA.VDW>
7.39788

>  <SCORE.INTRA.VDW.0>
-6.17816

>  <SCORE.INTRA.norm>
0.187657

>  <SCORE.RESTR>
29.2168

>  <SCORE.RESTR.CAVITY>
29.2168

>  <SCORE.RESTR.norm>
0.695638

>  <SCORE.SYSTEM>
0

>  <SCORE.SYSTEM.CONST>
0

>  <SCORE.SYSTEM.DIHEDRAL>
0

>  <SCORE.SYSTEM.SOLV>
0

>  <SCORE.SYSTEM.norm>
0

>  <SCORE.heavy>
42

>  <SCORE.norm>
1.12687

>  <RMSD>
15.794

$$$$
ligand
 OpenBabel02271912133D
libRbt.so/2013.1/901 2013/11/27
 42 45  0  0  0  0  0  0  0  0999 V2000
   -1.9025    4.5878   11.9097 C   0  0  2  0  0  0  0  0  0  0  0  0
   -3.2753    4.9181   11.6382 O   0  0  0  0  0  0  0  0  0  0  0  0
   -3.3796    8.9653   13.1891 C   0  0  2  0  0  0  0  0  0  0  0  0
   -3.7635   10.3852   13.4474 N   0  0  0  0  0  0  0  0  0  0  0  0
   -5.8441    4.8348   12.1711 C   0  0  1  0  0  0  0  0  0  0  0  0
   -5.7950    3.1297    9.7574 C   0  0  1  0  0  0  0  0  0  0  0  0
   -1.8054    3.0328   11.9372 C   0  0  2  0  0  0  0  0  0  0  0  0
   -2.4300    2.4081   10.7581 N   0  0  0  0  0  0  0  0  0  0  0  0
   -2.9020    8.7626   11.6949 C   0  0  0  0  0  0  0  0  0  0  0  0
   -6.0356    3.3538   12.6192 C   0  0  2  0  0  0  0  0  0  0  0  0
   -4.8433    2.5407   12.4918 O   0  0  0  0  0  0  0  0  0  0  0  0
   -6.3676    4.3508    8.9513 C   0  0  2  0  0  0  0  0  0  0  0  0
   -7.4401    3.9123    8.0089 N   0  0  0  0  0  0  0  0  0  0  0  0
   -2.4892    2.4265   13.1764 C   0  0  1  0  0  0  0  0  0  0  0  0
   -2.3416    1.0055   13.1806 O   0  0  0  0  0  0  0  0  0  0  0  0
   -2.4905    7.2554   11.4907 C   0  0  2  0  0  0  0  0  0  0  0  0
   -2.0212    7.0315   10.0967 N   0  0  0  0  0  0  0  0  0  0  0  0
   -7.2212    2.9314   11.7500 C   0  0  2  0  0  0  0  0  0  0  0  0
   -6.7792    2.3721   10.4722 O   0  0  0  0  0  0  0  0  0  0  0  0
   -5.1722    5.0736    8.1666 C   0  0  1  0  0  0  0  0  0  0  0  0
   -4.3642    5.8042    9.1165 O   0  0  0  0  0  0  0  0  0  0  0  0
   -1.8945    3.0595   14.4550 C   0  0  2  0  0  0  0  0  0  0  0  0
   -2.4984    2.5026   15.5994 O   0  0  0  0  0  0  0  0  0  0  0  0
   -3.7091    6.2987   11.7999 C   0  0  2  0  0  0  0  0  0  0  0  0
   -8.0669    4.1988   11.5407 C   0  0  2  0  0  0  0  0  0  0  0  0
   -7.0954    5.2418   11.5713 O   0  0  0  0  0  0  0  0  0  0  0  0
   -4.2485    4.0450    7.3564 C   0  0  2  0  0  0  0  0  0  0  0  0
   -5.0216    3.5341    6.2712 O   0  0  0  0  0  0  0  0  0  0  0  0
   -2.1181    4.6079   14.4096 C   0  0  2  0  0  0  0  0  0  0  0  0
   -1.4910    5.1605   13.2091 O   0  0  0  0  0  0  0  0  0  0  0  0
   -4.2667    6.4816   13.2284 C   0  0  2  0  0  0  0  0  0  0  0  0
   -5.4751    5.6740   13.2731 O   0  0  0  0  0  0  0  0  0  0  0  0
   -9.1766    4.4339   12.6121 C   0  0  0  0  0  0  0  0  0  0  0  0
   -9.8389    5.6654   12.3410 O   0  0  0  0  0  0  0  0  0  0  0  0
   -3.7756    2.8679    8.2907 C   0  0  1  0  0  0  0  0  0  0  0  0
   -5.0025    2.2455    8.8176 O   0  0  0  0  0  0  0  0  0  0  0  0
   -1.5589    5.3120   15.6242 C   0  0  0  0  0  0  0  0  0  0  0  0
   -0.3327    4.7328   15.9988 O   0  0  0  0  0  0  0  0  0  0  0  0
   -4.6010    8.0089   13.4958 C   0  0  1  0  0  0  0  0  0  0  0  0
   -4.9728    8.2005   14.8636 O   0  0  0  0  0  0  0  0  0  0  0  0
   -2.8784    1.7792    7.5570 C   0  0  0  0  0  0  0  0  0  0  0  0
   -2.3954    0.6616    8.4140 N   0  0  0  0  0  0  0  0  0  0  0  0
  1  2  1  1  0  0  0
  1  7  1  0  0  0  0
  1 30  1  0  0  0  0
  3  4  1  6  0  0  0
  3  9  1  0  0  0  0
  3 39  1  0  0  0  0
  5 10  1  0  0  0  0
  5 26  1  0  0  0  0
  5 32  1  1  0  0  0
  6 12  1  0  0  0  0
  6 36  1  0  0  0  0
  6 19  1  6  0  0  0
  7  8  1  6  0  0  0
  7 14  1  0  0  0  0
  9 16  1  0  0  0  0
 10 11  1  6  0  0  0
 10 18  1  0  0  0  0
 12 13  1  6  0  0  0
 12 20  1  0  0  0  0
 14 15  1  1  0  0  0
 14 22  1  0  0  0  0
 16 17  1  6  0  0  0
 16 24  1  0  0  0  0
 18 19  1  6  0  0  0
 18 25  1  0  0  0  0
 20 21  1  1  0  0  0
 20 27  1  0  0  0  0
 22 23  1  1  0  0  0
 22 29  1  0  0  0  0
 24  2  1  1  0  0  0
 24 31  1  0  0  0  0
 25 26  1  0  0  0  0
 25 33  1  1  0  0  0
 27 28  1  6  0  0  0
 27 35  1  0  0  0  0
 29 30  1  0  0  0  0
 29 37  1  1  0  0  0
 31 32  1  6  0  0  0
 31 39  1  0  0  0  0
 33 34  1  0  0  0  0
 35 36  1  0  0  0  0
 35 41  1  6  0  0  0
 37 38  1  0  0  0  0
 39 40  1  1  0  0  0
 41 42  1  0  0  0  0
M  END
>  <CHROM.1>
168.72534679,30.39723377,-48.13719978,-79.91577361,177.20187205,39.12882313
5.58529665,124.31539018,179.11102799,-4.27567498,4.59449004,11.61221358,-1.05050156
0.53490358,-2.36541529

>  <Name>
ligand

>  <RI>
0

>  <Rbt.Current_Directory>
/home/itssahil/PROJECTS/Mol_Feturizer/Test_systems_manuscript/rnas/2o3w

>  <Rbt.Executable>
rbdock ($Id: //depot/dev/client3/rdock/2013.1/src/exe/rbdock.cxx#4 $)

>  <Rbt.Library>
libRbt.so (2013.1, Build901 2013/11/27)

>  <Rbt.Parameter_File>
/export/apps/rDock/src/rDock_2013.1_src/data/scripts/dock_solv.prm

>  <Rbt.Receptor>
prm/blind_docking_20.prm

>  <SCORE>
46.5754

>  <SCORE.INTER>
9.19051

>  <SCORE.INTER.CONST>
1

>  <SCORE.INTER.POLAR>
0

>  <SCORE.INTER.ROT>
9

>  <SCORE.INTER.SOLV>
19.6482

>  <SCORE.INTER.VDW>
-10.0224

>  <SCORE.INTER.norm>
0.218822

>  <SCORE.INTRA>
8.16661

>  <SCORE.INTRA.DIHEDRAL>
-5.6325

>  <SCORE.INTRA.DIHEDRAL.0>
27.8999

>  <SCORE.INTRA.POLAR>
0

>  <SCORE.INTRA.POLAR.0>
0

>  <SCORE.INTRA.REPUL>
0

>  <SCORE.INTRA.REPUL.0>
0

>  <SCORE.INTRA.SOLV>
6.6707

>  <SCORE.INTRA.SOLV.lig_0>
-104.479

>  <SCORE.INTRA.VDW>
7.64751

>  <SCORE.INTRA.VDW.0>
-6.17816

>  <SCORE.INTRA.norm>
0.194443

>  <SCORE.RESTR>
29.2183

>  <SCORE.RESTR.CAVITY>
29.2183

>  <SCORE.RESTR.norm>
0.695674

>  <SCORE.SYSTEM>
0

>  <SCORE.SYSTEM.CONST>
0

>  <SCORE.SYSTEM.DIHEDRAL>
0

>  <SCORE.SYSTEM.SOLV>
0

>  <SCORE.SYSTEM.norm>
0

>  <SCORE.heavy>
42

>  <SCORE.norm>
1.10894

>  <RMSD>
15.795

$$$$
ligand
 OpenBabel02271912133D
libRbt.so/2013.1/901 2013/11/27
 42 45  0  0  0  0  0  0  0  0999 V2000
   -5.0757    2.0377    9.6727 C   0  0  2  0  0  0  0  0  0  0  0  0
   -4.6720    3.0552   10.6049 O   0  0  0  0  0  0  0  0  0  0  0  0
   -8.3358    5.3730   10.6043 C   0  0  2  0  0  0  0  0  0  0  0  0
   -9.3928    6.3719   10.9441 N   0  0  0  0  0  0  0  0  0  0  0  0
   -3.6967    5.8922   11.0463 C   0  0  1  0  0  0  0  0  0  0  0  0
   -1.8739    5.4152   13.3726 C   0  0  1  0  0  0  0  0  0  0  0  0
   -3.7789    1.3175    9.1954 C   0  0  2  0  0  0  0  0  0  0  0  0
   -2.9188    0.9028   10.3173 N   0  0  0  0  0  0  0  0  0  0  0  0
   -8.1164    4.3451   11.7862 C   0  0  0  0  0  0  0  0  0  0  0  0
   -2.4387    6.7757   10.7864 C   0  0  2  0  0  0  0  0  0  0  0  0
   -1.2760    6.0310   10.3475 O   0  0  0  0  0  0  0  0  0  0  0  0
   -2.3979    5.2329   14.8427 C   0  0  2  0  0  0  0  0  0  0  0  0
   -1.3725    5.6773   15.8335 N   0  0  0  0  0  0  0  0  0  0  0  0
   -2.9183    2.2088    8.2810 C   0  0  1  0  0  0  0  0  0  0  0  0
   -1.7628    1.4962    7.8364 O   0  0  0  0  0  0  0  0  0  0  0  0
   -7.0099    3.3071   11.3609 C   0  0  2  0  0  0  0  0  0  0  0  0
   -6.7877    2.3139   12.4461 N   0  0  0  0  0  0  0  0  0  0  0  0
   -2.2973    7.4935   12.1295 C   0  0  2  0  0  0  0  0  0  0  0  0
   -1.4443    6.7444   13.0526 O   0  0  0  0  0  0  0  0  0  0  0  0
   -2.7962    3.6986   15.0755 C   0  0  1  0  0  0  0  0  0  0  0  0
   -4.0293    3.4242   14.3733 O   0  0  0  0  0  0  0  0  0  0  0  0
   -3.7712    2.7008    7.0895 C   0  0  2  0  0  0  0  0  0  0  0  0
   -2.9929    3.5047    6.2337 O   0  0  0  0  0  0  0  0  0  0  0  0
   -5.6522    4.0443   11.0307 C   0  0  2  0  0  0  0  0  0  0  0  0
   -3.7241    7.6410   12.6844 C   0  0  2  0  0  0  0  0  0  0  0  0
   -4.3918    6.4948   12.1620 O   0  0  0  0  0  0  0  0  0  0  0  0
   -1.6613    2.6799   14.5837 C   0  0  2  0  0  0  0  0  0  0  0  0
   -0.5496    2.8135   15.4684 O   0  0  0  0  0  0  0  0  0  0  0  0
   -4.9987    3.5027    7.6369 C   0  0  2  0  0  0  0  0  0  0  0  0
   -5.7846    2.6506    8.5292 O   0  0  0  0  0  0  0  0  0  0  0  0
   -5.8024    5.1070    9.9202 C   0  0  2  0  0  0  0  0  0  0  0  0
   -4.5249    5.8004    9.8797 O   0  0  0  0  0  0  0  0  0  0  0  0
   -4.4580    8.9546   12.2720 C   0  0  0  0  0  0  0  0  0  0  0  0
   -3.8588   10.0589   12.9431 O   0  0  0  0  0  0  0  0  0  0  0  0
   -1.2243    3.0060   13.1056 C   0  0  1  0  0  0  0  0  0  0  0  0
   -0.7732    4.4084   13.1123 O   0  0  0  0  0  0  0  0  0  0  0  0
   -5.8949    4.0181    6.5347 C   0  0  0  0  0  0  0  0  0  0  0  0
   -6.7350    5.0332    7.0277 O   0  0  0  0  0  0  0  0  0  0  0  0
   -6.9765    6.1118   10.2771 C   0  0  1  0  0  0  0  0  0  0  0  0
   -7.2152    7.0007    9.1823 O   0  0  0  0  0  0  0  0  0  0  0  0
   -0.0736    2.0612   12.5471 C   0  0  0  0  0  0  0  0  0  0  0  0
   -0.4912    0.6736   12.2056 N   0  0  0  0  0  0  0  0  0  0  0  0
  1  2  1  1  0  0  0
  1  7  1  0  0  0  0
  1 30  1  0  0  0  0
  3  4  1  1  0  0  0
  3  9  1  0  0  0  0
  3 39  1  0  0  0  0
  5 10  1  0  0  0  0
  5 26  1  0  0  0  0
  5 32  1  6  0  0  0
  6 12  1  0  0  0  0
  6 36  1  0  0  0  0
  6 19  1  1  0  0  0
  7  8  1  1  0  0  0
  7 14  1  0  0  0  0
  9 16  1  0  0  0  0
 10 11  1  1  0  0  0
 10 18  1  0  0  0  0
 12 13  1  1  0  0  0
 12 20  1  0  0  0  0
 14 15  1  6  0  0  0
 14 22  1  0  0  0  0
 16 17  1  1  0  0  0
 16 24  1  0  0  0  0
 18 19  1  1  0  0  0
 18 25  1  0  0  0  0
 20 21  1  6  0  0  0
 20 27  1  0  0  0  0
 22 23  1  6  0  0  0
 22 29  1  0  0  0  0
 24  2  1  6  0  0  0
 24 31  1  0  0  0  0
 25 26  1  0  0  0  0
 25 33  1  6  0  0  0
 27 28  1  1  0  0  0
 27 35  1  0  0  0  0
 29 30  1  0  0  0  0
 29 37  1  6  0  0  0
 31 32  1  1  0  0  0
 31 39  1  0  0  0  0
 33 34  1  0  0  0  0
 35 36  1  0  0  0  0
 35 41  1  1  0  0  0
 37 38  1  0  0  0  0
 39 40  1  6  0  0  0
 41 42  1  0  0  0  0
M  END
>  <CHROM.1>
169.07045478,44.54735715,-59.06482099,-109.43975965,-70.53086413,-162.86523773
-27.60916811,-175.45933265,73.70379424,-3.93125558,4.48370983,11.13154449
-2.52852333,-0.67248193,0.77206752

>  <Name>
ligand

>  <RI>
0

>  <Rbt.Current_Directory>
/home/itssahil/PROJECTS/Mol_Feturizer/Test_systems_manuscript/rnas/2o3w

>  <Rbt.Executable>
rbdock ($Id: //depot/dev/client3/rdock/2013.1/src/exe/rbdock.cxx#4 $)

>  <Rbt.Library>
libRbt.so (2013.1, Build901 2013/11/27)

>  <Rbt.Parameter_File>
/export/apps/rDock/src/rDock_2013.1_src/data/scripts/dock_solv.prm

>  <Rbt.Receptor>
prm/blind_docking_20.prm

>  <SCORE>
36.376

>  <SCORE.INTER>
6.67957

>  <SCORE.INTER.CONST>
1

>  <SCORE.INTER.POLAR>
0

>  <SCORE.INTER.ROT>
9

>  <SCORE.INTER.SOLV>
23.6957

>  <SCORE.INTER.VDW>
-13.0455

>  <SCORE.INTER.norm>
0.159037

>  <SCORE.INTRA>
-3.6092

>  <SCORE.INTRA.DIHEDRAL>
-13.3098

>  <SCORE.INTRA.DIHEDRAL.0>
27.8999

>  <SCORE.INTRA.POLAR>
0

>  <SCORE.INTRA.POLAR.0>
0

>  <SCORE.INTRA.REPUL>
0

>  <SCORE.INTRA.REPUL.0>
0

>  <SCORE.INTRA.SOLV>
-0.216216

>  <SCORE.INTRA.SOLV.lig_0>
-104.479

>  <SCORE.INTRA.VDW>
3.15383

>  <SCORE.INTRA.VDW.0>
-6.17816

>  <SCORE.INTRA.norm>
-0.0859332

>  <SCORE.RESTR>
33.3057

>  <SCORE.RESTR.CAVITY>
33.3057

>  <SCORE.RESTR.norm>
0.792992

>  <SCORE.SYSTEM>
0

>  <SCORE.SYSTEM.CONST>
0

>  <SCORE.SYSTEM.DIHEDRAL>
0

>  <SCORE.SYSTEM.SOLV>
0

>  <SCORE.SYSTEM.norm>
0

>  <SCORE.heavy>
42

>  <SCORE.norm>
0.866096

>  <RMSD>
15.819

$$$$
ligand
 OpenBabel02271912133D
libRbt.so/2013.1/901 2013/11/27
 42 45  0  0  0  0  0  0  0  0999 V2000
   -5.0696    2.0725    9.7058 C   0  0  2  0  0  0  0  0  0  0  0  0
   -4.6737    3.1038   10.6261 O   0  0  0  0  0  0  0  0  0  0  0  0
   -8.3456    5.4085   10.5853 C   0  0  2  0  0  0  0  0  0  0  0  0
   -9.4092    6.4045   10.9126 N   0  0  0  0  0  0  0  0  0  0  0  0
   -3.7010    5.9238   11.0620 C   0  0  1  0  0  0  0  0  0  0  0  0
   -1.8832    5.4465   13.4136 C   0  0  1  0  0  0  0  0  0  0  0  0
   -3.7666    1.3632    9.2291 C   0  0  2  0  0  0  0  0  0  0  0  0
   -2.8961    0.9699   10.3507 N   0  0  0  0  0  0  0  0  0  0  0  0
   -8.1334    4.3845   11.7720 C   0  0  0  0  0  0  0  0  0  0  0  0
   -2.4849    6.8736   10.8389 C   0  0  2  0  0  0  0  0  0  0  0  0
   -1.2922    6.2022   10.3637 O   0  0  0  0  0  0  0  0  0  0  0  0
   -2.3835    5.2438   14.8892 C   0  0  2  0  0  0  0  0  0  0  0  0
   -1.3514    5.6965   15.8693 N   0  0  0  0  0  0  0  0  0  0  0  0
   -2.9213    2.2558    8.3019 C   0  0  1  0  0  0  0  0  0  0  0  0
   -1.7594    1.5527    7.8584 O   0  0  0  0  0  0  0  0  0  0  0  0
   -7.0194    3.3493   11.3598 C   0  0  2  0  0  0  0  0  0  0  0  0
   -6.8036    2.3599   12.4497 N   0  0  0  0  0  0  0  0  0  0  0  0
   -2.3692    7.5358   12.2127 C   0  0  2  0  0  0  0  0  0  0  0  0
   -1.4794    6.7849   13.0987 O   0  0  0  0  0  0  0  0  0  0  0  0
   -2.7540    3.7014   15.1147 C   0  0  1  0  0  0  0  0  0  0  0  0
   -3.9923    3.4131   14.4275 O   0  0  0  0  0  0  0  0  0  0  0  0
   -3.7858    2.7257    7.1099 C   0  0  2  0  0  0  0  0  0  0  0  0
   -3.0215    3.5306    6.2424 O   0  0  0  0  0  0  0  0  0  0  0  0
   -5.6613    4.0905   11.0401 C   0  0  2  0  0  0  0  0  0  0  0  0
   -3.7986    7.5942   12.7775 C   0  0  2  0  0  0  0  0  0  0  0  0
   -4.4169    6.4439   12.2057 O   0  0  0  0  0  0  0  0  0  0  0  0
   -1.6100    2.7051   14.5986 C   0  0  2  0  0  0  0  0  0  0  0  0
   -0.4882    2.8494   15.4688 O   0  0  0  0  0  0  0  0  0  0  0  0
   -5.0202    3.5182    7.6556 C   0  0  2  0  0  0  0  0  0  0  0  0
   -5.7915    2.6655    8.5600 O   0  0  0  0  0  0  0  0  0  0  0  0
   -5.8050    5.1496    9.9253 C   0  0  2  0  0  0  0  0  0  0  0  0
   -4.5297    5.8476    9.8948 O   0  0  0  0  0  0  0  0  0  0  0  0
   -4.5924    8.8908   12.4267 C   0  0  0  0  0  0  0  0  0  0  0  0
   -5.9254    8.7727   12.9145 O   0  0  0  0  0  0  0  0  0  0  0  0
   -1.1991    3.0502   13.1174 C   0  0  1  0  0  0  0  0  0  0  0  0
   -0.7704    4.4596   13.1295 O   0  0  0  0  0  0  0  0  0  0  0  0
   -5.9279    4.0120    6.5529 C   0  0  0  0  0  0  0  0  0  0  0  0
   -5.3306    5.0944    5.8813 O   0  0  0  0  0  0  0  0  0  0  0  0
   -6.9860    6.1512   10.2686 C   0  0  1  0  0  0  0  0  0  0  0  0
   -7.2177    7.0362    9.1692 O   0  0  0  0  0  0  0  0  0  0  0  0
   -0.0415    2.1286   12.5350 C   0  0  0  0  0  0  0  0  0  0  0  0
   -0.3983    0.6966   12.3383 N   0  0  0  0  0  0  0  0  0  0  0  0
  1  2  1  1  0  0  0
  1  7  1  0  0  0  0
  1 30  1  0  0  0  0
  3  4  1  1  0  0  0
  3  9  1  0  0  0  0
  3 39  1  0  0  0  0
  5 10  1  0  0  0  0
  5 26  1  0  0  0  0
  5 32  1  6  0  0  0
  6 12  1  0  0  0  0
  6 36  1  0  0  0  0
  6 19  1  1  0  0  0
  7  8  1  1  0  0  0
  7 14  1  0  0  0  0
  9 16  1  0  0  0  0
 10 11  1  1  0  0  0
 10 18  1  0  0  0  0
 12 13  1  1  0  0  0
 12 20  1  0  0  0  0
 14 15  1  6  0  0  0
 14 22  1  0  0  0  0
 16 17  1  1  0  0  0
 16 24  1  0  0  0  0
 18 19  1  1  0  0  0
 18 25  1  0  0  0  0
 20 21  1  6  0  0  0
 20 27  1  0  0  0  0
 22 23  1  6  0  0  0
 22 29  1  0  0  0  0
 24  2  1  6  0  0  0
 24 31  1  0  0  0  0
 25 26  1  0  0  0  0
 25 33  1  6  0  0  0
 27 28  1  1  0  0  0
 27 35  1  0  0  0  0
 29 30  1  0  0  0  0
 29 37  1  6  0  0  0
 31 32  1  1  0  0  0
 31 39  1  0  0  0  0
 33 34  1  0  0  0  0
 35 36  1  0  0  0  0
 35 41  1  1  0  0  0
 37 38  1  0  0  0  0
 39 40  1  6  0  0  0
 41 42  1  0  0  0  0
M  END
>  <CHROM.1>
168.66108681,43.78096981,-62.10063875,-108.40050082,175.40417928,-73.61549188
-26.41905825,-172.52615339,66.79572968,-3.95346756,4.48199681,11.12574653
-2.46621588,-0.64820233,0.92524736

>  <Name>
ligand

>  <RI>
0

>  <Rbt.Current_Directory>
/home/itssahil/PROJECTS/Mol_Feturizer/Test_systems_manuscript/rnas/2o3w

>  <Rbt.Executable>
rbdock ($Id: //depot/dev/client3/rdock/2013.1/src/exe/rbdock.cxx#4 $)

>  <Rbt.Library>
libRbt.so (2013.1, Build901 2013/11/27)

>  <Rbt.Parameter_File>
/export/apps/rDock/src/rDock_2013.1_src/data/scripts/dock_solv.prm

>  <Rbt.Receptor>
prm/blind_docking_20.prm

>  <SCORE>
37.0328

>  <SCORE.INTER>
7.90851

>  <SCORE.INTER.CONST>
1

>  <SCORE.INTER.POLAR>
0

>  <SCORE.INTER.ROT>
9

>  <SCORE.INTER.SOLV>
24.1492

>  <SCORE.INTER.VDW>
-12.3774

>  <SCORE.INTER.norm>
0.188298

>  <SCORE.INTRA>
-3.83038

>  <SCORE.INTRA.DIHEDRAL>
-14.0288

>  <SCORE.INTRA.DIHEDRAL.0>
27.8999

>  <SCORE.INTRA.POLAR>
0

>  <SCORE.INTRA.POLAR.0>
0

>  <SCORE.INTRA.REPUL>
0.00189949

>  <SCORE.INTRA.REPUL.0>
0

>  <SCORE.INTRA.SOLV>
-0.701689

>  <SCORE.INTRA.SOLV.lig_0>
-104.479

>  <SCORE.INTRA.VDW>
3.52536

>  <SCORE.INTRA.VDW.0>
-6.17816

>  <SCORE.INTRA.norm>
-0.0911996

>  <SCORE.RESTR>
32.9547

>  <SCORE.RESTR.CAVITY>
32.9547

>  <SCORE.RESTR.norm>
0.784636

>  <SCORE.SYSTEM>
0

>  <SCORE.SYSTEM.CONST>
0

>  <SCORE.SYSTEM.DIHEDRAL>
0

>  <SCORE.SYSTEM.SOLV>
0

>  <SCORE.SYSTEM.norm>
0

>  <SCORE.heavy>
42

>  <SCORE.norm>
0.881734

>  <RMSD>
15.826

$$$$
ligand
 OpenBabel02271912133D
libRbt.so/2013.1/901 2013/11/27
 42 45  0  0  0  0  0  0  0  0999 V2000
   -6.7319    2.7035   10.0077 C   0  0  2  0  0  0  0  0  0  0  0  0
   -7.0877    4.0564   10.3399 O   0  0  0  0  0  0  0  0  0  0  0  0
   -5.2680    6.0798    6.9650 C   0  0  2  0  0  0  0  0  0  0  0  0
   -4.9108    7.1036    5.9380 N   0  0  0  0  0  0  0  0  0  0  0  0
   -4.2361    6.1955   11.7205 C   0  0  1  0  0  0  0  0  0  0  0  0
   -1.8684    5.3847   13.3736 C   0  0  1  0  0  0  0  0  0  0  0  0
   -6.1966    2.0404   11.3122 C   0  0  2  0  0  0  0  0  0  0  0  0
   -7.1013    2.2390   12.4579 N   0  0  0  0  0  0  0  0  0  0  0  0
   -6.7777    5.6291    6.8252 C   0  0  0  0  0  0  0  0  0  0  0  0
   -3.0248    6.9780   11.1278 C   0  0  2  0  0  0  0  0  0  0  0  0
   -2.1373    6.1664   10.3199 O   0  0  0  0  0  0  0  0  0  0  0  0
   -2.3096    5.2804   14.8780 C   0  0  2  0  0  0  0  0  0  0  0  0
   -1.2090    5.7174   15.7882 N   0  0  0  0  0  0  0  0  0  0  0  0
   -4.8225    2.5965   11.7290 C   0  0  1  0  0  0  0  0  0  0  0  0
   -4.3534    1.9337   12.9043 O   0  0  0  0  0  0  0  0  0  0  0  0
   -7.0871    4.5360    7.9170 C   0  0  2  0  0  0  0  0  0  0  0  0
   -8.4981    4.0776    7.8049 N   0  0  0  0  0  0  0  0  0  0  0  0
   -2.4080    7.5741   12.3941 C   0  0  2  0  0  0  0  0  0  0  0  0
   -1.4054    6.6813   12.9759 O   0  0  0  0  0  0  0  0  0  0  0  0
   -2.7550    3.7744   15.1951 C   0  0  1  0  0  0  0  0  0  0  0  0
   -4.0383    3.5270   14.5781 O   0  0  0  0  0  0  0  0  0  0  0  0
   -3.8263    2.4406   10.5575 C   0  0  2  0  0  0  0  0  0  0  0  0
   -2.5586    2.9300   10.9289 O   0  0  0  0  0  0  0  0  0  0  0  0
   -6.8291    5.1082    9.3667 C   0  0  2  0  0  0  0  0  0  0  0  0
   -3.5768    7.8080   13.3660 C   0  0  2  0  0  0  0  0  0  0  0  0
   -4.4929    6.7712   13.0219 O   0  0  0  0  0  0  0  0  0  0  0  0
   -1.6941    2.6902   14.6787 C   0  0  2  0  0  0  0  0  0  0  0  0
   -0.5265    2.8092   15.4904 O   0  0  0  0  0  0  0  0  0  0  0  0
   -4.3756    3.2156    9.3136 C   0  0  2  0  0  0  0  0  0  0  0  0
   -5.6950    2.6965    8.9539 O   0  0  0  0  0  0  0  0  0  0  0  0
   -5.3853    5.6215    9.5598 C   0  0  2  0  0  0  0  0  0  0  0  0
   -5.3813    6.2700   10.8613 O   0  0  0  0  0  0  0  0  0  0  0  0
   -4.2510    9.2109   13.2591 C   0  0  0  0  0  0  0  0  0  0  0  0
   -3.2674   10.2219   13.4576 O   0  0  0  0  0  0  0  0  0  0  0  0
   -1.3343    2.9416   13.1656 C   0  0  1  0  0  0  0  0  0  0  0  0
   -0.8271    4.3226   13.0895 O   0  0  0  0  0  0  0  0  0  0  0  0
   -3.4629    3.1111    8.1137 C   0  0  0  0  0  0  0  0  0  0  0  0
   -3.2474    1.7603    7.7846 O   0  0  0  0  0  0  0  0  0  0  0  0
   -5.0124    6.6548    8.4157 C   0  0  1  0  0  0  0  0  0  0  0  0
   -3.6308    7.0136    8.5060 O   0  0  0  0  0  0  0  0  0  0  0  0
   -0.2587    1.9280   12.5787 C   0  0  0  0  0  0  0  0  0  0  0  0
    1.0764    1.9560   13.2370 N   0  0  0  0  0  0  0  0  0  0  0  0
  1  2  1  1  0  0  0
  1  7  1  0  0  0  0
  1 30  1  0  0  0  0
  3  4  1  6  0  0  0
  3  9  1  0  0  0  0
  3 39  1  0  0  0  0
  5 10  1  0  0  0  0
  5 26  1  0  0  0  0
  5 32  1  6  0  0  0
  6 12  1  0  0  0  0
  6 36  1  0  0  0  0
  6 19  1  1  0  0  0
  7  8  1  1  0  0  0
  7 14  1  0  0  0  0
  9 16  1  0  0  0  0
 10 11  1  1  0  0  0
 10 18  1  0  0  0  0
 12 13  1  1  0  0  0
 12 20  1  0  0  0  0
 14 15  1  1  0  0  0
 14 22  1  0  0  0  0
 16 17  1  1  0  0  0
 16 24  1  0  0  0  0
 18 19  1  1  0  0  0
 18 25  1  0  0  0  0
 20 21  1  6  0  0  0
 20 27  1  0  0  0  0
 22 23  1  1  0  0  0
 22 29  1  0  0  0  0
 24  2  1  1  0  0  0
 24 31  1  0  0  0  0
 25 26  1  0  0  0  0
 25 33  1  6  0  0  0
 27 28  1  1  0  0  0
 27 35  1  0  0  0  0
 29 30  1  0  0  0  0
 29 37  1  6  0  0  0
 31 32  1  1  0  0  0
 31 39  1  0  0  0  0
 33 34  1  0  0  0  0
 35 36  1  0  0  0  0
 35 41  1  1  0  0  0
 37 38  1  0  0  0  0
 39 40  1  6  0  0  0
 41 42  1  0  0  0  0
M  END
>  <CHROM.1>
142.52586959,36.40582678,-60.15917411,-93.16550373,-56.83819107,56.68316852
144.01256692,67.63783463,-61.55060833,-3.84862924,4.71240072,11.30799722
-3.14107576,-0.92853856,0.05137645

>  <Name>
ligand

>  <RI>
0

>  <Rbt.Current_Directory>
/home/itssahil/PROJECTS/Mol_Feturizer/Test_systems_manuscript/rnas/2o3w

>  <Rbt.Executable>
rbdock ($Id: //depot/dev/client3/rdock/2013.1/src/exe/rbdock.cxx#4 $)

>  <Rbt.Library>
libRbt.so (2013.1, Build901 2013/11/27)

>  <Rbt.Parameter_File>
/export/apps/rDock/src/rDock_2013.1_src/data/scripts/dock_solv.prm

>  <Rbt.Receptor>
prm/blind_docking_20.prm

>  <SCORE>
43.8535

>  <SCORE.INTER>
7.82626

>  <SCORE.INTER.CONST>
1

>  <SCORE.INTER.POLAR>
0

>  <SCORE.INTER.ROT>
9

>  <SCORE.INTER.SOLV>
25.9341

>  <SCORE.INTER.VDW>
-13.0272

>  <SCORE.INTER.norm>
0.18634

>  <SCORE.INTRA>
4.19858

>  <SCORE.INTRA.DIHEDRAL>
-11.1891

>  <SCORE.INTRA.DIHEDRAL.0>
27.8999

>  <SCORE.INTRA.POLAR>
0

>  <SCORE.INTRA.POLAR.0>
0

>  <SCORE.INTRA.REPUL>
0

>  <SCORE.INTRA.REPUL.0>
0

>  <SCORE.INTRA.SOLV>
2.51881

>  <SCORE.INTRA.SOLV.lig_0>
-104.479

>  <SCORE.INTRA.VDW>
8.53375

>  <SCORE.INTRA.VDW.0>
-6.17816

>  <SCORE.INTRA.norm>
0.0999663

>  <SCORE.RESTR>
31.8287

>  <SCORE.RESTR.CAVITY>
31.8287

>  <SCORE.RESTR.norm>
0.757825

>  <SCORE.SYSTEM>
0

>  <SCORE.SYSTEM.CONST>
0

>  <SCORE.SYSTEM.DIHEDRAL>
0

>  <SCORE.SYSTEM.SOLV>
0

>  <SCORE.SYSTEM.norm>
0

>  <SCORE.heavy>
42

>  <SCORE.norm>
1.04413

>  <RMSD>
15.847

$$$$
ligand
 OpenBabel02271912133D
libRbt.so/2013.1/901 2013/11/27
 42 45  0  0  0  0  0  0  0  0999 V2000
   -7.1433    5.1327   10.2321 C   0  0  2  0  0  0  0  0  0  0  0  0
   -6.2175    5.7201    9.3019 O   0  0  0  0  0  0  0  0  0  0  0  0
   -4.6766    2.0613    7.5598 C   0  0  2  0  0  0  0  0  0  0  0  0
   -3.9744    1.0903    6.6685 N   0  0  0  0  0  0  0  0  0  0  0  0
   -3.0188    5.5744   10.7163 C   0  0  1  0  0  0  0  0  0  0  0  0
   -1.9944    5.4163   13.4883 C   0  0  1  0  0  0  0  0  0  0  0  0
   -7.4896    6.2296   11.2833 C   0  0  2  0  0  0  0  0  0  0  0  0
   -7.8778    7.5064   10.6591 N   0  0  0  0  0  0  0  0  0  0  0  0
   -5.8395    2.8087    6.7911 C   0  0  0  0  0  0  0  0  0  0  0  0
   -1.6588    6.3353   10.7633 C   0  0  2  0  0  0  0  0  0  0  0  0
   -0.5044    5.4709   10.9022 O   0  0  0  0  0  0  0  0  0  0  0  0
   -2.2269    5.1235   15.0144 C   0  0  2  0  0  0  0  0  0  0  0  0
   -0.9803    5.3669   15.8003 N   0  0  0  0  0  0  0  0  0  0  0  0
   -6.3069    6.5344   12.2210 C   0  0  1  0  0  0  0  0  0  0  0  0
   -6.6809    7.5142   13.1910 O   0  0  0  0  0  0  0  0  0  0  0  0
   -6.5546    3.7993    7.7861 C   0  0  2  0  0  0  0  0  0  0  0  0
   -7.6660    4.5105    7.0986 N   0  0  0  0  0  0  0  0  0  0  0  0
   -1.9017    7.3067   11.9194 C   0  0  2  0  0  0  0  0  0  0  0  0
   -1.4969    6.7292   13.2014 O   0  0  0  0  0  0  0  0  0  0  0  0
   -2.7337    3.6140   15.1920 C   0  0  1  0  0  0  0  0  0  0  0  0
   -4.1056    3.5263   14.7459 O   0  0  0  0  0  0  0  0  0  0  0  0
   -5.8320    5.2264   12.8940 C   0  0  2  0  0  0  0  0  0  0  0  0
   -4.7600    5.4911   13.7687 O   0  0  0  0  0  0  0  0  0  0  0  0
   -5.5257    4.8522    8.3593 C   0  0  2  0  0  0  0  0  0  0  0  0
   -3.4070    7.6213   11.9004 C   0  0  2  0  0  0  0  0  0  0  0  0
   -3.9797    6.4198   11.3894 O   0  0  0  0  0  0  0  0  0  0  0  0
   -1.8389    2.5584   14.3842 C   0  0  2  0  0  0  0  0  0  0  0  0
   -0.5634    2.4979   15.0213 O   0  0  0  0  0  0  0  0  0  0  0  0
   -5.4029    4.2085   11.7853 C   0  0  2  0  0  0  0  0  0  0  0  0
   -6.5285    3.9576   10.8854 O   0  0  0  0  0  0  0  0  0  0  0  0
   -4.3290    4.1905    9.0771 C   0  0  2  0  0  0  0  0  0  0  0  0
   -3.4096    5.2786    9.3692 O   0  0  0  0  0  0  0  0  0  0  0  0
   -3.8115    8.8507   11.0290 C   0  0  0  0  0  0  0  0  0  0  0  0
   -3.5263    8.5723    9.6615 O   0  0  0  0  0  0  0  0  0  0  0  0
   -1.6770    3.0021   12.8811 C   0  0  1  0  0  0  0  0  0  0  0  0
   -1.0847    4.3505   12.9140 O   0  0  0  0  0  0  0  0  0  0  0  0
   -4.9282    2.8924   12.3566 C   0  0  0  0  0  0  0  0  0  0  0  0
   -4.1412    2.2092   11.4115 O   0  0  0  0  0  0  0  0  0  0  0  0
   -3.6464    3.1166    8.1304 C   0  0  1  0  0  0  0  0  0  0  0  0
   -2.6371    2.3987    8.8457 O   0  0  0  0  0  0  0  0  0  0  0  0
   -0.7723    2.0254   12.0114 C   0  0  0  0  0  0  0  0  0  0  0  0
   -1.3928    0.7188   11.6590 N   0  0  0  0  0  0  0  0  0  0  0  0
  1  2  1  6  0  0  0
  1  7  1  0  0  0  0
  1 30  1  0  0  0  0
  3  4  1  6  0  0  0
  3  9  1  0  0  0  0
  3 39  1  0  0  0  0
  5 10  1  0  0  0  0
  5 26  1  0  0  0  0
  5 32  1  6  0  0  0
  6 12  1  0  0  0  0
  6 36  1  0  0  0  0
  6 19  1  1  0  0  0
  7  8  1  6  0  0  0
  7 14  1  0  0  0  0
  9 16  1  0  0  0  0
 10 11  1  1  0  0  0
 10 18  1  0  0  0  0
 12 13  1  1  0  0  0
 12 20  1  0  0  0  0
 14 15  1  1  0  0  0
 14 22  1  0  0  0  0
 16 17  1  6  0  0  0
 16 24  1  0  0  0  0
 18 19  1  1  0  0  0
 18 25  1  0  0  0  0
 20 21  1  6  0  0  0
 20 27  1  0  0  0  0
 22 23  1  1  0  0  0
 22 29  1  0  0  0  0
 24  2  1  1  0  0  0
 24 31  1  0  0  0  0
 25 26  1  0  0  0  0
 25 33  1  6  0  0  0
 27 28  1  1  0  0  0
 27 35  1  0  0  0  0
 29 30  1  0  0  0  0
 29 37  1  1  0  0  0
 31 32  1  6  0  0  0
 31 39  1  0  0  0  0
 33 34  1  0  0  0  0
 35 36  1  0  0  0  0
 35 41  1  6  0  0  0
 37 38  1  0  0  0  0
 39 40  1  1  0  0  0
 41 42  1  0  0  0  0
M  END
>  <CHROM.1>
168.41632515,42.45217560,-49.89848454,-149.07112116,64.87223929,-159.66850515
120.87224283,156.97712853,73.08030930,-3.88841437,4.71969342,11.31208068
2.56413316,0.74750913,-2.36173611

>  <Name>
ligand

>  <RI>
0

>  <Rbt.Current_Directory>
/home/itssahil/PROJECTS/Mol_Feturizer/Test_systems_manuscript/rnas/2o3w

>  <Rbt.Executable>
rbdock ($Id: //depot/dev/client3/rdock/2013.1/src/exe/rbdock.cxx#4 $)

>  <Rbt.Library>
libRbt.so (2013.1, Build901 2013/11/27)

>  <Rbt.Parameter_File>
/export/apps/rDock/src/rDock_2013.1_src/data/scripts/dock_solv.prm

>  <Rbt.Receptor>
prm/blind_docking_20.prm

>  <SCORE>
39.9255

>  <SCORE.INTER>
8.71698

>  <SCORE.INTER.CONST>
1

>  <SCORE.INTER.POLAR>
0

>  <SCORE.INTER.ROT>
9

>  <SCORE.INTER.SOLV>
22.5287

>  <SCORE.INTER.VDW>
-11.2983

>  <SCORE.INTER.norm>
0.207547

>  <SCORE.INTRA>
3.83432

>  <SCORE.INTRA.DIHEDRAL>
-9.95395

>  <SCORE.INTRA.DIHEDRAL.0>
27.8999

>  <SCORE.INTRA.POLAR>
0

>  <SCORE.INTRA.POLAR.0>
0

>  <SCORE.INTRA.REPUL>
0

>  <SCORE.INTRA.REPUL.0>
0

>  <SCORE.INTRA.SOLV>
4.13437

>  <SCORE.INTRA.SOLV.lig_0>
-104.479

>  <SCORE.INTRA.VDW>
6.74412

>  <SCORE.INTRA.VDW.0>
-6.17816

>  <SCORE.INTRA.norm>
0.0912934

>  <SCORE.RESTR>
27.3742

>  <SCORE.RESTR.CAVITY>
27.3742

>  <SCORE.RESTR.norm>
0.651767

>  <SCORE.SYSTEM>
0

>  <SCORE.SYSTEM.CONST>
0

>  <SCORE.SYSTEM.DIHEDRAL>
0

>  <SCORE.SYSTEM.SOLV>
0

>  <SCORE.SYSTEM.norm>
0

>  <SCORE.heavy>
42

>  <SCORE.norm>
0.950607

>  <RMSD>
15.879

$$$$
ligand
 OpenBabel02271912133D
libRbt.so/2013.1/901 2013/11/27
 42 45  0  0  0  0  0  0  0  0999 V2000
   -4.3449    3.5574   12.0261 C   0  0  2  0  0  0  0  0  0  0  0  0
   -3.8380    3.4280   10.6868 O   0  0  0  0  0  0  0  0  0  0  0  0
   -5.0104    4.3827    6.6236 C   0  0  2  0  0  0  0  0  0  0  0  0
   -5.8096    4.7642    5.4210 N   0  0  0  0  0  0  0  0  0  0  0  0
   -3.7925    6.1991   11.2744 C   0  0  1  0  0  0  0  0  0  0  0  0
   -1.9509    5.6368   13.5223 C   0  0  1  0  0  0  0  0  0  0  0  0
   -4.9337    2.1712   12.4258 C   0  0  2  0  0  0  0  0  0  0  0  0
   -3.9983    1.0640   12.1616 N   0  0  0  0  0  0  0  0  0  0  0  0
   -5.5022    3.0055    7.2263 C   0  0  0  0  0  0  0  0  0  0  0  0
   -2.4336    6.8948   10.9580 C   0  0  2  0  0  0  0  0  0  0  0  0
   -1.3680    5.9764   10.6115 O   0  0  0  0  0  0  0  0  0  0  0  0
   -2.2791    5.3747   15.0364 C   0  0  2  0  0  0  0  0  0  0  0  0
   -1.0949    5.6691   15.8976 N   0  0  0  0  0  0  0  0  0  0  0  0
   -6.2327    1.8468   11.6653 C   0  0  1  0  0  0  0  0  0  0  0  0
   -6.7572    0.5881   12.0911 O   0  0  0  0  0  0  0  0  0  0  0  0
   -4.6097    2.6470    8.4743 C   0  0  2  0  0  0  0  0  0  0  0  0
   -5.0362    1.3470    9.0590 N   0  0  0  0  0  0  0  0  0  0  0  0
   -2.2149    7.7126   12.2319 C   0  0  2  0  0  0  0  0  0  0  0  0
   -1.4673    6.9551   13.2359 O   0  0  0  0  0  0  0  0  0  0  0  0
   -2.7598    3.8572   15.2181 C   0  0  1  0  0  0  0  0  0  0  0  0
   -4.0958    3.7231   14.6833 O   0  0  0  0  0  0  0  0  0  0  0  0
   -7.2547    2.9862   11.8811 C   0  0  2  0  0  0  0  0  0  0  0  0
   -8.4560    2.6964   11.2048 O   0  0  0  0  0  0  0  0  0  0  0  0
   -4.7064    3.7791    9.5719 C   0  0  2  0  0  0  0  0  0  0  0  0
   -3.6168    8.0840   12.7438 C   0  0  2  0  0  0  0  0  0  0  0  0
   -4.4164    6.9836   12.3167 O   0  0  0  0  0  0  0  0  0  0  0  0
   -1.7869    2.8062   14.4995 C   0  0  2  0  0  0  0  0  0  0  0  0
   -0.5565    2.7942   15.2221 O   0  0  0  0  0  0  0  0  0  0  0  0
   -6.6390    4.3290   11.3641 C   0  0  2  0  0  0  0  0  0  0  0  0
   -5.3895    4.6027   12.0738 O   0  0  0  0  0  0  0  0  0  0  0  0
   -4.2938    5.1682    9.0374 C   0  0  2  0  0  0  0  0  0  0  0  0
   -4.6170    6.1000   10.1059 O   0  0  0  0  0  0  0  0  0  0  0  0
   -4.1807    9.4326   12.1986 C   0  0  0  0  0  0  0  0  0  0  0  0
   -3.2531   10.4772   12.4767 O   0  0  0  0  0  0  0  0  0  0  0  0
   -1.5345    3.2179   12.9998 C   0  0  1  0  0  0  0  0  0  0  0  0
   -0.9788    4.5817   13.0378 O   0  0  0  0  0  0  0  0  0  0  0  0
   -7.5727    5.5038   11.5429 C   0  0  0  0  0  0  0  0  0  0  0  0
   -7.1917    6.5595   10.6947 O   0  0  0  0  0  0  0  0  0  0  0  0
   -5.1104    5.5152    7.7227 C   0  0  1  0  0  0  0  0  0  0  0  0
   -4.6224    6.7290    7.1447 O   0  0  0  0  0  0  0  0  0  0  0  0
   -0.5495    2.2446   12.2181 C   0  0  0  0  0  0  0  0  0  0  0  0
   -1.2046    1.2481   11.3268 N   0  0  0  0  0  0  0  0  0  0  0  0
  1  2  1  6  0  0  0
  1  7  1  0  0  0  0
  1 30  1  0  0  0  0
  3  4  1  6  0  0  0
  3  9  1  0  0  0  0
  3 39  1  0  0  0  0
  5 10  1  0  0  0  0
  5 26  1  0  0  0  0
  5 32  1  6  0  0  0
  6 12  1  0  0  0  0
  6 36  1  0  0  0  0
  6 19  1  1  0  0  0
  7  8  1  6  0  0  0
  7 14  1  0  0  0  0
  9 16  1  0  0  0  0
 10 11  1  1  0  0  0
 10 18  1  0  0  0  0
 12 13  1  1  0  0  0
 12 20  1  0  0  0  0
 14 15  1  1  0  0  0
 14 22  1  0  0  0  0
 16 17  1  1  0  0  0
 16 24  1  0  0  0  0
 18 19  1  1  0  0  0
 18 25  1  0  0  0  0
 20 21  1  6  0  0  0
 20 27  1  0  0  0  0
 22 23  1  6  0  0  0
 22 29  1  0  0  0  0
 24  2  1  1  0  0  0
 24 31  1  0  0  0  0
 25 26  1  0  0  0  0
 25 33  1  6  0  0  0
 27 28  1  1  0  0  0
 27 35  1  0  0  0  0
 29 30  1  0  0  0  0
 29 37  1  1  0  0  0
 31 32  1  1  0  0  0
 31 39  1  0  0  0  0
 33 34  1  0  0  0  0
 35 36  1  0  0  0  0
 35 41  1  1  0  0  0
 37 38  1  0  0  0  0
 39 40  1  6  0  0  0
 41 42  1  0  0  0  0
M  END
>  <CHROM.1>
93.08200563,-134.15171948,-50.05964703,-124.07777408,-54.99892063,-160.53625286
75.88373326,72.03031927,100.40083236,-3.99161450,4.61497868,11.48846876,3.10204326
-0.92489532,-0.29640314

>  <Name>
ligand

>  <RI>
0

>  <Rbt.Current_Directory>
/home/itssahil/PROJECTS/Mol_Feturizer/Test_systems_manuscript/rnas/2o3w

>  <Rbt.Executable>
rbdock ($Id: //depot/dev/client3/rdock/2013.1/src/exe/rbdock.cxx#4 $)

>  <Rbt.Library>
libRbt.so (2013.1, Build901 2013/11/27)

>  <Rbt.Parameter_File>
/export/apps/rDock/src/rDock_2013.1_src/data/scripts/dock_solv.prm

>  <Rbt.Receptor>
prm/blind_docking_20.prm

>  <SCORE>
45.9393

>  <SCORE.INTER>
6.98134

>  <SCORE.INTER.CONST>
1

>  <SCORE.INTER.POLAR>
0

>  <SCORE.INTER.ROT>
9

>  <SCORE.INTER.SOLV>
23.6299

>  <SCORE.INTER.VDW>
-12.8224

>  <SCORE.INTER.norm>
0.166222

>  <SCORE.INTRA>
8.64018

>  <SCORE.INTRA.DIHEDRAL>
-2.67673

>  <SCORE.INTRA.DIHEDRAL.0>
27.8999

>  <SCORE.INTRA.POLAR>
0

>  <SCORE.INTRA.POLAR.0>
0

>  <SCORE.INTRA.REPUL>
0

>  <SCORE.INTRA.REPUL.0>
0

>  <SCORE.INTRA.SOLV>
7.78676

>  <SCORE.INTRA.SOLV.lig_0>
-104.479

>  <SCORE.INTRA.VDW>
6.08517

>  <SCORE.INTRA.VDW.0>
-6.17816

>  <SCORE.INTRA.norm>
0.205719

>  <SCORE.RESTR>
30.3178

>  <SCORE.RESTR.CAVITY>
30.3178

>  <SCORE.RESTR.norm>
0.721852

>  <SCORE.SYSTEM>
0

>  <SCORE.SYSTEM.CONST>
0

>  <SCORE.SYSTEM.DIHEDRAL>
0

>  <SCORE.SYSTEM.SOLV>
0

>  <SCORE.SYSTEM.norm>
0

>  <SCORE.heavy>
42

>  <SCORE.norm>
1.09379

>  <RMSD>
15.928

$$$$
ligand
 OpenBabel02271912133D
libRbt.so/2013.1/901 2013/11/27
 42 45  0  0  0  0  0  0  0  0999 V2000
   -4.4993    4.4307    8.7516 C   0  0  2  0  0  0  0  0  0  0  0  0
   -5.8767    4.0788    8.9667 O   0  0  0  0  0  0  0  0  0  0  0  0
   -8.8934    4.9223   11.9641 C   0  0  2  0  0  0  0  0  0  0  0  0
   -9.5790    5.1832   13.2650 N   0  0  0  0  0  0  0  0  0  0  0  0
   -4.5686    6.1823   11.0296 C   0  0  1  0  0  0  0  0  0  0  0  0
   -1.9134    5.1861   13.2176 C   0  0  1  0  0  0  0  0  0  0  0  0
   -4.2525    4.3837    7.2137 C   0  0  2  0  0  0  0  0  0  0  0  0
   -5.2681    5.1359    6.4565 N   0  0  0  0  0  0  0  0  0  0  0  0
   -8.2965    3.4584   11.9134 C   0  0  0  0  0  0  0  0  0  0  0  0
   -3.3701    7.1189   10.6871 C   0  0  2  0  0  0  0  0  0  0  0  0
   -2.5524    6.6510    9.5864 O   0  0  0  0  0  0  0  0  0  0  0  0
   -0.6486    4.3751   13.6772 C   0  0  2  0  0  0  0  0  0  0  0  0
    0.0144    3.7155   12.5126 N   0  0  0  0  0  0  0  0  0  0  0  0
   -4.2627    2.9454    6.6640 C   0  0  1  0  0  0  0  0  0  0  0  0
   -3.9937    2.9473    5.2609 O   0  0  0  0  0  0  0  0  0  0  0  0
   -7.6082    3.2362   10.5136 C   0  0  2  0  0  0  0  0  0  0  0  0
   -7.0471    1.8611   10.4254 N   0  0  0  0  0  0  0  0  0  0  0  0
   -2.6672    7.2096   12.0425 C   0  0  2  0  0  0  0  0  0  0  0  0
   -1.6598    6.1599   12.1973 O   0  0  0  0  0  0  0  0  0  0  0  0
   -1.0839    3.2960   14.7785 C   0  0  1  0  0  0  0  0  0  0  0  0
   -1.3613    3.9815   16.0203 O   0  0  0  0  0  0  0  0  0  0  0  0
   -3.2310    2.0912    7.4354 C   0  0  2  0  0  0  0  0  0  0  0  0
   -3.2161    0.7754    6.9327 O   0  0  0  0  0  0  0  0  0  0  0  0
   -6.4574    4.2941   10.2846 C   0  0  2  0  0  0  0  0  0  0  0  0
   -3.7731    7.0815   13.1036 C   0  0  2  0  0  0  0  0  0  0  0  0
   -4.7361    6.2468   12.4645 O   0  0  0  0  0  0  0  0  0  0  0  0
   -2.3668    2.4421   14.3396 C   0  0  2  0  0  0  0  0  0  0  0  0
   -1.9716    1.5931   13.2629 O   0  0  0  0  0  0  0  0  0  0  0  0
   -3.5982    2.0979    8.9568 C   0  0  2  0  0  0  0  0  0  0  0  0
   -3.6165    3.4741    9.4524 O   0  0  0  0  0  0  0  0  0  0  0  0
   -6.9575    5.7524   10.3765 C   0  0  2  0  0  0  0  0  0  0  0  0
   -5.7571    6.5716   10.3289 O   0  0  0  0  0  0  0  0  0  0  0  0
   -4.4118    8.4315   13.5548 C   0  0  0  0  0  0  0  0  0  0  0  0
   -3.3863    9.4071   13.7141 O   0  0  0  0  0  0  0  0  0  0  0  0
   -3.5375    3.3925   13.8833 C   0  0  1  0  0  0  0  0  0  0  0  0
   -2.9936    4.2153   12.7890 O   0  0  0  0  0  0  0  0  0  0  0  0
   -2.6331    1.2882    9.7915 C   0  0  0  0  0  0  0  0  0  0  0  0
   -3.0882    1.2106   11.1204 O   0  0  0  0  0  0  0  0  0  0  0  0
   -7.7397    5.9797   11.7375 C   0  0  1  0  0  0  0  0  0  0  0  0
   -8.3312    7.2818   11.7550 O   0  0  0  0  0  0  0  0  0  0  0  0
   -4.8427    2.6250   13.3974 C   0  0  0  0  0  0  0  0  0  0  0  0
   -5.8486    3.4577   12.6823 N   0  0  0  0  0  0  0  0  0  0  0  0
  1  2  1  6  0  0  0
  1  7  1  0  0  0  0
  1 30  1  0  0  0  0
  3  4  1  1  0  0  0
  3  9  1  0  0  0  0
  3 39  1  0  0  0  0
  5 10  1  0  0  0  0
  5 26  1  0  0  0  0
  5 32  1  6  0  0  0
  6 12  1  0  0  0  0
  6 36  1  0  0  0  0
  6 19  1  6  0  0  0
  7  8  1  6  0  0  0
  7 14  1  0  0  0  0
  9 16  1  0  0  0  0
 10 11  1  6  0  0  0
 10 18  1  0  0  0  0
 12 13  1  6  0  0  0
 12 20  1  0  0  0  0
 14 15  1  6  0  0  0
 14 22  1  0  0  0  0
 16 17  1  1  0  0  0
 16 24  1  0  0  0  0
 18 19  1  1  0  0  0
 18 25  1  0  0  0  0
 20 21  1  1  0  0  0
 20 27  1  0  0  0  0
 22 23  1  6  0  0  0
 22 29  1  0  0  0  0
 24  2  1  6  0  0  0
 24 31  1  0  0  0  0
 25 26  1  0  0  0  0
 25 33  1  6  0  0  0
 27 28  1  6  0  0  0
 27 35  1  0  0  0  0
 29 30  1  0  0  0  0
 29 37  1  1  0  0  0
 31 32  1  1  0  0  0
 31 39  1  0  0  0  0
 33 34  1  0  0  0  0
 35 36  1  0  0  0  0
 35 41  1  6  0  0  0
 37 38  1  0  0  0  0
 39 40  1  6  0  0  0
 41 42  1  0  0  0  0
M  END
>  <CHROM.1>
-168.08160364,-151.34902758,-114.57616238,-161.07817221,-41.90533367,-173.73898546
-40.23914551,172.94080285,-167.01630614,-4.30506651,4.43734942,11.14945628
-1.94413684,-0.47113473,1.02454571

>  <Name>
ligand

>  <RI>
0

>  <Rbt.Current_Directory>
/home/itssahil/PROJECTS/Mol_Feturizer/Test_systems_manuscript/rnas/2o3w

>  <Rbt.Executable>
rbdock ($Id: //depot/dev/client3/rdock/2013.1/src/exe/rbdock.cxx#4 $)

>  <Rbt.Library>
libRbt.so (2013.1, Build901 2013/11/27)

>  <Rbt.Parameter_File>
/export/apps/rDock/src/rDock_2013.1_src/data/scripts/dock_solv.prm

>  <Rbt.Receptor>
prm/blind_docking_20.prm

>  <SCORE>
59.9189

>  <SCORE.INTER>
18.4879

>  <SCORE.INTER.CONST>
1

>  <SCORE.INTER.POLAR>
0

>  <SCORE.INTER.ROT>
9

>  <SCORE.INTER.SOLV>
19.8708

>  <SCORE.INTER.VDW>
-3.89837

>  <SCORE.INTER.norm>
0.440187

>  <SCORE.INTRA>
9.92533

>  <SCORE.INTRA.DIHEDRAL>
-11.3181

>  <SCORE.INTRA.DIHEDRAL.0>
27.8999

>  <SCORE.INTRA.POLAR>
0

>  <SCORE.INTRA.POLAR.0>
0

>  <SCORE.INTRA.REPUL>
1.11969

>  <SCORE.INTRA.REPUL.0>
0

>  <SCORE.INTRA.SOLV>
8.10516

>  <SCORE.INTRA.SOLV.lig_0>
-104.479

>  <SCORE.INTRA.VDW>
5.93334

>  <SCORE.INTRA.VDW.0>
-6.17816

>  <SCORE.INTRA.norm>
0.236317

>  <SCORE.RESTR>
31.5057

>  <SCORE.RESTR.CAVITY>
31.5057

>  <SCORE.RESTR.norm>
0.750135

>  <SCORE.SYSTEM>
0

>  <SCORE.SYSTEM.CONST>
0

>  <SCORE.SYSTEM.DIHEDRAL>
0

>  <SCORE.SYSTEM.SOLV>
0

>  <SCORE.SYSTEM.norm>
0

>  <SCORE.heavy>
42

>  <SCORE.norm>
1.42664

>  <RMSD>
15.929

$$$$
ligand
 OpenBabel02271912133D
libRbt.so/2013.1/901 2013/11/27
 42 45  0  0  0  0  0  0  0  0999 V2000
   -3.6571    4.6410   14.4814 C   0  0  2  0  0  0  0  0  0  0  0  0
   -3.4573    4.9198   13.0851 O   0  0  0  0  0  0  0  0  0  0  0  0
   -4.2048    9.1900   13.0303 C   0  0  2  0  0  0  0  0  0  0  0  0
   -4.6086   10.5628   12.6030 N   0  0  0  0  0  0  0  0  0  0  0  0
   -6.1578    5.1027   11.7740 C   0  0  1  0  0  0  0  0  0  0  0  0
   -5.7750    3.6756    8.6275 C   0  0  1  0  0  0  0  0  0  0  0  0
   -2.2748    4.8078   15.1811 C   0  0  2  0  0  0  0  0  0  0  0  0
   -1.6168    6.0794   14.8336 N   0  0  0  0  0  0  0  0  0  0  0  0
   -3.0139    8.6406   12.1461 C   0  0  0  0  0  0  0  0  0  0  0  0
   -7.5989    4.6745   11.3609 C   0  0  2  0  0  0  0  0  0  0  0  0
   -7.9702    3.3473   11.8078 O   0  0  0  0  0  0  0  0  0  0  0  0
   -5.3723    2.3868    7.8241 C   0  0  2  0  0  0  0  0  0  0  0  0
   -5.5581    1.1600    8.6556 N   0  0  0  0  0  0  0  0  0  0  0  0
   -1.2920    3.6823   14.8091 C   0  0  1  0  0  0  0  0  0  0  0  0
   -0.0546    3.8532   15.5024 O   0  0  0  0  0  0  0  0  0  0  0  0
   -2.6192    7.2036   12.6576 C   0  0  2  0  0  0  0  0  0  0  0  0
   -1.4895    6.6611   11.8557 N   0  0  0  0  0  0  0  0  0  0  0  0
   -7.5443    4.8717    9.8452 C   0  0  2  0  0  0  0  0  0  0  0  0
   -7.1053    3.6558    9.1598 O   0  0  0  0  0  0  0  0  0  0  0  0
   -3.8538    2.5236    7.3316 C   0  0  1  0  0  0  0  0  0  0  0  0
   -3.7986    3.4776    6.2473 O   0  0  0  0  0  0  0  0  0  0  0  0
   -1.9327    2.3122   15.1275 C   0  0  2  0  0  0  0  0  0  0  0  0
   -1.0387    1.2714   14.8081 O   0  0  0  0  0  0  0  0  0  0  0  0
   -3.8534    6.2216   12.5668 C   0  0  2  0  0  0  0  0  0  0  0  0
   -6.5646    6.0323    9.6031 C   0  0  2  0  0  0  0  0  0  0  0  0
   -5.6480    5.9104   10.6882 O   0  0  0  0  0  0  0  0  0  0  0  0
   -2.8597    2.9834    8.5011 C   0  0  2  0  0  0  0  0  0  0  0  0
   -2.7532    1.9020    9.4261 O   0  0  0  0  0  0  0  0  0  0  0  0
   -3.2619    2.1687   14.3137 C   0  0  2  0  0  0  0  0  0  0  0  0
   -4.1685    3.2647   14.6552 O   0  0  0  0  0  0  0  0  0  0  0  0
   -5.0778    6.7234   13.3632 C   0  0  2  0  0  0  0  0  0  0  0  0
   -6.1566    5.8105   13.0206 O   0  0  0  0  0  0  0  0  0  0  0  0
   -7.2169    7.4494    9.5760 C   0  0  0  0  0  0  0  0  0  0  0  0
   -6.2541    8.4021    9.1353 O   0  0  0  0  0  0  0  0  0  0  0  0
   -3.4112    4.2688    9.2262 C   0  0  1  0  0  0  0  0  0  0  0  0
   -4.7538    3.9160    9.7195 O   0  0  0  0  0  0  0  0  0  0  0  0
   -3.9619    0.8543   14.5704 C   0  0  0  0  0  0  0  0  0  0  0  0
   -4.4201    0.8004   15.8995 O   0  0  0  0  0  0  0  0  0  0  0  0
   -5.4401    8.2073   12.9360 C   0  0  1  0  0  0  0  0  0  0  0  0
   -6.4746    8.7244   13.7773 O   0  0  0  0  0  0  0  0  0  0  0  0
   -2.5003    4.7762   10.4268 C   0  0  0  0  0  0  0  0  0  0  0  0
   -1.1379    5.2413   10.0472 N   0  0  0  0  0  0  0  0  0  0  0  0
  1  2  1  6  0  0  0
  1  7  1  0  0  0  0
  1 30  1  0  0  0  0
  3  4  1  6  0  0  0
  3  9  1  0  0  0  0
  3 39  1  0  0  0  0
  5 10  1  0  0  0  0
  5 26  1  0  0  0  0
  5 32  1  1  0  0  0
  6 12  1  0  0  0  0
  6 36  1  0  0  0  0
  6 19  1  1  0  0  0
  7  8  1  6  0  0  0
  7 14  1  0  0  0  0
  9 16  1  0  0  0  0
 10 11  1  6  0  0  0
 10 18  1  0  0  0  0
 12 13  1  1  0  0  0
 12 20  1  0  0  0  0
 14 15  1  1  0  0  0
 14 22  1  0  0  0  0
 16 17  1  6  0  0  0
 16 24  1  0  0  0  0
 18 19  1  6  0  0  0
 18 25  1  0  0  0  0
 20 21  1  6  0  0  0
 20 27  1  0  0  0  0
 22 23  1  6  0  0  0
 22 29  1  0  0  0  0
 24  2  1  1  0  0  0
 24 31  1  0  0  0  0
 25 26  1  0  0  0  0
 25 33  1  1  0  0  0
 27 28  1  1  0  0  0
 27 35  1  0  0  0  0
 29 30  1  0  0  0  0
 29 37  1  1  0  0  0
 31 32  1  6  0  0  0
 31 39  1  0  0  0  0
 33 34  1  0  0  0  0
 35 36  1  0  0  0  0
 35 41  1  1  0  0  0
 37 38  1  0  0  0  0
 39 40  1  1  0  0  0
 41 42  1  0  0  0  0
M  END
>  <CHROM.1>
-101.34455655,91.24066498,-106.77409249,-176.44599917,-170.75928751,66.62903742
-25.92536161,-156.57805778,64.21185911,-4.24801533,4.79056519,11.77581479
0.31774569,-1.01295458,0.57989824

>  <Name>
ligand

>  <RI>
0

>  <Rbt.Current_Directory>
/home/itssahil/PROJECTS/Mol_Feturizer/Test_systems_manuscript/rnas/2o3w

>  <Rbt.Executable>
rbdock ($Id: //depot/dev/client3/rdock/2013.1/src/exe/rbdock.cxx#4 $)

>  <Rbt.Library>
libRbt.so (2013.1, Build901 2013/11/27)

>  <Rbt.Parameter_File>
/export/apps/rDock/src/rDock_2013.1_src/data/scripts/dock_solv.prm

>  <Rbt.Receptor>
prm/blind_docking_20.prm

>  <SCORE>
57.5246

>  <SCORE.INTER>
7.39166

>  <SCORE.INTER.CONST>
1

>  <SCORE.INTER.POLAR>
0

>  <SCORE.INTER.ROT>
9

>  <SCORE.INTER.SOLV>
27.4829

>  <SCORE.INTER.VDW>
-13.8332

>  <SCORE.INTER.norm>
0.175992

>  <SCORE.INTRA>
14.7615

>  <SCORE.INTRA.DIHEDRAL>
-4.67001

>  <SCORE.INTRA.DIHEDRAL.0>
27.8999

>  <SCORE.INTRA.POLAR>
0

>  <SCORE.INTRA.POLAR.0>
0

>  <SCORE.INTRA.REPUL>
0.106593

>  <SCORE.INTRA.REPUL.0>
0

>  <SCORE.INTRA.SOLV>
5.91308

>  <SCORE.INTRA.SOLV.lig_0>
-104.479

>  <SCORE.INTRA.VDW>
13.607

>  <SCORE.INTRA.VDW.0>
-6.17816

>  <SCORE.INTRA.norm>
0.351465

>  <SCORE.RESTR>
35.3714

>  <SCORE.RESTR.CAVITY>
35.3714

>  <SCORE.RESTR.norm>
0.842176

>  <SCORE.SYSTEM>
0

>  <SCORE.SYSTEM.CONST>
0

>  <SCORE.SYSTEM.DIHEDRAL>
0

>  <SCORE.SYSTEM.SOLV>
0

>  <SCORE.SYSTEM.norm>
0

>  <SCORE.heavy>
42

>  <SCORE.norm>
1.36963

>  <RMSD>
15.951

$$$$
ligand
 OpenBabel02271912133D
libRbt.so/2013.1/901 2013/11/27
 42 45  0  0  0  0  0  0  0  0999 V2000
   -3.6571    4.7448   14.2802 C   0  0  2  0  0  0  0  0  0  0  0  0
   -3.3257    4.9144   12.8914 O   0  0  0  0  0  0  0  0  0  0  0  0
   -3.0058    9.2166   12.4612 C   0  0  2  0  0  0  0  0  0  0  0  0
   -3.1283   10.6122   11.9439 N   0  0  0  0  0  0  0  0  0  0  0  0
   -6.0473    5.6183   12.0177 C   0  0  1  0  0  0  0  0  0  0  0  0
   -5.6318    3.3940    9.9990 C   0  0  1  0  0  0  0  0  0  0  0  0
   -2.3426    4.9534   15.0905 C   0  0  2  0  0  0  0  0  0  0  0  0
   -1.6362    6.1893   14.7106 N   0  0  0  0  0  0  0  0  0  0  0  0
   -2.1523    8.3143   11.4819 C   0  0  0  0  0  0  0  0  0  0  0  0
   -6.3282    4.1587   12.4883 C   0  0  2  0  0  0  0  0  0  0  0  0
   -5.1691    3.2908   12.4408 O   0  0  0  0  0  0  0  0  0  0  0  0
   -5.3996    4.5175    8.9253 C   0  0  2  0  0  0  0  0  0  0  0  0
   -6.1689    4.2303    7.6777 N   0  0  0  0  0  0  0  0  0  0  0  0
   -1.3469    3.7948   14.8972 C   0  0  1  0  0  0  0  0  0  0  0  0
   -0.1760    4.0081   15.6873 O   0  0  0  0  0  0  0  0  0  0  0  0
   -2.0399    6.8654   12.0905 C   0  0  2  0  0  0  0  0  0  0  0  0
   -1.2293    5.9915   11.2001 N   0  0  0  0  0  0  0  0  0  0  0  0
   -7.4864    3.7679   11.5689 C   0  0  2  0  0  0  0  0  0  0  0  0
   -7.0064    3.1582   10.3285 O   0  0  0  0  0  0  0  0  0  0  0  0
   -3.8317    4.6403    8.6193 C   0  0  1  0  0  0  0  0  0  0  0  0
   -3.1853    5.2807    9.7422 O   0  0  0  0  0  0  0  0  0  0  0  0
   -2.0350    2.4583   15.2571 C   0  0  2  0  0  0  0  0  0  0  0  0
   -1.1313    1.3889   15.1014 O   0  0  0  0  0  0  0  0  0  0  0  0
   -3.4736    6.2330   12.2916 C   0  0  2  0  0  0  0  0  0  0  0  0
   -8.2621    5.0659   11.2881 C   0  0  2  0  0  0  0  0  0  0  0  0
   -7.2470    6.0653   11.3453 O   0  0  0  0  0  0  0  0  0  0  0  0
   -3.1397    3.2224    8.3396 C   0  0  2  0  0  0  0  0  0  0  0  0
   -3.6285    2.7439    7.0872 O   0  0  0  0  0  0  0  0  0  0  0  0
   -3.2858    2.2639   14.3367 C   0  0  2  0  0  0  0  0  0  0  0  0
   -4.2032    3.3902   14.5091 O   0  0  0  0  0  0  0  0  0  0  0  0
   -4.3856    7.0918   13.1950 C   0  0  2  0  0  0  0  0  0  0  0  0
   -5.6966    6.4673   13.1182 O   0  0  0  0  0  0  0  0  0  0  0  0
   -9.4125    5.3762   12.2953 C   0  0  0  0  0  0  0  0  0  0  0  0
   -8.8752    6.0472   13.4311 O   0  0  0  0  0  0  0  0  0  0  0  0
   -3.4853    2.1993    9.4867 C   0  0  1  0  0  0  0  0  0  0  0  0
   -4.9555    2.1208    9.5358 O   0  0  0  0  0  0  0  0  0  0  0  0
   -4.0263    0.9787   14.6258 C   0  0  0  0  0  0  0  0  0  0  0  0
   -3.1166   -0.0867   14.7544 O   0  0  0  0  0  0  0  0  0  0  0  0
   -4.4413    8.5836   12.6591 C   0  0  1  0  0  0  0  0  0  0  0  0
   -5.1606    9.4112   13.5774 O   0  0  0  0  0  0  0  0  0  0  0  0
   -2.8645    0.7512    9.2716 C   0  0  0  0  0  0  0  0  0  0  0  0
   -2.9121    0.2327    7.8768 N   0  0  0  0  0  0  0  0  0  0  0  0
  1  2  1  6  0  0  0
  1  7  1  0  0  0  0
  1 30  1  0  0  0  0
  3  4  1  6  0  0  0
  3  9  1  0  0  0  0
  3 39  1  0  0  0  0
  5 10  1  0  0  0  0
  5 26  1  0  0  0  0
  5 32  1  1  0  0  0
  6 12  1  0  0  0  0
  6 36  1  0  0  0  0
  6 19  1  6  0  0  0
  7  8  1  6  0  0  0
  7 14  1  0  0  0  0
  9 16  1  0  0  0  0
 10 11  1  6  0  0  0
 10 18  1  0  0  0  0
 12 13  1  6  0  0  0
 12 20  1  0  0  0  0
 14 15  1  1  0  0  0
 14 22  1  0  0  0  0
 16 17  1  6  0  0  0
 16 24  1  0  0  0  0
 18 19  1  6  0  0  0
 18 25  1  0  0  0  0
 20 21  1  1  0  0  0
 20 27  1  0  0  0  0
 22 23  1  6  0  0  0
 22 29  1  0  0  0  0
 24  2  1  1  0  0  0
 24 31  1  0  0  0  0
 25 26  1  0  0  0  0
 25 33  1  1  0  0  0
 27 28  1  6  0  0  0
 27 35  1  0  0  0  0
 29 30  1  0  0  0  0
 29 37  1  1  0  0  0
 31 32  1  6  0  0  0
 31 39  1  0  0  0  0
 33 34  1  0  0  0  0
 35 36  1  0  0  0  0
 35 41  1  6  0  0  0
 37 38  1  0  0  0  0
 39 40  1  1  0  0  0
 41 42  1  0  0  0  0
M  END
>  <CHROM.1>
-92.60843018,105.66584437,-18.32108368,-100.31974356,84.80038181,-45.33310819
-21.50312688,116.80710377,-40.70409898,-4.20534040,4.58125360,12.01462184
-1.24136522,0.86141485,-2.64003022

>  <Name>
ligand

>  <RI>
0

>  <Rbt.Current_Directory>
/home/itssahil/PROJECTS/Mol_Feturizer/Test_systems_manuscript/rnas/2o3w

>  <Rbt.Executable>
rbdock ($Id: //depot/dev/client3/rdock/2013.1/src/exe/rbdock.cxx#4 $)

>  <Rbt.Library>
libRbt.so (2013.1, Build901 2013/11/27)

>  <Rbt.Parameter_File>
/export/apps/rDock/src/rDock_2013.1_src/data/scripts/dock_solv.prm

>  <Rbt.Receptor>
prm/blind_docking_20.prm

>  <SCORE>
56.8925

>  <SCORE.INTER>
3.96577

>  <SCORE.INTER.CONST>
1

>  <SCORE.INTER.POLAR>
0

>  <SCORE.INTER.ROT>
9

>  <SCORE.INTER.SOLV>
21.6256

>  <SCORE.INTER.VDW>
-14.1647

>  <SCORE.INTER.norm>
0.0944231

>  <SCORE.INTRA>
20.7093

>  <SCORE.INTRA.DIHEDRAL>
9.68945

>  <SCORE.INTRA.DIHEDRAL.0>
27.8999

>  <SCORE.INTRA.POLAR>
0

>  <SCORE.INTRA.POLAR.0>
0

>  <SCORE.INTRA.REPUL>
0

>  <SCORE.INTRA.REPUL.0>
0

>  <SCORE.INTRA.SOLV>
5.97226

>  <SCORE.INTRA.SOLV.lig_0>
-104.479

>  <SCORE.INTRA.VDW>
12.8785

>  <SCORE.INTRA.VDW.0>
-6.17816

>  <SCORE.INTRA.norm>
0.493079

>  <SCORE.RESTR>
32.2174

>  <SCORE.RESTR.CAVITY>
32.2174

>  <SCORE.RESTR.norm>
0.76708

>  <SCORE.SYSTEM>
0

>  <SCORE.SYSTEM.CONST>
0

>  <SCORE.SYSTEM.DIHEDRAL>
0

>  <SCORE.SYSTEM.SOLV>
0

>  <SCORE.SYSTEM.norm>
0

>  <SCORE.heavy>
42

>  <SCORE.norm>
1.35458

>  <RMSD>
15.965

$$$$
ligand
 OpenBabel02271912133D
libRbt.so/2013.1/901 2013/11/27
 42 45  0  0  0  0  0  0  0  0999 V2000
   -6.0729    3.8327    8.1059 C   0  0  2  0  0  0  0  0  0  0  0  0
   -5.3683    3.8341    9.3593 O   0  0  0  0  0  0  0  0  0  0  0  0
   -8.7715    4.6357   11.9229 C   0  0  2  0  0  0  0  0  0  0  0  0
   -9.6233    4.9292   13.1140 N   0  0  0  0  0  0  0  0  0  0  0  0
   -4.4282    6.1241   11.3164 C   0  0  1  0  0  0  0  0  0  0  0  0
   -2.2245    4.7940   12.7890 C   0  0  1  0  0  0  0  0  0  0  0  0
   -5.5137    2.6419    7.2709 C   0  0  2  0  0  0  0  0  0  0  0  0
   -5.4888    1.3813    8.0332 N   0  0  0  0  0  0  0  0  0  0  0  0
   -8.0691    3.2245   12.0532 C   0  0  0  0  0  0  0  0  0  0  0  0
   -3.1156    6.3875   10.5175 C   0  0  2  0  0  0  0  0  0  0  0  0
   -2.6064    5.2239    9.8205 O   0  0  0  0  0  0  0  0  0  0  0  0
   -1.8937    4.3870   14.2702 C   0  0  2  0  0  0  0  0  0  0  0  0
   -0.4380    4.0932   14.4302 N   0  0  0  0  0  0  0  0  0  0  0  0
   -4.0754    2.8949    6.7828 C   0  0  1  0  0  0  0  0  0  0  0  0
   -3.6188    1.7975    5.9903 O   0  0  0  0  0  0  0  0  0  0  0  0
   -7.2057    2.9630   10.7614 C   0  0  2  0  0  0  0  0  0  0  0  0
   -6.5407    1.6346   10.8437 N   0  0  0  0  0  0  0  0  0  0  0  0
   -2.2096    6.9526   11.6126 C   0  0  2  0  0  0  0  0  0  0  0  0
   -1.4565    5.8947   12.2868 O   0  0  0  0  0  0  0  0  0  0  0  0
   -2.7850    3.1210   14.6822 C   0  0  1  0  0  0  0  0  0  0  0  0
   -4.1496    3.5546   14.8792 O   0  0  0  0  0  0  0  0  0  0  0  0
   -4.0254    4.2218    5.9916 C   0  0  2  0  0  0  0  0  0  0  0  0
   -2.7183    4.4597    5.5233 O   0  0  0  0  0  0  0  0  0  0  0  0
   -6.1150    4.0917   10.5826 C   0  0  2  0  0  0  0  0  0  0  0  0
   -3.1379    7.6880   12.5939 C   0  0  2  0  0  0  0  0  0  0  0  0
   -4.3527    6.9475   12.5028 O   0  0  0  0  0  0  0  0  0  0  0  0
   -2.7471    1.9510   13.5880 C   0  0  2  0  0  0  0  0  0  0  0  0
   -1.4374    1.3845   13.6081 O   0  0  0  0  0  0  0  0  0  0  0  0
   -4.5009    5.3883    6.9204 C   0  0  2  0  0  0  0  0  0  0  0  0
   -5.8551    5.1138    7.4008 O   0  0  0  0  0  0  0  0  0  0  0  0
   -6.7260    5.5080   10.5045 C   0  0  2  0  0  0  0  0  0  0  0  0
   -5.5903    6.4159   10.5294 O   0  0  0  0  0  0  0  0  0  0  0  0
   -3.3743    9.1961   12.2716 C   0  0  0  0  0  0  0  0  0  0  0  0
   -2.2978    9.9645   12.8004 O   0  0  0  0  0  0  0  0  0  0  0  0
   -3.0735    2.5191   12.1552 C   0  0  1  0  0  0  0  0  0  0  0  0
   -2.0813    3.5774   11.8988 O   0  0  0  0  0  0  0  0  0  0  0  0
   -4.4897    6.7287    6.2226 C   0  0  0  0  0  0  0  0  0  0  0  0
   -3.1662    7.1303    5.9652 O   0  0  0  0  0  0  0  0  0  0  0  0
   -7.6781    5.7644   11.7468 C   0  0  1  0  0  0  0  0  0  0  0  0
   -8.3596    7.0129   11.5968 O   0  0  0  0  0  0  0  0  0  0  0  0
   -3.0246    1.4282   10.9994 C   0  0  0  0  0  0  0  0  0  0  0  0
   -3.7069    1.8053    9.7310 N   0  0  0  0  0  0  0  0  0  0  0  0
  1  2  1  1  0  0  0
  1  7  1  0  0  0  0
  1 30  1  0  0  0  0
  3  4  1  1  0  0  0
  3  9  1  0  0  0  0
  3 39  1  0  0  0  0
  5 10  1  0  0  0  0
  5 26  1  0  0  0  0
  5 32  1  6  0  0  0
  6 12  1  0  0  0  0
  6 36  1  0  0  0  0
  6 19  1  6  0  0  0
  7  8  1  1  0  0  0
  7 14  1  0  0  0  0
  9 16  1  0  0  0  0
 10 11  1  1  0  0  0
 10 18  1  0  0  0  0
 12 13  1  6  0  0  0
 12 20  1  0  0  0  0
 14 15  1  6  0  0  0
 14 22  1  0  0  0  0
 16 17  1  1  0  0  0
 16 24  1  0  0  0  0
 18 19  1  1  0  0  0
 18 25  1  0  0  0  0
 20 21  1  6  0  0  0
 20 27  1  0  0  0  0
 22 23  1  1  0  0  0
 22 29  1  0  0  0  0
 24  2  1  6  0  0  0
 24 31  1  0  0  0  0
 25 26  1  0  0  0  0
 25 33  1  6  0  0  0
 27 28  1  6  0  0  0
 27 35  1  0  0  0  0
 29 30  1  0  0  0  0
 29 37  1  6  0  0  0
 31 32  1  1  0  0  0
 31 39  1  0  0  0  0
 33 34  1  0  0  0  0
 35 36  1  0  0  0  0
 35 41  1  6  0  0  0
 37 38  1  0  0  0  0
 39 40  1  6  0  0  0
 41 42  1  0  0  0  0
M  END
>  <CHROM.1>
-138.60016543,61.51880019,-52.12436901,-132.03353069,-83.24710787,-68.72946646
-35.81102242,135.14934906,162.40043498,-4.35099492,4.61490725,10.59951757
1.85134344,-0.14404713,-1.67670109

>  <Name>
ligand

>  <RI>
0

>  <Rbt.Current_Directory>
/home/itssahil/PROJECTS/Mol_Feturizer/Test_systems_manuscript/rnas/2o3w

>  <Rbt.Executable>
rbdock ($Id: //depot/dev/client3/rdock/2013.1/src/exe/rbdock.cxx#4 $)

>  <Rbt.Library>
libRbt.so (2013.1, Build901 2013/11/27)

>  <Rbt.Parameter_File>
/export/apps/rDock/src/rDock_2013.1_src/data/scripts/dock_solv.prm

>  <Rbt.Receptor>
prm/blind_docking_20.prm

>  <SCORE>
60.0579

>  <SCORE.INTER>
15.6661

>  <SCORE.INTER.CONST>
1

>  <SCORE.INTER.POLAR>
0

>  <SCORE.INTER.ROT>
9

>  <SCORE.INTER.SOLV>
12.1278

>  <SCORE.INTER.VDW>
-3.19852

>  <SCORE.INTER.norm>
0.373003

>  <SCORE.INTRA>
4.74137

>  <SCORE.INTRA.DIHEDRAL>
-3.73741

>  <SCORE.INTRA.DIHEDRAL.0>
27.8999

>  <SCORE.INTRA.POLAR>
0

>  <SCORE.INTRA.POLAR.0>
0

>  <SCORE.INTRA.REPUL>
0.145968

>  <SCORE.INTRA.REPUL.0>
0

>  <SCORE.INTRA.SOLV>
8.74309

>  <SCORE.INTRA.SOLV.lig_0>
-104.479

>  <SCORE.INTRA.VDW>
1.50868

>  <SCORE.INTRA.VDW.0>
-6.17816

>  <SCORE.INTRA.norm>
0.11289

>  <SCORE.RESTR>
39.6505

>  <SCORE.RESTR.CAVITY>
39.6505

>  <SCORE.RESTR.norm>
0.944058

>  <SCORE.SYSTEM>
0

>  <SCORE.SYSTEM.CONST>
0

>  <SCORE.SYSTEM.DIHEDRAL>
0

>  <SCORE.SYSTEM.SOLV>
0

>  <SCORE.SYSTEM.norm>
0

>  <SCORE.heavy>
42

>  <SCORE.norm>
1.42995

>  <RMSD>
15.966

$$$$
ligand
 OpenBabel02271912133D
libRbt.so/2013.1/901 2013/11/27
 42 45  0  0  0  0  0  0  0  0999 V2000
   -3.4608    6.2175   12.7203 C   0  0  2  0  0  0  0  0  0  0  0  0
   -2.6785    5.9062   13.8858 O   0  0  0  0  0  0  0  0  0  0  0  0
   -2.3833    1.6480   14.6452 C   0  0  2  0  0  0  0  0  0  0  0  0
   -2.5592    0.2884   15.2375 N   0  0  0  0  0  0  0  0  0  0  0  0
   -5.5861    4.5115   12.1856 C   0  0  1  0  0  0  0  0  0  0  0  0
   -6.4179    4.8316    9.1899 C   0  0  1  0  0  0  0  0  0  0  0  0
   -2.5763    5.8938   11.4789 C   0  0  2  0  0  0  0  0  0  0  0  0
   -1.9750    4.5507   11.5499 N   0  0  0  0  0  0  0  0  0  0  0  0
   -1.6653    2.6271   15.6590 C   0  0  0  0  0  0  0  0  0  0  0  0
   -7.0911    4.1043   12.1790 C   0  0  2  0  0  0  0  0  0  0  0  0
   -7.3292    2.7345   11.7716 O   0  0  0  0  0  0  0  0  0  0  0  0
   -6.5154    5.1509    7.6545 C   0  0  2  0  0  0  0  0  0  0  0  0
   -7.3973    4.1657    6.9598 N   0  0  0  0  0  0  0  0  0  0  0  0
   -1.4161    6.8923   11.3117 C   0  0  1  0  0  0  0  0  0  0  0  0
   -0.6572    6.5816   10.1419 O   0  0  0  0  0  0  0  0  0  0  0  0
   -1.4885    4.0337   14.9714 C   0  0  2  0  0  0  0  0  0  0  0  0
   -0.8017    4.9778   15.8937 N   0  0  0  0  0  0  0  0  0  0  0  0
   -7.6854    5.1791   11.2675 C   0  0  2  0  0  0  0  0  0  0  0  0
   -7.6794    4.7594    9.8658 O   0  0  0  0  0  0  0  0  0  0  0  0
   -5.0440    5.1533    7.0205 C   0  0  1  0  0  0  0  0  0  0  0  0
   -4.3545    6.3506    7.4446 O   0  0  0  0  0  0  0  0  0  0  0  0
   -1.9782    8.3310   11.2542 C   0  0  2  0  0  0  0  0  0  0  0  0
   -0.9296    9.2562   11.0845 O   0  0  0  0  0  0  0  0  0  0  0  0
   -2.8905    4.6285   14.5513 C   0  0  2  0  0  0  0  0  0  0  0  0
   -6.8246    6.4364   11.4764 C   0  0  2  0  0  0  0  0  0  0  0  0
   -5.5397    5.8989   11.7806 O   0  0  0  0  0  0  0  0  0  0  0  0
   -4.1859    3.8652    7.4354 C   0  0  2  0  0  0  0  0  0  0  0  0
   -4.7644    2.7343    6.7854 O   0  0  0  0  0  0  0  0  0  0  0  0
   -2.7663    8.6243   12.5743 C   0  0  2  0  0  0  0  0  0  0  0  0
   -3.8421    7.6459   12.7326 O   0  0  0  0  0  0  0  0  0  0  0  0
   -3.6763    3.6970   13.6027 C   0  0  2  0  0  0  0  0  0  0  0  0
   -4.9911    4.3045   13.4734 O   0  0  0  0  0  0  0  0  0  0  0  0
   -7.3165    7.3901   12.6089 C   0  0  0  0  0  0  0  0  0  0  0  0
   -6.2740    7.5632   13.5640 O   0  0  0  0  0  0  0  0  0  0  0  0
   -4.2045    3.6646    8.9980 C   0  0  1  0  0  0  0  0  0  0  0  0
   -5.6233    3.5567    9.3798 O   0  0  0  0  0  0  0  0  0  0  0  0
   -3.3587   10.0143   12.6011 C   0  0  0  0  0  0  0  0  0  0  0  0
   -4.2003   10.1612   13.7190 O   0  0  0  0  0  0  0  0  0  0  0  0
   -3.7875    2.2437   14.2281 C   0  0  1  0  0  0  0  0  0  0  0  0
   -4.3805    1.3453   13.2864 O   0  0  0  0  0  0  0  0  0  0  0  0
   -3.4024    2.3853    9.4963 C   0  0  0  0  0  0  0  0  0  0  0  0
   -3.3473    2.1963   10.9721 N   0  0  0  0  0  0  0  0  0  0  0  0
  1  2  1  1  0  0  0
  1  7  1  0  0  0  0
  1 30  1  0  0  0  0
  3  4  1  1  0  0  0
  3  9  1  0  0  0  0
  3 39  1  0  0  0  0
  5 10  1  0  0  0  0
  5 26  1  0  0  0  0
  5 32  1  1  0  0  0
  6 12  1  0  0  0  0
  6 36  1  0  0  0  0
  6 19  1  6  0  0  0
  7  8  1  1  0  0  0
  7 14  1  0  0  0  0
  9 16  1  0  0  0  0
 10 11  1  6  0  0  0
 10 18  1  0  0  0  0
 12 13  1  6  0  0  0
 12 20  1  0  0  0  0
 14 15  1  6  0  0  0
 14 22  1  0  0  0  0
 16 17  1  1  0  0  0
 16 24  1  0  0  0  0
 18 19  1  6  0  0  0
 18 25  1  0  0  0  0
 20 21  1  1  0  0  0
 20 27  1  0  0  0  0
 22 23  1  1  0  0  0
 22 29  1  0  0  0  0
 24  2  1  6  0  0  0
 24 31  1  0  0  0  0
 25 26  1  0  0  0  0
 25 33  1  1  0  0  0
 27 28  1  6  0  0  0
 27 35  1  0  0  0  0
 29 30  1  0  0  0  0
 29 37  1  6  0  0  0
 31 32  1  1  0  0  0
 31 39  1  0  0  0  0
 33 34  1  0  0  0  0
 35 36  1  0  0  0  0
 35 41  1  6  0  0  0
 37 38  1  0  0  0  0
 39 40  1  6  0  0  0
 41 42  1  0  0  0  0
M  END
>  <CHROM.1>
-98.49926773,138.83210701,-76.99896921,-148.25289680,122.57207330,172.11883698
130.81728243,136.16551195,177.41471632,-4.18275342,5.08787858,11.62497103
-0.16095645,-1.00857263,-0.31179351

>  <Name>
ligand

>  <RI>
0

>  <Rbt.Current_Directory>
/home/itssahil/PROJECTS/Mol_Feturizer/Test_systems_manuscript/rnas/2o3w

>  <Rbt.Executable>
rbdock ($Id: //depot/dev/client3/rdock/2013.1/src/exe/rbdock.cxx#4 $)

>  <Rbt.Library>
libRbt.so (2013.1, Build901 2013/11/27)

>  <Rbt.Parameter_File>
/export/apps/rDock/src/rDock_2013.1_src/data/scripts/dock_solv.prm

>  <Rbt.Receptor>
prm/blind_docking_20.prm

>  <SCORE>
60.0903

>  <SCORE.INTER>
8.25614

>  <SCORE.INTER.CONST>
1

>  <SCORE.INTER.POLAR>
0

>  <SCORE.INTER.ROT>
9

>  <SCORE.INTER.SOLV>
23.9729

>  <SCORE.INTER.VDW>
-12.0869

>  <SCORE.INTER.norm>
0.196575

>  <SCORE.INTRA>
18.2947

>  <SCORE.INTRA.DIHEDRAL>
6.17983

>  <SCORE.INTRA.DIHEDRAL.0>
27.8999

>  <SCORE.INTRA.POLAR>
0

>  <SCORE.INTRA.POLAR.0>
0

>  <SCORE.INTRA.REPUL>
0

>  <SCORE.INTRA.REPUL.0>
0

>  <SCORE.INTRA.SOLV>
8.30271

>  <SCORE.INTRA.SOLV.lig_0>
-104.479

>  <SCORE.INTRA.VDW>
11.0534

>  <SCORE.INTRA.VDW.0>
-6.17816

>  <SCORE.INTRA.norm>
0.435588

>  <SCORE.RESTR>
33.5394

>  <SCORE.RESTR.CAVITY>
33.5394

>  <SCORE.RESTR.norm>
0.798558

>  <SCORE.SYSTEM>
0

>  <SCORE.SYSTEM.CONST>
0

>  <SCORE.SYSTEM.DIHEDRAL>
0

>  <SCORE.SYSTEM.SOLV>
0

>  <SCORE.SYSTEM.norm>
0

>  <SCORE.heavy>
42

>  <SCORE.norm>
1.43072

>  <RMSD>
15.984

$$$$
ligand
 OpenBabel02271912133D
libRbt.so/2013.1/901 2013/11/27
 42 45  0  0  0  0  0  0  0  0999 V2000
   -2.1605    6.6784   12.0361 C   0  0  2  0  0  0  0  0  0  0  0  0
   -3.2080    6.1324   11.2163 O   0  0  0  0  0  0  0  0  0  0  0  0
   -6.2431    9.1293   11.9925 C   0  0  2  0  0  0  0  0  0  0  0  0
   -7.5526    9.8383   12.1061 N   0  0  0  0  0  0  0  0  0  0  0  0
   -4.8834    4.4710   12.4905 C   0  0  1  0  0  0  0  0  0  0  0  0
   -4.5956    1.8849   10.1342 C   0  0  1  0  0  0  0  0  0  0  0  0
   -0.8767    5.8427   11.7504 C   0  0  2  0  0  0  0  0  0  0  0  0
   -0.6036    5.7037   10.3093 N   0  0  0  0  0  0  0  0  0  0  0  0
   -5.8900    8.8142   10.4833 C   0  0  0  0  0  0  0  0  0  0  0  0
   -5.1773    3.1663   13.2918 C   0  0  2  0  0  0  0  0  0  0  0  0
   -4.0114    2.5936   13.9335 O   0  0  0  0  0  0  0  0  0  0  0  0
   -3.1215    2.3463    9.8464 C   0  0  2  0  0  0  0  0  0  0  0  0
   -2.7221    3.4574   10.7612 N   0  0  0  0  0  0  0  0  0  0  0  0
   -0.9674    4.4172   12.3254 C   0  0  1  0  0  0  0  0  0  0  0  0
    0.2438    3.7020   12.0754 O   0  0  0  0  0  0  0  0  0  0  0  0
   -4.4924    8.0888   10.4269 C   0  0  2  0  0  0  0  0  0  0  0  0
   -4.1212    7.7897    9.0175 N   0  0  0  0  0  0  0  0  0  0  0  0
   -5.8346    2.2993   12.2168 C   0  0  2  0  0  0  0  0  0  0  0  0
   -4.8464    1.5002   11.4917 O   0  0  0  0  0  0  0  0  0  0  0  0
   -2.9967    2.7909    8.3123 C   0  0  1  0  0  0  0  0  0  0  0  0
   -3.0172    1.6093    7.4803 O   0  0  0  0  0  0  0  0  0  0  0  0
   -1.2778    4.4901   13.8379 C   0  0  2  0  0  0  0  0  0  0  0  0
   -1.3475    3.1930   14.3830 O   0  0  0  0  0  0  0  0  0  0  0  0
   -4.5267    6.7482   11.2620 C   0  0  2  0  0  0  0  0  0  0  0  0
   -6.5645    3.2716   11.2749 C   0  0  2  0  0  0  0  0  0  0  0  0
   -5.7607    4.4471   11.3411 O   0  0  0  0  0  0  0  0  0  0  0  0
   -4.1655    3.7877    7.8564 C   0  0  2  0  0  0  0  0  0  0  0  0
   -3.9546    5.0321    8.5222 O   0  0  0  0  0  0  0  0  0  0  0  0
   -2.6298    5.2507   14.0455 C   0  0  2  0  0  0  0  0  0  0  0  0
   -2.5356    6.5894   13.4634 O   0  0  0  0  0  0  0  0  0  0  0  0
   -4.9211    6.9722   12.7383 C   0  0  2  0  0  0  0  0  0  0  0  0
   -5.0817    5.6394   13.2972 O   0  0  0  0  0  0  0  0  0  0  0  0
   -8.0433    3.5802   11.6650 C   0  0  0  0  0  0  0  0  0  0  0  0
   -8.8455    3.6020   10.4881 O   0  0  0  0  0  0  0  0  0  0  0  0
   -5.5770    3.1991    8.2349 C   0  0  1  0  0  0  0  0  0  0  0  0
   -5.5496    2.9740    9.6906 O   0  0  0  0  0  0  0  0  0  0  0  0
   -3.0094    5.3746   15.5030 C   0  0  0  0  0  0  0  0  0  0  0  0
   -2.9314    4.1190   16.1328 O   0  0  0  0  0  0  0  0  0  0  0  0
   -6.2796    7.7861   12.8262 C   0  0  1  0  0  0  0  0  0  0  0  0
   -6.5653    8.1240   14.1863 O   0  0  0  0  0  0  0  0  0  0  0  0
   -6.7971    4.1425    7.8476 C   0  0  0  0  0  0  0  0  0  0  0  0
   -6.5694    5.6005    8.0451 N   0  0  0  0  0  0  0  0  0  0  0  0
  1  2  1  6  0  0  0
  1  7  1  0  0  0  0
  1 30  1  0  0  0  0
  3  4  1  6  0  0  0
  3  9  1  0  0  0  0
  3 39  1  0  0  0  0
  5 10  1  0  0  0  0
  5 26  1  0  0  0  0
  5 32  1  1  0  0  0
  6 12  1  0  0  0  0
  6 36  1  0  0  0  0
  6 19  1  1  0  0  0
  7  8  1  6  0  0  0
  7 14  1  0  0  0  0
  9 16  1  0  0  0  0
 10 11  1  6  0  0  0
 10 18  1  0  0  0  0
 12 13  1  1  0  0  0
 12 20  1  0  0  0  0
 14 15  1  1  0  0  0
 14 22  1  0  0  0  0
 16 17  1  6  0  0  0
 16 24  1  0  0  0  0
 18 19  1  6  0  0  0
 18 25  1  0  0  0  0
 20 21  1  6  0  0  0
 20 27  1  0  0  0  0
 22 23  1  6  0  0  0
 22 29  1  0  0  0  0
 24  2  1  1  0  0  0
 24 31  1  0  0  0  0
 25 26  1  0  0  0  0
 25 33  1  1  0  0  0
 27 28  1  1  0  0  0
 27 35  1  0  0  0  0
 29 30  1  0  0  0  0
 29 37  1  1  0  0  0
 31 32  1  6  0  0  0
 31 39  1  0  0  0  0
 33 34  1  0  0  0  0
 35 36  1  0  0  0  0
 35 41  1  1  0  0  0
 37 38  1  0  0  0  0
 39 40  1  1  0  0  0
 41 42  1  0  0  0  0
M  END
>  <CHROM.1>
-178.68422143,76.62247128,-109.32622579,117.78107275,-138.77331556,-50.18095304
-0.40279352,-177.31450890,-38.29467608,-4.28440328,4.87860083,11.46261887
-0.97177636,0.64148512,-2.37844886

>  <Name>
ligand

>  <RI>
0

>  <Rbt.Current_Directory>
/home/itssahil/PROJECTS/Mol_Feturizer/Test_systems_manuscript/rnas/2o3w

>  <Rbt.Executable>
rbdock ($Id: //depot/dev/client3/rdock/2013.1/src/exe/rbdock.cxx#4 $)

>  <Rbt.Library>
libRbt.so (2013.1, Build901 2013/11/27)

>  <Rbt.Parameter_File>
/export/apps/rDock/src/rDock_2013.1_src/data/scripts/dock_solv.prm

>  <Rbt.Receptor>
prm/blind_docking_20.prm

>  <SCORE>
112.615

>  <SCORE.INTER>
43.3065

>  <SCORE.INTER.CONST>
1

>  <SCORE.INTER.POLAR>
0

>  <SCORE.INTER.ROT>
9

>  <SCORE.INTER.SOLV>
24.9509

>  <SCORE.INTER.VDW>
10.954

>  <SCORE.INTER.norm>
1.03111

>  <SCORE.INTRA>
41.7026

>  <SCORE.INTRA.DIHEDRAL>
0.366574

>  <SCORE.INTRA.DIHEDRAL.0>
27.8999

>  <SCORE.INTRA.POLAR>
0

>  <SCORE.INTRA.POLAR.0>
0

>  <SCORE.INTRA.REPUL>
1.16446

>  <SCORE.INTRA.REPUL.0>
0

>  <SCORE.INTRA.SOLV>
14.2482

>  <SCORE.INTRA.SOLV.lig_0>
-104.479

>  <SCORE.INTRA.VDW>
28.5729

>  <SCORE.INTRA.VDW.0>
-6.17816

>  <SCORE.INTRA.norm>
0.992919

>  <SCORE.RESTR>
27.6058

>  <SCORE.RESTR.CAVITY>
27.6058

>  <SCORE.RESTR.norm>
0.657282

>  <SCORE.SYSTEM>
0

>  <SCORE.SYSTEM.CONST>
0

>  <SCORE.SYSTEM.DIHEDRAL>
0

>  <SCORE.SYSTEM.SOLV>
0

>  <SCORE.SYSTEM.norm>
0

>  <SCORE.heavy>
42

>  <SCORE.norm>
2.68131

>  <RMSD>
15.999

$$$$
ligand
 OpenBabel02271912133D
libRbt.so/2013.1/901 2013/11/27
 42 45  0  0  0  0  0  0  0  0999 V2000
   -5.0348    2.1741    8.6224 C   0  0  2  0  0  0  0  0  0  0  0  0
   -4.4531    2.8812    9.7310 O   0  0  0  0  0  0  0  0  0  0  0  0
   -8.1142    3.8319   11.8497 C   0  0  2  0  0  0  0  0  0  0  0  0
   -9.0842    4.2741   12.8957 N   0  0  0  0  0  0  0  0  0  0  0  0
   -3.9960    5.7361   11.3158 C   0  0  1  0  0  0  0  0  0  0  0  0
   -1.8156    5.3058   13.3088 C   0  0  1  0  0  0  0  0  0  0  0  0
   -4.0861    2.3795    7.4035 C   0  0  2  0  0  0  0  0  0  0  0  0
   -2.6792    2.0864    7.7283 N   0  0  0  0  0  0  0  0  0  0  0  0
   -7.2999    2.5610   12.3226 C   0  0  0  0  0  0  0  0  0  0  0  0
   -2.7786    6.5689   10.8107 C   0  0  2  0  0  0  0  0  0  0  0  0
   -1.7179    5.7701   10.2312 O   0  0  0  0  0  0  0  0  0  0  0  0
   -2.3067    5.2144   14.7986 C   0  0  2  0  0  0  0  0  0  0  0  0
   -1.2766    5.7574   15.7340 N   0  0  0  0  0  0  0  0  0  0  0  0
   -4.1274    3.8224    6.8675 C   0  0  1  0  0  0  0  0  0  0  0  0
   -3.2750    3.9546    5.7287 O   0  0  0  0  0  0  0  0  0  0  0  0
   -6.3131    2.1302   11.1724 C   0  0  2  0  0  0  0  0  0  0  0  0
   -5.5394    0.9259   11.5784 N   0  0  0  0  0  0  0  0  0  0  0  0
   -2.4069    7.3475   12.0736 C   0  0  2  0  0  0  0  0  0  0  0  0
   -1.4316    6.6202   12.8865 O   0  0  0  0  0  0  0  0  0  0  0  0
   -2.6548    3.6901   15.1479 C   0  0  1  0  0  0  0  0  0  0  0  0
   -3.8921    3.3315   14.4925 O   0  0  0  0  0  0  0  0  0  0  0  0
   -5.5861    4.2047    6.5280 C   0  0  2  0  0  0  0  0  0  0  0  0
   -5.6390    5.5176    6.0200 O   0  0  0  0  0  0  0  0  0  0  0  0
   -5.3181    3.3064   10.8225 C   0  0  2  0  0  0  0  0  0  0  0  0
   -3.7218    7.5634   12.8416 C   0  0  2  0  0  0  0  0  0  0  0  0
   -4.4888    6.4127   12.4949 O   0  0  0  0  0  0  0  0  0  0  0  0
   -1.4996    2.6713   14.7065 C   0  0  2  0  0  0  0  0  0  0  0  0
   -0.3761    2.8993   15.5563 O   0  0  0  0  0  0  0  0  0  0  0  0
   -6.4614    4.0755    7.8189 C   0  0  2  0  0  0  0  0  0  0  0  0
   -6.3826    2.7079    8.3319 O   0  0  0  0  0  0  0  0  0  0  0  0
   -6.0465    4.6027   10.4050 C   0  0  2  0  0  0  0  0  0  0  0  0
   -5.0037    5.6111   10.3038 O   0  0  0  0  0  0  0  0  0  0  0  0
   -4.4855    8.8758   12.4830 C   0  0  0  0  0  0  0  0  0  0  0  0
   -5.3619    8.6260   11.3883 O   0  0  0  0  0  0  0  0  0  0  0  0
   -1.0998    2.9030   13.2003 C   0  0  1  0  0  0  0  0  0  0  0  0
   -0.6905    4.3144   13.0980 O   0  0  0  0  0  0  0  0  0  0  0  0
   -7.9112    4.4260    7.5760 C   0  0  0  0  0  0  0  0  0  0  0  0
   -8.0594    5.8198    7.4549 O   0  0  0  0  0  0  0  0  0  0  0  0
   -7.1169    5.0089   11.5027 C   0  0  1  0  0  0  0  0  0  0  0  0
   -7.8941    6.1196   11.0467 O   0  0  0  0  0  0  0  0  0  0  0  0
    0.0678    1.9535   12.6867 C   0  0  0  0  0  0  0  0  0  0  0  0
   -0.2649    1.1057   11.5089 N   0  0  0  0  0  0  0  0  0  0  0  0
  1  2  1  1  0  0  0
  1  7  1  0  0  0  0
  1 30  1  0  0  0  0
  3  4  1  1  0  0  0
  3  9  1  0  0  0  0
  3 39  1  0  0  0  0
  5 10  1  0  0  0  0
  5 26  1  0  0  0  0
  5 32  1  6  0  0  0
  6 12  1  0  0  0  0
  6 36  1  0  0  0  0
  6 19  1  1  0  0  0
  7  8  1  1  0  0  0
  7 14  1  0  0  0  0
  9 16  1  0  0  0  0
 10 11  1  1  0  0  0
 10 18  1  0  0  0  0
 12 13  1  1  0  0  0
 12 20  1  0  0  0  0
 14 15  1  6  0  0  0
 14 22  1  0  0  0  0
 16 17  1  1  0  0  0
 16 24  1  0  0  0  0
 18 19  1  1  0  0  0
 18 25  1  0  0  0  0
 20 21  1  6  0  0  0
 20 27  1  0  0  0  0
 22 23  1  1  0  0  0
 22 29  1  0  0  0  0
 24  2  1  6  0  0  0
 24 31  1  0  0  0  0
 25 26  1  0  0  0  0
 25 33  1  6  0  0  0
 27 28  1  1  0  0  0
 27 35  1  0  0  0  0
 29 30  1  0  0  0  0
 29 37  1  6  0  0  0
 31 32  1  1  0  0  0
 31 39  1  0  0  0  0
 33 34  1  0  0  0  0
 35 36  1  0  0  0  0
 35 41  1  1  0  0  0
 37 38  1  0  0  0  0
 39 40  1  6  0  0  0
 41 42  1  0  0  0  0
M  END
>  <CHROM.1>
156.52694956,43.13604953,-57.30684986,-101.56359343,88.54614401,-74.84902383
-45.00677668,163.37244965,122.28887793,-4.22719359,4.43851129,11.03695927
-2.39639562,-0.56579133,1.01673516

>  <Name>
ligand

>  <RI>
0

>  <Rbt.Current_Directory>
/home/itssahil/PROJECTS/Mol_Feturizer/Test_systems_manuscript/rnas/2o3w

>  <Rbt.Executable>
rbdock ($Id: //depot/dev/client3/rdock/2013.1/src/exe/rbdock.cxx#4 $)

>  <Rbt.Library>
libRbt.so (2013.1, Build901 2013/11/27)

>  <Rbt.Parameter_File>
/export/apps/rDock/src/rDock_2013.1_src/data/scripts/dock_solv.prm

>  <Rbt.Receptor>
prm/blind_docking_20.prm

>  <SCORE>
51.7586

>  <SCORE.INTER>
16.8141

>  <SCORE.INTER.CONST>
1

>  <SCORE.INTER.POLAR>
0

>  <SCORE.INTER.ROT>
9

>  <SCORE.INTER.SOLV>
28.4213

>  <SCORE.INTER.VDW>
-7.86441

>  <SCORE.INTER.norm>
0.400335

>  <SCORE.INTRA>
-0.570785

>  <SCORE.INTRA.DIHEDRAL>
-7.73329

>  <SCORE.INTRA.DIHEDRAL.0>
27.8999

>  <SCORE.INTRA.POLAR>
0

>  <SCORE.INTRA.POLAR.0>
0

>  <SCORE.INTRA.REPUL>
0

>  <SCORE.INTRA.REPUL.0>
0

>  <SCORE.INTRA.SOLV>
-2.77449

>  <SCORE.INTRA.SOLV.lig_0>
-104.479

>  <SCORE.INTRA.VDW>
4.68311

>  <SCORE.INTRA.VDW.0>
-6.17816

>  <SCORE.INTRA.norm>
-0.0135901

>  <SCORE.RESTR>
35.5153

>  <SCORE.RESTR.CAVITY>
35.5153

>  <SCORE.RESTR.norm>
0.845603

>  <SCORE.SYSTEM>
0

>  <SCORE.SYSTEM.CONST>
0

>  <SCORE.SYSTEM.DIHEDRAL>
0

>  <SCORE.SYSTEM.SOLV>
0

>  <SCORE.SYSTEM.norm>
0

>  <SCORE.heavy>
42

>  <SCORE.norm>
1.23235

>  <RMSD>
16.008

$$$$
ligand
 OpenBabel02271912133D
libRbt.so/2013.1/901 2013/11/27
 42 45  0  0  0  0  0  0  0  0999 V2000
   -5.0614    6.1696    9.5218 C   0  0  2  0  0  0  0  0  0  0  0  0
   -3.9257    6.9772    9.8754 O   0  0  0  0  0  0  0  0  0  0  0  0
   -3.0664   11.2055   10.2987 C   0  0  2  0  0  0  0  0  0  0  0  0
   -3.1759   12.6583   10.6273 N   0  0  0  0  0  0  0  0  0  0  0  0
   -2.6428    7.2307   13.2422 C   0  0  1  0  0  0  0  0  0  0  0  0
   -0.5984    3.5693   14.9255 C   0  0  1  0  0  0  0  0  0  0  0  0
   -5.9174    5.9979   10.8125 C   0  0  2  0  0  0  0  0  0  0  0  0
   -6.1842    7.2804   11.4867 N   0  0  0  0  0  0  0  0  0  0  0  0
   -4.1420   10.7782    9.2206 C   0  0  0  0  0  0  0  0  0  0  0  0
   -3.2158    5.8159   13.5595 C   0  0  2  0  0  0  0  0  0  0  0  0
   -3.8972    5.7286   14.8351 O   0  0  0  0  0  0  0  0  0  0  0  0
    0.2987    3.0617   13.7396 C   0  0  2  0  0  0  0  0  0  0  0  0
   -0.4873    2.9831   12.4719 N   0  0  0  0  0  0  0  0  0  0  0  0
   -5.2363    5.0843   11.8481 C   0  0  1  0  0  0  0  0  0  0  0  0
   -6.0720    4.9236   12.9955 O   0  0  0  0  0  0  0  0  0  0  0  0
   -3.9622    9.2461    8.8999 C   0  0  2  0  0  0  0  0  0  0  0  0
   -4.9508    8.8123    7.8761 N   0  0  0  0  0  0  0  0  0  0  0  0
   -1.9635    4.9495   13.4170 C   0  0  2  0  0  0  0  0  0  0  0  0
   -1.2487    4.8239   14.6875 O   0  0  0  0  0  0  0  0  0  0  0  0
    0.9209    1.6353   14.1203 C   0  0  1  0  0  0  0  0  0  0  0  0
    1.9594    1.8269   15.1071 O   0  0  0  0  0  0  0  0  0  0  0  0
   -4.9053    3.7227   11.1958 C   0  0  2  0  0  0  0  0  0  0  0  0
   -4.2962    2.8684   12.1359 O   0  0  0  0  0  0  0  0  0  0  0  0
   -4.1389    8.3787   10.2084 C   0  0  2  0  0  0  0  0  0  0  0  0
   -1.0912    5.6359   12.3524 C   0  0  2  0  0  0  0  0  0  0  0  0
   -1.4106    7.0156   12.5165 O   0  0  0  0  0  0  0  0  0  0  0  0
   -0.1732    0.6102   14.6857 C   0  0  2  0  0  0  0  0  0  0  0  0
   -1.0323    0.2562   13.6027 O   0  0  0  0  0  0  0  0  0  0  0  0
   -3.9609    3.9597    9.9705 C   0  0  2  0  0  0  0  0  0  0  0  0
   -4.6109    4.8560    9.0145 O   0  0  0  0  0  0  0  0  0  0  0  0
   -3.1555    8.7794   11.3299 C   0  0  2  0  0  0  0  0  0  0  0  0
   -3.5777    8.0216   12.4969 O   0  0  0  0  0  0  0  0  0  0  0  0
   -1.3529    5.1697   10.8867 C   0  0  0  0  0  0  0  0  0  0  0  0
   -0.5754    5.9628    9.9948 O   0  0  0  0  0  0  0  0  0  0  0  0
   -1.0058    1.2714   15.8484 C   0  0  1  0  0  0  0  0  0  0  0  0
   -1.6025    2.4929   15.2809 O   0  0  0  0  0  0  0  0  0  0  0  0
   -3.5897    2.6756    9.2655 C   0  0  0  0  0  0  0  0  0  0  0  0
   -2.7613    2.9502    8.1620 O   0  0  0  0  0  0  0  0  0  0  0  0
   -3.2465   10.3382   11.6086 C   0  0  1  0  0  0  0  0  0  0  0  0
   -2.2327   10.7335   12.5368 O   0  0  0  0  0  0  0  0  0  0  0  0
   -2.1407    0.3323   16.4473 C   0  0  0  0  0  0  0  0  0  0  0  0
   -2.1278    0.1733   17.9275 N   0  0  0  0  0  0  0  0  0  0  0  0
  1  2  1  1  0  0  0
  1  7  1  0  0  0  0
  1 30  1  0  0  0  0
  3  4  1  1  0  0  0
  3  9  1  0  0  0  0
  3 39  1  0  0  0  0
  5 10  1  0  0  0  0
  5 26  1  0  0  0  0
  5 32  1  6  0  0  0
  6 12  1  0  0  0  0
  6 36  1  0  0  0  0
  6 19  1  6  0  0  0
  7  8  1  1  0  0  0
  7 14  1  0  0  0  0
  9 16  1  0  0  0  0
 10 11  1  1  0  0  0
 10 18  1  0  0  0  0
 12 13  1  6  0  0  0
 12 20  1  0  0  0  0
 14 15  1  1  0  0  0
 14 22  1  0  0  0  0
 16 17  1  6  0  0  0
 16 24  1  0  0  0  0
 18 19  1  1  0  0  0
 18 25  1  0  0  0  0
 20 21  1  1  0  0  0
 20 27  1  0  0  0  0
 22 23  1  1  0  0  0
 22 29  1  0  0  0  0
 24  2  1  6  0  0  0
 24 31  1  0  0  0  0
 25 26  1  0  0  0  0
 25 33  1  6  0  0  0
 27 28  1  6  0  0  0
 27 35  1  0  0  0  0
 29 30  1  0  0  0  0
 29 37  1  6  0  0  0
 31 32  1  1  0  0  0
 31 39  1  0  0  0  0
 33 34  1  0  0  0  0
 35 36  1  0  0  0  0
 35 41  1  6  0  0  0
 37 38  1  0  0  0  0
 39 40  1  1  0  0  0
 41 42  1  0  0  0  0
M  END
>  <CHROM.1>
-68.71586273,-92.60534577,145.74790486,49.26486190,174.71702193,178.97527647
128.45583174,-134.01403469,128.11889408,-2.74083407,5.37645018,12.17643344
2.14951059,-0.93449082,-0.07319009

>  <Name>
ligand

>  <RI>
0

>  <Rbt.Current_Directory>
/home/itssahil/PROJECTS/Mol_Feturizer/Test_systems_manuscript/rnas/2o3w

>  <Rbt.Executable>
rbdock ($Id: //depot/dev/client3/rdock/2013.1/src/exe/rbdock.cxx#4 $)

>  <Rbt.Library>
libRbt.so (2013.1, Build901 2013/11/27)

>  <Rbt.Parameter_File>
/export/apps/rDock/src/rDock_2013.1_src/data/scripts/dock_solv.prm

>  <Rbt.Receptor>
prm/blind_docking_60.prm

>  <SCORE>
19.5654

>  <SCORE.INTER>
1.85218

>  <SCORE.INTER.CONST>
1

>  <SCORE.INTER.POLAR>
0

>  <SCORE.INTER.ROT>
9

>  <SCORE.INTER.SOLV>
27.1472

>  <SCORE.INTER.VDW>
-17.4143

>  <SCORE.INTER.norm>
0.0440994

>  <SCORE.INTRA>
5.72044

>  <SCORE.INTRA.DIHEDRAL>
-0.140049

>  <SCORE.INTRA.DIHEDRAL.0>
27.8999

>  <SCORE.INTRA.POLAR>
0

>  <SCORE.INTRA.POLAR.0>
0

>  <SCORE.INTRA.REPUL>
0.156999

>  <SCORE.INTRA.REPUL.0>
0

>  <SCORE.INTRA.SOLV>
4.16186

>  <SCORE.INTRA.SOLV.lig_0>
-104.479

>  <SCORE.INTRA.VDW>
2.92453

>  <SCORE.INTRA.VDW.0>
-6.17816

>  <SCORE.INTRA.norm>
0.136201

>  <SCORE.RESTR>
11.9928

>  <SCORE.RESTR.CAVITY>
11.9928

>  <SCORE.RESTR.norm>
0.285544

>  <SCORE.SYSTEM>
0

>  <SCORE.SYSTEM.CONST>
0

>  <SCORE.SYSTEM.DIHEDRAL>
0

>  <SCORE.SYSTEM.SOLV>
0

>  <SCORE.SYSTEM.norm>
0

>  <SCORE.heavy>
42

>  <SCORE.norm>
0.465844

>  <RMSD>
16.017

$$$$
ligand
 OpenBabel02271912133D
libRbt.so/2013.1/901 2013/11/27
 42 45  0  0  0  0  0  0  0  0999 V2000
   -7.0795    2.8543   10.0043 C   0  0  2  0  0  0  0  0  0  0  0  0
   -7.3550    4.2257   10.3368 O   0  0  0  0  0  0  0  0  0  0  0  0
   -5.3986    6.1325    6.9704 C   0  0  2  0  0  0  0  0  0  0  0  0
   -4.9699    7.1339    5.9487 N   0  0  0  0  0  0  0  0  0  0  0  0
   -4.3282    6.2014   11.6967 C   0  0  1  0  0  0  0  0  0  0  0  0
   -1.9136    5.3774   13.3379 C   0  0  1  0  0  0  0  0  0  0  0  0
   -6.7357    2.1232   11.3368 C   0  0  2  0  0  0  0  0  0  0  0  0
   -7.7329    2.3753   12.3917 N   0  0  0  0  0  0  0  0  0  0  0  0
   -6.9370    5.7923    6.8306 C   0  0  0  0  0  0  0  0  0  0  0  0
   -3.1672    7.0984   11.1690 C   0  0  2  0  0  0  0  0  0  0  0  0
   -2.2597    6.4179   10.2676 O   0  0  0  0  0  0  0  0  0  0  0  0
   -2.4102    5.2588   14.8238 C   0  0  2  0  0  0  0  0  0  0  0  0
   -1.3699    5.7527   15.7750 N   0  0  0  0  0  0  0  0  0  0  0  0
   -5.3702    2.5532   11.9038 C   0  0  1  0  0  0  0  0  0  0  0  0
   -5.0790    1.8306   13.1013 O   0  0  0  0  0  0  0  0  0  0  0  0
   -7.3228    4.7180    7.9166 C   0  0  2  0  0  0  0  0  0  0  0  0
   -8.7633    4.3630    7.8043 N   0  0  0  0  0  0  0  0  0  0  0  0
   -2.5529    7.5909   12.4802 C   0  0  2  0  0  0  0  0  0  0  0  0
   -1.4978    6.6930   12.9507 O   0  0  0  0  0  0  0  0  0  0  0  0
   -2.7950    3.7345   15.1326 C   0  0  1  0  0  0  0  0  0  0  0  0
   -4.0388    3.4224   14.4659 O   0  0  0  0  0  0  0  0  0  0  0  0
   -4.2762    2.3365   10.8336 C   0  0  2  0  0  0  0  0  0  0  0  0
   -3.0170    2.7098   11.3430 O   0  0  0  0  0  0  0  0  0  0  0  0
   -7.0226    5.2618    9.3692 C   0  0  2  0  0  0  0  0  0  0  0  0
   -3.7110    7.6669   13.4894 C   0  0  2  0  0  0  0  0  0  0  0  0
   -4.5845    6.6276   13.0545 O   0  0  0  0  0  0  0  0  0  0  0  0
   -1.6631    2.7006   14.6666 C   0  0  2  0  0  0  0  0  0  0  0  0
   -0.5365    2.8797   15.5241 O   0  0  0  0  0  0  0  0  0  0  0  0
   -4.6308    3.1790    9.5631 C   0  0  2  0  0  0  0  0  0  0  0  0
   -5.9449    2.7801    9.0594 O   0  0  0  0  0  0  0  0  0  0  0  0
   -5.5453    5.6688    9.5628 C   0  0  2  0  0  0  0  0  0  0  0  0
   -5.4931    6.3078   10.8680 O   0  0  0  0  0  0  0  0  0  0  0  0
   -4.4520    9.0390   13.5386 C   0  0  0  0  0  0  0  0  0  0  0  0
   -3.4975   10.0837   13.7010 O   0  0  0  0  0  0  0  0  0  0  0  0
   -1.2545    2.9620   13.1677 C   0  0  1  0  0  0  0  0  0  0  0  0
   -0.8118    4.3656   13.1031 O   0  0  0  0  0  0  0  0  0  0  0  0
   -3.6124    3.0209    8.4578 C   0  0  0  0  0  0  0  0  0  0  0  0
   -2.5147    3.8711    8.6846 O   0  0  0  0  0  0  0  0  0  0  0  0
   -5.1005    6.6792    8.4240 C   0  0  1  0  0  0  0  0  0  0  0  0
   -3.6966    6.9371    8.5140 O   0  0  0  0  0  0  0  0  0  0  0  0
   -0.1083    1.9990   12.6314 C   0  0  0  0  0  0  0  0  0  0  0  0
    1.1232    1.9395   13.4659 N   0  0  0  0  0  0  0  0  0  0  0  0
  1  2  1  1  0  0  0
  1  7  1  0  0  0  0
  1 30  1  0  0  0  0
  3  4  1  6  0  0  0
  3  9  1  0  0  0  0
  3 39  1  0  0  0  0
  5 10  1  0  0  0  0
  5 26  1  0  0  0  0
  5 32  1  6  0  0  0
  6 12  1  0  0  0  0
  6 36  1  0  0  0  0
  6 19  1  1  0  0  0
  7  8  1  1  0  0  0
  7 14  1  0  0  0  0
  9 16  1  0  0  0  0
 10 11  1  1  0  0  0
 10 18  1  0  0  0  0
 12 13  1  1  0  0  0
 12 20  1  0  0  0  0
 14 15  1  1  0  0  0
 14 22  1  0  0  0  0
 16 17  1  1  0  0  0
 16 24  1  0  0  0  0
 18 19  1  1  0  0  0
 18 25  1  0  0  0  0
 20 21  1  6  0  0  0
 20 27  1  0  0  0  0
 22 23  1  1  0  0  0
 22 29  1  0  0  0  0
 24  2  1  1  0  0  0
 24 31  1  0  0  0  0
 25 26  1  0  0  0  0
 25 33  1  6  0  0  0
 27 28  1  1  0  0  0
 27 35  1  0  0  0  0
 29 30  1  0  0  0  0
 29 37  1  6  0  0  0
 31 32  1  1  0  0  0
 31 39  1  0  0  0  0
 33 34  1  0  0  0  0
 35 36  1  0  0  0  0
 35 41  1  1  0  0  0
 37 38  1  0  0  0  0
 39 40  1  6  0  0  0
 41 42  1  0  0  0  0
M  END
>  <CHROM.1>
148.02302071,37.32220262,-65.75553542,-85.70193841,-51.48896020,-82.37647223
147.17075881,74.48308237,-52.54662208,-4.00413173,4.78644842,11.39245737
2.94484038,-0.86728435,-0.14087358

>  <Name>
ligand

>  <RI>
0

>  <Rbt.Current_Directory>
/home/itssahil/PROJECTS/Mol_Feturizer/Test_systems_manuscript/rnas/2o3w

>  <Rbt.Executable>
rbdock ($Id: //depot/dev/client3/rdock/2013.1/src/exe/rbdock.cxx#4 $)

>  <Rbt.Library>
libRbt.so (2013.1, Build901 2013/11/27)

>  <Rbt.Parameter_File>
/export/apps/rDock/src/rDock_2013.1_src/data/scripts/dock_solv.prm

>  <Rbt.Receptor>
prm/blind_docking_20.prm

>  <SCORE>
44.7089

>  <SCORE.INTER>
7.03773

>  <SCORE.INTER.CONST>
1

>  <SCORE.INTER.POLAR>
0

>  <SCORE.INTER.ROT>
9

>  <SCORE.INTER.SOLV>
26.1404

>  <SCORE.INTER.VDW>
-13.6216

>  <SCORE.INTER.norm>
0.167565

>  <SCORE.INTRA>
4.4587

>  <SCORE.INTRA.DIHEDRAL>
-11.4753

>  <SCORE.INTRA.DIHEDRAL.0>
27.8999

>  <SCORE.INTRA.POLAR>
0

>  <SCORE.INTRA.POLAR.0>
0

>  <SCORE.INTRA.REPUL>
0.155511

>  <SCORE.INTRA.REPUL.0>
0

>  <SCORE.INTRA.SOLV>
2.54161

>  <SCORE.INTRA.SOLV.lig_0>
-104.479

>  <SCORE.INTRA.VDW>
8.14801

>  <SCORE.INTRA.VDW.0>
-6.17816

>  <SCORE.INTRA.norm>
0.10616

>  <SCORE.RESTR>
33.2125

>  <SCORE.RESTR.CAVITY>
33.2125

>  <SCORE.RESTR.norm>
0.790773

>  <SCORE.SYSTEM>
0

>  <SCORE.SYSTEM.CONST>
0

>  <SCORE.SYSTEM.DIHEDRAL>
0

>  <SCORE.SYSTEM.SOLV>
0

>  <SCORE.SYSTEM.norm>
0

>  <SCORE.heavy>
42

>  <SCORE.norm>
1.0645

>  <RMSD>
16.033

$$$$
ligand
 OpenBabel02271912133D
libRbt.so/2013.1/901 2013/11/27
 42 45  0  0  0  0  0  0  0  0999 V2000
   -3.6293    4.7336   14.4530 C   0  0  2  0  0  0  0  0  0  0  0  0
   -3.3903    5.0450   13.0699 O   0  0  0  0  0  0  0  0  0  0  0  0
   -3.5121    9.3787   13.0851 C   0  0  2  0  0  0  0  0  0  0  0  0
   -3.7654   10.8007   12.7053 N   0  0  0  0  0  0  0  0  0  0  0  0
   -6.1656    5.5970   12.1409 C   0  0  1  0  0  0  0  0  0  0  0  0
   -5.7920    3.9199    9.7431 C   0  0  1  0  0  0  0  0  0  0  0  0
   -2.2587    4.8402   15.1868 C   0  0  2  0  0  0  0  0  0  0  0  0
   -1.5567    6.1009   14.8898 N   0  0  0  0  0  0  0  0  0  0  0  0
   -2.5398    8.6741   12.0554 C   0  0  0  0  0  0  0  0  0  0  0  0
   -6.6619    4.1470   12.4271 C   0  0  2  0  0  0  0  0  0  0  0  0
   -5.6017    3.1609   12.4796 O   0  0  0  0  0  0  0  0  0  0  0  0
   -5.5185    3.9688    8.1967 C   0  0  2  0  0  0  0  0  0  0  0  0
   -5.6951    2.6196    7.5808 N   0  0  0  0  0  0  0  0  0  0  0  0
   -1.3008    3.6969   14.8044 C   0  0  1  0  0  0  0  0  0  0  0  0
   -0.0748    3.8120   15.5288 O   0  0  0  0  0  0  0  0  0  0  0  0
   -2.2937    7.1889   12.5203 C   0  0  2  0  0  0  0  0  0  0  0  0
   -1.3697    6.4989   11.5802 N   0  0  0  0  0  0  0  0  0  0  0  0
   -7.6874    3.9579   11.3083 C   0  0  2  0  0  0  0  0  0  0  0  0
   -7.0741    3.3926   10.1062 O   0  0  0  0  0  0  0  0  0  0  0  0
   -4.0403    4.5303    7.9387 C   0  0  1  0  0  0  0  0  0  0  0  0
   -4.0274    5.9511    8.2032 O   0  0  0  0  0  0  0  0  0  0  0  0
   -1.9878    2.3380   15.0699 C   0  0  2  0  0  0  0  0  0  0  0  0
   -1.1173    1.2805   14.7405 O   0  0  0  0  0  0  0  0  0  0  0  0
   -3.6583    6.3967   12.5994 C   0  0  2  0  0  0  0  0  0  0  0  0
   -8.2753    5.3518   11.0312 C   0  0  2  0  0  0  0  0  0  0  0  0
   -7.1897    6.2243   11.3353 O   0  0  0  0  0  0  0  0  0  0  0  0
   -2.9334    3.8066    8.8434 C   0  0  2  0  0  0  0  0  0  0  0  0
   -2.8043    2.4647    8.3754 O   0  0  0  0  0  0  0  0  0  0  0  0
   -3.3020    2.2564   14.2239 C   0  0  2  0  0  0  0  0  0  0  0  0
   -4.1840    3.3688   14.5767 O   0  0  0  0  0  0  0  0  0  0  0  0
   -4.6819    7.0602   13.5467 C   0  0  2  0  0  0  0  0  0  0  0  0
   -5.9170    6.3170   13.3554 O   0  0  0  0  0  0  0  0  0  0  0  0
   -9.5383    5.7127   11.8731 C   0  0  0  0  0  0  0  0  0  0  0  0
  -10.3451    4.5498   12.0332 O   0  0  0  0  0  0  0  0  0  0  0  0
   -3.3616    3.8164   10.3596 C   0  0  1  0  0  0  0  0  0  0  0  0
   -4.6751    3.1519   10.4181 O   0  0  0  0  0  0  0  0  0  0  0  0
   -4.0453    0.9566   14.4281 C   0  0  0  0  0  0  0  0  0  0  0  0
   -4.5573    0.8912   15.7369 O   0  0  0  0  0  0  0  0  0  0  0  0
   -4.8783    8.5860   13.1608 C   0  0  1  0  0  0  0  0  0  0  0  0
   -5.7075    9.2367   14.1276 O   0  0  0  0  0  0  0  0  0  0  0  0
   -2.3328    3.0866   11.3278 C   0  0  0  0  0  0  0  0  0  0  0  0
   -1.1581    3.8996   11.7472 N   0  0  0  0  0  0  0  0  0  0  0  0
  1  2  1  6  0  0  0
  1  7  1  0  0  0  0
  1 30  1  0  0  0  0
  3  4  1  6  0  0  0
  3  9  1  0  0  0  0
  3 39  1  0  0  0  0
  5 10  1  0  0  0  0
  5 26  1  0  0  0  0
  5 32  1  1  0  0  0
  6 12  1  0  0  0  0
  6 36  1  0  0  0  0
  6 19  1  6  0  0  0
  7  8  1  6  0  0  0
  7 14  1  0  0  0  0
  9 16  1  0  0  0  0
 10 11  1  6  0  0  0
 10 18  1  0  0  0  0
 12 13  1  1  0  0  0
 12 20  1  0  0  0  0
 14 15  1  1  0  0  0
 14 22  1  0  0  0  0
 16 17  1  6  0  0  0
 16 24  1  0  0  0  0
 18 19  1  6  0  0  0
 18 25  1  0  0  0  0
 20 21  1  1  0  0  0
 20 27  1  0  0  0  0
 22 23  1  6  0  0  0
 22 29  1  0  0  0  0
 24  2  1  1  0  0  0
 24 31  1  0  0  0  0
 25 26  1  0  0  0  0
 25 33  1  1  0  0  0
 27 28  1  6  0  0  0
 27 35  1  0  0  0  0
 29 30  1  0  0  0  0
 29 37  1  1  0  0  0
 31 32  1  6  0  0  0
 31 39  1  0  0  0  0
 33 34  1  0  0  0  0
 35 36  1  0  0  0  0
 35 41  1  1  0  0  0
 37 38  1  0  0  0  0
 39 40  1  1  0  0  0
 41 42  1  0  0  0  0
M  END
>  <CHROM.1>
-97.54091578,100.06835415,-41.79149949,-147.20491001,-37.04833423,67.79508843
-23.91320924,131.90948991,81.93316959,-4.32134759,4.79225401,12.22495788
0.03042486,-0.72496925,0.31611529

>  <Name>
ligand

>  <RI>
0

>  <Rbt.Current_Directory>
/home/itssahil/PROJECTS/Mol_Feturizer/Test_systems_manuscript/rnas/2o3w

>  <Rbt.Executable>
rbdock ($Id: //depot/dev/client3/rdock/2013.1/src/exe/rbdock.cxx#4 $)

>  <Rbt.Library>
libRbt.so (2013.1, Build901 2013/11/27)

>  <Rbt.Parameter_File>
/export/apps/rDock/src/rDock_2013.1_src/data/scripts/dock_solv.prm

>  <Rbt.Receptor>
prm/blind_docking_20.prm

>  <SCORE>
57.3667

>  <SCORE.INTER>
13.0953

>  <SCORE.INTER.CONST>
1

>  <SCORE.INTER.POLAR>
0

>  <SCORE.INTER.ROT>
9

>  <SCORE.INTER.SOLV>
25.7092

>  <SCORE.INTER.VDW>
-9.43951

>  <SCORE.INTER.norm>
0.311794

>  <SCORE.INTRA>
13.7737

>  <SCORE.INTRA.DIHEDRAL>
2.83492

>  <SCORE.INTRA.DIHEDRAL.0>
27.8999

>  <SCORE.INTRA.POLAR>
0

>  <SCORE.INTRA.POLAR.0>
0

>  <SCORE.INTRA.REPUL>
0

>  <SCORE.INTRA.REPUL.0>
0

>  <SCORE.INTRA.SOLV>
10.8685

>  <SCORE.INTRA.SOLV.lig_0>
-104.479

>  <SCORE.INTRA.VDW>
6.92202

>  <SCORE.INTRA.VDW.0>
-6.17816

>  <SCORE.INTRA.norm>
0.327946

>  <SCORE.RESTR>
30.4977

>  <SCORE.RESTR.CAVITY>
30.4977

>  <SCORE.RESTR.norm>
0.726135

>  <SCORE.SYSTEM>
0

>  <SCORE.SYSTEM.CONST>
0

>  <SCORE.SYSTEM.DIHEDRAL>
0

>  <SCORE.SYSTEM.SOLV>
0

>  <SCORE.SYSTEM.norm>
0

>  <SCORE.heavy>
42

>  <SCORE.norm>
1.36587

>  <RMSD>
16.161

$$$$
ligand
 OpenBabel02271912133D
libRbt.so/2013.1/901 2013/11/27
 42 45  0  0  0  0  0  0  0  0999 V2000
   -2.1623    4.9670   13.2472 C   0  0  2  0  0  0  0  0  0  0  0  0
   -3.0343    3.9530   12.7192 O   0  0  0  0  0  0  0  0  0  0  0  0
   -3.4270    1.4029    9.2352 C   0  0  2  0  0  0  0  0  0  0  0  0
   -3.2083    0.7603    7.9049 N   0  0  0  0  0  0  0  0  0  0  0  0
   -0.4138    0.8862   12.8518 C   0  0  1  0  0  0  0  0  0  0  0  0
    2.2041   -1.5820   15.5747 C   0  0  1  0  0  0  0  0  0  0  0  0
   -2.9939    5.7923   14.2747 C   0  0  2  0  0  0  0  0  0  0  0  0
   -3.7007    4.9374   15.2443 N   0  0  0  0  0  0  0  0  0  0  0  0
   -3.8200    2.9270    9.0788 C   0  0  0  0  0  0  0  0  0  0  0  0
    1.0191    1.1908   13.3853 C   0  0  2  0  0  0  0  0  0  0  0  0
    2.0766    0.8776   12.4458 O   0  0  0  0  0  0  0  0  0  0  0  0
    2.3617   -0.6572   16.8352 C   0  0  2  0  0  0  0  0  0  0  0  0
    3.0342    0.6267   16.4741 N   0  0  0  0  0  0  0  0  0  0  0  0
   -4.0612    6.6684   13.5934 C   0  0  1  0  0  0  0  0  0  0  0  0
   -4.7710    7.4354   14.5676 O   0  0  0  0  0  0  0  0  0  0  0  0
   -4.0588    3.5418   10.5097 C   0  0  2  0  0  0  0  0  0  0  0  0
   -4.4453    4.9743   10.3994 N   0  0  0  0  0  0  0  0  0  0  0  0
    1.0291    0.3861   14.6860 C   0  0  2  0  0  0  0  0  0  0  0  0
    1.5178   -0.9763   14.4721 O   0  0  0  0  0  0  0  0  0  0  0  0
    3.1843   -1.4398   17.9655 C   0  0  1  0  0  0  0  0  0  0  0  0
    2.3319   -2.4514   18.5477 O   0  0  0  0  0  0  0  0  0  0  0  0
   -3.3868    7.5778   12.5411 C   0  0  2  0  0  0  0  0  0  0  0  0
   -4.3485    8.3986   11.9199 O   0  0  0  0  0  0  0  0  0  0  0  0
   -2.7580    3.4105   11.3965 C   0  0  2  0  0  0  0  0  0  0  0  0
   -0.4222    0.3840   15.1950 C   0  0  2  0  0  0  0  0  0  0  0  0
   -1.1845    0.4412   13.9917 O   0  0  0  0  0  0  0  0  0  0  0  0
    4.5196   -2.1233   17.4021 C   0  0  2  0  0  0  0  0  0  0  0  0
    5.4323   -1.0776   17.0710 O   0  0  0  0  0  0  0  0  0  0  0  0
   -2.6582    6.6824   11.4843 C   0  0  2  0  0  0  0  0  0  0  0  0
   -1.6728    5.8338   12.1541 O   0  0  0  0  0  0  0  0  0  0  0  0
   -2.2808    1.9494   11.5470 C   0  0  2  0  0  0  0  0  0  0  0  0
   -0.9954    2.0349   12.2216 O   0  0  0  0  0  0  0  0  0  0  0  0
   -0.7873    1.5647   16.1473 C   0  0  0  0  0  0  0  0  0  0  0  0
   -1.9775    2.1938   15.6818 O   0  0  0  0  0  0  0  0  0  0  0  0
    4.2030   -2.9946   16.1282 C   0  0  1  0  0  0  0  0  0  0  0  0
    3.5700   -2.0851   15.1575 O   0  0  0  0  0  0  0  0  0  0  0  0
   -1.9624    7.4934   10.4157 C   0  0  0  0  0  0  0  0  0  0  0  0
   -1.5942    8.7521   10.9250 O   0  0  0  0  0  0  0  0  0  0  0  0
   -2.1233    1.2736   10.1207 C   0  0  1  0  0  0  0  0  0  0  0  0
   -1.8292   -0.1187   10.2642 O   0  0  0  0  0  0  0  0  0  0  0  0
    5.4814   -3.6850   15.4818 C   0  0  0  0  0  0  0  0  0  0  0  0
    5.4569   -3.8218   13.9995 N   0  0  0  0  0  0  0  0  0  0  0  0
  1  2  1  6  0  0  0
  1  7  1  0  0  0  0
  1 30  1  0  0  0  0
  3  4  1  6  0  0  0
  3  9  1  0  0  0  0
  3 39  1  0  0  0  0
  5 10  1  0  0  0  0
  5 26  1  0  0  0  0
  5 32  1  1  0  0  0
  6 12  1  0  0  0  0
  6 36  1  0  0  0  0
  6 19  1  6  0  0  0
  7  8  1  1  0  0  0
  7 14  1  0  0  0  0
  9 16  1  0  0  0  0
 10 11  1  6  0  0  0
 10 18  1  0  0  0  0
 12 13  1  6  0  0  0
 12 20  1  0  0  0  0
 14 15  1  1  0  0  0
 14 22  1  0  0  0  0
 16 17  1  6  0  0  0
 16 24  1  0  0  0  0
 18 19  1  6  0  0  0
 18 25  1  0  0  0  0
 20 21  1  6  0  0  0
 20 27  1  0  0  0  0
 22 23  1  6  0  0  0
 22 29  1  0  0  0  0
 24  2  1  1  0  0  0
 24 31  1  0  0  0  0
 25 26  1  0  0  0  0
 25 33  1  1  0  0  0
 27 28  1  6  0  0  0
 27 35  1  0  0  0  0
 29 30  1  0  0  0  0
 29 37  1  6  0  0  0
 31 32  1  6  0  0  0
 31 39  1  0  0  0  0
 33 34  1  0  0  0  0
 35 36  1  0  0  0  0
 35 41  1  6  0  0  0
 37 38  1  0  0  0  0
 39 40  1  1  0  0  0
 41 42  1  0  0  0  0
M  END
>  <CHROM.1>
154.55143337,-126.33227749,149.29844097,-1.82962937,129.15584084,27.70609185
163.04857028,174.54707937,-146.05081841,-0.53253820,2.07254937,13.46711978
-3.00201109,0.90028656,-2.27070677

>  <Name>
ligand

>  <RI>
0

>  <Rbt.Current_Directory>
/home/itssahil/PROJECTS/Mol_Feturizer/Test_systems_manuscript/rnas/2o3w

>  <Rbt.Executable>
rbdock ($Id: //depot/dev/client3/rdock/2013.1/src/exe/rbdock.cxx#4 $)

>  <Rbt.Library>
libRbt.so (2013.1, Build901 2013/11/27)

>  <Rbt.Parameter_File>
/export/apps/rDock/src/rDock_2013.1_src/data/scripts/dock_solv.prm

>  <Rbt.Receptor>
prm/blind_docking_40.prm

>  <SCORE>
36.0104

>  <SCORE.INTER>
10.3318

>  <SCORE.INTER.CONST>
1

>  <SCORE.INTER.POLAR>
0

>  <SCORE.INTER.ROT>
9

>  <SCORE.INTER.SOLV>
27.1565

>  <SCORE.INTER.VDW>
-11.7643

>  <SCORE.INTER.norm>
0.245995

>  <SCORE.INTRA>
8.11305

>  <SCORE.INTRA.DIHEDRAL>
5.25179

>  <SCORE.INTRA.DIHEDRAL.0>
27.8999

>  <SCORE.INTRA.POLAR>
0

>  <SCORE.INTRA.POLAR.0>
0

>  <SCORE.INTRA.REPUL>
0

>  <SCORE.INTRA.REPUL.0>
0

>  <SCORE.INTRA.SOLV>
2.20067

>  <SCORE.INTRA.SOLV.lig_0>
-104.479

>  <SCORE.INTRA.VDW>
4.38682

>  <SCORE.INTRA.VDW.0>
-6.17816

>  <SCORE.INTRA.norm>
0.193168

>  <SCORE.RESTR>
17.5656

>  <SCORE.RESTR.CAVITY>
17.5656

>  <SCORE.RESTR.norm>
0.418228

>  <SCORE.SYSTEM>
0

>  <SCORE.SYSTEM.CONST>
0

>  <SCORE.SYSTEM.DIHEDRAL>
0

>  <SCORE.SYSTEM.SOLV>
0

>  <SCORE.SYSTEM.norm>
0

>  <SCORE.heavy>
42

>  <SCORE.norm>
0.857392

>  <RMSD>
16.402

$$$$
ligand
 OpenBabel02271912133D
libRbt.so/2013.1/901 2013/11/27
 42 45  0  0  0  0  0  0  0  0999 V2000
   -2.5670    6.0521   12.5371 C   0  0  2  0  0  0  0  0  0  0  0  0
   -3.6016    5.4228   11.7620 O   0  0  0  0  0  0  0  0  0  0  0  0
   -3.8950    2.3430    8.7247 C   0  0  2  0  0  0  0  0  0  0  0  0
   -3.5879    1.4308    7.5828 N   0  0  0  0  0  0  0  0  0  0  0  0
   -1.2958    1.9310   12.4216 C   0  0  1  0  0  0  0  0  0  0  0  0
    1.3046   -0.7712   14.9502 C   0  0  1  0  0  0  0  0  0  0  0  0
   -3.2641    6.7558   13.7401 C   0  0  2  0  0  0  0  0  0  0  0  0
   -4.1944    5.8635   14.4533 N   0  0  0  0  0  0  0  0  0  0  0  0
   -3.9653    3.8508    8.2521 C   0  0  0  0  0  0  0  0  0  0  0  0
   -0.0865    2.2025   13.3675 C   0  0  2  0  0  0  0  0  0  0  0  0
    1.1894    2.2797   12.6854 O   0  0  0  0  0  0  0  0  0  0  0  0
    1.8712    0.1944   16.0526 C   0  0  2  0  0  0  0  0  0  0  0  0
    2.6512    1.3089   15.4359 N   0  0  0  0  0  0  0  0  0  0  0  0
   -4.0766    7.9892   13.3047 C   0  0  1  0  0  0  0  0  0  0  0  0
   -4.6641    8.6244   14.4415 O   0  0  0  0  0  0  0  0  0  0  0  0
   -4.3134    4.7585    9.4920 C   0  0  2  0  0  0  0  0  0  0  0  0
   -4.4021    6.1854    9.0799 N   0  0  0  0  0  0  0  0  0  0  0  0
   -0.2323    1.0583   14.3719 C   0  0  2  0  0  0  0  0  0  0  0  0
    0.5089   -0.1292   13.9461 O   0  0  0  0  0  0  0  0  0  0  0  0
    2.7757   -0.6439   17.0754 C   0  0  1  0  0  0  0  0  0  0  0  0
    1.9128   -1.4438   17.9147 O   0  0  0  0  0  0  0  0  0  0  0  0
   -3.1612    8.9609   12.5255 C   0  0  2  0  0  0  0  0  0  0  0  0
   -3.8863   10.1035   12.1342 O   0  0  0  0  0  0  0  0  0  0  0  0
   -3.2212    4.6001   10.6223 C   0  0  2  0  0  0  0  0  0  0  0  0
   -1.7397    0.7689   14.4698 C   0  0  2  0  0  0  0  0  0  0  0  0
   -2.2156    1.1013   13.1677 O   0  0  0  0  0  0  0  0  0  0  0  0
    3.8341   -1.5929   16.3361 C   0  0  2  0  0  0  0  0  0  0  0  0
    4.8135   -0.7532   15.7262 O   0  0  0  0  0  0  0  0  0  0  0  0
   -2.5778    8.2212   11.2757 C   0  0  2  0  0  0  0  0  0  0  0  0
   -1.8385    7.0349   11.7069 O   0  0  0  0  0  0  0  0  0  0  0  0
   -3.0565    3.1391   11.0954 C   0  0  2  0  0  0  0  0  0  0  0  0
   -1.9044    3.1524   11.9825 O   0  0  0  0  0  0  0  0  0  0  0  0
   -2.4956    1.5799   15.5676 C   0  0  0  0  0  0  0  0  0  0  0  0
   -2.3962    2.9708   15.2772 O   0  0  0  0  0  0  0  0  0  0  0  0
    3.1200   -2.4784   15.2460 C   0  0  1  0  0  0  0  0  0  0  0  0
    2.4525   -1.5387   14.3286 O   0  0  0  0  0  0  0  0  0  0  0  0
   -1.6615    9.0995   10.4555 C   0  0  0  0  0  0  0  0  0  0  0  0
   -2.3591   10.2308    9.9942 O   0  0  0  0  0  0  0  0  0  0  0  0
   -2.7994    2.1858    9.8541 C   0  0  1  0  0  0  0  0  0  0  0  0
   -2.7981    0.8186   10.2739 O   0  0  0  0  0  0  0  0  0  0  0  0
    4.1050   -3.4296   14.4375 C   0  0  0  0  0  0  0  0  0  0  0  0
    5.5319   -3.0053   14.4134 N   0  0  0  0  0  0  0  0  0  0  0  0
  1  2  1  6  0  0  0
  1  7  1  0  0  0  0
  1 30  1  0  0  0  0
  3  4  1  6  0  0  0
  3  9  1  0  0  0  0
  3 39  1  0  0  0  0
  5 10  1  0  0  0  0
  5 26  1  0  0  0  0
  5 32  1  1  0  0  0
  6 12  1  0  0  0  0
  6 36  1  0  0  0  0
  6 19  1  6  0  0  0
  7  8  1  6  0  0  0
  7 14  1  0  0  0  0
  9 16  1  0  0  0  0
 10 11  1  6  0  0  0
 10 18  1  0  0  0  0
 12 13  1  6  0  0  0
 12 20  1  0  0  0  0
 14 15  1  1  0  0  0
 14 22  1  0  0  0  0
 16 17  1  6  0  0  0
 16 24  1  0  0  0  0
 18 19  1  6  0  0  0
 18 25  1  0  0  0  0
 20 21  1  6  0  0  0
 20 27  1  0  0  0  0
 22 23  1  6  0  0  0
 22 29  1  0  0  0  0
 24  2  1  1  0  0  0
 24 31  1  0  0  0  0
 25 26  1  0  0  0  0
 25 33  1  1  0  0  0
 27 28  1  6  0  0  0
 27 35  1  0  0  0  0
 29 30  1  0  0  0  0
 29 37  1  1  0  0  0
 31 32  1  1  0  0  0
 31 39  1  0  0  0  0
 33 34  1  0  0  0  0
 35 36  1  0  0  0  0
 35 41  1  6  0  0  0
 37 38  1  0  0  0  0
 39 40  1  1  0  0  0
 41 42  1  0  0  0  0
M  END
>  <CHROM.1>
-175.40113496,-145.53116342,134.03833810,-30.37218214,61.80113569,-59.81368244
-168.30360967,-179.72814448,-22.90353157,-1.09351837,3.03190074,12.92779514
-2.72081817,0.91825766,-2.53624531

>  <Name>
ligand

>  <RI>
0

>  <Rbt.Current_Directory>
/home/itssahil/PROJECTS/Mol_Feturizer/Test_systems_manuscript/rnas/2o3w

>  <Rbt.Executable>
rbdock ($Id: //depot/dev/client3/rdock/2013.1/src/exe/rbdock.cxx#4 $)

>  <Rbt.Library>
libRbt.so (2013.1, Build901 2013/11/27)

>  <Rbt.Parameter_File>
/export/apps/rDock/src/rDock_2013.1_src/data/scripts/dock_solv.prm

>  <Rbt.Receptor>
prm/blind_docking_40.prm

>  <SCORE>
22.4384

>  <SCORE.INTER>
8.16364

>  <SCORE.INTER.CONST>
1

>  <SCORE.INTER.POLAR>
0

>  <SCORE.INTER.ROT>
9

>  <SCORE.INTER.SOLV>
28.4204

>  <SCORE.INTER.VDW>
-13.6311

>  <SCORE.INTER.norm>
0.194372

>  <SCORE.INTRA>
-1.77817

>  <SCORE.INTRA.DIHEDRAL>
-9.26429

>  <SCORE.INTRA.DIHEDRAL.0>
27.8999

>  <SCORE.INTRA.POLAR>
0

>  <SCORE.INTRA.POLAR.0>
0

>  <SCORE.INTRA.REPUL>
0

>  <SCORE.INTRA.REPUL.0>
0

>  <SCORE.INTRA.SOLV>
0.125729

>  <SCORE.INTRA.SOLV.lig_0>
-104.479

>  <SCORE.INTRA.VDW>
2.79112

>  <SCORE.INTRA.VDW.0>
-6.17816

>  <SCORE.INTRA.norm>
-0.0423373

>  <SCORE.RESTR>
16.0529

>  <SCORE.RESTR.CAVITY>
16.0529

>  <SCORE.RESTR.norm>
0.382212

>  <SCORE.SYSTEM>
0

>  <SCORE.SYSTEM.CONST>
0

>  <SCORE.SYSTEM.DIHEDRAL>
0

>  <SCORE.SYSTEM.SOLV>
0

>  <SCORE.SYSTEM.norm>
0

>  <SCORE.heavy>
42

>  <SCORE.norm>
0.534247

>  <RMSD>
16.403

$$$$
ligand
 OpenBabel02271912133D
libRbt.so/2013.1/901 2013/11/27
 42 45  0  0  0  0  0  0  0  0999 V2000
   -5.7613    8.4553   11.6028 C   0  0  2  0  0  0  0  0  0  0  0  0
   -4.7266    8.5791   12.5934 O   0  0  0  0  0  0  0  0  0  0  0  0
   -2.4732   11.8191   10.7987 C   0  0  2  0  0  0  0  0  0  0  0  0
   -1.5248   12.9537   10.5902 N   0  0  0  0  0  0  0  0  0  0  0  0
   -2.3474    6.8708   12.1418 C   0  0  1  0  0  0  0  0  0  0  0  0
   -2.3706    2.3984   12.4483 C   0  0  1  0  0  0  0  0  0  0  0  0
   -6.6887    7.2883   12.0568 C   0  0  2  0  0  0  0  0  0  0  0  0
   -7.1111    7.4180   13.4623 N   0  0  0  0  0  0  0  0  0  0  0  0
   -3.5998   12.1971   11.8426 C   0  0  0  0  0  0  0  0  0  0  0  0
   -1.1360    5.9129   11.9277 C   0  0  2  0  0  0  0  0  0  0  0  0
   -0.8340    5.6467   10.5359 O   0  0  0  0  0  0  0  0  0  0  0  0
   -3.5269    2.1190   13.4748 C   0  0  2  0  0  0  0  0  0  0  0  0
   -3.4628    3.0722   14.6229 N   0  0  0  0  0  0  0  0  0  0  0  0
   -6.0071    5.9141   11.9223 C   0  0  1  0  0  0  0  0  0  0  0  0
   -6.9051    4.8733   12.3110 O   0  0  0  0  0  0  0  0  0  0  0  0
   -4.5787   10.9729   12.0026 C   0  0  2  0  0  0  0  0  0  0  0  0
   -5.6619   11.2994   12.9688 N   0  0  0  0  0  0  0  0  0  0  0  0
   -1.5657    4.7009   12.7557 C   0  0  2  0  0  0  0  0  0  0  0  0
   -2.3245    3.7421   11.9522 O   0  0  0  0  0  0  0  0  0  0  0  0
   -3.4299    0.6018   13.9803 C   0  0  1  0  0  0  0  0  0  0  0  0
   -3.8707   -0.2736   12.9181 O   0  0  0  0  0  0  0  0  0  0  0  0
   -5.5157    5.7223   10.4694 C   0  0  2  0  0  0  0  0  0  0  0  0
   -4.9039    4.4616   10.3255 O   0  0  0  0  0  0  0  0  0  0  0  0
   -3.7946    9.6938   12.4977 C   0  0  2  0  0  0  0  0  0  0  0  0
   -2.4159    5.2559   13.9110 C   0  0  2  0  0  0  0  0  0  0  0  0
   -3.0187    6.4141   13.3384 O   0  0  0  0  0  0  0  0  0  0  0  0
   -1.9491    0.1907   14.4338 C   0  0  2  0  0  0  0  0  0  0  0  0
   -1.6536    0.9013   15.6356 O   0  0  0  0  0  0  0  0  0  0  0  0
   -4.5106    6.8685   10.1149 C   0  0  2  0  0  0  0  0  0  0  0  0
   -5.1655    8.1659   10.2810 O   0  0  0  0  0  0  0  0  0  0  0  0
   -2.6388    9.2971   11.5532 C   0  0  2  0  0  0  0  0  0  0  0  0
   -1.9254    8.2368   12.2469 O   0  0  0  0  0  0  0  0  0  0  0  0
   -1.6168    5.6187   15.2009 C   0  0  0  0  0  0  0  0  0  0  0  0
   -0.8229    4.5025   15.5920 O   0  0  0  0  0  0  0  0  0  0  0  0
   -0.9032    0.5556   13.3135 C   0  0  1  0  0  0  0  0  0  0  0  0
   -1.0493    2.0016   13.0726 O   0  0  0  0  0  0  0  0  0  0  0  0
   -3.9821    6.7624    8.7031 C   0  0  0  0  0  0  0  0  0  0  0  0
   -4.0660    5.4322    8.2526 O   0  0  0  0  0  0  0  0  0  0  0  0
   -1.6878   10.5404   11.2972 C   0  0  1  0  0  0  0  0  0  0  0  0
   -0.7078   10.2164   10.3070 O   0  0  0  0  0  0  0  0  0  0  0  0
    0.6015    0.2113   13.6954 C   0  0  0  0  0  0  0  0  0  0  0  0
    1.1882    1.0274   14.7937 N   0  0  0  0  0  0  0  0  0  0  0  0
  1  2  1  1  0  0  0
  1  7  1  0  0  0  0
  1 30  1  0  0  0  0
  3  4  1  1  0  0  0
  3  9  1  0  0  0  0
  3 39  1  0  0  0  0
  5 10  1  0  0  0  0
  5 26  1  0  0  0  0
  5 32  1  1  0  0  0
  6 12  1  0  0  0  0
  6 36  1  0  0  0  0
  6 19  1  1  0  0  0
  7  8  1  1  0  0  0
  7 14  1  0  0  0  0
  9 16  1  0  0  0  0
 10 11  1  6  0  0  0
 10 18  1  0  0  0  0
 12 13  1  1  0  0  0
 12 20  1  0  0  0  0
 14 15  1  6  0  0  0
 14 22  1  0  0  0  0
 16 17  1  1  0  0  0
 16 24  1  0  0  0  0
 18 19  1  6  0  0  0
 18 25  1  0  0  0  0
 20 21  1  6  0  0  0
 20 27  1  0  0  0  0
 22 23  1  1  0  0  0
 22 29  1  0  0  0  0
 24  2  1  6  0  0  0
 24 31  1  0  0  0  0
 25 26  1  0  0  0  0
 25 33  1  1  0  0  0
 27 28  1  1  0  0  0
 27 35  1  0  0  0  0
 29 30  1  0  0  0  0
 29 37  1  6  0  0  0
 31 32  1  1  0  0  0
 31 39  1  0  0  0  0
 33 34  1  0  0  0  0
 35 36  1  0  0  0  0
 35 41  1  1  0  0  0
 37 38  1  0  0  0  0
 39 40  1  6  0  0  0
 41 42  1  0  0  0  0
M  END
>  <CHROM.1>
-173.42452351,37.45285785,158.63853869,86.88837611,-52.25082162,-24.12639197
85.41709636,136.11775513,-67.76858091,-3.09358461,5.88224619,12.32371618
1.79707058,-0.27360387,-0.22127502

>  <Name>
ligand

>  <RI>
0

>  <Rbt.Current_Directory>
/home/itssahil/PROJECTS/Mol_Feturizer/Test_systems_manuscript/rnas/2o3w

>  <Rbt.Executable>
rbdock ($Id: //depot/dev/client3/rdock/2013.1/src/exe/rbdock.cxx#4 $)

>  <Rbt.Library>
libRbt.so (2013.1, Build901 2013/11/27)

>  <Rbt.Parameter_File>
/export/apps/rDock/src/rDock_2013.1_src/data/scripts/dock_solv.prm

>  <Rbt.Receptor>
prm/blind_docking_60.prm

>  <SCORE>
19.4077

>  <SCORE.INTER>
8.51941

>  <SCORE.INTER.CONST>
1

>  <SCORE.INTER.POLAR>
0

>  <SCORE.INTER.ROT>
9

>  <SCORE.INTER.SOLV>
29.5912

>  <SCORE.INTER.VDW>
-13.7841

>  <SCORE.INTER.norm>
0.202843

>  <SCORE.INTRA>
1.77651

>  <SCORE.INTRA.DIHEDRAL>
-7.7554

>  <SCORE.INTRA.DIHEDRAL.0>
27.8999

>  <SCORE.INTRA.POLAR>
0

>  <SCORE.INTRA.POLAR.0>
0

>  <SCORE.INTRA.REPUL>
0.347638

>  <SCORE.INTRA.REPUL.0>
0

>  <SCORE.INTRA.SOLV>
2.32465

>  <SCORE.INTRA.SOLV.lig_0>
-104.479

>  <SCORE.INTRA.VDW>
2.75369

>  <SCORE.INTRA.VDW.0>
-6.17816

>  <SCORE.INTRA.norm>
0.0422978

>  <SCORE.RESTR>
9.11176

>  <SCORE.RESTR.CAVITY>
9.11176

>  <SCORE.RESTR.norm>
0.216947

>  <SCORE.SYSTEM>
0

>  <SCORE.SYSTEM.CONST>
0

>  <SCORE.SYSTEM.DIHEDRAL>
0

>  <SCORE.SYSTEM.SOLV>
0

>  <SCORE.SYSTEM.norm>
0

>  <SCORE.heavy>
42

>  <SCORE.norm>
0.462087

>  <RMSD>
16.550

$$$$
ligand
 OpenBabel02271912133D
libRbt.so/2013.1/901 2013/11/27
 42 45  0  0  0  0  0  0  0  0999 V2000
   -6.0984    7.2970   11.8546 C   0  0  2  0  0  0  0  0  0  0  0  0
   -4.7939    7.0739   12.4164 O   0  0  0  0  0  0  0  0  0  0  0  0
   -2.9710   10.8307   11.2503 C   0  0  2  0  0  0  0  0  0  0  0  0
   -2.0239   11.9783   11.1218 N   0  0  0  0  0  0  0  0  0  0  0  0
   -2.9177    5.7539   11.3804 C   0  0  1  0  0  0  0  0  0  0  0  0
   -3.3921    1.9381   13.0240 C   0  0  1  0  0  0  0  0  0  0  0  0
   -6.6512    5.9059   11.4214 C   0  0  2  0  0  0  0  0  0  0  0  0
   -6.5391    4.8973   12.4894 N   0  0  0  0  0  0  0  0  0  0  0  0
   -3.5325   10.7122   12.7242 C   0  0  0  0  0  0  0  0  0  0  0  0
   -2.6471    4.5576   10.4179 C   0  0  2  0  0  0  0  0  0  0  0  0
   -3.7387    4.2744    9.5084 O   0  0  0  0  0  0  0  0  0  0  0  0
   -4.0608    2.5965   14.2842 C   0  0  2  0  0  0  0  0  0  0  0  0
   -3.5226    3.9702   14.5172 N   0  0  0  0  0  0  0  0  0  0  0  0
   -5.9119    5.3394   10.1952 C   0  0  1  0  0  0  0  0  0  0  0  0
   -6.4764    4.0849    9.8099 O   0  0  0  0  0  0  0  0  0  0  0  0
   -4.5393    9.5020   12.7910 C   0  0  2  0  0  0  0  0  0  0  0  0
   -5.0992    9.3699   14.1631 N   0  0  0  0  0  0  0  0  0  0  0  0
   -2.3089    3.4464   11.4129 C   0  0  2  0  0  0  0  0  0  0  0  0
   -3.5037    2.7061   11.8193 O   0  0  0  0  0  0  0  0  0  0  0  0
   -3.8192    1.6595   15.5611 C   0  0  1  0  0  0  0  0  0  0  0  0
   -4.6677    0.4944   15.4529 O   0  0  0  0  0  0  0  0  0  0  0  0
   -5.9705    6.3637    9.0391 C   0  0  2  0  0  0  0  0  0  0  0  0
   -5.3123    5.8529    7.9032 O   0  0  0  0  0  0  0  0  0  0  0  0
   -3.8207    8.1565   12.3799 C   0  0  2  0  0  0  0  0  0  0  0  0
   -1.6475    4.1403   12.6156 C   0  0  2  0  0  0  0  0  0  0  0  0
   -2.2738    5.4209   12.6317 O   0  0  0  0  0  0  0  0  0  0  0  0
   -2.2923    1.1982   15.7142 C   0  0  2  0  0  0  0  0  0  0  0  0
   -1.5278    2.3498   16.0686 O   0  0  0  0  0  0  0  0  0  0  0  0
   -5.3070    7.7014    9.5080 C   0  0  2  0  0  0  0  0  0  0  0  0
   -6.0011    8.2060   10.6927 O   0  0  0  0  0  0  0  0  0  0  0  0
   -3.1965    8.2179   10.9686 C   0  0  2  0  0  0  0  0  0  0  0  0
   -2.4327    6.9877   10.8349 O   0  0  0  0  0  0  0  0  0  0  0  0
   -0.0957    4.2757   12.5257 C   0  0  0  0  0  0  0  0  0  0  0  0
    0.4979    2.9892   12.6722 O   0  0  0  0  0  0  0  0  0  0  0  0
   -1.7593    0.5839   14.3649 C   0  0  1  0  0  0  0  0  0  0  0  0
   -1.9444    1.6255   13.3397 O   0  0  0  0  0  0  0  0  0  0  0  0
   -5.3263    8.7668    8.4365 C   0  0  0  0  0  0  0  0  0  0  0  0
   -4.5410    9.8655    8.8310 O   0  0  0  0  0  0  0  0  0  0  0  0
   -2.2498    9.4840   10.8416 C   0  0  1  0  0  0  0  0  0  0  0  0
   -1.7926    9.6252    9.4938 O   0  0  0  0  0  0  0  0  0  0  0  0
   -0.2366    0.1288   14.4174 C   0  0  0  0  0  0  0  0  0  0  0  0
    0.1401   -0.7206   15.5807 N   0  0  0  0  0  0  0  0  0  0  0  0
  1  2  1  6  0  0  0
  1  7  1  0  0  0  0
  1 30  1  0  0  0  0
  3  4  1  1  0  0  0
  3  9  1  0  0  0  0
  3 39  1  0  0  0  0
  5 10  1  0  0  0  0
  5 26  1  0  0  0  0
  5 32  1  6  0  0  0
  6 12  1  0  0  0  0
  6 36  1  0  0  0  0
  6 19  1  6  0  0  0
  7  8  1  1  0  0  0
  7 14  1  0  0  0  0
  9 16  1  0  0  0  0
 10 11  1  1  0  0  0
 10 18  1  0  0  0  0
 12 13  1  1  0  0  0
 12 20  1  0  0  0  0
 14 15  1  6  0  0  0
 14 22  1  0  0  0  0
 16 17  1  1  0  0  0
 16 24  1  0  0  0  0
 18 19  1  1  0  0  0
 18 25  1  0  0  0  0
 20 21  1  6  0  0  0
 20 27  1  0  0  0  0
 22 23  1  6  0  0  0
 22 29  1  0  0  0  0
 24  2  1  6  0  0  0
 24 31  1  0  0  0  0
 25 26  1  0  0  0  0
 25 33  1  6  0  0  0
 27 28  1  6  0  0  0
 27 35  1  0  0  0  0
 29 30  1  0  0  0  0
 29 37  1  6  0  0  0
 31 32  1  1  0  0  0
 31 39  1  0  0  0  0
 33 34  1  0  0  0  0
 35 36  1  0  0  0  0
 35 41  1  1  0  0  0
 37 38  1  0  0  0  0
 39 40  1  6  0  0  0
 41 42  1  0  0  0  0
M  END
>  <CHROM.1>
153.95460297,43.84218476,-161.46883765,102.35687455,-70.38954451,-170.86657986
37.71578123,139.69839799,49.34837957,-3.47354312,5.44898235,12.03458125,1.87838133
-0.57255504,-0.30626922

>  <Name>
ligand

>  <RI>
0

>  <Rbt.Current_Directory>
/home/itssahil/PROJECTS/Mol_Feturizer/Test_systems_manuscript/rnas/2o3w

>  <Rbt.Executable>
rbdock ($Id: //depot/dev/client3/rdock/2013.1/src/exe/rbdock.cxx#4 $)

>  <Rbt.Library>
libRbt.so (2013.1, Build901 2013/11/27)

>  <Rbt.Parameter_File>
/export/apps/rDock/src/rDock_2013.1_src/data/scripts/dock_solv.prm

>  <Rbt.Receptor>
prm/blind_docking_60.prm

>  <SCORE>
32.3092

>  <SCORE.INTER>
13.1779

>  <SCORE.INTER.CONST>
1

>  <SCORE.INTER.POLAR>
0

>  <SCORE.INTER.ROT>
9

>  <SCORE.INTER.SOLV>
25.1544

>  <SCORE.INTER.VDW>
-9.19951

>  <SCORE.INTER.norm>
0.31376

>  <SCORE.INTRA>
8.815

>  <SCORE.INTRA.DIHEDRAL>
-7.73458

>  <SCORE.INTRA.DIHEDRAL.0>
27.8999

>  <SCORE.INTRA.POLAR>
0

>  <SCORE.INTRA.POLAR.0>
0

>  <SCORE.INTRA.REPUL>
0.029248

>  <SCORE.INTRA.REPUL.0>
0

>  <SCORE.INTRA.SOLV>
5.7558

>  <SCORE.INTRA.SOLV.lig_0>
-104.479

>  <SCORE.INTRA.VDW>
9.65815

>  <SCORE.INTRA.VDW.0>
-6.17816

>  <SCORE.INTRA.norm>
0.209881

>  <SCORE.RESTR>
10.3162

>  <SCORE.RESTR.CAVITY>
10.3162

>  <SCORE.RESTR.norm>
0.245624

>  <SCORE.SYSTEM>
0

>  <SCORE.SYSTEM.CONST>
0

>  <SCORE.SYSTEM.DIHEDRAL>
0

>  <SCORE.SYSTEM.SOLV>
0

>  <SCORE.SYSTEM.norm>
0

>  <SCORE.heavy>
42

>  <SCORE.norm>
0.769266

>  <RMSD>
16.590

$$$$
ligand
 OpenBabel02271912133D
libRbt.so/2013.1/901 2013/11/27
 42 45  0  0  0  0  0  0  0  0999 V2000
   -4.4196    9.1282    9.7684 C   0  0  2  0  0  0  0  0  0  0  0  0
   -3.6839    7.9534    9.3864 O   0  0  0  0  0  0  0  0  0  0  0  0
   -6.8338    5.0264    9.9400 C   0  0  2  0  0  0  0  0  0  0  0  0
   -7.5700    3.7422   10.1379 N   0  0  0  0  0  0  0  0  0  0  0  0
   -2.8306    5.5921   11.8600 C   0  0  1  0  0  0  0  0  0  0  0  0
    0.0561    2.5575   12.8996 C   0  0  1  0  0  0  0  0  0  0  0  0
   -3.5594   10.3591    9.3524 C   0  0  2  0  0  0  0  0  0  0  0  0
   -3.0954   10.2768    7.9565 N   0  0  0  0  0  0  0  0  0  0  0  0
   -6.0931    5.0540    8.5427 C   0  0  0  0  0  0  0  0  0  0  0  0
   -1.6391    5.9490   12.8000 C   0  0  2  0  0  0  0  0  0  0  0  0
   -0.5627    6.6618   12.1424 O   0  0  0  0  0  0  0  0  0  0  0  0
   -0.3181    1.4689   11.8301 C   0  0  2  0  0  0  0  0  0  0  0  0
   -1.7678    1.5428   11.4783 N   0  0  0  0  0  0  0  0  0  0  0  0
   -2.3040   10.5180   10.2296 C   0  0  1  0  0  0  0  0  0  0  0  0
   -1.5681   11.6787    9.8394 O   0  0  0  0  0  0  0  0  0  0  0  0
   -5.3559    6.4373    8.3832 C   0  0  2  0  0  0  0  0  0  0  0  0
   -4.6588    6.5037    7.0704 N   0  0  0  0  0  0  0  0  0  0  0  0
   -1.2776    4.5713   13.3574 C   0  0  2  0  0  0  0  0  0  0  0  0
   -0.2775    3.9003   12.5265 O   0  0  0  0  0  0  0  0  0  0  0  0
    0.0637    0.0192   12.3954 C   0  0  1  0  0  0  0  0  0  0  0  0
    1.5007   -0.1321   12.3609 O   0  0  0  0  0  0  0  0  0  0  0  0
   -2.7195   10.5867   11.7168 C   0  0  2  0  0  0  0  0  0  0  0  0
   -1.5824   10.7491   12.5324 O   0  0  0  0  0  0  0  0  0  0  0  0
   -4.3115    6.6497    9.5494 C   0  0  2  0  0  0  0  0  0  0  0  0
   -2.5915    3.7732   13.4017 C   0  0  2  0  0  0  0  0  0  0  0  0
   -3.3314    4.3118   12.3085 O   0  0  0  0  0  0  0  0  0  0  0  0
   -0.4653   -0.2256   13.8879 C   0  0  2  0  0  0  0  0  0  0  0  0
   -1.8882   -0.3178   13.8310 O   0  0  0  0  0  0  0  0  0  0  0  0
   -3.4877    9.2761   12.0934 C   0  0  2  0  0  0  0  0  0  0  0  0
   -4.6570    9.1253   11.2276 O   0  0  0  0  0  0  0  0  0  0  0  0
   -4.9563    6.5789   10.9510 C   0  0  2  0  0  0  0  0  0  0  0  0
   -3.8427    6.6071   11.8856 O   0  0  0  0  0  0  0  0  0  0  0  0
   -3.3915    3.8960   14.7356 C   0  0  0  0  0  0  0  0  0  0  0  0
   -3.5892    5.2733   15.0404 O   0  0  0  0  0  0  0  0  0  0  0  0
   -0.0329    0.9591   14.8322 C   0  0  1  0  0  0  0  0  0  0  0  0
   -0.5764    2.1861   14.2244 O   0  0  0  0  0  0  0  0  0  0  0  0
   -3.9391    9.2606   13.5355 C   0  0  0  0  0  0  0  0  0  0  0  0
   -5.0405   10.1188   13.7081 O   0  0  0  0  0  0  0  0  0  0  0  0
   -5.7866    5.2363   11.1061 C   0  0  1  0  0  0  0  0  0  0  0  0
   -6.5051    5.2407   12.3427 O   0  0  0  0  0  0  0  0  0  0  0  0
   -0.5464    0.8137   16.3301 C   0  0  0  0  0  0  0  0  0  0  0  0
   -2.0230    0.8724   16.5114 N   0  0  0  0  0  0  0  0  0  0  0  0
  1  2  1  1  0  0  0
  1  7  1  0  0  0  0
  1 30  1  0  0  0  0
  3  4  1  1  0  0  0
  3  9  1  0  0  0  0
  3 39  1  0  0  0  0
  5 10  1  0  0  0  0
  5 26  1  0  0  0  0
  5 32  1  1  0  0  0
  6 12  1  0  0  0  0
  6 36  1  0  0  0  0
  6 19  1  6  0  0  0
  7  8  1  6  0  0  0
  7 14  1  0  0  0  0
  9 16  1  0  0  0  0
 10 11  1  6  0  0  0
 10 18  1  0  0  0  0
 12 13  1  1  0  0  0
 12 20  1  0  0  0  0
 14 15  1  6  0  0  0
 14 22  1  0  0  0  0
 16 17  1  6  0  0  0
 16 24  1  0  0  0  0
 18 19  1  6  0  0  0
 18 25  1  0  0  0  0
 20 21  1  1  0  0  0
 20 27  1  0  0  0  0
 22 23  1  1  0  0  0
 22 29  1  0  0  0  0
 24  2  1  6  0  0  0
 24 31  1  0  0  0  0
 25 26  1  0  0  0  0
 25 33  1  1  0  0  0
 27 28  1  6  0  0  0
 27 35  1  0  0  0  0
 29 30  1  0  0  0  0
 29 37  1  1  0  0  0
 31 32  1  1  0  0  0
 31 39  1  0  0  0  0
 33 34  1  0  0  0  0
 35 36  1  0  0  0  0
 35 41  1  1  0  0  0
 37 38  1  0  0  0  0
 39 40  1  1  0  0  0
 41 42  1  0  0  0  0
M  END
>  <CHROM.1>
-174.54026475,76.92931289,-175.24987522,116.01105729,52.89107039,74.62696182
-59.96400291,171.39220505,-65.22803013,-2.87927834,5.49257085,11.93713536
2.01533033,-0.68622216,-0.11757622

>  <Name>
ligand

>  <RI>
0

>  <Rbt.Current_Directory>
/home/itssahil/PROJECTS/Mol_Feturizer/Test_systems_manuscript/rnas/2o3w

>  <Rbt.Executable>
rbdock ($Id: //depot/dev/client3/rdock/2013.1/src/exe/rbdock.cxx#4 $)

>  <Rbt.Library>
libRbt.so (2013.1, Build901 2013/11/27)

>  <Rbt.Parameter_File>
/export/apps/rDock/src/rDock_2013.1_src/data/scripts/dock_solv.prm

>  <Rbt.Receptor>
prm/blind_docking_60.prm

>  <SCORE>
12.8247

>  <SCORE.INTER>
7.39556

>  <SCORE.INTER.CONST>
1

>  <SCORE.INTER.POLAR>
0

>  <SCORE.INTER.ROT>
9

>  <SCORE.INTER.SOLV>
27.804

>  <SCORE.INTER.VDW>
-13.9376

>  <SCORE.INTER.norm>
0.176085

>  <SCORE.INTRA>
-4.41402

>  <SCORE.INTRA.DIHEDRAL>
-17.7868

>  <SCORE.INTRA.DIHEDRAL.0>
27.8999

>  <SCORE.INTRA.POLAR>
0

>  <SCORE.INTRA.POLAR.0>
0

>  <SCORE.INTRA.REPUL>
0

>  <SCORE.INTRA.REPUL.0>
0

>  <SCORE.INTRA.SOLV>
0.650112

>  <SCORE.INTRA.SOLV.lig_0>
-104.479

>  <SCORE.INTRA.VDW>
4.15432

>  <SCORE.INTRA.VDW.0>
-6.17816

>  <SCORE.INTRA.norm>
-0.105096

>  <SCORE.RESTR>
9.84315

>  <SCORE.RESTR.CAVITY>
9.84315

>  <SCORE.RESTR.norm>
0.234361

>  <SCORE.SYSTEM>
0

>  <SCORE.SYSTEM.CONST>
0

>  <SCORE.SYSTEM.DIHEDRAL>
0

>  <SCORE.SYSTEM.SOLV>
0

>  <SCORE.SYSTEM.norm>
0

>  <SCORE.heavy>
42

>  <SCORE.norm>
0.30535

>  <RMSD>
16.672

$$$$
ligand
 OpenBabel02271912133D
libRbt.so/2013.1/901 2013/11/27
 42 45  0  0  0  0  0  0  0  0999 V2000
   -3.9424    7.9164   11.9982 C   0  0  2  0  0  0  0  0  0  0  0  0
   -5.0322    7.9898   11.0632 O   0  0  0  0  0  0  0  0  0  0  0  0
   -5.5494    5.4314    7.6015 C   0  0  2  0  0  0  0  0  0  0  0  0
   -5.4039    4.8110    6.2509 N   0  0  0  0  0  0  0  0  0  0  0  0
   -2.1791    5.1066   10.8865 C   0  0  1  0  0  0  0  0  0  0  0  0
    0.1053    2.4345   13.6295 C   0  0  1  0  0  0  0  0  0  0  0  0
   -4.4450    8.5437   13.3331 C   0  0  2  0  0  0  0  0  0  0  0  0
   -5.7417    7.9914   13.7624 N   0  0  0  0  0  0  0  0  0  0  0  0
   -6.0609    6.9244    7.4953 C   0  0  0  0  0  0  0  0  0  0  0  0
   -1.0596    5.5654   11.8699 C   0  0  2  0  0  0  0  0  0  0  0  0
    0.2272    5.7793   11.2395 O   0  0  0  0  0  0  0  0  0  0  0  0
    1.1765    1.3463   13.2591 C   0  0  2  0  0  0  0  0  0  0  0  0
    0.7643    0.5847   12.0422 N   0  0  0  0  0  0  0  0  0  0  0  0
   -4.6234   10.0697   13.2310 C   0  0  1  0  0  0  0  0  0  0  0  0
   -5.0461   10.6061   14.4857 O   0  0  0  0  0  0  0  0  0  0  0  0
   -6.2156    7.5153    8.9477 C   0  0  2  0  0  0  0  0  0  0  0  0
   -6.7101    8.9171    8.8860 N   0  0  0  0  0  0  0  0  0  0  0  0
   -1.1076    4.4503   12.9156 C   0  0  2  0  0  0  0  0  0  0  0  0
   -0.2035    3.3521   12.5729 O   0  0  0  0  0  0  0  0  0  0  0  0
    1.3872    0.3653   14.5081 C   0  0  1  0  0  0  0  0  0  0  0  0
    2.1353    1.0630   15.5292 O   0  0  0  0  0  0  0  0  0  0  0  0
   -3.2996   10.7131   12.7592 C   0  0  2  0  0  0  0  0  0  0  0  0
   -3.4413   12.1123   12.6767 O   0  0  0  0  0  0  0  0  0  0  0  0
   -4.8358    7.4733    9.7160 C   0  0  2  0  0  0  0  0  0  0  0  0
   -2.5694    3.9747   12.9624 C   0  0  2  0  0  0  0  0  0  0  0  0
   -3.0214    4.1948   11.6283 O   0  0  0  0  0  0  0  0  0  0  0  0
    0.0056   -0.1640   15.1234 C   0  0  2  0  0  0  0  0  0  0  0  0
   -0.5782   -1.0518   14.1709 O   0  0  0  0  0  0  0  0  0  0  0  0
   -2.9081   10.1138   11.3674 C   0  0  2  0  0  0  0  0  0  0  0  0
   -2.7764    8.6611   11.4768 O   0  0  0  0  0  0  0  0  0  0  0  0
   -4.2456    6.0491    9.8096 C   0  0  2  0  0  0  0  0  0  0  0  0
   -2.9151    6.2231   10.3700 O   0  0  0  0  0  0  0  0  0  0  0  0
   -3.4723    4.7230   13.9915 C   0  0  0  0  0  0  0  0  0  0  0  0
   -4.8132    4.2593   13.8654 O   0  0  0  0  0  0  0  0  0  0  0  0
   -0.9690    1.0385   15.4169 C   0  0  1  0  0  0  0  0  0  0  0  0
   -1.1442    1.7452   14.1362 O   0  0  0  0  0  0  0  0  0  0  0  0
   -1.6159   10.6850   10.8310 C   0  0  0  0  0  0  0  0  0  0  0  0
   -1.7710   12.0548   10.5501 O   0  0  0  0  0  0  0  0  0  0  0  0
   -4.1670    5.3917    8.3683 C   0  0  1  0  0  0  0  0  0  0  0  0
   -3.7642    4.0232    8.4716 O   0  0  0  0  0  0  0  0  0  0  0  0
   -2.3818    0.5997   16.0002 C   0  0  0  0  0  0  0  0  0  0  0  0
   -3.5102    1.5287   15.7170 N   0  0  0  0  0  0  0  0  0  0  0  0
  1  2  1  6  0  0  0
  1  7  1  0  0  0  0
  1 30  1  0  0  0  0
  3  4  1  6  0  0  0
  3  9  1  0  0  0  0
  3 39  1  0  0  0  0
  5 10  1  0  0  0  0
  5 26  1  0  0  0  0
  5 32  1  1  0  0  0
  6 12  1  0  0  0  0
  6 36  1  0  0  0  0
  6 19  1  6  0  0  0
  7  8  1  6  0  0  0
  7 14  1  0  0  0  0
  9 16  1  0  0  0  0
 10 11  1  6  0  0  0
 10 18  1  0  0  0  0
 12 13  1  6  0  0  0
 12 20  1  0  0  0  0
 14 15  1  1  0  0  0
 14 22  1  0  0  0  0
 16 17  1  6  0  0  0
 16 24  1  0  0  0  0
 18 19  1  6  0  0  0
 18 25  1  0  0  0  0
 20 21  1  1  0  0  0
 20 27  1  0  0  0  0
 22 23  1  6  0  0  0
 22 29  1  0  0  0  0
 24  2  1  1  0  0  0
 24 31  1  0  0  0  0
 25 26  1  0  0  0  0
 25 33  1  1  0  0  0
 27 28  1  6  0  0  0
 27 35  1  0  0  0  0
 29 30  1  0  0  0  0
 29 37  1  1  0  0  0
 31 32  1  6  0  0  0
 31 39  1  0  0  0  0
 33 34  1  0  0  0  0
 35 36  1  0  0  0  0
 35 41  1  6  0  0  0
 37 38  1  0  0  0  0
 39 40  1  1  0  0  0
 41 42  1  0  0  0  0
M  END
>  <CHROM.1>
179.76036304,173.47344591,163.92612850,-174.80009901,175.74221522,-65.78151554
165.58590078,-159.39775197,-152.98379563,-2.73865718,5.51797950,12.03611959
-2.50057199,1.01965442,-2.70252604

>  <Name>
ligand

>  <RI>
0

>  <Rbt.Current_Directory>
/home/itssahil/PROJECTS/Mol_Feturizer/Test_systems_manuscript/rnas/2o3w

>  <Rbt.Executable>
rbdock ($Id: //depot/dev/client3/rdock/2013.1/src/exe/rbdock.cxx#4 $)

>  <Rbt.Library>
libRbt.so (2013.1, Build901 2013/11/27)

>  <Rbt.Parameter_File>
/export/apps/rDock/src/rDock_2013.1_src/data/scripts/dock_solv.prm

>  <Rbt.Receptor>
prm/blind_docking_60.prm

>  <SCORE>
13.7644

>  <SCORE.INTER>
12.7903

>  <SCORE.INTER.CONST>
1

>  <SCORE.INTER.POLAR>
0

>  <SCORE.INTER.ROT>
9

>  <SCORE.INTER.SOLV>
28.4261

>  <SCORE.INTER.VDW>
-10.5485

>  <SCORE.INTER.norm>
0.304531

>  <SCORE.INTRA>
-9.41008

>  <SCORE.INTRA.DIHEDRAL>
-20.9218

>  <SCORE.INTRA.DIHEDRAL.0>
27.8999

>  <SCORE.INTRA.POLAR>
0

>  <SCORE.INTRA.POLAR.0>
0

>  <SCORE.INTRA.REPUL>
0

>  <SCORE.INTRA.REPUL.0>
0

>  <SCORE.INTRA.SOLV>
-3.02972

>  <SCORE.INTRA.SOLV.lig_0>
-104.479

>  <SCORE.INTRA.VDW>
2.56566

>  <SCORE.INTRA.VDW.0>
-6.17816

>  <SCORE.INTRA.norm>
-0.22405

>  <SCORE.RESTR>
10.3842

>  <SCORE.RESTR.CAVITY>
10.3842

>  <SCORE.RESTR.norm>
0.247243

>  <SCORE.SYSTEM>
0

>  <SCORE.SYSTEM.CONST>
0

>  <SCORE.SYSTEM.DIHEDRAL>
0

>  <SCORE.SYSTEM.SOLV>
0

>  <SCORE.SYSTEM.norm>
0

>  <SCORE.heavy>
42

>  <SCORE.norm>
0.327725

>  <RMSD>
16.744

$$$$
ligand
 OpenBabel02271912133D
libRbt.so/2013.1/901 2013/11/27
 42 45  0  0  0  0  0  0  0  0999 V2000
   -4.1466    9.3720    9.7193 C   0  0  2  0  0  0  0  0  0  0  0  0
   -3.5140    8.1038    9.4769 O   0  0  0  0  0  0  0  0  0  0  0  0
   -6.9446    5.5375   10.1412 C   0  0  2  0  0  0  0  0  0  0  0  0
   -7.8053    4.3507   10.4259 N   0  0  0  0  0  0  0  0  0  0  0  0
   -2.9878    5.9689   12.2053 C   0  0  1  0  0  0  0  0  0  0  0  0
   -0.9095    2.3275   13.8664 C   0  0  1  0  0  0  0  0  0  0  0  0
   -3.1378   10.4752    9.2792 C   0  0  2  0  0  0  0  0  0  0  0  0
   -2.5959   10.2376    7.9300 N   0  0  0  0  0  0  0  0  0  0  0  0
   -6.1366    5.3508    8.7944 C   0  0  0  0  0  0  0  0  0  0  0  0
   -2.7889    5.5455   13.6926 C   0  0  2  0  0  0  0  0  0  0  0  0
   -1.6857    6.2134   14.3529 O   0  0  0  0  0  0  0  0  0  0  0  0
    0.1378    2.3404   15.0377 C   0  0  2  0  0  0  0  0  0  0  0  0
    1.3750    3.0761   14.6389 N   0  0  0  0  0  0  0  0  0  0  0  0
   -1.9320   10.5777   10.2312 C   0  0  1  0  0  0  0  0  0  0  0  0
   -1.0556   11.6255    9.8128 O   0  0  0  0  0  0  0  0  0  0  0  0
   -5.2677    6.6398    8.5376 C   0  0  2  0  0  0  0  0  0  0  0  0
   -4.5036    6.5044    7.2682 N   0  0  0  0  0  0  0  0  0  0  0  0
   -2.6573    4.0280   13.5544 C   0  0  2  0  0  0  0  0  0  0  0  0
   -1.2635    3.6236   13.3680 O   0  0  0  0  0  0  0  0  0  0  0  0
    0.4760    0.8327   15.4611 C   0  0  1  0  0  0  0  0  0  0  0  0
   -0.6491    0.2875   16.1862 O   0  0  0  0  0  0  0  0  0  0  0  0
   -2.4332   10.8042   11.6757 C   0  0  2  0  0  0  0  0  0  0  0  0
   -1.3404   10.9170   12.5575 O   0  0  0  0  0  0  0  0  0  0  0  0
   -4.2668    6.8844    9.7353 C   0  0  2  0  0  0  0  0  0  0  0  0
   -3.5182    3.6359   12.3418 C   0  0  2  0  0  0  0  0  0  0  0  0
   -3.4351    4.7862   11.5036 O   0  0  0  0  0  0  0  0  0  0  0  0
    0.8104   -0.1057   14.2061 C   0  0  2  0  0  0  0  0  0  0  0  0
    2.0640    0.3187   13.6725 O   0  0  0  0  0  0  0  0  0  0  0  0
   -3.3563    9.6098   12.0890 C   0  0  2  0  0  0  0  0  0  0  0  0
   -4.4767    9.5076   11.1541 O   0  0  0  0  0  0  0  0  0  0  0  0
   -4.9836    7.0205   11.0965 C   0  0  2  0  0  0  0  0  0  0  0  0
   -3.9196    7.0519   12.0871 O   0  0  0  0  0  0  0  0  0  0  0  0
   -5.0028    3.2891   12.6733 C   0  0  0  0  0  0  0  0  0  0  0  0
   -5.0392    2.1717   13.5559 O   0  0  0  0  0  0  0  0  0  0  0  0
   -0.3157    0.0095   13.1102 C   0  0  1  0  0  0  0  0  0  0  0  0
   -0.3960    1.4369   12.7546 O   0  0  0  0  0  0  0  0  0  0  0  0
   -3.8990    9.7528   13.4921 C   0  0  0  0  0  0  0  0  0  0  0  0
   -4.7815   10.8463   13.5616 O   0  0  0  0  0  0  0  0  0  0  0  0
   -5.9411    5.7795   11.3392 C   0  0  1  0  0  0  0  0  0  0  0  0
   -6.7162    5.9786   12.5246 O   0  0  0  0  0  0  0  0  0  0  0  0
   -0.0466   -0.8664   11.8106 C   0  0  0  0  0  0  0  0  0  0  0  0
    1.2832   -0.6731   11.1698 N   0  0  0  0  0  0  0  0  0  0  0  0
  1  2  1  1  0  0  0
  1  7  1  0  0  0  0
  1 30  1  0  0  0  0
  3  4  1  1  0  0  0
  3  9  1  0  0  0  0
  3 39  1  0  0  0  0
  5 10  1  0  0  0  0
  5 26  1  0  0  0  0
  5 32  1  1  0  0  0
  6 12  1  0  0  0  0
  6 36  1  0  0  0  0
  6 19  1  6  0  0  0
  7  8  1  6  0  0  0
  7 14  1  0  0  0  0
  9 16  1  0  0  0  0
 10 11  1  6  0  0  0
 10 18  1  0  0  0  0
 12 13  1  6  0  0  0
 12 20  1  0  0  0  0
 14 15  1  6  0  0  0
 14 22  1  0  0  0  0
 16 17  1  6  0  0  0
 16 24  1  0  0  0  0
 18 19  1  6  0  0  0
 18 25  1  0  0  0  0
 20 21  1  6  0  0  0
 20 27  1  0  0  0  0
 22 23  1  1  0  0  0
 22 29  1  0  0  0  0
 24  2  1  6  0  0  0
 24 31  1  0  0  0  0
 25 26  1  0  0  0  0
 25 33  1  1  0  0  0
 27 28  1  6  0  0  0
 27 35  1  0  0  0  0
 29 30  1  0  0  0  0
 29 37  1  1  0  0  0
 31 32  1  1  0  0  0
 31 39  1  0  0  0  0
 33 34  1  0  0  0  0
 35 36  1  0  0  0  0
 35 41  1  6  0  0  0
 37 38  1  0  0  0  0
 39 40  1  1  0  0  0
 41 42  1  0  0  0  0
M  END
>  <CHROM.1>
-176.81369482,78.20534390,150.30639773,-115.71001780,-61.09819246,66.69360607
-58.59255448,-133.45207940,-52.17912889,-2.79097720,5.51890199,11.98490736
-2.01898599,0.48391265,2.98872720

>  <Name>
ligand

>  <RI>
0

>  <Rbt.Current_Directory>
/home/itssahil/PROJECTS/Mol_Feturizer/Test_systems_manuscript/rnas/2o3w

>  <Rbt.Executable>
rbdock ($Id: //depot/dev/client3/rdock/2013.1/src/exe/rbdock.cxx#4 $)

>  <Rbt.Library>
libRbt.so (2013.1, Build901 2013/11/27)

>  <Rbt.Parameter_File>
/export/apps/rDock/src/rDock_2013.1_src/data/scripts/dock_solv.prm

>  <Rbt.Receptor>
prm/blind_docking_60.prm

>  <SCORE>
24.2214

>  <SCORE.INTER>
13.3476

>  <SCORE.INTER.CONST>
1

>  <SCORE.INTER.POLAR>
0

>  <SCORE.INTER.ROT>
9

>  <SCORE.INTER.SOLV>
35.7726

>  <SCORE.INTER.VDW>
-12.6258

>  <SCORE.INTER.norm>
0.317801

>  <SCORE.INTRA>
0.223526

>  <SCORE.INTRA.DIHEDRAL>
-8.93265

>  <SCORE.INTRA.DIHEDRAL.0>
27.8999

>  <SCORE.INTRA.POLAR>
0

>  <SCORE.INTRA.POLAR.0>
0

>  <SCORE.INTRA.REPUL>
0

>  <SCORE.INTRA.REPUL.0>
0

>  <SCORE.INTRA.SOLV>
-2.34274

>  <SCORE.INTRA.SOLV.lig_0>
-104.479

>  <SCORE.INTRA.VDW>
5.86122

>  <SCORE.INTRA.VDW.0>
-6.17816

>  <SCORE.INTRA.norm>
0.00532204

>  <SCORE.RESTR>
10.6502

>  <SCORE.RESTR.CAVITY>
10.6502

>  <SCORE.RESTR.norm>
0.253577

>  <SCORE.SYSTEM>
0

>  <SCORE.SYSTEM.CONST>
0

>  <SCORE.SYSTEM.DIHEDRAL>
0

>  <SCORE.SYSTEM.SOLV>
0

>  <SCORE.SYSTEM.norm>
0

>  <SCORE.heavy>
42

>  <SCORE.norm>
0.5767

>  <RMSD>
16.786

$$$$
ligand
 OpenBabel02271912133D
libRbt.so/2013.1/901 2013/11/27
 42 45  0  0  0  0  0  0  0  0999 V2000
   -5.4728    6.4795    9.9661 C   0  0  2  0  0  0  0  0  0  0  0  0
   -5.8591    5.9084   11.2279 O   0  0  0  0  0  0  0  0  0  0  0  0
   -6.5611    9.5552   13.4650 C   0  0  2  0  0  0  0  0  0  0  0  0
   -7.0345   10.5309   14.4917 N   0  0  0  0  0  0  0  0  0  0  0  0
   -3.7914    5.2425   13.1803 C   0  0  1  0  0  0  0  0  0  0  0  0
   -0.4592    2.3355   12.5253 C   0  0  1  0  0  0  0  0  0  0  0  0
   -4.4853    5.4772    9.2963 C   0  0  2  0  0  0  0  0  0  0  0  0
   -5.0041    4.0983    9.2833 N   0  0  0  0  0  0  0  0  0  0  0  0
   -7.7721    8.9496   12.6472 C   0  0  0  0  0  0  0  0  0  0  0  0
   -2.3862    5.2904   13.8541 C   0  0  2  0  0  0  0  0  0  0  0  0
   -1.4730    6.2367   13.2461 O   0  0  0  0  0  0  0  0  0  0  0  0
   -1.2514    1.0399   12.1220 C   0  0  2  0  0  0  0  0  0  0  0  0
   -2.4439    0.8486   13.0007 N   0  0  0  0  0  0  0  0  0  0  0  0
   -3.1227    5.4330   10.0120 C   0  0  1  0  0  0  0  0  0  0  0  0
   -2.2380    4.5333    9.3422 O   0  0  0  0  0  0  0  0  0  0  0  0
   -7.2095    7.9483   11.5686 C   0  0  2  0  0  0  0  0  0  0  0  0
   -8.3230    7.3694   10.7694 N   0  0  0  0  0  0  0  0  0  0  0  0
   -1.9681    3.8214   13.7739 C   0  0  2  0  0  0  0  0  0  0  0  0
   -1.2428    3.5353   12.5358 O   0  0  0  0  0  0  0  0  0  0  0  0
   -0.2709   -0.2248   12.1990 C   0  0  1  0  0  0  0  0  0  0  0  0
    0.6431   -0.1761   11.0805 O   0  0  0  0  0  0  0  0  0  0  0  0
   -2.5306    6.8591   10.0821 C   0  0  2  0  0  0  0  0  0  0  0  0
   -1.2748    6.8333   10.7199 O   0  0  0  0  0  0  0  0  0  0  0  0
   -6.3931    6.7858   12.2600 C   0  0  2  0  0  0  0  0  0  0  0  0
   -3.2685    3.0047   13.8594 C   0  0  2  0  0  0  0  0  0  0  0  0
   -4.2292    3.8663   13.2534 O   0  0  0  0  0  0  0  0  0  0  0  0
    0.5599   -0.2853   13.5678 C   0  0  2  0  0  0  0  0  0  0  0  0
   -0.3597   -0.5849   14.6171 O   0  0  0  0  0  0  0  0  0  0  0  0
   -3.5251    7.7873   10.8561 C   0  0  2  0  0  0  0  0  0  0  0  0
   -4.8226    7.7898   10.1807 O   0  0  0  0  0  0  0  0  0  0  0  0
   -5.2243    7.3070   13.1246 C   0  0  2  0  0  0  0  0  0  0  0  0
   -4.7117    6.1369   13.8193 O   0  0  0  0  0  0  0  0  0  0  0  0
   -3.7029    2.6081   15.3045 C   0  0  0  0  0  0  0  0  0  0  0  0
   -2.7254    1.7384   15.8675 O   0  0  0  0  0  0  0  0  0  0  0  0
    1.2745    1.0911   13.8456 C   0  0  1  0  0  0  0  0  0  0  0  0
    0.2094    2.1086   13.8648 O   0  0  0  0  0  0  0  0  0  0  0  0
   -3.0264    9.2095   10.9670 C   0  0  0  0  0  0  0  0  0  0  0  0
   -1.7657    9.2341   11.5909 O   0  0  0  0  0  0  0  0  0  0  0  0
   -5.7469    8.3904   14.1585 C   0  0  1  0  0  0  0  0  0  0  0  0
   -4.6451    8.9815   14.8530 O   0  0  0  0  0  0  0  0  0  0  0  0
    2.0972    1.1307   15.2058 C   0  0  0  0  0  0  0  0  0  0  0  0
    2.9137   -0.0795   15.4980 N   0  0  0  0  0  0  0  0  0  0  0  0
  1  2  1  1  0  0  0
  1  7  1  0  0  0  0
  1 30  1  0  0  0  0
  3  4  1  1  0  0  0
  3  9  1  0  0  0  0
  3 39  1  0  0  0  0
  5 10  1  0  0  0  0
  5 26  1  0  0  0  0
  5 32  1  1  0  0  0
  6 12  1  0  0  0  0
  6 36  1  0  0  0  0
  6 19  1  1  0  0  0
  7  8  1  1  0  0  0
  7 14  1  0  0  0  0
  9 16  1  0  0  0  0
 10 11  1  6  0  0  0
 10 18  1  0  0  0  0
 12 13  1  1  0  0  0
 12 20  1  0  0  0  0
 14 15  1  6  0  0  0
 14 22  1  0  0  0  0
 16 17  1  1  0  0  0
 16 24  1  0  0  0  0
 18 19  1  6  0  0  0
 18 25  1  0  0  0  0
 20 21  1  6  0  0  0
 20 27  1  0  0  0  0
 22 23  1  1  0  0  0
 22 29  1  0  0  0  0
 24  2  1  6  0  0  0
 24 31  1  0  0  0  0
 25 26  1  0  0  0  0
 25 33  1  1  0  0  0
 27 28  1  1  0  0  0
 27 35  1  0  0  0  0
 29 30  1  0  0  0  0
 29 37  1  6  0  0  0
 31 32  1  1  0  0  0
 31 39  1  0  0  0  0
 33 34  1  0  0  0  0
 35 36  1  0  0  0  0
 35 41  1  1  0  0  0
 37 38  1  0  0  0  0
 39 40  1  6  0  0  0
 41 42  1  0  0  0  0
M  END
>  <CHROM.1>
159.27177670,33.38813687,161.57504509,86.12107516,-64.13713045,-56.96416435
82.38050258,112.91734602,43.01774420,-3.02848723,4.85269865,12.55923259,-2.84794364
-0.87582106,1.72945448

>  <Name>
ligand

>  <RI>
0

>  <Rbt.Current_Directory>
/home/itssahil/PROJECTS/Mol_Feturizer/Test_systems_manuscript/rnas/2o3w

>  <Rbt.Executable>
rbdock ($Id: //depot/dev/client3/rdock/2013.1/src/exe/rbdock.cxx#4 $)

>  <Rbt.Library>
libRbt.so (2013.1, Build901 2013/11/27)

>  <Rbt.Parameter_File>
/export/apps/rDock/src/rDock_2013.1_src/data/scripts/dock_solv.prm

>  <Rbt.Receptor>
prm/blind_docking_60.prm

>  <SCORE>
18.6948

>  <SCORE.INTER>
5.35762

>  <SCORE.INTER.CONST>
1

>  <SCORE.INTER.POLAR>
0

>  <SCORE.INTER.ROT>
9

>  <SCORE.INTER.SOLV>
20.479

>  <SCORE.INTER.VDW>
-12.8546

>  <SCORE.INTER.norm>
0.127562

>  <SCORE.INTRA>
1.03101

>  <SCORE.INTRA.DIHEDRAL>
-8.2982

>  <SCORE.INTRA.DIHEDRAL.0>
27.8999

>  <SCORE.INTRA.POLAR>
0

>  <SCORE.INTRA.POLAR.0>
0

>  <SCORE.INTRA.REPUL>
0.0621599

>  <SCORE.INTRA.REPUL.0>
0

>  <SCORE.INTRA.SOLV>
2.51925

>  <SCORE.INTRA.SOLV.lig_0>
-104.479

>  <SCORE.INTRA.VDW>
3.60969

>  <SCORE.INTRA.VDW.0>
-6.17816

>  <SCORE.INTRA.norm>
0.0245479

>  <SCORE.RESTR>
12.3062

>  <SCORE.RESTR.CAVITY>
12.3062

>  <SCORE.RESTR.norm>
0.293005

>  <SCORE.SYSTEM>
0

>  <SCORE.SYSTEM.CONST>
0

>  <SCORE.SYSTEM.DIHEDRAL>
0

>  <SCORE.SYSTEM.SOLV>
0

>  <SCORE.SYSTEM.norm>
0

>  <SCORE.heavy>
42

>  <SCORE.norm>
0.445115

>  <RMSD>
16.790

$$$$
ligand
 OpenBabel02271912133D
libRbt.so/2013.1/901 2013/11/27
 42 45  0  0  0  0  0  0  0  0999 V2000
   -3.9229    7.6275   12.8139 C   0  0  2  0  0  0  0  0  0  0  0  0
   -4.9336    7.3968   11.8177 O   0  0  0  0  0  0  0  0  0  0  0  0
   -5.1404    5.4766    7.9362 C   0  0  2  0  0  0  0  0  0  0  0  0
   -4.8010    4.9836    6.5679 N   0  0  0  0  0  0  0  0  0  0  0  0
   -3.2524    4.0276   12.2043 C   0  0  1  0  0  0  0  0  0  0  0  0
   -1.2626    0.7924   14.2897 C   0  0  1  0  0  0  0  0  0  0  0  0
   -4.5498    8.5644   13.8897 C   0  0  2  0  0  0  0  0  0  0  0  0
   -5.8626    8.0866   14.3574 N   0  0  0  0  0  0  0  0  0  0  0  0
   -5.1989    7.0567    7.9788 C   0  0  0  0  0  0  0  0  0  0  0  0
   -1.8069    3.5450   12.5332 C   0  0  2  0  0  0  0  0  0  0  0  0
   -1.3110    2.5176   11.6401 O   0  0  0  0  0  0  0  0  0  0  0  0
   -0.1378    1.2593   15.2825 C   0  0  2  0  0  0  0  0  0  0  0  0
    0.4125    2.5878   14.8784 N   0  0  0  0  0  0  0  0  0  0  0  0
   -4.7586    9.9974   13.3664 C   0  0  1  0  0  0  0  0  0  0  0  0
   -5.2969   10.8293   14.3955 O   0  0  0  0  0  0  0  0  0  0  0  0
   -5.5819    7.5140    9.4372 C   0  0  2  0  0  0  0  0  0  0  0  0
   -5.6603    8.9979    9.5103 N   0  0  0  0  0  0  0  0  0  0  0  0
   -1.9577    3.1324   13.9983 C   0  0  2  0  0  0  0  0  0  0  0  0
   -2.3379    1.7251   14.1245 O   0  0  0  0  0  0  0  0  0  0  0  0
    1.0166    0.1496   15.3333 C   0  0  1  0  0  0  0  0  0  0  0  0
    0.5349   -0.9919   16.0775 O   0  0  0  0  0  0  0  0  0  0  0  0
   -3.4176   10.5530   12.8353 C   0  0  2  0  0  0  0  0  0  0  0  0
   -3.5883   11.8708   12.3677 O   0  0  0  0  0  0  0  0  0  0  0  0
   -4.5212    6.9870   10.4827 C   0  0  2  0  0  0  0  0  0  0  0  0
   -3.0354    4.0560   14.5906 C   0  0  2  0  0  0  0  0  0  0  0  0
   -3.8803    4.3212   13.4734 O   0  0  0  0  0  0  0  0  0  0  0  0
    1.4912   -0.3215   13.8772 C   0  0  2  0  0  0  0  0  0  0  0  0
    2.1851    0.7709   13.2758 O   0  0  0  0  0  0  0  0  0  0  0  0
   -2.8975    9.6225   11.6892 C   0  0  2  0  0  0  0  0  0  0  0  0
   -2.7377    8.2598   12.1964 O   0  0  0  0  0  0  0  0  0  0  0  0
   -4.3684    5.4504   10.4581 C   0  0  2  0  0  0  0  0  0  0  0  0
   -3.2412    5.1646   11.3312 O   0  0  0  0  0  0  0  0  0  0  0  0
   -2.4966    5.3810   15.2138 C   0  0  0  0  0  0  0  0  0  0  0  0
   -3.5863    6.2676   15.4487 O   0  0  0  0  0  0  0  0  0  0  0  0
    0.2524   -0.7327   12.9948 C   0  0  1  0  0  0  0  0  0  0  0  0
   -0.6322    0.4447   12.9575 O   0  0  0  0  0  0  0  0  0  0  0  0
   -1.5808   10.0897   11.1133 C   0  0  0  0  0  0  0  0  0  0  0  0
   -1.1890    9.2494   10.0551 O   0  0  0  0  0  0  0  0  0  0  0  0
   -4.0763    4.9513    8.9812 C   0  0  1  0  0  0  0  0  0  0  0  0
   -4.0854    3.5219    8.9326 O   0  0  0  0  0  0  0  0  0  0  0  0
    0.6306   -1.1831   11.5174 C   0  0  0  0  0  0  0  0  0  0  0  0
   -0.4899   -1.1760   10.5372 N   0  0  0  0  0  0  0  0  0  0  0  0
  1  2  1  6  0  0  0
  1  7  1  0  0  0  0
  1 30  1  0  0  0  0
  3  4  1  6  0  0  0
  3  9  1  0  0  0  0
  3 39  1  0  0  0  0
  5 10  1  0  0  0  0
  5 26  1  0  0  0  0
  5 32  1  6  0  0  0
  6 12  1  0  0  0  0
  6 36  1  0  0  0  0
  6 19  1  6  0  0  0
  7  8  1  6  0  0  0
  7 14  1  0  0  0  0
  9 16  1  0  0  0  0
 10 11  1  6  0  0  0
 10 18  1  0  0  0  0
 12 13  1  6  0  0  0
 12 20  1  0  0  0  0
 14 15  1  1  0  0  0
 14 22  1  0  0  0  0
 16 17  1  6  0  0  0
 16 24  1  0  0  0  0
 18 19  1  6  0  0  0
 18 25  1  0  0  0  0
 20 21  1  1  0  0  0
 20 27  1  0  0  0  0
 22 23  1  6  0  0  0
 22 29  1  0  0  0  0
 24  2  1  1  0  0  0
 24 31  1  0  0  0  0
 25 26  1  0  0  0  0
 25 33  1  6  0  0  0
 27 28  1  6  0  0  0
 27 35  1  0  0  0  0
 29 30  1  0  0  0  0
 29 37  1  1  0  0  0
 31 32  1  1  0  0  0
 31 39  1  0  0  0  0
 33 34  1  0  0  0  0
 35 36  1  0  0  0  0
 35 41  1  6  0  0  0
 37 38  1  0  0  0  0
 39 40  1  1  0  0  0
 41 42  1  0  0  0  0
M  END
>  <CHROM.1>
157.68674586,-150.44325644,93.42291040,42.55788449,167.07720694,-177.66699805
141.07840697,154.11049061,-161.98934325,-2.63202087,4.98086007,12.31788710
-2.74652987,1.07495644,-2.26046760

>  <Name>
ligand

>  <RI>
0

>  <Rbt.Current_Directory>
/home/itssahil/PROJECTS/Mol_Feturizer/Test_systems_manuscript/rnas/2o3w

>  <Rbt.Executable>
rbdock ($Id: //depot/dev/client3/rdock/2013.1/src/exe/rbdock.cxx#4 $)

>  <Rbt.Library>
libRbt.so (2013.1, Build901 2013/11/27)

>  <Rbt.Parameter_File>
/export/apps/rDock/src/rDock_2013.1_src/data/scripts/dock_solv.prm

>  <Rbt.Receptor>
prm/blind_docking_60.prm

>  <SCORE>
29.9805

>  <SCORE.INTER>
19.89

>  <SCORE.INTER.CONST>
1

>  <SCORE.INTER.POLAR>
0

>  <SCORE.INTER.ROT>
9

>  <SCORE.INTER.SOLV>
25.1478

>  <SCORE.INTER.VDW>
-4.72261

>  <SCORE.INTER.norm>
0.473571

>  <SCORE.INTRA>
-1.3203

>  <SCORE.INTRA.DIHEDRAL>
-6.72261

>  <SCORE.INTRA.DIHEDRAL.0>
27.8999

>  <SCORE.INTRA.POLAR>
0

>  <SCORE.INTRA.POLAR.0>
0

>  <SCORE.INTRA.REPUL>
0

>  <SCORE.INTRA.REPUL.0>
0

>  <SCORE.INTRA.SOLV>
0.466718

>  <SCORE.INTRA.SOLV.lig_0>
-104.479

>  <SCORE.INTRA.VDW>
1.80764

>  <SCORE.INTRA.VDW.0>
-6.17816

>  <SCORE.INTRA.norm>
-0.0314357

>  <SCORE.RESTR>
11.4108

>  <SCORE.RESTR.CAVITY>
11.4108

>  <SCORE.RESTR.norm>
0.271686

>  <SCORE.SYSTEM>
0

>  <SCORE.SYSTEM.CONST>
0

>  <SCORE.SYSTEM.DIHEDRAL>
0

>  <SCORE.SYSTEM.SOLV>
0

>  <SCORE.SYSTEM.norm>
0

>  <SCORE.heavy>
42

>  <SCORE.norm>
0.713821

>  <RMSD>
16.801

$$$$
ligand
 OpenBabel02271912133D
libRbt.so/2013.1/901 2013/11/27
 42 45  0  0  0  0  0  0  0  0999 V2000
   -4.2818    9.5139    9.6726 C   0  0  2  0  0  0  0  0  0  0  0  0
   -3.6600    8.2609    9.3398 O   0  0  0  0  0  0  0  0  0  0  0  0
   -7.0406    5.6802   10.1812 C   0  0  2  0  0  0  0  0  0  0  0  0
   -7.8897    4.4791   10.4398 N   0  0  0  0  0  0  0  0  0  0  0  0
   -2.9004    5.7076   11.7877 C   0  0  1  0  0  0  0  0  0  0  0  0
   -0.1450    2.4058   13.0336 C   0  0  1  0  0  0  0  0  0  0  0  0
   -3.2685   10.6377    9.3004 C   0  0  2  0  0  0  0  0  0  0  0  0
   -2.7380   10.4886    7.9341 N   0  0  0  0  0  0  0  0  0  0  0  0
   -6.4448    5.6573    8.7161 C   0  0  0  0  0  0  0  0  0  0  0  0
   -1.6549    5.8405   12.7161 C   0  0  2  0  0  0  0  0  0  0  0  0
   -0.4752    6.3536   12.0497 O   0  0  0  0  0  0  0  0  0  0  0  0
    0.1157    1.2130   12.0446 C   0  0  2  0  0  0  0  0  0  0  0  0
   -1.1272    0.8601   11.2951 N   0  0  0  0  0  0  0  0  0  0  0  0
   -2.0550   10.6675   10.2479 C   0  0  1  0  0  0  0  0  0  0  0  0
   -1.1744   11.7355    9.8947 O   0  0  0  0  0  0  0  0  0  0  0  0
   -5.5801    6.9560    8.4965 C   0  0  2  0  0  0  0  0  0  0  0  0
   -5.0148    6.9746    7.1204 N   0  0  0  0  0  0  0  0  0  0  0  0
   -1.5396    4.4172   13.2640 C   0  0  2  0  0  0  0  0  0  0  0  0
   -0.6838    3.5833   12.4197 O   0  0  0  0  0  0  0  0  0  0  0  0
    0.6681   -0.0454   12.8681 C   0  0  1  0  0  0  0  0  0  0  0  0
    2.0361    0.2139   13.2557 O   0  0  0  0  0  0  0  0  0  0  0  0
   -2.5442   10.7988   11.7082 C   0  0  2  0  0  0  0  0  0  0  0  0
   -1.4443   10.8444   12.5872 O   0  0  0  0  0  0  0  0  0  0  0  0
   -4.4073    7.0294    9.5525 C   0  0  2  0  0  0  0  0  0  0  0  0
   -2.9744    3.8662   13.3195 C   0  0  2  0  0  0  0  0  0  0  0  0
   -3.6171    4.5346   12.2366 O   0  0  0  0  0  0  0  0  0  0  0  0
   -0.2063   -0.3682   14.1714 C   0  0  2  0  0  0  0  0  0  0  0  0
   -1.4711   -0.8607   13.7308 O   0  0  0  0  0  0  0  0  0  0  0  0
   -3.4727    9.5852   12.0467 C   0  0  2  0  0  0  0  0  0  0  0  0
   -4.6005    9.5540   11.1157 O   0  0  0  0  0  0  0  0  0  0  0  0
   -4.9125    6.9989   11.0117 C   0  0  2  0  0  0  0  0  0  0  0  0
   -3.7146    6.8867   11.8283 O   0  0  0  0  0  0  0  0  0  0  0  0
   -3.7262    4.1220   14.6625 C   0  0  0  0  0  0  0  0  0  0  0  0
   -3.6342    2.9605   15.4818 O   0  0  0  0  0  0  0  0  0  0  0  0
   -0.4003    0.9280   15.0456 C   0  0  1  0  0  0  0  0  0  0  0  0
   -1.0308    1.9256   14.1639 O   0  0  0  0  0  0  0  0  0  0  0  0
   -4.0043    9.6362   13.4604 C   0  0  0  0  0  0  0  0  0  0  0  0
   -4.7632    8.4839   13.7350 O   0  0  0  0  0  0  0  0  0  0  0  0
   -5.8653    5.7509   11.2367 C   0  0  1  0  0  0  0  0  0  0  0  0
   -6.4517    5.8065   12.5401 O   0  0  0  0  0  0  0  0  0  0  0  0
   -1.2877    0.7052   16.3463 C   0  0  0  0  0  0  0  0  0  0  0  0
   -0.7656   -0.2967   17.3160 N   0  0  0  0  0  0  0  0  0  0  0  0
  1  2  1  1  0  0  0
  1  7  1  0  0  0  0
  1 30  1  0  0  0  0
  3  4  1  1  0  0  0
  3  9  1  0  0  0  0
  3 39  1  0  0  0  0
  5 10  1  0  0  0  0
  5 26  1  0  0  0  0
  5 32  1  1  0  0  0
  6 12  1  0  0  0  0
  6 36  1  0  0  0  0
  6 19  1  6  0  0  0
  7  8  1  6  0  0  0
  7 14  1  0  0  0  0
  9 16  1  0  0  0  0
 10 11  1  6  0  0  0
 10 18  1  0  0  0  0
 12 13  1  1  0  0  0
 12 20  1  0  0  0  0
 14 15  1  6  0  0  0
 14 22  1  0  0  0  0
 16 17  1  6  0  0  0
 16 24  1  0  0  0  0
 18 19  1  6  0  0  0
 18 25  1  0  0  0  0
 20 21  1  1  0  0  0
 20 27  1  0  0  0  0
 22 23  1  1  0  0  0
 22 29  1  0  0  0  0
 24  2  1  6  0  0  0
 24 31  1  0  0  0  0
 25 26  1  0  0  0  0
 25 33  1  1  0  0  0
 27 28  1  6  0  0  0
 27 35  1  0  0  0  0
 29 30  1  0  0  0  0
 29 37  1  1  0  0  0
 31 32  1  1  0  0  0
 31 39  1  0  0  0  0
 33 34  1  0  0  0  0
 35 36  1  0  0  0  0
 35 41  1  1  0  0  0
 37 38  1  0  0  0  0
 39 40  1  1  0  0  0
 41 42  1  0  0  0  0
M  END
>  <CHROM.1>
-178.34289220,70.19144820,159.99567269,150.36944500,-97.60586355,-176.41900847
-66.34788722,178.37827838,60.06898922,-2.84603126,5.49388707,12.01719479
1.93969704,-0.42080481,-0.28368871

>  <Name>
ligand

>  <RI>
0

>  <Rbt.Current_Directory>
/home/itssahil/PROJECTS/Mol_Feturizer/Test_systems_manuscript/rnas/2o3w

>  <Rbt.Executable>
rbdock ($Id: //depot/dev/client3/rdock/2013.1/src/exe/rbdock.cxx#4 $)

>  <Rbt.Library>
libRbt.so (2013.1, Build901 2013/11/27)

>  <Rbt.Parameter_File>
/export/apps/rDock/src/rDock_2013.1_src/data/scripts/dock_solv.prm

>  <Rbt.Receptor>
prm/blind_docking_60.prm

>  <SCORE>
10.8282

>  <SCORE.INTER>
6.18599

>  <SCORE.INTER.CONST>
1

>  <SCORE.INTER.POLAR>
0

>  <SCORE.INTER.ROT>
9

>  <SCORE.INTER.SOLV>
29.3168

>  <SCORE.INTER.VDW>
-15.2483

>  <SCORE.INTER.norm>
0.147285

>  <SCORE.INTRA>
-7.0531

>  <SCORE.INTRA.DIHEDRAL>
-18.0708

>  <SCORE.INTRA.DIHEDRAL.0>
27.8999

>  <SCORE.INTRA.POLAR>
0

>  <SCORE.INTRA.POLAR.0>
0

>  <SCORE.INTRA.REPUL>
0

>  <SCORE.INTRA.REPUL.0>
0

>  <SCORE.INTRA.SOLV>
-3.30427

>  <SCORE.INTRA.SOLV.lig_0>
-104.479

>  <SCORE.INTRA.VDW>
3.63443

>  <SCORE.INTRA.VDW.0>
-6.17816

>  <SCORE.INTRA.norm>
-0.167931

>  <SCORE.RESTR>
11.6954

>  <SCORE.RESTR.CAVITY>
11.6954

>  <SCORE.RESTR.norm>
0.278461

>  <SCORE.SYSTEM>
0

>  <SCORE.SYSTEM.CONST>
0

>  <SCORE.SYSTEM.DIHEDRAL>
0

>  <SCORE.SYSTEM.SOLV>
0

>  <SCORE.SYSTEM.norm>
0

>  <SCORE.heavy>
42

>  <SCORE.norm>
0.257815

>  <RMSD>
16.809

$$$$
ligand
 OpenBabel02271912133D
libRbt.so/2013.1/901 2013/11/27
 42 45  0  0  0  0  0  0  0  0999 V2000
   -4.8808    7.2856   10.2055 C   0  0  2  0  0  0  0  0  0  0  0  0
   -5.5769    6.6492   11.2908 O   0  0  0  0  0  0  0  0  0  0  0  0
   -6.2873   10.1201   13.7897 C   0  0  2  0  0  0  0  0  0  0  0  0
   -6.8373   11.0440   14.8262 N   0  0  0  0  0  0  0  0  0  0  0  0
   -3.7669    5.6939   13.7230 C   0  0  1  0  0  0  0  0  0  0  0  0
   -0.7110    2.3792   14.0913 C   0  0  1  0  0  0  0  0  0  0  0  0
   -4.1758    6.1578    9.3936 C   0  0  2  0  0  0  0  0  0  0  0  0
   -5.0886    5.0521    9.0548 N   0  0  0  0  0  0  0  0  0  0  0  0
   -7.3798    9.7596   12.7042 C   0  0  0  0  0  0  0  0  0  0  0  0
   -3.3457    4.7675   14.9042 C   0  0  2  0  0  0  0  0  0  0  0  0
   -2.3658    5.3562   15.7943 O   0  0  0  0  0  0  0  0  0  0  0  0
    0.8434    2.5921   14.1762 C   0  0  2  0  0  0  0  0  0  0  0  0
    1.3605    3.2478   12.9378 N   0  0  0  0  0  0  0  0  0  0  0  0
   -2.9924    5.5386   10.1598 C   0  0  1  0  0  0  0  0  0  0  0  0
   -2.3528    4.5394    9.3640 O   0  0  0  0  0  0  0  0  0  0  0  0
   -6.7358    8.8040   11.6298 C   0  0  2  0  0  0  0  0  0  0  0  0
   -7.7338    8.4554   10.5828 N   0  0  0  0  0  0  0  0  0  0  0  0
   -2.8899    3.5161   14.1522 C   0  0  2  0  0  0  0  0  0  0  0  0
   -1.4634    3.5708   13.8314 O   0  0  0  0  0  0  0  0  0  0  0  0
    1.5580    1.1791   14.4206 C   0  0  1  0  0  0  0  0  0  0  0  0
    1.3237    0.7670   15.7859 O   0  0  0  0  0  0  0  0  0  0  0  0
   -2.0029    6.6534   10.5686 C   0  0  2  0  0  0  0  0  0  0  0  0
   -0.9050    6.1007   11.2567 O   0  0  0  0  0  0  0  0  0  0  0  0
   -6.1979    7.4834   12.3100 C   0  0  2  0  0  0  0  0  0  0  0  0
   -3.7460    3.4523   12.8761 C   0  0  2  0  0  0  0  0  0  0  0  0
   -3.9984    4.8259   12.5898 O   0  0  0  0  0  0  0  0  0  0  0  0
    1.0407    0.0392   13.4204 C   0  0  2  0  0  0  0  0  0  0  0  0
    1.5135    0.3651   12.1140 O   0  0  0  0  0  0  0  0  0  0  0  0
   -2.7502    7.6956   11.4658 C   0  0  2  0  0  0  0  0  0  0  0  0
   -3.8900    8.2474   10.7336 O   0  0  0  0  0  0  0  0  0  0  0  0
   -5.1646    7.7616   13.4237 C   0  0  2  0  0  0  0  0  0  0  0  0
   -4.9245    6.4726   14.0525 O   0  0  0  0  0  0  0  0  0  0  0  0
   -5.0792    2.6542   13.0172 C   0  0  0  0  0  0  0  0  0  0  0  0
   -4.8327    1.4499   13.7368 O   0  0  0  0  0  0  0  0  0  0  0  0
   -0.5331   -0.0345   13.4280 C   0  0  1  0  0  0  0  0  0  0  0  0
   -1.0075    1.3107   13.0600 O   0  0  0  0  0  0  0  0  0  0  0  0
   -1.8550    8.8300   11.9081 C   0  0  0  0  0  0  0  0  0  0  0  0
   -1.4821    9.6135   10.8007 O   0  0  0  0  0  0  0  0  0  0  0  0
   -5.7521    8.7974   14.4714 C   0  0  1  0  0  0  0  0  0  0  0  0
   -4.7443    9.1697   15.4154 O   0  0  0  0  0  0  0  0  0  0  0  0
   -1.1353   -1.1205   12.4347 C   0  0  0  0  0  0  0  0  0  0  0  0
   -2.6159   -1.2730   12.4711 N   0  0  0  0  0  0  0  0  0  0  0  0
  1  2  1  1  0  0  0
  1  7  1  0  0  0  0
  1 30  1  0  0  0  0
  3  4  1  1  0  0  0
  3  9  1  0  0  0  0
  3 39  1  0  0  0  0
  5 10  1  0  0  0  0
  5 26  1  0  0  0  0
  5 32  1  1  0  0  0
  6 12  1  0  0  0  0
  6 36  1  0  0  0  0
  6 19  1  6  0  0  0
  7  8  1  1  0  0  0
  7 14  1  0  0  0  0
  9 16  1  0  0  0  0
 10 11  1  6  0  0  0
 10 18  1  0  0  0  0
 12 13  1  6  0  0  0
 12 20  1  0  0  0  0
 14 15  1  6  0  0  0
 14 22  1  0  0  0  0
 16 17  1  6  0  0  0
 16 24  1  0  0  0  0
 18 19  1  6  0  0  0
 18 25  1  0  0  0  0
 20 21  1  1  0  0  0
 20 27  1  0  0  0  0
 22 23  1  1  0  0  0
 22 29  1  0  0  0  0
 24  2  1  6  0  0  0
 24 31  1  0  0  0  0
 25 26  1  0  0  0  0
 25 33  1  1  0  0  0
 27 28  1  6  0  0  0
 27 35  1  0  0  0  0
 29 30  1  0  0  0  0
 29 37  1  6  0  0  0
 31 32  1  1  0  0  0
 31 39  1  0  0  0  0
 33 34  1  0  0  0  0
 35 36  1  0  0  0  0
 35 41  1  6  0  0  0
 37 38  1  0  0  0  0
 39 40  1  1  0  0  0
 41 42  1  0  0  0  0
M  END
>  <CHROM.1>
172.79084791,34.29911616,134.54753903,-161.55976953,-43.59732464,66.93260845
99.83925286,152.92831048,176.66282545,-3.05678970,5.10323398,12.68049919
-2.93119304,-0.95826791,1.68968219

>  <Name>
ligand

>  <RI>
0

>  <Rbt.Current_Directory>
/home/itssahil/PROJECTS/Mol_Feturizer/Test_systems_manuscript/rnas/2o3w

>  <Rbt.Executable>
rbdock ($Id: //depot/dev/client3/rdock/2013.1/src/exe/rbdock.cxx#4 $)

>  <Rbt.Library>
libRbt.so (2013.1, Build901 2013/11/27)

>  <Rbt.Parameter_File>
/export/apps/rDock/src/rDock_2013.1_src/data/scripts/dock_solv.prm

>  <Rbt.Receptor>
prm/blind_docking_60.prm

>  <SCORE>
12.2136

>  <SCORE.INTER>
1.2249

>  <SCORE.INTER.CONST>
1

>  <SCORE.INTER.POLAR>
0

>  <SCORE.INTER.ROT>
9

>  <SCORE.INTER.SOLV>
24.9535

>  <SCORE.INTER.VDW>
-17.1012

>  <SCORE.INTER.norm>
0.0291642

>  <SCORE.INTRA>
-3.39665

>  <SCORE.INTRA.DIHEDRAL>
-7.49322

>  <SCORE.INTRA.DIHEDRAL.0>
27.8999

>  <SCORE.INTRA.POLAR>
0

>  <SCORE.INTRA.POLAR.0>
0

>  <SCORE.INTRA.REPUL>
0.304359

>  <SCORE.INTRA.REPUL.0>
0

>  <SCORE.INTRA.SOLV>
-2.75953

>  <SCORE.INTRA.SOLV.lig_0>
-104.479

>  <SCORE.INTRA.VDW>
0.20793

>  <SCORE.INTRA.VDW.0>
-6.17816

>  <SCORE.INTRA.norm>
-0.0808726

>  <SCORE.RESTR>
14.3853

>  <SCORE.RESTR.CAVITY>
14.3853

>  <SCORE.RESTR.norm>
0.342507

>  <SCORE.SYSTEM>
0

>  <SCORE.SYSTEM.CONST>
0

>  <SCORE.SYSTEM.DIHEDRAL>
0

>  <SCORE.SYSTEM.SOLV>
0

>  <SCORE.SYSTEM.norm>
0

>  <SCORE.heavy>
42

>  <SCORE.norm>
0.290799

>  <RMSD>
16.828

$$$$
ligand
 OpenBabel02271912133D
libRbt.so/2013.1/901 2013/11/27
 42 45  0  0  0  0  0  0  0  0999 V2000
   -3.4604    8.2194   12.4783 C   0  0  2  0  0  0  0  0  0  0  0  0
   -4.5351    7.9313   11.5675 O   0  0  0  0  0  0  0  0  0  0  0  0
   -4.9113    5.4199    8.0536 C   0  0  2  0  0  0  0  0  0  0  0  0
   -4.6586    4.7572    6.7393 N   0  0  0  0  0  0  0  0  0  0  0  0
   -2.4504    4.8754   12.2534 C   0  0  1  0  0  0  0  0  0  0  0  0
   -1.5415    2.7087   14.2415 C   0  0  1  0  0  0  0  0  0  0  0  0
   -4.0599    9.0779   13.6323 C   0  0  2  0  0  0  0  0  0  0  0  0
   -5.2844    8.4854   14.1982 N   0  0  0  0  0  0  0  0  0  0  0  0
   -5.1520    6.9731    7.8764 C   0  0  0  0  0  0  0  0  0  0  0  0
   -2.8141    5.4683   13.6487 C   0  0  2  0  0  0  0  0  0  0  0  0
   -1.6926    6.0634   14.3467 O   0  0  0  0  0  0  0  0  0  0  0  0
   -2.2089    1.5803   13.3754 C   0  0  2  0  0  0  0  0  0  0  0  0
   -2.9991    0.6468   14.2328 N   0  0  0  0  0  0  0  0  0  0  0  0
   -4.4259   10.5011   13.1726 C   0  0  1  0  0  0  0  0  0  0  0  0
   -4.9333   11.2630   14.2693 O   0  0  0  0  0  0  0  0  0  0  0  0
   -5.4343    7.6102    9.2895 C   0  0  2  0  0  0  0  0  0  0  0  0
   -5.6802    9.0717    9.1584 N   0  0  0  0  0  0  0  0  0  0  0  0
   -3.4501    4.2556   14.3300 C   0  0  2  0  0  0  0  0  0  0  0  0
   -2.4555    3.4599   15.0501 O   0  0  0  0  0  0  0  0  0  0  0  0
   -1.0725    0.7944   12.5645 C   0  0  1  0  0  0  0  0  0  0  0  0
   -0.5982    1.6365   11.4898 O   0  0  0  0  0  0  0  0  0  0  0  0
   -3.1851   11.1748   12.5435 C   0  0  2  0  0  0  0  0  0  0  0  0
   -3.4992   12.4850   12.1324 O   0  0  0  0  0  0  0  0  0  0  0  0
   -4.2166    7.3630   10.2652 C   0  0  2  0  0  0  0  0  0  0  0  0
   -4.1124    3.4375   13.2086 C   0  0  2  0  0  0  0  0  0  0  0  0
   -3.2792    3.7028   12.0827 O   0  0  0  0  0  0  0  0  0  0  0  0
    0.1620    0.3581   13.4882 C   0  0  2  0  0  0  0  0  0  0  0  0
   -0.3009   -0.6616   14.3727 O   0  0  0  0  0  0  0  0  0  0  0  0
   -2.6985   10.3158   11.3290 C   0  0  2  0  0  0  0  0  0  0  0  0
   -2.3881    8.9590   11.7790 O   0  0  0  0  0  0  0  0  0  0  0  0
   -3.8861    5.8648   10.4428 C   0  0  2  0  0  0  0  0  0  0  0  0
   -2.6491    5.8345   11.2066 O   0  0  0  0  0  0  0  0  0  0  0  0
   -5.5969    3.8127   12.9091 C   0  0  0  0  0  0  0  0  0  0  0  0
   -5.6815    5.2053   12.6221 O   0  0  0  0  0  0  0  0  0  0  0  0
    0.7031    1.5885   14.3102 C   0  0  1  0  0  0  0  0  0  0  0  0
   -0.4415    2.0985   15.0847 O   0  0  0  0  0  0  0  0  0  0  0  0
   -1.4790   10.9005   10.6547 C   0  0  0  0  0  0  0  0  0  0  0  0
   -1.8023   12.1277   10.0474 O   0  0  0  0  0  0  0  0  0  0  0  0
   -3.6905    5.1744    9.0283 C   0  0  1  0  0  0  0  0  0  0  0  0
   -3.5351    3.7614    9.1861 O   0  0  0  0  0  0  0  0  0  0  0  0
    1.9115    1.2369   15.2822 C   0  0  0  0  0  0  0  0  0  0  0  0
    2.9266    0.2974   14.7312 N   0  0  0  0  0  0  0  0  0  0  0  0
  1  2  1  6  0  0  0
  1  7  1  0  0  0  0
  1 30  1  0  0  0  0
  3  4  1  6  0  0  0
  3  9  1  0  0  0  0
  3 39  1  0  0  0  0
  5 10  1  0  0  0  0
  5 26  1  0  0  0  0
  5 32  1  6  0  0  0
  6 12  1  0  0  0  0
  6 36  1  0  0  0  0
  6 19  1  1  0  0  0
  7  8  1  6  0  0  0
  7 14  1  0  0  0  0
  9 16  1  0  0  0  0
 10 11  1  1  0  0  0
 10 18  1  0  0  0  0
 12 13  1  1  0  0  0
 12 20  1  0  0  0  0
 14 15  1  1  0  0  0
 14 22  1  0  0  0  0
 16 17  1  6  0  0  0
 16 24  1  0  0  0  0
 18 19  1  6  0  0  0
 18 25  1  0  0  0  0
 20 21  1  6  0  0  0
 20 27  1  0  0  0  0
 22 23  1  6  0  0  0
 22 29  1  0  0  0  0
 24  2  1  1  0  0  0
 24 31  1  0  0  0  0
 25 26  1  0  0  0  0
 25 33  1  6  0  0  0
 27 28  1  1  0  0  0
 27 35  1  0  0  0  0
 29 30  1  0  0  0  0
 29 37  1  1  0  0  0
 31 32  1  1  0  0  0
 31 39  1  0  0  0  0
 33 34  1  0  0  0  0
 35 36  1  0  0  0  0
 35 41  1  1  0  0  0
 37 38  1  0  0  0  0
 39 40  1  1  0  0  0
 41 42  1  0  0  0  0
M  END
>  <CHROM.1>
168.30802241,-160.19556434,-71.62752545,-64.34779496,55.32388953,-66.33202275
139.33680953,-95.37259446,40.41027117,-2.85871386,5.63418955,12.22141284
-2.28836856,1.00632322,-2.81449311

>  <Name>
ligand

>  <RI>
0

>  <Rbt.Current_Directory>
/home/itssahil/PROJECTS/Mol_Feturizer/Test_systems_manuscript/rnas/2o3w

>  <Rbt.Executable>
rbdock ($Id: //depot/dev/client3/rdock/2013.1/src/exe/rbdock.cxx#4 $)

>  <Rbt.Library>
libRbt.so (2013.1, Build901 2013/11/27)

>  <Rbt.Parameter_File>
/export/apps/rDock/src/rDock_2013.1_src/data/scripts/dock_solv.prm

>  <Rbt.Receptor>
prm/blind_docking_60.prm

>  <SCORE>
3.81084

>  <SCORE.INTER>
-2.26369

>  <SCORE.INTER.CONST>
1

>  <SCORE.INTER.POLAR>
0

>  <SCORE.INTER.ROT>
9

>  <SCORE.INTER.SOLV>
25.1943

>  <SCORE.INTER.VDW>
-19.5072

>  <SCORE.INTER.norm>
-0.0538975

>  <SCORE.INTRA>
-2.43346

>  <SCORE.INTRA.DIHEDRAL>
-13.0207

>  <SCORE.INTRA.DIHEDRAL.0>
27.8999

>  <SCORE.INTRA.POLAR>
0

>  <SCORE.INTRA.POLAR.0>
0

>  <SCORE.INTRA.REPUL>
0

>  <SCORE.INTRA.REPUL.0>
0

>  <SCORE.INTRA.SOLV>
0.299977

>  <SCORE.INTRA.SOLV.lig_0>
-104.479

>  <SCORE.INTRA.VDW>
3.92692

>  <SCORE.INTRA.VDW.0>
-6.17816

>  <SCORE.INTRA.norm>
-0.0579395

>  <SCORE.RESTR>
8.50799

>  <SCORE.RESTR.CAVITY>
8.50799

>  <SCORE.RESTR.norm>
0.202571

>  <SCORE.SYSTEM>
0

>  <SCORE.SYSTEM.CONST>
0

>  <SCORE.SYSTEM.DIHEDRAL>
0

>  <SCORE.SYSTEM.SOLV>
0

>  <SCORE.SYSTEM.norm>
0

>  <SCORE.heavy>
42

>  <SCORE.norm>
0.0907342

>  <RMSD>
16.874

$$$$
ligand
 OpenBabel02271912133D
libRbt.so/2013.1/901 2013/11/27
 42 45  0  0  0  0  0  0  0  0999 V2000
   -1.8594    8.6584   10.5407 C   0  0  2  0  0  0  0  0  0  0  0  0
   -2.1097    9.3805   11.7586 O   0  0  0  0  0  0  0  0  0  0  0  0
   -5.4275   10.6835   14.2264 C   0  0  2  0  0  0  0  0  0  0  0  0
   -6.8011   10.9126   14.7661 N   0  0  0  0  0  0  0  0  0  0  0  0
   -2.4457    6.6420   13.5899 C   0  0  1  0  0  0  0  0  0  0  0  0
   -0.1092    3.0132   14.9448 C   0  0  1  0  0  0  0  0  0  0  0  0
   -2.3739    9.5487    9.3699 C   0  0  2  0  0  0  0  0  0  0  0  0
   -1.8720   10.9315    9.4506 N   0  0  0  0  0  0  0  0  0  0  0  0
   -5.2404   11.3799   12.8186 C   0  0  0  0  0  0  0  0  0  0  0  0
   -2.8701    5.2976   14.2557 C   0  0  2  0  0  0  0  0  0  0  0  0
   -3.0074    5.3709   15.6961 O   0  0  0  0  0  0  0  0  0  0  0  0
    0.6862    2.3429   13.7672 C   0  0  2  0  0  0  0  0  0  0  0  0
   -0.1494    2.2726   12.5312 N   0  0  0  0  0  0  0  0  0  0  0  0
   -3.9108    9.6349    9.3330 C   0  0  1  0  0  0  0  0  0  0  0  0
   -4.3381   10.4264    8.2232 O   0  0  0  0  0  0  0  0  0  0  0  0
   -3.7703   11.1226   12.3133 C   0  0  2  0  0  0  0  0  0  0  0  0
   -3.5543   11.7775   10.9950 N   0  0  0  0  0  0  0  0  0  0  0  0
   -1.7813    4.3546   13.7413 C   0  0  2  0  0  0  0  0  0  0  0  0
   -0.6332    4.3135   14.6473 O   0  0  0  0  0  0  0  0  0  0  0  0
    1.1695    0.8837   14.2189 C   0  0  1  0  0  0  0  0  0  0  0  0
    2.2575    1.0225   15.1601 O   0  0  0  0  0  0  0  0  0  0  0  0
   -4.5058    8.2096    9.2721 C   0  0  2  0  0  0  0  0  0  0  0  0
   -5.9122    8.2716    9.2209 O   0  0  0  0  0  0  0  0  0  0  0  0
   -3.4875    9.5734   12.1884 C   0  0  2  0  0  0  0  0  0  0  0  0
   -1.3789    4.8867   12.3555 C   0  0  2  0  0  0  0  0  0  0  0  0
   -1.5921    6.2911   12.4766 O   0  0  0  0  0  0  0  0  0  0  0  0
   -0.0043    0.0167   14.8807 C   0  0  2  0  0  0  0  0  0  0  0  0
   -0.9346   -0.3081   13.8484 O   0  0  0  0  0  0  0  0  0  0  0  0
   -4.0331    7.4048   10.5284 C   0  0  2  0  0  0  0  0  0  0  0  0
   -2.5713    7.3628   10.5643 O   0  0  0  0  0  0  0  0  0  0  0  0
   -3.7057    8.8158   13.5164 C   0  0  2  0  0  0  0  0  0  0  0  0
   -3.5855    7.4070   13.1767 O   0  0  0  0  0  0  0  0  0  0  0  0
   -2.1922    4.2963   11.1622 C   0  0  0  0  0  0  0  0  0  0  0  0
   -1.9019    5.0390    9.9819 O   0  0  0  0  0  0  0  0  0  0  0  0
   -0.7204    0.8313   16.0234 C   0  0  1  0  0  0  0  0  0  0  0  0
   -1.2066    2.0732   15.3977 O   0  0  0  0  0  0  0  0  0  0  0  0
   -4.5656    5.9907   10.5474 C   0  0  0  0  0  0  0  0  0  0  0  0
   -5.9145    5.9858   10.9470 O   0  0  0  0  0  0  0  0  0  0  0  0
   -5.1466    9.1326   14.0988 C   0  0  1  0  0  0  0  0  0  0  0  0
   -5.2915    8.5543   15.3988 O   0  0  0  0  0  0  0  0  0  0  0  0
   -1.9246    0.0560   16.7143 C   0  0  0  0  0  0  0  0  0  0  0  0
   -3.1441   -0.1131   15.8772 N   0  0  0  0  0  0  0  0  0  0  0  0
  1  2  1  1  0  0  0
  1  7  1  0  0  0  0
  1 30  1  0  0  0  0
  3  4  1  6  0  0  0
  3  9  1  0  0  0  0
  3 39  1  0  0  0  0
  5 10  1  0  0  0  0
  5 26  1  0  0  0  0
  5 32  1  6  0  0  0
  6 12  1  0  0  0  0
  6 36  1  0  0  0  0
  6 19  1  6  0  0  0
  7  8  1  1  0  0  0
  7 14  1  0  0  0  0
  9 16  1  0  0  0  0
 10 11  1  1  0  0  0
 10 18  1  0  0  0  0
 12 13  1  6  0  0  0
 12 20  1  0  0  0  0
 14 15  1  6  0  0  0
 14 22  1  0  0  0  0
 16 17  1  6  0  0  0
 16 24  1  0  0  0  0
 18 19  1  1  0  0  0
 18 25  1  0  0  0  0
 20 21  1  1  0  0  0
 20 27  1  0  0  0  0
 22 23  1  1  0  0  0
 22 29  1  0  0  0  0
 24  2  1  1  0  0  0
 24 31  1  0  0  0  0
 25 26  1  0  0  0  0
 25 33  1  6  0  0  0
 27 28  1  6  0  0  0
 27 35  1  0  0  0  0
 29 30  1  0  0  0  0
 29 37  1  6  0  0  0
 31 32  1  6  0  0  0
 31 39  1  0  0  0  0
 33 34  1  0  0  0  0
 35 36  1  0  0  0  0
 35 41  1  6  0  0  0
 37 38  1  0  0  0  0
 39 40  1  1  0  0  0
 41 42  1  0  0  0  0
M  END
>  <CHROM.1>
68.53410982,-121.64971835,134.75680412,73.00059445,169.33039633,-77.16787192
108.46243026,131.09915083,-70.87678307,-2.66976581,6.16051338,12.71894839
-2.28265492,-0.96299307,2.12312680

>  <Name>
ligand

>  <RI>
0

>  <Rbt.Current_Directory>
/home/itssahil/PROJECTS/Mol_Feturizer/Test_systems_manuscript/rnas/2o3w

>  <Rbt.Executable>
rbdock ($Id: //depot/dev/client3/rdock/2013.1/src/exe/rbdock.cxx#4 $)

>  <Rbt.Library>
libRbt.so (2013.1, Build901 2013/11/27)

>  <Rbt.Parameter_File>
/export/apps/rDock/src/rDock_2013.1_src/data/scripts/dock_solv.prm

>  <Rbt.Receptor>
prm/blind_docking_60.prm

>  <SCORE>
16.1144

>  <SCORE.INTER>
-3.16887

>  <SCORE.INTER.CONST>
1

>  <SCORE.INTER.POLAR>
0

>  <SCORE.INTER.ROT>
9

>  <SCORE.INTER.SOLV>
21.5247

>  <SCORE.INTER.VDW>
-18.8875

>  <SCORE.INTER.norm>
-0.0754492

>  <SCORE.INTRA>
9.7936

>  <SCORE.INTRA.DIHEDRAL>
1.63622

>  <SCORE.INTRA.DIHEDRAL.0>
27.8999

>  <SCORE.INTRA.POLAR>
0

>  <SCORE.INTRA.POLAR.0>
0

>  <SCORE.INTRA.REPUL>
0.0841406

>  <SCORE.INTRA.REPUL.0>
0

>  <SCORE.INTRA.SOLV>
7.46637

>  <SCORE.INTRA.SOLV.lig_0>
-104.479

>  <SCORE.INTRA.VDW>
4.8216

>  <SCORE.INTRA.VDW.0>
-6.17816

>  <SCORE.INTRA.norm>
0.233181

>  <SCORE.RESTR>
9.48971

>  <SCORE.RESTR.CAVITY>
9.48971

>  <SCORE.RESTR.norm>
0.225945

>  <SCORE.SYSTEM>
0

>  <SCORE.SYSTEM.CONST>
0

>  <SCORE.SYSTEM.DIHEDRAL>
0

>  <SCORE.SYSTEM.SOLV>
0

>  <SCORE.SYSTEM.norm>
0

>  <SCORE.heavy>
42

>  <SCORE.norm>
0.383677

>  <RMSD>
16.883

$$$$
ligand
 OpenBabel02271912133D
libRbt.so/2013.1/901 2013/11/27
 42 45  0  0  0  0  0  0  0  0999 V2000
   -4.2574    9.3864   10.1469 C   0  0  2  0  0  0  0  0  0  0  0  0
   -3.2090    8.4123   10.2852 O   0  0  0  0  0  0  0  0  0  0  0  0
   -5.6866    5.0895   11.5566 C   0  0  2  0  0  0  0  0  0  0  0  0
   -6.1437    3.7441   12.0165 N   0  0  0  0  0  0  0  0  0  0  0  0
   -1.8771    6.6141   13.2016 C   0  0  1  0  0  0  0  0  0  0  0  0
    0.1832    2.7882   14.4461 C   0  0  1  0  0  0  0  0  0  0  0  0
   -3.5720   10.7525    9.8432 C   0  0  2  0  0  0  0  0  0  0  0  0
   -2.5882   10.6591    8.7505 N   0  0  0  0  0  0  0  0  0  0  0  0
   -5.0377    5.0137   10.1161 C   0  0  0  0  0  0  0  0  0  0  0  0
   -2.3082    5.3978   14.0765 C   0  0  2  0  0  0  0  0  0  0  0  0
   -2.1000    5.5906   15.4973 O   0  0  0  0  0  0  0  0  0  0  0  0
    0.6029    1.8622   13.2481 C   0  0  2  0  0  0  0  0  0  0  0  0
   -0.4743    1.8056   12.2149 N   0  0  0  0  0  0  0  0  0  0  0  0
   -2.8258   11.3166   11.0664 C   0  0  1  0  0  0  0  0  0  0  0  0
   -2.2478   12.5853   10.7548 O   0  0  0  0  0  0  0  0  0  0  0  0
   -4.5973    6.4617    9.6780 C   0  0  2  0  0  0  0  0  0  0  0  0
   -3.9944    6.4299    8.3182 N   0  0  0  0  0  0  0  0  0  0  0  0
   -1.4989    4.2692   13.4357 C   0  0  2  0  0  0  0  0  0  0  0  0
   -0.1886    4.1199   14.0694 O   0  0  0  0  0  0  0  0  0  0  0  0
    0.9438    0.3991   13.8049 C   0  0  1  0  0  0  0  0  0  0  0  0
    2.2133    0.4457   14.4942 O   0  0  0  0  0  0  0  0  0  0  0  0
   -3.7995   11.4184   12.2625 C   0  0  2  0  0  0  0  0  0  0  0  0
   -3.1357   11.9490   13.3860 O   0  0  0  0  0  0  0  0  0  0  0  0
   -3.5577    7.0622   10.7049 C   0  0  2  0  0  0  0  0  0  0  0  0
   -1.3601    4.6377   11.9490 C   0  0  2  0  0  0  0  0  0  0  0  0
   -1.3554    6.0631   11.9706 O   0  0  0  0  0  0  0  0  0  0  0  0
   -0.1825   -0.1681   14.7936 C   0  0  2  0  0  0  0  0  0  0  0  0
   -1.3468   -0.4346   14.0127 O   0  0  0  0  0  0  0  0  0  0  0  0
   -4.3707    9.9958   12.5784 C   0  0  2  0  0  0  0  0  0  0  0  0
   -5.0459    9.4630   11.3952 O   0  0  0  0  0  0  0  0  0  0  0  0
   -4.1040    7.1148   12.1485 C   0  0  2  0  0  0  0  0  0  0  0  0
   -2.9720    7.5103   12.9711 O   0  0  0  0  0  0  0  0  0  0  0  0
   -2.4956    4.0940   11.0274 C   0  0  0  0  0  0  0  0  0  0  0  0
   -2.5742    2.6783   11.1630 O   0  0  0  0  0  0  0  0  0  0  0  0
   -0.5110    0.8810   15.9221 C   0  0  1  0  0  0  0  0  0  0  0  0
   -0.9241    2.1129   15.2278 O   0  0  0  0  0  0  0  0  0  0  0  0
   -5.3416   10.0031   13.7363 C   0  0  0  0  0  0  0  0  0  0  0  0
   -5.9282    8.7330   13.8852 O   0  0  0  0  0  0  0  0  0  0  0  0
   -4.6438    5.6882   12.5835 C   0  0  1  0  0  0  0  0  0  0  0  0
   -5.2855    5.7713   13.8590 O   0  0  0  0  0  0  0  0  0  0  0  0
   -1.6466    0.4120   16.9316 C   0  0  0  0  0  0  0  0  0  0  0  0
   -3.0043    0.2522   16.3419 N   0  0  0  0  0  0  0  0  0  0  0  0
  1  2  1  1  0  0  0
  1  7  1  0  0  0  0
  1 30  1  0  0  0  0
  3  4  1  1  0  0  0
  3  9  1  0  0  0  0
  3 39  1  0  0  0  0
  5 10  1  0  0  0  0
  5 26  1  0  0  0  0
  5 32  1  6  0  0  0
  6 12  1  0  0  0  0
  6 36  1  0  0  0  0
  6 19  1  6  0  0  0
  7  8  1  6  0  0  0
  7 14  1  0  0  0  0
  9 16  1  0  0  0  0
 10 11  1  1  0  0  0
 10 18  1  0  0  0  0
 12 13  1  6  0  0  0
 12 20  1  0  0  0  0
 14 15  1  6  0  0  0
 14 22  1  0  0  0  0
 16 17  1  6  0  0  0
 16 24  1  0  0  0  0
 18 19  1  1  0  0  0
 18 25  1  0  0  0  0
 20 21  1  1  0  0  0
 20 27  1  0  0  0  0
 22 23  1  1  0  0  0
 22 29  1  0  0  0  0
 24  2  1  6  0  0  0
 24 31  1  0  0  0  0
 25 26  1  0  0  0  0
 25 33  1  6  0  0  0
 27 28  1  6  0  0  0
 27 35  1  0  0  0  0
 29 30  1  0  0  0  0
 29 37  1  1  0  0  0
 31 32  1  1  0  0  0
 31 39  1  0  0  0  0
 33 34  1  0  0  0  0
 35 36  1  0  0  0  0
 35 41  1  1  0  0  0
 37 38  1  0  0  0  0
 39 40  1  1  0  0  0
 41 42  1  0  0  0  0
M  END
>  <CHROM.1>
173.99265206,57.96741237,131.28516673,74.75284161,-56.33638342,173.80927632
-70.46058088,-67.96891258,-65.57857126,-2.66721649,5.68894263,12.64093678
2.16009091,-0.93318929,0.13798216

>  <Name>
ligand

>  <RI>
0

>  <Rbt.Current_Directory>
/home/itssahil/PROJECTS/Mol_Feturizer/Test_systems_manuscript/rnas/2o3w

>  <Rbt.Executable>
rbdock ($Id: //depot/dev/client3/rdock/2013.1/src/exe/rbdock.cxx#4 $)

>  <Rbt.Library>
libRbt.so (2013.1, Build901 2013/11/27)

>  <Rbt.Parameter_File>
/export/apps/rDock/src/rDock_2013.1_src/data/scripts/dock_solv.prm

>  <Rbt.Receptor>
prm/blind_docking_60.prm

>  <SCORE>
9.38032

>  <SCORE.INTER>
2.19175

>  <SCORE.INTER.CONST>
1

>  <SCORE.INTER.POLAR>
0

>  <SCORE.INTER.ROT>
9

>  <SCORE.INTER.SOLV>
28.1784

>  <SCORE.INTER.VDW>
-17.5316

>  <SCORE.INTER.norm>
0.0521845

>  <SCORE.INTRA>
-1.97025

>  <SCORE.INTRA.DIHEDRAL>
-18.8554

>  <SCORE.INTRA.DIHEDRAL.0>
27.8999

>  <SCORE.INTRA.POLAR>
0

>  <SCORE.INTRA.POLAR.0>
0

>  <SCORE.INTRA.REPUL>
0

>  <SCORE.INTRA.REPUL.0>
0

>  <SCORE.INTRA.SOLV>
3.38568

>  <SCORE.INTRA.SOLV.lig_0>
-104.479

>  <SCORE.INTRA.VDW>
5.76459

>  <SCORE.INTRA.VDW.0>
-6.17816

>  <SCORE.INTRA.norm>
-0.0469107

>  <SCORE.RESTR>
9.15882

>  <SCORE.RESTR.CAVITY>
9.15882

>  <SCORE.RESTR.norm>
0.218067

>  <SCORE.SYSTEM>
0

>  <SCORE.SYSTEM.CONST>
0

>  <SCORE.SYSTEM.DIHEDRAL>
0

>  <SCORE.SYSTEM.SOLV>
0

>  <SCORE.SYSTEM.norm>
0

>  <SCORE.heavy>
42

>  <SCORE.norm>
0.223341

>  <RMSD>
16.907

$$$$
ligand
 OpenBabel02271912133D
libRbt.so/2013.1/901 2013/11/27
 42 45  0  0  0  0  0  0  0  0999 V2000
   -3.9514    7.8897   12.1657 C   0  0  2  0  0  0  0  0  0  0  0  0
   -5.0341    7.9262   11.2203 O   0  0  0  0  0  0  0  0  0  0  0  0
   -5.5529    5.6184    7.5870 C   0  0  2  0  0  0  0  0  0  0  0  0
   -5.3728    5.0571    6.2148 N   0  0  0  0  0  0  0  0  0  0  0  0
   -2.4137    4.7622   10.9365 C   0  0  1  0  0  0  0  0  0  0  0  0
   -0.2035    1.9982   13.6899 C   0  0  1  0  0  0  0  0  0  0  0  0
   -4.4530    8.5988   13.4595 C   0  0  2  0  0  0  0  0  0  0  0  0
   -5.7606    8.0909   13.9099 N   0  0  0  0  0  0  0  0  0  0  0  0
   -5.9033    7.1599    7.5352 C   0  0  0  0  0  0  0  0  0  0  0  0
   -1.7426    4.8705   12.3396 C   0  0  2  0  0  0  0  0  0  0  0  0
   -0.3530    5.2785   12.2983 O   0  0  0  0  0  0  0  0  0  0  0  0
    0.9886    1.0528   13.2973 C   0  0  2  0  0  0  0  0  0  0  0  0
    0.5217   -0.0536   12.4091 N   0  0  0  0  0  0  0  0  0  0  0  0
   -4.6077   10.1190   13.2701 C   0  0  1  0  0  0  0  0  0  0  0  0
   -5.0302   10.7317   14.4895 O   0  0  0  0  0  0  0  0  0  0  0  0
   -6.1028    7.6876    9.0063 C   0  0  2  0  0  0  0  0  0  0  0  0
   -6.4488    9.1346    8.9945 N   0  0  0  0  0  0  0  0  0  0  0  0
   -2.0060    3.4733   12.9035 C   0  0  2  0  0  0  0  0  0  0  0  0
   -0.9204    2.5481   12.5776 O   0  0  0  0  0  0  0  0  0  0  0  0
    1.6656    0.4746   14.6294 C   0  0  1  0  0  0  0  0  0  0  0  0
    2.4272    1.5279   15.2614 O   0  0  0  0  0  0  0  0  0  0  0  0
   -3.2713   10.7152   12.7724 C   0  0  2  0  0  0  0  0  0  0  0  0
   -3.3913   12.1094   12.6100 O   0  0  0  0  0  0  0  0  0  0  0  0
   -4.7934    7.4626    9.8611 C   0  0  2  0  0  0  0  0  0  0  0  0
   -3.3366    3.0105   12.2865 C   0  0  2  0  0  0  0  0  0  0  0  0
   -3.3440    3.6579   11.0164 O   0  0  0  0  0  0  0  0  0  0  0  0
    0.5947   -0.1098   15.6682 C   0  0  2  0  0  0  0  0  0  0  0  0
    0.0466   -1.2982   15.0993 O   0  0  0  0  0  0  0  0  0  0  0  0
   -2.8801   10.0325   11.4195 C   0  0  2  0  0  0  0  0  0  0  0  0
   -2.7711    8.5865   11.6116 O   0  0  0  0  0  0  0  0  0  0  0  0
   -4.3570    5.9819    9.9097 C   0  0  2  0  0  0  0  0  0  0  0  0
   -3.0599    5.9873   10.5668 O   0  0  0  0  0  0  0  0  0  0  0  0
   -4.6083    3.3794   13.1118 C   0  0  0  0  0  0  0  0  0  0  0  0
   -4.6982    4.7960   13.2295 O   0  0  0  0  0  0  0  0  0  0  0  0
   -0.5470    0.9414   15.9400 C   0  0  1  0  0  0  0  0  0  0  0  0
   -1.1343    1.2566   14.6262 O   0  0  0  0  0  0  0  0  0  0  0  0
   -1.5760   10.5534   10.8610 C   0  0  0  0  0  0  0  0  0  0  0  0
   -1.6839   11.9273   10.5782 O   0  0  0  0  0  0  0  0  0  0  0  0
   -4.2406    5.3954    8.4406 C   0  0  1  0  0  0  0  0  0  0  0  0
   -3.9853    3.9890    8.4896 O   0  0  0  0  0  0  0  0  0  0  0  0
   -1.6745    0.4295   16.9376 C   0  0  0  0  0  0  0  0  0  0  0  0
   -2.5510   -0.6543   16.4144 N   0  0  0  0  0  0  0  0  0  0  0  0
  1  2  1  6  0  0  0
  1  7  1  0  0  0  0
  1 30  1  0  0  0  0
  3  4  1  6  0  0  0
  3  9  1  0  0  0  0
  3 39  1  0  0  0  0
  5 10  1  0  0  0  0
  5 26  1  0  0  0  0
  5 32  1  1  0  0  0
  6 12  1  0  0  0  0
  6 36  1  0  0  0  0
  6 19  1  6  0  0  0
  7  8  1  6  0  0  0
  7 14  1  0  0  0  0
  9 16  1  0  0  0  0
 10 11  1  6  0  0  0
 10 18  1  0  0  0  0
 12 13  1  6  0  0  0
 12 20  1  0  0  0  0
 14 15  1  1  0  0  0
 14 22  1  0  0  0  0
 16 17  1  6  0  0  0
 16 24  1  0  0  0  0
 18 19  1  6  0  0  0
 18 25  1  0  0  0  0
 20 21  1  1  0  0  0
 20 27  1  0  0  0  0
 22 23  1  6  0  0  0
 22 29  1  0  0  0  0
 24  2  1  1  0  0  0
 24 31  1  0  0  0  0
 25 26  1  0  0  0  0
 25 33  1  1  0  0  0
 27 28  1  6  0  0  0
 27 35  1  0  0  0  0
 29 30  1  0  0  0  0
 29 37  1  1  0  0  0
 31 32  1  6  0  0  0
 31 39  1  0  0  0  0
 33 34  1  0  0  0  0
 35 36  1  0  0  0  0
 35 41  1  1  0  0  0
 37 38  1  0  0  0  0
 39 40  1  1  0  0  0
 41 42  1  0  0  0  0
M  END
>  <CHROM.1>
173.23924613,-176.55324104,117.73284898,-177.78495586,60.82865253,-62.20708679
172.31150028,-139.02666685,-68.99134207,-2.78050537,5.30548489,12.14868162
-2.46090603,1.02010580,-2.76578304

>  <Name>
ligand

>  <RI>
0

>  <Rbt.Current_Directory>
/home/itssahil/PROJECTS/Mol_Feturizer/Test_systems_manuscript/rnas/2o3w

>  <Rbt.Executable>
rbdock ($Id: //depot/dev/client3/rdock/2013.1/src/exe/rbdock.cxx#4 $)

>  <Rbt.Library>
libRbt.so (2013.1, Build901 2013/11/27)

>  <Rbt.Parameter_File>
/export/apps/rDock/src/rDock_2013.1_src/data/scripts/dock_solv.prm

>  <Rbt.Receptor>
prm/blind_docking_60.prm

>  <SCORE>
1.75705

>  <SCORE.INTER>
-3.82528

>  <SCORE.INTER.CONST>
1

>  <SCORE.INTER.POLAR>
0

>  <SCORE.INTER.ROT>
9

>  <SCORE.INTER.SOLV>
21.2206

>  <SCORE.INTER.VDW>
-19.2237

>  <SCORE.INTER.norm>
-0.091078

>  <SCORE.INTRA>
-6.31801

>  <SCORE.INTRA.DIHEDRAL>
-14.1495

>  <SCORE.INTRA.DIHEDRAL.0>
27.8999

>  <SCORE.INTRA.POLAR>
0

>  <SCORE.INTRA.POLAR.0>
0

>  <SCORE.INTRA.REPUL>
0

>  <SCORE.INTRA.REPUL.0>
0

>  <SCORE.INTRA.SOLV>
-2.81951

>  <SCORE.INTRA.SOLV.lig_0>
-104.479

>  <SCORE.INTRA.VDW>
2.16652

>  <SCORE.INTRA.VDW.0>
-6.17816

>  <SCORE.INTRA.norm>
-0.150429

>  <SCORE.RESTR>
11.9003

>  <SCORE.RESTR.CAVITY>
11.9003

>  <SCORE.RESTR.norm>
0.283341

>  <SCORE.SYSTEM>
0

>  <SCORE.SYSTEM.CONST>
0

>  <SCORE.SYSTEM.DIHEDRAL>
0

>  <SCORE.SYSTEM.SOLV>
0

>  <SCORE.SYSTEM.norm>
0

>  <SCORE.heavy>
42

>  <SCORE.norm>
0.0418346

>  <RMSD>
16.914

$$$$
ligand
 OpenBabel02271912133D
libRbt.so/2013.1/901 2013/11/27
 42 45  0  0  0  0  0  0  0  0999 V2000
   -3.1439    9.0419   11.4096 C   0  0  2  0  0  0  0  0  0  0  0  0
   -4.2448    8.8037   10.5160 O   0  0  0  0  0  0  0  0  0  0  0  0
   -6.0947    5.1462    9.1029 C   0  0  2  0  0  0  0  0  0  0  0  0
   -6.3125    3.7991    8.4961 N   0  0  0  0  0  0  0  0  0  0  0  0
   -2.8008    5.1687   11.9078 C   0  0  1  0  0  0  0  0  0  0  0  0
    0.1610    2.1457   13.0180 C   0  0  1  0  0  0  0  0  0  0  0  0
   -3.7496    9.2691   12.8273 C   0  0  2  0  0  0  0  0  0  0  0  0
   -4.7108    8.2184   13.2047 N   0  0  0  0  0  0  0  0  0  0  0  0
   -5.6130    6.1928    8.0191 C   0  0  0  0  0  0  0  0  0  0  0  0
   -1.2727    5.4777   11.9060 C   0  0  2  0  0  0  0  0  0  0  0  0
   -0.6694    5.4602   10.5889 O   0  0  0  0  0  0  0  0  0  0  0  0
    0.5399    0.8322   12.2435 C   0  0  2  0  0  0  0  0  0  0  0  0
   -0.6350    0.2988   11.4911 N   0  0  0  0  0  0  0  0  0  0  0  0
   -4.4938   10.6127   12.9363 C   0  0  1  0  0  0  0  0  0  0  0  0
   -4.9971   10.7965   14.2606 O   0  0  0  0  0  0  0  0  0  0  0  0
   -5.4227    7.5947    8.7127 C   0  0  2  0  0  0  0  0  0  0  0  0
   -4.9828    8.6091    7.7172 N   0  0  0  0  0  0  0  0  0  0  0  0
   -0.7552    4.4232   12.8855 C   0  0  2  0  0  0  0  0  0  0  0  0
   -0.3931    3.1828   12.1989 O   0  0  0  0  0  0  0  0  0  0  0  0
    1.0981   -0.2520   13.2827 C   0  0  1  0  0  0  0  0  0  0  0  0
    2.4251    0.1407   13.6998 O   0  0  0  0  0  0  0  0  0  0  0  0
   -3.5446   11.7625   12.5286 C   0  0  2  0  0  0  0  0  0  0  0  0
   -4.2060   13.0013   12.6391 O   0  0  0  0  0  0  0  0  0  0  0  0
   -4.3601    7.4999    9.8779 C   0  0  2  0  0  0  0  0  0  0  0  0
   -1.8904    4.1895   13.8965 C   0  0  2  0  0  0  0  0  0  0  0  0
   -3.0636    4.4307   13.1232 O   0  0  0  0  0  0  0  0  0  0  0  0
    0.1594   -0.4203   14.5703 C   0  0  2  0  0  0  0  0  0  0  0  0
   -1.0502   -1.0452   14.1430 O   0  0  0  0  0  0  0  0  0  0  0  0
   -3.0563   11.5252   11.0607 C   0  0  2  0  0  0  0  0  0  0  0  0
   -2.3822   10.2302   10.9698 O   0  0  0  0  0  0  0  0  0  0  0  0
   -4.7372    6.4528   10.9487 C   0  0  2  0  0  0  0  0  0  0  0  0
   -3.5801    6.3691   11.8254 O   0  0  0  0  0  0  0  0  0  0  0  0
   -1.8495    5.1092   15.1561 C   0  0  0  0  0  0  0  0  0  0  0  0
   -3.1802    5.3654   15.5950 O   0  0  0  0  0  0  0  0  0  0  0  0
   -0.1507    0.9815   15.2192 C   0  0  1  0  0  0  0  0  0  0  0  0
   -0.7708    1.7949   14.1590 O   0  0  0  0  0  0  0  0  0  0  0  0
   -2.1138   12.6042   10.5798 C   0  0  0  0  0  0  0  0  0  0  0  0
   -1.4536   12.1855    9.4102 O   0  0  0  0  0  0  0  0  0  0  0  0
   -5.0286    5.0507   10.2668 C   0  0  1  0  0  0  0  0  0  0  0  0
   -5.5233    4.1235   11.2370 O   0  0  0  0  0  0  0  0  0  0  0  0
   -1.1069    0.9106   16.4878 C   0  0  0  0  0  0  0  0  0  0  0  0
   -2.5000    0.4602   16.2176 N   0  0  0  0  0  0  0  0  0  0  0  0
  1  2  1  6  0  0  0
  1  7  1  0  0  0  0
  1 30  1  0  0  0  0
  3  4  1  6  0  0  0
  3  9  1  0  0  0  0
  3 39  1  0  0  0  0
  5 10  1  0  0  0  0
  5 26  1  0  0  0  0
  5 32  1  1  0  0  0
  6 12  1  0  0  0  0
  6 36  1  0  0  0  0
  6 19  1  6  0  0  0
  7  8  1  6  0  0  0
  7 14  1  0  0  0  0
  9 16  1  0  0  0  0
 10 11  1  6  0  0  0
 10 18  1  0  0  0  0
 12 13  1  1  0  0  0
 12 20  1  0  0  0  0
 14 15  1  1  0  0  0
 14 22  1  0  0  0  0
 16 17  1  6  0  0  0
 16 24  1  0  0  0  0
 18 19  1  6  0  0  0
 18 25  1  0  0  0  0
 20 21  1  1  0  0  0
 20 27  1  0  0  0  0
 22 23  1  6  0  0  0
 22 29  1  0  0  0  0
 24  2  1  1  0  0  0
 24 31  1  0  0  0  0
 25 26  1  0  0  0  0
 25 33  1  1  0  0  0
 27 28  1  6  0  0  0
 27 35  1  0  0  0  0
 29 30  1  0  0  0  0
 29 37  1  1  0  0  0
 31 32  1  1  0  0  0
 31 39  1  0  0  0  0
 33 34  1  0  0  0  0
 35 36  1  0  0  0  0
 35 41  1  1  0  0  0
 37 38  1  0  0  0  0
 39 40  1  1  0  0  0
 41 42  1  0  0  0  0
M  END
>  <CHROM.1>
-115.27141383,-166.92827286,177.31969975,-179.85214884,147.96000120,165.45014888
-114.23596925,136.55783190,-65.97969314,-2.64328424,5.67632586,12.16885239
-2.19045240,0.94591907,-2.92411433

>  <Name>
ligand

>  <RI>
0

>  <Rbt.Current_Directory>
/home/itssahil/PROJECTS/Mol_Feturizer/Test_systems_manuscript/rnas/2o3w

>  <Rbt.Executable>
rbdock ($Id: //depot/dev/client3/rdock/2013.1/src/exe/rbdock.cxx#4 $)

>  <Rbt.Library>
libRbt.so (2013.1, Build901 2013/11/27)

>  <Rbt.Parameter_File>
/export/apps/rDock/src/rDock_2013.1_src/data/scripts/dock_solv.prm

>  <Rbt.Receptor>
prm/blind_docking_60.prm

>  <SCORE>
12.3304

>  <SCORE.INTER>
-0.956515

>  <SCORE.INTER.CONST>
1

>  <SCORE.INTER.POLAR>
0

>  <SCORE.INTER.ROT>
9

>  <SCORE.INTER.SOLV>
21.6498

>  <SCORE.INTER.VDW>
-17.4543

>  <SCORE.INTER.norm>
-0.0227742

>  <SCORE.INTRA>
2.17936

>  <SCORE.INTRA.DIHEDRAL>
-3.10921

>  <SCORE.INTRA.DIHEDRAL.0>
27.8999

>  <SCORE.INTRA.POLAR>
0

>  <SCORE.INTRA.POLAR.0>
0

>  <SCORE.INTRA.REPUL>
0

>  <SCORE.INTRA.REPUL.0>
0

>  <SCORE.INTRA.SOLV>
-1.34818

>  <SCORE.INTRA.SOLV.lig_0>
-104.479

>  <SCORE.INTRA.VDW>
4.40805

>  <SCORE.INTRA.VDW.0>
-6.17816

>  <SCORE.INTRA.norm>
0.0518894

>  <SCORE.RESTR>
11.1076

>  <SCORE.RESTR.CAVITY>
11.1076

>  <SCORE.RESTR.norm>
0.264466

>  <SCORE.SYSTEM>
0

>  <SCORE.SYSTEM.CONST>
0

>  <SCORE.SYSTEM.DIHEDRAL>
0

>  <SCORE.SYSTEM.SOLV>
0

>  <SCORE.SYSTEM.norm>
0

>  <SCORE.heavy>
42

>  <SCORE.norm>
0.293581

>  <RMSD>
16.919

$$$$
ligand
 OpenBabel02271912133D
libRbt.so/2013.1/901 2013/11/27
 42 45  0  0  0  0  0  0  0  0999 V2000
   -3.4435    8.4648   11.9713 C   0  0  2  0  0  0  0  0  0  0  0  0
   -4.4837    8.3405   10.9866 O   0  0  0  0  0  0  0  0  0  0  0  0
   -6.4924    4.9770    9.1297 C   0  0  2  0  0  0  0  0  0  0  0  0
   -6.7648    3.6769    8.4470 N   0  0  0  0  0  0  0  0  0  0  0  0
   -3.2459    5.0017   12.1028 C   0  0  1  0  0  0  0  0  0  0  0  0
    0.1135    2.4149   12.5263 C   0  0  1  0  0  0  0  0  0  0  0  0
   -4.0834    9.1278   13.2280 C   0  0  2  0  0  0  0  0  0  0  0  0
   -5.3305    8.4622   13.6431 N   0  0  0  0  0  0  0  0  0  0  0  0
   -5.6833    5.9597    8.1908 C   0  0  0  0  0  0  0  0  0  0  0  0
   -2.0177    5.5205   12.9110 C   0  0  2  0  0  0  0  0  0  0  0  0
   -1.1683    6.4320   12.1717 O   0  0  0  0  0  0  0  0  0  0  0  0
   -0.9304    1.2810   12.2208 C   0  0  2  0  0  0  0  0  0  0  0  0
   -2.1684    1.4617   13.0367 N   0  0  0  0  0  0  0  0  0  0  0  0
   -4.4268   10.6106   12.9954 C   0  0  1  0  0  0  0  0  0  0  0  0
   -4.9729   11.1869   14.1830 O   0  0  0  0  0  0  0  0  0  0  0  0
   -5.4470    7.3170    8.9555 C   0  0  2  0  0  0  0  0  0  0  0  0
   -4.6994    8.2726    8.0944 N   0  0  0  0  0  0  0  0  0  0  0  0
   -1.3647    4.2044   13.3363 C   0  0  2  0  0  0  0  0  0  0  0  0
   -0.3841    3.7473   12.3513 O   0  0  0  0  0  0  0  0  0  0  0  0
   -0.2587   -0.1460   12.5027 C   0  0  1  0  0  0  0  0  0  0  0  0
    0.6855   -0.4346   11.4471 O   0  0  0  0  0  0  0  0  0  0  0  0
   -3.1607   11.3665   12.5319 C   0  0  2  0  0  0  0  0  0  0  0  0
   -3.4544   12.7295   12.3306 O   0  0  0  0  0  0  0  0  0  0  0  0
   -4.6447    7.0699   10.2938 C   0  0  2  0  0  0  0  0  0  0  0  0
   -2.5120    3.1921   13.4917 C   0  0  2  0  0  0  0  0  0  0  0  0
   -3.4661    3.6381   12.5309 O   0  0  0  0  0  0  0  0  0  0  0  0
    0.4850   -0.2143   13.9204 C   0  0  2  0  0  0  0  0  0  0  0  0
   -0.5176   -0.1762   14.9352 O   0  0  0  0  0  0  0  0  0  0  0  0
   -2.6312   10.7140   11.2114 C   0  0  2  0  0  0  0  0  0  0  0  0
   -2.3428    9.2988   11.4433 O   0  0  0  0  0  0  0  0  0  0  0  0
   -5.3497    6.0727   11.2393 C   0  0  2  0  0  0  0  0  0  0  0  0
   -4.3995    5.8266   12.3122 O   0  0  0  0  0  0  0  0  0  0  0  0
   -3.1412    3.1242   14.9178 C   0  0  0  0  0  0  0  0  0  0  0  0
   -3.6824    4.3981   15.2544 O   0  0  0  0  0  0  0  0  0  0  0  0
    1.4760    0.9990   14.0872 C   0  0  1  0  0  0  0  0  0  0  0  0
    0.6633    2.2168   13.9232 O   0  0  0  0  0  0  0  0  0  0  0  0
   -1.3850   11.3898   10.6879 C   0  0  0  0  0  0  0  0  0  0  0  0
   -1.6681   12.7215   10.3332 O   0  0  0  0  0  0  0  0  0  0  0  0
   -5.6866    4.7287   10.4674 C   0  0  1  0  0  0  0  0  0  0  0  0
   -6.4714    3.8671   11.2964 O   0  0  0  0  0  0  0  0  0  0  0  0
    2.2343    1.0284   15.4846 C   0  0  0  0  0  0  0  0  0  0  0  0
    3.0286   -0.1880   15.8100 N   0  0  0  0  0  0  0  0  0  0  0  0
  1  2  1  6  0  0  0
  1  7  1  0  0  0  0
  1 30  1  0  0  0  0
  3  4  1  6  0  0  0
  3  9  1  0  0  0  0
  3 39  1  0  0  0  0
  5 10  1  0  0  0  0
  5 26  1  0  0  0  0
  5 32  1  1  0  0  0
  6 12  1  0  0  0  0
  6 36  1  0  0  0  0
  6 19  1  1  0  0  0
  7  8  1  6  0  0  0
  7 14  1  0  0  0  0
  9 16  1  0  0  0  0
 10 11  1  6  0  0  0
 10 18  1  0  0  0  0
 12 13  1  1  0  0  0
 12 20  1  0  0  0  0
 14 15  1  1  0  0  0
 14 22  1  0  0  0  0
 16 17  1  6  0  0  0
 16 24  1  0  0  0  0
 18 19  1  6  0  0  0
 18 25  1  0  0  0  0
 20 21  1  6  0  0  0
 20 27  1  0  0  0  0
 22 23  1  6  0  0  0
 22 29  1  0  0  0  0
 24  2  1  1  0  0  0
 24 31  1  0  0  0  0
 25 26  1  0  0  0  0
 25 33  1  1  0  0  0
 27 28  1  1  0  0  0
 27 35  1  0  0  0  0
 29 30  1  0  0  0  0
 29 37  1  1  0  0  0
 31 32  1  1  0  0  0
 31 39  1  0  0  0  0
 33 34  1  0  0  0  0
 35 36  1  0  0  0  0
 35 41  1  1  0  0  0
 37 38  1  0  0  0  0
 39 40  1  1  0  0  0
 41 42  1  0  0  0  0
M  END
>  <CHROM.1>
-132.74061700,-159.83016254,-169.29213154,70.48201294,60.55528849,-63.79762993
-74.52580037,144.85179969,57.21568598,-2.68408460,5.49471888,12.23264653
-2.09736904,0.61947678,-3.08598436

>  <Name>
ligand

>  <RI>
0

>  <Rbt.Current_Directory>
/home/itssahil/PROJECTS/Mol_Feturizer/Test_systems_manuscript/rnas/2o3w

>  <Rbt.Executable>
rbdock ($Id: //depot/dev/client3/rdock/2013.1/src/exe/rbdock.cxx#4 $)

>  <Rbt.Library>
libRbt.so (2013.1, Build901 2013/11/27)

>  <Rbt.Parameter_File>
/export/apps/rDock/src/rDock_2013.1_src/data/scripts/dock_solv.prm

>  <Rbt.Receptor>
prm/blind_docking_60.prm

>  <SCORE>
25.1538

>  <SCORE.INTER>
0.212187

>  <SCORE.INTER.CONST>
1

>  <SCORE.INTER.POLAR>
0

>  <SCORE.INTER.ROT>
9

>  <SCORE.INTER.SOLV>
21.8085

>  <SCORE.INTER.VDW>
-16.7281

>  <SCORE.INTER.norm>
0.00505207

>  <SCORE.INTRA>
13.3542

>  <SCORE.INTRA.DIHEDRAL>
-12.8187

>  <SCORE.INTRA.DIHEDRAL.0>
27.8999

>  <SCORE.INTRA.POLAR>
0

>  <SCORE.INTRA.POLAR.0>
0

>  <SCORE.INTRA.REPUL>
0

>  <SCORE.INTRA.REPUL.0>
0

>  <SCORE.INTRA.SOLV>
2.50697

>  <SCORE.INTRA.SOLV.lig_0>
-104.479

>  <SCORE.INTRA.VDW>
18.51

>  <SCORE.INTRA.VDW.0>
-6.17816

>  <SCORE.INTRA.norm>
0.317956

>  <SCORE.RESTR>
11.5875

>  <SCORE.RESTR.CAVITY>
11.5875

>  <SCORE.RESTR.norm>
0.275893

>  <SCORE.SYSTEM>
0

>  <SCORE.SYSTEM.CONST>
0

>  <SCORE.SYSTEM.DIHEDRAL>
0

>  <SCORE.SYSTEM.SOLV>
0

>  <SCORE.SYSTEM.norm>
0

>  <SCORE.heavy>
42

>  <SCORE.norm>
0.598901

>  <RMSD>
16.924

$$$$
ligand
 OpenBabel02271912133D
libRbt.so/2013.1/901 2013/11/27
 42 45  0  0  0  0  0  0  0  0999 V2000
   -4.1162    9.4858    9.8662 C   0  0  2  0  0  0  0  0  0  0  0  0
   -3.2104    8.3996   10.1253 O   0  0  0  0  0  0  0  0  0  0  0  0
   -6.1528    5.4818   11.4000 C   0  0  2  0  0  0  0  0  0  0  0  0
   -6.7986    4.2551   11.9553 N   0  0  0  0  0  0  0  0  0  0  0  0
   -2.3914    7.0411   13.2646 C   0  0  1  0  0  0  0  0  0  0  0  0
   -0.6867    3.1626   14.3984 C   0  0  1  0  0  0  0  0  0  0  0  0
   -3.2465   10.7570    9.6297 C   0  0  2  0  0  0  0  0  0  0  0  0
   -2.1684   10.5286    8.6518 N   0  0  0  0  0  0  0  0  0  0  0  0
   -5.2939    5.1466   10.1148 C   0  0  0  0  0  0  0  0  0  0  0  0
   -2.8538    5.5614   13.4304 C   0  0  2  0  0  0  0  0  0  0  0  0
   -3.2207    5.2071   14.7865 O   0  0  0  0  0  0  0  0  0  0  0  0
    0.1161    2.1169   13.5435 C   0  0  2  0  0  0  0  0  0  0  0  0
   -0.3561    2.1112   12.1265 N   0  0  0  0  0  0  0  0  0  0  0  0
   -2.5756   11.2549   10.9231 C   0  0  1  0  0  0  0  0  0  0  0  0
   -1.8225   12.4417   10.6677 O   0  0  0  0  0  0  0  0  0  0  0  0
   -4.6585    6.4791    9.5639 C   0  0  2  0  0  0  0  0  0  0  0  0
   -3.8536    6.2025    8.3435 N   0  0  0  0  0  0  0  0  0  0  0  0
   -1.6551    4.8089   12.8505 C   0  0  2  0  0  0  0  0  0  0  0  0
   -0.6643    4.4991   13.8816 O   0  0  0  0  0  0  0  0  0  0  0  0
   -0.0340    0.6658   14.2060 C   0  0  1  0  0  0  0  0  0  0  0  0
    0.7648    0.6167   15.4094 O   0  0  0  0  0  0  0  0  0  0  0  0
   -3.6539   11.4925   12.0047 C   0  0  2  0  0  0  0  0  0  0  0  0
   -3.0575   11.9649   13.1903 O   0  0  0  0  0  0  0  0  0  0  0  0
   -3.7437    7.1548   10.6604 C   0  0  2  0  0  0  0  0  0  0  0  0
   -1.0631    5.7248   11.7661 C   0  0  2  0  0  0  0  0  0  0  0  0
   -1.3571    7.0317   12.2540 O   0  0  0  0  0  0  0  0  0  0  0  0
   -1.5534    0.2959   14.5558 C   0  0  2  0  0  0  0  0  0  0  0  0
   -2.2463    0.1090   13.3223 O   0  0  0  0  0  0  0  0  0  0  0  0
   -4.4187   10.1523   12.2663 C   0  0  2  0  0  0  0  0  0  0  0  0
   -5.0202    9.6779   11.0201 O   0  0  0  0  0  0  0  0  0  0  0  0
   -4.5043    7.4606   11.9693 C   0  0  2  0  0  0  0  0  0  0  0  0
   -3.4852    7.8972   12.9102 O   0  0  0  0  0  0  0  0  0  0  0  0
   -1.6492    5.5149   10.3354 C   0  0  0  0  0  0  0  0  0  0  0  0
   -2.5510    4.4125   10.3536 O   0  0  0  0  0  0  0  0  0  0  0  0
   -2.2280    1.4489   15.3909 C   0  0  1  0  0  0  0  0  0  0  0  0
   -2.1075    2.6696   14.5750 O   0  0  0  0  0  0  0  0  0  0  0  0
   -5.5013   10.2949   13.3110 C   0  0  0  0  0  0  0  0  0  0  0  0
   -4.9286   10.5390   14.5726 O   0  0  0  0  0  0  0  0  0  0  0  0
   -5.2350    6.1556   12.4973 C   0  0  1  0  0  0  0  0  0  0  0  0
   -6.0600    6.4728   13.6218 O   0  0  0  0  0  0  0  0  0  0  0  0
   -3.7524    1.1789   15.7541 C   0  0  0  0  0  0  0  0  0  0  0  0
   -4.6791    1.0682   14.5941 N   0  0  0  0  0  0  0  0  0  0  0  0
  1  2  1  1  0  0  0
  1  7  1  0  0  0  0
  1 30  1  0  0  0  0
  3  4  1  1  0  0  0
  3  9  1  0  0  0  0
  3 39  1  0  0  0  0
  5 10  1  0  0  0  0
  5 26  1  0  0  0  0
  5 32  1  6  0  0  0
  6 12  1  0  0  0  0
  6 36  1  0  0  0  0
  6 19  1  6  0  0  0
  7  8  1  6  0  0  0
  7 14  1  0  0  0  0
  9 16  1  0  0  0  0
 10 11  1  1  0  0  0
 10 18  1  0  0  0  0
 12 13  1  6  0  0  0
 12 20  1  0  0  0  0
 14 15  1  6  0  0  0
 14 22  1  0  0  0  0
 16 17  1  6  0  0  0
 16 24  1  0  0  0  0
 18 19  1  1  0  0  0
 18 25  1  0  0  0  0
 20 21  1  1  0  0  0
 20 27  1  0  0  0  0
 22 23  1  1  0  0  0
 22 29  1  0  0  0  0
 24  2  1  6  0  0  0
 24 31  1  0  0  0  0
 25 26  1  0  0  0  0
 25 33  1  6  0  0  0
 27 28  1  6  0  0  0
 27 35  1  0  0  0  0
 29 30  1  0  0  0  0
 29 37  1  1  0  0  0
 31 32  1  1  0  0  0
 31 39  1  0  0  0  0
 33 34  1  0  0  0  0
 35 36  1  0  0  0  0
 35 41  1  6  0  0  0
 37 38  1  0  0  0  0
 39 40  1  1  0  0  0
 41 42  1  0  0  0  0
M  END
>  <CHROM.1>
167.04660570,67.16399457,100.19361928,84.36274959,-4.70347015,-67.59330162
-59.48104373,-39.73670304,-62.80527202,-3.03313669,6.09088317,12.40873305
1.79592777,0.07537810,-0.35161128

>  <Name>
ligand

>  <RI>
0

>  <Rbt.Current_Directory>
/home/itssahil/PROJECTS/Mol_Feturizer/Test_systems_manuscript/rnas/2o3w

>  <Rbt.Executable>
rbdock ($Id: //depot/dev/client3/rdock/2013.1/src/exe/rbdock.cxx#4 $)

>  <Rbt.Library>
libRbt.so (2013.1, Build901 2013/11/27)

>  <Rbt.Parameter_File>
/export/apps/rDock/src/rDock_2013.1_src/data/scripts/dock_solv.prm

>  <Rbt.Receptor>
prm/blind_docking_60.prm

>  <SCORE>
25.3308

>  <SCORE.INTER>
7.55007

>  <SCORE.INTER.CONST>
1

>  <SCORE.INTER.POLAR>
0

>  <SCORE.INTER.ROT>
9

>  <SCORE.INTER.SOLV>
31.8764

>  <SCORE.INTER.VDW>
-15.1921

>  <SCORE.INTER.norm>
0.179764

>  <SCORE.INTRA>
10.187

>  <SCORE.INTRA.DIHEDRAL>
-11.5719

>  <SCORE.INTRA.DIHEDRAL.0>
27.8999

>  <SCORE.INTRA.POLAR>
0

>  <SCORE.INTRA.POLAR.0>
0

>  <SCORE.INTRA.REPUL>
0

>  <SCORE.INTRA.REPUL.0>
0

>  <SCORE.INTRA.SOLV>
3.54187

>  <SCORE.INTRA.SOLV.lig_0>
-104.479

>  <SCORE.INTRA.VDW>
14.2021

>  <SCORE.INTRA.VDW.0>
-6.17816

>  <SCORE.INTRA.norm>
0.242549

>  <SCORE.RESTR>
7.59368

>  <SCORE.RESTR.CAVITY>
7.59368

>  <SCORE.RESTR.norm>
0.180802

>  <SCORE.SYSTEM>
0

>  <SCORE.SYSTEM.CONST>
0

>  <SCORE.SYSTEM.DIHEDRAL>
0

>  <SCORE.SYSTEM.SOLV>
0

>  <SCORE.SYSTEM.norm>
0

>  <SCORE.heavy>
42

>  <SCORE.norm>
0.603114

>  <RMSD>
16.956

$$$$
ligand
 OpenBabel02271912133D
libRbt.so/2013.1/901 2013/11/27
 42 45  0  0  0  0  0  0  0  0999 V2000
   -5.0113    7.3323   10.3965 C   0  0  2  0  0  0  0  0  0  0  0  0
   -5.5304    6.6779   11.5668 O   0  0  0  0  0  0  0  0  0  0  0  0
   -6.4293   10.1733   13.9689 C   0  0  2  0  0  0  0  0  0  0  0  0
   -6.9906   11.0815   15.0131 N   0  0  0  0  0  0  0  0  0  0  0  0
   -3.4039    6.0750   13.8403 C   0  0  1  0  0  0  0  0  0  0  0  0
   -0.2257    2.8592   13.6728 C   0  0  1  0  0  0  0  0  0  0  0  0
   -4.4069    6.2225    9.4849 C   0  0  2  0  0  0  0  0  0  0  0  0
   -5.3355    5.0983    9.2742 N   0  0  0  0  0  0  0  0  0  0  0  0
   -7.5649    9.6257   13.0137 C   0  0  0  0  0  0  0  0  0  0  0  0
   -2.9877    4.9579   14.8450 C   0  0  2  0  0  0  0  0  0  0  0  0
   -2.0708    5.4032   15.8747 O   0  0  0  0  0  0  0  0  0  0  0  0
   -0.2233    2.0586   12.3208 C   0  0  2  0  0  0  0  0  0  0  0  0
   -1.6163    1.7332   11.8912 N   0  0  0  0  0  0  0  0  0  0  0  0
   -3.1128    5.6269   10.0692 C   0  0  1  0  0  0  0  0  0  0  0  0
   -2.5734    4.6442    9.1836 O   0  0  0  0  0  0  0  0  0  0  0  0
   -6.9103    8.6951   11.9238 C   0  0  2  0  0  0  0  0  0  0  0  0
   -7.9504    8.1727   10.9971 N   0  0  0  0  0  0  0  0  0  0  0  0
   -2.4469    3.8893   13.8938 C   0  0  2  0  0  0  0  0  0  0  0  0
   -1.0129    4.0565   13.6561 O   0  0  0  0  0  0  0  0  0  0  0  0
    0.6506    0.7273   12.4963 C   0  0  1  0  0  0  0  0  0  0  0  0
    2.0496    1.0883   12.5335 O   0  0  0  0  0  0  0  0  0  0  0  0
   -2.0984    6.7618   10.3381 C   0  0  2  0  0  0  0  0  0  0  0  0
   -0.9015    6.2310   10.8578 O   0  0  0  0  0  0  0  0  0  0  0  0
   -6.1524    7.4877   12.6048 C   0  0  2  0  0  0  0  0  0  0  0  0
   -3.2488    4.0368   12.5897 C   0  0  2  0  0  0  0  0  0  0  0  0
   -3.5516    5.4294   12.5548 O   0  0  0  0  0  0  0  0  0  0  0  0
    0.2738   -0.0943   13.8194 C   0  0  2  0  0  0  0  0  0  0  0  0
   -1.0297   -0.6431   13.6292 O   0  0  0  0  0  0  0  0  0  0  0  0
   -2.7306    7.7848   11.3397 C   0  0  2  0  0  0  0  0  0  0  0  0
   -3.9753    8.3139   10.7824 O   0  0  0  0  0  0  0  0  0  0  0  0
   -5.0625    7.9482   13.5975 C   0  0  2  0  0  0  0  0  0  0  0  0
   -4.6075    6.7338   14.2555 O   0  0  0  0  0  0  0  0  0  0  0  0
   -4.5491    3.1776   12.5160 C   0  0  0  0  0  0  0  0  0  0  0  0
   -5.5469    3.7621   13.3476 O   0  0  0  0  0  0  0  0  0  0  0  0
    0.2899    0.8478   15.0821 C   0  0  1  0  0  0  0  0  0  0  0  0
   -0.6594    1.9365   14.7924 O   0  0  0  0  0  0  0  0  0  0  0  0
   -1.8051    8.9370   11.6555 C   0  0  0  0  0  0  0  0  0  0  0  0
   -2.5064    9.9502   12.3344 O   0  0  0  0  0  0  0  0  0  0  0  0
   -5.6737    8.9635   14.6517 C   0  0  1  0  0  0  0  0  0  0  0  0
   -4.6363    9.5049   15.4741 O   0  0  0  0  0  0  0  0  0  0  0  0
   -0.1068    0.1192   16.4387 C   0  0  0  0  0  0  0  0  0  0  0  0
   -1.5674    0.0071   16.7042 N   0  0  0  0  0  0  0  0  0  0  0  0
  1  2  1  1  0  0  0
  1  7  1  0  0  0  0
  1 30  1  0  0  0  0
  3  4  1  1  0  0  0
  3  9  1  0  0  0  0
  3 39  1  0  0  0  0
  5 10  1  0  0  0  0
  5 26  1  0  0  0  0
  5 32  1  1  0  0  0
  6 12  1  0  0  0  0
  6 36  1  0  0  0  0
  6 19  1  6  0  0  0
  7  8  1  1  0  0  0
  7 14  1  0  0  0  0
  9 16  1  0  0  0  0
 10 11  1  1  0  0  0
 10 18  1  0  0  0  0
 12 13  1  1  0  0  0
 12 20  1  0  0  0  0
 14 15  1  6  0  0  0
 14 22  1  0  0  0  0
 16 17  1  6  0  0  0
 16 24  1  0  0  0  0
 18 19  1  6  0  0  0
 18 25  1  0  0  0  0
 20 21  1  1  0  0  0
 20 27  1  0  0  0  0
 22 23  1  1  0  0  0
 22 29  1  0  0  0  0
 24  2  1  6  0  0  0
 24 31  1  0  0  0  0
 25 26  1  0  0  0  0
 25 33  1  1  0  0  0
 27 28  1  6  0  0  0
 27 35  1  0  0  0  0
 29 30  1  0  0  0  0
 29 37  1  6  0  0  0
 31 32  1  1  0  0  0
 31 39  1  0  0  0  0
 33 34  1  0  0  0  0
 35 36  1  0  0  0  0
 35 41  1  1  0  0  0
 37 38  1  0  0  0  0
 39 40  1  6  0  0  0
 41 42  1  0  0  0  0
M  END
>  <CHROM.1>
179.59683494,34.85530093,136.81716714,82.91146641,74.42716238,168.25302526
99.32124270,169.73070958,-83.88320608,-3.14163544,5.31221409,12.84873767
-2.85603597,-0.94367825,1.74330788

>  <Name>
ligand

>  <RI>
0

>  <Rbt.Current_Directory>
/home/itssahil/PROJECTS/Mol_Feturizer/Test_systems_manuscript/rnas/2o3w

>  <Rbt.Executable>
rbdock ($Id: //depot/dev/client3/rdock/2013.1/src/exe/rbdock.cxx#4 $)

>  <Rbt.Library>
libRbt.so (2013.1, Build901 2013/11/27)

>  <Rbt.Parameter_File>
/export/apps/rDock/src/rDock_2013.1_src/data/scripts/dock_solv.prm

>  <Rbt.Receptor>
prm/blind_docking_60.prm

>  <SCORE>
8.97487

>  <SCORE.INTER>
-1.07388

>  <SCORE.INTER.CONST>
1

>  <SCORE.INTER.POLAR>
0

>  <SCORE.INTER.ROT>
9

>  <SCORE.INTER.SOLV>
21.5298

>  <SCORE.INTER.VDW>
-17.4925

>  <SCORE.INTER.norm>
-0.0255685

>  <SCORE.INTRA>
-0.886374

>  <SCORE.INTRA.DIHEDRAL>
-8.18311

>  <SCORE.INTRA.DIHEDRAL.0>
27.8999

>  <SCORE.INTRA.POLAR>
0

>  <SCORE.INTRA.POLAR.0>
0

>  <SCORE.INTRA.REPUL>
0.124078

>  <SCORE.INTRA.REPUL.0>
0

>  <SCORE.INTRA.SOLV>
2.97774

>  <SCORE.INTRA.SOLV.lig_0>
-104.479

>  <SCORE.INTRA.VDW>
1.09593

>  <SCORE.INTRA.VDW.0>
-6.17816

>  <SCORE.INTRA.norm>
-0.0211041

>  <SCORE.RESTR>
10.9351

>  <SCORE.RESTR.CAVITY>
10.9351

>  <SCORE.RESTR.norm>
0.26036

>  <SCORE.SYSTEM>
0

>  <SCORE.SYSTEM.CONST>
0

>  <SCORE.SYSTEM.DIHEDRAL>
0

>  <SCORE.SYSTEM.SOLV>
0

>  <SCORE.SYSTEM.norm>
0

>  <SCORE.heavy>
42

>  <SCORE.norm>
0.213687

>  <RMSD>
16.973

$$$$
ligand
 OpenBabel02271912133D
libRbt.so/2013.1/901 2013/11/27
 42 45  0  0  0  0  0  0  0  0999 V2000
   -4.0854    8.7690   13.5513 C   0  0  2  0  0  0  0  0  0  0  0  0
   -5.1620    8.3033   12.7199 O   0  0  0  0  0  0  0  0  0  0  0  0
   -6.0953    4.9697   10.1098 C   0  0  2  0  0  0  0  0  0  0  0  0
   -5.9781    3.7568    9.2464 N   0  0  0  0  0  0  0  0  0  0  0  0
   -3.4783    5.3352   13.7089 C   0  0  1  0  0  0  0  0  0  0  0  0
   -0.6460    2.5339   13.6013 C   0  0  1  0  0  0  0  0  0  0  0  0
   -4.5386   10.1283   14.1637 C   0  0  2  0  0  0  0  0  0  0  0  0
   -5.8783   10.0538   14.7722 N   0  0  0  0  0  0  0  0  0  0  0  0
   -5.3153    6.1961    9.4858 C   0  0  0  0  0  0  0  0  0  0  0  0
   -3.2461    3.9231   13.0901 C   0  0  2  0  0  0  0  0  0  0  0  0
   -3.1997    2.8527   14.0654 O   0  0  0  0  0  0  0  0  0  0  0  0
    0.2209    2.3958   14.9045 C   0  0  2  0  0  0  0  0  0  0  0  0
    1.5797    2.9833   14.7060 N   0  0  0  0  0  0  0  0  0  0  0  0
   -4.5887   11.2542   13.1145 C   0  0  1  0  0  0  0  0  0  0  0  0
   -4.9695   12.4877   13.7263 O   0  0  0  0  0  0  0  0  0  0  0  0
   -5.4942    7.4470   10.4270 C   0  0  2  0  0  0  0  0  0  0  0  0
   -4.7838    8.6257    9.8618 N   0  0  0  0  0  0  0  0  0  0  0  0
   -1.9581    4.1539   12.2983 C   0  0  2  0  0  0  0  0  0  0  0  0
   -0.7716    3.8732   13.1072 O   0  0  0  0  0  0  0  0  0  0  0  0
    0.3166    0.8499   15.3144 C   0  0  1  0  0  0  0  0  0  0  0  0
   -0.9554    0.4312   15.8583 O   0  0  0  0  0  0  0  0  0  0  0  0
   -3.2141   11.3708   12.4172 C   0  0  2  0  0  0  0  0  0  0  0  0
   -3.2384   12.4087   11.4651 O   0  0  0  0  0  0  0  0  0  0  0  0
   -4.9412    7.1385   11.8744 C   0  0  2  0  0  0  0  0  0  0  0  0
   -1.9925    5.6251   11.8512 C   0  0  2  0  0  0  0  0  0  0  0  0
   -2.7191    6.2622   12.8994 O   0  0  0  0  0  0  0  0  0  0  0  0
    0.7108   -0.0968   14.0832 C   0  0  2  0  0  0  0  0  0  0  0  0
    2.0680    0.1825   13.7421 O   0  0  0  0  0  0  0  0  0  0  0  0
   -2.8692   10.0041   11.7370 C   0  0  2  0  0  0  0  0  0  0  0  0
   -2.8596    8.9423   12.7431 O   0  0  0  0  0  0  0  0  0  0  0  0
   -5.6196    5.9138   12.5263 C   0  0  2  0  0  0  0  0  0  0  0  0
   -4.8718    5.6689   13.7492 O   0  0  0  0  0  0  0  0  0  0  0  0
   -2.6671    5.8767   10.4671 C   0  0  0  0  0  0  0  0  0  0  0  0
   -2.2817    4.8469    9.5617 O   0  0  0  0  0  0  0  0  0  0  0  0
   -0.2291    0.1765   12.8487 C   0  0  1  0  0  0  0  0  0  0  0  0
   -0.0902    1.6099   12.5382 O   0  0  0  0  0  0  0  0  0  0  0  0
   -1.5320   10.0259   11.0333 C   0  0  0  0  0  0  0  0  0  0  0  0
   -1.4814   11.0960   10.1214 O   0  0  0  0  0  0  0  0  0  0  0  0
   -5.5385    4.6608   11.5573 C   0  0  1  0  0  0  0  0  0  0  0  0
   -6.2960    3.5726   12.0934 O   0  0  0  0  0  0  0  0  0  0  0  0
    0.1145   -0.6993   11.5667 C   0  0  0  0  0  0  0  0  0  0  0  0
   -0.7655   -0.4819   10.3857 N   0  0  0  0  0  0  0  0  0  0  0  0
  1  2  1  6  0  0  0
  1  7  1  0  0  0  0
  1 30  1  0  0  0  0
  3  4  1  6  0  0  0
  3  9  1  0  0  0  0
  3 39  1  0  0  0  0
  5 10  1  0  0  0  0
  5 26  1  0  0  0  0
  5 32  1  6  0  0  0
  6 12  1  0  0  0  0
  6 36  1  0  0  0  0
  6 19  1  6  0  0  0
  7  8  1  6  0  0  0
  7 14  1  0  0  0  0
  9 16  1  0  0  0  0
 10 11  1  1  0  0  0
 10 18  1  0  0  0  0
 12 13  1  6  0  0  0
 12 20  1  0  0  0  0
 14 15  1  1  0  0  0
 14 22  1  0  0  0  0
 16 17  1  6  0  0  0
 16 24  1  0  0  0  0
 18 19  1  1  0  0  0
 18 25  1  0  0  0  0
 20 21  1  6  0  0  0
 20 27  1  0  0  0  0
 22 23  1  6  0  0  0
 22 29  1  0  0  0  0
 24  2  1  1  0  0  0
 24 31  1  0  0  0  0
 25 26  1  0  0  0  0
 25 33  1  6  0  0  0
 27 28  1  6  0  0  0
 27 35  1  0  0  0  0
 29 30  1  0  0  0  0
 29 37  1  1  0  0  0
 31 32  1  1  0  0  0
 31 39  1  0  0  0  0
 33 34  1  0  0  0  0
 35 36  1  0  0  0  0
 35 41  1  6  0  0  0
 37 38  1  0  0  0  0
 39 40  1  1  0  0  0
 41 42  1  0  0  0  0
M  END
>  <CHROM.1>
171.68493092,-133.71513164,60.74607306,-154.93419782,-40.35455024,-54.17559614
-61.88257704,-68.38191352,179.16988259,-2.82608222,5.61886441,12.45700781
-2.07123541,0.58315884,-2.98275111

>  <Name>
ligand

>  <RI>
0

>  <Rbt.Current_Directory>
/home/itssahil/PROJECTS/Mol_Feturizer/Test_systems_manuscript/rnas/2o3w

>  <Rbt.Executable>
rbdock ($Id: //depot/dev/client3/rdock/2013.1/src/exe/rbdock.cxx#4 $)

>  <Rbt.Library>
libRbt.so (2013.1, Build901 2013/11/27)

>  <Rbt.Parameter_File>
/export/apps/rDock/src/rDock_2013.1_src/data/scripts/dock_solv.prm

>  <Rbt.Receptor>
prm/blind_docking_60.prm

>  <SCORE>
5.7927

>  <SCORE.INTER>
-4.47749

>  <SCORE.INTER.CONST>
1

>  <SCORE.INTER.POLAR>
0

>  <SCORE.INTER.ROT>
9

>  <SCORE.INTER.SOLV>
24.7098

>  <SCORE.INTER.VDW>
-20.8216

>  <SCORE.INTER.norm>
-0.106607

>  <SCORE.INTRA>
-0.628484

>  <SCORE.INTRA.DIHEDRAL>
-16.795

>  <SCORE.INTRA.DIHEDRAL.0>
27.8999

>  <SCORE.INTRA.POLAR>
0

>  <SCORE.INTRA.POLAR.0>
0

>  <SCORE.INTRA.REPUL>
0.293733

>  <SCORE.INTRA.REPUL.0>
0

>  <SCORE.INTRA.SOLV>
0.446831

>  <SCORE.INTRA.SOLV.lig_0>
-104.479

>  <SCORE.INTRA.VDW>
6.07691

>  <SCORE.INTRA.VDW.0>
-6.17816

>  <SCORE.INTRA.norm>
-0.0149639

>  <SCORE.RESTR>
10.8987

>  <SCORE.RESTR.CAVITY>
10.8987

>  <SCORE.RESTR.norm>
0.259492

>  <SCORE.SYSTEM>
0

>  <SCORE.SYSTEM.CONST>
0

>  <SCORE.SYSTEM.DIHEDRAL>
0

>  <SCORE.SYSTEM.SOLV>
0

>  <SCORE.SYSTEM.norm>
0

>  <SCORE.heavy>
42

>  <SCORE.norm>
0.137922

>  <RMSD>
16.977

$$$$
ligand
 OpenBabel02271912133D
libRbt.so/2013.1/901 2013/11/27
 42 45  0  0  0  0  0  0  0  0999 V2000
   -4.9439    8.7980   10.3431 C   0  0  2  0  0  0  0  0  0  0  0  0
   -4.1208    7.6443   10.1006 O   0  0  0  0  0  0  0  0  0  0  0  0
   -7.2933    4.7237    9.6522 C   0  0  2  0  0  0  0  0  0  0  0  0
   -8.0447    3.4371    9.5490 N   0  0  0  0  0  0  0  0  0  0  0  0
   -3.9867    4.8777   12.5660 C   0  0  1  0  0  0  0  0  0  0  0  0
   -1.2059    2.1803   13.2006 C   0  0  1  0  0  0  0  0  0  0  0  0
   -4.2054   10.0222    9.7233 C   0  0  2  0  0  0  0  0  0  0  0  0
   -3.7764    9.7782    8.3351 N   0  0  0  0  0  0  0  0  0  0  0  0
   -6.2724    4.8898    8.4556 C   0  0  0  0  0  0  0  0  0  0  0  0
   -3.5184    4.2468   11.2194 C   0  0  2  0  0  0  0  0  0  0  0  0
   -4.3972    3.2103   10.7171 O   0  0  0  0  0  0  0  0  0  0  0  0
    0.2281    1.6837   12.7932 C   0  0  2  0  0  0  0  0  0  0  0  0
    0.1463    0.4634   11.9358 N   0  0  0  0  0  0  0  0  0  0  0  0
   -2.9437   10.4070   10.5176 C   0  0  1  0  0  0  0  0  0  0  0  0
   -2.3223   11.5555    9.9382 O   0  0  0  0  0  0  0  0  0  0  0  0
   -5.5291    6.2707    8.6070 C   0  0  2  0  0  0  0  0  0  0  0  0
   -4.5690    6.4670    7.4874 N   0  0  0  0  0  0  0  0  0  0  0  0
   -2.1016    3.7967   11.5793 C   0  0  2  0  0  0  0  0  0  0  0  0
   -2.0871    2.4287   12.0982 O   0  0  0  0  0  0  0  0  0  0  0  0
    1.0854    1.4006   14.1168 C   0  0  1  0  0  0  0  0  0  0  0  0
    1.4576    2.6642   14.7114 O   0  0  0  0  0  0  0  0  0  0  0  0
   -3.3207   10.6547   11.9960 C   0  0  2  0  0  0  0  0  0  0  0  0
   -2.1789   11.0245   12.7335 O   0  0  0  0  0  0  0  0  0  0  0  0
   -4.7585    6.3404    9.9844 C   0  0  2  0  0  0  0  0  0  0  0  0
   -1.5926    4.7970   12.6308 C   0  0  2  0  0  0  0  0  0  0  0  0
   -2.7850    5.1832   13.3101 O   0  0  0  0  0  0  0  0  0  0  0  0
    0.2946    0.5144   15.1924 C   0  0  2  0  0  0  0  0  0  0  0  0
    0.1701   -0.8027   14.6576 O   0  0  0  0  0  0  0  0  0  0  0  0
   -3.9617    9.3537   12.5842 C   0  0  2  0  0  0  0  0  0  0  0  0
   -5.1381    8.9854   11.7967 O   0  0  0  0  0  0  0  0  0  0  0  0
   -5.6863    6.1294   11.2009 C   0  0  2  0  0  0  0  0  0  0  0  0
   -4.7974    6.0399   12.3482 O   0  0  0  0  0  0  0  0  0  0  0  0
   -0.8493    6.0402   12.0510 C   0  0  0  0  0  0  0  0  0  0  0  0
   -1.2559    6.2443   10.7012 O   0  0  0  0  0  0  0  0  0  0  0  0
   -1.1299    1.1247   15.4760 C   0  0  1  0  0  0  0  0  0  0  0  0
   -1.8135    1.1910   14.1727 O   0  0  0  0  0  0  0  0  0  0  0  0
   -4.3685    9.5090   14.0314 C   0  0  0  0  0  0  0  0  0  0  0  0
   -5.4870   10.3564   14.1324 O   0  0  0  0  0  0  0  0  0  0  0  0
   -6.5200    4.7909   11.0299 C   0  0  1  0  0  0  0  0  0  0  0  0
   -7.4853    4.6734   12.0787 O   0  0  0  0  0  0  0  0  0  0  0  0
   -1.9992    0.2865   16.5106 C   0  0  0  0  0  0  0  0  0  0  0  0
   -1.4560    0.2134   17.8949 N   0  0  0  0  0  0  0  0  0  0  0  0
  1  2  1  1  0  0  0
  1  7  1  0  0  0  0
  1 30  1  0  0  0  0
  3  4  1  6  0  0  0
  3  9  1  0  0  0  0
  3 39  1  0  0  0  0
  5 10  1  0  0  0  0
  5 26  1  0  0  0  0
  5 32  1  6  0  0  0
  6 12  1  0  0  0  0
  6 36  1  0  0  0  0
  6 19  1  6  0  0  0
  7  8  1  6  0  0  0
  7 14  1  0  0  0  0
  9 16  1  0  0  0  0
 10 11  1  1  0  0  0
 10 18  1  0  0  0  0
 12 13  1  1  0  0  0
 12 20  1  0  0  0  0
 14 15  1  6  0  0  0
 14 22  1  0  0  0  0
 16 17  1  6  0  0  0
 16 24  1  0  0  0  0
 18 19  1  1  0  0  0
 18 25  1  0  0  0  0
 20 21  1  1  0  0  0
 20 27  1  0  0  0  0
 22 23  1  1  0  0  0
 22 29  1  0  0  0  0
 24  2  1  1  0  0  0
 24 31  1  0  0  0  0
 25 26  1  0  0  0  0
 25 33  1  6  0  0  0
 27 28  1  6  0  0  0
 27 35  1  0  0  0  0
 29 30  1  0  0  0  0
 29 37  1  1  0  0  0
 31 32  1  1  0  0  0
 31 39  1  0  0  0  0
 33 34  1  0  0  0  0
 35 36  1  0  0  0  0
 35 41  1  1  0  0  0
 37 38  1  0  0  0  0
 39 40  1  1  0  0  0
 41 42  1  0  0  0  0
M  END
>  <CHROM.1>
-151.78419901,72.31348072,-140.00868815,-92.03101756,22.87089122,71.09654128
-72.78893853,33.87054589,64.30929207,-3.19380944,5.34166012,12.02813179,2.11052048
-0.66333529,-0.10422602

>  <Name>
ligand

>  <RI>
0

>  <Rbt.Current_Directory>
/home/itssahil/PROJECTS/Mol_Feturizer/Test_systems_manuscript/rnas/2o3w

>  <Rbt.Executable>
rbdock ($Id: //depot/dev/client3/rdock/2013.1/src/exe/rbdock.cxx#4 $)

>  <Rbt.Library>
libRbt.so (2013.1, Build901 2013/11/27)

>  <Rbt.Parameter_File>
/export/apps/rDock/src/rDock_2013.1_src/data/scripts/dock_solv.prm

>  <Rbt.Receptor>
prm/blind_docking_60.prm

>  <SCORE>
25.0289

>  <SCORE.INTER>
9.97336

>  <SCORE.INTER.CONST>
1

>  <SCORE.INTER.POLAR>
0

>  <SCORE.INTER.ROT>
9

>  <SCORE.INTER.SOLV>
26.2273

>  <SCORE.INTER.VDW>
-11.6935

>  <SCORE.INTER.norm>
0.237461

>  <SCORE.INTRA>
2.36574

>  <SCORE.INTRA.DIHEDRAL>
-6.73121

>  <SCORE.INTRA.DIHEDRAL.0>
27.8999

>  <SCORE.INTRA.POLAR>
0

>  <SCORE.INTRA.POLAR.0>
0

>  <SCORE.INTRA.REPUL>
0

>  <SCORE.INTRA.REPUL.0>
0

>  <SCORE.INTRA.SOLV>
-1.3997

>  <SCORE.INTRA.SOLV.lig_0>
-104.479

>  <SCORE.INTRA.VDW>
6.4312

>  <SCORE.INTRA.VDW.0>
-6.17816

>  <SCORE.INTRA.norm>
0.0563271

>  <SCORE.RESTR>
12.6898

>  <SCORE.RESTR.CAVITY>
12.6898

>  <SCORE.RESTR.norm>
0.302137

>  <SCORE.SYSTEM>
0

>  <SCORE.SYSTEM.CONST>
0

>  <SCORE.SYSTEM.DIHEDRAL>
0

>  <SCORE.SYSTEM.SOLV>
0

>  <SCORE.SYSTEM.norm>
0

>  <SCORE.heavy>
42

>  <SCORE.norm>
0.595925

>  <RMSD>
16.993

$$$$
ligand
 OpenBabel02271912133D
libRbt.so/2013.1/901 2013/11/27
 42 45  0  0  0  0  0  0  0  0999 V2000
   -3.7802    8.4434   12.8036 C   0  0  2  0  0  0  0  0  0  0  0  0
   -4.8435    8.1878   11.8702 O   0  0  0  0  0  0  0  0  0  0  0  0
   -5.5905    5.9831    8.2127 C   0  0  2  0  0  0  0  0  0  0  0  0
   -5.4446    5.0611    7.0469 N   0  0  0  0  0  0  0  0  0  0  0  0
   -4.1108    4.4293   12.0221 C   0  0  1  0  0  0  0  0  0  0  0  0
   -0.4183    2.3112   12.6861 C   0  0  1  0  0  0  0  0  0  0  0  0
   -4.3514    9.3995   13.8935 C   0  0  2  0  0  0  0  0  0  0  0  0
   -5.6335    8.9257   14.4432 N   0  0  0  0  0  0  0  0  0  0  0  0
   -4.5155    7.1423    8.1658 C   0  0  0  0  0  0  0  0  0  0  0  0
   -2.7568    5.1207   11.6765 C   0  0  2  0  0  0  0  0  0  0  0  0
   -2.4373    5.1174   10.2633 O   0  0  0  0  0  0  0  0  0  0  0  0
    0.0288    0.9898   11.9631 C   0  0  2  0  0  0  0  0  0  0  0  0
   -1.1548    0.2300   11.4604 N   0  0  0  0  0  0  0  0  0  0  0  0
   -4.5970   10.8205   13.3536 C   0  0  1  0  0  0  0  0  0  0  0  0
   -5.0818   11.6710   14.3940 O   0  0  0  0  0  0  0  0  0  0  0  0
   -4.7339    8.0912    9.4045 C   0  0  2  0  0  0  0  0  0  0  0  0
   -3.7466    9.2040    9.3843 N   0  0  0  0  0  0  0  0  0  0  0  0
   -1.7907    4.3479   12.5757 C   0  0  2  0  0  0  0  0  0  0  0  0
   -1.2404    3.1766   11.8931 O   0  0  0  0  0  0  0  0  0  0  0  0
    0.8959    0.1007   12.9754 C   0  0  1  0  0  0  0  0  0  0  0  0
    2.1974    0.7087   13.1340 O   0  0  0  0  0  0  0  0  0  0  0  0
   -3.2907   11.3709   12.7373 C   0  0  2  0  0  0  0  0  0  0  0  0
   -3.4944   12.6780   12.2533 O   0  0  0  0  0  0  0  0  0  0  0  0
   -4.5955    7.2842   10.7556 C   0  0  2  0  0  0  0  0  0  0  0  0
   -2.6011    3.9396   13.8175 C   0  0  2  0  0  0  0  0  0  0  0  0
   -3.9213    3.7843   13.3024 O   0  0  0  0  0  0  0  0  0  0  0  0
    0.2022   -0.0626   14.4105 C   0  0  2  0  0  0  0  0  0  0  0  0
   -0.9518   -0.8848   14.2403 O   0  0  0  0  0  0  0  0  0  0  0  0
   -2.8301   10.4193   11.5832 C   0  0  2  0  0  0  0  0  0  0  0  0
   -2.6347    9.0680   12.1083 O   0  0  0  0  0  0  0  0  0  0  0  0
   -5.5795    6.0974   10.8478 C   0  0  2  0  0  0  0  0  0  0  0  0
   -5.1911    5.3714   12.0464 O   0  0  0  0  0  0  0  0  0  0  0  0
   -2.5733    4.9692   14.9894 C   0  0  0  0  0  0  0  0  0  0  0  0
   -1.2676    4.9998   15.5578 O   0  0  0  0  0  0  0  0  0  0  0  0
   -0.2103    1.3425   14.9917 C   0  0  1  0  0  0  0  0  0  0  0  0
   -1.1006    1.9543   13.9899 O   0  0  0  0  0  0  0  0  0  0  0  0
   -1.5501   10.8803   10.9254 C   0  0  0  0  0  0  0  0  0  0  0  0
   -1.7543   12.1123   10.2775 O   0  0  0  0  0  0  0  0  0  0  0  0
   -5.4486    5.1748    9.5644 C   0  0  1  0  0  0  0  0  0  0  0  0
   -6.4612    4.1647    9.5775 O   0  0  0  0  0  0  0  0  0  0  0  0
   -0.9386    1.2709   16.4035 C   0  0  0  0  0  0  0  0  0  0  0  0
   -2.3197    0.7152   16.3862 N   0  0  0  0  0  0  0  0  0  0  0  0
  1  2  1  6  0  0  0
  1  7  1  0  0  0  0
  1 30  1  0  0  0  0
  3  4  1  6  0  0  0
  3  9  1  0  0  0  0
  3 39  1  0  0  0  0
  5 10  1  0  0  0  0
  5 26  1  0  0  0  0
  5 32  1  1  0  0  0
  6 12  1  0  0  0  0
  6 36  1  0  0  0  0
  6 19  1  6  0  0  0
  7  8  1  6  0  0  0
  7 14  1  0  0  0  0
  9 16  1  0  0  0  0
 10 11  1  6  0  0  0
 10 18  1  0  0  0  0
 12 13  1  1  0  0  0
 12 20  1  0  0  0  0
 14 15  1  1  0  0  0
 14 22  1  0  0  0  0
 16 17  1  1  0  0  0
 16 24  1  0  0  0  0
 18 19  1  6  0  0  0
 18 25  1  0  0  0  0
 20 21  1  1  0  0  0
 20 27  1  0  0  0  0
 22 23  1  6  0  0  0
 22 29  1  0  0  0  0
 24  2  1  1  0  0  0
 24 31  1  0  0  0  0
 25 26  1  0  0  0  0
 25 33  1  1  0  0  0
 27 28  1  6  0  0  0
 27 35  1  0  0  0  0
 29 30  1  0  0  0  0
 29 37  1  1  0  0  0
 31 32  1  1  0  0  0
 31 39  1  0  0  0  0
 33 34  1  0  0  0  0
 35 36  1  0  0  0  0
 35 41  1  1  0  0  0
 37 38  1  0  0  0  0
 39 40  1  1  0  0  0
 41 42  1  0  0  0  0
M  END
>  <CHROM.1>
-178.30855467,-116.78504426,-174.43429573,173.87401986,-69.06407510,-64.85059234
-82.24463212,63.05849481,-70.87183101,-2.88683482,5.63512561,12.26288501
-2.31856566,1.03216432,-2.72378061

>  <Name>
ligand

>  <RI>
0

>  <Rbt.Current_Directory>
/home/itssahil/PROJECTS/Mol_Feturizer/Test_systems_manuscript/rnas/2o3w

>  <Rbt.Executable>
rbdock ($Id: //depot/dev/client3/rdock/2013.1/src/exe/rbdock.cxx#4 $)

>  <Rbt.Library>
libRbt.so (2013.1, Build901 2013/11/27)

>  <Rbt.Parameter_File>
/export/apps/rDock/src/rDock_2013.1_src/data/scripts/dock_solv.prm

>  <Rbt.Receptor>
prm/blind_docking_60.prm

>  <SCORE>
1.31388

>  <SCORE.INTER>
-3.79754

>  <SCORE.INTER.CONST>
1

>  <SCORE.INTER.POLAR>
0

>  <SCORE.INTER.ROT>
9

>  <SCORE.INTER.SOLV>
21.8546

>  <SCORE.INTER.VDW>
-19.4166

>  <SCORE.INTER.norm>
-0.0904177

>  <SCORE.INTRA>
-4.27742

>  <SCORE.INTRA.DIHEDRAL>
-17.3091

>  <SCORE.INTRA.DIHEDRAL.0>
27.8999

>  <SCORE.INTRA.POLAR>
0

>  <SCORE.INTRA.POLAR.0>
0

>  <SCORE.INTRA.REPUL>
0

>  <SCORE.INTRA.REPUL.0>
0

>  <SCORE.INTRA.SOLV>
1.21467

>  <SCORE.INTRA.SOLV.lig_0>
-104.479

>  <SCORE.INTRA.VDW>
3.76978

>  <SCORE.INTRA.VDW.0>
-6.17816

>  <SCORE.INTRA.norm>
-0.101843

>  <SCORE.RESTR>
9.38884

>  <SCORE.RESTR.CAVITY>
9.38884

>  <SCORE.RESTR.norm>
0.223544

>  <SCORE.SYSTEM>
0

>  <SCORE.SYSTEM.CONST>
0

>  <SCORE.SYSTEM.DIHEDRAL>
0

>  <SCORE.SYSTEM.SOLV>
0

>  <SCORE.SYSTEM.norm>
0

>  <SCORE.heavy>
42

>  <SCORE.norm>
0.0312829

>  <RMSD>
17.009

$$$$
ligand
 OpenBabel02271912133D
libRbt.so/2013.1/901 2013/11/27
 42 45  0  0  0  0  0  0  0  0999 V2000
   -3.6789    8.6891   13.0165 C   0  0  2  0  0  0  0  0  0  0  0  0
   -4.7016    8.2530   12.1048 O   0  0  0  0  0  0  0  0  0  0  0  0
   -5.3026    5.3707    8.9225 C   0  0  2  0  0  0  0  0  0  0  0  0
   -5.1099    4.2406    7.9653 N   0  0  0  0  0  0  0  0  0  0  0  0
   -3.7886    4.8911   13.0709 C   0  0  1  0  0  0  0  0  0  0  0  0
   -0.6614    2.1329   14.5416 C   0  0  1  0  0  0  0  0  0  0  0  0
   -4.2894    9.8434   13.8668 C   0  0  2  0  0  0  0  0  0  0  0  0
   -5.5994    9.4891   14.4405 N   0  0  0  0  0  0  0  0  0  0  0  0
   -4.2289    6.5088    8.6906 C   0  0  0  0  0  0  0  0  0  0  0  0
   -3.6692    4.4355   14.5572 C   0  0  2  0  0  0  0  0  0  0  0  0
   -3.0522    5.4166   15.4265 O   0  0  0  0  0  0  0  0  0  0  0  0
    0.8881    2.3910   14.5786 C   0  0  2  0  0  0  0  0  0  0  0  0
    1.3207    3.2091   13.4062 N   0  0  0  0  0  0  0  0  0  0  0  0
   -4.4970   11.1284   13.0442 C   0  0  1  0  0  0  0  0  0  0  0  0
   -5.0200   12.1693   13.8712 O   0  0  0  0  0  0  0  0  0  0  0  0
   -4.4968    7.6788    9.7113 C   0  0  2  0  0  0  0  0  0  0  0  0
   -3.5117    8.7757    9.5112 N   0  0  0  0  0  0  0  0  0  0  0  0
   -2.9102    3.1165   14.4035 C   0  0  2  0  0  0  0  0  0  0  0  0
   -1.4624    3.3187   14.4643 O   0  0  0  0  0  0  0  0  0  0  0  0
    1.6573    0.9861   14.6152 C   0  0  1  0  0  0  0  0  0  0  0  0
    1.5059    0.4047   15.9298 O   0  0  0  0  0  0  0  0  0  0  0  0
   -3.1592   11.5445   12.3915 C   0  0  2  0  0  0  0  0  0  0  0  0
   -3.3286   12.7291   11.6481 O   0  0  0  0  0  0  0  0  0  0  0  0
   -4.4089    7.1519   11.1980 C   0  0  2  0  0  0  0  0  0  0  0  0
   -3.3354    2.5381   13.0433 C   0  0  2  0  0  0  0  0  0  0  0  0
   -3.5989    3.7043   12.2667 O   0  0  0  0  0  0  0  0  0  0  0  0
    1.1248   -0.0438   13.5092 C   0  0  2  0  0  0  0  0  0  0  0  0
    1.5200    0.4538   12.2314 O   0  0  0  0  0  0  0  0  0  0  0  0
   -2.6562   10.3819   11.4722 C   0  0  2  0  0  0  0  0  0  0  0  0
   -2.4975    9.1623   12.2641 O   0  0  0  0  0  0  0  0  0  0  0  0
   -5.3934    5.9966   11.4832 C   0  0  2  0  0  0  0  0  0  0  0  0
   -5.0500    5.5219   12.8140 O   0  0  0  0  0  0  0  0  0  0  0  0
   -4.5813    1.5999   13.0876 C   0  0  0  0  0  0  0  0  0  0  0  0
   -5.7652    2.3848   12.9820 O   0  0  0  0  0  0  0  0  0  0  0  0
   -0.4435   -0.1756   13.5818 C   0  0  1  0  0  0  0  0  0  0  0  0
   -0.9773    1.1858   13.4030 O   0  0  0  0  0  0  0  0  0  0  0  0
   -1.3436   10.7022   10.7953 C   0  0  0  0  0  0  0  0  0  0  0  0
   -1.4974   11.8065    9.9372 O   0  0  0  0  0  0  0  0  0  0  0  0
   -5.2112    4.8428   10.4103 C   0  0  1  0  0  0  0  0  0  0  0  0
   -6.2215    3.8451   10.5823 O   0  0  0  0  0  0  0  0  0  0  0  0
   -1.0621   -1.1558   12.4931 C   0  0  0  0  0  0  0  0  0  0  0  0
   -0.6345   -0.9078   11.0887 N   0  0  0  0  0  0  0  0  0  0  0  0
  1  2  1  6  0  0  0
  1  7  1  0  0  0  0
  1 30  1  0  0  0  0
  3  4  1  6  0  0  0
  3  9  1  0  0  0  0
  3 39  1  0  0  0  0
  5 10  1  0  0  0  0
  5 26  1  0  0  0  0
  5 32  1  1  0  0  0
  6 12  1  0  0  0  0
  6 36  1  0  0  0  0
  6 19  1  6  0  0  0
  7  8  1  6  0  0  0
  7 14  1  0  0  0  0
  9 16  1  0  0  0  0
 10 11  1  1  0  0  0
 10 18  1  0  0  0  0
 12 13  1  6  0  0  0
 12 20  1  0  0  0  0
 14 15  1  1  0  0  0
 14 22  1  0  0  0  0
 16 17  1  1  0  0  0
 16 24  1  0  0  0  0
 18 19  1  6  0  0  0
 18 25  1  0  0  0  0
 20 21  1  1  0  0  0
 20 27  1  0  0  0  0
 22 23  1  6  0  0  0
 22 29  1  0  0  0  0
 24  2  1  1  0  0  0
 24 31  1  0  0  0  0
 25 26  1  0  0  0  0
 25 33  1  1  0  0  0
 27 28  1  6  0  0  0
 27 35  1  0  0  0  0
 29 30  1  0  0  0  0
 29 37  1  1  0  0  0
 31 32  1  1  0  0  0
 31 39  1  0  0  0  0
 33 34  1  0  0  0  0
 35 36  1  0  0  0  0
 35 41  1  6  0  0  0
 37 38  1  0  0  0  0
 39 40  1  1  0  0  0
 41 42  1  0  0  0  0
M  END
>  <CHROM.1>
-178.76091839,-117.24891585,170.56799508,178.93061301,86.57290091,-63.05887831
-66.16961154,-178.43402664,-50.96317935,-2.83729017,5.38986603,12.45872289
-1.99750719,0.62264041,-3.06846336

>  <Name>
ligand

>  <RI>
0

>  <Rbt.Current_Directory>
/home/itssahil/PROJECTS/Mol_Feturizer/Test_systems_manuscript/rnas/2o3w

>  <Rbt.Executable>
rbdock ($Id: //depot/dev/client3/rdock/2013.1/src/exe/rbdock.cxx#4 $)

>  <Rbt.Library>
libRbt.so (2013.1, Build901 2013/11/27)

>  <Rbt.Parameter_File>
/export/apps/rDock/src/rDock_2013.1_src/data/scripts/dock_solv.prm

>  <Rbt.Receptor>
prm/blind_docking_60.prm

>  <SCORE>
6.31564

>  <SCORE.INTER>
-0.769868

>  <SCORE.INTER.CONST>
1

>  <SCORE.INTER.POLAR>
0

>  <SCORE.INTER.ROT>
9

>  <SCORE.INTER.SOLV>
25.9514

>  <SCORE.INTER.VDW>
-18.7637

>  <SCORE.INTER.norm>
-0.0183302

>  <SCORE.INTRA>
-5.68457

>  <SCORE.INTRA.DIHEDRAL>
-17.5719

>  <SCORE.INTRA.DIHEDRAL.0>
27.8999

>  <SCORE.INTRA.POLAR>
0

>  <SCORE.INTRA.POLAR.0>
0

>  <SCORE.INTRA.REPUL>
0

>  <SCORE.INTRA.REPUL.0>
0

>  <SCORE.INTRA.SOLV>
0.911631

>  <SCORE.INTRA.SOLV.lig_0>
-104.479

>  <SCORE.INTRA.VDW>
2.64556

>  <SCORE.INTRA.VDW.0>
-6.17816

>  <SCORE.INTRA.norm>
-0.135347

>  <SCORE.RESTR>
12.7701

>  <SCORE.RESTR.CAVITY>
12.7701

>  <SCORE.RESTR.norm>
0.304049

>  <SCORE.SYSTEM>
0

>  <SCORE.SYSTEM.CONST>
0

>  <SCORE.SYSTEM.DIHEDRAL>
0

>  <SCORE.SYSTEM.SOLV>
0

>  <SCORE.SYSTEM.norm>
0

>  <SCORE.heavy>
42

>  <SCORE.norm>
0.150372

>  <RMSD>
17.042

$$$$
ligand
 OpenBabel02271912133D
libRbt.so/2013.1/901 2013/11/27
 42 45  0  0  0  0  0  0  0  0999 V2000
   -4.2527    8.3088   12.0711 C   0  0  2  0  0  0  0  0  0  0  0  0
   -5.3237    8.4399   11.1208 O   0  0  0  0  0  0  0  0  0  0  0  0
   -6.0624    6.1066    7.5422 C   0  0  2  0  0  0  0  0  0  0  0  0
   -5.9388    5.5003    6.1829 N   0  0  0  0  0  0  0  0  0  0  0  0
   -3.0341    5.0548   10.9713 C   0  0  1  0  0  0  0  0  0  0  0  0
   -1.0088    1.9496   13.4666 C   0  0  1  0  0  0  0  0  0  0  0  0
   -4.7266    8.9935   13.3882 C   0  0  2  0  0  0  0  0  0  0  0  0
   -6.0633    8.5398   13.8100 N   0  0  0  0  0  0  0  0  0  0  0  0
   -6.2720    7.6720    7.4555 C   0  0  0  0  0  0  0  0  0  0  0  0
   -1.6670    5.2167   11.7031 C   0  0  2  0  0  0  0  0  0  0  0  0
   -0.5142    5.0553   10.8405 O   0  0  0  0  0  0  0  0  0  0  0  0
   -0.8071    2.6109   14.8775 C   0  0  2  0  0  0  0  0  0  0  0  0
    0.2502    3.6647   14.8265 N   0  0  0  0  0  0  0  0  0  0  0  0
   -4.7980   10.5260   13.2571 C   0  0  1  0  0  0  0  0  0  0  0  0
   -5.1975   11.1132   14.4967 O   0  0  0  0  0  0  0  0  0  0  0  0
   -6.4176    8.2489    8.9145 C   0  0  2  0  0  0  0  0  0  0  0  0
   -6.6312    9.7206    8.8700 N   0  0  0  0  0  0  0  0  0  0  0  0
   -1.8056    4.1845   12.8233 C   0  0  2  0  0  0  0  0  0  0  0  0
   -1.3047    2.8730   12.4114 O   0  0  0  0  0  0  0  0  0  0  0  0
   -0.4368    1.4754   15.9455 C   0  0  1  0  0  0  0  0  0  0  0  0
   -1.6238    0.7046   16.2384 O   0  0  0  0  0  0  0  0  0  0  0  0
   -3.4273   11.0681   12.7916 C   0  0  2  0  0  0  0  0  0  0  0  0
   -3.4711   12.4719   12.6828 O   0  0  0  0  0  0  0  0  0  0  0  0
   -5.1308    7.9256    9.7722 C   0  0  2  0  0  0  0  0  0  0  0  0
   -3.3042    4.1268   13.1641 C   0  0  2  0  0  0  0  0  0  0  0  0
   -3.9287    4.4267   11.9181 O   0  0  0  0  0  0  0  0  0  0  0  0
    0.7254    0.4972   15.4356 C   0  0  2  0  0  0  0  0  0  0  0  0
    1.9376    1.2493   15.4012 O   0  0  0  0  0  0  0  0  0  0  0  0
   -3.0617   10.4179   11.4157 C   0  0  2  0  0  0  0  0  0  0  0  0
   -3.0320    8.9617   11.5521 O   0  0  0  0  0  0  0  0  0  0  0  0
   -4.8302    6.4130    9.8541 C   0  0  2  0  0  0  0  0  0  0  0  0
   -3.5355    6.3158   10.5090 O   0  0  0  0  0  0  0  0  0  0  0  0
   -3.7650    5.1194   14.2762 C   0  0  0  0  0  0  0  0  0  0  0  0
   -2.7984    5.1355   15.3223 O   0  0  0  0  0  0  0  0  0  0  0  0
    0.3907   -0.0635   14.0018 C   0  0  1  0  0  0  0  0  0  0  0  0
    0.2091    1.1133   13.1344 O   0  0  0  0  0  0  0  0  0  0  0  0
   -1.7269   10.8888   10.8864 C   0  0  0  0  0  0  0  0  0  0  0  0
   -1.8245   11.1778    9.5129 O   0  0  0  0  0  0  0  0  0  0  0  0
   -4.7726    5.7851    8.3987 C   0  0  1  0  0  0  0  0  0  0  0  0
   -4.6455    4.3628    8.4795 O   0  0  0  0  0  0  0  0  0  0  0  0
    1.5108   -1.0202   13.4028 C   0  0  0  0  0  0  0  0  0  0  0  0
    1.6292   -2.3551   14.0513 N   0  0  0  0  0  0  0  0  0  0  0  0
  1  2  1  6  0  0  0
  1  7  1  0  0  0  0
  1 30  1  0  0  0  0
  3  4  1  6  0  0  0
  3  9  1  0  0  0  0
  3 39  1  0  0  0  0
  5 10  1  0  0  0  0
  5 26  1  0  0  0  0
  5 32  1  1  0  0  0
  6 12  1  0  0  0  0
  6 36  1  0  0  0  0
  6 19  1  6  0  0  0
  7  8  1  6  0  0  0
  7 14  1  0  0  0  0
  9 16  1  0  0  0  0
 10 11  1  6  0  0  0
 10 18  1  0  0  0  0
 12 13  1  6  0  0  0
 12 20  1  0  0  0  0
 14 15  1  1  0  0  0
 14 22  1  0  0  0  0
 16 17  1  6  0  0  0
 16 24  1  0  0  0  0
 18 19  1  6  0  0  0
 18 25  1  0  0  0  0
 20 21  1  6  0  0  0
 20 27  1  0  0  0  0
 22 23  1  6  0  0  0
 22 29  1  0  0  0  0
 24  2  1  1  0  0  0
 24 31  1  0  0  0  0
 25 26  1  0  0  0  0
 25 33  1  1  0  0  0
 27 28  1  6  0  0  0
 27 35  1  0  0  0  0
 29 30  1  0  0  0  0
 29 37  1  1  0  0  0
 31 32  1  6  0  0  0
 31 39  1  0  0  0  0
 33 34  1  0  0  0  0
 35 36  1  0  0  0  0
 35 41  1  6  0  0  0
 37 38  1  0  0  0  0
 39 40  1  1  0  0  0
 41 42  1  0  0  0  0
M  END
>  <CHROM.1>
177.76035663,-177.48250963,161.87859611,-19.36220753,-41.78067302,-136.07563415
168.86760901,-177.01017128,70.88038149,-2.84517950,5.72462848,12.09015815
-2.63957692,1.01110044,-2.56926274

>  <Name>
ligand

>  <RI>
0

>  <Rbt.Current_Directory>
/home/itssahil/PROJECTS/Mol_Feturizer/Test_systems_manuscript/rnas/2o3w

>  <Rbt.Executable>
rbdock ($Id: //depot/dev/client3/rdock/2013.1/src/exe/rbdock.cxx#4 $)

>  <Rbt.Library>
libRbt.so (2013.1, Build901 2013/11/27)

>  <Rbt.Parameter_File>
/export/apps/rDock/src/rDock_2013.1_src/data/scripts/dock_solv.prm

>  <Rbt.Receptor>
prm/blind_docking_60.prm

>  <SCORE>
7.19034

>  <SCORE.INTER>
-1.19335

>  <SCORE.INTER.CONST>
1

>  <SCORE.INTER.POLAR>
0

>  <SCORE.INTER.ROT>
9

>  <SCORE.INTER.SOLV>
20.1861

>  <SCORE.INTER.VDW>
-17.1243

>  <SCORE.INTER.norm>
-0.0284131

>  <SCORE.INTRA>
-5.37204

>  <SCORE.INTRA.DIHEDRAL>
-14.2476

>  <SCORE.INTRA.DIHEDRAL.0>
27.8999

>  <SCORE.INTRA.POLAR>
0

>  <SCORE.INTRA.POLAR.0>
0

>  <SCORE.INTRA.REPUL>
0

>  <SCORE.INTRA.REPUL.0>
0

>  <SCORE.INTRA.SOLV>
-3.57752

>  <SCORE.INTRA.SOLV.lig_0>
-104.479

>  <SCORE.INTRA.VDW>
3.54054

>  <SCORE.INTRA.VDW.0>
-6.17816

>  <SCORE.INTRA.norm>
-0.127906

>  <SCORE.RESTR>
13.7557

>  <SCORE.RESTR.CAVITY>
13.7557

>  <SCORE.RESTR.norm>
0.327518

>  <SCORE.SYSTEM>
0

>  <SCORE.SYSTEM.CONST>
0

>  <SCORE.SYSTEM.DIHEDRAL>
0

>  <SCORE.SYSTEM.SOLV>
0

>  <SCORE.SYSTEM.norm>
0

>  <SCORE.heavy>
42

>  <SCORE.norm>
0.171199

>  <RMSD>
17.060

$$$$
ligand
 OpenBabel02271912133D
libRbt.so/2013.1/901 2013/11/27
 42 45  0  0  0  0  0  0  0  0999 V2000
   -3.2935    8.1975   12.3759 C   0  0  2  0  0  0  0  0  0  0  0  0
   -4.3794    7.9218   11.4747 O   0  0  0  0  0  0  0  0  0  0  0  0
   -4.9821    5.5400    7.9026 C   0  0  2  0  0  0  0  0  0  0  0  0
   -4.7687    4.8430    6.5991 N   0  0  0  0  0  0  0  0  0  0  0  0
   -3.0036    4.5473   12.2871 C   0  0  1  0  0  0  0  0  0  0  0  0
   -2.7715    2.2595   14.4060 C   0  0  1  0  0  0  0  0  0  0  0  0
   -3.8914    8.9810   13.5828 C   0  0  2  0  0  0  0  0  0  0  0  0
   -5.0856    8.3258   14.1444 N   0  0  0  0  0  0  0  0  0  0  0  0
   -4.9002    7.1105    7.7339 C   0  0  0  0  0  0  0  0  0  0  0  0
   -3.5189    5.2120   13.5999 C   0  0  2  0  0  0  0  0  0  0  0  0
   -2.4650    5.6963   14.4682 O   0  0  0  0  0  0  0  0  0  0  0  0
   -2.8510    0.8043   14.9932 C   0  0  2  0  0  0  0  0  0  0  0  0
   -2.5709    0.8051   16.4604 N   0  0  0  0  0  0  0  0  0  0  0  0
   -4.3082   10.4133   13.2008 C   0  0  1  0  0  0  0  0  0  0  0  0
   -4.8127   11.1060   14.3439 O   0  0  0  0  0  0  0  0  0  0  0  0
   -5.1548    7.7881    9.1334 C   0  0  2  0  0  0  0  0  0  0  0  0
   -5.0992    9.2696    9.0088 N   0  0  0  0  0  0  0  0  0  0  0  0
   -4.3906    4.0951   14.1760 C   0  0  2  0  0  0  0  0  0  0  0  0
   -3.6229    3.2123   15.0547 O   0  0  0  0  0  0  0  0  0  0  0  0
   -1.8187   -0.1386   14.2108 C   0  0  1  0  0  0  0  0  0  0  0  0
   -2.3426   -0.4115   12.8917 O   0  0  0  0  0  0  0  0  0  0  0  0
   -3.1015   11.1531   12.5797 C   0  0  2  0  0  0  0  0  0  0  0  0
   -3.4621   12.4717   12.2398 O   0  0  0  0  0  0  0  0  0  0  0  0
   -4.0840    7.3044   10.1895 C   0  0  2  0  0  0  0  0  0  0  0  0
   -4.9512    3.3276   12.9668 C   0  0  2  0  0  0  0  0  0  0  0  0
   -3.9218    3.4701   11.9909 O   0  0  0  0  0  0  0  0  0  0  0  0
   -0.3583    0.5083   14.0842 C   0  0  2  0  0  0  0  0  0  0  0  0
    0.2195    0.5268   15.3889 O   0  0  0  0  0  0  0  0  0  0  0  0
   -2.6177   10.3685   11.3148 C   0  0  2  0  0  0  0  0  0  0  0  0
   -2.2586    9.0014   11.6914 O   0  0  0  0  0  0  0  0  0  0  0  0
   -4.0674    5.7702   10.3658 C   0  0  2  0  0  0  0  0  0  0  0  0
   -2.9197    5.4957   11.2155 O   0  0  0  0  0  0  0  0  0  0  0  0
   -6.3151    3.8577   12.4255 C   0  0  0  0  0  0  0  0  0  0  0  0
   -6.1239    4.4058   11.1248 O   0  0  0  0  0  0  0  0  0  0  0  0
   -0.4466    1.9713   13.5063 C   0  0  1  0  0  0  0  0  0  0  0  0
   -1.3288    2.7192   14.4188 O   0  0  0  0  0  0  0  0  0  0  0  0
   -1.4308   11.0211   10.6446 C   0  0  0  0  0  0  0  0  0  0  0  0
   -1.7715   12.3139   10.2066 O   0  0  0  0  0  0  0  0  0  0  0  0
   -3.9078    5.0574    8.9579 C   0  0  1  0  0  0  0  0  0  0  0  0
   -4.0443    3.6412    9.1035 O   0  0  0  0  0  0  0  0  0  0  0  0
    0.9593    2.7031   13.3784 C   0  0  0  0  0  0  0  0  0  0  0  0
    1.6835    2.9312   14.6591 N   0  0  0  0  0  0  0  0  0  0  0  0
  1  2  1  6  0  0  0
  1  7  1  0  0  0  0
  1 30  1  0  0  0  0
  3  4  1  6  0  0  0
  3  9  1  0  0  0  0
  3 39  1  0  0  0  0
  5 10  1  0  0  0  0
  5 26  1  0  0  0  0
  5 32  1  6  0  0  0
  6 12  1  0  0  0  0
  6 36  1  0  0  0  0
  6 19  1  1  0  0  0
  7  8  1  6  0  0  0
  7 14  1  0  0  0  0
  9 16  1  0  0  0  0
 10 11  1  1  0  0  0
 10 18  1  0  0  0  0
 12 13  1  1  0  0  0
 12 20  1  0  0  0  0
 14 15  1  1  0  0  0
 14 22  1  0  0  0  0
 16 17  1  6  0  0  0
 16 24  1  0  0  0  0
 18 19  1  1  0  0  0
 18 25  1  0  0  0  0
 20 21  1  6  0  0  0
 20 27  1  0  0  0  0
 22 23  1  6  0  0  0
 22 29  1  0  0  0  0
 24  2  1  1  0  0  0
 24 31  1  0  0  0  0
 25 26  1  0  0  0  0
 25 33  1  6  0  0  0
 27 28  1  1  0  0  0
 27 35  1  0  0  0  0
 29 30  1  0  0  0  0
 29 37  1  1  0  0  0
 31 32  1  1  0  0  0
 31 39  1  0  0  0  0
 33 34  1  0  0  0  0
 35 36  1  0  0  0  0
 35 41  1  1  0  0  0
 37 38  1  0  0  0  0
 39 40  1  1  0  0  0
 41 42  1  0  0  0  0
M  END
>  <CHROM.1>
174.25208076,-149.77364641,-77.13812430,-134.60916007,113.24227316,-61.27058393
137.19026099,-87.24206355,-62.82934127,-3.18743975,5.62534703,12.26179088
-2.03573136,1.06356834,-3.08584864

>  <Name>
ligand

>  <RI>
0

>  <Rbt.Current_Directory>
/home/itssahil/PROJECTS/Mol_Feturizer/Test_systems_manuscript/rnas/2o3w

>  <Rbt.Executable>
rbdock ($Id: //depot/dev/client3/rdock/2013.1/src/exe/rbdock.cxx#4 $)

>  <Rbt.Library>
libRbt.so (2013.1, Build901 2013/11/27)

>  <Rbt.Parameter_File>
/export/apps/rDock/src/rDock_2013.1_src/data/scripts/dock_solv.prm

>  <Rbt.Receptor>
prm/blind_docking_60.prm

>  <SCORE>
17.7827

>  <SCORE.INTER>
5.86466

>  <SCORE.INTER.CONST>
1

>  <SCORE.INTER.POLAR>
0

>  <SCORE.INTER.ROT>
9

>  <SCORE.INTER.SOLV>
28.8281

>  <SCORE.INTER.VDW>
-15.2996

>  <SCORE.INTER.norm>
0.139635

>  <SCORE.INTRA>
0.582759

>  <SCORE.INTRA.DIHEDRAL>
-2.53592

>  <SCORE.INTRA.DIHEDRAL.0>
27.8999

>  <SCORE.INTRA.POLAR>
0

>  <SCORE.INTRA.POLAR.0>
0

>  <SCORE.INTRA.REPUL>
0

>  <SCORE.INTRA.REPUL.0>
0

>  <SCORE.INTRA.SOLV>
0.571746

>  <SCORE.INTRA.SOLV.lig_0>
-104.479

>  <SCORE.INTRA.VDW>
1.56485

>  <SCORE.INTRA.VDW.0>
-6.17816

>  <SCORE.INTRA.norm>
0.0138752

>  <SCORE.RESTR>
11.3352

>  <SCORE.RESTR.CAVITY>
11.3352

>  <SCORE.RESTR.norm>
0.269887

>  <SCORE.SYSTEM>
0

>  <SCORE.SYSTEM.CONST>
0

>  <SCORE.SYSTEM.DIHEDRAL>
0

>  <SCORE.SYSTEM.SOLV>
0

>  <SCORE.SYSTEM.norm>
0

>  <SCORE.heavy>
42

>  <SCORE.norm>
0.423397

>  <RMSD>
17.068

$$$$
ligand
 OpenBabel02271912133D
libRbt.so/2013.1/901 2013/11/27
 42 45  0  0  0  0  0  0  0  0999 V2000
   -4.4891    7.8956   12.3374 C   0  0  2  0  0  0  0  0  0  0  0  0
   -5.4405    8.0960   11.2781 O   0  0  0  0  0  0  0  0  0  0  0  0
   -5.7095    5.8349    7.5888 C   0  0  2  0  0  0  0  0  0  0  0  0
   -5.4313    5.2850    6.2284 N   0  0  0  0  0  0  0  0  0  0  0  0
   -2.9309    4.9041   11.2857 C   0  0  1  0  0  0  0  0  0  0  0  0
   -0.3829    2.1428   13.8040 C   0  0  1  0  0  0  0  0  0  0  0  0
   -5.0687    8.5892   13.6067 C   0  0  2  0  0  0  0  0  0  0  0  0
   -6.4657    8.2036   13.8717 N   0  0  0  0  0  0  0  0  0  0  0  0
   -6.0302    7.3826    7.5276 C   0  0  0  0  0  0  0  0  0  0  0  0
   -1.5274    5.1102   11.9325 C   0  0  2  0  0  0  0  0  0  0  0  0
   -0.4210    4.8790   11.0261 O   0  0  0  0  0  0  0  0  0  0  0  0
    0.6996    1.1442   13.2563 C   0  0  2  0  0  0  0  0  0  0  0  0
    0.0836    0.1416   12.3363 N   0  0  0  0  0  0  0  0  0  0  0  0
   -5.0445   10.1249   13.4960 C   0  0  1  0  0  0  0  0  0  0  0  0
   -5.5468   10.7179   14.6947 O   0  0  0  0  0  0  0  0  0  0  0  0
   -6.3360    7.8983    8.9847 C   0  0  2  0  0  0  0  0  0  0  0  0
   -6.6569    9.3509    8.9627 N   0  0  0  0  0  0  0  0  0  0  0  0
   -1.6107    4.1635   13.1309 C   0  0  2  0  0  0  0  0  0  0  0  0
   -1.1351    2.8222   12.7909 O   0  0  0  0  0  0  0  0  0  0  0  0
    1.4262    0.4238   14.4892 C   0  0  1  0  0  0  0  0  0  0  0  0
    2.3121    1.3707   15.1275 O   0  0  0  0  0  0  0  0  0  0  0  0
   -3.6043   10.5973   13.1930 C   0  0  2  0  0  0  0  0  0  0  0  0
   -3.5620   12.0027   13.1051 O   0  0  0  0  0  0  0  0  0  0  0  0
   -5.1013    7.6425    9.9366 C   0  0  2  0  0  0  0  0  0  0  0  0
   -3.0898    4.1402   13.5515 C   0  0  2  0  0  0  0  0  0  0  0  0
   -3.7770    4.3525   12.3205 O   0  0  0  0  0  0  0  0  0  0  0  0
    0.3927   -0.1548   15.5685 C   0  0  2  0  0  0  0  0  0  0  0  0
   -0.2869   -1.2561   14.9671 O   0  0  0  0  0  0  0  0  0  0  0  0
   -3.1240    9.9448   11.8540 C   0  0  2  0  0  0  0  0  0  0  0  0
   -3.1860    8.4877   11.9669 O   0  0  0  0  0  0  0  0  0  0  0  0
   -4.6938    6.1542   10.0019 C   0  0  2  0  0  0  0  0  0  0  0  0
   -3.4522    6.1311   10.7586 O   0  0  0  0  0  0  0  0  0  0  0  0
   -3.4900    5.2143   14.6101 C   0  0  0  0  0  0  0  0  0  0  0  0
   -2.4394    5.3507   15.5622 O   0  0  0  0  0  0  0  0  0  0  0  0
   -0.6403    0.9540   15.9990 C   0  0  1  0  0  0  0  0  0  0  0  0
   -1.2968    1.4050   14.7597 O   0  0  0  0  0  0  0  0  0  0  0  0
   -1.7160   10.3490   11.4824 C   0  0  0  0  0  0  0  0  0  0  0  0
   -1.3686    9.8031   10.2332 O   0  0  0  0  0  0  0  0  0  0  0  0
   -4.4718    5.5812    8.5397 C   0  0  1  0  0  0  0  0  0  0  0  0
   -4.2436    4.1702    8.5921 O   0  0  0  0  0  0  0  0  0  0  0  0
   -1.7275    0.4546   17.0466 C   0  0  0  0  0  0  0  0  0  0  0  0
   -2.7380   -0.5018   16.5167 N   0  0  0  0  0  0  0  0  0  0  0  0
  1  2  1  6  0  0  0
  1  7  1  0  0  0  0
  1 30  1  0  0  0  0
  3  4  1  6  0  0  0
  3  9  1  0  0  0  0
  3 39  1  0  0  0  0
  5 10  1  0  0  0  0
  5 26  1  0  0  0  0
  5 32  1  1  0  0  0
  6 12  1  0  0  0  0
  6 36  1  0  0  0  0
  6 19  1  6  0  0  0
  7  8  1  6  0  0  0
  7 14  1  0  0  0  0
  9 16  1  0  0  0  0
 10 11  1  6  0  0  0
 10 18  1  0  0  0  0
 12 13  1  6  0  0  0
 12 20  1  0  0  0  0
 14 15  1  1  0  0  0
 14 22  1  0  0  0  0
 16 17  1  6  0  0  0
 16 24  1  0  0  0  0
 18 19  1  6  0  0  0
 18 25  1  0  0  0  0
 20 21  1  1  0  0  0
 20 27  1  0  0  0  0
 22 23  1  6  0  0  0
 22 29  1  0  0  0  0
 24  2  1  1  0  0  0
 24 31  1  0  0  0  0
 25 26  1  0  0  0  0
 25 33  1  1  0  0  0
 27 28  1  6  0  0  0
 27 35  1  0  0  0  0
 29 30  1  0  0  0  0
 29 37  1  1  0  0  0
 31 32  1  1  0  0  0
 31 39  1  0  0  0  0
 33 34  1  0  0  0  0
 35 36  1  0  0  0  0
 35 41  1  1  0  0  0
 37 38  1  0  0  0  0
 39 40  1  1  0  0  0
 41 42  1  0  0  0  0
M  END
>  <CHROM.1>
174.99062411,176.64820578,141.87656243,-149.60969781,-38.76050086,-176.29476285
165.60855189,174.35816084,-70.13179163,-2.91284665,5.42016135,12.35891752
-2.84775249,1.08721647,-2.35813691

>  <Name>
ligand

>  <RI>
0

>  <Rbt.Current_Directory>
/home/itssahil/PROJECTS/Mol_Feturizer/Test_systems_manuscript/rnas/2o3w

>  <Rbt.Executable>
rbdock ($Id: //depot/dev/client3/rdock/2013.1/src/exe/rbdock.cxx#4 $)

>  <Rbt.Library>
libRbt.so (2013.1, Build901 2013/11/27)

>  <Rbt.Parameter_File>
/export/apps/rDock/src/rDock_2013.1_src/data/scripts/dock_solv.prm

>  <Rbt.Receptor>
prm/blind_docking_60.prm

>  <SCORE>
5.47765

>  <SCORE.INTER>
0.0413775

>  <SCORE.INTER.CONST>
1

>  <SCORE.INTER.POLAR>
0

>  <SCORE.INTER.ROT>
9

>  <SCORE.INTER.SOLV>
21.8319

>  <SCORE.INTER.VDW>
-16.8497

>  <SCORE.INTER.norm>
0.000985179

>  <SCORE.INTRA>
-7.94632

>  <SCORE.INTRA.DIHEDRAL>
-15.9103

>  <SCORE.INTRA.DIHEDRAL.0>
27.8999

>  <SCORE.INTRA.POLAR>
0

>  <SCORE.INTRA.POLAR.0>
0

>  <SCORE.INTRA.REPUL>
0

>  <SCORE.INTRA.REPUL.0>
0

>  <SCORE.INTRA.SOLV>
-4.78826

>  <SCORE.INTRA.SOLV.lig_0>
-104.479

>  <SCORE.INTRA.VDW>
2.40294

>  <SCORE.INTRA.VDW.0>
-6.17816

>  <SCORE.INTRA.norm>
-0.189198

>  <SCORE.RESTR>
13.3826

>  <SCORE.RESTR.CAVITY>
13.3826

>  <SCORE.RESTR.norm>
0.318633

>  <SCORE.SYSTEM>
0

>  <SCORE.SYSTEM.CONST>
0

>  <SCORE.SYSTEM.DIHEDRAL>
0

>  <SCORE.SYSTEM.SOLV>
0

>  <SCORE.SYSTEM.norm>
0

>  <SCORE.heavy>
42

>  <SCORE.norm>
0.13042

>  <RMSD>
17.094

$$$$
ligand
 OpenBabel02271912133D
libRbt.so/2013.1/901 2013/11/27
 42 45  0  0  0  0  0  0  0  0999 V2000
   -3.7258    9.3488   13.6177 C   0  0  2  0  0  0  0  0  0  0  0  0
   -4.5576    8.1912   13.8064 O   0  0  0  0  0  0  0  0  0  0  0  0
   -6.6080    5.1650   11.4753 C   0  0  2  0  0  0  0  0  0  0  0  0
   -7.1599    4.3710   10.3372 N   0  0  0  0  0  0  0  0  0  0  0  0
   -1.9303    5.6961   12.8551 C   0  0  1  0  0  0  0  0  0  0  0  0
    0.2649    2.4437   15.0496 C   0  0  1  0  0  0  0  0  0  0  0  0
   -4.6576   10.5076   13.1517 C   0  0  2  0  0  0  0  0  0  0  0  0
   -5.8420   10.6602   14.0145 N   0  0  0  0  0  0  0  0  0  0  0  0
   -7.2497    6.6096   11.5318 C   0  0  0  0  0  0  0  0  0  0  0  0
   -2.4653    4.7930   14.0079 C   0  0  2  0  0  0  0  0  0  0  0  0
   -2.4457    5.4268   15.3105 O   0  0  0  0  0  0  0  0  0  0  0  0
    1.2521    1.8444   13.9842 C   0  0  2  0  0  0  0  0  0  0  0  0
    0.5712    1.6663   12.6668 N   0  0  0  0  0  0  0  0  0  0  0  0
   -5.1763   10.2993   11.7170 C   0  0  1  0  0  0  0  0  0  0  0  0
   -5.9922   11.4020   11.3181 O   0  0  0  0  0  0  0  0  0  0  0  0
   -6.6467    7.3881   12.7618 C   0  0  2  0  0  0  0  0  0  0  0  0
   -7.2404    8.7493   12.8541 N   0  0  0  0  0  0  0  0  0  0  0  0
   -1.5728    3.5600   13.8579 C   0  0  2  0  0  0  0  0  0  0  0  0
   -0.3558    3.6757   14.6618 O   0  0  0  0  0  0  0  0  0  0  0  0
    1.8322    0.4523   14.5251 C   0  0  1  0  0  0  0  0  0  0  0  0
    2.7883    0.7211   15.5751 O   0  0  0  0  0  0  0  0  0  0  0  0
   -3.9789   10.1073   10.7586 C   0  0  2  0  0  0  0  0  0  0  0  0
   -4.4365    9.9320    9.4379 O   0  0  0  0  0  0  0  0  0  0  0  0
   -5.0763    7.5023   12.6331 C   0  0  2  0  0  0  0  0  0  0  0  0
   -1.2429    3.4546   12.3594 C   0  0  2  0  0  0  0  0  0  0  0  0
   -1.2490    4.8149   11.9328 O   0  0  0  0  0  0  0  0  0  0  0  0
    0.6893   -0.5250   15.0781 C   0  0  2  0  0  0  0  0  0  0  0  0
   -0.0813   -0.9632   13.9598 O   0  0  0  0  0  0  0  0  0  0  0  0
   -3.1458    8.8670   11.2245 C   0  0  2  0  0  0  0  0  0  0  0  0
   -2.6907    9.0686   12.6000 O   0  0  0  0  0  0  0  0  0  0  0  0
   -4.3834    6.1270   12.5160 C   0  0  2  0  0  0  0  0  0  0  0  0
   -2.9906    6.4247   12.2227 O   0  0  0  0  0  0  0  0  0  0  0  0
   -2.2451    2.5997   11.5234 C   0  0  0  0  0  0  0  0  0  0  0  0
   -2.2946    1.2792   12.0551 O   0  0  0  0  0  0  0  0  0  0  0  0
   -0.2307    0.2256   16.1137 C   0  0  1  0  0  0  0  0  0  0  0  0
   -0.7716    1.3987   15.4054 O   0  0  0  0  0  0  0  0  0  0  0  0
   -1.9457    8.6082   10.3432 C   0  0  0  0  0  0  0  0  0  0  0  0
   -1.5637    7.2569   10.4287 O   0  0  0  0  0  0  0  0  0  0  0  0
   -5.0365    5.2814   11.3437 C   0  0  1  0  0  0  0  0  0  0  0  0
   -4.4999    3.9556   11.3336 O   0  0  0  0  0  0  0  0  0  0  0  0
   -1.4166   -0.6635   16.6899 C   0  0  0  0  0  0  0  0  0  0  0  0
   -2.3396    0.0288   17.6308 N   0  0  0  0  0  0  0  0  0  0  0  0
  1  2  1  6  0  0  0
  1  7  1  0  0  0  0
  1 30  1  0  0  0  0
  3  4  1  6  0  0  0
  3  9  1  0  0  0  0
  3 39  1  0  0  0  0
  5 10  1  0  0  0  0
  5 26  1  0  0  0  0
  5 32  1  6  0  0  0
  6 12  1  0  0  0  0
  6 36  1  0  0  0  0
  6 19  1  6  0  0  0
  7  8  1  1  0  0  0
  7 14  1  0  0  0  0
  9 16  1  0  0  0  0
 10 11  1  1  0  0  0
 10 18  1  0  0  0  0
 12 13  1  6  0  0  0
 12 20  1  0  0  0  0
 14 15  1  6  0  0  0
 14 22  1  0  0  0  0
 16 17  1  6  0  0  0
 16 24  1  0  0  0  0
 18 19  1  1  0  0  0
 18 25  1  0  0  0  0
 20 21  1  1  0  0  0
 20 27  1  0  0  0  0
 22 23  1  6  0  0  0
 22 29  1  0  0  0  0
 24  2  1  1  0  0  0
 24 31  1  0  0  0  0
 25 26  1  0  0  0  0
 25 33  1  6  0  0  0
 27 28  1  6  0  0  0
 27 35  1  0  0  0  0
 29 30  1  0  0  0  0
 29 37  1  6  0  0  0
 31 32  1  6  0  0  0
 31 39  1  0  0  0  0
 33 34  1  0  0  0  0
 35 36  1  0  0  0  0
 35 41  1  6  0  0  0
 37 38  1  0  0  0  0
 39 40  1  1  0  0  0
 41 42  1  0  0  0  0
M  END
>  <CHROM.1>
73.17360089,-126.08118638,155.11218310,85.51165179,-58.51437045,-155.94709608
138.11866871,-9.86738483,-177.66853059,-2.78122812,5.17779167,13.00576876
-2.10217703,0.16280610,2.88406293

>  <Name>
ligand

>  <RI>
0

>  <Rbt.Current_Directory>
/home/itssahil/PROJECTS/Mol_Feturizer/Test_systems_manuscript/rnas/2o3w

>  <Rbt.Executable>
rbdock ($Id: //depot/dev/client3/rdock/2013.1/src/exe/rbdock.cxx#4 $)

>  <Rbt.Library>
libRbt.so (2013.1, Build901 2013/11/27)

>  <Rbt.Parameter_File>
/export/apps/rDock/src/rDock_2013.1_src/data/scripts/dock_solv.prm

>  <Rbt.Receptor>
prm/blind_docking_60.prm

>  <SCORE>
24.4648

>  <SCORE.INTER>
-1.43657

>  <SCORE.INTER.CONST>
1

>  <SCORE.INTER.POLAR>
0

>  <SCORE.INTER.ROT>
9

>  <SCORE.INTER.SOLV>
19.1231

>  <SCORE.INTER.VDW>
-16.9321

>  <SCORE.INTER.norm>
-0.0342041

>  <SCORE.INTRA>
11.7719

>  <SCORE.INTRA.DIHEDRAL>
-0.337799

>  <SCORE.INTRA.DIHEDRAL.0>
27.8999

>  <SCORE.INTRA.POLAR>
0

>  <SCORE.INTRA.POLAR.0>
0

>  <SCORE.INTRA.REPUL>
0.408877

>  <SCORE.INTRA.REPUL.0>
0

>  <SCORE.INTRA.SOLV>
6.48499

>  <SCORE.INTRA.SOLV.lig_0>
-104.479

>  <SCORE.INTRA.VDW>
6.65394

>  <SCORE.INTRA.VDW.0>
-6.17816

>  <SCORE.INTRA.norm>
0.280284

>  <SCORE.RESTR>
14.1295

>  <SCORE.RESTR.CAVITY>
14.1295

>  <SCORE.RESTR.norm>
0.336416

>  <SCORE.SYSTEM>
0

>  <SCORE.SYSTEM.CONST>
0

>  <SCORE.SYSTEM.DIHEDRAL>
0

>  <SCORE.SYSTEM.SOLV>
0

>  <SCORE.SYSTEM.norm>
0

>  <SCORE.heavy>
42

>  <SCORE.norm>
0.582496

>  <RMSD>
17.171

$$$$
ligand
 OpenBabel02271912133D
libRbt.so/2013.1/901 2013/11/27
 42 45  0  0  0  0  0  0  0  0999 V2000
   -5.2365    7.6875   12.7826 C   0  0  2  0  0  0  0  0  0  0  0  0
   -5.1545    8.6510   11.7185 O   0  0  0  0  0  0  0  0  0  0  0  0
   -2.2655   11.4839   10.1613 C   0  0  2  0  0  0  0  0  0  0  0  0
   -0.9875   12.1441    9.7598 N   0  0  0  0  0  0  0  0  0  0  0  0
   -3.9567    6.8435   10.2971 C   0  0  1  0  0  0  0  0  0  0  0  0
   -3.8191    3.1709   12.5799 C   0  0  1  0  0  0  0  0  0  0  0  0
   -6.6135    6.9716   12.6430 C   0  0  2  0  0  0  0  0  0  0  0  0
   -6.8614    6.4883   11.2735 N   0  0  0  0  0  0  0  0  0  0  0  0
   -2.3545   11.3124   11.7312 C   0  0  0  0  0  0  0  0  0  0  0  0
   -3.9209    5.4686    9.5629 C   0  0  2  0  0  0  0  0  0  0  0  0
   -5.2094    5.0337    9.0631 O   0  0  0  0  0  0  0  0  0  0  0  0
   -4.0837    3.7778   14.0048 C   0  0  2  0  0  0  0  0  0  0  0  0
   -3.5246    5.1590   14.1086 N   0  0  0  0  0  0  0  0  0  0  0  0
   -7.7911    7.8935   13.0093 C   0  0  1  0  0  0  0  0  0  0  0  0
   -9.0278    7.1857   12.9057 O   0  0  0  0  0  0  0  0  0  0  0  0
   -3.7293   10.6333   12.0933 C   0  0  2  0  0  0  0  0  0  0  0  0
   -3.8533   10.4694   13.5668 N   0  0  0  0  0  0  0  0  0  0  0  0
   -3.2904    4.5765   10.6334 C   0  0  2  0  0  0  0  0  0  0  0  0
   -4.3061    3.9669   11.4922 O   0  0  0  0  0  0  0  0  0  0  0  0
   -3.4479    2.8146   15.1161 C   0  0  1  0  0  0  0  0  0  0  0  0
   -4.2681    1.6303   15.2324 O   0  0  0  0  0  0  0  0  0  0  0  0
   -7.5811    8.4573   14.4331 C   0  0  2  0  0  0  0  0  0  0  0  0
   -8.6595    9.2904   14.7902 O   0  0  0  0  0  0  0  0  0  0  0  0
   -3.8566    9.2241   11.3906 C   0  0  2  0  0  0  0  0  0  0  0  0
   -2.3489    5.4847   11.4421 C   0  0  2  0  0  0  0  0  0  0  0  0
   -2.9869    6.7573   11.3663 O   0  0  0  0  0  0  0  0  0  0  0  0
   -1.9390    2.3909   14.7824 C   0  0  2  0  0  0  0  0  0  0  0  0
   -1.1234    3.5531   14.9255 O   0  0  0  0  0  0  0  0  0  0  0  0
   -6.2323    9.2502   14.4744 C   0  0  2  0  0  0  0  0  0  0  0  0
   -5.1308    8.3674   14.0911 O   0  0  0  0  0  0  0  0  0  0  0  0
   -3.7224    9.3067    9.8542 C   0  0  2  0  0  0  0  0  0  0  0  0
   -3.6771    7.9261    9.4000 O   0  0  0  0  0  0  0  0  0  0  0  0
   -0.8850    5.5579   10.9073 C   0  0  0  0  0  0  0  0  0  0  0  0
   -0.7398    6.7162   10.0911 O   0  0  0  0  0  0  0  0  0  0  0  0
   -1.8316    1.8267   13.3153 C   0  0  1  0  0  0  0  0  0  0  0  0
   -2.3388    2.8894   12.4301 O   0  0  0  0  0  0  0  0  0  0  0  0
   -5.9424    9.8337   15.8379 C   0  0  0  0  0  0  0  0  0  0  0  0
   -5.0619   10.9248   15.7212 O   0  0  0  0  0  0  0  0  0  0  0  0
   -2.3903   10.0722    9.4599 C   0  0  1  0  0  0  0  0  0  0  0  0
   -2.3416   10.2814    8.0459 O   0  0  0  0  0  0  0  0  0  0  0  0
   -0.3574    1.4118   12.8873 C   0  0  0  0  0  0  0  0  0  0  0  0
    0.2450    0.2920   13.6618 N   0  0  0  0  0  0  0  0  0  0  0  0
  1  2  1  6  0  0  0
  1  7  1  0  0  0  0
  1 30  1  0  0  0  0
  3  4  1  1  0  0  0
  3  9  1  0  0  0  0
  3 39  1  0  0  0  0
  5 10  1  0  0  0  0
  5 26  1  0  0  0  0
  5 32  1  6  0  0  0
  6 12  1  0  0  0  0
  6 36  1  0  0  0  0
  6 19  1  6  0  0  0
  7  8  1  6  0  0  0
  7 14  1  0  0  0  0
  9 16  1  0  0  0  0
 10 11  1  1  0  0  0
 10 18  1  0  0  0  0
 12 13  1  6  0  0  0
 12 20  1  0  0  0  0
 14 15  1  1  0  0  0
 14 22  1  0  0  0  0
 16 17  1  1  0  0  0
 16 24  1  0  0  0  0
 18 19  1  1  0  0  0
 18 25  1  0  0  0  0
 20 21  1  6  0  0  0
 20 27  1  0  0  0  0
 22 23  1  6  0  0  0
 22 29  1  0  0  0  0
 24  2  1  6  0  0  0
 24 31  1  0  0  0  0
 25 26  1  0  0  0  0
 25 33  1  6  0  0  0
 27 28  1  6  0  0  0
 27 35  1  0  0  0  0
 29 30  1  0  0  0  0
 29 37  1  1  0  0  0
 31 32  1  6  0  0  0
 31 39  1  0  0  0  0
 33 34  1  0  0  0  0
 35 36  1  0  0  0  0
 35 41  1  6  0  0  0
 37 38  1  0  0  0  0
 39 40  1  6  0  0  0
 41 42  1  0  0  0  0
M  END
>  <CHROM.1>
-164.45966373,-98.16910823,-176.52291921,111.92083387,96.84576077,-156.97528101
9.58297037,176.93275675,63.84725228,-3.88330178,6.73953927,12.31012175,1.96656893
0.67979371,-0.43371221

>  <Name>
ligand

>  <RI>
0

>  <Rbt.Current_Directory>
/home/itssahil/PROJECTS/Mol_Feturizer/Test_systems_manuscript/rnas/2o3w

>  <Rbt.Executable>
rbdock ($Id: //depot/dev/client3/rdock/2013.1/src/exe/rbdock.cxx#4 $)

>  <Rbt.Library>
libRbt.so (2013.1, Build901 2013/11/27)

>  <Rbt.Parameter_File>
/export/apps/rDock/src/rDock_2013.1_src/data/scripts/dock_solv.prm

>  <Rbt.Receptor>
prm/blind_docking_60.prm

>  <SCORE>
26.7994

>  <SCORE.INTER>
6.83382

>  <SCORE.INTER.CONST>
1

>  <SCORE.INTER.POLAR>
0

>  <SCORE.INTER.ROT>
9

>  <SCORE.INTER.SOLV>
27.6257

>  <SCORE.INTER.VDW>
-14.2527

>  <SCORE.INTER.norm>
0.16271

>  <SCORE.INTRA>
9.47366

>  <SCORE.INTRA.DIHEDRAL>
-2.68745

>  <SCORE.INTRA.DIHEDRAL.0>
27.8999

>  <SCORE.INTRA.POLAR>
0

>  <SCORE.INTRA.POLAR.0>
0

>  <SCORE.INTRA.REPUL>
0

>  <SCORE.INTRA.REPUL.0>
0

>  <SCORE.INTRA.SOLV>
7.19982

>  <SCORE.INTRA.SOLV.lig_0>
-104.479

>  <SCORE.INTRA.VDW>
7.21747

>  <SCORE.INTRA.VDW.0>
-6.17816

>  <SCORE.INTRA.norm>
0.225563

>  <SCORE.RESTR>
10.4919

>  <SCORE.RESTR.CAVITY>
10.4919

>  <SCORE.RESTR.norm>
0.249808

>  <SCORE.SYSTEM>
0

>  <SCORE.SYSTEM.CONST>
0

>  <SCORE.SYSTEM.DIHEDRAL>
0

>  <SCORE.SYSTEM.SOLV>
0

>  <SCORE.SYSTEM.norm>
0

>  <SCORE.heavy>
42

>  <SCORE.norm>
0.638081

>  <RMSD>
17.191

$$$$
ligand
 OpenBabel02271912133D
libRbt.so/2013.1/901 2013/11/27
 42 45  0  0  0  0  0  0  0  0999 V2000
   -4.7757    8.8276   10.3821 C   0  0  2  0  0  0  0  0  0  0  0  0
   -3.9899    7.6387   10.5732 O   0  0  0  0  0  0  0  0  0  0  0  0
   -7.0145    4.6083    9.8913 C   0  0  2  0  0  0  0  0  0  0  0  0
   -7.8026    3.3409    9.9455 N   0  0  0  0  0  0  0  0  0  0  0  0
   -4.9625    6.0988   13.5824 C   0  0  1  0  0  0  0  0  0  0  0  0
   -2.2908    2.6324   14.7250 C   0  0  1  0  0  0  0  0  0  0  0  0
   -3.8126    9.9279    9.8438 C   0  0  2  0  0  0  0  0  0  0  0  0
   -3.0050    9.4614    8.7033 N   0  0  0  0  0  0  0  0  0  0  0  0
   -5.5781    4.3651    9.2754 C   0  0  0  0  0  0  0  0  0  0  0  0
   -4.6035    4.7575   12.8732 C   0  0  2  0  0  0  0  0  0  0  0  0
   -5.5625    3.6956   13.1005 O   0  0  0  0  0  0  0  0  0  0  0  0
   -1.1399    2.8352   15.7753 C   0  0  2  0  0  0  0  0  0  0  0  0
   -0.4031    4.1091   15.5199 N   0  0  0  0  0  0  0  0  0  0  0  0
   -2.8240   10.4160   10.9187 C   0  0  1  0  0  0  0  0  0  0  0  0
   -1.9891   11.4497   10.3939 O   0  0  0  0  0  0  0  0  0  0  0  0
   -4.8059    5.7376    9.2239 C   0  0  2  0  0  0  0  0  0  0  0  0
   -3.4528    5.5481    8.6350 N   0  0  0  0  0  0  0  0  0  0  0  0
   -3.1948    4.5043   13.4125 C   0  0  2  0  0  0  0  0  0  0  0  0
   -3.2241    3.7169   14.6454 O   0  0  0  0  0  0  0  0  0  0  0  0
   -0.1493    1.5770   15.7236 C   0  0  1  0  0  0  0  0  0  0  0  0
   -0.8018    0.4431   16.3377 O   0  0  0  0  0  0  0  0  0  0  0  0
   -3.6087   10.8997   12.1594 C   0  0  2  0  0  0  0  0  0  0  0  0
   -2.7184   11.3656   13.1466 O   0  0  0  0  0  0  0  0  0  0  0  0
   -4.6722    6.3561   10.6714 C   0  0  2  0  0  0  0  0  0  0  0  0
   -2.5761    5.8918   13.6520 C   0  0  2  0  0  0  0  0  0  0  0  0
   -3.7070    6.6950   13.9815 O   0  0  0  0  0  0  0  0  0  0  0  0
    0.2955    1.1965   14.2320 C   0  0  2  0  0  0  0  0  0  0  0  0
    1.1477    2.2381   13.7574 O   0  0  0  0  0  0  0  0  0  0  0  0
   -4.4743    9.7172   12.7089 C   0  0  2  0  0  0  0  0  0  0  0  0
   -5.3826    9.2453   11.6639 O   0  0  0  0  0  0  0  0  0  0  0  0
   -6.0381    6.5698   11.3598 C   0  0  2  0  0  0  0  0  0  0  0  0
   -5.7212    6.9606   12.7241 O   0  0  0  0  0  0  0  0  0  0  0  0
   -1.8012    6.4858   12.4352 C   0  0  0  0  0  0  0  0  0  0  0  0
   -0.8668    5.5230   11.9570 O   0  0  0  0  0  0  0  0  0  0  0  0
   -0.9636    1.0531   13.2960 C   0  0  1  0  0  0  0  0  0  0  0  0
   -1.6782    2.3391   13.3716 O   0  0  0  0  0  0  0  0  0  0  0  0
   -5.2838   10.1051   13.9247 C   0  0  0  0  0  0  0  0  0  0  0  0
   -6.4236   10.8325   13.5364 O   0  0  0  0  0  0  0  0  0  0  0  0
   -6.8786    5.2248   11.3412 C   0  0  1  0  0  0  0  0  0  0  0  0
   -8.1979    5.4605   11.8408 O   0  0  0  0  0  0  0  0  0  0  0  0
   -0.6109    0.7083   11.7843 C   0  0  0  0  0  0  0  0  0  0  0  0
    0.2377   -0.4982   11.5819 N   0  0  0  0  0  0  0  0  0  0  0  0
  1  2  1  1  0  0  0
  1  7  1  0  0  0  0
  1 30  1  0  0  0  0
  3  4  1  1  0  0  0
  3  9  1  0  0  0  0
  3 39  1  0  0  0  0
  5 10  1  0  0  0  0
  5 26  1  0  0  0  0
  5 32  1  6  0  0  0
  6 12  1  0  0  0  0
  6 36  1  0  0  0  0
  6 19  1  6  0  0  0
  7  8  1  6  0  0  0
  7 14  1  0  0  0  0
  9 16  1  0  0  0  0
 10 11  1  1  0  0  0
 10 18  1  0  0  0  0
 12 13  1  6  0  0  0
 12 20  1  0  0  0  0
 14 15  1  6  0  0  0
 14 22  1  0  0  0  0
 16 17  1  1  0  0  0
 16 24  1  0  0  0  0
 18 19  1  1  0  0  0
 18 25  1  0  0  0  0
 20 21  1  6  0  0  0
 20 27  1  0  0  0  0
 22 23  1  1  0  0  0
 22 29  1  0  0  0  0
 24  2  1  6  0  0  0
 24 31  1  0  0  0  0
 25 26  1  0  0  0  0
 25 33  1  6  0  0  0
 27 28  1  6  0  0  0
 27 35  1  0  0  0  0
 29 30  1  0  0  0  0
 29 37  1  1  0  0  0
 31 32  1  1  0  0  0
 31 39  1  0  0  0  0
 33 34  1  0  0  0  0
 35 36  1  0  0  0  0
 35 41  1  6  0  0  0
 37 38  1  0  0  0  0
 39 40  1  6  0  0  0
 41 42  1  0  0  0  0
M  END
>  <CHROM.1>
-161.35602334,90.02884615,134.27025316,111.22648987,-51.08333165,78.54385663
-59.48986078,-1.70140348,54.65242120,-3.45733046,5.74060379,12.37302754,2.09869945
-0.55767743,-0.04152135

>  <Name>
ligand

>  <RI>
0

>  <Rbt.Current_Directory>
/home/itssahil/PROJECTS/Mol_Feturizer/Test_systems_manuscript/rnas/2o3w

>  <Rbt.Executable>
rbdock ($Id: //depot/dev/client3/rdock/2013.1/src/exe/rbdock.cxx#4 $)

>  <Rbt.Library>
libRbt.so (2013.1, Build901 2013/11/27)

>  <Rbt.Parameter_File>
/export/apps/rDock/src/rDock_2013.1_src/data/scripts/dock_solv.prm

>  <Rbt.Receptor>
prm/blind_docking_60.prm

>  <SCORE>
22.4303

>  <SCORE.INTER>
5.27374

>  <SCORE.INTER.CONST>
1

>  <SCORE.INTER.POLAR>
0

>  <SCORE.INTER.ROT>
9

>  <SCORE.INTER.SOLV>
31.1058

>  <SCORE.INTER.VDW>
-16.4528

>  <SCORE.INTER.norm>
0.125565

>  <SCORE.INTRA>
6.30733

>  <SCORE.INTRA.DIHEDRAL>
-0.948057

>  <SCORE.INTRA.DIHEDRAL.0>
27.8999

>  <SCORE.INTRA.POLAR>
0

>  <SCORE.INTRA.POLAR.0>
0

>  <SCORE.INTRA.REPUL>
0

>  <SCORE.INTRA.REPUL.0>
0

>  <SCORE.INTRA.SOLV>
-0.0642164

>  <SCORE.INTRA.SOLV.lig_0>
-104.479

>  <SCORE.INTRA.VDW>
6.81346

>  <SCORE.INTRA.VDW.0>
-6.17816

>  <SCORE.INTRA.norm>
0.150174

>  <SCORE.RESTR>
10.8492

>  <SCORE.RESTR.CAVITY>
10.8492

>  <SCORE.RESTR.norm>
0.258315

>  <SCORE.SYSTEM>
0

>  <SCORE.SYSTEM.CONST>
0

>  <SCORE.SYSTEM.DIHEDRAL>
0

>  <SCORE.SYSTEM.SOLV>
0

>  <SCORE.SYSTEM.norm>
0

>  <SCORE.heavy>
42

>  <SCORE.norm>
0.534055

>  <RMSD>
17.253

$$$$
ligand
 OpenBabel02271912133D
libRbt.so/2013.1/901 2013/11/27
 42 45  0  0  0  0  0  0  0  0999 V2000
   -4.6736    8.9249   10.2873 C   0  0  2  0  0  0  0  0  0  0  0  0
   -3.9639    7.7071   10.5713 O   0  0  0  0  0  0  0  0  0  0  0  0
   -7.1504    4.8499    9.8798 C   0  0  2  0  0  0  0  0  0  0  0  0
   -8.0070    3.6275    9.9299 N   0  0  0  0  0  0  0  0  0  0  0  0
   -4.9909    6.2254   13.5650 C   0  0  1  0  0  0  0  0  0  0  0  0
   -2.3699    2.7103   14.6813 C   0  0  1  0  0  0  0  0  0  0  0  0
   -3.6086    9.9893    9.8860 C   0  0  2  0  0  0  0  0  0  0  0  0
   -2.6771    9.4947    8.8572 N   0  0  0  0  0  0  0  0  0  0  0  0
   -5.7296    4.5303    9.2626 C   0  0  0  0  0  0  0  0  0  0  0  0
   -4.6746    4.8820   12.8396 C   0  0  2  0  0  0  0  0  0  0  0  0
   -5.6623    3.8456   13.0615 O   0  0  0  0  0  0  0  0  0  0  0  0
   -1.2249    2.9325   15.7342 C   0  0  2  0  0  0  0  0  0  0  0  0
   -0.5019    4.2133   15.4737 N   0  0  0  0  0  0  0  0  0  0  0  0
   -2.7510   10.4382   11.0835 C   0  0  1  0  0  0  0  0  0  0  0  0
   -1.8173   11.4407   10.6786 O   0  0  0  0  0  0  0  0  0  0  0  0
   -4.8832    5.8584    9.2156 C   0  0  2  0  0  0  0  0  0  0  0  0
   -3.5426    5.5970    8.6257 N   0  0  0  0  0  0  0  0  0  0  0  0
   -3.2706    4.5828   13.3675 C   0  0  2  0  0  0  0  0  0  0  0  0
   -3.3154    3.7835   14.5922 O   0  0  0  0  0  0  0  0  0  0  0  0
   -0.2197    1.6856   15.6932 C   0  0  1  0  0  0  0  0  0  0  0  0
   -0.8613    0.5478   16.3119 O   0  0  0  0  0  0  0  0  0  0  0  0
   -3.6723   10.9490   12.2147 C   0  0  2  0  0  0  0  0  0  0  0  0
   -2.9015   11.3796   13.3124 O   0  0  0  0  0  0  0  0  0  0  0  0
   -4.7155    6.4636   10.6653 C   0  0  2  0  0  0  0  0  0  0  0  0
   -2.6110    5.9494   13.6178 C   0  0  2  0  0  0  0  0  0  0  0  0
   -3.7164    6.7811   13.9626 O   0  0  0  0  0  0  0  0  0  0  0  0
    0.2344    1.3013   14.2054 C   0  0  2  0  0  0  0  0  0  0  0  0
    1.0761    2.3499   13.7274 O   0  0  0  0  0  0  0  0  0  0  0  0
   -4.6452    9.7988   12.6393 C   0  0  2  0  0  0  0  0  0  0  0  0
   -5.4264    9.3630   11.4819 O   0  0  0  0  0  0  0  0  0  0  0  0
   -6.0676    6.7496   11.3549 C   0  0  2  0  0  0  0  0  0  0  0  0
   -5.7295    7.1177   12.7204 O   0  0  0  0  0  0  0  0  0  0  0  0
   -1.8264    6.5340   12.4025 C   0  0  0  0  0  0  0  0  0  0  0  0
   -0.9088    5.5568   11.9210 O   0  0  0  0  0  0  0  0  0  0  0  0
   -1.0199    1.1379   13.2661 C   0  0  1  0  0  0  0  0  0  0  0  0
   -1.7495    2.4161   13.3317 O   0  0  0  0  0  0  0  0  0  0  0  0
   -5.5912   10.2148   13.7419 C   0  0  0  0  0  0  0  0  0  0  0  0
   -4.9429   10.1462   14.9886 O   0  0  0  0  0  0  0  0  0  0  0  0
   -6.9807    5.4529   11.3318 C   0  0  1  0  0  0  0  0  0  0  0  0
   -8.2850    5.7589   11.8326 O   0  0  0  0  0  0  0  0  0  0  0  0
   -0.6582    0.7883   11.7576 C   0  0  0  0  0  0  0  0  0  0  0  0
    0.1799   -0.4268   11.5632 N   0  0  0  0  0  0  0  0  0  0  0  0
  1  2  1  1  0  0  0
  1  7  1  0  0  0  0
  1 30  1  0  0  0  0
  3  4  1  1  0  0  0
  3  9  1  0  0  0  0
  3 39  1  0  0  0  0
  5 10  1  0  0  0  0
  5 26  1  0  0  0  0
  5 32  1  6  0  0  0
  6 12  1  0  0  0  0
  6 36  1  0  0  0  0
  6 19  1  6  0  0  0
  7  8  1  6  0  0  0
  7 14  1  0  0  0  0
  9 16  1  0  0  0  0
 10 11  1  1  0  0  0
 10 18  1  0  0  0  0
 12 13  1  6  0  0  0
 12 20  1  0  0  0  0
 14 15  1  6  0  0  0
 14 22  1  0  0  0  0
 16 17  1  1  0  0  0
 16 24  1  0  0  0  0
 18 19  1  1  0  0  0
 18 25  1  0  0  0  0
 20 21  1  6  0  0  0
 20 27  1  0  0  0  0
 22 23  1  1  0  0  0
 22 29  1  0  0  0  0
 24  2  1  6  0  0  0
 24 31  1  0  0  0  0
 25 26  1  0  0  0  0
 25 33  1  6  0  0  0
 27 28  1  6  0  0  0
 27 35  1  0  0  0  0
 29 30  1  0  0  0  0
 29 37  1  1  0  0  0
 31 32  1  1  0  0  0
 31 39  1  0  0  0  0
 33 34  1  0  0  0  0
 35 36  1  0  0  0  0
 35 41  1  6  0  0  0
 37 38  1  0  0  0  0
 39 40  1  6  0  0  0
 41 42  1  0  0  0  0
M  END
>  <CHROM.1>
-165.65657118,85.54413280,137.10221948,109.89195725,-51.93396304,-80.50876724
-57.95672378,-1.58521486,55.95303230,-3.46583069,5.82330791,12.40243089,2.10658990
-0.58933648,-0.01649455

>  <Name>
ligand

>  <RI>
0

>  <Rbt.Current_Directory>
/home/itssahil/PROJECTS/Mol_Feturizer/Test_systems_manuscript/rnas/2o3w

>  <Rbt.Executable>
rbdock ($Id: //depot/dev/client3/rdock/2013.1/src/exe/rbdock.cxx#4 $)

>  <Rbt.Library>
libRbt.so (2013.1, Build901 2013/11/27)

>  <Rbt.Parameter_File>
/export/apps/rDock/src/rDock_2013.1_src/data/scripts/dock_solv.prm

>  <Rbt.Receptor>
prm/blind_docking_60.prm

>  <SCORE>
19.3729

>  <SCORE.INTER>
4.01498

>  <SCORE.INTER.CONST>
1

>  <SCORE.INTER.POLAR>
0

>  <SCORE.INTER.ROT>
9

>  <SCORE.INTER.SOLV>
32.4032

>  <SCORE.INTER.VDW>
-17.7244

>  <SCORE.INTER.norm>
0.0955947

>  <SCORE.INTRA>
5.29209

>  <SCORE.INTRA.DIHEDRAL>
-2.75984

>  <SCORE.INTRA.DIHEDRAL.0>
27.8999

>  <SCORE.INTRA.POLAR>
0

>  <SCORE.INTRA.POLAR.0>
0

>  <SCORE.INTRA.REPUL>
0

>  <SCORE.INTRA.REPUL.0>
0

>  <SCORE.INTRA.SOLV>
0.0236335

>  <SCORE.INTRA.SOLV.lig_0>
-104.479

>  <SCORE.INTRA.VDW>
6.66019

>  <SCORE.INTRA.VDW.0>
-6.17816

>  <SCORE.INTRA.norm>
0.126002

>  <SCORE.RESTR>
10.0658

>  <SCORE.RESTR.CAVITY>
10.0658

>  <SCORE.RESTR.norm>
0.239662

>  <SCORE.SYSTEM>
0

>  <SCORE.SYSTEM.CONST>
0

>  <SCORE.SYSTEM.DIHEDRAL>
0

>  <SCORE.SYSTEM.SOLV>
0

>  <SCORE.SYSTEM.norm>
0

>  <SCORE.heavy>
42

>  <SCORE.norm>
0.461259

>  <RMSD>
17.265

$$$$
ligand
 OpenBabel02271912133D
libRbt.so/2013.1/901 2013/11/27
 42 45  0  0  0  0  0  0  0  0999 V2000
   -5.1277    9.2901   11.6663 C   0  0  2  0  0  0  0  0  0  0  0  0
   -4.1558    8.2371   11.7842 O   0  0  0  0  0  0  0  0  0  0  0  0
   -5.4481    5.8267    8.4202 C   0  0  2  0  0  0  0  0  0  0  0  0
   -5.5104    4.7876    7.3493 N   0  0  0  0  0  0  0  0  0  0  0  0
   -3.7922    4.5861   12.3149 C   0  0  1  0  0  0  0  0  0  0  0  0
   -0.3337    2.3785   13.2109 C   0  0  1  0  0  0  0  0  0  0  0  0
   -4.3856   10.6290   11.9572 C   0  0  2  0  0  0  0  0  0  0  0  0
   -3.1432   10.7660   11.1772 N   0  0  0  0  0  0  0  0  0  0  0  0
   -4.2307    6.8111    8.1948 C   0  0  0  0  0  0  0  0  0  0  0  0
   -2.4298    5.2595   11.9668 C   0  0  2  0  0  0  0  0  0  0  0  0
   -2.0783    5.1869   10.5632 O   0  0  0  0  0  0  0  0  0  0  0  0
    0.4817    1.2326   12.5102 C   0  0  2  0  0  0  0  0  0  0  0  0
   -0.3610    0.5148   11.5074 N   0  0  0  0  0  0  0  0  0  0  0  0
   -3.9974   10.7716   13.4404 C   0  0  1  0  0  0  0  0  0  0  0  0
   -3.3566   12.0279   13.6683 O   0  0  0  0  0  0  0  0  0  0  0  0
   -4.2313    7.8939    9.3393 C   0  0  2  0  0  0  0  0  0  0  0  0
   -3.1051    8.8475    9.1500 N   0  0  0  0  0  0  0  0  0  0  0  0
   -1.4854    4.5315   12.9246 C   0  0  2  0  0  0  0  0  0  0  0  0
   -0.9212    3.3281   12.3127 O   0  0  0  0  0  0  0  0  0  0  0  0
    1.0377    0.2229   13.6229 C   0  0  1  0  0  0  0  0  0  0  0  0
    2.1265    0.8592   14.3289 O   0  0  0  0  0  0  0  0  0  0  0  0
   -5.2580   10.6132   14.3208 C   0  0  2  0  0  0  0  0  0  0  0  0
   -4.9223   10.7579   15.6812 O   0  0  0  0  0  0  0  0  0  0  0  0
   -4.1112    7.2063   10.7566 C   0  0  2  0  0  0  0  0  0  0  0  0
   -2.3243    4.1845   14.1660 C   0  0  2  0  0  0  0  0  0  0  0  0
   -3.6327    4.0045   13.6293 O   0  0  0  0  0  0  0  0  0  0  0  0
   -0.0877   -0.2302   14.6697 C   0  0  2  0  0  0  0  0  0  0  0  0
   -1.0110   -1.0672   13.9745 O   0  0  0  0  0  0  0  0  0  0  0  0
   -5.8935    9.2079   14.0544 C   0  0  2  0  0  0  0  0  0  0  0  0
   -6.2241    9.0786   12.6353 O   0  0  0  0  0  0  0  0  0  0  0  0
   -5.2392    6.1862   11.0249 C   0  0  2  0  0  0  0  0  0  0  0  0
   -4.8716    5.5284   12.2685 O   0  0  0  0  0  0  0  0  0  0  0  0
   -2.3218    5.2703   15.2865 C   0  0  0  0  0  0  0  0  0  0  0  0
   -1.0173    5.3606   15.8511 O   0  0  0  0  0  0  0  0  0  0  0  0
   -0.8310    1.0250   15.2648 C   0  0  1  0  0  0  0  0  0  0  0  0
   -1.3811    1.7592   14.1122 O   0  0  0  0  0  0  0  0  0  0  0  0
   -7.1412    8.9693   14.8730 C   0  0  0  0  0  0  0  0  0  0  0  0
   -6.8730    9.1794   16.2380 O   0  0  0  0  0  0  0  0  0  0  0  0
   -5.3247    5.1374    9.8380 C   0  0  1  0  0  0  0  0  0  0  0  0
   -6.4623    4.2880   10.0111 O   0  0  0  0  0  0  0  0  0  0  0  0
   -1.9907    0.6646   16.2912 C   0  0  0  0  0  0  0  0  0  0  0  0
   -1.5539   -0.0191   17.5396 N   0  0  0  0  0  0  0  0  0  0  0  0
  1  2  1  1  0  0  0
  1  7  1  0  0  0  0
  1 30  1  0  0  0  0
  3  4  1  6  0  0  0
  3  9  1  0  0  0  0
  3 39  1  0  0  0  0
  5 10  1  0  0  0  0
  5 26  1  0  0  0  0
  5 32  1  1  0  0  0
  6 12  1  0  0  0  0
  6 36  1  0  0  0  0
  6 19  1  6  0  0  0
  7  8  1  6  0  0  0
  7 14  1  0  0  0  0
  9 16  1  0  0  0  0
 10 11  1  6  0  0  0
 10 18  1  0  0  0  0
 12 13  1  6  0  0  0
 12 20  1  0  0  0  0
 14 15  1  6  0  0  0
 14 22  1  0  0  0  0
 16 17  1  6  0  0  0
 16 24  1  0  0  0  0
 18 19  1  6  0  0  0
 18 25  1  0  0  0  0
 20 21  1  1  0  0  0
 20 27  1  0  0  0  0
 22 23  1  1  0  0  0
 22 29  1  0  0  0  0
 24  2  1  1  0  0  0
 24 31  1  0  0  0  0
 25 26  1  0  0  0  0
 25 33  1  1  0  0  0
 27 28  1  6  0  0  0
 27 35  1  0  0  0  0
 29 30  1  0  0  0  0
 29 37  1  1  0  0  0
 31 32  1  1  0  0  0
 31 39  1  0  0  0  0
 33 34  1  0  0  0  0
 35 36  1  0  0  0  0
 35 41  1  1  0  0  0
 37 38  1  0  0  0  0
 39 40  1  1  0  0  0
 41 42  1  0  0  0  0
M  END
>  <CHROM.1>
-134.23333804,43.78289862,-163.17341746,-169.65966396,-67.08490297,-54.00575927
-72.72769419,63.60239841,63.84118435,-3.16868024,5.50486782,12.75228284,2.97108558
-1.07899378,1.16584523

>  <Name>
ligand

>  <RI>
0

>  <Rbt.Current_Directory>
/home/itssahil/PROJECTS/Mol_Feturizer/Test_systems_manuscript/rnas/2o3w

>  <Rbt.Executable>
rbdock ($Id: //depot/dev/client3/rdock/2013.1/src/exe/rbdock.cxx#4 $)

>  <Rbt.Library>
libRbt.so (2013.1, Build901 2013/11/27)

>  <Rbt.Parameter_File>
/export/apps/rDock/src/rDock_2013.1_src/data/scripts/dock_solv.prm

>  <Rbt.Receptor>
prm/blind_docking_60.prm

>  <SCORE>
13.4336

>  <SCORE.INTER>
4.46774

>  <SCORE.INTER.CONST>
1

>  <SCORE.INTER.POLAR>
0

>  <SCORE.INTER.ROT>
9

>  <SCORE.INTER.SOLV>
24.3937

>  <SCORE.INTER.VDW>
-14.7527

>  <SCORE.INTER.norm>
0.106375

>  <SCORE.INTRA>
-3.88916

>  <SCORE.INTRA.DIHEDRAL>
-17.2774

>  <SCORE.INTRA.DIHEDRAL.0>
27.8999

>  <SCORE.INTRA.POLAR>
0

>  <SCORE.INTRA.POLAR.0>
0

>  <SCORE.INTRA.REPUL>
0

>  <SCORE.INTRA.REPUL.0>
0

>  <SCORE.INTRA.SOLV>
-0.996357

>  <SCORE.INTRA.SOLV.lig_0>
-104.479

>  <SCORE.INTRA.VDW>
5.24772

>  <SCORE.INTRA.VDW.0>
-6.17816

>  <SCORE.INTRA.norm>
-0.092599

>  <SCORE.RESTR>
12.855

>  <SCORE.RESTR.CAVITY>
12.855

>  <SCORE.RESTR.norm>
0.306072

>  <SCORE.SYSTEM>
0

>  <SCORE.SYSTEM.CONST>
0

>  <SCORE.SYSTEM.DIHEDRAL>
0

>  <SCORE.SYSTEM.SOLV>
0

>  <SCORE.SYSTEM.norm>
0

>  <SCORE.heavy>
42

>  <SCORE.norm>
0.319848

>  <RMSD>
17.386

$$$$
ligand
 OpenBabel02271912133D
libRbt.so/2013.1/901 2013/11/27
 42 45  0  0  0  0  0  0  0  0999 V2000
   -3.8470    8.4686   12.5054 C   0  0  2  0  0  0  0  0  0  0  0  0
   -4.9141    8.3180   11.5536 O   0  0  0  0  0  0  0  0  0  0  0  0
   -5.7915    6.1551    7.9001 C   0  0  2  0  0  0  0  0  0  0  0  0
   -5.7536    5.1619    6.7854 N   0  0  0  0  0  0  0  0  0  0  0  0
   -4.7438    5.0104   12.1650 C   0  0  1  0  0  0  0  0  0  0  0  0
   -1.9215    2.3309   14.4237 C   0  0  1  0  0  0  0  0  0  0  0  0
   -4.3800    9.3883   13.6448 C   0  0  2  0  0  0  0  0  0  0  0  0
   -5.6877    8.9471   14.1603 N   0  0  0  0  0  0  0  0  0  0  0  0
   -4.4689    7.0217    7.9419 C   0  0  0  0  0  0  0  0  0  0  0  0
   -4.7483    4.6748   13.6875 C   0  0  2  0  0  0  0  0  0  0  0  0
   -4.1376    5.6934   14.5173 O   0  0  0  0  0  0  0  0  0  0  0  0
   -1.3078    2.6087   15.8432 C   0  0  2  0  0  0  0  0  0  0  0  0
   -0.3934    3.7891   15.8072 N   0  0  0  0  0  0  0  0  0  0  0  0
   -4.5526   10.8477   13.1851 C   0  0  1  0  0  0  0  0  0  0  0  0
   -5.0039   11.6607   14.2697 O   0  0  0  0  0  0  0  0  0  0  0  0
   -4.5777    8.0622    9.1200 C   0  0  2  0  0  0  0  0  0  0  0  0
   -3.3538    8.9060    9.1798 N   0  0  0  0  0  0  0  0  0  0  0  0
   -4.0541    3.3120   13.6933 C   0  0  2  0  0  0  0  0  0  0  0  0
   -2.6046    3.4472   13.8398 O   0  0  0  0  0  0  0  0  0  0  0  0
   -0.5373    1.2992   16.3516 C   0  0  1  0  0  0  0  0  0  0  0  0
   -1.5118    0.3017   16.7315 O   0  0  0  0  0  0  0  0  0  0  0  0
   -3.2165   11.3679   12.6078 C   0  0  2  0  0  0  0  0  0  0  0  0
   -3.3532   12.7086   12.1976 O   0  0  0  0  0  0  0  0  0  0  0  0
   -4.7786    7.3212   10.5008 C   0  0  2  0  0  0  0  0  0  0  0  0
   -4.4192    2.6439   12.3570 C   0  0  2  0  0  0  0  0  0  0  0  0
   -4.5665    3.7529   11.4733 O   0  0  0  0  0  0  0  0  0  0  0  0
    0.4502    0.6901   15.2465 C   0  0  2  0  0  0  0  0  0  0  0  0
    1.5347    1.6038   15.0873 O   0  0  0  0  0  0  0  0  0  0  0  0
   -2.7933   10.4617   11.4039 C   0  0  2  0  0  0  0  0  0  0  0  0
   -2.6674    9.0751   11.8524 O   0  0  0  0  0  0  0  0  0  0  0  0
   -6.0247    6.4089   10.5151 C   0  0  2  0  0  0  0  0  0  0  0  0
   -5.9491    5.6787   11.7703 O   0  0  0  0  0  0  0  0  0  0  0  0
   -5.7146    1.7749   12.3879 C   0  0  0  0  0  0  0  0  0  0  0  0
   -5.6336    0.8478   13.4663 O   0  0  0  0  0  0  0  0  0  0  0  0
   -0.3025    0.4932   13.8765 C   0  0  1  0  0  0  0  0  0  0  0  0
   -0.8317    1.8173   13.5064 O   0  0  0  0  0  0  0  0  0  0  0  0
   -1.4874   10.8964   10.7798 C   0  0  0  0  0  0  0  0  0  0  0  0
   -1.6246   12.1751   10.2094 O   0  0  0  0  0  0  0  0  0  0  0  0
   -5.9894    5.4121    9.2819 C   0  0  1  0  0  0  0  0  0  0  0  0
   -7.2120    4.6735    9.2093 O   0  0  0  0  0  0  0  0  0  0  0  0
    0.6148   -0.0778   12.7098 C   0  0  0  0  0  0  0  0  0  0  0  0
    1.8776    0.6705   12.4611 N   0  0  0  0  0  0  0  0  0  0  0  0
  1  2  1  6  0  0  0
  1  7  1  0  0  0  0
  1 30  1  0  0  0  0
  3  4  1  6  0  0  0
  3  9  1  0  0  0  0
  3 39  1  0  0  0  0
  5 10  1  0  0  0  0
  5 26  1  0  0  0  0
  5 32  1  6  0  0  0
  6 12  1  0  0  0  0
  6 36  1  0  0  0  0
  6 19  1  6  0  0  0
  7  8  1  6  0  0  0
  7 14  1  0  0  0  0
  9 16  1  0  0  0  0
 10 11  1  1  0  0  0
 10 18  1  0  0  0  0
 12 13  1  6  0  0  0
 12 20  1  0  0  0  0
 14 15  1  1  0  0  0
 14 22  1  0  0  0  0
 16 17  1  1  0  0  0
 16 24  1  0  0  0  0
 18 19  1  6  0  0  0
 18 25  1  0  0  0  0
 20 21  1  6  0  0  0
 20 27  1  0  0  0  0
 22 23  1  6  0  0  0
 22 29  1  0  0  0  0
 24  2  1  1  0  0  0
 24 31  1  0  0  0  0
 25 26  1  0  0  0  0
 25 33  1  1  0  0  0
 27 28  1  6  0  0  0
 27 35  1  0  0  0  0
 29 30  1  0  0  0  0
 29 37  1  1  0  0  0
 31 32  1  1  0  0  0
 31 39  1  0  0  0  0
 33 34  1  0  0  0  0
 35 36  1  0  0  0  0
 35 41  1  6  0  0  0
 37 38  1  0  0  0  0
 39 40  1  6  0  0  0
 41 42  1  0  0  0  0
M  END
>  <CHROM.1>
-169.37368604,-109.70612223,153.94894616,-112.33485525,-51.91671988,-64.46952169
-49.61163316,162.87745989,-52.77128775,-3.34120055,5.62425232,12.40171742
-2.04907030,0.80057134,3.12390153

>  <Name>
ligand

>  <RI>
0

>  <Rbt.Current_Directory>
/home/itssahil/PROJECTS/Mol_Feturizer/Test_systems_manuscript/rnas/2o3w

>  <Rbt.Executable>
rbdock ($Id: //depot/dev/client3/rdock/2013.1/src/exe/rbdock.cxx#4 $)

>  <Rbt.Library>
libRbt.so (2013.1, Build901 2013/11/27)

>  <Rbt.Parameter_File>
/export/apps/rDock/src/rDock_2013.1_src/data/scripts/dock_solv.prm

>  <Rbt.Receptor>
prm/blind_docking_60.prm

>  <SCORE>
15.5309

>  <SCORE.INTER>
4.84688

>  <SCORE.INTER.CONST>
1

>  <SCORE.INTER.POLAR>
0

>  <SCORE.INTER.ROT>
9

>  <SCORE.INTER.SOLV>
31.2718

>  <SCORE.INTER.VDW>
-16.7927

>  <SCORE.INTER.norm>
0.115402

>  <SCORE.INTRA>
-2.24843

>  <SCORE.INTRA.DIHEDRAL>
-8.577

>  <SCORE.INTRA.DIHEDRAL.0>
27.8999

>  <SCORE.INTRA.POLAR>
0

>  <SCORE.INTRA.POLAR.0>
0

>  <SCORE.INTRA.REPUL>
0

>  <SCORE.INTRA.REPUL.0>
0

>  <SCORE.INTRA.SOLV>
0.279704

>  <SCORE.INTRA.SOLV.lig_0>
-104.479

>  <SCORE.INTRA.VDW>
1.90022

>  <SCORE.INTRA.VDW.0>
-6.17816

>  <SCORE.INTRA.norm>
-0.0535341

>  <SCORE.RESTR>
12.9324

>  <SCORE.RESTR.CAVITY>
12.9324

>  <SCORE.RESTR.norm>
0.307915

>  <SCORE.SYSTEM>
0

>  <SCORE.SYSTEM.CONST>
0

>  <SCORE.SYSTEM.DIHEDRAL>
0

>  <SCORE.SYSTEM.SOLV>
0

>  <SCORE.SYSTEM.norm>
0

>  <SCORE.heavy>
42

>  <SCORE.norm>
0.369783

>  <RMSD>
17.409

$$$$
ligand
 OpenBabel02271912133D
libRbt.so/2013.1/901 2013/11/27
 42 45  0  0  0  0  0  0  0  0999 V2000
   12.6441   11.8795   -6.8193 C   0  0  2  0  0  0  0  0  0  0  0  0
   13.4116   11.5302   -7.9838 O   0  0  0  0  0  0  0  0  0  0  0  0
   12.2236    8.7596  -11.0997 C   0  0  2  0  0  0  0  0  0  0  0  0
   11.5789    8.1587  -12.3054 N   0  0  0  0  0  0  0  0  0  0  0  0
   13.3898   13.1364  -10.9629 C   0  0  1  0  0  0  0  0  0  0  0  0
   10.1521   15.6060  -11.9128 C   0  0  1  0  0  0  0  0  0  0  0  0
   12.9615   13.3704   -6.4955 C   0  0  2  0  0  0  0  0  0  0  0  0
   12.8337   14.2432   -7.6755 N   0  0  0  0  0  0  0  0  0  0  0  0
   11.1490    9.1362  -10.0018 C   0  0  0  0  0  0  0  0  0  0  0  0
   12.8536   13.0272  -12.4228 C   0  0  2  0  0  0  0  0  0  0  0  0
   13.6521   13.7406  -13.3988 O   0  0  0  0  0  0  0  0  0  0  0  0
    9.7384   16.9332  -12.6451 C   0  0  2  0  0  0  0  0  0  0  0  0
   10.8685   17.9096  -12.6587 N   0  0  0  0  0  0  0  0  0  0  0  0
   14.3909   13.5594   -5.9552 C   0  0  1  0  0  0  0  0  0  0  0  0
   14.6242   14.9321   -5.6352 O   0  0  0  0  0  0  0  0  0  0  0  0
   11.8893    9.7424   -8.7500 C   0  0  2  0  0  0  0  0  0  0  0  0
   10.9076   10.0954   -7.6892 N   0  0  0  0  0  0  0  0  0  0  0  0
   11.4180   13.5257  -12.2500 C   0  0  2  0  0  0  0  0  0  0  0  0
   11.3244   14.9733  -12.4411 O   0  0  0  0  0  0  0  0  0  0  0  0
    8.4494   17.5548  -11.9247 C   0  0  1  0  0  0  0  0  0  0  0  0
    7.2940   16.7548  -12.2627 O   0  0  0  0  0  0  0  0  0  0  0  0
   14.6013   12.6492   -4.7238 C   0  0  2  0  0  0  0  0  0  0  0  0
   15.9002   12.8230   -4.2070 O   0  0  0  0  0  0  0  0  0  0  0  0
   12.7133   11.0270   -9.1583 C   0  0  2  0  0  0  0  0  0  0  0  0
   10.9974   13.1232  -10.8264 C   0  0  2  0  0  0  0  0  0  0  0  0
   12.2262   13.1646  -10.1048 O   0  0  0  0  0  0  0  0  0  0  0  0
    8.6024   17.6288  -10.3314 C   0  0  2  0  0  0  0  0  0  0  0  0
    9.5867   18.6198  -10.0387 O   0  0  0  0  0  0  0  0  0  0  0  0
   14.3680   11.1597   -5.1441 C   0  0  2  0  0  0  0  0  0  0  0  0
   13.0177   11.0071   -5.6857 O   0  0  0  0  0  0  0  0  0  0  0  0
   13.7474   10.7465  -10.2707 C   0  0  2  0  0  0  0  0  0  0  0  0
   14.2703   12.0511  -10.6437 O   0  0  0  0  0  0  0  0  0  0  0  0
   10.3255   11.7199  -10.7106 C   0  0  0  0  0  0  0  0  0  0  0  0
   10.5130   11.0065  -11.9292 O   0  0  0  0  0  0  0  0  0  0  0  0
    9.0444   16.2329   -9.7500 C   0  0  1  0  0  0  0  0  0  0  0  0
   10.3030   15.8854  -10.4322 O   0  0  0  0  0  0  0  0  0  0  0  0
   14.5476   10.1960   -3.9940 C   0  0  0  0  0  0  0  0  0  0  0  0
   15.8988   10.1525   -3.6044 O   0  0  0  0  0  0  0  0  0  0  0  0
   13.0454   10.0471  -11.5091 C   0  0  1  0  0  0  0  0  0  0  0  0
   14.0253    9.6513  -12.4729 O   0  0  0  0  0  0  0  0  0  0  0  0
    9.2533   16.2247   -8.1736 C   0  0  0  0  0  0  0  0  0  0  0  0
   10.1535   15.1604   -7.6506 N   0  0  0  0  0  0  0  0  0  0  0  0
  1  2  1  6  0  0  0
  1  7  1  0  0  0  0
  1 30  1  0  0  0  0
  3  4  1  6  0  0  0
  3  9  1  0  0  0  0
  3 39  1  0  0  0  0
  5 10  1  0  0  0  0
  5 26  1  0  0  0  0
  5 32  1  1  0  0  0
  6 12  1  0  0  0  0
  6 36  1  0  0  0  0
  6 19  1  6  0  0  0
  7  8  1  6  0  0  0
  7 14  1  0  0  0  0
  9 16  1  0  0  0  0
 10 11  1  6  0  0  0
 10 18  1  0  0  0  0
 12 13  1  1  0  0  0
 12 20  1  0  0  0  0
 14 15  1  1  0  0  0
 14 22  1  0  0  0  0
 16 17  1  1  0  0  0
 16 24  1  0  0  0  0
 18 19  1  1  0  0  0
 18 25  1  0  0  0  0
 20 21  1  1  0  0  0
 20 27  1  0  0  0  0
 22 23  1  6  0  0  0
 22 29  1  0  0  0  0
 24  2  1  1  0  0  0
 24 31  1  0  0  0  0
 25 26  1  0  0  0  0
 25 33  1  6  0  0  0
 27 28  1  6  0  0  0
 27 35  1  0  0  0  0
 29 30  1  0  0  0  0
 29 37  1  1  0  0  0
 31 32  1  6  0  0  0
 31 39  1  0  0  0  0
 33 34  1  0  0  0  0
 35 36  1  0  0  0  0
 35 41  1  1  0  0  0
 37 38  1  0  0  0  0
 39 40  1  6  0  0  0
 41 42  1  0  0  0  0
M  END
>  <CHROM.1>
-122.90239432,-57.52051178,-161.43881740,-153.41734017,12.31331392,-68.27704153
-50.69547094,-80.22909416,-156.73393963,12.04901662,13.07637812,-9.38662976
0.06356428,-1.03612490,0.82520516

>  <Name>
ligand

>  <RI>
0

>  <Rbt.Current_Directory>
/home/itssahil/PROJECTS/Mol_Feturizer/Test_systems_manuscript/rnas/2o3w

>  <Rbt.Executable>
rbdock ($Id: //depot/dev/client3/rdock/2013.1/src/exe/rbdock.cxx#4 $)

>  <Rbt.Library>
libRbt.so (2013.1, Build901 2013/11/27)

>  <Rbt.Parameter_File>
/export/apps/rDock/src/rDock_2013.1_src/data/scripts/dock_solv.prm

>  <Rbt.Receptor>
prm/blind_docking_40.prm

>  <SCORE>
18.3622

>  <SCORE.INTER>
-3.70261

>  <SCORE.INTER.CONST>
1

>  <SCORE.INTER.POLAR>
0

>  <SCORE.INTER.ROT>
9

>  <SCORE.INTER.SOLV>
31.6119

>  <SCORE.INTER.VDW>
-22.6057

>  <SCORE.INTER.norm>
-0.0881573

>  <SCORE.INTRA>
13.3539

>  <SCORE.INTRA.DIHEDRAL>
-7.15077

>  <SCORE.INTRA.DIHEDRAL.0>
27.8999

>  <SCORE.INTRA.POLAR>
0

>  <SCORE.INTRA.POLAR.0>
0

>  <SCORE.INTRA.REPUL>
0.374984

>  <SCORE.INTRA.REPUL.0>
0

>  <SCORE.INTRA.SOLV>
7.322

>  <SCORE.INTRA.SOLV.lig_0>
-104.479

>  <SCORE.INTRA.VDW>
11.3934

>  <SCORE.INTRA.VDW.0>
-6.17816

>  <SCORE.INTRA.norm>
0.31795

>  <SCORE.RESTR>
8.71087

>  <SCORE.RESTR.CAVITY>
8.71087

>  <SCORE.RESTR.norm>
0.207402

>  <SCORE.SYSTEM>
0

>  <SCORE.SYSTEM.CONST>
0

>  <SCORE.SYSTEM.DIHEDRAL>
0

>  <SCORE.SYSTEM.SOLV>
0

>  <SCORE.SYSTEM.norm>
0

>  <SCORE.heavy>
42

>  <SCORE.norm>
0.437195

>  <RMSD>
17.491

$$$$
ligand
 OpenBabel02271912133D
libRbt.so/2013.1/901 2013/11/27
 42 45  0  0  0  0  0  0  0  0999 V2000
   -5.3622    9.2328   11.7136 C   0  0  2  0  0  0  0  0  0  0  0  0
   -4.4387    8.1352   11.8127 O   0  0  0  0  0  0  0  0  0  0  0  0
   -5.5776    6.0990    8.1586 C   0  0  2  0  0  0  0  0  0  0  0  0
   -5.6479    5.1207    7.0324 N   0  0  0  0  0  0  0  0  0  0  0  0
   -4.7635    4.4984   12.1998 C   0  0  1  0  0  0  0  0  0  0  0  0
   -1.5510    1.9410   13.3928 C   0  0  1  0  0  0  0  0  0  0  0  0
   -4.5466   10.5374   11.9606 C   0  0  2  0  0  0  0  0  0  0  0  0
   -3.3269   10.6043   11.1368 N   0  0  0  0  0  0  0  0  0  0  0  0
   -4.1879    6.8542    8.1769 C   0  0  0  0  0  0  0  0  0  0  0  0
   -3.3060    4.9154   11.8356 C   0  0  2  0  0  0  0  0  0  0  0  0
   -2.9437    4.6492   10.4583 O   0  0  0  0  0  0  0  0  0  0  0  0
   -1.1207    2.6424   14.7313 C   0  0  2  0  0  0  0  0  0  0  0  0
   -0.1818    3.7727   14.4633 N   0  0  0  0  0  0  0  0  0  0  0  0
   -4.1007   10.6789   13.4276 C   0  0  1  0  0  0  0  0  0  0  0  0
   -3.3924   11.9051   13.6161 O   0  0  0  0  0  0  0  0  0  0  0  0
   -4.1829    7.8847    9.3688 C   0  0  2  0  0  0  0  0  0  0  0  0
   -2.8929    8.6251    9.4073 N   0  0  0  0  0  0  0  0  0  0  0  0
   -2.5058    4.1501   12.8907 C   0  0  2  0  0  0  0  0  0  0  0  0
   -2.1259    2.8189   12.4169 O   0  0  0  0  0  0  0  0  0  0  0  0
   -0.4539    1.5590   15.7053 C   0  0  1  0  0  0  0  0  0  0  0  0
   -1.4927    0.7054   16.2355 O   0  0  0  0  0  0  0  0  0  0  0  0
   -5.3361   10.5927   14.3525 C   0  0  2  0  0  0  0  0  0  0  0  0
   -4.9467   10.7373   15.6986 O   0  0  0  0  0  0  0  0  0  0  0  0
   -4.4105    7.1446   10.7459 C   0  0  2  0  0  0  0  0  0  0  0  0
   -3.4121    4.0628   14.1302 C   0  0  2  0  0  0  0  0  0  0  0  0
   -4.7221    4.0338   13.5686 O   0  0  0  0  0  0  0  0  0  0  0  0
    0.6544    0.6629   14.9729 C   0  0  2  0  0  0  0  0  0  0  0  0
    1.7716    1.5046   14.6907 O   0  0  0  0  0  0  0  0  0  0  0  0
   -6.0475    9.2170   14.1274 C   0  0  2  0  0  0  0  0  0  0  0  0
   -6.4331    9.0867   12.7223 O   0  0  0  0  0  0  0  0  0  0  0  0
   -5.7263    6.3367   10.7813 C   0  0  2  0  0  0  0  0  0  0  0  0
   -5.6806    5.5865   12.0261 O   0  0  0  0  0  0  0  0  0  0  0  0
   -3.2605    5.2419   15.1406 C   0  0  0  0  0  0  0  0  0  0  0  0
   -1.8982    5.3438   15.5437 O   0  0  0  0  0  0  0  0  0  0  0  0
    0.0817    0.0512   13.6388 C   0  0  1  0  0  0  0  0  0  0  0  0
   -0.3636    1.1940   12.8227 O   0  0  0  0  0  0  0  0  0  0  0  0
   -7.2760    9.0493   14.9913 C   0  0  0  0  0  0  0  0  0  0  0  0
   -6.9450    9.2340   16.3461 O   0  0  0  0  0  0  0  0  0  0  0  0
   -5.8024    5.3566    9.5366 C   0  0  1  0  0  0  0  0  0  0  0  0
   -7.0827    4.7212    9.4864 O   0  0  0  0  0  0  0  0  0  0  0  0
    1.1292   -0.8283   12.8277 C   0  0  0  0  0  0  0  0  0  0  0  0
    1.5140   -2.1181   13.4640 N   0  0  0  0  0  0  0  0  0  0  0  0
  1  2  1  1  0  0  0
  1  7  1  0  0  0  0
  1 30  1  0  0  0  0
  3  4  1  6  0  0  0
  3  9  1  0  0  0  0
  3 39  1  0  0  0  0
  5 10  1  0  0  0  0
  5 26  1  0  0  0  0
  5 32  1  1  0  0  0
  6 12  1  0  0  0  0
  6 36  1  0  0  0  0
  6 19  1  6  0  0  0
  7  8  1  6  0  0  0
  7 14  1  0  0  0  0
  9 16  1  0  0  0  0
 10 11  1  6  0  0  0
 10 18  1  0  0  0  0
 12 13  1  6  0  0  0
 12 20  1  0  0  0  0
 14 15  1  6  0  0  0
 14 22  1  0  0  0  0
 16 17  1  1  0  0  0
 16 24  1  0  0  0  0
 18 19  1  6  0  0  0
 18 25  1  0  0  0  0
 20 21  1  6  0  0  0
 20 27  1  0  0  0  0
 22 23  1  1  0  0  0
 22 29  1  0  0  0  0
 24  2  1  1  0  0  0
 24 31  1  0  0  0  0
 25 26  1  0  0  0  0
 25 33  1  1  0  0  0
 27 28  1  6  0  0  0
 27 35  1  0  0  0  0
 29 30  1  0  0  0  0
 29 37  1  1  0  0  0
 31 32  1  1  0  0  0
 31 39  1  0  0  0  0
 33 34  1  0  0  0  0
 35 36  1  0  0  0  0
 35 41  1  6  0  0  0
 37 38  1  0  0  0  0
 39 40  1  6  0  0  0
 41 42  1  0  0  0  0
M  END
>  <CHROM.1>
-129.65651517,54.61208188,-170.86824353,-13.14136407,-55.97134283,-55.27666414
-70.15890054,51.37966618,69.00583737,-3.39371482,5.56330462,12.69963061,2.83042748
-0.99541185,1.00145927

>  <Name>
ligand

>  <RI>
0

>  <Rbt.Current_Directory>
/home/itssahil/PROJECTS/Mol_Feturizer/Test_systems_manuscript/rnas/2o3w

>  <Rbt.Executable>
rbdock ($Id: //depot/dev/client3/rdock/2013.1/src/exe/rbdock.cxx#4 $)

>  <Rbt.Library>
libRbt.so (2013.1, Build901 2013/11/27)

>  <Rbt.Parameter_File>
/export/apps/rDock/src/rDock_2013.1_src/data/scripts/dock_solv.prm

>  <Rbt.Receptor>
prm/blind_docking_60.prm

>  <SCORE>
19.1348

>  <SCORE.INTER>
3.7888

>  <SCORE.INTER.CONST>
1

>  <SCORE.INTER.POLAR>
0

>  <SCORE.INTER.ROT>
9

>  <SCORE.INTER.SOLV>
20.1018

>  <SCORE.INTER.VDW>
-13.7747

>  <SCORE.INTER.norm>
0.0902096

>  <SCORE.INTRA>
3.48857

>  <SCORE.INTRA.DIHEDRAL>
-12.8934

>  <SCORE.INTRA.DIHEDRAL.0>
27.8999

>  <SCORE.INTRA.POLAR>
0

>  <SCORE.INTRA.POLAR.0>
0

>  <SCORE.INTRA.REPUL>
0

>  <SCORE.INTRA.REPUL.0>
0

>  <SCORE.INTRA.SOLV>
2.83581

>  <SCORE.INTRA.SOLV.lig_0>
-104.479

>  <SCORE.INTRA.VDW>
8.51736

>  <SCORE.INTRA.VDW.0>
-6.17816

>  <SCORE.INTRA.norm>
0.0830612

>  <SCORE.RESTR>
11.8574

>  <SCORE.RESTR.CAVITY>
11.8574

>  <SCORE.RESTR.norm>
0.282319

>  <SCORE.SYSTEM>
0

>  <SCORE.SYSTEM.CONST>
0

>  <SCORE.SYSTEM.DIHEDRAL>
0

>  <SCORE.SYSTEM.SOLV>
0

>  <SCORE.SYSTEM.norm>
0

>  <SCORE.heavy>
42

>  <SCORE.norm>
0.45559

>  <RMSD>
17.526

$$$$
ligand
 OpenBabel02271912133D
libRbt.so/2013.1/901 2013/11/27
 42 45  0  0  0  0  0  0  0  0999 V2000
   12.5631   10.9353   -6.5561 C   0  0  2  0  0  0  0  0  0  0  0  0
   13.2709   10.6694   -7.7790 O   0  0  0  0  0  0  0  0  0  0  0  0
   11.5268    8.8974  -11.3306 C   0  0  2  0  0  0  0  0  0  0  0  0
   10.7987    8.7079  -12.6207 N   0  0  0  0  0  0  0  0  0  0  0  0
   13.8223   12.6642  -10.6926 C   0  0  1  0  0  0  0  0  0  0  0  0
   11.2832   15.7946  -12.6427 C   0  0  1  0  0  0  0  0  0  0  0  0
   12.0979   12.4214   -6.6134 C   0  0  2  0  0  0  0  0  0  0  0  0
   11.4125   12.7493   -7.8757 N   0  0  0  0  0  0  0  0  0  0  0  0
   10.5440    9.3548  -10.1787 C   0  0  0  0  0  0  0  0  0  0  0  0
   13.2857   12.6436  -12.1562 C   0  0  2  0  0  0  0  0  0  0  0  0
   14.2612   13.0500  -13.1473 O   0  0  0  0  0  0  0  0  0  0  0  0
   11.5897   17.3325  -12.5440 C   0  0  2  0  0  0  0  0  0  0  0  0
   12.0813   17.6920  -11.1802 N   0  0  0  0  0  0  0  0  0  0  0  0
   13.2729   13.4071   -6.4763 C   0  0  1  0  0  0  0  0  0  0  0  0
   12.7969   14.7540   -6.4942 O   0  0  0  0  0  0  0  0  0  0  0  0
   11.3635    9.5156   -8.8427 C   0  0  2  0  0  0  0  0  0  0  0  0
   10.4656    9.9321   -7.7319 N   0  0  0  0  0  0  0  0  0  0  0  0
   12.0531   13.5408  -12.0334 C   0  0  2  0  0  0  0  0  0  0  0  0
   12.3809   14.9434  -12.2903 O   0  0  0  0  0  0  0  0  0  0  0  0
   10.2691   18.1597  -12.9164 C   0  0  1  0  0  0  0  0  0  0  0  0
   10.0521   18.0760  -14.3428 O   0  0  0  0  0  0  0  0  0  0  0  0
   14.0533   13.1016   -5.1775 C   0  0  2  0  0  0  0  0  0  0  0  0
   15.1227   14.0064   -5.0286 O   0  0  0  0  0  0  0  0  0  0  0  0
   12.5158   10.5816   -9.0210 C   0  0  2  0  0  0  0  0  0  0  0  0
   11.5265   13.3448  -10.6018 C   0  0  2  0  0  0  0  0  0  0  0  0
   12.7111   13.0664   -9.8591 O   0  0  0  0  0  0  0  0  0  0  0  0
    8.9673   17.6336  -12.1443 C   0  0  2  0  0  0  0  0  0  0  0  0
    9.1208   17.9655  -10.7650 O   0  0  0  0  0  0  0  0  0  0  0  0
   14.5789   11.6283   -5.2323 C   0  0  2  0  0  0  0  0  0  0  0  0
   13.4522   10.7099   -5.3966 O   0  0  0  0  0  0  0  0  0  0  0  0
   13.4857   10.2287  -10.1699 C   0  0  2  0  0  0  0  0  0  0  0  0
   14.3517   11.3885  -10.3086 O   0  0  0  0  0  0  0  0  0  0  0  0
   10.4787   12.2006  -10.4368 C   0  0  0  0  0  0  0  0  0  0  0  0
    9.5500   12.2540  -11.5155 O   0  0  0  0  0  0  0  0  0  0  0  0
    8.8109   16.0754  -12.3162 C   0  0  1  0  0  0  0  0  0  0  0  0
   10.0593   15.4804  -11.8083 O   0  0  0  0  0  0  0  0  0  0  0  0
   15.3521   11.2403   -3.9932 C   0  0  0  0  0  0  0  0  0  0  0  0
   15.6399    9.8633   -4.0126 O   0  0  0  0  0  0  0  0  0  0  0  0
   12.6778    9.9668  -11.5094 C   0  0  1  0  0  0  0  0  0  0  0  0
   13.5583    9.4937  -12.5323 O   0  0  0  0  0  0  0  0  0  0  0  0
    7.5589   15.4619  -11.5516 C   0  0  0  0  0  0  0  0  0  0  0  0
    6.2576   16.1405  -11.8024 N   0  0  0  0  0  0  0  0  0  0  0  0
  1  2  1  6  0  0  0
  1  7  1  0  0  0  0
  1 30  1  0  0  0  0
  3  4  1  6  0  0  0
  3  9  1  0  0  0  0
  3 39  1  0  0  0  0
  5 10  1  0  0  0  0
  5 26  1  0  0  0  0
  5 32  1  1  0  0  0
  6 12  1  0  0  0  0
  6 36  1  0  0  0  0
  6 19  1  1  0  0  0
  7  8  1  6  0  0  0
  7 14  1  0  0  0  0
  9 16  1  0  0  0  0
 10 11  1  6  0  0  0
 10 18  1  0  0  0  0
 12 13  1  1  0  0  0
 12 20  1  0  0  0  0
 14 15  1  1  0  0  0
 14 22  1  0  0  0  0
 16 17  1  1  0  0  0
 16 24  1  0  0  0  0
 18 19  1  1  0  0  0
 18 25  1  0  0  0  0
 20 21  1  6  0  0  0
 20 27  1  0  0  0  0
 22 23  1  6  0  0  0
 22 29  1  0  0  0  0
 24  2  1  1  0  0  0
 24 31  1  0  0  0  0
 25 26  1  0  0  0  0
 25 33  1  6  0  0  0
 27 28  1  1  0  0  0
 27 35  1  0  0  0  0
 29 30  1  0  0  0  0
 29 37  1  1  0  0  0
 31 32  1  6  0  0  0
 31 39  1  0  0  0  0
 33 34  1  0  0  0  0
 35 36  1  0  0  0  0
 35 41  1  1  0  0  0
 37 38  1  0  0  0  0
 39 40  1  6  0  0  0
 41 42  1  0  0  0  0
M  END
>  <CHROM.1>
-71.27083867,-54.17811198,159.90196382,164.76582017,-43.01391380,171.91734847
-63.30677593,-66.72408106,50.74642850,11.95492732,13.03600536,-9.78956609
-0.21394134,-1.10353071,0.49962920

>  <Name>
ligand

>  <RI>
0

>  <Rbt.Current_Directory>
/home/itssahil/PROJECTS/Mol_Feturizer/Test_systems_manuscript/rnas/2o3w

>  <Rbt.Executable>
rbdock ($Id: //depot/dev/client3/rdock/2013.1/src/exe/rbdock.cxx#4 $)

>  <Rbt.Library>
libRbt.so (2013.1, Build901 2013/11/27)

>  <Rbt.Parameter_File>
/export/apps/rDock/src/rDock_2013.1_src/data/scripts/dock_solv.prm

>  <Rbt.Receptor>
prm/blind_docking_100.prm

>  <SCORE>
20.3515

>  <SCORE.INTER>
13.4935

>  <SCORE.INTER.CONST>
1

>  <SCORE.INTER.POLAR>
0

>  <SCORE.INTER.ROT>
9

>  <SCORE.INTER.SOLV>
32.2997

>  <SCORE.INTER.VDW>
-11.3709

>  <SCORE.INTER.norm>
0.321274

>  <SCORE.INTRA>
1.01161

>  <SCORE.INTRA.DIHEDRAL>
-22.3454

>  <SCORE.INTRA.DIHEDRAL.0>
27.8999

>  <SCORE.INTRA.POLAR>
0

>  <SCORE.INTRA.POLAR.0>
0

>  <SCORE.INTRA.REPUL>
0

>  <SCORE.INTRA.REPUL.0>
0

>  <SCORE.INTRA.SOLV>
6.58504

>  <SCORE.INTRA.SOLV.lig_0>
-104.479

>  <SCORE.INTRA.VDW>
8.89178

>  <SCORE.INTRA.VDW.0>
-6.17816

>  <SCORE.INTRA.norm>
0.024086

>  <SCORE.RESTR>
5.84632

>  <SCORE.RESTR.CAVITY>
5.84632

>  <SCORE.RESTR.norm>
0.139198

>  <SCORE.SYSTEM>
0

>  <SCORE.SYSTEM.CONST>
0

>  <SCORE.SYSTEM.DIHEDRAL>
0

>  <SCORE.SYSTEM.SOLV>
0

>  <SCORE.SYSTEM.norm>
0

>  <SCORE.heavy>
42

>  <SCORE.norm>
0.484558

>  <RMSD>
17.661

$$$$
ligand
 OpenBabel02271912133D
libRbt.so/2013.1/901 2013/11/27
 42 45  0  0  0  0  0  0  0  0999 V2000
   12.4209   10.7388   -6.6168 C   0  0  2  0  0  0  0  0  0  0  0  0
   13.1610   10.5021   -7.8265 O   0  0  0  0  0  0  0  0  0  0  0  0
   11.4530    8.9152  -11.4818 C   0  0  2  0  0  0  0  0  0  0  0  0
   10.7606    8.7971  -12.7997 N   0  0  0  0  0  0  0  0  0  0  0  0
   13.9177   12.5325  -10.7132 C   0  0  1  0  0  0  0  0  0  0  0  0
   11.6049   15.7771  -12.7569 C   0  0  1  0  0  0  0  0  0  0  0  0
   12.1229   12.2671   -6.5573 C   0  0  2  0  0  0  0  0  0  0  0  0
   11.5463   12.7784   -7.8129 N   0  0  0  0  0  0  0  0  0  0  0  0
   10.4555    9.3902  -10.3499 C   0  0  0  0  0  0  0  0  0  0  0  0
   13.3974   12.5166  -12.1828 C   0  0  2  0  0  0  0  0  0  0  0  0
   14.4078   12.8407  -13.1692 O   0  0  0  0  0  0  0  0  0  0  0  0
   12.0728   17.2675  -12.9263 C   0  0  2  0  0  0  0  0  0  0  0  0
   12.7357   17.7631  -11.6830 N   0  0  0  0  0  0  0  0  0  0  0  0
   13.3884   13.0987   -6.2780 C   0  0  1  0  0  0  0  0  0  0  0  0
   13.0625   14.4870   -6.1926 O   0  0  0  0  0  0  0  0  0  0  0  0
   11.2363    9.4740   -8.9839 C   0  0  2  0  0  0  0  0  0  0  0  0
   10.3229    9.9049   -7.8914 N   0  0  0  0  0  0  0  0  0  0  0  0
   12.2229   13.4923  -12.0926 C   0  0  2  0  0  0  0  0  0  0  0  0
   12.6419   14.8660  -12.3723 O   0  0  0  0  0  0  0  0  0  0  0  0
   10.8107   18.1778  -13.3076 C   0  0  1  0  0  0  0  0  0  0  0  0
   10.4407   17.9126  -14.6793 O   0  0  0  0  0  0  0  0  0  0  0  0
   14.0598   12.5956   -4.9797 C   0  0  2  0  0  0  0  0  0  0  0  0
   15.2111   13.3579   -4.7009 O   0  0  0  0  0  0  0  0  0  0  0  0
   12.4449   10.4855   -9.0943 C   0  0  2  0  0  0  0  0  0  0  0  0
   11.6688   13.3586  -10.6642 C   0  0  2  0  0  0  0  0  0  0  0  0
   12.8249   13.0207   -9.9016 O   0  0  0  0  0  0  0  0  0  0  0  0
    9.5490   17.9229  -12.3533 C   0  0  2  0  0  0  0  0  0  0  0  0
    9.8761   18.4323  -11.0611 O   0  0  0  0  0  0  0  0  0  0  0  0
   14.4251   11.0830   -5.1469 C   0  0  2  0  0  0  0  0  0  0  0  0
   13.2164   10.3150   -5.4449 O   0  0  0  0  0  0  0  0  0  0  0  0
   13.4345   10.1153  -10.2207 C   0  0  2  0  0  0  0  0  0  0  0  0
   14.3606   11.2338  -10.2982 O   0  0  0  0  0  0  0  0  0  0  0  0
   10.5487   12.2864  -10.4904 C   0  0  0  0  0  0  0  0  0  0  0  0
   10.0132   11.9543  -11.7679 O   0  0  0  0  0  0  0  0  0  0  0  0
    9.2201   16.3846  -12.2657 C   0  0  1  0  0  0  0  0  0  0  0  0
   10.4479   15.7306  -11.7811 O   0  0  0  0  0  0  0  0  0  0  0  0
   15.0836   10.5043   -3.9159 C   0  0  0  0  0  0  0  0  0  0  0  0
   16.3330   11.1147   -3.7020 O   0  0  0  0  0  0  0  0  0  0  0  0
   12.6605    9.9303  -11.5927 C   0  0  1  0  0  0  0  0  0  0  0  0
   13.5509    9.4412  -12.5995 O   0  0  0  0  0  0  0  0  0  0  0  0
    7.9981   16.0370  -11.3094 C   0  0  0  0  0  0  0  0  0  0  0  0
    7.5379   14.6215  -11.3440 N   0  0  0  0  0  0  0  0  0  0  0  0
  1  2  1  6  0  0  0
  1  7  1  0  0  0  0
  1 30  1  0  0  0  0
  3  4  1  6  0  0  0
  3  9  1  0  0  0  0
  3 39  1  0  0  0  0
  5 10  1  0  0  0  0
  5 26  1  0  0  0  0
  5 32  1  1  0  0  0
  6 12  1  0  0  0  0
  6 36  1  0  0  0  0
  6 19  1  1  0  0  0
  7  8  1  6  0  0  0
  7 14  1  0  0  0  0
  9 16  1  0  0  0  0
 10 11  1  6  0  0  0
 10 18  1  0  0  0  0
 12 13  1  1  0  0  0
 12 20  1  0  0  0  0
 14 15  1  1  0  0  0
 14 22  1  0  0  0  0
 16 17  1  1  0  0  0
 16 24  1  0  0  0  0
 18 19  1  1  0  0  0
 18 25  1  0  0  0  0
 20 21  1  6  0  0  0
 20 27  1  0  0  0  0
 22 23  1  6  0  0  0
 22 29  1  0  0  0  0
 24  2  1  1  0  0  0
 24 31  1  0  0  0  0
 25 26  1  0  0  0  0
 25 33  1  6  0  0  0
 27 28  1  1  0  0  0
 27 35  1  0  0  0  0
 29 30  1  0  0  0  0
 29 37  1  1  0  0  0
 31 32  1  6  0  0  0
 31 39  1  0  0  0  0
 33 34  1  0  0  0  0
 35 36  1  0  0  0  0
 35 41  1  1  0  0  0
 37 38  1  0  0  0  0
 39 40  1  6  0  0  0
 41 42  1  0  0  0  0
M  END
>  <CHROM.1>
-76.89391984,-52.72553644,159.79497401,174.91021900,-17.42800034,-65.38363065
-65.76650272,-63.22321202,171.95257850,12.14055144,12.95165185,-9.82762423
-0.37084714,-1.16704848,0.30303689

>  <Name>
ligand

>  <RI>
0

>  <Rbt.Current_Directory>
/home/itssahil/PROJECTS/Mol_Feturizer/Test_systems_manuscript/rnas/2o3w

>  <Rbt.Executable>
rbdock ($Id: //depot/dev/client3/rdock/2013.1/src/exe/rbdock.cxx#4 $)

>  <Rbt.Library>
libRbt.so (2013.1, Build901 2013/11/27)

>  <Rbt.Parameter_File>
/export/apps/rDock/src/rDock_2013.1_src/data/scripts/dock_solv.prm

>  <Rbt.Receptor>
prm/blind_docking_60.prm

>  <SCORE>
27.8056

>  <SCORE.INTER>
17.4967

>  <SCORE.INTER.CONST>
1

>  <SCORE.INTER.POLAR>
0

>  <SCORE.INTER.ROT>
9

>  <SCORE.INTER.SOLV>
29.494

>  <SCORE.INTER.VDW>
-7.76684

>  <SCORE.INTER.norm>
0.416588

>  <SCORE.INTRA>
2.00272

>  <SCORE.INTRA.DIHEDRAL>
-19.491

>  <SCORE.INTRA.DIHEDRAL.0>
27.8999

>  <SCORE.INTRA.POLAR>
0

>  <SCORE.INTRA.POLAR.0>
0

>  <SCORE.INTRA.REPUL>
0.0994801

>  <SCORE.INTRA.REPUL.0>
0

>  <SCORE.INTRA.SOLV>
7.14191

>  <SCORE.INTRA.SOLV.lig_0>
-104.479

>  <SCORE.INTRA.VDW>
7.67987

>  <SCORE.INTRA.VDW.0>
-6.17816

>  <SCORE.INTRA.norm>
0.0476839

>  <SCORE.RESTR>
8.30613

>  <SCORE.RESTR.CAVITY>
8.30613

>  <SCORE.RESTR.norm>
0.197765

>  <SCORE.SYSTEM>
0

>  <SCORE.SYSTEM.CONST>
0

>  <SCORE.SYSTEM.DIHEDRAL>
0

>  <SCORE.SYSTEM.SOLV>
0

>  <SCORE.SYSTEM.norm>
0

>  <SCORE.heavy>
42

>  <SCORE.norm>
0.662037

>  <RMSD>
17.702

$$$$
ligand
 OpenBabel02271912133D
libRbt.so/2013.1/901 2013/11/27
 42 45  0  0  0  0  0  0  0  0999 V2000
   11.3459    9.3094   -8.9005 C   0  0  2  0  0  0  0  0  0  0  0  0
   10.7702   10.3077   -9.7604 O   0  0  0  0  0  0  0  0  0  0  0  0
   13.6238   10.0829  -13.0165 C   0  0  2  0  0  0  0  0  0  0  0  0
   14.4426   10.4104  -14.2218 N   0  0  0  0  0  0  0  0  0  0  0  0
   12.2098   13.2110   -9.9695 C   0  0  1  0  0  0  0  0  0  0  0  0
   10.5897   15.2434  -11.3648 C   0  0  1  0  0  0  0  0  0  0  0  0
   10.3547    9.1027   -7.7160 C   0  0  2  0  0  0  0  0  0  0  0  0
    8.9702    8.8856   -8.1707 N   0  0  0  0  0  0  0  0  0  0  0  0
   12.0872    9.9800  -13.3771 C   0  0  0  0  0  0  0  0  0  0  0  0
   10.6929   12.9123   -9.7681 C   0  0  2  0  0  0  0  0  0  0  0  0
   10.0097   12.4917  -10.9745 O   0  0  0  0  0  0  0  0  0  0  0  0
   11.3912   16.5853  -11.5246 C   0  0  2  0  0  0  0  0  0  0  0  0
   10.4735   17.7630  -11.4819 N   0  0  0  0  0  0  0  0  0  0  0  0
   10.3250   10.3105   -6.7614 C   0  0  1  0  0  0  0  0  0  0  0  0
    9.4351   10.0616   -5.6719 O   0  0  0  0  0  0  0  0  0  0  0  0
   11.2809    9.6116  -12.0746 C   0  0  2  0  0  0  0  0  0  0  0  0
    9.8298    9.4921  -12.3807 N   0  0  0  0  0  0  0  0  0  0  0  0
   10.2094   14.2289   -9.1580 C   0  0  2  0  0  0  0  0  0  0  0  0
    9.7740   15.1716  -10.1888 O   0  0  0  0  0  0  0  0  0  0  0  0
   12.2164   16.5481  -12.8974 C   0  0  1  0  0  0  0  0  0  0  0  0
   13.3361   15.6470  -12.7451 O   0  0  0  0  0  0  0  0  0  0  0  0
   11.7574   10.6094   -6.2633 C   0  0  2  0  0  0  0  0  0  0  0  0
   11.7450   11.7025   -5.3748 O   0  0  0  0  0  0  0  0  0  0  0  0
   11.4984   10.7065  -10.9566 C   0  0  2  0  0  0  0  0  0  0  0  0
   11.3980   14.7878   -8.3579 C   0  0  2  0  0  0  0  0  0  0  0  0
   12.5274   14.3099   -9.0849 O   0  0  0  0  0  0  0  0  0  0  0  0
   11.3247   16.0885  -14.1468 C   0  0  2  0  0  0  0  0  0  0  0  0
   10.3891   17.1320  -14.4156 O   0  0  0  0  0  0  0  0  0  0  0  0
   12.6744   10.9088   -7.4957 C   0  0  2  0  0  0  0  0  0  0  0  0
   12.6631    9.7644   -8.4068 O   0  0  0  0  0  0  0  0  0  0  0  0
   12.9863   10.9027  -10.5920 C   0  0  2  0  0  0  0  0  0  0  0  0
   13.0133   12.0539   -9.7039 O   0  0  0  0  0  0  0  0  0  0  0  0
   11.4582   14.3351   -6.8660 C   0  0  0  0  0  0  0  0  0  0  0  0
   12.7511   14.6193   -6.3400 O   0  0  0  0  0  0  0  0  0  0  0  0
   10.5661   14.7458  -13.8244 C   0  0  1  0  0  0  0  0  0  0  0  0
    9.7675   15.0074  -12.6144 O   0  0  0  0  0  0  0  0  0  0  0  0
   14.1020   11.2069   -7.0995 C   0  0  0  0  0  0  0  0  0  0  0  0
   14.1655   12.4220   -6.3933 O   0  0  0  0  0  0  0  0  0  0  0  0
   13.8398   11.1812  -11.8995 C   0  0  1  0  0  0  0  0  0  0  0  0
   15.2339   11.2120  -11.5814 O   0  0  0  0  0  0  0  0  0  0  0  0
    9.6281   14.2331  -15.0017 C   0  0  0  0  0  0  0  0  0  0  0  0
   10.3115   13.9660  -16.2972 N   0  0  0  0  0  0  0  0  0  0  0  0
  1  2  1  6  0  0  0
  1  7  1  0  0  0  0
  1 30  1  0  0  0  0
  3  4  1  6  0  0  0
  3  9  1  0  0  0  0
  3 39  1  0  0  0  0
  5 10  1  0  0  0  0
  5 26  1  0  0  0  0
  5 32  1  1  0  0  0
  6 12  1  0  0  0  0
  6 36  1  0  0  0  0
  6 19  1  1  0  0  0
  7  8  1  6  0  0  0
  7 14  1  0  0  0  0
  9 16  1  0  0  0  0
 10 11  1  6  0  0  0
 10 18  1  0  0  0  0
 12 13  1  6  0  0  0
 12 20  1  0  0  0  0
 14 15  1  1  0  0  0
 14 22  1  0  0  0  0
 16 17  1  6  0  0  0
 16 24  1  0  0  0  0
 18 19  1  6  0  0  0
 18 25  1  0  0  0  0
 20 21  1  1  0  0  0
 20 27  1  0  0  0  0
 22 23  1  1  0  0  0
 22 29  1  0  0  0  0
 24  2  1  1  0  0  0
 24 31  1  0  0  0  0
 25 26  1  0  0  0  0
 25 33  1  1  0  0  0
 27 28  1  1  0  0  0
 27 35  1  0  0  0  0
 29 30  1  0  0  0  0
 29 37  1  1  0  0  0
 31 32  1  1  0  0  0
 31 39  1  0  0  0  0
 33 34  1  0  0  0  0
 35 36  1  0  0  0  0
 35 41  1  6  0  0  0
 37 38  1  0  0  0  0
 39 40  1  1  0  0  0
 41 42  1  0  0  0  0
M  END
>  <CHROM.1>
179.63455820,79.01122342,-41.36930304,-110.55014627,165.03455857,-67.16552550
-41.78098607,69.44851007,59.20835795,11.61009923,12.62340319,-10.31441233
-1.03317938,1.41671204,-1.48058549

>  <Name>
ligand

>  <RI>
0

>  <Rbt.Current_Directory>
/home/itssahil/PROJECTS/Mol_Feturizer/Test_systems_manuscript/rnas/2o3w

>  <Rbt.Executable>
rbdock ($Id: //depot/dev/client3/rdock/2013.1/src/exe/rbdock.cxx#4 $)

>  <Rbt.Library>
libRbt.so (2013.1, Build901 2013/11/27)

>  <Rbt.Parameter_File>
/export/apps/rDock/src/rDock_2013.1_src/data/scripts/dock_solv.prm

>  <Rbt.Receptor>
prm/blind_docking_40.prm

>  <SCORE>
34.7931

>  <SCORE.INTER>
10.8364

>  <SCORE.INTER.CONST>
1

>  <SCORE.INTER.POLAR>
0

>  <SCORE.INTER.ROT>
9

>  <SCORE.INTER.SOLV>
26.4437

>  <SCORE.INTER.VDW>
-11.1903

>  <SCORE.INTER.norm>
0.25801

>  <SCORE.INTRA>
8.72751

>  <SCORE.INTRA.DIHEDRAL>
-14.9811

>  <SCORE.INTRA.DIHEDRAL.0>
27.8999

>  <SCORE.INTRA.POLAR>
0

>  <SCORE.INTRA.POLAR.0>
0

>  <SCORE.INTRA.REPUL>
0

>  <SCORE.INTRA.REPUL.0>
0

>  <SCORE.INTRA.SOLV>
-0.490047

>  <SCORE.INTRA.SOLV.lig_0>
-104.479

>  <SCORE.INTRA.VDW>
16.4631

>  <SCORE.INTRA.VDW.0>
-6.17816

>  <SCORE.INTRA.norm>
0.207798

>  <SCORE.RESTR>
15.2292

>  <SCORE.RESTR.CAVITY>
15.2292

>  <SCORE.RESTR.norm>
0.362599

>  <SCORE.SYSTEM>
0

>  <SCORE.SYSTEM.CONST>
0

>  <SCORE.SYSTEM.DIHEDRAL>
0

>  <SCORE.SYSTEM.SOLV>
0

>  <SCORE.SYSTEM.norm>
0

>  <SCORE.heavy>
42

>  <SCORE.norm>
0.828407

>  <RMSD>
17.758

$$$$
ligand
 OpenBabel02271912133D
libRbt.so/2013.1/901 2013/11/27
 42 45  0  0  0  0  0  0  0  0999 V2000
   12.8888   11.1246   -7.0788 C   0  0  2  0  0  0  0  0  0  0  0  0
   13.5482   11.3008   -8.3443 O   0  0  0  0  0  0  0  0  0  0  0  0
   12.2940    9.2519  -11.9533 C   0  0  2  0  0  0  0  0  0  0  0  0
   11.6026    8.9059  -13.2310 N   0  0  0  0  0  0  0  0  0  0  0  0
   13.2744   13.5249  -11.0907 C   0  0  1  0  0  0  0  0  0  0  0  0
    9.8565   15.8700  -11.9892 C   0  0  1  0  0  0  0  0  0  0  0  0
   11.9937   12.3800   -6.8533 C   0  0  2  0  0  0  0  0  0  0  0  0
   11.1467   12.6853   -8.0196 N   0  0  0  0  0  0  0  0  0  0  0  0
   11.2749    9.3025  -10.7446 C   0  0  0  0  0  0  0  0  0  0  0  0
   12.7526   13.5044  -12.5597 C   0  0  2  0  0  0  0  0  0  0  0  0
   13.5156   14.3365  -13.4677 O   0  0  0  0  0  0  0  0  0  0  0  0
    9.5247   17.3228  -12.4871 C   0  0  2  0  0  0  0  0  0  0  0  0
   10.6104   18.2768  -12.1102 N   0  0  0  0  0  0  0  0  0  0  0  0
   12.8230   13.6444   -6.5627 C   0  0  1  0  0  0  0  0  0  0  0  0
   11.9626   14.7595   -6.3238 O   0  0  0  0  0  0  0  0  0  0  0  0
   12.0643    9.6488   -9.4257 C   0  0  2  0  0  0  0  0  0  0  0  0
   11.1366    9.6904   -8.2633 N   0  0  0  0  0  0  0  0  0  0  0  0
   11.2908   13.9083  -12.3613 C   0  0  2  0  0  0  0  0  0  0  0  0
   11.1185   15.3593  -12.4368 O   0  0  0  0  0  0  0  0  0  0  0  0
    8.1169   17.7825  -11.8759 C   0  0  1  0  0  0  0  0  0  0  0  0
    7.0577   17.0752  -12.5590 O   0  0  0  0  0  0  0  0  0  0  0  0
   13.7562   13.3834   -5.3585 C   0  0  2  0  0  0  0  0  0  0  0  0
   14.5106   14.5374   -5.0690 O   0  0  0  0  0  0  0  0  0  0  0  0
   12.8008   11.0393   -9.5663 C   0  0  2  0  0  0  0  0  0  0  0  0
   10.8857   13.3702  -10.9786 C   0  0  2  0  0  0  0  0  0  0  0  0
   12.1066   13.4204  -10.2442 O   0  0  0  0  0  0  0  0  0  0  0  0
    8.0074   17.5188  -10.2992 C   0  0  2  0  0  0  0  0  0  0  0  0
    8.8991   18.4229   -9.6481 O   0  0  0  0  0  0  0  0  0  0  0  0
   14.6963   12.1776   -5.6930 C   0  0  2  0  0  0  0  0  0  0  0  0
   13.8905   10.9958   -5.9990 O   0  0  0  0  0  0  0  0  0  0  0  0
   13.7742   11.0831  -10.7646 C   0  0  2  0  0  0  0  0  0  0  0  0
   14.2118   12.4671  -10.8509 O   0  0  0  0  0  0  0  0  0  0  0  0
   10.2916   11.9275  -10.9820 C   0  0  0  0  0  0  0  0  0  0  0  0
   10.2664   11.4323  -12.3173 O   0  0  0  0  0  0  0  0  0  0  0  0
    8.3937   16.0303   -9.9565 C   0  0  1  0  0  0  0  0  0  0  0  0
    9.7566   15.8307  -10.4788 O   0  0  0  0  0  0  0  0  0  0  0  0
   15.6430   11.8473   -4.5624 C   0  0  0  0  0  0  0  0  0  0  0  0
   16.4536   10.7522   -4.9130 O   0  0  0  0  0  0  0  0  0  0  0  0
   13.0281   10.6454  -12.0941 C   0  0  1  0  0  0  0  0  0  0  0  0
   13.9621   10.5398  -13.1721 O   0  0  0  0  0  0  0  0  0  0  0  0
    8.3446   15.6895   -8.4040 C   0  0  0  0  0  0  0  0  0  0  0  0
    9.1986   16.5421   -7.5320 N   0  0  0  0  0  0  0  0  0  0  0  0
  1  2  1  6  0  0  0
  1  7  1  0  0  0  0
  1 30  1  0  0  0  0
  3  4  1  6  0  0  0
  3  9  1  0  0  0  0
  3 39  1  0  0  0  0
  5 10  1  0  0  0  0
  5 26  1  0  0  0  0
  5 32  1  6  0  0  0
  6 12  1  0  0  0  0
  6 36  1  0  0  0  0
  6 19  1  1  0  0  0
  7  8  1  6  0  0  0
  7 14  1  0  0  0  0
  9 16  1  0  0  0  0
 10 11  1  6  0  0  0
 10 18  1  0  0  0  0
 12 13  1  1  0  0  0
 12 20  1  0  0  0  0
 14 15  1  1  0  0  0
 14 22  1  0  0  0  0
 16 17  1  1  0  0  0
 16 24  1  0  0  0  0
 18 19  1  1  0  0  0
 18 25  1  0  0  0  0
 20 21  1  6  0  0  0
 20 27  1  0  0  0  0
 22 23  1  6  0  0  0
 22 29  1  0  0  0  0
 24  2  1  1  0  0  0
 24 31  1  0  0  0  0
 25 26  1  0  0  0  0
 25 33  1  6  0  0  0
 27 28  1  1  0  0  0
 27 35  1  0  0  0  0
 29 30  1  0  0  0  0
 29 37  1  1  0  0  0
 31 32  1  6  0  0  0
 31 39  1  0  0  0  0
 33 34  1  0  0  0  0
 35 36  1  0  0  0  0
 35 41  1  1  0  0  0
 37 38  1  0  0  0  0
 39 40  1  6  0  0  0
 41 42  1  0  0  0  0
M  END
>  <CHROM.1>
-78.35013307,-47.98935055,-167.25988850,-161.66592255,0.06613319,179.50822489
-61.31740965,-72.00125415,-57.00553939,11.75616414,13.33237727,-9.72089601
0.10909038,-0.95181844,1.03963924

>  <Name>
ligand

>  <RI>
0

>  <Rbt.Current_Directory>
/home/itssahil/PROJECTS/Mol_Feturizer/Test_systems_manuscript/rnas/2o3w

>  <Rbt.Executable>
rbdock ($Id: //depot/dev/client3/rdock/2013.1/src/exe/rbdock.cxx#4 $)

>  <Rbt.Library>
libRbt.so (2013.1, Build901 2013/11/27)

>  <Rbt.Parameter_File>
/export/apps/rDock/src/rDock_2013.1_src/data/scripts/dock_solv.prm

>  <Rbt.Receptor>
prm/blind_docking_40.prm

>  <SCORE>
13.7076

>  <SCORE.INTER>
-3.01395

>  <SCORE.INTER.CONST>
1

>  <SCORE.INTER.POLAR>
0

>  <SCORE.INTER.ROT>
9

>  <SCORE.INTER.SOLV>
26.7519

>  <SCORE.INTER.VDW>
-20.5266

>  <SCORE.INTER.norm>
-0.0717606

>  <SCORE.INTRA>
5.76589

>  <SCORE.INTRA.DIHEDRAL>
-17.3018

>  <SCORE.INTRA.DIHEDRAL.0>
27.8999

>  <SCORE.INTRA.POLAR>
0

>  <SCORE.INTRA.POLAR.0>
0

>  <SCORE.INTRA.REPUL>
0.19412

>  <SCORE.INTRA.REPUL.0>
0

>  <SCORE.INTRA.SOLV>
8.60843

>  <SCORE.INTRA.SOLV.lig_0>
-104.479

>  <SCORE.INTRA.VDW>
9.14196

>  <SCORE.INTRA.VDW.0>
-6.17816

>  <SCORE.INTRA.norm>
0.137283

>  <SCORE.RESTR>
10.9556

>  <SCORE.RESTR.CAVITY>
10.9556

>  <SCORE.RESTR.norm>
0.260849

>  <SCORE.SYSTEM>
0

>  <SCORE.SYSTEM.CONST>
0

>  <SCORE.SYSTEM.DIHEDRAL>
0

>  <SCORE.SYSTEM.SOLV>
0

>  <SCORE.SYSTEM.norm>
0

>  <SCORE.heavy>
42

>  <SCORE.norm>
0.326371

>  <RMSD>
17.769

$$$$
ligand
 OpenBabel02271912133D
libRbt.so/2013.1/901 2013/11/27
 42 45  0  0  0  0  0  0  0  0999 V2000
   13.4400   11.7855   -8.0885 C   0  0  2  0  0  0  0  0  0  0  0  0
   13.7124   10.5598   -8.7891 O   0  0  0  0  0  0  0  0  0  0  0  0
   13.2947    8.9086  -12.7760 C   0  0  2  0  0  0  0  0  0  0  0  0
   12.8663    8.6796  -14.1882 N   0  0  0  0  0  0  0  0  0  0  0  0
   13.7079   13.0978  -11.3333 C   0  0  1  0  0  0  0  0  0  0  0  0
   10.8582   15.5166  -11.7528 C   0  0  1  0  0  0  0  0  0  0  0  0
   14.0634   11.6455   -6.6673 C   0  0  2  0  0  0  0  0  0  0  0  0
   15.4631   11.1876   -6.7083 N   0  0  0  0  0  0  0  0  0  0  0  0
   12.0869    8.7207  -11.7722 C   0  0  0  0  0  0  0  0  0  0  0  0
   12.9845   12.7581  -12.6720 C   0  0  2  0  0  0  0  0  0  0  0  0
   13.6131   13.3331  -13.8439 O   0  0  0  0  0  0  0  0  0  0  0  0
    9.4182   15.1389  -11.2502 C   0  0  2  0  0  0  0  0  0  0  0  0
    8.4586   15.0590  -12.3920 N   0  0  0  0  0  0  0  0  0  0  0  0
   13.2932   10.6436   -5.7875 C   0  0  1  0  0  0  0  0  0  0  0  0
   13.8744   10.5769   -4.4842 O   0  0  0  0  0  0  0  0  0  0  0  0
   12.6044    8.9523  -10.3021 C   0  0  2  0  0  0  0  0  0  0  0  0
   11.4948    8.7688   -9.3280 N   0  0  0  0  0  0  0  0  0  0  0  0
   11.5656   13.2459  -12.3750 C   0  0  2  0  0  0  0  0  0  0  0  0
   11.3861   14.6457  -12.7610 O   0  0  0  0  0  0  0  0  0  0  0  0
    8.9362   16.2172  -10.1678 C   0  0  1  0  0  0  0  0  0  0  0  0
    9.6578   15.9965   -8.9351 O   0  0  0  0  0  0  0  0  0  0  0  0
   11.8044   11.0536   -5.7214 C   0  0  2  0  0  0  0  0  0  0  0  0
   11.0885   10.1555   -4.9057 O   0  0  0  0  0  0  0  0  0  0  0  0
   13.2113   10.4027  -10.1473 C   0  0  2  0  0  0  0  0  0  0  0  0
   11.3585   13.0538  -10.8632 C   0  0  2  0  0  0  0  0  0  0  0  0
   12.6706   13.2300  -10.3344 O   0  0  0  0  0  0  0  0  0  0  0  0
    9.1561   17.7280  -10.6543 C   0  0  2  0  0  0  0  0  0  0  0  0
    8.2381   17.9760  -11.7183 O   0  0  0  0  0  0  0  0  0  0  0  0
   11.2155   11.0738   -7.1713 C   0  0  2  0  0  0  0  0  0  0  0  0
   11.9806   12.0051   -8.0002 O   0  0  0  0  0  0  0  0  0  0  0  0
   14.3631   10.6788  -11.1384 C   0  0  2  0  0  0  0  0  0  0  0  0
   14.6684   12.0923  -10.9849 O   0  0  0  0  0  0  0  0  0  0  0  0
   10.7682   11.6698  -10.4504 C   0  0  0  0  0  0  0  0  0  0  0  0
   10.3596   10.9652  -11.6189 O   0  0  0  0  0  0  0  0  0  0  0  0
   10.6362   17.9425  -11.1500 C   0  0  1  0  0  0  0  0  0  0  0  0
   10.8556   16.9563  -12.2221 O   0  0  0  0  0  0  0  0  0  0  0  0
    9.7582   11.4728   -7.2015 C   0  0  0  0  0  0  0  0  0  0  0  0
    8.9789   10.5141   -6.5285 O   0  0  0  0  0  0  0  0  0  0  0  0
   13.8990   10.3617  -12.6215 C   0  0  1  0  0  0  0  0  0  0  0  0
   15.0069   10.4715  -13.5193 O   0  0  0  0  0  0  0  0  0  0  0  0
   10.9340   19.4104  -11.6840 C   0  0  0  0  0  0  0  0  0  0  0  0
   12.0041   19.5144  -12.7138 N   0  0  0  0  0  0  0  0  0  0  0  0
  1  2  1  6  0  0  0
  1  7  1  0  0  0  0
  1 30  1  0  0  0  0
  3  4  1  6  0  0  0
  3  9  1  0  0  0  0
  3 39  1  0  0  0  0
  5 10  1  0  0  0  0
  5 26  1  0  0  0  0
  5 32  1  1  0  0  0
  6 12  1  0  0  0  0
  6 36  1  0  0  0  0
  6 19  1  6  0  0  0
  7  8  1  6  0  0  0
  7 14  1  0  0  0  0
  9 16  1  0  0  0  0
 10 11  1  6  0  0  0
 10 18  1  0  0  0  0
 12 13  1  6  0  0  0
 12 20  1  0  0  0  0
 14 15  1  1  0  0  0
 14 22  1  0  0  0  0
 16 17  1  1  0  0  0
 16 24  1  0  0  0  0
 18 19  1  1  0  0  0
 18 25  1  0  0  0  0
 20 21  1  1  0  0  0
 20 27  1  0  0  0  0
 22 23  1  1  0  0  0
 22 29  1  0  0  0  0
 24  2  1  1  0  0  0
 24 31  1  0  0  0  0
 25 26  1  0  0  0  0
 25 33  1  6  0  0  0
 27 28  1  6  0  0  0
 27 35  1  0  0  0  0
 29 30  1  0  0  0  0
 29 37  1  1  0  0  0
 31 32  1  6  0  0  0
 31 39  1  0  0  0  0
 33 34  1  0  0  0  0
 35 36  1  0  0  0  0
 35 41  1  6  0  0  0
 37 38  1  0  0  0  0
 39 40  1  6  0  0  0
 41 42  1  0  0  0  0
M  END
>  <CHROM.1>
178.62619347,-136.54584848,-127.66653116,-61.79327122,-8.97598375,-64.26897495
-64.67093772,-42.38839329,-151.87625719,11.89051733,12.72538488,-10.17222822
0.86857753,-1.05984913,2.02058131

>  <Name>
ligand

>  <RI>
0

>  <Rbt.Current_Directory>
/home/itssahil/PROJECTS/Mol_Feturizer/Test_systems_manuscript/rnas/2o3w

>  <Rbt.Executable>
rbdock ($Id: //depot/dev/client3/rdock/2013.1/src/exe/rbdock.cxx#4 $)

>  <Rbt.Library>
libRbt.so (2013.1, Build901 2013/11/27)

>  <Rbt.Parameter_File>
/export/apps/rDock/src/rDock_2013.1_src/data/scripts/dock_solv.prm

>  <Rbt.Receptor>
prm/blind_docking_40.prm

>  <SCORE>
29.9875

>  <SCORE.INTER>
7.01393

>  <SCORE.INTER.CONST>
1

>  <SCORE.INTER.POLAR>
0

>  <SCORE.INTER.ROT>
9

>  <SCORE.INTER.SOLV>
29.471

>  <SCORE.INTER.VDW>
-14.7477

>  <SCORE.INTER.norm>
0.166998

>  <SCORE.INTRA>
9.74862

>  <SCORE.INTRA.DIHEDRAL>
-6.05514

>  <SCORE.INTRA.DIHEDRAL.0>
27.8999

>  <SCORE.INTRA.POLAR>
0

>  <SCORE.INTRA.POLAR.0>
0

>  <SCORE.INTRA.REPUL>
0.148146

>  <SCORE.INTRA.REPUL.0>
0

>  <SCORE.INTRA.SOLV>
2.21999

>  <SCORE.INTRA.SOLV.lig_0>
-104.479

>  <SCORE.INTRA.VDW>
10.9255

>  <SCORE.INTRA.VDW.0>
-6.17816

>  <SCORE.INTRA.norm>
0.23211

>  <SCORE.RESTR>
13.2249

>  <SCORE.RESTR.CAVITY>
13.2249

>  <SCORE.RESTR.norm>
0.31488

>  <SCORE.SYSTEM>
0

>  <SCORE.SYSTEM.CONST>
0

>  <SCORE.SYSTEM.DIHEDRAL>
0

>  <SCORE.SYSTEM.SOLV>
0

>  <SCORE.SYSTEM.norm>
0

>  <SCORE.heavy>
42

>  <SCORE.norm>
0.713988

>  <RMSD>
17.791

$$$$
ligand
 OpenBabel02271912133D
libRbt.so/2013.1/901 2013/11/27
 42 45  0  0  0  0  0  0  0  0999 V2000
   14.2346    9.2707  -10.2236 C   0  0  2  0  0  0  0  0  0  0  0  0
   14.0819   10.6406   -9.8143 O   0  0  0  0  0  0  0  0  0  0  0  0
   10.8144   10.0791   -7.0207 C   0  0  2  0  0  0  0  0  0  0  0  0
    9.6611   10.3273   -6.1048 N   0  0  0  0  0  0  0  0  0  0  0  0
   11.5500   12.5637  -10.7712 C   0  0  1  0  0  0  0  0  0  0  0  0
    9.7888   16.3064  -10.5376 C   0  0  1  0  0  0  0  0  0  0  0  0
   15.5564    9.1857  -11.0445 C   0  0  2  0  0  0  0  0  0  0  0  0
   16.6933    9.8138  -10.3491 N   0  0  0  0  0  0  0  0  0  0  0  0
   12.1340   10.7638   -6.4806 C   0  0  0  0  0  0  0  0  0  0  0  0
   10.3107   13.2579  -10.1286 C   0  0  2  0  0  0  0  0  0  0  0  0
    9.2605   13.5808  -11.0731 O   0  0  0  0  0  0  0  0  0  0  0  0
    9.0783   15.9481  -11.8924 C   0  0  2  0  0  0  0  0  0  0  0  0
    9.9927   16.1772  -13.0511 N   0  0  0  0  0  0  0  0  0  0  0  0
   15.4378    9.8756  -12.4160 C   0  0  1  0  0  0  0  0  0  0  0  0
   16.6566    9.7390  -13.1485 O   0  0  0  0  0  0  0  0  0  0  0  0
   13.3157   10.4487   -7.4740 C   0  0  2  0  0  0  0  0  0  0  0  0
   14.5788   11.0668   -6.9882 N   0  0  0  0  0  0  0  0  0  0  0  0
   10.9664   14.4522   -9.4335 C   0  0  2  0  0  0  0  0  0  0  0  0
   11.0266   15.6200  -10.3129 O   0  0  0  0  0  0  0  0  0  0  0  0
    7.7406   16.8183  -12.0342 C   0  0  1  0  0  0  0  0  0  0  0  0
    6.7450   16.2959  -11.1260 O   0  0  0  0  0  0  0  0  0  0  0  0
   14.2426    9.2775  -13.1924 C   0  0  2  0  0  0  0  0  0  0  0  0
   14.1305    9.8870  -14.4575 O   0  0  0  0  0  0  0  0  0  0  0  0
   12.9847   10.9872   -8.9219 C   0  0  2  0  0  0  0  0  0  0  0  0
   12.3751   13.9865   -9.0284 C   0  0  2  0  0  0  0  0  0  0  0  0
   12.7046   13.0405  -10.0427 O   0  0  0  0  0  0  0  0  0  0  0  0
    7.9761   18.3745  -11.7338 C   0  0  2  0  0  0  0  0  0  0  0  0
    8.7640   18.9046  -12.7989 O   0  0  0  0  0  0  0  0  0  0  0  0
   12.9349    9.4891  -12.3588 C   0  0  2  0  0  0  0  0  0  0  0  0
   13.0794    8.8563  -11.0479 O   0  0  0  0  0  0  0  0  0  0  0  0
   11.6742   10.4027   -9.4932 C   0  0  2  0  0  0  0  0  0  0  0  0
   11.4347   11.1355  -10.7261 O   0  0  0  0  0  0  0  0  0  0  0  0
   12.4736   13.3452   -7.6095 C   0  0  0  0  0  0  0  0  0  0  0  0
   12.0277   14.2851   -6.6364 O   0  0  0  0  0  0  0  0  0  0  0  0
    8.7181   18.5689  -10.3576 C   0  0  1  0  0  0  0  0  0  0  0  0
    9.9749   17.8071  -10.4593 O   0  0  0  0  0  0  0  0  0  0  0  0
   11.7112    8.9259  -13.0437 C   0  0  0  0  0  0  0  0  0  0  0  0
   10.5749    9.1102  -12.2349 O   0  0  0  0  0  0  0  0  0  0  0  0
   10.4832   10.6214   -8.4688 C   0  0  1  0  0  0  0  0  0  0  0  0
    9.3074    9.9491   -8.9284 O   0  0  0  0  0  0  0  0  0  0  0  0
    9.0232   20.0868   -9.9951 C   0  0  0  0  0  0  0  0  0  0  0  0
    9.8666   20.3016   -8.7871 N   0  0  0  0  0  0  0  0  0  0  0  0
  1  2  1  6  0  0  0
  1  7  1  0  0  0  0
  1 30  1  0  0  0  0
  3  4  1  1  0  0  0
  3  9  1  0  0  0  0
  3 39  1  0  0  0  0
  5 10  1  0  0  0  0
  5 26  1  0  0  0  0
  5 32  1  1  0  0  0
  6 12  1  0  0  0  0
  6 36  1  0  0  0  0
  6 19  1  6  0  0  0
  7  8  1  1  0  0  0
  7 14  1  0  0  0  0
  9 16  1  0  0  0  0
 10 11  1  6  0  0  0
 10 18  1  0  0  0  0
 12 13  1  6  0  0  0
 12 20  1  0  0  0  0
 14 15  1  6  0  0  0
 14 22  1  0  0  0  0
 16 17  1  1  0  0  0
 16 24  1  0  0  0  0
 18 19  1  6  0  0  0
 18 25  1  0  0  0  0
 20 21  1  1  0  0  0
 20 27  1  0  0  0  0
 22 23  1  6  0  0  0
 22 29  1  0  0  0  0
 24  2  1  6  0  0  0
 24 31  1  0  0  0  0
 25 26  1  0  0  0  0
 25 33  1  1  0  0  0
 27 28  1  6  0  0  0
 27 35  1  0  0  0  0
 29 30  1  0  0  0  0
 29 37  1  6  0  0  0
 31 32  1  6  0  0  0
 31 39  1  0  0  0  0
 33 34  1  0  0  0  0
 35 36  1  0  0  0  0
 35 41  1  6  0  0  0
 37 38  1  0  0  0  0
 39 40  1  6  0  0  0
 41 42  1  0  0  0  0
M  END
>  <CHROM.1>
-174.45121459,73.08280309,74.02181794,-99.45044056,-58.60173403,178.34637504
-46.51177392,-76.71791731,-172.88151639,11.56543005,12.85062414,-10.30720965
-0.23937082,1.01325576,-1.29789592

>  <Name>
ligand

>  <RI>
0

>  <Rbt.Current_Directory>
/home/itssahil/PROJECTS/Mol_Feturizer/Test_systems_manuscript/rnas/2o3w

>  <Rbt.Executable>
rbdock ($Id: //depot/dev/client3/rdock/2013.1/src/exe/rbdock.cxx#4 $)

>  <Rbt.Library>
libRbt.so (2013.1, Build901 2013/11/27)

>  <Rbt.Parameter_File>
/export/apps/rDock/src/rDock_2013.1_src/data/scripts/dock_solv.prm

>  <Rbt.Receptor>
prm/blind_docking_40.prm

>  <SCORE>
28.9725

>  <SCORE.INTER>
8.43399

>  <SCORE.INTER.CONST>
1

>  <SCORE.INTER.POLAR>
0

>  <SCORE.INTER.ROT>
9

>  <SCORE.INTER.SOLV>
29.9731

>  <SCORE.INTER.VDW>
-13.9684

>  <SCORE.INTER.norm>
0.200809

>  <SCORE.INTRA>
5.6052

>  <SCORE.INTRA.DIHEDRAL>
-18.2942

>  <SCORE.INTRA.DIHEDRAL.0>
27.8999

>  <SCORE.INTRA.POLAR>
0

>  <SCORE.INTRA.POLAR.0>
0

>  <SCORE.INTRA.REPUL>
0

>  <SCORE.INTRA.REPUL.0>
0

>  <SCORE.INTRA.SOLV>
-0.359218

>  <SCORE.INTRA.SOLV.lig_0>
-104.479

>  <SCORE.INTRA.VDW>
14.9319

>  <SCORE.INTRA.VDW.0>
-6.17816

>  <SCORE.INTRA.norm>
0.133457

>  <SCORE.RESTR>
14.9333

>  <SCORE.RESTR.CAVITY>
14.9333

>  <SCORE.RESTR.norm>
0.355555

>  <SCORE.SYSTEM>
0

>  <SCORE.SYSTEM.CONST>
0

>  <SCORE.SYSTEM.DIHEDRAL>
0

>  <SCORE.SYSTEM.SOLV>
0

>  <SCORE.SYSTEM.norm>
0

>  <SCORE.heavy>
42

>  <SCORE.norm>
0.689821

>  <RMSD>
17.800

$$$$
ligand
 OpenBabel02271912133D
libRbt.so/2013.1/901 2013/11/27
 42 45  0  0  0  0  0  0  0  0999 V2000
   12.1640   12.3052   -7.1138 C   0  0  2  0  0  0  0  0  0  0  0  0
   12.6727   12.2808   -8.4584 O   0  0  0  0  0  0  0  0  0  0  0  0
   11.7979    9.3742  -11.5540 C   0  0  2  0  0  0  0  0  0  0  0  0
   11.1156    8.6022  -12.6351 N   0  0  0  0  0  0  0  0  0  0  0  0
   11.2428   13.8947  -10.8129 C   0  0  1  0  0  0  0  0  0  0  0  0
    7.6279   16.4935  -11.1152 C   0  0  1  0  0  0  0  0  0  0  0  0
   12.5445   13.6897   -6.5084 C   0  0  2  0  0  0  0  0  0  0  0  0
   12.1765   14.8110   -7.3903 N   0  0  0  0  0  0  0  0  0  0  0  0
   11.0297    9.2368  -10.1782 C   0  0  0  0  0  0  0  0  0  0  0  0
   11.1869   15.2963  -11.4933 C   0  0  2  0  0  0  0  0  0  0  0  0
   11.7098   16.3706  -10.6737 O   0  0  0  0  0  0  0  0  0  0  0  0
    7.6247   17.7350  -12.0783 C   0  0  2  0  0  0  0  0  0  0  0  0
    8.4336   18.8540  -11.5087 N   0  0  0  0  0  0  0  0  0  0  0  0
   14.0553   13.8139   -6.2380 C   0  0  1  0  0  0  0  0  0  0  0  0
   14.3524   15.0806   -5.6479 O   0  0  0  0  0  0  0  0  0  0  0  0
   11.8071   10.0514   -9.0761 C   0  0  2  0  0  0  0  0  0  0  0  0
   11.1187    9.9321   -7.7625 N   0  0  0  0  0  0  0  0  0  0  0  0
    9.7022   15.3958  -11.8471 C   0  0  2  0  0  0  0  0  0  0  0  0
    8.9317   16.0118  -10.7666 O   0  0  0  0  0  0  0  0  0  0  0  0
    6.1130   18.1945  -12.3434 C   0  0  1  0  0  0  0  0  0  0  0  0
    5.4818   17.2386  -13.2247 O   0  0  0  0  0  0  0  0  0  0  0  0
   14.5147   12.6480   -5.3331 C   0  0  2  0  0  0  0  0  0  0  0  0
   15.8929   12.7567   -5.0624 O   0  0  0  0  0  0  0  0  0  0  0  0
   11.9148   11.5745   -9.4817 C   0  0  2  0  0  0  0  0  0  0  0  0
    9.2325   13.9561  -12.1159 C   0  0  2  0  0  0  0  0  0  0  0  0
   10.0665   13.1809  -11.2579 O   0  0  0  0  0  0  0  0  0  0  0  0
    5.2574   18.3267  -10.9951 C   0  0  2  0  0  0  0  0  0  0  0  0
    5.7636   19.4478  -10.2716 O   0  0  0  0  0  0  0  0  0  0  0  0
   14.1965   11.2919   -6.0467 C   0  0  2  0  0  0  0  0  0  0  0  0
   12.7630   11.2072   -6.3254 O   0  0  0  0  0  0  0  0  0  0  0  0
   12.6063   11.7832  -10.8468 C   0  0  2  0  0  0  0  0  0  0  0  0
   12.4528   13.1992  -11.1402 O   0  0  0  0  0  0  0  0  0  0  0  0
    9.3624   13.4874  -13.5983 C   0  0  0  0  0  0  0  0  0  0  0  0
   10.6074   13.9351  -14.1259 O   0  0  0  0  0  0  0  0  0  0  0  0
    5.3810   17.0172  -10.1278 C   0  0  1  0  0  0  0  0  0  0  0  0
    6.8202   16.8260   -9.8782 O   0  0  0  0  0  0  0  0  0  0  0  0
   14.6089   10.0920   -5.2257 C   0  0  0  0  0  0  0  0  0  0  0  0
   16.0012   10.0978   -5.0241 O   0  0  0  0  0  0  0  0  0  0  0  0
   11.9024   10.8990  -11.9596 C   0  0  1  0  0  0  0  0  0  0  0  0
   12.6339   10.9754  -13.1863 O   0  0  0  0  0  0  0  0  0  0  0  0
    4.5873   17.0749   -8.7511 C   0  0  0  0  0  0  0  0  0  0  0  0
    4.7745   15.9029   -7.8522 N   0  0  0  0  0  0  0  0  0  0  0  0
  1  2  1  6  0  0  0
  1  7  1  0  0  0  0
  1 30  1  0  0  0  0
  3  4  1  6  0  0  0
  3  9  1  0  0  0  0
  3 39  1  0  0  0  0
  5 10  1  0  0  0  0
  5 26  1  0  0  0  0
  5 32  1  6  0  0  0
  6 12  1  0  0  0  0
  6 36  1  0  0  0  0
  6 19  1  1  0  0  0
  7  8  1  6  0  0  0
  7 14  1  0  0  0  0
  9 16  1  0  0  0  0
 10 11  1  1  0  0  0
 10 18  1  0  0  0  0
 12 13  1  1  0  0  0
 12 20  1  0  0  0  0
 14 15  1  1  0  0  0
 14 22  1  0  0  0  0
 16 17  1  1  0  0  0
 16 24  1  0  0  0  0
 18 19  1  1  0  0  0
 18 25  1  0  0  0  0
 20 21  1  6  0  0  0
 20 27  1  0  0  0  0
 22 23  1  6  0  0  0
 22 29  1  0  0  0  0
 24  2  1  1  0  0  0
 24 31  1  0  0  0  0
 25 26  1  0  0  0  0
 25 33  1  6  0  0  0
 27 28  1  1  0  0  0
 27 35  1  0  0  0  0
 29 30  1  0  0  0  0
 29 37  1  1  0  0  0
 31 32  1  6  0  0  0
 31 39  1  0  0  0  0
 33 34  1  0  0  0  0
 35 36  1  0  0  0  0
 35 41  1  1  0  0  0
 37 38  1  0  0  0  0
 39 40  1  6  0  0  0
 41 42  1  0  0  0  0
M  END
>  <CHROM.1>
-145.45212658,-60.92741841,163.23660958,-68.22613793,42.02136076,-62.30297941
-38.22532660,-167.46053528,-174.98307320,10.60386475,13.83272472,-9.68422378
0.01888891,-0.78889852,0.99287028

>  <Name>
ligand

>  <RI>
0

>  <Rbt.Current_Directory>
/home/itssahil/PROJECTS/Mol_Feturizer/Test_systems_manuscript/rnas/2o3w

>  <Rbt.Executable>
rbdock ($Id: //depot/dev/client3/rdock/2013.1/src/exe/rbdock.cxx#4 $)

>  <Rbt.Library>
libRbt.so (2013.1, Build901 2013/11/27)

>  <Rbt.Parameter_File>
/export/apps/rDock/src/rDock_2013.1_src/data/scripts/dock_solv.prm

>  <Rbt.Receptor>
prm/blind_docking_100.prm

>  <SCORE>
-0.425158

>  <SCORE.INTER>
-1.95346

>  <SCORE.INTER.CONST>
1

>  <SCORE.INTER.POLAR>
0

>  <SCORE.INTER.ROT>
9

>  <SCORE.INTER.SOLV>
25.7584

>  <SCORE.INTER.VDW>
-19.4884

>  <SCORE.INTER.norm>
-0.046511

>  <SCORE.INTRA>
-5.06641

>  <SCORE.INTRA.DIHEDRAL>
-17.6328

>  <SCORE.INTRA.DIHEDRAL.0>
27.8999

>  <SCORE.INTRA.POLAR>
0

>  <SCORE.INTRA.POLAR.0>
0

>  <SCORE.INTRA.REPUL>
0

>  <SCORE.INTRA.REPUL.0>
0

>  <SCORE.INTRA.SOLV>
-0.78661

>  <SCORE.INTRA.SOLV.lig_0>
-104.479

>  <SCORE.INTRA.VDW>
4.14331

>  <SCORE.INTRA.VDW.0>
-6.17816

>  <SCORE.INTRA.norm>
-0.120629

>  <SCORE.RESTR>
6.59472

>  <SCORE.RESTR.CAVITY>
6.59472

>  <SCORE.RESTR.norm>
0.157017

>  <SCORE.SYSTEM>
0

>  <SCORE.SYSTEM.CONST>
0

>  <SCORE.SYSTEM.DIHEDRAL>
0

>  <SCORE.SYSTEM.SOLV>
0

>  <SCORE.SYSTEM.norm>
0

>  <SCORE.heavy>
42

>  <SCORE.norm>
-0.0101228

>  <RMSD>
17.813

$$$$
ligand
 OpenBabel02271912133D
libRbt.so/2013.1/901 2013/11/27
 42 45  0  0  0  0  0  0  0  0999 V2000
   12.3068   12.4218   -6.9089 C   0  0  2  0  0  0  0  0  0  0  0  0
   12.7787   12.5123   -8.2640 O   0  0  0  0  0  0  0  0  0  0  0  0
   11.9324    9.9205  -11.6349 C   0  0  2  0  0  0  0  0  0  0  0  0
   11.2418    9.2206  -12.7590 N   0  0  0  0  0  0  0  0  0  0  0  0
   10.9454   14.1787  -10.9876 C   0  0  1  0  0  0  0  0  0  0  0  0
    7.5652   17.0938  -10.6154 C   0  0  1  0  0  0  0  0  0  0  0  0
   12.6791   13.7622   -6.2069 C   0  0  2  0  0  0  0  0  0  0  0  0
   12.2671   14.9413   -6.9884 N   0  0  0  0  0  0  0  0  0  0  0  0
   11.2804    9.5515  -10.2419 C   0  0  0  0  0  0  0  0  0  0  0  0
   10.6957   15.5308  -10.2527 C   0  0  2  0  0  0  0  0  0  0  0  0
   10.1658   15.3839   -8.9123 O   0  0  0  0  0  0  0  0  0  0  0  0
    8.0866   17.8911   -9.3660 C   0  0  2  0  0  0  0  0  0  0  0  0
    8.2523   16.9879   -8.1879 N   0  0  0  0  0  0  0  0  0  0  0  0
   14.1943   13.8950   -5.9670 C   0  0  1  0  0  0  0  0  0  0  0  0
   14.4850   15.1176   -5.2875 O   0  0  0  0  0  0  0  0  0  0  0  0
   12.0634   10.3000   -9.0977 C   0  0  2  0  0  0  0  0  0  0  0  0
   11.4845    9.9636   -7.7690 N   0  0  0  0  0  0  0  0  0  0  0  0
    9.7842   16.2472  -11.2503 C   0  0  2  0  0  0  0  0  0  0  0  0
    8.3725   15.9689  -10.9851 O   0  0  0  0  0  0  0  0  0  0  0  0
    7.0689   19.0842   -9.0378 C   0  0  1  0  0  0  0  0  0  0  0  0
    7.2266   20.1199  -10.0334 O   0  0  0  0  0  0  0  0  0  0  0  0
   14.6991   12.6716   -5.1685 C   0  0  2  0  0  0  0  0  0  0  0  0
   16.0820   12.7862   -4.9260 O   0  0  0  0  0  0  0  0  0  0  0  0
   12.0115   11.8635   -9.3180 C   0  0  2  0  0  0  0  0  0  0  0  0
   10.1996   15.7430  -12.6427 C   0  0  2  0  0  0  0  0  0  0  0  0
   10.6470   14.4146  -12.3828 O   0  0  0  0  0  0  0  0  0  0  0  0
    5.5403   18.6052   -9.0001 C   0  0  2  0  0  0  0  0  0  0  0  0
    5.3761   17.7781   -7.8488 O   0  0  0  0  0  0  0  0  0  0  0  0
   14.3855   11.3691   -5.9777 C   0  0  2  0  0  0  0  0  0  0  0  0
   12.9466   11.2779   -6.2248 O   0  0  0  0  0  0  0  0  0  0  0  0
   12.5820   12.2946  -10.6869 C   0  0  2  0  0  0  0  0  0  0  0  0
   12.2878   13.7147  -10.7932 O   0  0  0  0  0  0  0  0  0  0  0  0
   11.3127   16.5834  -13.3419 C   0  0  0  0  0  0  0  0  0  0  0  0
   10.8935   17.9421  -13.4259 O   0  0  0  0  0  0  0  0  0  0  0  0
    5.1775   17.8010  -10.3054 C   0  0  1  0  0  0  0  0  0  0  0  0
    6.1294   16.6787  -10.3724 O   0  0  0  0  0  0  0  0  0  0  0  0
   14.8416   10.1174   -5.2643 C   0  0  0  0  0  0  0  0  0  0  0  0
   14.1975   10.0075   -4.0183 O   0  0  0  0  0  0  0  0  0  0  0  0
   11.8771   11.4855  -11.8549 C   0  0  1  0  0  0  0  0  0  0  0  0
   12.5087   11.7732  -13.1054 O   0  0  0  0  0  0  0  0  0  0  0  0
    3.6835   17.2572  -10.3367 C   0  0  0  0  0  0  0  0  0  0  0  0
    2.6405   18.2186   -9.8846 N   0  0  0  0  0  0  0  0  0  0  0  0
  1  2  1  6  0  0  0
  1  7  1  0  0  0  0
  1 30  1  0  0  0  0
  3  4  1  6  0  0  0
  3  9  1  0  0  0  0
  3 39  1  0  0  0  0
  5 10  1  0  0  0  0
  5 26  1  0  0  0  0
  5 32  1  6  0  0  0
  6 12  1  0  0  0  0
  6 36  1  0  0  0  0
  6 19  1  1  0  0  0
  7  8  1  6  0  0  0
  7 14  1  0  0  0  0
  9 16  1  0  0  0  0
 10 11  1  1  0  0  0
 10 18  1  0  0  0  0
 12 13  1  1  0  0  0
 12 20  1  0  0  0  0
 14 15  1  1  0  0  0
 14 22  1  0  0  0  0
 16 17  1  1  0  0  0
 16 24  1  0  0  0  0
 18 19  1  1  0  0  0
 18 25  1  0  0  0  0
 20 21  1  6  0  0  0
 20 27  1  0  0  0  0
 22 23  1  6  0  0  0
 22 29  1  0  0  0  0
 24  2  1  1  0  0  0
 24 31  1  0  0  0  0
 25 26  1  0  0  0  0
 25 33  1  1  0  0  0
 27 28  1  1  0  0  0
 27 35  1  0  0  0  0
 29 30  1  0  0  0  0
 29 37  1  1  0  0  0
 31 32  1  6  0  0  0
 31 39  1  0  0  0  0
 33 34  1  0  0  0  0
 35 36  1  0  0  0  0
 35 41  1  1  0  0  0
 37 38  1  0  0  0  0
 39 40  1  6  0  0  0
 41 42  1  0  0  0  0
M  END
>  <CHROM.1>
-145.95265082,-65.94026207,116.53919225,-55.99880178,-56.03624636,59.95801487
-70.88390444,145.35327643,43.71725955,10.60787649,14.31380606,-9.21912843
0.06805736,-0.78013153,1.20131366

>  <Name>
ligand

>  <RI>
0

>  <Rbt.Current_Directory>
/home/itssahil/PROJECTS/Mol_Feturizer/Test_systems_manuscript/rnas/2o3w

>  <Rbt.Executable>
rbdock ($Id: //depot/dev/client3/rdock/2013.1/src/exe/rbdock.cxx#4 $)

>  <Rbt.Library>
libRbt.so (2013.1, Build901 2013/11/27)

>  <Rbt.Parameter_File>
/export/apps/rDock/src/rDock_2013.1_src/data/scripts/dock_solv.prm

>  <Rbt.Receptor>
prm/blind_docking_100.prm

>  <SCORE>
-1.60048

>  <SCORE.INTER>
-7.21207

>  <SCORE.INTER.CONST>
1

>  <SCORE.INTER.POLAR>
0

>  <SCORE.INTER.ROT>
9

>  <SCORE.INTER.SOLV>
26.5906

>  <SCORE.INTER.VDW>
-23.2716

>  <SCORE.INTER.norm>
-0.171716

>  <SCORE.INTRA>
-1.14926

>  <SCORE.INTRA.DIHEDRAL>
-10.0426

>  <SCORE.INTRA.DIHEDRAL.0>
27.8999

>  <SCORE.INTRA.POLAR>
0

>  <SCORE.INTRA.POLAR.0>
0

>  <SCORE.INTRA.REPUL>
0

>  <SCORE.INTRA.REPUL.0>
0

>  <SCORE.INTRA.SOLV>
1.63423

>  <SCORE.INTRA.SOLV.lig_0>
-104.479

>  <SCORE.INTRA.VDW>
3.05491

>  <SCORE.INTRA.VDW.0>
-6.17816

>  <SCORE.INTRA.norm>
-0.0273633

>  <SCORE.RESTR>
6.76086

>  <SCORE.RESTR.CAVITY>
6.76086

>  <SCORE.RESTR.norm>
0.160973

>  <SCORE.SYSTEM>
0

>  <SCORE.SYSTEM.CONST>
0

>  <SCORE.SYSTEM.DIHEDRAL>
0

>  <SCORE.SYSTEM.SOLV>
0

>  <SCORE.SYSTEM.norm>
0

>  <SCORE.heavy>
42

>  <SCORE.norm>
-0.0381066

>  <RMSD>
17.815

$$$$
ligand
 OpenBabel02271912133D
libRbt.so/2013.1/901 2013/11/27
 42 45  0  0  0  0  0  0  0  0999 V2000
   14.6143   11.2219   -7.0403 C   0  0  2  0  0  0  0  0  0  0  0  0
   13.3586   10.5420   -6.8730 O   0  0  0  0  0  0  0  0  0  0  0  0
   10.8198    8.8664   -9.9623 C   0  0  2  0  0  0  0  0  0  0  0  0
    9.8894    8.7203  -11.1213 N   0  0  0  0  0  0  0  0  0  0  0  0
   13.8461   12.0479  -10.2572 C   0  0  1  0  0  0  0  0  0  0  0  0
   11.9125   15.0014  -12.9858 C   0  0  1  0  0  0  0  0  0  0  0  0
   15.4519   10.9538   -5.7539 C   0  0  2  0  0  0  0  0  0  0  0  0
   15.4995    9.5245   -5.3999 N   0  0  0  0  0  0  0  0  0  0  0  0
   10.1164    9.6005   -8.7506 C   0  0  0  0  0  0  0  0  0  0  0  0
   13.4709   11.7941  -11.7491 C   0  0  2  0  0  0  0  0  0  0  0  0
   14.5889   11.9009  -12.6643 O   0  0  0  0  0  0  0  0  0  0  0  0
   12.4655   15.8879  -14.1594 C   0  0  2  0  0  0  0  0  0  0  0  0
   13.6730   16.6530  -13.7267 N   0  0  0  0  0  0  0  0  0  0  0  0
   14.8926   11.6974   -4.5270 C   0  0  1  0  0  0  0  0  0  0  0  0
   15.7123   11.4552   -3.3823 O   0  0  0  0  0  0  0  0  0  0  0  0
   11.1372    9.7044   -7.5549 C   0  0  2  0  0  0  0  0  0  0  0  0
   10.5027   10.3784   -6.3900 N   0  0  0  0  0  0  0  0  0  0  0  0
   12.3498   12.8146  -11.9512 C   0  0  2  0  0  0  0  0  0  0  0  0
   12.8703   14.1008  -12.4157 O   0  0  0  0  0  0  0  0  0  0  0  0
   11.3098   16.8750  -14.6661 C   0  0  1  0  0  0  0  0  0  0  0  0
   10.3378   16.1111  -15.4148 O   0  0  0  0  0  0  0  0  0  0  0  0
   14.7932   13.2077   -4.8406 C   0  0  2  0  0  0  0  0  0  0  0  0
   14.2984   13.9052   -3.7212 O   0  0  0  0  0  0  0  0  0  0  0  0
   12.4275   10.5043   -7.9920 C   0  0  2  0  0  0  0  0  0  0  0  0
   11.6529   12.9553  -10.5874 C   0  0  2  0  0  0  0  0  0  0  0  0
   12.7087   12.7126   -9.6607 O   0  0  0  0  0  0  0  0  0  0  0  0
   10.5778   17.6439  -13.4658 C   0  0  2  0  0  0  0  0  0  0  0  0
   11.5117   18.5720  -12.9156 O   0  0  0  0  0  0  0  0  0  0  0  0
   13.8565   13.4117   -6.0777 C   0  0  2  0  0  0  0  0  0  0  0  0
   14.3856   12.6711   -7.2229 O   0  0  0  0  0  0  0  0  0  0  0  0
   13.1381    9.8751   -9.2104 C   0  0  2  0  0  0  0  0  0  0  0  0
   14.1732   10.8263   -9.5821 O   0  0  0  0  0  0  0  0  0  0  0  0
   10.4629   11.9740  -10.3520 C   0  0  0  0  0  0  0  0  0  0  0  0
    9.5993   12.0018  -11.4844 O   0  0  0  0  0  0  0  0  0  0  0  0
   10.1049   16.6259  -12.3602 C   0  0  1  0  0  0  0  0  0  0  0  0
   11.3127   15.9023  -11.9267 O   0  0  0  0  0  0  0  0  0  0  0  0
   13.7068   14.8660   -6.4603 C   0  0  0  0  0  0  0  0  0  0  0  0
   12.3760   15.1362   -6.8279 O   0  0  0  0  0  0  0  0  0  0  0  0
   12.1095    9.6699  -10.4001 C   0  0  1  0  0  0  0  0  0  0  0  0
   12.7295    8.9511  -11.4700 O   0  0  0  0  0  0  0  0  0  0  0  0
    9.3958   17.3092  -11.1116 C   0  0  0  0  0  0  0  0  0  0  0  0
   10.0334   18.5599  -10.6160 N   0  0  0  0  0  0  0  0  0  0  0  0
  1  2  1  1  0  0  0
  1  7  1  0  0  0  0
  1 30  1  0  0  0  0
  3  4  1  6  0  0  0
  3  9  1  0  0  0  0
  3 39  1  0  0  0  0
  5 10  1  0  0  0  0
  5 26  1  0  0  0  0
  5 32  1  1  0  0  0
  6 12  1  0  0  0  0
  6 36  1  0  0  0  0
  6 19  1  1  0  0  0
  7  8  1  1  0  0  0
  7 14  1  0  0  0  0
  9 16  1  0  0  0  0
 10 11  1  6  0  0  0
 10 18  1  0  0  0  0
 12 13  1  1  0  0  0
 12 20  1  0  0  0  0
 14 15  1  1  0  0  0
 14 22  1  0  0  0  0
 16 17  1  1  0  0  0
 16 24  1  0  0  0  0
 18 19  1  1  0  0  0
 18 25  1  0  0  0  0
 20 21  1  1  0  0  0
 20 27  1  0  0  0  0
 22 23  1  1  0  0  0
 22 29  1  0  0  0  0
 24  2  1  1  0  0  0
 24 31  1  0  0  0  0
 25 26  1  0  0  0  0
 25 33  1  6  0  0  0
 27 28  1  1  0  0  0
 27 35  1  0  0  0  0
 29 30  1  0  0  0  0
 29 37  1  6  0  0  0
 31 32  1  6  0  0  0
 31 39  1  0  0  0  0
 33 34  1  0  0  0  0
 35 36  1  0  0  0  0
 35 41  1  1  0  0  0
 37 38  1  0  0  0  0
 39 40  1  6  0  0  0
 41 42  1  0  0  0  0
M  END
>  <CHROM.1>
-173.54697360,179.94329713,163.36554833,-145.76048596,-48.44256945,-140.14645416
-74.85281930,-73.81540460,-41.89007926,12.49129778,12.95247779,-9.64155588
-0.69777595,-1.17002725,-0.11022042

>  <Name>
ligand

>  <RI>
0

>  <Rbt.Current_Directory>
/home/itssahil/PROJECTS/Mol_Feturizer/Test_systems_manuscript/rnas/2o3w

>  <Rbt.Executable>
rbdock ($Id: //depot/dev/client3/rdock/2013.1/src/exe/rbdock.cxx#4 $)

>  <Rbt.Library>
libRbt.so (2013.1, Build901 2013/11/27)

>  <Rbt.Parameter_File>
/export/apps/rDock/src/rDock_2013.1_src/data/scripts/dock_solv.prm

>  <Rbt.Receptor>
prm/blind_docking_40.prm

>  <SCORE>
39.6908

>  <SCORE.INTER>
31.5293

>  <SCORE.INTER.CONST>
1

>  <SCORE.INTER.POLAR>
0

>  <SCORE.INTER.ROT>
9

>  <SCORE.INTER.SOLV>
42.0176

>  <SCORE.INTER.VDW>
-2.58631

>  <SCORE.INTER.norm>
0.750699

>  <SCORE.INTRA>
-1.32004

>  <SCORE.INTRA.DIHEDRAL>
-14.5161

>  <SCORE.INTRA.DIHEDRAL.0>
27.8999

>  <SCORE.INTRA.POLAR>
0

>  <SCORE.INTRA.POLAR.0>
0

>  <SCORE.INTRA.REPUL>
0.161506

>  <SCORE.INTRA.REPUL.0>
0

>  <SCORE.INTRA.SOLV>
-1.0341

>  <SCORE.INTRA.SOLV.lig_0>
-104.479

>  <SCORE.INTRA.VDW>
5.64754

>  <SCORE.INTRA.VDW.0>
-6.17816

>  <SCORE.INTRA.norm>
-0.0314295

>  <SCORE.RESTR>
9.48145

>  <SCORE.RESTR.CAVITY>
9.48145

>  <SCORE.RESTR.norm>
0.225749

>  <SCORE.SYSTEM>
0

>  <SCORE.SYSTEM.CONST>
0

>  <SCORE.SYSTEM.DIHEDRAL>
0

>  <SCORE.SYSTEM.SOLV>
0

>  <SCORE.SYSTEM.norm>
0

>  <SCORE.heavy>
42

>  <SCORE.norm>
0.945018

>  <RMSD>
17.824

$$$$
ligand
 OpenBabel02271912133D
libRbt.so/2013.1/901 2013/11/27
 42 45  0  0  0  0  0  0  0  0999 V2000
   14.0400   10.8066  -10.9975 C   0  0  2  0  0  0  0  0  0  0  0  0
   14.1356   11.9246  -11.8965 O   0  0  0  0  0  0  0  0  0  0  0  0
   11.6668   15.4884  -11.9268 C   0  0  2  0  0  0  0  0  0  0  0  0
   10.5123   16.4235  -12.0781 N   0  0  0  0  0  0  0  0  0  0  0  0
   12.1564   11.9810   -8.6030 C   0  0  1  0  0  0  0  0  0  0  0  0
   12.9941   12.0523   -5.6885 C   0  0  1  0  0  0  0  0  0  0  0  0
   15.3048    9.9265  -11.2298 C   0  0  2  0  0  0  0  0  0  0  0  0
   16.5510   10.7117  -11.2012 N   0  0  0  0  0  0  0  0  0  0  0  0
   12.1025   14.8839  -13.3221 C   0  0  0  0  0  0  0  0  0  0  0  0
   10.9080   12.5287   -7.8465 C   0  0  2  0  0  0  0  0  0  0  0  0
   11.0107   13.9248   -7.4732 O   0  0  0  0  0  0  0  0  0  0  0  0
   13.7523   10.7239   -5.3291 C   0  0  2  0  0  0  0  0  0  0  0  0
   13.4303   10.2856   -3.9380 N   0  0  0  0  0  0  0  0  0  0  0  0
   15.2689    9.1984  -12.5862 C   0  0  1  0  0  0  0  0  0  0  0  0
   16.4259    8.3745  -12.7391 O   0  0  0  0  0  0  0  0  0  0  0  0
   13.3342   13.9265  -13.1011 C   0  0  2  0  0  0  0  0  0  0  0  0
   13.7806   13.3501  -14.3981 N   0  0  0  0  0  0  0  0  0  0  0  0
   10.8064   11.5385   -6.6853 C   0  0  2  0  0  0  0  0  0  0  0  0
   11.5719   11.9913   -5.5235 O   0  0  0  0  0  0  0  0  0  0  0  0
   15.3281   10.9485   -5.5116 C   0  0  1  0  0  0  0  0  0  0  0  0
   15.6332   10.9935   -6.9236 O   0  0  0  0  0  0  0  0  0  0  0  0
   13.9682    8.3703  -12.6926 C   0  0  2  0  0  0  0  0  0  0  0  0
   13.9279    7.6840  -13.9222 O   0  0  0  0  0  0  0  0  0  0  0  0
   12.9610   12.7601  -12.1031 C   0  0  2  0  0  0  0  0  0  0  0  0
   11.3442   10.2005   -7.2200 C   0  0  2  0  0  0  0  0  0  0  0  0
   12.3138   10.6062   -8.1832 O   0  0  0  0  0  0  0  0  0  0  0  0
   15.8509   12.2895   -4.8072 C   0  0  2  0  0  0  0  0  0  0  0  0
   15.7612   12.0981   -3.3960 O   0  0  0  0  0  0  0  0  0  0  0  0
   12.7394    9.3296  -12.5541 C   0  0  2  0  0  0  0  0  0  0  0  0
   12.8089   10.0366  -11.2754 O   0  0  0  0  0  0  0  0  0  0  0  0
   12.4709   13.2781  -10.7331 C   0  0  2  0  0  0  0  0  0  0  0  0
   12.0034   12.0980  -10.0236 O   0  0  0  0  0  0  0  0  0  0  0  0
   10.2702    9.2691   -7.8628 C   0  0  0  0  0  0  0  0  0  0  0  0
   10.0774    9.6426   -9.2237 O   0  0  0  0  0  0  0  0  0  0  0  0
   14.9775   13.5249   -5.2466 C   0  0  1  0  0  0  0  0  0  0  0  0
   13.5880   13.1921   -4.8877 O   0  0  0  0  0  0  0  0  0  0  0  0
   11.4190    8.5995  -12.6404 C   0  0  0  0  0  0  0  0  0  0  0  0
   10.3607    9.4733  -12.3311 O   0  0  0  0  0  0  0  0  0  0  0  0
   11.2911   14.3197  -10.9302 C   0  0  1  0  0  0  0  0  0  0  0  0
   10.9405   14.9112   -9.6760 O   0  0  0  0  0  0  0  0  0  0  0  0
   15.4073   14.8965   -4.5664 C   0  0  0  0  0  0  0  0  0  0  0  0
   15.2206   14.9680   -3.0911 N   0  0  0  0  0  0  0  0  0  0  0  0
  1  2  1  6  0  0  0
  1  7  1  0  0  0  0
  1 30  1  0  0  0  0
  3  4  1  6  0  0  0
  3  9  1  0  0  0  0
  3 39  1  0  0  0  0
  5 10  1  0  0  0  0
  5 26  1  0  0  0  0
  5 32  1  6  0  0  0
  6 12  1  0  0  0  0
  6 36  1  0  0  0  0
  6 19  1  1  0  0  0
  7  8  1  6  0  0  0
  7 14  1  0  0  0  0
  9 16  1  0  0  0  0
 10 11  1  1  0  0  0
 10 18  1  0  0  0  0
 12 13  1  1  0  0  0
 12 20  1  0  0  0  0
 14 15  1  1  0  0  0
 14 22  1  0  0  0  0
 16 17  1  6  0  0  0
 16 24  1  0  0  0  0
 18 19  1  1  0  0  0
 18 25  1  0  0  0  0
 20 21  1  6  0  0  0
 20 27  1  0  0  0  0
 22 23  1  6  0  0  0
 22 29  1  0  0  0  0
 24  2  1  1  0  0  0
 24 31  1  0  0  0  0
 25 26  1  0  0  0  0
 25 33  1  6  0  0  0
 27 28  1  1  0  0  0
 27 35  1  0  0  0  0
 29 30  1  0  0  0  0
 29 37  1  1  0  0  0
 31 32  1  1  0  0  0
 31 39  1  0  0  0  0
 33 34  1  0  0  0  0
 35 36  1  0  0  0  0
 35 41  1  1  0  0  0
 37 38  1  0  0  0  0
 39 40  1  1  0  0  0
 41 42  1  0  0  0  0
M  END
>  <CHROM.1>
167.06187584,178.77955608,-65.72665361,-89.20970604,84.46522183,172.07445110
145.61813510,91.44050641,-65.25644140,13.09173745,11.72566041,-9.19317948
-1.80035695,-1.05235898,1.15410843

>  <Name>
ligand

>  <RI>
0

>  <Rbt.Current_Directory>
/home/itssahil/PROJECTS/Mol_Feturizer/Test_systems_manuscript/rnas/2o3w

>  <Rbt.Executable>
rbdock ($Id: //depot/dev/client3/rdock/2013.1/src/exe/rbdock.cxx#4 $)

>  <Rbt.Library>
libRbt.so (2013.1, Build901 2013/11/27)

>  <Rbt.Parameter_File>
/export/apps/rDock/src/rDock_2013.1_src/data/scripts/dock_solv.prm

>  <Rbt.Receptor>
prm/blind_docking_40.prm

>  <SCORE>
12.4209

>  <SCORE.INTER>
3.23473

>  <SCORE.INTER.CONST>
1

>  <SCORE.INTER.POLAR>
0

>  <SCORE.INTER.ROT>
9

>  <SCORE.INTER.SOLV>
32.8319

>  <SCORE.INTER.VDW>
-18.3875

>  <SCORE.INTER.norm>
0.0770173

>  <SCORE.INTRA>
-3.29279

>  <SCORE.INTRA.DIHEDRAL>
-12.9478

>  <SCORE.INTRA.DIHEDRAL.0>
27.8999

>  <SCORE.INTRA.POLAR>
0

>  <SCORE.INTRA.POLAR.0>
0

>  <SCORE.INTRA.REPUL>
0.10495

>  <SCORE.INTRA.REPUL.0>
0

>  <SCORE.INTRA.SOLV>
-1.64485

>  <SCORE.INTRA.SOLV.lig_0>
-104.479

>  <SCORE.INTRA.VDW>
3.47879

>  <SCORE.INTRA.VDW.0>
-6.17816

>  <SCORE.INTRA.norm>
-0.0783998

>  <SCORE.RESTR>
12.4789

>  <SCORE.RESTR.CAVITY>
12.4789

>  <SCORE.RESTR.norm>
0.297117

>  <SCORE.SYSTEM>
0

>  <SCORE.SYSTEM.CONST>
0

>  <SCORE.SYSTEM.DIHEDRAL>
0

>  <SCORE.SYSTEM.SOLV>
0

>  <SCORE.SYSTEM.norm>
0

>  <SCORE.heavy>
42

>  <SCORE.norm>
0.295735

>  <RMSD>
17.829

$$$$
ligand
 OpenBabel02271912133D
libRbt.so/2013.1/901 2013/11/27
 42 45  0  0  0  0  0  0  0  0999 V2000
   14.4746   11.1270   -7.2468 C   0  0  2  0  0  0  0  0  0  0  0  0
   13.3596   10.2897   -6.8961 O   0  0  0  0  0  0  0  0  0  0  0  0
    9.3941    9.4289   -8.4224 C   0  0  2  0  0  0  0  0  0  0  0  0
    8.0663    9.5505   -9.0952 N   0  0  0  0  0  0  0  0  0  0  0  0
   12.6511   10.9562  -10.8285 C   0  0  1  0  0  0  0  0  0  0  0  0
   12.0250   14.6658  -12.3687 C   0  0  1  0  0  0  0  0  0  0  0  0
   15.4463   11.1247   -6.0286 C   0  0  2  0  0  0  0  0  0  0  0  0
   15.7475    9.7641   -5.5503 N   0  0  0  0  0  0  0  0  0  0  0  0
    9.5108   10.4243   -7.1988 C   0  0  0  0  0  0  0  0  0  0  0  0
   13.1677   12.4161  -10.6482 C   0  0  2  0  0  0  0  0  0  0  0  0
   12.2108   13.3070  -10.0238 O   0  0  0  0  0  0  0  0  0  0  0  0
   10.4814   14.7924  -12.1043 C   0  0  2  0  0  0  0  0  0  0  0  0
    9.6990   14.4014  -13.3150 N   0  0  0  0  0  0  0  0  0  0  0  0
   14.8791   11.9030   -4.8272 C   0  0  1  0  0  0  0  0  0  0  0  0
   15.8176   11.9083   -3.7501 O   0  0  0  0  0  0  0  0  0  0  0  0
   10.9193   10.2339   -6.5187 C   0  0  2  0  0  0  0  0  0  0  0  0
   11.0581   11.1467   -5.3520 N   0  0  0  0  0  0  0  0  0  0  0  0
   13.5640   12.7702  -12.0824 C   0  0  2  0  0  0  0  0  0  0  0  0
   12.4500   13.3721  -12.8154 O   0  0  0  0  0  0  0  0  0  0  0  0
   10.1424   16.2940  -11.6602 C   0  0  1  0  0  0  0  0  0  0  0  0
   10.6085   16.4975  -10.3073 O   0  0  0  0  0  0  0  0  0  0  0  0
   14.5176   13.3398   -5.2679 C   0  0  2  0  0  0  0  0  0  0  0  0
   14.0123   14.0709   -4.1749 O   0  0  0  0  0  0  0  0  0  0  0  0
   12.0798   10.5153   -7.5530 C   0  0  2  0  0  0  0  0  0  0  0  0
   14.0140   11.4527  -12.7360 C   0  0  2  0  0  0  0  0  0  0  0  0
   13.2196   10.4753  -12.0681 O   0  0  0  0  0  0  0  0  0  0  0  0
   10.8005   17.3914  -12.6246 C   0  0  2  0  0  0  0  0  0  0  0  0
   10.1298   17.3177  -13.8821 O   0  0  0  0  0  0  0  0  0  0  0  0
   13.4623   13.2696   -6.4216 C   0  0  2  0  0  0  0  0  0  0  0  0
   14.0061   12.4984   -7.5393 O   0  0  0  0  0  0  0  0  0  0  0  0
   11.9971    9.6154   -8.8054 C   0  0  2  0  0  0  0  0  0  0  0  0
   13.0098   10.1301   -9.7132 O   0  0  0  0  0  0  0  0  0  0  0  0
   15.5344   11.1330  -12.5935 C   0  0  0  0  0  0  0  0  0  0  0  0
   16.2746   12.3498  -12.6106 O   0  0  0  0  0  0  0  0  0  0  0  0
   12.3405   17.1158  -12.8110 C   0  0  1  0  0  0  0  0  0  0  0  0
   12.4497   15.7458  -13.3414 O   0  0  0  0  0  0  0  0  0  0  0  0
   13.0545   14.6366   -6.9205 C   0  0  0  0  0  0  0  0  0  0  0  0
   11.7587   14.5869   -7.4661 O   0  0  0  0  0  0  0  0  0  0  0  0
   10.5548    9.7139   -9.4579 C   0  0  1  0  0  0  0  0  0  0  0  0
   10.4302    8.7691  -10.5244 O   0  0  0  0  0  0  0  0  0  0  0  0
   13.0689   18.1414  -13.7836 C   0  0  0  0  0  0  0  0  0  0  0  0
   12.4377   18.3177  -15.1204 N   0  0  0  0  0  0  0  0  0  0  0  0
  1  2  1  1  0  0  0
  1  7  1  0  0  0  0
  1 30  1  0  0  0  0
  3  4  1  6  0  0  0
  3  9  1  0  0  0  0
  3 39  1  0  0  0  0
  5 10  1  0  0  0  0
  5 26  1  0  0  0  0
  5 32  1  1  0  0  0
  6 12  1  0  0  0  0
  6 36  1  0  0  0  0
  6 19  1  6  0  0  0
  7  8  1  1  0  0  0
  7 14  1  0  0  0  0
  9 16  1  0  0  0  0
 10 11  1  6  0  0  0
 10 18  1  0  0  0  0
 12 13  1  6  0  0  0
 12 20  1  0  0  0  0
 14 15  1  1  0  0  0
 14 22  1  0  0  0  0
 16 17  1  1  0  0  0
 16 24  1  0  0  0  0
 18 19  1  6  0  0  0
 18 25  1  0  0  0  0
 20 21  1  1  0  0  0
 20 27  1  0  0  0  0
 22 23  1  1  0  0  0
 22 29  1  0  0  0  0
 24  2  1  1  0  0  0
 24 31  1  0  0  0  0
 25 26  1  0  0  0  0
 25 33  1  1  0  0  0
 27 28  1  6  0  0  0
 27 35  1  0  0  0  0
 29 30  1  0  0  0  0
 29 37  1  6  0  0  0
 31 32  1  6  0  0  0
 31 39  1  0  0  0  0
 33 34  1  0  0  0  0
 35 36  1  0  0  0  0
 35 41  1  6  0  0  0
 37 38  1  0  0  0  0
 39 40  1  6  0  0  0
 41 42  1  0  0  0  0
M  END
>  <CHROM.1>
155.10073739,-144.77602246,67.27650659,-128.97253508,-33.45726389,-153.56488695
-102.08435832,112.18312079,-52.24192332,12.51273385,12.80055902,-9.59158388
-1.20923245,-1.03429899,-0.64087549

>  <Name>
ligand

>  <RI>
0

>  <Rbt.Current_Directory>
/home/itssahil/PROJECTS/Mol_Feturizer/Test_systems_manuscript/rnas/2o3w

>  <Rbt.Executable>
rbdock ($Id: //depot/dev/client3/rdock/2013.1/src/exe/rbdock.cxx#4 $)

>  <Rbt.Library>
libRbt.so (2013.1, Build901 2013/11/27)

>  <Rbt.Parameter_File>
/export/apps/rDock/src/rDock_2013.1_src/data/scripts/dock_solv.prm

>  <Rbt.Receptor>
prm/blind_docking_60.prm

>  <SCORE>
44.9349

>  <SCORE.INTER>
27.6053

>  <SCORE.INTER.CONST>
1

>  <SCORE.INTER.POLAR>
0

>  <SCORE.INTER.ROT>
9

>  <SCORE.INTER.SOLV>
36.2389

>  <SCORE.INTER.VDW>
-3.27607

>  <SCORE.INTER.norm>
0.65727

>  <SCORE.INTRA>
3.6542

>  <SCORE.INTRA.DIHEDRAL>
3.49794

>  <SCORE.INTRA.DIHEDRAL.0>
27.8999

>  <SCORE.INTRA.POLAR>
0

>  <SCORE.INTRA.POLAR.0>
0

>  <SCORE.INTRA.REPUL>
0.111061

>  <SCORE.INTRA.REPUL.0>
0

>  <SCORE.INTRA.SOLV>
-0.91014

>  <SCORE.INTRA.SOLV.lig_0>
-104.479

>  <SCORE.INTRA.VDW>
1.805

>  <SCORE.INTRA.VDW.0>
-6.17816

>  <SCORE.INTRA.norm>
0.0870048

>  <SCORE.RESTR>
13.6753

>  <SCORE.RESTR.CAVITY>
13.6753

>  <SCORE.RESTR.norm>
0.325603

>  <SCORE.SYSTEM>
0

>  <SCORE.SYSTEM.CONST>
0

>  <SCORE.SYSTEM.DIHEDRAL>
0

>  <SCORE.SYSTEM.SOLV>
0

>  <SCORE.SYSTEM.norm>
0

>  <SCORE.heavy>
42

>  <SCORE.norm>
1.06988

>  <RMSD>
17.844

$$$$
ligand
 OpenBabel02271912133D
libRbt.so/2013.1/901 2013/11/27
 42 45  0  0  0  0  0  0  0  0999 V2000
   11.4145    9.6108   -8.4236 C   0  0  2  0  0  0  0  0  0  0  0  0
   11.2375   10.4163   -9.6013 O   0  0  0  0  0  0  0  0  0  0  0  0
   13.5335    8.0575  -12.4227 C   0  0  2  0  0  0  0  0  0  0  0  0
   14.3649    7.6417  -13.5916 N   0  0  0  0  0  0  0  0  0  0  0  0
   13.8297   12.1688  -10.3807 C   0  0  1  0  0  0  0  0  0  0  0  0
   11.7238   15.3197  -12.8416 C   0  0  1  0  0  0  0  0  0  0  0  0
   10.2393    9.9513   -7.4586 C   0  0  2  0  0  0  0  0  0  0  0  0
    8.9270    9.8932   -8.1258 N   0  0  0  0  0  0  0  0  0  0  0  0
   12.1138    8.5797  -12.8849 C   0  0  0  0  0  0  0  0  0  0  0  0
   12.7075   12.1201  -11.4620 C   0  0  2  0  0  0  0  0  0  0  0  0
   13.1925   11.8678  -12.8037 O   0  0  0  0  0  0  0  0  0  0  0  0
   12.3883   16.1164  -14.0216 C   0  0  2  0  0  0  0  0  0  0  0  0
   13.5106   16.9678  -13.5250 N   0  0  0  0  0  0  0  0  0  0  0  0
   10.3691   11.3618   -6.8547 C   0  0  1  0  0  0  0  0  0  0  0  0
    9.2946   11.6156   -5.9482 O   0  0  0  0  0  0  0  0  0  0  0  0
   11.2780    8.9807  -11.6109 C   0  0  2  0  0  0  0  0  0  0  0  0
    9.9283    9.4641  -12.0086 N   0  0  0  0  0  0  0  0  0  0  0  0
   12.0289   13.4738  -11.2468 C   0  0  2  0  0  0  0  0  0  0  0  0
   12.6319   14.5161  -12.0779 O   0  0  0  0  0  0  0  0  0  0  0  0
   11.2735   17.0036  -14.7544 C   0  0  1  0  0  0  0  0  0  0  0  0
   10.4235   16.1340  -15.5355 O   0  0  0  0  0  0  0  0  0  0  0  0
   11.7412   11.4994   -6.1563 C   0  0  2  0  0  0  0  0  0  0  0  0
   11.8690   12.7800   -5.5835 O   0  0  0  0  0  0  0  0  0  0  0  0
   12.0224   10.1050  -10.7877 C   0  0  2  0  0  0  0  0  0  0  0  0
   12.1853   13.7940   -9.7507 C   0  0  2  0  0  0  0  0  0  0  0  0
   13.4188   13.1632   -9.4146 O   0  0  0  0  0  0  0  0  0  0  0  0
   10.3780   17.8487  -13.7290 C   0  0  2  0  0  0  0  0  0  0  0  0
   11.2095   18.8617  -13.1644 O   0  0  0  0  0  0  0  0  0  0  0  0
   12.8754   11.2468   -7.2048 C   0  0  2  0  0  0  0  0  0  0  0  0
   12.7156    9.9163   -7.7914 O   0  0  0  0  0  0  0  0  0  0  0  0
   13.4426    9.6853  -10.3494 C   0  0  2  0  0  0  0  0  0  0  0  0
   14.0363   10.8840   -9.7792 O   0  0  0  0  0  0  0  0  0  0  0  0
   11.0258   13.2789   -8.8427 C   0  0  0  0  0  0  0  0  0  0  0  0
   11.0200   14.0158   -7.6237 O   0  0  0  0  0  0  0  0  0  0  0  0
    9.8052   16.9182  -12.5939 C   0  0  1  0  0  0  0  0  0  0  0  0
   10.9726   16.2886  -11.9528 O   0  0  0  0  0  0  0  0  0  0  0  0
   14.2576   11.3556   -6.6037 C   0  0  0  0  0  0  0  0  0  0  0  0
   14.4227   10.3942   -5.5900 O   0  0  0  0  0  0  0  0  0  0  0  0
   14.2781    9.1850  -11.6013 C   0  0  1  0  0  0  0  0  0  0  0  0
   15.5366    8.6558  -11.1751 O   0  0  0  0  0  0  0  0  0  0  0  0
    8.9290   17.6836  -11.5099 C   0  0  0  0  0  0  0  0  0  0  0  0
    9.6712   18.6396  -10.6428 N   0  0  0  0  0  0  0  0  0  0  0  0
  1  2  1  6  0  0  0
  1  7  1  0  0  0  0
  1 30  1  0  0  0  0
  3  4  1  6  0  0  0
  3  9  1  0  0  0  0
  3 39  1  0  0  0  0
  5 10  1  0  0  0  0
  5 26  1  0  0  0  0
  5 32  1  1  0  0  0
  6 12  1  0  0  0  0
  6 36  1  0  0  0  0
  6 19  1  1  0  0  0
  7  8  1  6  0  0  0
  7 14  1  0  0  0  0
  9 16  1  0  0  0  0
 10 11  1  6  0  0  0
 10 18  1  0  0  0  0
 12 13  1  1  0  0  0
 12 20  1  0  0  0  0
 14 15  1  1  0  0  0
 14 22  1  0  0  0  0
 16 17  1  6  0  0  0
 16 24  1  0  0  0  0
 18 19  1  6  0  0  0
 18 25  1  0  0  0  0
 20 21  1  1  0  0  0
 20 27  1  0  0  0  0
 22 23  1  6  0  0  0
 22 29  1  0  0  0  0
 24  2  1  1  0  0  0
 24 31  1  0  0  0  0
 25 26  1  0  0  0  0
 25 33  1  1  0  0  0
 27 28  1  1  0  0  0
 27 35  1  0  0  0  0
 29 30  1  0  0  0  0
 29 37  1  1  0  0  0
 31 32  1  6  0  0  0
 31 39  1  0  0  0  0
 33 34  1  0  0  0  0
 35 36  1  0  0  0  0
 35 41  1  1  0  0  0
 37 38  1  0  0  0  0
 39 40  1  1  0  0  0
 41 42  1  0  0  0  0
M  END
>  <CHROM.1>
-167.10336590,85.22086450,130.34546376,-162.55841620,-159.28535062,61.00373850
-40.30785399,11.73837678,-67.40005776,11.97238179,12.57780403,-10.42630767
1.07938331,-1.16809835,2.13075140

>  <Name>
ligand

>  <RI>
0

>  <Rbt.Current_Directory>
/home/itssahil/PROJECTS/Mol_Feturizer/Test_systems_manuscript/rnas/2o3w

>  <Rbt.Executable>
rbdock ($Id: //depot/dev/client3/rdock/2013.1/src/exe/rbdock.cxx#4 $)

>  <Rbt.Library>
libRbt.so (2013.1, Build901 2013/11/27)

>  <Rbt.Parameter_File>
/export/apps/rDock/src/rDock_2013.1_src/data/scripts/dock_solv.prm

>  <Rbt.Receptor>
prm/blind_docking_40.prm

>  <SCORE>
30.6833

>  <SCORE.INTER>
6.73737

>  <SCORE.INTER.CONST>
1

>  <SCORE.INTER.POLAR>
0

>  <SCORE.INTER.ROT>
9

>  <SCORE.INTER.SOLV>
32.85

>  <SCORE.INTER.VDW>
-16.0584

>  <SCORE.INTER.norm>
0.160414

>  <SCORE.INTRA>
15.3822

>  <SCORE.INTRA.DIHEDRAL>
-6.38267

>  <SCORE.INTRA.DIHEDRAL.0>
27.8999

>  <SCORE.INTRA.POLAR>
0

>  <SCORE.INTRA.POLAR.0>
0

>  <SCORE.INTRA.REPUL>
0

>  <SCORE.INTRA.REPUL.0>
0

>  <SCORE.INTRA.SOLV>
0.813551

>  <SCORE.INTRA.SOLV.lig_0>
-104.479

>  <SCORE.INTRA.VDW>
18.1668

>  <SCORE.INTRA.VDW.0>
-6.17816

>  <SCORE.INTRA.norm>
0.366243

>  <SCORE.RESTR>
8.56369

>  <SCORE.RESTR.CAVITY>
8.56369

>  <SCORE.RESTR.norm>
0.203897

>  <SCORE.SYSTEM>
0

>  <SCORE.SYSTEM.CONST>
0

>  <SCORE.SYSTEM.DIHEDRAL>
0

>  <SCORE.SYSTEM.SOLV>
0

>  <SCORE.SYSTEM.norm>
0

>  <SCORE.heavy>
42

>  <SCORE.norm>
0.730554

>  <RMSD>
17.854

$$$$
ligand
 OpenBabel02271912133D
libRbt.so/2013.1/901 2013/11/27
 42 45  0  0  0  0  0  0  0  0999 V2000
   12.8351   11.2923   -7.0315 C   0  0  2  0  0  0  0  0  0  0  0  0
   13.5706   11.3069   -8.2668 O   0  0  0  0  0  0  0  0  0  0  0  0
   12.4694    9.0614  -11.8082 C   0  0  2  0  0  0  0  0  0  0  0  0
   11.8306    8.6436  -13.0918 N   0  0  0  0  0  0  0  0  0  0  0  0
   13.4090   13.3691  -11.2046 C   0  0  1  0  0  0  0  0  0  0  0  0
   10.1816   15.6808  -12.1961 C   0  0  1  0  0  0  0  0  0  0  0  0
   11.9549   12.5780   -7.0108 C   0  0  2  0  0  0  0  0  0  0  0  0
   11.1840   12.7535   -8.2539 N   0  0  0  0  0  0  0  0  0  0  0  0
   11.4033    9.1689  -10.6448 C   0  0  0  0  0  0  0  0  0  0  0  0
   12.8869   13.1345  -12.6548 C   0  0  2  0  0  0  0  0  0  0  0  0
   13.6648   13.8048  -13.6769 O   0  0  0  0  0  0  0  0  0  0  0  0
    9.8067   17.0668  -12.8344 C   0  0  2  0  0  0  0  0  0  0  0  0
   10.9885   17.9798  -12.8592 N   0  0  0  0  0  0  0  0  0  0  0  0
   12.7923   13.8565   -6.8225 C   0  0  1  0  0  0  0  0  0  0  0  0
   11.9430   15.0040   -6.7698 O   0  0  0  0  0  0  0  0  0  0  0  0
   12.1384    9.5898   -9.3163 C   0  0  2  0  0  0  0  0  0  0  0  0
   11.1654    9.6866   -8.1949 N   0  0  0  0  0  0  0  0  0  0  0  0
   11.4327   13.5901  -12.5242 C   0  0  2  0  0  0  0  0  0  0  0  0
   11.2868   15.0156  -12.8202 O   0  0  0  0  0  0  0  0  0  0  0  0
    8.5945   17.7166  -12.0128 C   0  0  1  0  0  0  0  0  0  0  0  0
    7.3794   17.0003  -12.3280 O   0  0  0  0  0  0  0  0  0  0  0  0
   13.6481   13.7283   -5.5418 C   0  0  2  0  0  0  0  0  0  0  0  0
   14.4084   14.8980   -5.3460 O   0  0  0  0  0  0  0  0  0  0  0  0
   12.8733   10.9760   -9.5016 C   0  0  2  0  0  0  0  0  0  0  0  0
   11.0179   13.2763  -11.0768 C   0  0  2  0  0  0  0  0  0  0  0  0
   12.2396   13.4158  -10.3553 O   0  0  0  0  0  0  0  0  0  0  0  0
    8.8342   17.6944  -10.4286 C   0  0  2  0  0  0  0  0  0  0  0  0
    9.8872   18.6130  -10.1392 O   0  0  0  0  0  0  0  0  0  0  0  0
   14.5806   12.4782   -5.6738 C   0  0  2  0  0  0  0  0  0  0  0  0
   13.7693   11.2796   -5.8856 O   0  0  0  0  0  0  0  0  0  0  0  0
   13.8929   10.9630  -10.6615 C   0  0  2  0  0  0  0  0  0  0  0  0
   14.3270   12.3434  -10.8040 O   0  0  0  0  0  0  0  0  0  0  0  0
   10.3977   11.8609  -10.8621 C   0  0  0  0  0  0  0  0  0  0  0  0
    9.9975   11.3268  -12.1205 O   0  0  0  0  0  0  0  0  0  0  0  0
    9.2254   16.2467   -9.9459 C   0  0  1  0  0  0  0  0  0  0  0  0
   10.4250   15.8696  -10.7135 O   0  0  0  0  0  0  0  0  0  0  0  0
   15.4526   12.2722   -4.4569 C   0  0  0  0  0  0  0  0  0  0  0  0
   15.9562   10.9587   -4.4380 O   0  0  0  0  0  0  0  0  0  0  0  0
   13.2019   10.4505  -11.9940 C   0  0  1  0  0  0  0  0  0  0  0  0
   14.1782   10.2944  -13.0275 O   0  0  0  0  0  0  0  0  0  0  0  0
    9.5151   16.1403   -8.3860 C   0  0  0  0  0  0  0  0  0  0  0  0
    8.3396   16.3565   -7.4983 N   0  0  0  0  0  0  0  0  0  0  0  0
  1  2  1  6  0  0  0
  1  7  1  0  0  0  0
  1 30  1  0  0  0  0
  3  4  1  6  0  0  0
  3  9  1  0  0  0  0
  3 39  1  0  0  0  0
  5 10  1  0  0  0  0
  5 26  1  0  0  0  0
  5 32  1  1  0  0  0
  6 12  1  0  0  0  0
  6 36  1  0  0  0  0
  6 19  1  6  0  0  0
  7  8  1  6  0  0  0
  7 14  1  0  0  0  0
  9 16  1  0  0  0  0
 10 11  1  6  0  0  0
 10 18  1  0  0  0  0
 12 13  1  1  0  0  0
 12 20  1  0  0  0  0
 14 15  1  1  0  0  0
 14 22  1  0  0  0  0
 16 17  1  1  0  0  0
 16 24  1  0  0  0  0
 18 19  1  1  0  0  0
 18 25  1  0  0  0  0
 20 21  1  1  0  0  0
 20 27  1  0  0  0  0
 22 23  1  6  0  0  0
 22 29  1  0  0  0  0
 24  2  1  1  0  0  0
 24 31  1  0  0  0  0
 25 26  1  0  0  0  0
 25 33  1  6  0  0  0
 27 28  1  6  0  0  0
 27 35  1  0  0  0  0
 29 30  1  0  0  0  0
 29 37  1  1  0  0  0
 31 32  1  6  0  0  0
 31 39  1  0  0  0  0
 33 34  1  0  0  0  0
 35 36  1  0  0  0  0
 35 41  1  1  0  0  0
 37 38  1  0  0  0  0
 39 40  1  6  0  0  0
 41 42  1  0  0  0  0
M  END
>  <CHROM.1>
-75.32916180,-52.69126191,-153.44494949,-163.32248698,-16.99492544,162.25244225
-64.62506475,-64.70152319,66.96192724,11.90522205,13.31958196,-9.78160177
0.10552262,-1.01702015,1.00770417

>  <Name>
ligand

>  <RI>
0

>  <Rbt.Current_Directory>
/home/itssahil/PROJECTS/Mol_Feturizer/Test_systems_manuscript/rnas/2o3w

>  <Rbt.Executable>
rbdock ($Id: //depot/dev/client3/rdock/2013.1/src/exe/rbdock.cxx#4 $)

>  <Rbt.Library>
libRbt.so (2013.1, Build901 2013/11/27)

>  <Rbt.Parameter_File>
/export/apps/rDock/src/rDock_2013.1_src/data/scripts/dock_solv.prm

>  <Rbt.Receptor>
prm/blind_docking_80.prm

>  <SCORE>
11.4427

>  <SCORE.INTER>
-2.80793

>  <SCORE.INTER.CONST>
1

>  <SCORE.INTER.POLAR>
0

>  <SCORE.INTER.ROT>
9

>  <SCORE.INTER.SOLV>
27.6919

>  <SCORE.INTER.VDW>
-20.7026

>  <SCORE.INTER.norm>
-0.0668556

>  <SCORE.INTRA>
4.9924

>  <SCORE.INTRA.DIHEDRAL>
-16.5106

>  <SCORE.INTRA.DIHEDRAL.0>
27.8999

>  <SCORE.INTRA.POLAR>
0

>  <SCORE.INTRA.POLAR.0>
0

>  <SCORE.INTRA.REPUL>
0.0698121

>  <SCORE.INTRA.REPUL.0>
0

>  <SCORE.INTRA.SOLV>
7.33799

>  <SCORE.INTRA.SOLV.lig_0>
-104.479

>  <SCORE.INTRA.VDW>
9.22963

>  <SCORE.INTRA.VDW.0>
-6.17816

>  <SCORE.INTRA.norm>
0.118867

>  <SCORE.RESTR>
9.25818

>  <SCORE.RESTR.CAVITY>
9.25818

>  <SCORE.RESTR.norm>
0.220433

>  <SCORE.SYSTEM>
0

>  <SCORE.SYSTEM.CONST>
0

>  <SCORE.SYSTEM.DIHEDRAL>
0

>  <SCORE.SYSTEM.SOLV>
0

>  <SCORE.SYSTEM.norm>
0

>  <SCORE.heavy>
42

>  <SCORE.norm>
0.272444

>  <RMSD>
17.856

$$$$
ligand
 OpenBabel02271912133D
libRbt.so/2013.1/901 2013/11/27
 42 45  0  0  0  0  0  0  0  0999 V2000
   13.8371   11.6918  -12.8871 C   0  0  2  0  0  0  0  0  0  0  0  0
   13.6758   12.6336  -11.8128 O   0  0  0  0  0  0  0  0  0  0  0  0
   11.1757   16.0854  -11.0183 C   0  0  2  0  0  0  0  0  0  0  0  0
   10.0047   17.0068  -10.9187 N   0  0  0  0  0  0  0  0  0  0  0  0
   11.9126   12.0311   -8.4496 C   0  0  1  0  0  0  0  0  0  0  0  0
   12.9087   11.7021   -5.6385 C   0  0  1  0  0  0  0  0  0  0  0  0
   12.7942   10.5570  -12.6579 C   0  0  2  0  0  0  0  0  0  0  0  0
   11.4379   11.0785  -12.4146 N   0  0  0  0  0  0  0  0  0  0  0  0
   11.5251   15.7622  -12.5267 C   0  0  0  0  0  0  0  0  0  0  0  0
   10.7011   12.3837   -7.5337 C   0  0  2  0  0  0  0  0  0  0  0  0
   10.7942   13.6878   -6.9094 O   0  0  0  0  0  0  0  0  0  0  0  0
   13.8725   10.5261   -5.2422 C   0  0  2  0  0  0  0  0  0  0  0  0
   13.6804   10.1377   -3.8128 N   0  0  0  0  0  0  0  0  0  0  0  0
   13.1522    9.6692  -11.4518 C   0  0  1  0  0  0  0  0  0  0  0  0
   12.1929    8.6211  -11.3035 O   0  0  0  0  0  0  0  0  0  0  0  0
   12.7779   14.8075  -12.5671 C   0  0  2  0  0  0  0  0  0  0  0  0
   13.1442   14.4937  -13.9745 N   0  0  0  0  0  0  0  0  0  0  0  0
   10.6948   11.1904   -6.5770 C   0  0  2  0  0  0  0  0  0  0  0  0
   11.5202   11.4436   -5.3957 O   0  0  0  0  0  0  0  0  0  0  0  0
   15.3873   10.9675   -5.5200 C   0  0  1  0  0  0  0  0  0  0  0  0
   15.6209   10.9639   -6.9463 O   0  0  0  0  0  0  0  0  0  0  0  0
   14.5803    9.1060  -11.6320 C   0  0  2  0  0  0  0  0  0  0  0  0
   14.9171    8.2773  -10.5438 O   0  0  0  0  0  0  0  0  0  0  0  0
   12.4821   13.4672  -11.7848 C   0  0  2  0  0  0  0  0  0  0  0  0
   11.2295    9.9959   -7.3848 C   0  0  2  0  0  0  0  0  0  0  0  0
   12.1278   10.6083   -8.3071 O   0  0  0  0  0  0  0  0  0  0  0  0
   15.7330   12.4141   -4.9239 C   0  0  2  0  0  0  0  0  0  0  0  0
   15.7341   12.3049   -3.5011 O   0  0  0  0  0  0  0  0  0  0  0  0
   15.5877   10.2977  -11.7523 C   0  0  2  0  0  0  0  0  0  0  0  0
   15.2117   11.1476  -12.8819 O   0  0  0  0  0  0  0  0  0  0  0  0
   12.0776   13.7089  -10.3141 C   0  0  2  0  0  0  0  0  0  0  0  0
   11.6691   12.4070   -9.8114 O   0  0  0  0  0  0  0  0  0  0  0  0
   10.1397    9.1649   -8.1304 C   0  0  0  0  0  0  0  0  0  0  0  0
   10.7314    8.5070   -9.2466 O   0  0  0  0  0  0  0  0  0  0  0  0
   14.6659   13.4761   -5.3884 C   0  0  1  0  0  0  0  0  0  0  0  0
   13.3589   12.9669   -4.9382 O   0  0  0  0  0  0  0  0  0  0  0  0
   17.0147    9.8363  -11.9385 C   0  0  0  0  0  0  0  0  0  0  0  0
   17.7761   10.8494  -12.5492 O   0  0  0  0  0  0  0  0  0  0  0  0
   10.8773   14.7429  -10.2377 C   0  0  1  0  0  0  0  0  0  0  0  0
   10.6037   15.0816   -8.8754 O   0  0  0  0  0  0  0  0  0  0  0  0
   14.9141   14.9377   -4.8134 C   0  0  0  0  0  0  0  0  0  0  0  0
   15.8542   15.7853   -5.5972 N   0  0  0  0  0  0  0  0  0  0  0  0
  1  2  1  1  0  0  0
  1  7  1  0  0  0  0
  1 30  1  0  0  0  0
  3  4  1  6  0  0  0
  3  9  1  0  0  0  0
  3 39  1  0  0  0  0
  5 10  1  0  0  0  0
  5 26  1  0  0  0  0
  5 32  1  6  0  0  0
  6 12  1  0  0  0  0
  6 36  1  0  0  0  0
  6 19  1  1  0  0  0
  7  8  1  1  0  0  0
  7 14  1  0  0  0  0
  9 16  1  0  0  0  0
 10 11  1  1  0  0  0
 10 18  1  0  0  0  0
 12 13  1  1  0  0  0
 12 20  1  0  0  0  0
 14 15  1  6  0  0  0
 14 22  1  0  0  0  0
 16 17  1  6  0  0  0
 16 24  1  0  0  0  0
 18 19  1  1  0  0  0
 18 25  1  0  0  0  0
 20 21  1  6  0  0  0
 20 27  1  0  0  0  0
 22 23  1  1  0  0  0
 22 29  1  0  0  0  0
 24  2  1  1  0  0  0
 24 31  1  0  0  0  0
 25 26  1  0  0  0  0
 25 33  1  6  0  0  0
 27 28  1  1  0  0  0
 27 35  1  0  0  0  0
 29 30  1  0  0  0  0
 29 37  1  6  0  0  0
 31 32  1  6  0  0  0
 31 39  1  0  0  0  0
 33 34  1  0  0  0  0
 35 36  1  0  0  0  0
 35 41  1  1  0  0  0
 37 38  1  0  0  0  0
 39 40  1  1  0  0  0
 41 42  1  0  0  0  0
M  END
>  <CHROM.1>
-70.84133503,-90.65506217,-60.35351334,-106.84713504,154.97382349,156.97955107
145.78285227,92.14553476,85.51717405,13.11012267,12.02950774,-9.03634137
-1.69944550,-1.00615663,1.45295009

>  <Name>
ligand

>  <RI>
0

>  <Rbt.Current_Directory>
/home/itssahil/PROJECTS/Mol_Feturizer/Test_systems_manuscript/rnas/2o3w

>  <Rbt.Executable>
rbdock ($Id: //depot/dev/client3/rdock/2013.1/src/exe/rbdock.cxx#4 $)

>  <Rbt.Library>
libRbt.so (2013.1, Build901 2013/11/27)

>  <Rbt.Parameter_File>
/export/apps/rDock/src/rDock_2013.1_src/data/scripts/dock_solv.prm

>  <Rbt.Receptor>
prm/blind_docking_40.prm

>  <SCORE>
15.5732

>  <SCORE.INTER>
1.49285

>  <SCORE.INTER.CONST>
1

>  <SCORE.INTER.POLAR>
0

>  <SCORE.INTER.ROT>
9

>  <SCORE.INTER.SOLV>
33.5695

>  <SCORE.INTER.VDW>
-19.7946

>  <SCORE.INTER.norm>
0.0355441

>  <SCORE.INTRA>
1.47658

>  <SCORE.INTRA.DIHEDRAL>
-3.16524

>  <SCORE.INTRA.DIHEDRAL.0>
27.8999

>  <SCORE.INTRA.POLAR>
0

>  <SCORE.INTRA.POLAR.0>
0

>  <SCORE.INTRA.REPUL>
0.0133062

>  <SCORE.INTRA.REPUL.0>
0

>  <SCORE.INTRA.SOLV>
0.292589

>  <SCORE.INTRA.SOLV.lig_0>
-104.479

>  <SCORE.INTRA.VDW>
2.84637

>  <SCORE.INTRA.VDW.0>
-6.17816

>  <SCORE.INTRA.norm>
0.0351567

>  <SCORE.RESTR>
12.6038

>  <SCORE.RESTR.CAVITY>
12.6038

>  <SCORE.RESTR.norm>
0.30009

>  <SCORE.SYSTEM>
0

>  <SCORE.SYSTEM.CONST>
0

>  <SCORE.SYSTEM.DIHEDRAL>
0

>  <SCORE.SYSTEM.SOLV>
0

>  <SCORE.SYSTEM.norm>
0

>  <SCORE.heavy>
42

>  <SCORE.norm>
0.370791

>  <RMSD>
17.857

$$$$
ligand
 OpenBabel02271912133D
libRbt.so/2013.1/901 2013/11/27
 42 45  0  0  0  0  0  0  0  0999 V2000
   11.6107    9.7931   -8.4674 C   0  0  2  0  0  0  0  0  0  0  0  0
   11.3668   10.5215   -9.6828 O   0  0  0  0  0  0  0  0  0  0  0  0
   14.2826    8.4886  -12.1650 C   0  0  2  0  0  0  0  0  0  0  0  0
   15.1173    8.0615  -13.3275 N   0  0  0  0  0  0  0  0  0  0  0  0
   12.3463   12.7518  -10.7064 C   0  0  1  0  0  0  0  0  0  0  0  0
    9.5882   16.3257  -10.4173 C   0  0  1  0  0  0  0  0  0  0  0  0
   10.4609   10.1566   -7.4805 C   0  0  2  0  0  0  0  0  0  0  0  0
    9.1280   10.0211   -8.0933 N   0  0  0  0  0  0  0  0  0  0  0  0
   12.7548    8.1545  -12.4020 C   0  0  0  0  0  0  0  0  0  0  0  0
   12.4728   14.1300   -9.9887 C   0  0  2  0  0  0  0  0  0  0  0  0
   12.0923   14.1037   -8.5910 O   0  0  0  0  0  0  0  0  0  0  0  0
    8.0515   16.2934  -10.0913 C   0  0  2  0  0  0  0  0  0  0  0  0
    7.3218   15.4078  -11.0474 N   0  0  0  0  0  0  0  0  0  0  0  0
   10.5686   11.6037   -6.9655 C   0  0  1  0  0  0  0  0  0  0  0  0
    9.5199   11.8801   -6.0356 O   0  0  0  0  0  0  0  0  0  0  0  0
   11.9315    8.6063  -11.1368 C   0  0  2  0  0  0  0  0  0  0  0  0
   10.4886    8.2932  -11.3196 N   0  0  0  0  0  0  0  0  0  0  0  0
   11.6134   15.0155  -10.8924 C   0  0  2  0  0  0  0  0  0  0  0  0
   10.2180   15.0390  -10.4530 O   0  0  0  0  0  0  0  0  0  0  0  0
    7.4710   17.7861  -10.1318 C   0  0  1  0  0  0  0  0  0  0  0  0
    7.9240   18.4957   -8.9570 O   0  0  0  0  0  0  0  0  0  0  0  0
   11.9599   11.8221   -6.3285 C   0  0  2  0  0  0  0  0  0  0  0  0
   12.0685   13.1378   -5.8368 O   0  0  0  0  0  0  0  0  0  0  0  0
   12.1095   10.1550  -10.8805 C   0  0  2  0  0  0  0  0  0  0  0  0
   11.7420   14.4286  -12.3082 C   0  0  2  0  0  0  0  0  0  0  0  0
   11.9342   13.0374  -12.0628 O   0  0  0  0  0  0  0  0  0  0  0  0
    7.9118   18.5895  -11.4463 C   0  0  2  0  0  0  0  0  0  0  0  0
    7.2371   18.0009  -12.5576 O   0  0  0  0  0  0  0  0  0  0  0  0
   13.0630   11.5402   -7.4023 C   0  0  2  0  0  0  0  0  0  0  0  0
   12.9235   10.1731   -7.9036 O   0  0  0  0  0  0  0  0  0  0  0  0
   13.5869   10.5656  -10.6956 C   0  0  2  0  0  0  0  0  0  0  0  0
   13.5776   12.0192  -10.6589 O   0  0  0  0  0  0  0  0  0  0  0  0
   12.9102   15.0149  -13.1601 C   0  0  0  0  0  0  0  0  0  0  0  0
   12.7010   16.4113  -13.3474 O   0  0  0  0  0  0  0  0  0  0  0  0
    9.4719   18.5083  -11.6503 C   0  0  1  0  0  0  0  0  0  0  0  0
    9.8019   17.0741  -11.7163 O   0  0  0  0  0  0  0  0  0  0  0  0
   14.4619   11.7243   -6.8611 C   0  0  0  0  0  0  0  0  0  0  0  0
   14.6897   10.8366   -5.7936 O   0  0  0  0  0  0  0  0  0  0  0  0
   14.4591   10.0394  -11.9114 C   0  0  1  0  0  0  0  0  0  0  0  0
   15.8464   10.2868  -11.6668 O   0  0  0  0  0  0  0  0  0  0  0  0
    9.9940   19.2530  -12.9547 C   0  0  0  0  0  0  0  0  0  0  0  0
   11.4511   19.1200  -13.2303 N   0  0  0  0  0  0  0  0  0  0  0  0
  1  2  1  6  0  0  0
  1  7  1  0  0  0  0
  1 30  1  0  0  0  0
  3  4  1  6  0  0  0
  3  9  1  0  0  0  0
  3 39  1  0  0  0  0
  5 10  1  0  0  0  0
  5 26  1  0  0  0  0
  5 32  1  6  0  0  0
  6 12  1  0  0  0  0
  6 36  1  0  0  0  0
  6 19  1  6  0  0  0
  7  8  1  6  0  0  0
  7 14  1  0  0  0  0
  9 16  1  0  0  0  0
 10 11  1  1  0  0  0
 10 18  1  0  0  0  0
 12 13  1  6  0  0  0
 12 20  1  0  0  0  0
 14 15  1  1  0  0  0
 14 22  1  0  0  0  0
 16 17  1  6  0  0  0
 16 24  1  0  0  0  0
 18 19  1  1  0  0  0
 18 25  1  0  0  0  0
 20 21  1  1  0  0  0
 20 27  1  0  0  0  0
 22 23  1  6  0  0  0
 22 29  1  0  0  0  0
 24  2  1  1  0  0  0
 24 31  1  0  0  0  0
 25 26  1  0  0  0  0
 25 33  1  1  0  0  0
 27 28  1  6  0  0  0
 27 35  1  0  0  0  0
 29 30  1  0  0  0  0
 29 37  1  1  0  0  0
 31 32  1  6  0  0  0
 31 39  1  0  0  0  0
 33 34  1  0  0  0  0
 35 36  1  0  0  0  0
 35 41  1  6  0  0  0
 37 38  1  0  0  0  0
 39 40  1  1  0  0  0
 41 42  1  0  0  0  0
M  END
>  <CHROM.1>
-166.57638992,53.31760854,134.97185024,173.71358417,-61.78174357,60.59459835
3.63796140,152.29275980,-176.03101462,11.44449294,13.18710549,-10.18716471
0.72891114,-0.93823842,2.18238848

>  <Name>
ligand

>  <RI>
0

>  <Rbt.Current_Directory>
/home/itssahil/PROJECTS/Mol_Feturizer/Test_systems_manuscript/rnas/2o3w

>  <Rbt.Executable>
rbdock ($Id: //depot/dev/client3/rdock/2013.1/src/exe/rbdock.cxx#4 $)

>  <Rbt.Library>
libRbt.so (2013.1, Build901 2013/11/27)

>  <Rbt.Parameter_File>
/export/apps/rDock/src/rDock_2013.1_src/data/scripts/dock_solv.prm

>  <Rbt.Receptor>
prm/blind_docking_40.prm

>  <SCORE>
11.5609

>  <SCORE.INTER>
2.74905

>  <SCORE.INTER.CONST>
1

>  <SCORE.INTER.POLAR>
0

>  <SCORE.INTER.ROT>
9

>  <SCORE.INTER.SOLV>
25.5134

>  <SCORE.INTER.VDW>
-16.2718

>  <SCORE.INTER.norm>
0.0654535

>  <SCORE.INTRA>
-1.84369

>  <SCORE.INTRA.DIHEDRAL>
-9.99035

>  <SCORE.INTRA.DIHEDRAL.0>
27.8999

>  <SCORE.INTRA.POLAR>
0

>  <SCORE.INTRA.POLAR.0>
0

>  <SCORE.INTRA.REPUL>
0

>  <SCORE.INTRA.REPUL.0>
0

>  <SCORE.INTRA.SOLV>
-1.94953

>  <SCORE.INTRA.SOLV.lig_0>
-104.479

>  <SCORE.INTRA.VDW>
4.12624

>  <SCORE.INTRA.VDW.0>
-6.17816

>  <SCORE.INTRA.norm>
-0.0438975

>  <SCORE.RESTR>
10.6555

>  <SCORE.RESTR.CAVITY>
10.6555

>  <SCORE.RESTR.norm>
0.253703

>  <SCORE.SYSTEM>
0

>  <SCORE.SYSTEM.CONST>
0

>  <SCORE.SYSTEM.DIHEDRAL>
0

>  <SCORE.SYSTEM.SOLV>
0

>  <SCORE.SYSTEM.norm>
0

>  <SCORE.heavy>
42

>  <SCORE.norm>
0.275259

>  <RMSD>
17.872

$$$$
ligand
 OpenBabel02271912133D
libRbt.so/2013.1/901 2013/11/27
 42 45  0  0  0  0  0  0  0  0999 V2000
   11.7241    9.7493   -8.4708 C   0  0  2  0  0  0  0  0  0  0  0  0
   11.4430   10.4002   -9.7217 O   0  0  0  0  0  0  0  0  0  0  0  0
   14.6869    8.6573  -12.0098 C   0  0  2  0  0  0  0  0  0  0  0  0
   15.6472    8.3354  -13.1074 N   0  0  0  0  0  0  0  0  0  0  0  0
   12.3805   12.7312  -10.5723 C   0  0  1  0  0  0  0  0  0  0  0  0
    9.5199   16.2001  -10.3722 C   0  0  1  0  0  0  0  0  0  0  0  0
   10.5020   10.0069   -7.5391 C   0  0  2  0  0  0  0  0  0  0  0  0
    9.2193    9.6912   -8.1915 N   0  0  0  0  0  0  0  0  0  0  0  0
   13.2093    8.2519  -12.4027 C   0  0  0  0  0  0  0  0  0  0  0  0
   12.4069   14.1550   -9.9377 C   0  0  2  0  0  0  0  0  0  0  0  0
   11.9574   14.1950   -8.5609 O   0  0  0  0  0  0  0  0  0  0  0  0
    7.9490   16.1710  -10.3600 C   0  0  2  0  0  0  0  0  0  0  0  0
    7.4174   15.5435  -11.6068 N   0  0  0  0  0  0  0  0  0  0  0  0
   10.4174   11.4737   -7.0782 C   0  0  1  0  0  0  0  0  0  0  0  0
    9.3081   11.6548   -6.1965 O   0  0  0  0  0  0  0  0  0  0  0  0
   12.2496    8.5940  -11.2009 C   0  0  2  0  0  0  0  0  0  0  0  0
   10.8503    8.2114  -11.5311 N   0  0  0  0  0  0  0  0  0  0  0  0
   11.5547   14.9407  -10.9356 C   0  0  2  0  0  0  0  0  0  0  0  0
   10.1392   14.9224  -10.5659 O   0  0  0  0  0  0  0  0  0  0  0  0
    7.3939   17.6637  -10.1852 C   0  0  1  0  0  0  0  0  0  0  0  0
    7.6106   18.0858   -8.8200 O   0  0  0  0  0  0  0  0  0  0  0  0
   11.7472   11.8794   -6.4029 C   0  0  2  0  0  0  0  0  0  0  0  0
   11.6800   13.2151   -5.9602 O   0  0  0  0  0  0  0  0  0  0  0  0
   12.3114   10.1354  -10.8601 C   0  0  2  0  0  0  0  0  0  0  0  0
   11.7820   14.2760  -12.3037 C   0  0  2  0  0  0  0  0  0  0  0  0
   12.0252   12.9134  -11.9621 O   0  0  0  0  0  0  0  0  0  0  0  0
    8.0873   18.7063  -11.1850 C   0  0  2  0  0  0  0  0  0  0  0  0
    7.6413   18.3991  -12.5053 O   0  0  0  0  0  0  0  0  0  0  0  0
   12.9169   11.6942   -7.4262 C   0  0  2  0  0  0  0  0  0  0  0  0
   12.9598   10.3035   -7.8778 O   0  0  0  0  0  0  0  0  0  0  0  0
   13.7390   10.6168  -10.5203 C   0  0  2  0  0  0  0  0  0  0  0  0
   13.6402   12.0641  -10.4196 O   0  0  0  0  0  0  0  0  0  0  0  0
   12.9638   14.8661  -13.1340 C   0  0  0  0  0  0  0  0  0  0  0  0
   12.6729   16.2192  -13.4704 O   0  0  0  0  0  0  0  0  0  0  0  0
    9.6568   18.5977  -11.1005 C   0  0  1  0  0  0  0  0  0  0  0  0
    9.9874   17.1964  -11.4124 O   0  0  0  0  0  0  0  0  0  0  0  0
   14.2620   12.0636   -6.8450 C   0  0  0  0  0  0  0  0  0  0  0  0
   14.2819   13.4265   -6.4965 O   0  0  0  0  0  0  0  0  0  0  0  0
   14.7473   10.2009  -11.6718 C   0  0  1  0  0  0  0  0  0  0  0  0
   16.0897   10.5116  -11.2883 O   0  0  0  0  0  0  0  0  0  0  0  0
   10.4278   19.5771  -12.0880 C   0  0  0  0  0  0  0  0  0  0  0  0
   10.5043   19.1300  -13.5060 N   0  0  0  0  0  0  0  0  0  0  0  0
  1  2  1  6  0  0  0
  1  7  1  0  0  0  0
  1 30  1  0  0  0  0
  3  4  1  6  0  0  0
  3  9  1  0  0  0  0
  3 39  1  0  0  0  0
  5 10  1  0  0  0  0
  5 26  1  0  0  0  0
  5 32  1  6  0  0  0
  6 12  1  0  0  0  0
  6 36  1  0  0  0  0
  6 19  1  6  0  0  0
  7  8  1  6  0  0  0
  7 14  1  0  0  0  0
  9 16  1  0  0  0  0
 10 11  1  1  0  0  0
 10 18  1  0  0  0  0
 12 13  1  6  0  0  0
 12 20  1  0  0  0  0
 14 15  1  1  0  0  0
 14 22  1  0  0  0  0
 16 17  1  6  0  0  0
 16 24  1  0  0  0  0
 18 19  1  1  0  0  0
 18 25  1  0  0  0  0
 20 21  1  1  0  0  0
 20 27  1  0  0  0  0
 22 23  1  6  0  0  0
 22 29  1  0  0  0  0
 24  2  1  1  0  0  0
 24 31  1  0  0  0  0
 25 26  1  0  0  0  0
 25 33  1  1  0  0  0
 27 28  1  6  0  0  0
 27 35  1  0  0  0  0
 29 30  1  0  0  0  0
 29 37  1  1  0  0  0
 31 32  1  6  0  0  0
 31 39  1  0  0  0  0
 33 34  1  0  0  0  0
 35 36  1  0  0  0  0
 35 41  1  6  0  0  0
 37 38  1  0  0  0  0
 39 40  1  1  0  0  0
 41 42  1  0  0  0  0
M  END
>  <CHROM.1>
-169.66422872,61.04792053,122.49982912,164.37104067,-64.37968085,-62.60690550
2.53371269,159.54292313,-79.16842155,11.47591146,13.26506522,-10.16701888
0.74455185,-0.90176254,2.26339606

>  <Name>
ligand

>  <RI>
0

>  <Rbt.Current_Directory>
/home/itssahil/PROJECTS/Mol_Feturizer/Test_systems_manuscript/rnas/2o3w

>  <Rbt.Executable>
rbdock ($Id: //depot/dev/client3/rdock/2013.1/src/exe/rbdock.cxx#4 $)

>  <Rbt.Library>
libRbt.so (2013.1, Build901 2013/11/27)

>  <Rbt.Parameter_File>
/export/apps/rDock/src/rDock_2013.1_src/data/scripts/dock_solv.prm

>  <Rbt.Receptor>
prm/blind_docking_40.prm

>  <SCORE>
10.4634

>  <SCORE.INTER>
0.225632

>  <SCORE.INTER.CONST>
1

>  <SCORE.INTER.POLAR>
0

>  <SCORE.INTER.ROT>
9

>  <SCORE.INTER.SOLV>
28.2948

>  <SCORE.INTER.VDW>
-18.8812

>  <SCORE.INTER.norm>
0.00537219

>  <SCORE.INTRA>
-0.471734

>  <SCORE.INTRA.DIHEDRAL>
-8.6104

>  <SCORE.INTRA.DIHEDRAL.0>
27.8999

>  <SCORE.INTRA.POLAR>
0

>  <SCORE.INTRA.POLAR.0>
0

>  <SCORE.INTRA.REPUL>
0

>  <SCORE.INTRA.REPUL.0>
0

>  <SCORE.INTRA.SOLV>
-1.16555

>  <SCORE.INTRA.SOLV.lig_0>
-104.479

>  <SCORE.INTRA.VDW>
4.41624

>  <SCORE.INTRA.VDW.0>
-6.17816

>  <SCORE.INTRA.norm>
-0.0112318

>  <SCORE.RESTR>
10.7095

>  <SCORE.RESTR.CAVITY>
10.7095

>  <SCORE.RESTR.norm>
0.254988

>  <SCORE.SYSTEM>
0

>  <SCORE.SYSTEM.CONST>
0

>  <SCORE.SYSTEM.DIHEDRAL>
0

>  <SCORE.SYSTEM.SOLV>
0

>  <SCORE.SYSTEM.norm>
0

>  <SCORE.heavy>
42

>  <SCORE.norm>
0.249128

>  <RMSD>
17.909

$$$$
ligand
 OpenBabel02271912133D
libRbt.so/2013.1/901 2013/11/27
 42 45  0  0  0  0  0  0  0  0999 V2000
   12.1590   12.4379   -6.8895 C   0  0  2  0  0  0  0  0  0  0  0  0
   12.6437   12.4987   -8.2418 O   0  0  0  0  0  0  0  0  0  0  0  0
   11.8047    9.7841  -11.5164 C   0  0  2  0  0  0  0  0  0  0  0  0
   11.1229    9.0573  -12.6288 N   0  0  0  0  0  0  0  0  0  0  0  0
   11.0711   14.0734  -11.4582 C   0  0  1  0  0  0  0  0  0  0  0  0
    7.6593   16.7307  -11.6268 C   0  0  1  0  0  0  0  0  0  0  0  0
   12.5768   13.7694   -6.1961 C   0  0  2  0  0  0  0  0  0  0  0  0
   12.2154   14.9563   -6.9906 N   0  0  0  0  0  0  0  0  0  0  0  0
   11.0982    9.5034  -10.1294 C   0  0  0  0  0  0  0  0  0  0  0  0
   10.5476   15.3719  -10.7723 C   0  0  2  0  0  0  0  0  0  0  0  0
    9.5878   15.1333   -9.7136 O   0  0  0  0  0  0  0  0  0  0  0  0
    8.1096   18.2334  -11.5378 C   0  0  2  0  0  0  0  0  0  0  0  0
    9.4214   18.3565  -10.8343 N   0  0  0  0  0  0  0  0  0  0  0  0
   14.0941   13.8468   -5.9459 C   0  0  1  0  0  0  0  0  0  0  0  0
   14.4261   15.0634   -5.2745 O   0  0  0  0  0  0  0  0  0  0  0  0
   11.8735   10.2764   -8.9962 C   0  0  2  0  0  0  0  0  0  0  0  0
   11.2433   10.0227   -7.6725 N   0  0  0  0  0  0  0  0  0  0  0  0
   10.0232   16.1538  -11.9777 C   0  0  2  0  0  0  0  0  0  0  0  0
    8.6149   15.8566  -12.2405 O   0  0  0  0  0  0  0  0  0  0  0  0
    6.9743   19.0822  -10.7912 C   0  0  1  0  0  0  0  0  0  0  0  0
    5.8510   19.2481  -11.6854 O   0  0  0  0  0  0  0  0  0  0  0  0
   14.5464   12.6122   -5.1334 C   0  0  2  0  0  0  0  0  0  0  0  0
   15.9309   12.6764   -4.8814 O   0  0  0  0  0  0  0  0  0  0  0  0
   11.8853   11.8289   -9.2889 C   0  0  2  0  0  0  0  0  0  0  0  0
   10.9099   15.7463  -13.1664 C   0  0  2  0  0  0  0  0  0  0  0  0
   11.2716   14.4036  -12.8517 O   0  0  0  0  0  0  0  0  0  0  0  0
    6.4792   18.3967   -9.4301 C   0  0  2  0  0  0  0  0  0  0  0  0
    7.5498   18.4817   -8.4905 O   0  0  0  0  0  0  0  0  0  0  0  0
   14.1895   11.3155   -5.9338 C   0  0  2  0  0  0  0  0  0  0  0  0
   12.7500   11.2767   -6.1910 O   0  0  0  0  0  0  0  0  0  0  0  0
   12.5118   12.1756  -10.6573 C   0  0  2  0  0  0  0  0  0  0  0  0
   12.2728   13.5986  -10.8372 O   0  0  0  0  0  0  0  0  0  0  0  0
   12.1757   16.6336  -13.3780 C   0  0  0  0  0  0  0  0  0  0  0  0
   12.8619   16.2027  -14.5494 O   0  0  0  0  0  0  0  0  0  0  0  0
    6.0882   16.8905   -9.6765 C   0  0  1  0  0  0  0  0  0  0  0  0
    7.2851   16.2445  -10.2425 O   0  0  0  0  0  0  0  0  0  0  0  0
   14.5926   10.0537   -5.2064 C   0  0  0  0  0  0  0  0  0  0  0  0
   14.0730   10.0606   -3.8990 O   0  0  0  0  0  0  0  0  0  0  0  0
   11.8131   11.3382  -11.8089 C   0  0  1  0  0  0  0  0  0  0  0  0
   12.4918   11.5450  -13.0507 O   0  0  0  0  0  0  0  0  0  0  0  0
    5.6157   16.1216   -8.3673 C   0  0  0  0  0  0  0  0  0  0  0  0
    4.3422   16.6024   -7.7644 N   0  0  0  0  0  0  0  0  0  0  0  0
  1  2  1  6  0  0  0
  1  7  1  0  0  0  0
  1 30  1  0  0  0  0
  3  4  1  6  0  0  0
  3  9  1  0  0  0  0
  3 39  1  0  0  0  0
  5 10  1  0  0  0  0
  5 26  1  0  0  0  0
  5 32  1  1  0  0  0
  6 12  1  0  0  0  0
  6 36  1  0  0  0  0
  6 19  1  1  0  0  0
  7  8  1  6  0  0  0
  7 14  1  0  0  0  0
  9 16  1  0  0  0  0
 10 11  1  1  0  0  0
 10 18  1  0  0  0  0
 12 13  1  1  0  0  0
 12 20  1  0  0  0  0
 14 15  1  1  0  0  0
 14 22  1  0  0  0  0
 16 17  1  1  0  0  0
 16 24  1  0  0  0  0
 18 19  1  6  0  0  0
 18 25  1  0  0  0  0
 20 21  1  6  0  0  0
 20 27  1  0  0  0  0
 22 23  1  6  0  0  0
 22 29  1  0  0  0  0
 24  2  1  1  0  0  0
 24 31  1  0  0  0  0
 25 26  1  0  0  0  0
 25 33  1  1  0  0  0
 27 28  1  1  0  0  0
 27 35  1  0  0  0  0
 29 30  1  0  0  0  0
 29 37  1  1  0  0  0
 31 32  1  6  0  0  0
 31 39  1  0  0  0  0
 33 34  1  0  0  0  0
 35 36  1  0  0  0  0
 35 41  1  1  0  0  0
 37 38  1  0  0  0  0
 39 40  1  6  0  0  0
 41 42  1  0  0  0  0
M  END
>  <CHROM.1>
-148.15013560,-63.24238624,92.80041323,35.53825152,-176.56060929,52.47299006
-88.80238936,141.83179096,65.96880562,10.84825314,14.14685709,-9.46811287
0.34657460,-0.83710185,1.41637299

>  <Name>
ligand

>  <RI>
0

>  <Rbt.Current_Directory>
/home/itssahil/PROJECTS/Mol_Feturizer/Test_systems_manuscript/rnas/2o3w

>  <Rbt.Executable>
rbdock ($Id: //depot/dev/client3/rdock/2013.1/src/exe/rbdock.cxx#4 $)

>  <Rbt.Library>
libRbt.so (2013.1, Build901 2013/11/27)

>  <Rbt.Parameter_File>
/export/apps/rDock/src/rDock_2013.1_src/data/scripts/dock_solv.prm

>  <Rbt.Receptor>
prm/blind_docking_100.prm

>  <SCORE>
-0.941517

>  <SCORE.INTER>
-7.40754

>  <SCORE.INTER.CONST>
1

>  <SCORE.INTER.POLAR>
0

>  <SCORE.INTER.ROT>
9

>  <SCORE.INTER.SOLV>
24.7905

>  <SCORE.INTER.VDW>
-22.8019

>  <SCORE.INTER.norm>
-0.17637

>  <SCORE.INTRA>
2.13279

>  <SCORE.INTRA.DIHEDRAL>
-8.28118

>  <SCORE.INTRA.DIHEDRAL.0>
27.8999

>  <SCORE.INTRA.POLAR>
0

>  <SCORE.INTRA.POLAR.0>
0

>  <SCORE.INTRA.REPUL>
0

>  <SCORE.INTRA.REPUL.0>
0

>  <SCORE.INTRA.SOLV>
1.37734

>  <SCORE.INTRA.SOLV.lig_0>
-104.479

>  <SCORE.INTRA.VDW>
5.58471

>  <SCORE.INTRA.VDW.0>
-6.17816

>  <SCORE.INTRA.norm>
0.0507808

>  <SCORE.RESTR>
4.33323

>  <SCORE.RESTR.CAVITY>
4.33323

>  <SCORE.RESTR.norm>
0.103172

>  <SCORE.SYSTEM>
0

>  <SCORE.SYSTEM.CONST>
0

>  <SCORE.SYSTEM.DIHEDRAL>
0

>  <SCORE.SYSTEM.SOLV>
0

>  <SCORE.SYSTEM.norm>
0

>  <SCORE.heavy>
42

>  <SCORE.norm>
-0.0224171

>  <RMSD>
17.933

$$$$
ligand
 OpenBabel02271912133D
libRbt.so/2013.1/901 2013/11/27
 42 45  0  0  0  0  0  0  0  0999 V2000
   14.5801   11.2989   -7.0208 C   0  0  2  0  0  0  0  0  0  0  0  0
   13.3781   10.5149   -6.9328 O   0  0  0  0  0  0  0  0  0  0  0  0
   10.8151    8.9791  -10.0743 C   0  0  2  0  0  0  0  0  0  0  0  0
    9.8850    8.8847  -11.2389 N   0  0  0  0  0  0  0  0  0  0  0  0
   13.9118   12.0763  -10.3328 C   0  0  1  0  0  0  0  0  0  0  0  0
   12.1277   14.9622  -13.2636 C   0  0  1  0  0  0  0  0  0  0  0  0
   15.3475   11.1075   -5.6782 C   0  0  2  0  0  0  0  0  0  0  0  0
   15.4920    9.6887   -5.3087 N   0  0  0  0  0  0  0  0  0  0  0  0
   10.1231    9.6916   -8.8433 C   0  0  0  0  0  0  0  0  0  0  0  0
   13.5910   11.8062  -11.8344 C   0  0  2  0  0  0  0  0  0  0  0  0
   14.7431   11.8944  -12.7084 O   0  0  0  0  0  0  0  0  0  0  0  0
   12.7969   15.8288  -14.3906 C   0  0  2  0  0  0  0  0  0  0  0  0
   13.9223   16.6423  -13.8405 N   0  0  0  0  0  0  0  0  0  0  0  0
   14.6446   11.8048   -4.4989 C   0  0  1  0  0  0  0  0  0  0  0  0
   15.4017   11.6372   -3.2991 O   0  0  0  0  0  0  0  0  0  0  0  0
   11.1426    9.7410   -7.6430 C   0  0  2  0  0  0  0  0  0  0  0  0
   10.5184   10.3934   -6.4605 N   0  0  0  0  0  0  0  0  0  0  0  0
   12.4852   12.8313  -12.0909 C   0  0  2  0  0  0  0  0  0  0  0  0
   13.0315   14.1081  -12.5514 O   0  0  0  0  0  0  0  0  0  0  0  0
   11.6868   16.7652  -15.0669 C   0  0  1  0  0  0  0  0  0  0  0  0
   10.8338   15.9503  -15.9019 O   0  0  0  0  0  0  0  0  0  0  0  0
   14.4390   13.3001   -4.8323 C   0  0  2  0  0  0  0  0  0  0  0  0
   13.8115   13.9565   -3.7554 O   0  0  0  0  0  0  0  0  0  0  0  0
   12.4494   10.5277   -8.0543 C   0  0  2  0  0  0  0  0  0  0  0  0
   11.7388   12.9935  -10.7560 C   0  0  2  0  0  0  0  0  0  0  0  0
   12.7576   12.7557   -9.7876 O   0  0  0  0  0  0  0  0  0  0  0  0
   10.7939   17.5479  -13.9910 C   0  0  2  0  0  0  0  0  0  0  0  0
   11.6291   18.5198  -13.3630 O   0  0  0  0  0  0  0  0  0  0  0  0
   13.5751   13.4193   -6.1319 C   0  0  2  0  0  0  0  0  0  0  0  0
   14.2421   12.7227   -7.2317 O   0  0  0  0  0  0  0  0  0  0  0  0
   13.1506    9.9201   -9.2889 C   0  0  2  0  0  0  0  0  0  0  0  0
   14.2051   10.8612   -9.6310 O   0  0  0  0  0  0  0  0  0  0  0  0
   10.5342   12.0229  -10.5534 C   0  0  0  0  0  0  0  0  0  0  0  0
    9.6496   12.1325  -11.6645 O   0  0  0  0  0  0  0  0  0  0  0  0
   10.2158   16.5504  -12.9173 C   0  0  1  0  0  0  0  0  0  0  0  0
   11.3798   15.8765  -12.3162 O   0  0  0  0  0  0  0  0  0  0  0  0
   13.3289   14.8542   -6.5369 C   0  0  0  0  0  0  0  0  0  0  0  0
   12.0366   14.9911   -7.0758 O   0  0  0  0  0  0  0  0  0  0  0  0
   12.1213    9.7695  -10.4862 C   0  0  1  0  0  0  0  0  0  0  0  0
   12.7299    9.0698  -11.5751 O   0  0  0  0  0  0  0  0  0  0  0  0
    9.3418   17.2497  -11.7878 C   0  0  0  0  0  0  0  0  0  0  0  0
   10.0730   17.6133  -10.5429 N   0  0  0  0  0  0  0  0  0  0  0  0
  1  2  1  1  0  0  0
  1  7  1  0  0  0  0
  1 30  1  0  0  0  0
  3  4  1  6  0  0  0
  3  9  1  0  0  0  0
  3 39  1  0  0  0  0
  5 10  1  0  0  0  0
  5 26  1  0  0  0  0
  5 32  1  1  0  0  0
  6 12  1  0  0  0  0
  6 36  1  0  0  0  0
  6 19  1  1  0  0  0
  7  8  1  1  0  0  0
  7 14  1  0  0  0  0
  9 16  1  0  0  0  0
 10 11  1  6  0  0  0
 10 18  1  0  0  0  0
 12 13  1  1  0  0  0
 12 20  1  0  0  0  0
 14 15  1  1  0  0  0
 14 22  1  0  0  0  0
 16 17  1  1  0  0  0
 16 24  1  0  0  0  0
 18 19  1  1  0  0  0
 18 25  1  0  0  0  0
 20 21  1  1  0  0  0
 20 27  1  0  0  0  0
 22 23  1  1  0  0  0
 22 29  1  0  0  0  0
 24  2  1  1  0  0  0
 24 31  1  0  0  0  0
 25 26  1  0  0  0  0
 25 33  1  6  0  0  0
 27 28  1  1  0  0  0
 27 35  1  0  0  0  0
 29 30  1  0  0  0  0
 29 37  1  6  0  0  0
 31 32  1  6  0  0  0
 31 39  1  0  0  0  0
 33 34  1  0  0  0  0
 35 36  1  0  0  0  0
 35 41  1  1  0  0  0
 37 38  1  0  0  0  0
 39 40  1  6  0  0  0
 41 42  1  0  0  0  0
M  END
>  <CHROM.1>
178.93255345,-173.12300406,158.50952109,-146.74747791,-53.68292933,-143.88281032
-78.10762522,-73.69289826,-94.12548729,12.50114493,12.95537952,-9.79037073
-0.69827973,-1.23038963,-0.15520311

>  <Name>
ligand

>  <RI>
0

>  <Rbt.Current_Directory>
/home/itssahil/PROJECTS/Mol_Feturizer/Test_systems_manuscript/rnas/2o3w

>  <Rbt.Executable>
rbdock ($Id: //depot/dev/client3/rdock/2013.1/src/exe/rbdock.cxx#4 $)

>  <Rbt.Library>
libRbt.so (2013.1, Build901 2013/11/27)

>  <Rbt.Parameter_File>
/export/apps/rDock/src/rDock_2013.1_src/data/scripts/dock_solv.prm

>  <Rbt.Receptor>
prm/blind_docking_100.prm

>  <SCORE>
45.2514

>  <SCORE.INTER>
40.5194

>  <SCORE.INTER.CONST>
1

>  <SCORE.INTER.POLAR>
0

>  <SCORE.INTER.ROT>
9

>  <SCORE.INTER.SOLV>
41.4119

>  <SCORE.INTER.VDW>
3.60899

>  <SCORE.INTER.norm>
0.964748

>  <SCORE.INTRA>
0.0163509

>  <SCORE.INTRA.DIHEDRAL>
-12.1399

>  <SCORE.INTRA.DIHEDRAL.0>
27.8999

>  <SCORE.INTRA.POLAR>
0

>  <SCORE.INTRA.POLAR.0>
0

>  <SCORE.INTRA.REPUL>
0.225319

>  <SCORE.INTRA.REPUL.0>
0

>  <SCORE.INTRA.SOLV>
-1.19534

>  <SCORE.INTRA.SOLV.lig_0>
-104.479

>  <SCORE.INTRA.VDW>
5.55735

>  <SCORE.INTRA.VDW.0>
-6.17816

>  <SCORE.INTRA.norm>
0.000389307

>  <SCORE.RESTR>
4.71565

>  <SCORE.RESTR.CAVITY>
4.71565

>  <SCORE.RESTR.norm>
0.112277

>  <SCORE.SYSTEM>
0

>  <SCORE.SYSTEM.CONST>
0

>  <SCORE.SYSTEM.DIHEDRAL>
0

>  <SCORE.SYSTEM.SOLV>
0

>  <SCORE.SYSTEM.norm>
0

>  <SCORE.heavy>
42

>  <SCORE.norm>
1.07742

>  <RMSD>
17.939

$$$$
ligand
 OpenBabel02271912133D
libRbt.so/2013.1/901 2013/11/27
 42 45  0  0  0  0  0  0  0  0999 V2000
   12.9381   10.4641  -11.6308 C   0  0  2  0  0  0  0  0  0  0  0  0
   13.4440   11.7261  -12.0985 O   0  0  0  0  0  0  0  0  0  0  0  0
   11.9598   15.7978  -12.2206 C   0  0  2  0  0  0  0  0  0  0  0  0
   11.0729   16.9896  -12.3737 N   0  0  0  0  0  0  0  0  0  0  0  0
   11.7905   12.3739   -8.7448 C   0  0  1  0  0  0  0  0  0  0  0  0
   12.8331   12.1351   -5.7671 C   0  0  1  0  0  0  0  0  0  0  0  0
   13.9919    9.8920  -10.6357 C   0  0  2  0  0  0  0  0  0  0  0  0
   14.3982   10.8761   -9.6173 N   0  0  0  0  0  0  0  0  0  0  0  0
   12.1495   15.0428  -13.5975 C   0  0  0  0  0  0  0  0  0  0  0  0
   10.5343   12.7316   -7.8934 C   0  0  2  0  0  0  0  0  0  0  0  0
   10.4849   14.1159   -7.4687 O   0  0  0  0  0  0  0  0  0  0  0  0
   13.4431   10.7068   -5.5290 C   0  0  2  0  0  0  0  0  0  0  0  0
   13.0362   10.1684   -4.1965 N   0  0  0  0  0  0  0  0  0  0  0  0
   15.2776    9.4315  -11.3470 C   0  0  1  0  0  0  0  0  0  0  0  0
   16.1973    8.8790  -10.4036 O   0  0  0  0  0  0  0  0  0  0  0  0
   13.1092   13.8128  -13.3770 C   0  0  2  0  0  0  0  0  0  0  0  0
   13.3219   13.0863  -14.6579 N   0  0  0  0  0  0  0  0  0  0  0  0
   10.6320   11.6975   -6.7708 C   0  0  2  0  0  0  0  0  0  0  0  0
   11.4075   12.2044   -5.6384 O   0  0  0  0  0  0  0  0  0  0  0  0
   15.0383   10.7854   -5.6552 C   0  0  1  0  0  0  0  0  0  0  0  0
   15.3897   10.9385   -7.0488 O   0  0  0  0  0  0  0  0  0  0  0  0
   14.9189    8.4101  -12.4502 C   0  0  2  0  0  0  0  0  0  0  0  0
   16.0872    7.9659  -13.1000 O   0  0  0  0  0  0  0  0  0  0  0  0
   12.5095   12.8244  -12.3003 C   0  0  2  0  0  0  0  0  0  0  0  0
   11.2980   10.4581   -7.3921 C   0  0  2  0  0  0  0  0  0  0  0  0
   12.1455   11.0169   -8.3930 O   0  0  0  0  0  0  0  0  0  0  0  0
   15.6708   11.9893   -4.8077 C   0  0  2  0  0  0  0  0  0  0  0  0
   15.5190   11.6693   -3.4253 O   0  0  0  0  0  0  0  0  0  0  0  0
   13.9406    9.0827  -13.4701 C   0  0  2  0  0  0  0  0  0  0  0  0
   12.7413    9.5434  -12.7706 O   0  0  0  0  0  0  0  0  0  0  0  0
   12.2439   13.5087  -10.9414 C   0  0  2  0  0  0  0  0  0  0  0  0
   11.5336   12.5188  -10.1477 O   0  0  0  0  0  0  0  0  0  0  0  0
   10.3102    9.4197   -8.0087 C   0  0  0  0  0  0  0  0  0  0  0  0
   10.8733    8.8868   -9.2036 O   0  0  0  0  0  0  0  0  0  0  0  0
   14.9394   13.3453   -5.1371 C   0  0  1  0  0  0  0  0  0  0  0  0
   13.5131   13.1229   -4.8425 O   0  0  0  0  0  0  0  0  0  0  0  0
   13.5305    8.1486  -14.5850 C   0  0  0  0  0  0  0  0  0  0  0  0
   14.6511    7.7960  -15.3591 O   0  0  0  0  0  0  0  0  0  0  0  0
   11.3570   14.8077  -11.1450 C   0  0  1  0  0  0  0  0  0  0  0  0
   11.2383   15.5224   -9.9118 O   0  0  0  0  0  0  0  0  0  0  0  0
   15.4831   14.5913   -4.3123 C   0  0  0  0  0  0  0  0  0  0  0  0
   15.6369   15.8549   -5.0846 N   0  0  0  0  0  0  0  0  0  0  0  0
  1  2  1  6  0  0  0
  1  7  1  0  0  0  0
  1 30  1  0  0  0  0
  3  4  1  6  0  0  0
  3  9  1  0  0  0  0
  3 39  1  0  0  0  0
  5 10  1  0  0  0  0
  5 26  1  0  0  0  0
  5 32  1  6  0  0  0
  6 12  1  0  0  0  0
  6 36  1  0  0  0  0
  6 19  1  1  0  0  0
  7  8  1  1  0  0  0
  7 14  1  0  0  0  0
  9 16  1  0  0  0  0
 10 11  1  1  0  0  0
 10 18  1  0  0  0  0
 12 13  1  1  0  0  0
 12 20  1  0  0  0  0
 14 15  1  1  0  0  0
 14 22  1  0  0  0  0
 16 17  1  6  0  0  0
 16 24  1  0  0  0  0
 18 19  1  1  0  0  0
 18 25  1  0  0  0  0
 20 21  1  6  0  0  0
 20 27  1  0  0  0  0
 22 23  1  6  0  0  0
 22 29  1  0  0  0  0
 24  2  1  1  0  0  0
 24 31  1  0  0  0  0
 25 26  1  0  0  0  0
 25 33  1  6  0  0  0
 27 28  1  1  0  0  0
 27 35  1  0  0  0  0
 29 30  1  0  0  0  0
 29 37  1  6  0  0  0
 31 32  1  1  0  0  0
 31 39  1  0  0  0  0
 33 34  1  0  0  0  0
 35 36  1  0  0  0  0
 35 41  1  1  0  0  0
 37 38  1  0  0  0  0
 39 40  1  1  0  0  0
 41 42  1  0  0  0  0
M  END
>  <CHROM.1>
-141.81143660,-154.53174450,-80.91207471,-77.57217150,141.76466238,-64.00569732
141.82918707,115.75693901,138.30601666,13.16290118,11.73934799,-9.36501409
-1.59599025,-1.10760532,1.30437552

>  <Name>
ligand

>  <RI>
0

>  <Rbt.Current_Directory>
/home/itssahil/PROJECTS/Mol_Feturizer/Test_systems_manuscript/rnas/2o3w

>  <Rbt.Executable>
rbdock ($Id: //depot/dev/client3/rdock/2013.1/src/exe/rbdock.cxx#4 $)

>  <Rbt.Library>
libRbt.so (2013.1, Build901 2013/11/27)

>  <Rbt.Parameter_File>
/export/apps/rDock/src/rDock_2013.1_src/data/scripts/dock_solv.prm

>  <Rbt.Receptor>
prm/blind_docking_40.prm

>  <SCORE>
26.8856

>  <SCORE.INTER>
6.37611

>  <SCORE.INTER.CONST>
1

>  <SCORE.INTER.POLAR>
0

>  <SCORE.INTER.ROT>
9

>  <SCORE.INTER.SOLV>
32.0981

>  <SCORE.INTER.VDW>
-16.0486

>  <SCORE.INTER.norm>
0.151812

>  <SCORE.INTRA>
7.26474

>  <SCORE.INTRA.DIHEDRAL>
3.53692

>  <SCORE.INTRA.DIHEDRAL.0>
27.8999

>  <SCORE.INTRA.POLAR>
0

>  <SCORE.INTRA.POLAR.0>
0

>  <SCORE.INTRA.REPUL>
0.517592

>  <SCORE.INTRA.REPUL.0>
0

>  <SCORE.INTRA.SOLV>
1.11818

>  <SCORE.INTRA.SOLV.lig_0>
-104.479

>  <SCORE.INTRA.VDW>
2.34923

>  <SCORE.INTRA.VDW.0>
-6.17816

>  <SCORE.INTRA.norm>
0.17297

>  <SCORE.RESTR>
13.2448

>  <SCORE.RESTR.CAVITY>
13.2448

>  <SCORE.RESTR.norm>
0.315352

>  <SCORE.SYSTEM>
0

>  <SCORE.SYSTEM.CONST>
0

>  <SCORE.SYSTEM.DIHEDRAL>
0

>  <SCORE.SYSTEM.SOLV>
0

>  <SCORE.SYSTEM.norm>
0

>  <SCORE.heavy>
42

>  <SCORE.norm>
0.640134

>  <RMSD>
17.967

$$$$
ligand
 OpenBabel02271912133D
libRbt.so/2013.1/901 2013/11/27
 42 45  0  0  0  0  0  0  0  0999 V2000
   -5.2187    9.3616   11.2472 C   0  0  2  0  0  0  0  0  0  0  0  0
   -4.3544    8.2160   11.1584 O   0  0  0  0  0  0  0  0  0  0  0  0
   -7.1478    5.5480    9.1898 C   0  0  2  0  0  0  0  0  0  0  0  0
   -7.7785    4.3400    8.5788 N   0  0  0  0  0  0  0  0  0  0  0  0
   -4.9457    4.7952   12.8779 C   0  0  1  0  0  0  0  0  0  0  0  0
   -2.3872    1.4422   13.5916 C   0  0  1  0  0  0  0  0  0  0  0  0
   -4.3403   10.5587   11.7199 C   0  0  2  0  0  0  0  0  0  0  0  0
   -3.1080   10.7022   10.9253 N   0  0  0  0  0  0  0  0  0  0  0  0
   -5.8655    5.9977    8.3802 C   0  0  0  0  0  0  0  0  0  0  0  0
   -3.8098    4.4932   11.8535 C   0  0  2  0  0  0  0  0  0  0  0  0
   -4.2641    3.8293   10.6485 O   0  0  0  0  0  0  0  0  0  0  0  0
   -3.1758    1.0798   14.9014 C   0  0  2  0  0  0  0  0  0  0  0  0
   -3.6523    2.3135   15.5956 N   0  0  0  0  0  0  0  0  0  0  0  0
   -3.9073   10.4206   13.1911 C   0  0  1  0  0  0  0  0  0  0  0  0
   -3.1393   11.5565   13.5922 O   0  0  0  0  0  0  0  0  0  0  0  0
   -5.2598    7.2849    9.0574 C   0  0  2  0  0  0  0  0  0  0  0  0
   -4.0577    7.7450    8.3113 N   0  0  0  0  0  0  0  0  0  0  0  0
   -2.8324    3.6973   12.7198 C   0  0  2  0  0  0  0  0  0  0  0  0
   -3.1117    2.2620   12.6661 O   0  0  0  0  0  0  0  0  0  0  0  0
   -2.2352    0.2067   15.8604 C   0  0  1  0  0  0  0  0  0  0  0  0
   -2.1128   -1.1239   15.3095 O   0  0  0  0  0  0  0  0  0  0  0  0
   -5.1576   10.2415   14.0820 C   0  0  2  0  0  0  0  0  0  0  0  0
   -4.7792   10.1304   15.4343 O   0  0  0  0  0  0  0  0  0  0  0  0
   -4.8712    6.9929   10.5606 C   0  0  2  0  0  0  0  0  0  0  0  0
   -2.9908    4.2427   14.1490 C   0  0  2  0  0  0  0  0  0  0  0  0
   -4.3588    4.6418   14.1906 O   0  0  0  0  0  0  0  0  0  0  0  0
   -0.7775    0.8443   16.0503 C   0  0  2  0  0  0  0  0  0  0  0  0
   -0.9256    2.0365   16.8204 O   0  0  0  0  0  0  0  0  0  0  0  0
   -5.9360    8.9651   13.6188 C   0  0  2  0  0  0  0  0  0  0  0  0
   -6.3091    9.1004   12.2108 O   0  0  0  0  0  0  0  0  0  0  0  0
   -6.0663    6.4935   11.4019 C   0  0  2  0  0  0  0  0  0  0  0  0
   -5.4962    6.1042   12.6817 O   0  0  0  0  0  0  0  0  0  0  0  0
   -2.0478    5.4328   14.5076 C   0  0  0  0  0  0  0  0  0  0  0  0
   -2.4163    6.5734   13.7380 O   0  0  0  0  0  0  0  0  0  0  0  0
   -0.1290    1.1747   14.6530 C   0  0  1  0  0  0  0  0  0  0  0  0
   -1.0679    2.0817   13.9704 O   0  0  0  0  0  0  0  0  0  0  0  0
   -7.1829    8.7161   14.4354 C   0  0  0  0  0  0  0  0  0  0  0  0
   -7.9869    9.8704   14.4571 O   0  0  0  0  0  0  0  0  0  0  0  0
   -6.7564    5.2536   10.6934 C   0  0  1  0  0  0  0  0  0  0  0  0
   -7.9498    4.8877   11.3916 O   0  0  0  0  0  0  0  0  0  0  0  0
    1.3102    1.8441   14.7490 C   0  0  0  0  0  0  0  0  0  0  0  0
    2.3526    1.0306   15.4332 N   0  0  0  0  0  0  0  0  0  0  0  0
  1  2  1  1  0  0  0
  1  7  1  0  0  0  0
  1 30  1  0  0  0  0
  3  4  1  6  0  0  0
  3  9  1  0  0  0  0
  3 39  1  0  0  0  0
  5 10  1  0  0  0  0
  5 26  1  0  0  0  0
  5 32  1  6  0  0  0
  6 12  1  0  0  0  0
  6 36  1  0  0  0  0
  6 19  1  6  0  0  0
  7  8  1  6  0  0  0
  7 14  1  0  0  0  0
  9 16  1  0  0  0  0
 10 11  1  6  0  0  0
 10 18  1  0  0  0  0
 12 13  1  1  0  0  0
 12 20  1  0  0  0  0
 14 15  1  1  0  0  0
 14 22  1  0  0  0  0
 16 17  1  6  0  0  0
 16 24  1  0  0  0  0
 18 19  1  1  0  0  0
 18 25  1  0  0  0  0
 20 21  1  6  0  0  0
 20 27  1  0  0  0  0
 22 23  1  1  0  0  0
 22 29  1  0  0  0  0
 24  2  1  1  0  0  0
 24 31  1  0  0  0  0
 25 26  1  0  0  0  0
 25 33  1  6  0  0  0
 27 28  1  1  0  0  0
 27 35  1  0  0  0  0
 29 30  1  0  0  0  0
 29 37  1  1  0  0  0
 31 32  1  1  0  0  0
 31 39  1  0  0  0  0
 33 34  1  0  0  0  0
 35 36  1  0  0  0  0
 35 41  1  1  0  0  0
 37 38  1  0  0  0  0
 39 40  1  1  0  0  0
 41 42  1  0  0  0  0
M  END
>  <CHROM.1>
-171.59090741,61.83214854,-171.04096998,97.58587792,67.26163937,52.94830401
-85.64720682,57.37099123,60.18547301,-3.96318788,5.52191087,12.90366782,-2.38013666
0.86202977,-2.86345863

>  <Name>
ligand

>  <RI>
0

>  <Rbt.Current_Directory>
/home/itssahil/PROJECTS/Mol_Feturizer/Test_systems_manuscript/rnas/2o3w

>  <Rbt.Executable>
rbdock ($Id: //depot/dev/client3/rdock/2013.1/src/exe/rbdock.cxx#4 $)

>  <Rbt.Library>
libRbt.so (2013.1, Build901 2013/11/27)

>  <Rbt.Parameter_File>
/export/apps/rDock/src/rDock_2013.1_src/data/scripts/dock_solv.prm

>  <Rbt.Receptor>
prm/blind_docking_60.prm

>  <SCORE>
24.3591

>  <SCORE.INTER>
10.0378

>  <SCORE.INTER.CONST>
1

>  <SCORE.INTER.POLAR>
0

>  <SCORE.INTER.ROT>
9

>  <SCORE.INTER.SOLV>
27.2299

>  <SCORE.INTER.VDW>
-11.9847

>  <SCORE.INTER.norm>
0.238996

>  <SCORE.INTRA>
-1.61552

>  <SCORE.INTRA.DIHEDRAL>
-18.9182

>  <SCORE.INTRA.DIHEDRAL.0>
27.8999

>  <SCORE.INTRA.POLAR>
0

>  <SCORE.INTRA.POLAR.0>
0

>  <SCORE.INTRA.REPUL>
0.500282

>  <SCORE.INTRA.REPUL.0>
0

>  <SCORE.INTRA.SOLV>
1.07887

>  <SCORE.INTRA.SOLV.lig_0>
-104.479

>  <SCORE.INTRA.VDW>
4.80272

>  <SCORE.INTRA.VDW.0>
-6.17816

>  <SCORE.INTRA.norm>
-0.0384647

>  <SCORE.RESTR>
15.9368

>  <SCORE.RESTR.CAVITY>
15.9368

>  <SCORE.RESTR.norm>
0.379448

>  <SCORE.SYSTEM>
0

>  <SCORE.SYSTEM.CONST>
0

>  <SCORE.SYSTEM.DIHEDRAL>
0

>  <SCORE.SYSTEM.SOLV>
0

>  <SCORE.SYSTEM.norm>
0

>  <SCORE.heavy>
42

>  <SCORE.norm>
0.579979

>  <RMSD>
17.968

$$$$
ligand
 OpenBabel02271912133D
libRbt.so/2013.1/901 2013/11/27
 42 45  0  0  0  0  0  0  0  0999 V2000
   14.3980    9.6491  -10.0960 C   0  0  2  0  0  0  0  0  0  0  0  0
   14.1143   11.0095   -9.7271 O   0  0  0  0  0  0  0  0  0  0  0  0
   11.0553   10.1741   -6.7705 C   0  0  2  0  0  0  0  0  0  0  0  0
    9.9622   10.3292   -5.7649 N   0  0  0  0  0  0  0  0  0  0  0  0
   11.7294   12.8969  -10.4699 C   0  0  1  0  0  0  0  0  0  0  0  0
   10.7932   16.7552  -11.6497 C   0  0  1  0  0  0  0  0  0  0  0  0
   15.3329    9.7009  -11.3415 C   0  0  2  0  0  0  0  0  0  0  0  0
   16.4824   10.6017  -11.1466 N   0  0  0  0  0  0  0  0  0  0  0  0
   12.3947   10.8515   -6.2715 C   0  0  0  0  0  0  0  0  0  0  0  0
   10.4823   13.7656  -10.8176 C   0  0  2  0  0  0  0  0  0  0  0  0
   10.3247   14.0303  -12.2332 O   0  0  0  0  0  0  0  0  0  0  0  0
   11.6330   17.8980  -12.3261 C   0  0  2  0  0  0  0  0  0  0  0  0
   12.1705   18.8428  -11.3016 N   0  0  0  0  0  0  0  0  0  0  0  0
   14.5974   10.1855  -12.6045 C   0  0  1  0  0  0  0  0  0  0  0  0
   15.4804   10.1794  -13.7275 O   0  0  0  0  0  0  0  0  0  0  0  0
   13.5124   10.6357   -7.3609 C   0  0  2  0  0  0  0  0  0  0  0  0
   14.7931   11.2491   -6.9168 N   0  0  0  0  0  0  0  0  0  0  0  0
   10.7206   14.9932   -9.9369 C   0  0  2  0  0  0  0  0  0  0  0  0
   11.4932   16.0179  -10.6398 O   0  0  0  0  0  0  0  0  0  0  0  0
   10.7175   18.6661  -13.3932 C   0  0  1  0  0  0  0  0  0  0  0  0
   10.5381   17.8190  -14.5504 O   0  0  0  0  0  0  0  0  0  0  0  0
   13.3600    9.2936  -12.8546 C   0  0  2  0  0  0  0  0  0  0  0  0
   12.6848    9.7139  -14.0173 O   0  0  0  0  0  0  0  0  0  0  0  0
   13.0735   11.2659   -8.7415 C   0  0  2  0  0  0  0  0  0  0  0  0
   11.4704   14.4848   -8.6940 C   0  0  2  0  0  0  0  0  0  0  0  0
   12.2210   13.3835   -9.2000 O   0  0  0  0  0  0  0  0  0  0  0  0
    9.2858   19.0773  -12.8028 C   0  0  2  0  0  0  0  0  0  0  0  0
    9.4978   20.1023  -11.8329 O   0  0  0  0  0  0  0  0  0  0  0  0
   12.4157    9.3694  -11.6088 C   0  0  2  0  0  0  0  0  0  0  0  0
   13.1416    8.9379  -10.4144 O   0  0  0  0  0  0  0  0  0  0  0  0
   11.7391   10.6908   -9.2650 C   0  0  2  0  0  0  0  0  0  0  0  0
   11.4021   11.5019  -10.4239 O   0  0  0  0  0  0  0  0  0  0  0  0
   10.5567   14.0440   -7.5086 C   0  0  0  0  0  0  0  0  0  0  0  0
   11.3598   13.8187   -6.3541 O   0  0  0  0  0  0  0  0  0  0  0  0
    8.5810   17.8349  -12.1379 C   0  0  1  0  0  0  0  0  0  0  0  0
    9.5085   17.3430  -11.1045 O   0  0  0  0  0  0  0  0  0  0  0  0
   11.1772    8.5178  -11.7652 C   0  0  0  0  0  0  0  0  0  0  0  0
   10.2280    9.1841  -12.5618 O   0  0  0  0  0  0  0  0  0  0  0  0
   10.6162   10.8080   -8.1511 C   0  0  1  0  0  0  0  0  0  0  0  0
    9.4254   10.1409   -8.5787 O   0  0  0  0  0  0  0  0  0  0  0  0
    7.1642   18.1618  -11.4943 C   0  0  0  0  0  0  0  0  0  0  0  0
    7.1978   18.9684  -10.2434 N   0  0  0  0  0  0  0  0  0  0  0  0
  1  2  1  6  0  0  0
  1  7  1  0  0  0  0
  1 30  1  0  0  0  0
  3  4  1  1  0  0  0
  3  9  1  0  0  0  0
  3 39  1  0  0  0  0
  5 10  1  0  0  0  0
  5 26  1  0  0  0  0
  5 32  1  1  0  0  0
  6 12  1  0  0  0  0
  6 36  1  0  0  0  0
  6 19  1  1  0  0  0
  7  8  1  1  0  0  0
  7 14  1  0  0  0  0
  9 16  1  0  0  0  0
 10 11  1  6  0  0  0
 10 18  1  0  0  0  0
 12 13  1  1  0  0  0
 12 20  1  0  0  0  0
 14 15  1  6  0  0  0
 14 22  1  0  0  0  0
 16 17  1  1  0  0  0
 16 24  1  0  0  0  0
 18 19  1  6  0  0  0
 18 25  1  0  0  0  0
 20 21  1  6  0  0  0
 20 27  1  0  0  0  0
 22 23  1  6  0  0  0
 22 29  1  0  0  0  0
 24  2  1  6  0  0  0
 24 31  1  0  0  0  0
 25 26  1  0  0  0  0
 25 33  1  1  0  0  0
 27 28  1  1  0  0  0
 27 35  1  0  0  0  0
 29 30  1  0  0  0  0
 29 37  1  6  0  0  0
 31 32  1  6  0  0  0
 31 39  1  0  0  0  0
 33 34  1  0  0  0  0
 35 36  1  0  0  0  0
 35 41  1  1  0  0  0
 37 38  1  0  0  0  0
 39 40  1  6  0  0  0
 41 42  1  0  0  0  0
M  END
>  <CHROM.1>
169.18277265,64.03248385,73.92580612,176.80942067,-170.04587506,-79.80560495
-34.17480561,-127.45818670,-71.71870097,11.62636556,13.16364591,-10.47365678
-0.74146101,1.03035856,-0.96464135

>  <Name>
ligand

>  <RI>
0

>  <Rbt.Current_Directory>
/home/itssahil/PROJECTS/Mol_Feturizer/Test_systems_manuscript/rnas/2o3w

>  <Rbt.Executable>
rbdock ($Id: //depot/dev/client3/rdock/2013.1/src/exe/rbdock.cxx#4 $)

>  <Rbt.Library>
libRbt.so (2013.1, Build901 2013/11/27)

>  <Rbt.Parameter_File>
/export/apps/rDock/src/rDock_2013.1_src/data/scripts/dock_solv.prm

>  <Rbt.Receptor>
prm/blind_docking_40.prm

>  <SCORE>
27.7107

>  <SCORE.INTER>
8.77463

>  <SCORE.INTER.CONST>
1

>  <SCORE.INTER.POLAR>
0

>  <SCORE.INTER.ROT>
9

>  <SCORE.INTER.SOLV>
34.5561

>  <SCORE.INTER.VDW>
-15.2689

>  <SCORE.INTER.norm>
0.20892

>  <SCORE.INTRA>
3.82683

>  <SCORE.INTRA.DIHEDRAL>
-14.3094

>  <SCORE.INTRA.DIHEDRAL.0>
27.8999

>  <SCORE.INTRA.POLAR>
0

>  <SCORE.INTRA.POLAR.0>
0

>  <SCORE.INTRA.REPUL>
0

>  <SCORE.INTRA.REPUL.0>
0

>  <SCORE.INTRA.SOLV>
-1.29841

>  <SCORE.INTRA.SOLV.lig_0>
-104.479

>  <SCORE.INTRA.VDW>
11.6307

>  <SCORE.INTRA.VDW.0>
-6.17816

>  <SCORE.INTRA.norm>
0.0911151

>  <SCORE.RESTR>
15.1093

>  <SCORE.RESTR.CAVITY>
15.1093

>  <SCORE.RESTR.norm>
0.359744

>  <SCORE.SYSTEM>
0

>  <SCORE.SYSTEM.CONST>
0

>  <SCORE.SYSTEM.DIHEDRAL>
0

>  <SCORE.SYSTEM.SOLV>
0

>  <SCORE.SYSTEM.norm>
0

>  <SCORE.heavy>
42

>  <SCORE.norm>
0.659779

>  <RMSD>
17.972

$$$$
ligand
 OpenBabel02271912133D
libRbt.so/2013.1/901 2013/11/27
 42 45  0  0  0  0  0  0  0  0999 V2000
   12.3729   13.2176   -7.5771 C   0  0  2  0  0  0  0  0  0  0  0  0
   13.1891   12.7148   -8.6487 O   0  0  0  0  0  0  0  0  0  0  0  0
   12.7658   10.6982  -12.4631 C   0  0  2  0  0  0  0  0  0  0  0  0
   12.1967   10.1284  -13.7209 N   0  0  0  0  0  0  0  0  0  0  0  0
   11.1691   14.5855  -11.1102 C   0  0  1  0  0  0  0  0  0  0  0  0
    7.5943   17.1951  -10.8019 C   0  0  1  0  0  0  0  0  0  0  0  0
   13.3404   13.6785   -6.4458 C   0  0  2  0  0  0  0  0  0  0  0  0
   14.4148   14.5544   -6.9449 N   0  0  0  0  0  0  0  0  0  0  0  0
   12.1575    9.9906  -11.1859 C   0  0  0  0  0  0  0  0  0  0  0  0
   10.8238   16.0130  -10.5867 C   0  0  2  0  0  0  0  0  0  0  0  0
   10.3815   16.0437   -9.2074 O   0  0  0  0  0  0  0  0  0  0  0  0
    8.0909   17.9475   -9.5150 C   0  0  2  0  0  0  0  0  0  0  0  0
    8.2802   16.9952   -8.3800 N   0  0  0  0  0  0  0  0  0  0  0  0
   14.0248   12.4917   -5.7428 C   0  0  1  0  0  0  0  0  0  0  0  0
   14.8700   12.9577   -4.6896 O   0  0  0  0  0  0  0  0  0  0  0  0
   12.8107   10.6168   -9.8960 C   0  0  2  0  0  0  0  0  0  0  0  0
   12.2710    9.9631   -8.6733 N   0  0  0  0  0  0  0  0  0  0  0  0
    9.7948   16.4684  -11.6225 C   0  0  2  0  0  0  0  0  0  0  0  0
    8.4336   16.1120  -11.2214 O   0  0  0  0  0  0  0  0  0  0  0  0
    7.0394   19.0948   -9.1344 C   0  0  1  0  0  0  0  0  0  0  0  0
    7.1693   20.1800  -10.0801 O   0  0  0  0  0  0  0  0  0  0  0  0
   12.9492   11.5160   -5.2135 C   0  0  2  0  0  0  0  0  0  0  0  0
   13.5592   10.4320   -4.5523 O   0  0  0  0  0  0  0  0  0  0  0  0
   12.5361   12.1712   -9.8312 C   0  0  2  0  0  0  0  0  0  0  0  0
   10.1857   15.7793  -12.9407 C   0  0  2  0  0  0  0  0  0  0  0  0
   10.7766   14.5583  -12.5017 O   0  0  0  0  0  0  0  0  0  0  0  0
    5.5249   18.5717   -9.1236 C   0  0  2  0  0  0  0  0  0  0  0  0
    5.3823   17.6874   -8.0127 O   0  0  0  0  0  0  0  0  0  0  0  0
   12.0805   11.0133   -6.4145 C   0  0  2  0  0  0  0  0  0  0  0  0
   11.4663   12.1564   -7.0897 O   0  0  0  0  0  0  0  0  0  0  0  0
   13.0544   12.9233  -11.0766 C   0  0  2  0  0  0  0  0  0  0  0  0
   12.5594   14.2833  -10.9350 O   0  0  0  0  0  0  0  0  0  0  0  0
   11.1715   16.5886  -13.8393 C   0  0  0  0  0  0  0  0  0  0  0  0
   10.6041   17.8620  -14.1317 O   0  0  0  0  0  0  0  0  0  0  0  0
    5.1870   17.8196  -10.4661 C   0  0  1  0  0  0  0  0  0  0  0  0
    6.1703   16.7289  -10.5827 O   0  0  0  0  0  0  0  0  0  0  0  0
   10.9940   10.0547   -5.9851 C   0  0  0  0  0  0  0  0  0  0  0  0
   10.3674    9.4951   -7.1136 O   0  0  0  0  0  0  0  0  0  0  0  0
   12.4876   12.2535  -12.3978 C   0  0  1  0  0  0  0  0  0  0  0  0
   13.0856   12.8527  -13.5506 O   0  0  0  0  0  0  0  0  0  0  0  0
    3.7091   17.2361  -10.5273 C   0  0  0  0  0  0  0  0  0  0  0  0
    3.3223   16.3473   -9.3972 N   0  0  0  0  0  0  0  0  0  0  0  0
  1  2  1  6  0  0  0
  1  7  1  0  0  0  0
  1 30  1  0  0  0  0
  3  4  1  6  0  0  0
  3  9  1  0  0  0  0
  3 39  1  0  0  0  0
  5 10  1  0  0  0  0
  5 26  1  0  0  0  0
  5 32  1  6  0  0  0
  6 12  1  0  0  0  0
  6 36  1  0  0  0  0
  6 19  1  1  0  0  0
  7  8  1  6  0  0  0
  7 14  1  0  0  0  0
  9 16  1  0  0  0  0
 10 11  1  1  0  0  0
 10 18  1  0  0  0  0
 12 13  1  1  0  0  0
 12 20  1  0  0  0  0
 14 15  1  1  0  0  0
 14 22  1  0  0  0  0
 16 17  1  1  0  0  0
 16 24  1  0  0  0  0
 18 19  1  1  0  0  0
 18 25  1  0  0  0  0
 20 21  1  6  0  0  0
 20 27  1  0  0  0  0
 22 23  1  6  0  0  0
 22 29  1  0  0  0  0
 24  2  1  1  0  0  0
 24 31  1  0  0  0  0
 25 26  1  0  0  0  0
 25 33  1  1  0  0  0
 27 28  1  1  0  0  0
 27 35  1  0  0  0  0
 29 30  1  0  0  0  0
 29 37  1  1  0  0  0
 31 32  1  1  0  0  0
 31 39  1  0  0  0  0
 33 34  1  0  0  0  0
 35 36  1  0  0  0  0
 35 41  1  1  0  0  0
 37 38  1  0  0  0  0
 39 40  1  6  0  0  0
 41 42  1  0  0  0  0
M  END
>  <CHROM.1>
178.02167333,-112.53776114,108.05810723,-63.04473482,-57.07203899,-171.91019910
-71.70134515,166.52479700,-54.21819825,10.48117774,14.29430108,-9.59628329
0.41762553,-0.73743069,1.76858705

>  <Name>
ligand

>  <RI>
0

>  <Rbt.Current_Directory>
/home/itssahil/PROJECTS/Mol_Feturizer/Test_systems_manuscript/rnas/2o3w

>  <Rbt.Executable>
rbdock ($Id: //depot/dev/client3/rdock/2013.1/src/exe/rbdock.cxx#4 $)

>  <Rbt.Library>
libRbt.so (2013.1, Build901 2013/11/27)

>  <Rbt.Parameter_File>
/export/apps/rDock/src/rDock_2013.1_src/data/scripts/dock_solv.prm

>  <Rbt.Receptor>
prm/blind_docking_100.prm

>  <SCORE>
3.54542

>  <SCORE.INTER>
-2.83061

>  <SCORE.INTER.CONST>
1

>  <SCORE.INTER.POLAR>
0

>  <SCORE.INTER.ROT>
9

>  <SCORE.INTER.SOLV>
27.4485

>  <SCORE.INTER.VDW>
-20.6366

>  <SCORE.INTER.norm>
-0.0673956

>  <SCORE.INTRA>
0.0930777

>  <SCORE.INTRA.DIHEDRAL>
-12.4268

>  <SCORE.INTRA.DIHEDRAL.0>
27.8999

>  <SCORE.INTRA.POLAR>
0

>  <SCORE.INTRA.POLAR.0>
0

>  <SCORE.INTRA.REPUL>
0

>  <SCORE.INTRA.REPUL.0>
0

>  <SCORE.INTRA.SOLV>
2.82425

>  <SCORE.INTRA.SOLV.lig_0>
-104.479

>  <SCORE.INTRA.VDW>
4.89436

>  <SCORE.INTRA.VDW.0>
-6.17816

>  <SCORE.INTRA.norm>
0.00221614

>  <SCORE.RESTR>
6.28296

>  <SCORE.RESTR.CAVITY>
6.28296

>  <SCORE.RESTR.norm>
0.149594

>  <SCORE.SYSTEM>
0

>  <SCORE.SYSTEM.CONST>
0

>  <SCORE.SYSTEM.DIHEDRAL>
0

>  <SCORE.SYSTEM.SOLV>
0

>  <SCORE.SYSTEM.norm>
0

>  <SCORE.heavy>
42

>  <SCORE.norm>
0.0844148

>  <RMSD>
17.980

$$$$
ligand
 OpenBabel02271912133D
libRbt.so/2013.1/901 2013/11/27
 42 45  0  0  0  0  0  0  0  0999 V2000
   12.5747   10.9112   -7.0900 C   0  0  2  0  0  0  0  0  0  0  0  0
   13.1424   11.2320   -8.3714 O   0  0  0  0  0  0  0  0  0  0  0  0
   12.1786    8.4229  -11.5299 C   0  0  2  0  0  0  0  0  0  0  0  0
   11.6026    7.7995  -12.7587 N   0  0  0  0  0  0  0  0  0  0  0  0
   13.2793   12.6842  -11.7852 C   0  0  1  0  0  0  0  0  0  0  0  0
   10.5897   15.4878  -13.2409 C   0  0  1  0  0  0  0  0  0  0  0  0
   11.7387   12.1469   -6.6403 C   0  0  2  0  0  0  0  0  0  0  0  0
   10.8166   12.6157   -7.6894 N   0  0  0  0  0  0  0  0  0  0  0  0
   11.0505    8.7553  -10.4721 C   0  0  0  0  0  0  0  0  0  0  0  0
   11.8009   12.1982  -11.8793 C   0  0  2  0  0  0  0  0  0  0  0  0
   11.5267   11.3652  -13.0326 O   0  0  0  0  0  0  0  0  0  0  0  0
   11.8335   16.3484  -13.6666 C   0  0  2  0  0  0  0  0  0  0  0  0
   12.9945   16.0914  -12.7629 N   0  0  0  0  0  0  0  0  0  0  0  0
   12.6267   13.3462   -6.2604 C   0  0  1  0  0  0  0  0  0  0  0  0
   11.8219   14.4404   -5.8176 O   0  0  0  0  0  0  0  0  0  0  0  0
   11.7201    9.3876   -9.1937 C   0  0  2  0  0  0  0  0  0  0  0  0
   10.6871    9.7001   -8.1696 N   0  0  0  0  0  0  0  0  0  0  0  0
   11.0472   13.5281  -11.8288 C   0  0  2  0  0  0  0  0  0  0  0  0
   10.8360   14.0780  -13.1681 O   0  0  0  0  0  0  0  0  0  0  0  0
   11.4309   17.8992  -13.6594 C   0  0  1  0  0  0  0  0  0  0  0  0
   10.5846   18.1675  -14.7999 O   0  0  0  0  0  0  0  0  0  0  0  0
   13.6391   12.9147   -5.1750 C   0  0  2  0  0  0  0  0  0  0  0  0
   14.4488   14.0061   -4.8039 O   0  0  0  0  0  0  0  0  0  0  0  0
   12.5079   10.7040   -9.5710 C   0  0  2  0  0  0  0  0  0  0  0  0
   11.9062   14.4704  -10.9687 C   0  0  2  0  0  0  0  0  0  0  0  0
   13.2333   14.0148  -11.2209 O   0  0  0  0  0  0  0  0  0  0  0  0
   10.6758   18.3395  -12.3164 C   0  0  2  0  0  0  0  0  0  0  0  0
   11.6270   18.2966  -11.2535 O   0  0  0  0  0  0  0  0  0  0  0  0
   14.5132   11.7410   -5.7299 C   0  0  2  0  0  0  0  0  0  0  0  0
   13.6501   10.6250   -6.1166 O   0  0  0  0  0  0  0  0  0  0  0  0
   13.5923   10.4661  -10.6446 C   0  0  2  0  0  0  0  0  0  0  0  0
   14.0773   11.7907  -10.9977 O   0  0  0  0  0  0  0  0  0  0  0  0
   11.5845   14.4444   -9.4422 C   0  0  0  0  0  0  0  0  0  0  0  0
   12.7292   13.9882   -8.7279 O   0  0  0  0  0  0  0  0  0  0  0  0
    9.4729   17.3690  -12.0113 C   0  0  1  0  0  0  0  0  0  0  0  0
   10.0497   16.0159  -11.9284 O   0  0  0  0  0  0  0  0  0  0  0  0
   15.5313   11.2497   -4.7269 C   0  0  0  0  0  0  0  0  0  0  0  0
   16.0236    9.9897   -5.1133 O   0  0  0  0  0  0  0  0  0  0  0  0
   12.9641    9.7421  -11.9083 C   0  0  1  0  0  0  0  0  0  0  0  0
   13.9934    9.3865  -12.8355 O   0  0  0  0  0  0  0  0  0  0  0  0
    8.6859   17.7138  -10.6733 C   0  0  0  0  0  0  0  0  0  0  0  0
    8.0070   19.0387  -10.6508 N   0  0  0  0  0  0  0  0  0  0  0  0
  1  2  1  6  0  0  0
  1  7  1  0  0  0  0
  1 30  1  0  0  0  0
  3  4  1  6  0  0  0
  3  9  1  0  0  0  0
  3 39  1  0  0  0  0
  5 10  1  0  0  0  0
  5 26  1  0  0  0  0
  5 32  1  1  0  0  0
  6 12  1  0  0  0  0
  6 36  1  0  0  0  0
  6 19  1  1  0  0  0
  7  8  1  6  0  0  0
  7 14  1  0  0  0  0
  9 16  1  0  0  0  0
 10 11  1  6  0  0  0
 10 18  1  0  0  0  0
 12 13  1  1  0  0  0
 12 20  1  0  0  0  0
 14 15  1  1  0  0  0
 14 22  1  0  0  0  0
 16 17  1  1  0  0  0
 16 24  1  0  0  0  0
 18 19  1  6  0  0  0
 18 25  1  0  0  0  0
 20 21  1  6  0  0  0
 20 27  1  0  0  0  0
 22 23  1  6  0  0  0
 22 29  1  0  0  0  0
 24  2  1  1  0  0  0
 24 31  1  0  0  0  0
 25 26  1  0  0  0  0
 25 33  1  1  0  0  0
 27 28  1  1  0  0  0
 27 35  1  0  0  0  0
 29 30  1  0  0  0  0
 29 37  1  1  0  0  0
 31 32  1  6  0  0  0
 31 39  1  0  0  0  0
 33 34  1  0  0  0  0
 35 36  1  0  0  0  0
 35 41  1  1  0  0  0
 37 38  1  0  0  0  0
 39 40  1  6  0  0  0
 41 42  1  0  0  0  0
M  END
>  <CHROM.1>
-100.37166100,-25.16578352,-158.45854051,101.01420780,117.39260762,163.75007823
-73.09697854,13.67954840,63.09783111,12.14143101,13.17822014,-10.00020747
-0.07708787,-1.22483956,0.78530757

>  <Name>
ligand

>  <RI>
0

>  <Rbt.Current_Directory>
/home/itssahil/PROJECTS/Mol_Feturizer/Test_systems_manuscript/rnas/2o3w

>  <Rbt.Executable>
rbdock ($Id: //depot/dev/client3/rdock/2013.1/src/exe/rbdock.cxx#4 $)

>  <Rbt.Library>
libRbt.so (2013.1, Build901 2013/11/27)

>  <Rbt.Parameter_File>
/export/apps/rDock/src/rDock_2013.1_src/data/scripts/dock_solv.prm

>  <Rbt.Receptor>
prm/blind_docking_40.prm

>  <SCORE>
27.9764

>  <SCORE.INTER>
-1.29988

>  <SCORE.INTER.CONST>
1

>  <SCORE.INTER.POLAR>
0

>  <SCORE.INTER.ROT>
9

>  <SCORE.INTER.SOLV>
29.6147

>  <SCORE.INTER.VDW>
-20.3381

>  <SCORE.INTER.norm>
-0.0309494

>  <SCORE.INTRA>
23.4648

>  <SCORE.INTRA.DIHEDRAL>
2.93055

>  <SCORE.INTRA.DIHEDRAL.0>
27.8999

>  <SCORE.INTRA.POLAR>
0

>  <SCORE.INTRA.POLAR.0>
0

>  <SCORE.INTRA.REPUL>
0

>  <SCORE.INTRA.REPUL.0>
0

>  <SCORE.INTRA.SOLV>
9.22221

>  <SCORE.INTRA.SOLV.lig_0>
-104.479

>  <SCORE.INTRA.VDW>
17.3884

>  <SCORE.INTRA.VDW.0>
-6.17816

>  <SCORE.INTRA.norm>
0.558686

>  <SCORE.RESTR>
5.81147

>  <SCORE.RESTR.CAVITY>
5.81147

>  <SCORE.RESTR.norm>
0.138368

>  <SCORE.SYSTEM>
0

>  <SCORE.SYSTEM.CONST>
0

>  <SCORE.SYSTEM.DIHEDRAL>
0

>  <SCORE.SYSTEM.SOLV>
0

>  <SCORE.SYSTEM.norm>
0

>  <SCORE.heavy>
42

>  <SCORE.norm>
0.666104

>  <RMSD>
17.989

$$$$
ligand
 OpenBabel02271912133D
libRbt.so/2013.1/901 2013/11/27
 42 45  0  0  0  0  0  0  0  0999 V2000
   11.7053   11.1350  -10.0893 C   0  0  2  0  0  0  0  0  0  0  0  0
   11.9680   10.6558   -8.7594 O   0  0  0  0  0  0  0  0  0  0  0  0
   13.2170   13.1472   -5.4384 C   0  0  2  0  0  0  0  0  0  0  0  0
   14.0367   13.9795   -4.5079 N   0  0  0  0  0  0  0  0  0  0  0  0
   11.8053   14.2166   -9.9990 C   0  0  1  0  0  0  0  0  0  0  0  0
   10.3325   16.2614  -11.7588 C   0  0  1  0  0  0  0  0  0  0  0  0
   10.9224   10.0107  -10.8317 C   0  0  2  0  0  0  0  0  0  0  0  0
    9.7741    9.5149  -10.0532 N   0  0  0  0  0  0  0  0  0  0  0  0
   13.7217   11.6484   -5.4636 C   0  0  0  0  0  0  0  0  0  0  0  0
   10.5332   13.4543  -10.4802 C   0  0  2  0  0  0  0  0  0  0  0  0
   10.6369   12.9250  -11.8249 O   0  0  0  0  0  0  0  0  0  0  0  0
    9.9102   17.7748  -11.7571 C   0  0  2  0  0  0  0  0  0  0  0  0
    8.7691   18.0112  -12.6914 N   0  0  0  0  0  0  0  0  0  0  0  0
   11.8080    8.7904  -11.1441 C   0  0  1  0  0  0  0  0  0  0  0  0
   11.0614    7.8037  -11.8582 O   0  0  0  0  0  0  0  0  0  0  0  0
   12.8072   10.8184   -6.4421 C   0  0  2  0  0  0  0  0  0  0  0  0
   13.2454    9.3971   -6.4792 N   0  0  0  0  0  0  0  0  0  0  0  0
    9.4528   14.5158  -10.2679 C   0  0  2  0  0  0  0  0  0  0  0  0
    9.2719   15.3454  -11.4595 O   0  0  0  0  0  0  0  0  0  0  0  0
   11.1739   18.6768  -12.1524 C   0  0  1  0  0  0  0  0  0  0  0  0
   12.0918   18.7097  -11.0364 O   0  0  0  0  0  0  0  0  0  0  0  0
   13.0503    9.2459  -11.9431 C   0  0  2  0  0  0  0  0  0  0  0  0
   13.8632    8.1376  -12.2516 O   0  0  0  0  0  0  0  0  0  0  0  0
   12.8553   11.4262   -7.8995 C   0  0  2  0  0  0  0  0  0  0  0  0
    9.9156   15.3584   -9.0673 C   0  0  2  0  0  0  0  0  0  0  0  0
   11.3368   15.2991   -9.1624 O   0  0  0  0  0  0  0  0  0  0  0  0
   11.9355   18.1429  -13.4572 C   0  0  2  0  0  0  0  0  0  0  0  0
   11.0785   18.3632  -14.5767 O   0  0  0  0  0  0  0  0  0  0  0  0
   13.8447   10.2960  -11.0971 C   0  0  2  0  0  0  0  0  0  0  0  0
   12.9775   11.4311  -10.7818 O   0  0  0  0  0  0  0  0  0  0  0  0
   12.4281   12.9097   -7.9441 C   0  0  2  0  0  0  0  0  0  0  0  0
   12.7073   13.3469   -9.3025 O   0  0  0  0  0  0  0  0  0  0  0  0
    9.4243   14.8487   -7.6770 C   0  0  0  0  0  0  0  0  0  0  0  0
   10.3034   15.3265   -6.6632 O   0  0  0  0  0  0  0  0  0  0  0  0
   12.2677   16.6091  -13.3182 C   0  0  1  0  0  0  0  0  0  0  0  0
   10.9805   15.9309  -13.0869 O   0  0  0  0  0  0  0  0  0  0  0  0
   15.0779   10.8028  -11.8084 C   0  0  0  0  0  0  0  0  0  0  0  0
   15.4512   12.0589  -11.2964 O   0  0  0  0  0  0  0  0  0  0  0  0
   13.2685   13.7547   -6.8975 C   0  0  1  0  0  0  0  0  0  0  0  0
   12.7703   15.0937   -6.8308 O   0  0  0  0  0  0  0  0  0  0  0  0
   12.9966   15.9868  -14.5871 C   0  0  0  0  0  0  0  0  0  0  0  0
   12.2884   16.1625  -15.8849 N   0  0  0  0  0  0  0  0  0  0  0  0
  1  2  1  1  0  0  0
  1  7  1  0  0  0  0
  1 30  1  0  0  0  0
  3  4  1  1  0  0  0
  3  9  1  0  0  0  0
  3 39  1  0  0  0  0
  5 10  1  0  0  0  0
  5 26  1  0  0  0  0
  5 32  1  1  0  0  0
  6 12  1  0  0  0  0
  6 36  1  0  0  0  0
  6 19  1  6  0  0  0
  7  8  1  1  0  0  0
  7 14  1  0  0  0  0
  9 16  1  0  0  0  0
 10 11  1  6  0  0  0
 10 18  1  0  0  0  0
 12 13  1  6  0  0  0
 12 20  1  0  0  0  0
 14 15  1  6  0  0  0
 14 22  1  0  0  0  0
 16 17  1  6  0  0  0
 16 24  1  0  0  0  0
 18 19  1  6  0  0  0
 18 25  1  0  0  0  0
 20 21  1  1  0  0  0
 20 27  1  0  0  0  0
 22 23  1  1  0  0  0
 22 29  1  0  0  0  0
 24  2  1  6  0  0  0
 24 31  1  0  0  0  0
 25 26  1  0  0  0  0
 25 33  1  1  0  0  0
 27 28  1  6  0  0  0
 27 35  1  0  0  0  0
 29 30  1  0  0  0  0
 29 37  1  6  0  0  0
 31 32  1  6  0  0  0
 31 39  1  0  0  0  0
 33 34  1  0  0  0  0
 35 36  1  0  0  0  0
 35 41  1  6  0  0  0
 37 38  1  0  0  0  0
 39 40  1  1  0  0  0
 41 42  1  0  0  0  0
M  END
>  <CHROM.1>
171.29773418,171.53759907,-71.09872870,-118.93372190,156.65562746,157.04286623
140.21846522,-75.14433403,-55.41241398,11.88732807,13.51224883,-10.26144533
-0.29923438,1.32844437,-1.78840826

>  <Name>
ligand

>  <RI>
0

>  <Rbt.Current_Directory>
/home/itssahil/PROJECTS/Mol_Feturizer/Test_systems_manuscript/rnas/2o3w

>  <Rbt.Executable>
rbdock ($Id: //depot/dev/client3/rdock/2013.1/src/exe/rbdock.cxx#4 $)

>  <Rbt.Library>
libRbt.so (2013.1, Build901 2013/11/27)

>  <Rbt.Parameter_File>
/export/apps/rDock/src/rDock_2013.1_src/data/scripts/dock_solv.prm

>  <Rbt.Receptor>
prm/blind_docking_80.prm

>  <SCORE>
23.6171

>  <SCORE.INTER>
8.93628

>  <SCORE.INTER.CONST>
1

>  <SCORE.INTER.POLAR>
0

>  <SCORE.INTER.ROT>
9

>  <SCORE.INTER.SOLV>
39.9645

>  <SCORE.INTER.VDW>
-16.964

>  <SCORE.INTER.norm>
0.212769

>  <SCORE.INTRA>
2.31096

>  <SCORE.INTRA.DIHEDRAL>
-9.4472

>  <SCORE.INTRA.DIHEDRAL.0>
27.8999

>  <SCORE.INTRA.POLAR>
0

>  <SCORE.INTRA.POLAR.0>
0

>  <SCORE.INTRA.REPUL>
0.0326397

>  <SCORE.INTRA.REPUL.0>
0

>  <SCORE.INTRA.SOLV>
-1.16955

>  <SCORE.INTRA.SOLV.lig_0>
-104.479

>  <SCORE.INTRA.VDW>
7.45614

>  <SCORE.INTRA.VDW.0>
-6.17816

>  <SCORE.INTRA.norm>
0.0550229

>  <SCORE.RESTR>
12.3699

>  <SCORE.RESTR.CAVITY>
12.3699

>  <SCORE.RESTR.norm>
0.29452

>  <SCORE.SYSTEM>
0

>  <SCORE.SYSTEM.CONST>
0

>  <SCORE.SYSTEM.DIHEDRAL>
0

>  <SCORE.SYSTEM.SOLV>
0

>  <SCORE.SYSTEM.norm>
0

>  <SCORE.heavy>
42

>  <SCORE.norm>
0.562312

>  <RMSD>
17.991

$$$$
ligand
 OpenBabel02271912133D
libRbt.so/2013.1/901 2013/11/27
 42 45  0  0  0  0  0  0  0  0999 V2000
   12.5446   11.3653   -7.5905 C   0  0  2  0  0  0  0  0  0  0  0  0
   13.0104   11.6534   -8.9199 O   0  0  0  0  0  0  0  0  0  0  0  0
   11.8991    9.4635  -12.4928 C   0  0  2  0  0  0  0  0  0  0  0  0
   11.1607    8.9749  -13.6955 N   0  0  0  0  0  0  0  0  0  0  0  0
   11.7846   13.8060  -10.9495 C   0  0  1  0  0  0  0  0  0  0  0  0
    8.1265   16.4025  -11.0187 C   0  0  1  0  0  0  0  0  0  0  0  0
   11.7344   12.6078   -7.1130 C   0  0  2  0  0  0  0  0  0  0  0  0
   10.7312   13.0405   -8.1014 N   0  0  0  0  0  0  0  0  0  0  0  0
   11.0982    9.1571  -11.1637 C   0  0  0  0  0  0  0  0  0  0  0  0
   11.5355   15.0551  -11.8485 C   0  0  2  0  0  0  0  0  0  0  0  0
   12.1719   16.2643  -11.3668 O   0  0  0  0  0  0  0  0  0  0  0  0
    8.0293   17.5630  -12.0735 C   0  0  2  0  0  0  0  0  0  0  0  0
    8.9460   18.6868  -11.7160 N   0  0  0  0  0  0  0  0  0  0  0  0
   12.6381   13.8232   -6.8353 C   0  0  1  0  0  0  0  0  0  0  0  0
   11.8598   14.9242   -6.3632 O   0  0  0  0  0  0  0  0  0  0  0  0
   11.9351    9.6739   -9.9329 C   0  0  2  0  0  0  0  0  0  0  0  0
   11.2164    9.3884   -8.6619 N   0  0  0  0  0  0  0  0  0  0  0  0
   10.0072   15.0856  -11.8978 C   0  0  2  0  0  0  0  0  0  0  0  0
    9.4498   15.8928  -10.8122 O   0  0  0  0  0  0  0  0  0  0  0  0
    6.5112   18.0663  -12.1674 C   0  0  1  0  0  0  0  0  0  0  0  0
    5.7322   17.0726  -12.8706 O   0  0  0  0  0  0  0  0  0  0  0  0
   13.7338   13.4294   -5.8187 C   0  0  2  0  0  0  0  0  0  0  0  0
   14.5598   14.5362   -5.5409 O   0  0  0  0  0  0  0  0  0  0  0  0
   12.2025   11.2263  -10.0535 C   0  0  2  0  0  0  0  0  0  0  0  0
    9.5498   13.6208  -11.7944 C   0  0  2  0  0  0  0  0  0  0  0  0
   10.5715   13.0207  -11.0015 O   0  0  0  0  0  0  0  0  0  0  0  0
    5.8572   18.3419  -10.7308 C   0  0  2  0  0  0  0  0  0  0  0  0
    6.4959   19.4932  -10.1803 O   0  0  0  0  0  0  0  0  0  0  0  0
   14.5735   12.2462   -6.4057 C   0  0  2  0  0  0  0  0  0  0  0  0
   13.6933   11.1141   -6.6944 O   0  0  0  0  0  0  0  0  0  0  0  0
   12.9341   11.6083  -11.3589 C   0  0  2  0  0  0  0  0  0  0  0  0
   12.9289   13.0622  -11.3882 O   0  0  0  0  0  0  0  0  0  0  0  0
    9.3926   12.8825  -13.1598 C   0  0  0  0  0  0  0  0  0  0  0  0
    8.8046   13.7676  -14.1083 O   0  0  0  0  0  0  0  0  0  0  0  0
    6.0579   17.1008   -9.7814 C   0  0  1  0  0  0  0  0  0  0  0  0
    7.5109   16.8667   -9.7155 O   0  0  0  0  0  0  0  0  0  0  0  0
   15.6691   11.7903   -5.4700 C   0  0  0  0  0  0  0  0  0  0  0  0
   15.1192   11.0702   -4.3938 O   0  0  0  0  0  0  0  0  0  0  0  0
   12.1634   11.0179  -12.6131 C   0  0  1  0  0  0  0  0  0  0  0  0
   12.9192   11.2412  -13.8067 O   0  0  0  0  0  0  0  0  0  0  0  0
    5.4667   17.3018   -8.3189 C   0  0  0  0  0  0  0  0  0  0  0  0
    3.9824   17.3773   -8.2310 N   0  0  0  0  0  0  0  0  0  0  0  0
  1  2  1  6  0  0  0
  1  7  1  0  0  0  0
  1 30  1  0  0  0  0
  3  4  1  6  0  0  0
  3  9  1  0  0  0  0
  3 39  1  0  0  0  0
  5 10  1  0  0  0  0
  5 26  1  0  0  0  0
  5 32  1  6  0  0  0
  6 12  1  0  0  0  0
  6 36  1  0  0  0  0
  6 19  1  1  0  0  0
  7  8  1  6  0  0  0
  7 14  1  0  0  0  0
  9 16  1  0  0  0  0
 10 11  1  1  0  0  0
 10 18  1  0  0  0  0
 12 13  1  1  0  0  0
 12 20  1  0  0  0  0
 14 15  1  1  0  0  0
 14 22  1  0  0  0  0
 16 17  1  1  0  0  0
 16 24  1  0  0  0  0
 18 19  1  1  0  0  0
 18 25  1  0  0  0  0
 20 21  1  1  0  0  0
 20 27  1  0  0  0  0
 22 23  1  6  0  0  0
 22 29  1  0  0  0  0
 24  2  1  1  0  0  0
 24 31  1  0  0  0  0
 25 26  1  0  0  0  0
 25 33  1  6  0  0  0
 27 28  1  1  0  0  0
 27 35  1  0  0  0  0
 29 30  1  0  0  0  0
 29 37  1  1  0  0  0
 31 32  1  6  0  0  0
 31 39  1  0  0  0  0
 33 34  1  0  0  0  0
 35 36  1  0  0  0  0
 35 41  1  1  0  0  0
 37 38  1  0  0  0  0
 39 40  1  6  0  0  0
 41 42  1  0  0  0  0
M  END
>  <CHROM.1>
-92.96727073,-54.85764876,157.72600692,-72.10759615,-40.24945931,73.76309327
-38.85895366,-141.53449069,68.11838522,10.64341073,13.83495243,-9.94317398
-0.05372172,-0.79217153,1.03979829

>  <Name>
ligand

>  <RI>
0

>  <Rbt.Current_Directory>
/home/itssahil/PROJECTS/Mol_Feturizer/Test_systems_manuscript/rnas/2o3w

>  <Rbt.Executable>
rbdock ($Id: //depot/dev/client3/rdock/2013.1/src/exe/rbdock.cxx#4 $)

>  <Rbt.Library>
libRbt.so (2013.1, Build901 2013/11/27)

>  <Rbt.Parameter_File>
/export/apps/rDock/src/rDock_2013.1_src/data/scripts/dock_solv.prm

>  <Rbt.Receptor>
prm/blind_docking_100.prm

>  <SCORE>
5.07337

>  <SCORE.INTER>
-2.73514

>  <SCORE.INTER.CONST>
1

>  <SCORE.INTER.POLAR>
0

>  <SCORE.INTER.ROT>
9

>  <SCORE.INTER.SOLV>
22.1078

>  <SCORE.INTER.VDW>
-18.7927

>  <SCORE.INTER.norm>
-0.0651225

>  <SCORE.INTRA>
0.0954369

>  <SCORE.INTRA.DIHEDRAL>
-11.3166

>  <SCORE.INTRA.DIHEDRAL.0>
27.8999

>  <SCORE.INTRA.POLAR>
0

>  <SCORE.INTRA.POLAR.0>
0

>  <SCORE.INTRA.REPUL>
0.0581243

>  <SCORE.INTRA.REPUL.0>
0

>  <SCORE.INTRA.SOLV>
1.27538

>  <SCORE.INTRA.SOLV.lig_0>
-104.479

>  <SCORE.INTRA.VDW>
4.82544

>  <SCORE.INTRA.VDW.0>
-6.17816

>  <SCORE.INTRA.norm>
0.00227231

>  <SCORE.RESTR>
7.71308

>  <SCORE.RESTR.CAVITY>
7.71308

>  <SCORE.RESTR.norm>
0.183645

>  <SCORE.SYSTEM>
0

>  <SCORE.SYSTEM.CONST>
0

>  <SCORE.SYSTEM.DIHEDRAL>
0

>  <SCORE.SYSTEM.SOLV>
0

>  <SCORE.SYSTEM.norm>
0

>  <SCORE.heavy>
42

>  <SCORE.norm>
0.120795

>  <RMSD>
18.000

$$$$
ligand
 OpenBabel02271912133D
libRbt.so/2013.1/901 2013/11/27
 42 45  0  0  0  0  0  0  0  0999 V2000
   11.9311   10.0991   -7.4787 C   0  0  2  0  0  0  0  0  0  0  0  0
   12.6620   10.3408   -8.6930 O   0  0  0  0  0  0  0  0  0  0  0  0
   11.7948    8.6745  -12.6004 C   0  0  2  0  0  0  0  0  0  0  0  0
   11.1862    8.4197  -13.9402 N   0  0  0  0  0  0  0  0  0  0  0  0
   12.0894   12.8589  -10.8989 C   0  0  1  0  0  0  0  0  0  0  0  0
    9.8812   16.7892  -10.5715 C   0  0  1  0  0  0  0  0  0  0  0  0
   11.0182   11.3397   -7.2426 C   0  0  2  0  0  0  0  0  0  0  0  0
   10.2390   11.7022   -8.4392 N   0  0  0  0  0  0  0  0  0  0  0  0
   10.7581    8.4003  -11.4376 C   0  0  0  0  0  0  0  0  0  0  0  0
   12.5189   14.2069  -10.2438 C   0  0  2  0  0  0  0  0  0  0  0  0
   12.3203   14.2546   -8.8095 O   0  0  0  0  0  0  0  0  0  0  0  0
    8.3813   16.9574  -10.1347 C   0  0  2  0  0  0  0  0  0  0  0  0
    7.4981   16.0156  -10.8855 N   0  0  0  0  0  0  0  0  0  0  0  0
   11.8230   12.5893   -6.8404 C   0  0  1  0  0  0  0  0  0  0  0  0
   10.9446   13.6891   -6.5959 O   0  0  0  0  0  0  0  0  0  0  0  0
   11.4627    8.6637  -10.0532 C   0  0  2  0  0  0  0  0  0  0  0  0
   10.5186    8.4008   -8.9338 N   0  0  0  0  0  0  0  0  0  0  0  0
   11.6993   15.2080  -11.0595 C   0  0  2  0  0  0  0  0  0  0  0  0
   10.3921   15.4557  -10.4508 O   0  0  0  0  0  0  0  0  0  0  0  0
    7.9306   18.4773  -10.3662 C   0  0  1  0  0  0  0  0  0  0  0  0
    8.5428   19.3058   -9.3525 O   0  0  0  0  0  0  0  0  0  0  0  0
   12.6859   12.2692   -5.5986 C   0  0  2  0  0  0  0  0  0  0  0  0
   13.4164   13.4084   -5.2075 O   0  0  0  0  0  0  0  0  0  0  0  0
   11.9845   10.1525   -9.9681 C   0  0  2  0  0  0  0  0  0  0  0  0
   11.5536   14.5943  -12.4622 C   0  0  2  0  0  0  0  0  0  0  0  0
   11.5571   13.1927  -12.2014 O   0  0  0  0  0  0  0  0  0  0  0  0
    8.3240   19.0285  -11.8185 C   0  0  2  0  0  0  0  0  0  0  0  0
    7.5077   18.3503  -12.7725 O   0  0  0  0  0  0  0  0  0  0  0  0
   13.6497   11.0839   -5.9384 C   0  0  2  0  0  0  0  0  0  0  0  0
   12.8689    9.9175   -6.3503 O   0  0  0  0  0  0  0  0  0  0  0  0
   12.9616   10.5108  -11.1092 C   0  0  2  0  0  0  0  0  0  0  0  0
   13.1879   11.9417  -10.9831 O   0  0  0  0  0  0  0  0  0  0  0  0
   12.6804   14.9805  -13.4699 C   0  0  0  0  0  0  0  0  0  0  0  0
   12.7909   16.3993  -13.5309 O   0  0  0  0  0  0  0  0  0  0  0  0
    9.8479   18.7644  -12.1191 C   0  0  1  0  0  0  0  0  0  0  0  0
   10.0458   17.3109  -11.9835 O   0  0  0  0  0  0  0  0  0  0  0  0
   14.5307   10.6983   -4.7727 C   0  0  0  0  0  0  0  0  0  0  0  0
   15.5992    9.8978   -5.2163 O   0  0  0  0  0  0  0  0  0  0  0  0
   12.3137   10.1658  -12.5153 C   0  0  1  0  0  0  0  0  0  0  0  0
   13.2722   10.3549  -13.5599 O   0  0  0  0  0  0  0  0  0  0  0  0
   10.3180   19.2513  -13.5580 C   0  0  0  0  0  0  0  0  0  0  0  0
   11.7368   18.9602  -13.9028 N   0  0  0  0  0  0  0  0  0  0  0  0
  1  2  1  6  0  0  0
  1  7  1  0  0  0  0
  1 30  1  0  0  0  0
  3  4  1  6  0  0  0
  3  9  1  0  0  0  0
  3 39  1  0  0  0  0
  5 10  1  0  0  0  0
  5 26  1  0  0  0  0
  5 32  1  6  0  0  0
  6 12  1  0  0  0  0
  6 36  1  0  0  0  0
  6 19  1  6  0  0  0
  7  8  1  6  0  0  0
  7 14  1  0  0  0  0
  9 16  1  0  0  0  0
 10 11  1  1  0  0  0
 10 18  1  0  0  0  0
 12 13  1  6  0  0  0
 12 20  1  0  0  0  0
 14 15  1  1  0  0  0
 14 22  1  0  0  0  0
 16 17  1  1  0  0  0
 16 24  1  0  0  0  0
 18 19  1  1  0  0  0
 18 25  1  0  0  0  0
 20 21  1  1  0  0  0
 20 27  1  0  0  0  0
 22 23  1  6  0  0  0
 22 29  1  0  0  0  0
 24  2  1  1  0  0  0
 24 31  1  0  0  0  0
 25 26  1  0  0  0  0
 25 33  1  6  0  0  0
 27 28  1  6  0  0  0
 27 35  1  0  0  0  0
 29 30  1  0  0  0  0
 29 37  1  1  0  0  0
 31 32  1  6  0  0  0
 31 39  1  0  0  0  0
 33 34  1  0  0  0  0
 35 36  1  0  0  0  0
 35 41  1  6  0  0  0
 37 38  1  0  0  0  0
 39 40  1  6  0  0  0
 41 42  1  0  0  0  0
M  END
>  <CHROM.1>
-77.77753785,-58.29182944,144.89708434,169.77583136,-53.83312015,-164.39043637
-51.46223897,158.36298245,-177.21735368,11.41421913,13.43092250,-10.08273499
0.07035516,-1.22244433,1.18663393

>  <Name>
ligand

>  <RI>
0

>  <Rbt.Current_Directory>
/home/itssahil/PROJECTS/Mol_Feturizer/Test_systems_manuscript/rnas/2o3w

>  <Rbt.Executable>
rbdock ($Id: //depot/dev/client3/rdock/2013.1/src/exe/rbdock.cxx#4 $)

>  <Rbt.Library>
libRbt.so (2013.1, Build901 2013/11/27)

>  <Rbt.Parameter_File>
/export/apps/rDock/src/rDock_2013.1_src/data/scripts/dock_solv.prm

>  <Rbt.Receptor>
prm/blind_docking_40.prm

>  <SCORE>
13.6689

>  <SCORE.INTER>
7.3836

>  <SCORE.INTER.CONST>
1

>  <SCORE.INTER.POLAR>
0

>  <SCORE.INTER.ROT>
9

>  <SCORE.INTER.SOLV>
27.6717

>  <SCORE.INTER.VDW>
-13.9015

>  <SCORE.INTER.norm>
0.1758

>  <SCORE.INTRA>
-3.70501

>  <SCORE.INTRA.DIHEDRAL>
-17.8312

>  <SCORE.INTRA.DIHEDRAL.0>
27.8999

>  <SCORE.INTRA.POLAR>
0

>  <SCORE.INTRA.POLAR.0>
0

>  <SCORE.INTRA.REPUL>
0.0585152

>  <SCORE.INTRA.REPUL.0>
0

>  <SCORE.INTRA.SOLV>
3.13606

>  <SCORE.INTRA.SOLV.lig_0>
-104.479

>  <SCORE.INTRA.VDW>
3.35001

>  <SCORE.INTRA.VDW.0>
-6.17816

>  <SCORE.INTRA.norm>
-0.0882145

>  <SCORE.RESTR>
9.99035

>  <SCORE.RESTR.CAVITY>
9.99035

>  <SCORE.RESTR.norm>
0.237865

>  <SCORE.SYSTEM>
0

>  <SCORE.SYSTEM.CONST>
0

>  <SCORE.SYSTEM.DIHEDRAL>
0

>  <SCORE.SYSTEM.SOLV>
0

>  <SCORE.SYSTEM.norm>
0

>  <SCORE.heavy>
42

>  <SCORE.norm>
0.325451

>  <RMSD>
18.003

$$$$
ligand
 OpenBabel02271912133D
libRbt.so/2013.1/901 2013/11/27
 42 45  0  0  0  0  0  0  0  0999 V2000
   13.6002   11.6341  -11.2048 C   0  0  2  0  0  0  0  0  0  0  0  0
   13.5155   12.7330  -12.1281 O   0  0  0  0  0  0  0  0  0  0  0  0
   11.1974   16.3195  -11.3802 C   0  0  2  0  0  0  0  0  0  0  0  0
   10.0682   17.2890  -11.2560 N   0  0  0  0  0  0  0  0  0  0  0  0
   11.9313   12.4373   -8.5947 C   0  0  1  0  0  0  0  0  0  0  0  0
   13.0027   12.0327   -5.6898 C   0  0  1  0  0  0  0  0  0  0  0  0
   14.8834   10.8296  -11.5715 C   0  0  2  0  0  0  0  0  0  0  0  0
   16.0703   11.6920  -11.7058 N   0  0  0  0  0  0  0  0  0  0  0  0
   11.4220   15.8899  -12.8858 C   0  0  0  0  0  0  0  0  0  0  0  0
   10.6763   12.6869   -7.7039 C   0  0  2  0  0  0  0  0  0  0  0  0
   10.6029   14.0239   -7.1505 O   0  0  0  0  0  0  0  0  0  0  0  0
   13.7667   10.7089   -5.3255 C   0  0  2  0  0  0  0  0  0  0  0  0
   13.4550   10.2800   -3.9292 N   0  0  0  0  0  0  0  0  0  0  0  0
   14.7350   10.0670  -12.9009 C   0  0  1  0  0  0  0  0  0  0  0  0
   15.9171    9.3138  -13.1768 O   0  0  0  0  0  0  0  0  0  0  0  0
   12.6360   14.8879  -12.9549 C   0  0  2  0  0  0  0  0  0  0  0  0
   12.8853   14.4733  -14.3619 N   0  0  0  0  0  0  0  0  0  0  0  0
   10.8058   11.5544   -6.6841 C   0  0  2  0  0  0  0  0  0  0  0  0
   11.5818   11.9691   -5.5151 O   0  0  0  0  0  0  0  0  0  0  0  0
   15.3407   10.9364   -5.5198 C   0  0  1  0  0  0  0  0  0  0  0  0
   15.6365   10.9718   -6.9341 O   0  0  0  0  0  0  0  0  0  0  0  0
   13.4877    9.1563  -12.8365 C   0  0  2  0  0  0  0  0  0  0  0  0
   13.3472    8.4384  -14.0403 O   0  0  0  0  0  0  0  0  0  0  0  0
   12.3555   13.6111  -12.0678 C   0  0  2  0  0  0  0  0  0  0  0  0
   11.4908   10.3931   -7.4242 C   0  0  2  0  0  0  0  0  0  0  0  0
   12.3171   11.0611   -8.3747 O   0  0  0  0  0  0  0  0  0  0  0  0
   15.8645   12.2838   -4.8287 C   0  0  2  0  0  0  0  0  0  0  0  0
   15.7844   12.1026   -3.4155 O   0  0  0  0  0  0  0  0  0  0  0  0
   12.2239   10.0398  -12.5687 C   0  0  2  0  0  0  0  0  0  0  0  0
   12.3978   10.7816  -11.3200 O   0  0  0  0  0  0  0  0  0  0  0  0
   12.0705   13.9593  -10.5903 C   0  0  2  0  0  0  0  0  0  0  0  0
   11.6580   12.7076   -9.9757 O   0  0  0  0  0  0  0  0  0  0  0  0
   10.5184    9.3965   -8.1281 C   0  0  0  0  0  0  0  0  0  0  0  0
   10.1042    9.9452   -9.3756 O   0  0  0  0  0  0  0  0  0  0  0  0
   14.9849   13.5137   -5.2714 C   0  0  1  0  0  0  0  0  0  0  0  0
   13.5987   13.1798   -4.9012 O   0  0  0  0  0  0  0  0  0  0  0  0
   10.9531    9.2263  -12.4837 C   0  0  0  0  0  0  0  0  0  0  0  0
   10.9702    8.4193  -11.3314 O   0  0  0  0  0  0  0  0  0  0  0  0
   10.9141   15.0406  -10.4944 C   0  0  1  0  0  0  0  0  0  0  0  0
   10.7547   15.4737   -9.1407 O   0  0  0  0  0  0  0  0  0  0  0  0
   15.4155   14.8914   -4.6041 C   0  0  0  0  0  0  0  0  0  0  0  0
   15.3519   14.9323   -3.1172 N   0  0  0  0  0  0  0  0  0  0  0  0
  1  2  1  6  0  0  0
  1  7  1  0  0  0  0
  1 30  1  0  0  0  0
  3  4  1  6  0  0  0
  3  9  1  0  0  0  0
  3 39  1  0  0  0  0
  5 10  1  0  0  0  0
  5 26  1  0  0  0  0
  5 32  1  6  0  0  0
  6 12  1  0  0  0  0
  6 36  1  0  0  0  0
  6 19  1  1  0  0  0
  7  8  1  6  0  0  0
  7 14  1  0  0  0  0
  9 16  1  0  0  0  0
 10 11  1  1  0  0  0
 10 18  1  0  0  0  0
 12 13  1  1  0  0  0
 12 20  1  0  0  0  0
 14 15  1  1  0  0  0
 14 22  1  0  0  0  0
 16 17  1  6  0  0  0
 16 24  1  0  0  0  0
 18 19  1  1  0  0  0
 18 25  1  0  0  0  0
 20 21  1  6  0  0  0
 20 27  1  0  0  0  0
 22 23  1  6  0  0  0
 22 29  1  0  0  0  0
 24  2  1  1  0  0  0
 24 31  1  0  0  0  0
 25 26  1  0  0  0  0
 25 33  1  6  0  0  0
 27 28  1  1  0  0  0
 27 35  1  0  0  0  0
 29 30  1  0  0  0  0
 29 37  1  1  0  0  0
 31 32  1  1  0  0  0
 31 39  1  0  0  0  0
 33 34  1  0  0  0  0
 35 36  1  0  0  0  0
 35 41  1  1  0  0  0
 37 38  1  0  0  0  0
 39 40  1  1  0  0  0
 41 42  1  0  0  0  0
M  END
>  <CHROM.1>
176.21611179,168.33129571,-76.67895690,-91.44350516,80.70105984,67.89158472
148.96655806,100.33034963,-60.07629054,12.85508928,12.14109059,-9.15594578
-2.03102743,-1.15630676,1.04029309

>  <Name>
ligand

>  <RI>
0

>  <Rbt.Current_Directory>
/home/itssahil/PROJECTS/Mol_Feturizer/Test_systems_manuscript/rnas/2o3w

>  <Rbt.Executable>
rbdock ($Id: //depot/dev/client3/rdock/2013.1/src/exe/rbdock.cxx#4 $)

>  <Rbt.Library>
libRbt.so (2013.1, Build901 2013/11/27)

>  <Rbt.Parameter_File>
/export/apps/rDock/src/rDock_2013.1_src/data/scripts/dock_solv.prm

>  <Rbt.Receptor>
prm/blind_docking_80.prm

>  <SCORE>
8.42014

>  <SCORE.INTER>
2.13975

>  <SCORE.INTER.CONST>
1

>  <SCORE.INTER.POLAR>
0

>  <SCORE.INTER.ROT>
9

>  <SCORE.INTER.SOLV>
33.6502

>  <SCORE.INTER.VDW>
-19.3902

>  <SCORE.INTER.norm>
0.0509463

>  <SCORE.INTRA>
-1.27175

>  <SCORE.INTRA.DIHEDRAL>
-11.1032

>  <SCORE.INTRA.DIHEDRAL.0>
27.8999

>  <SCORE.INTRA.POLAR>
0

>  <SCORE.INTRA.POLAR.0>
0

>  <SCORE.INTRA.REPUL>
0.079457

>  <SCORE.INTRA.REPUL.0>
0

>  <SCORE.INTRA.SOLV>
-1.15176

>  <SCORE.INTRA.SOLV.lig_0>
-104.479

>  <SCORE.INTRA.VDW>
4.45847

>  <SCORE.INTRA.VDW.0>
-6.17816

>  <SCORE.INTRA.norm>
-0.0302798

>  <SCORE.RESTR>
7.55214

>  <SCORE.RESTR.CAVITY>
7.55214

>  <SCORE.RESTR.norm>
0.179813

>  <SCORE.SYSTEM>
0

>  <SCORE.SYSTEM.CONST>
0

>  <SCORE.SYSTEM.DIHEDRAL>
0

>  <SCORE.SYSTEM.SOLV>
0

>  <SCORE.SYSTEM.norm>
0

>  <SCORE.heavy>
42

>  <SCORE.norm>
0.200479

>  <RMSD>
18.008

$$$$
ligand
 OpenBabel02271912133D
libRbt.so/2013.1/901 2013/11/27
 42 45  0  0  0  0  0  0  0  0999 V2000
   12.7211   12.2627   -6.9491 C   0  0  2  0  0  0  0  0  0  0  0  0
   13.3704   12.4679   -8.2154 O   0  0  0  0  0  0  0  0  0  0  0  0
   13.5622    9.5243  -11.3926 C   0  0  2  0  0  0  0  0  0  0  0  0
   13.2273    8.6800  -12.5782 N   0  0  0  0  0  0  0  0  0  0  0  0
   12.2068   13.7945  -11.2460 C   0  0  1  0  0  0  0  0  0  0  0  0
    9.8132   15.3825  -11.9319 C   0  0  1  0  0  0  0  0  0  0  0  0
   12.8774   13.5841   -6.1381 C   0  0  2  0  0  0  0  0  0  0  0  0
   12.4830   14.7722   -6.9149 N   0  0  0  0  0  0  0  0  0  0  0  0
   12.5714    9.2461  -10.1915 C   0  0  0  0  0  0  0  0  0  0  0  0
   11.9568   13.6754  -12.7803 C   0  0  2  0  0  0  0  0  0  0  0  0
   12.2270   14.8930  -13.5176 O   0  0  0  0  0  0  0  0  0  0  0  0
    8.5398   15.8937  -11.1665 C   0  0  2  0  0  0  0  0  0  0  0  0
    7.4684   16.2993  -12.1250 N   0  0  0  0  0  0  0  0  0  0  0  0
   14.3271   13.8170   -5.6744 C   0  0  1  0  0  0  0  0  0  0  0  0
   14.4159   15.0162   -4.9030 O   0  0  0  0  0  0  0  0  0  0  0  0
   12.9880   10.1464   -8.9674 C   0  0  2  0  0  0  0  0  0  0  0  0
   12.0838    9.8993   -7.8120 N   0  0  0  0  0  0  0  0  0  0  0  0
   10.5059   13.1925  -12.8082 C   0  0  2  0  0  0  0  0  0  0  0  0
    9.5665   14.3134  -12.8537 O   0  0  0  0  0  0  0  0  0  0  0  0
    8.9505   17.1136  -10.2126 C   0  0  1  0  0  0  0  0  0  0  0  0
    9.6860   16.5951   -9.0816 O   0  0  0  0  0  0  0  0  0  0  0  0
   14.8144   12.5907   -4.8695 C   0  0  2  0  0  0  0  0  0  0  0  0
   16.1348   12.7954   -4.4233 O   0  0  0  0  0  0  0  0  0  0  0  0
   12.9411   11.6761   -9.3596 C   0  0  2  0  0  0  0  0  0  0  0  0
   10.3126   12.3549  -11.5328 C   0  0  2  0  0  0  0  0  0  0  0  0
   11.2061   12.9690  -10.6070 O   0  0  0  0  0  0  0  0  0  0  0  0
    9.8325   18.2208  -10.9634 C   0  0  2  0  0  0  0  0  0  0  0  0
    8.9866   18.8797  -11.9050 O   0  0  0  0  0  0  0  0  0  0  0  0
   14.7279   11.3178   -5.7761 C   0  0  2  0  0  0  0  0  0  0  0  0
   13.3510   11.1325   -6.2338 O   0  0  0  0  0  0  0  0  0  0  0  0
   13.8447   12.0130  -10.5659 C   0  0  2  0  0  0  0  0  0  0  0  0
   13.5390   13.3954  -10.8978 O   0  0  0  0  0  0  0  0  0  0  0  0
   10.6253   10.8345  -11.6903 C   0  0  0  0  0  0  0  0  0  0  0  0
    9.6392   10.2355  -12.5257 O   0  0  0  0  0  0  0  0  0  0  0  0
   11.0532   17.5521  -11.7017 C   0  0  1  0  0  0  0  0  0  0  0  0
   10.4788   16.5549  -12.6214 O   0  0  0  0  0  0  0  0  0  0  0  0
   15.1815   10.0646   -5.0636 C   0  0  0  0  0  0  0  0  0  0  0  0
   14.5347    9.9533   -3.8192 O   0  0  0  0  0  0  0  0  0  0  0  0
   13.5118   11.0552  -11.7855 C   0  0  1  0  0  0  0  0  0  0  0  0
   14.4474   11.2646  -12.8469 O   0  0  0  0  0  0  0  0  0  0  0  0
   11.9660   18.5779  -12.5036 C   0  0  0  0  0  0  0  0  0  0  0  0
   11.3795   19.1096  -13.7645 N   0  0  0  0  0  0  0  0  0  0  0  0
  1  2  1  6  0  0  0
  1  7  1  0  0  0  0
  1 30  1  0  0  0  0
  3  4  1  6  0  0  0
  3  9  1  0  0  0  0
  3 39  1  0  0  0  0
  5 10  1  0  0  0  0
  5 26  1  0  0  0  0
  5 32  1  6  0  0  0
  6 12  1  0  0  0  0
  6 36  1  0  0  0  0
  6 19  1  6  0  0  0
  7  8  1  6  0  0  0
  7 14  1  0  0  0  0
  9 16  1  0  0  0  0
 10 11  1  6  0  0  0
 10 18  1  0  0  0  0
 12 13  1  6  0  0  0
 12 20  1  0  0  0  0
 14 15  1  1  0  0  0
 14 22  1  0  0  0  0
 16 17  1  1  0  0  0
 16 24  1  0  0  0  0
 18 19  1  1  0  0  0
 18 25  1  0  0  0  0
 20 21  1  1  0  0  0
 20 27  1  0  0  0  0
 22 23  1  6  0  0  0
 22 29  1  0  0  0  0
 24  2  1  1  0  0  0
 24 31  1  0  0  0  0
 25 26  1  0  0  0  0
 25 33  1  6  0  0  0
 27 28  1  6  0  0  0
 27 35  1  0  0  0  0
 29 30  1  0  0  0  0
 29 37  1  1  0  0  0
 31 32  1  6  0  0  0
 31 39  1  0  0  0  0
 33 34  1  0  0  0  0
 35 36  1  0  0  0  0
 35 41  1  6  0  0  0
 37 38  1  0  0  0  0
 39 40  1  6  0  0  0
 41 42  1  0  0  0  0
M  END
>  <CHROM.1>
-154.87602715,-53.05450867,-46.66286643,-134.38422467,-68.78551098,50.14904841
-58.77541366,-89.76191817,-73.38491757,12.10466850,13.41588579,-9.82232605
-0.04739658,-1.08447437,0.66010289

>  <Name>
ligand

>  <RI>
0

>  <Rbt.Current_Directory>
/home/itssahil/PROJECTS/Mol_Feturizer/Test_systems_manuscript/rnas/2o3w

>  <Rbt.Executable>
rbdock ($Id: //depot/dev/client3/rdock/2013.1/src/exe/rbdock.cxx#4 $)

>  <Rbt.Library>
libRbt.so (2013.1, Build901 2013/11/27)

>  <Rbt.Parameter_File>
/export/apps/rDock/src/rDock_2013.1_src/data/scripts/dock_solv.prm

>  <Rbt.Receptor>
prm/blind_docking_60.prm

>  <SCORE>
10.2138

>  <SCORE.INTER>
-5.04924

>  <SCORE.INTER.CONST>
1

>  <SCORE.INTER.POLAR>
0

>  <SCORE.INTER.ROT>
9

>  <SCORE.INTER.SOLV>
30.1441

>  <SCORE.INTER.VDW>
-23.0142

>  <SCORE.INTER.norm>
-0.12022

>  <SCORE.INTRA>
6.22979

>  <SCORE.INTRA.DIHEDRAL>
-13.0617

>  <SCORE.INTRA.DIHEDRAL.0>
27.8999

>  <SCORE.INTRA.POLAR>
0

>  <SCORE.INTRA.POLAR.0>
0

>  <SCORE.INTRA.REPUL>
0.509044

>  <SCORE.INTRA.REPUL.0>
0

>  <SCORE.INTRA.SOLV>
2.25005

>  <SCORE.INTRA.SOLV.lig_0>
-104.479

>  <SCORE.INTRA.VDW>
9.0904

>  <SCORE.INTRA.VDW.0>
-6.17816

>  <SCORE.INTRA.norm>
0.148328

>  <SCORE.RESTR>
9.03323

>  <SCORE.RESTR.CAVITY>
9.03323

>  <SCORE.RESTR.norm>
0.215077

>  <SCORE.SYSTEM>
0

>  <SCORE.SYSTEM.CONST>
0

>  <SCORE.SYSTEM.DIHEDRAL>
0

>  <SCORE.SYSTEM.SOLV>
0

>  <SCORE.SYSTEM.norm>
0

>  <SCORE.heavy>
42

>  <SCORE.norm>
0.243185

>  <RMSD>
18.015

$$$$
ligand
 OpenBabel02271912133D
libRbt.so/2013.1/901 2013/11/27
 42 45  0  0  0  0  0  0  0  0999 V2000
   12.9296   10.7924   -8.1795 C   0  0  2  0  0  0  0  0  0  0  0  0
   12.4508   11.2044   -9.4712 O   0  0  0  0  0  0  0  0  0  0  0  0
   15.7027    9.6898  -11.9058 C   0  0  2  0  0  0  0  0  0  0  0  0
   16.5214    9.2273  -13.0661 N   0  0  0  0  0  0  0  0  0  0  0  0
   12.2688   13.1720  -11.1293 C   0  0  1  0  0  0  0  0  0  0  0  0
    8.4219   15.4218  -10.3490 C   0  0  1  0  0  0  0  0  0  0  0  0
   11.6758   10.5095   -7.2986 C   0  0  2  0  0  0  0  0  0  0  0  0
   10.7018    9.6310   -7.9696 N   0  0  0  0  0  0  0  0  0  0  0  0
   14.4606    8.7405  -11.6650 C   0  0  0  0  0  0  0  0  0  0  0  0
   11.9741   14.5573  -10.4775 C   0  0  2  0  0  0  0  0  0  0  0  0
   11.9040   14.5248   -9.0307 O   0  0  0  0  0  0  0  0  0  0  0  0
    7.1856   15.1198  -11.2706 C   0  0  2  0  0  0  0  0  0  0  0  0
    7.5993   15.0198  -12.7023 N   0  0  0  0  0  0  0  0  0  0  0  0
   10.9245   11.7991   -6.9200 C   0  0  1  0  0  0  0  0  0  0  0  0
    9.8081   11.4965   -6.0816 O   0  0  0  0  0  0  0  0  0  0  0  0
   13.6514    9.2651  -10.4190 C   0  0  2  0  0  0  0  0  0  0  0  0
   12.4813    8.3851  -10.1543 N   0  0  0  0  0  0  0  0  0  0  0  0
   10.6826   14.9540  -11.1943 C   0  0  2  0  0  0  0  0  0  0  0  0
    9.5001   14.4857  -10.4710 O   0  0  0  0  0  0  0  0  0  0  0  0
    6.0834   16.2649  -11.0686 C   0  0  1  0  0  0  0  0  0  0  0  0
    5.4447   16.0775   -9.7857 O   0  0  0  0  0  0  0  0  0  0  0  0
   11.8994   12.7799   -6.2295 C   0  0  2  0  0  0  0  0  0  0  0  0
   11.2229   13.9595   -5.8614 O   0  0  0  0  0  0  0  0  0  0  0  0
   13.1573   10.7463  -10.6592 C   0  0  2  0  0  0  0  0  0  0  0  0
   10.7642   14.3250  -12.5954 C   0  0  2  0  0  0  0  0  0  0  0  0
   11.5313   13.1441  -12.3729 O   0  0  0  0  0  0  0  0  0  0  0  0
    6.6990   17.7420  -11.1502 C   0  0  2  0  0  0  0  0  0  0  0  0
    7.0904   17.9716  -12.5031 O   0  0  0  0  0  0  0  0  0  0  0  0
   13.0786   13.1008   -7.2073 C   0  0  2  0  0  0  0  0  0  0  0  0
   13.7584   11.8609   -7.5819 O   0  0  0  0  0  0  0  0  0  0  0  0
   14.3157   11.7231  -10.9577 C   0  0  2  0  0  0  0  0  0  0  0  0
   13.6743   12.9738  -11.3302 O   0  0  0  0  0  0  0  0  0  0  0  0
   11.4247   15.2265  -13.6841 C   0  0  0  0  0  0  0  0  0  0  0  0
   12.7973   15.4264  -13.3600 O   0  0  0  0  0  0  0  0  0  0  0  0
    7.9420   17.8799  -10.1920 C   0  0  1  0  0  0  0  0  0  0  0  0
    8.8959   16.8367  -10.6066 O   0  0  0  0  0  0  0  0  0  0  0  0
   14.0881   14.0527   -6.6083 C   0  0  0  0  0  0  0  0  0  0  0  0
   14.6288   13.5072   -5.4296 O   0  0  0  0  0  0  0  0  0  0  0  0
   15.2060   11.1713  -12.1487 C   0  0  1  0  0  0  0  0  0  0  0  0
   16.3614   11.9959  -12.3242 O   0  0  0  0  0  0  0  0  0  0  0  0
    8.6375   19.3093  -10.2352 C   0  0  0  0  0  0  0  0  0  0  0  0
    9.5932   19.5248  -11.3563 N   0  0  0  0  0  0  0  0  0  0  0  0
  1  2  1  6  0  0  0
  1  7  1  0  0  0  0
  1 30  1  0  0  0  0
  3  4  1  6  0  0  0
  3  9  1  0  0  0  0
  3 39  1  0  0  0  0
  5 10  1  0  0  0  0
  5 26  1  0  0  0  0
  5 32  1  6  0  0  0
  6 12  1  0  0  0  0
  6 36  1  0  0  0  0
  6 19  1  6  0  0  0
  7  8  1  6  0  0  0
  7 14  1  0  0  0  0
  9 16  1  0  0  0  0
 10 11  1  1  0  0  0
 10 18  1  0  0  0  0
 12 13  1  6  0  0  0
 12 20  1  0  0  0  0
 14 15  1  1  0  0  0
 14 22  1  0  0  0  0
 16 17  1  6  0  0  0
 16 24  1  0  0  0  0
 18 19  1  1  0  0  0
 18 25  1  0  0  0  0
 20 21  1  1  0  0  0
 20 27  1  0  0  0  0
 22 23  1  6  0  0  0
 22 29  1  0  0  0  0
 24  2  1  1  0  0  0
 24 31  1  0  0  0  0
 25 26  1  0  0  0  0
 25 33  1  6  0  0  0
 27 28  1  6  0  0  0
 27 35  1  0  0  0  0
 29 30  1  0  0  0  0
 29 37  1  1  0  0  0
 31 32  1  6  0  0  0
 31 39  1  0  0  0  0
 33 34  1  0  0  0  0
 35 36  1  0  0  0  0
 35 41  1  6  0  0  0
 37 38  1  0  0  0  0
 39 40  1  1  0  0  0
 41 42  1  0  0  0  0
M  END
>  <CHROM.1>
-141.26285094,36.76604816,136.23346195,105.91924845,65.64964045,59.02418305
11.42269767,133.76814109,-82.01141101,11.40964791,13.49782898,-10.10248047
0.33535069,-0.74261608,1.87118645

>  <Name>
ligand

>  <RI>
0

>  <Rbt.Current_Directory>
/home/itssahil/PROJECTS/Mol_Feturizer/Test_systems_manuscript/rnas/2o3w

>  <Rbt.Executable>
rbdock ($Id: //depot/dev/client3/rdock/2013.1/src/exe/rbdock.cxx#4 $)

>  <Rbt.Library>
libRbt.so (2013.1, Build901 2013/11/27)

>  <Rbt.Parameter_File>
/export/apps/rDock/src/rDock_2013.1_src/data/scripts/dock_solv.prm

>  <Rbt.Receptor>
prm/blind_docking_80.prm

>  <SCORE>
18.5273

>  <SCORE.INTER>
-1.75111

>  <SCORE.INTER.CONST>
1

>  <SCORE.INTER.POLAR>
0

>  <SCORE.INTER.ROT>
9

>  <SCORE.INTER.SOLV>
27.6213

>  <SCORE.INTER.VDW>
-19.9745

>  <SCORE.INTER.norm>
-0.041693

>  <SCORE.INTRA>
10.9015

>  <SCORE.INTRA.DIHEDRAL>
6.4338

>  <SCORE.INTRA.DIHEDRAL.0>
27.8999

>  <SCORE.INTRA.POLAR>
0

>  <SCORE.INTRA.POLAR.0>
0

>  <SCORE.INTRA.REPUL>
0

>  <SCORE.INTRA.REPUL.0>
0

>  <SCORE.INTRA.SOLV>
2.06171

>  <SCORE.INTRA.SOLV.lig_0>
-104.479

>  <SCORE.INTRA.VDW>
6.65372

>  <SCORE.INTRA.VDW.0>
-6.17816

>  <SCORE.INTRA.norm>
0.259559

>  <SCORE.RESTR>
9.37698

>  <SCORE.RESTR.CAVITY>
9.37698

>  <SCORE.RESTR.norm>
0.223261

>  <SCORE.SYSTEM>
0

>  <SCORE.SYSTEM.CONST>
0

>  <SCORE.SYSTEM.DIHEDRAL>
0

>  <SCORE.SYSTEM.SOLV>
0

>  <SCORE.SYSTEM.norm>
0

>  <SCORE.heavy>
42

>  <SCORE.norm>
0.441127

>  <RMSD>
18.033

$$$$
ligand
 OpenBabel02271912133D
libRbt.so/2013.1/901 2013/11/27
 42 45  0  0  0  0  0  0  0  0999 V2000
   12.5995   12.2082   -7.0255 C   0  0  2  0  0  0  0  0  0  0  0  0
   13.1648   12.3230   -8.3425 O   0  0  0  0  0  0  0  0  0  0  0  0
   13.2790    8.9896  -11.1123 C   0  0  2  0  0  0  0  0  0  0  0  0
   12.9239    8.0108  -12.1830 N   0  0  0  0  0  0  0  0  0  0  0  0
   12.0432   13.3780  -11.2750 C   0  0  1  0  0  0  0  0  0  0  0  0
    8.5150   16.1591  -10.7463 C   0  0  1  0  0  0  0  0  0  0  0  0
   12.8040   13.5830   -6.3211 C   0  0  2  0  0  0  0  0  0  0  0  0
   12.3566   14.7143   -7.1520 N   0  0  0  0  0  0  0  0  0  0  0  0
   12.2713    8.9010   -9.8964 C   0  0  0  0  0  0  0  0  0  0  0  0
   11.7071   14.4734  -10.2177 C   0  0  2  0  0  0  0  0  0  0  0  0
   11.0943   13.9584   -9.0100 O   0  0  0  0  0  0  0  0  0  0  0  0
    7.0036   15.7378  -10.6631 C   0  0  2  0  0  0  0  0  0  0  0  0
    6.5927   14.9813  -11.8837 N   0  0  0  0  0  0  0  0  0  0  0  0
   14.2800   13.8457   -5.9698 C   0  0  1  0  0  0  0  0  0  0  0  0
   14.4150   15.0958   -5.2918 O   0  0  0  0  0  0  0  0  0  0  0  0
   12.7096    9.9376   -8.7938 C   0  0  2  0  0  0  0  0  0  0  0  0
   11.7899    9.8710   -7.6262 N   0  0  0  0  0  0  0  0  0  0  0  0
   10.8434   15.4281  -11.0433 C   0  0  2  0  0  0  0  0  0  0  0  0
    9.4257   15.0746  -10.9658 O   0  0  0  0  0  0  0  0  0  0  0  0
    6.1002   17.0462  -10.4657 C   0  0  1  0  0  0  0  0  0  0  0  0
    6.2631   17.5266   -9.1123 O   0  0  0  0  0  0  0  0  0  0  0  0
   14.8220   12.6781   -5.1141 C   0  0  2  0  0  0  0  0  0  0  0  0
   16.1679   12.9115   -4.7699 O   0  0  0  0  0  0  0  0  0  0  0  0
   12.7168   11.4046   -9.3800 C   0  0  2  0  0  0  0  0  0  0  0  0
   11.3639   15.3303  -12.4872 C   0  0  2  0  0  0  0  0  0  0  0  0
   11.8308   13.9858  -12.5698 O   0  0  0  0  0  0  0  0  0  0  0  0
    6.4662   18.2163  -11.4975 C   0  0  2  0  0  0  0  0  0  0  0  0
    6.0547   17.7903  -12.7958 O   0  0  0  0  0  0  0  0  0  0  0  0
   14.6809   11.3448   -5.9216 C   0  0  2  0  0  0  0  0  0  0  0  0
   13.2778   11.1300   -6.2751 O   0  0  0  0  0  0  0  0  0  0  0  0
   13.6393   11.5537  -10.6096 C   0  0  2  0  0  0  0  0  0  0  0  0
   13.3825   12.8909  -11.1199 O   0  0  0  0  0  0  0  0  0  0  0  0
   12.4964   16.3409  -12.8485 C   0  0  0  0  0  0  0  0  0  0  0  0
   13.0154   16.0251  -14.1368 O   0  0  0  0  0  0  0  0  0  0  0  0
    8.0150   18.5051  -11.4838 C   0  0  1  0  0  0  0  0  0  0  0  0
    8.6723   17.2272  -11.8081 O   0  0  0  0  0  0  0  0  0  0  0  0
   15.1833   10.1440   -5.1539 C   0  0  0  0  0  0  0  0  0  0  0  0
   14.5438   10.0658   -3.9033 O   0  0  0  0  0  0  0  0  0  0  0  0
   13.2828   10.4579  -11.6994 C   0  0  1  0  0  0  0  0  0  0  0  0
   14.2319   10.4982  -12.7686 O   0  0  0  0  0  0  0  0  0  0  0  0
    8.4724   19.6335  -12.5065 C   0  0  0  0  0  0  0  0  0  0  0  0
    9.9285   19.6688  -12.8149 N   0  0  0  0  0  0  0  0  0  0  0  0
  1  2  1  6  0  0  0
  1  7  1  0  0  0  0
  1 30  1  0  0  0  0
  3  4  1  6  0  0  0
  3  9  1  0  0  0  0
  3 39  1  0  0  0  0
  5 10  1  0  0  0  0
  5 26  1  0  0  0  0
  5 32  1  6  0  0  0
  6 12  1  0  0  0  0
  6 36  1  0  0  0  0
  6 19  1  6  0  0  0
  7  8  1  6  0  0  0
  7 14  1  0  0  0  0
  9 16  1  0  0  0  0
 10 11  1  1  0  0  0
 10 18  1  0  0  0  0
 12 13  1  6  0  0  0
 12 20  1  0  0  0  0
 14 15  1  1  0  0  0
 14 22  1  0  0  0  0
 16 17  1  1  0  0  0
 16 24  1  0  0  0  0
 18 19  1  6  0  0  0
 18 25  1  0  0  0  0
 20 21  1  1  0  0  0
 20 27  1  0  0  0  0
 22 23  1  6  0  0  0
 22 29  1  0  0  0  0
 24  2  1  1  0  0  0
 24 31  1  0  0  0  0
 25 26  1  0  0  0  0
 25 33  1  1  0  0  0
 27 28  1  6  0  0  0
 27 35  1  0  0  0  0
 29 30  1  0  0  0  0
 29 37  1  1  0  0  0
 31 32  1  6  0  0  0
 31 39  1  0  0  0  0
 33 34  1  0  0  0  0
 35 36  1  0  0  0  0
 35 41  1  6  0  0  0
 37 38  1  0  0  0  0
 39 40  1  6  0  0  0
 41 42  1  0  0  0  0
M  END
>  <CHROM.1>
-158.18875722,-46.50253609,134.63671505,-179.75323852,171.89793025,54.51627221
-45.98390856,108.81374777,-163.07537078,11.55136069,13.80122061,-9.67940022
0.19985969,-0.90696122,1.17858143

>  <Name>
ligand

>  <RI>
0

>  <Rbt.Current_Directory>
/home/itssahil/PROJECTS/Mol_Feturizer/Test_systems_manuscript/rnas/2o3w

>  <Rbt.Executable>
rbdock ($Id: //depot/dev/client3/rdock/2013.1/src/exe/rbdock.cxx#4 $)

>  <Rbt.Library>
libRbt.so (2013.1, Build901 2013/11/27)

>  <Rbt.Parameter_File>
/export/apps/rDock/src/rDock_2013.1_src/data/scripts/dock_solv.prm

>  <Rbt.Receptor>
prm/blind_docking_80.prm

>  <SCORE>
9.61154

>  <SCORE.INTER>
-1.60359

>  <SCORE.INTER.CONST>
1

>  <SCORE.INTER.POLAR>
0

>  <SCORE.INTER.ROT>
9

>  <SCORE.INTER.SOLV>
31.9717

>  <SCORE.INTER.VDW>
-21.3263

>  <SCORE.INTER.norm>
-0.0381808

>  <SCORE.INTRA>
2.54834

>  <SCORE.INTRA.DIHEDRAL>
-9.77849

>  <SCORE.INTRA.DIHEDRAL.0>
27.8999

>  <SCORE.INTRA.POLAR>
0

>  <SCORE.INTRA.POLAR.0>
0

>  <SCORE.INTRA.REPUL>
0

>  <SCORE.INTRA.REPUL.0>
0

>  <SCORE.INTRA.SOLV>
0.644209

>  <SCORE.INTRA.SOLV.lig_0>
-104.479

>  <SCORE.INTRA.VDW>
7.11548

>  <SCORE.INTRA.VDW.0>
-6.17816

>  <SCORE.INTRA.norm>
0.0606748

>  <SCORE.RESTR>
8.66679

>  <SCORE.RESTR.CAVITY>
8.66679

>  <SCORE.RESTR.norm>
0.206352

>  <SCORE.SYSTEM>
0

>  <SCORE.SYSTEM.CONST>
0

>  <SCORE.SYSTEM.DIHEDRAL>
0

>  <SCORE.SYSTEM.SOLV>
0

>  <SCORE.SYSTEM.norm>
0

>  <SCORE.heavy>
42

>  <SCORE.norm>
0.228846

>  <RMSD>
18.034

$$$$
ligand
 OpenBabel02271912133D
libRbt.so/2013.1/901 2013/11/27
 42 45  0  0  0  0  0  0  0  0999 V2000
   12.1302   10.0551   -8.4266 C   0  0  2  0  0  0  0  0  0  0  0  0
   11.6627   10.5779   -9.6817 O   0  0  0  0  0  0  0  0  0  0  0  0
   15.0060    9.2870  -12.1213 C   0  0  2  0  0  0  0  0  0  0  0  0
   15.9479    9.0924  -13.2639 N   0  0  0  0  0  0  0  0  0  0  0  0
   12.2555   13.0310  -10.7890 C   0  0  1  0  0  0  0  0  0  0  0  0
    8.9452   16.0522  -10.7007 C   0  0  1  0  0  0  0  0  0  0  0  0
   10.9009    9.9991   -7.4707 C   0  0  2  0  0  0  0  0  0  0  0  0
    9.7375    9.3375   -8.0867 N   0  0  0  0  0  0  0  0  0  0  0  0
   13.5836    8.6724  -12.4390 C   0  0  0  0  0  0  0  0  0  0  0  0
   11.9941   14.3957  -10.0819 C   0  0  2  0  0  0  0  0  0  0  0  0
   11.3632   14.2752   -8.7832 O   0  0  0  0  0  0  0  0  0  0  0  0
    7.4052   15.8576  -10.9446 C   0  0  2  0  0  0  0  0  0  0  0  0
    7.1400   15.3995  -12.3413 N   0  0  0  0  0  0  0  0  0  0  0  0
   10.4359   11.4005   -7.0340 C   0  0  1  0  0  0  0  0  0  0  0  0
    9.3348   11.2998   -6.1295 O   0  0  0  0  0  0  0  0  0  0  0  0
   12.6446    8.8882  -11.1923 C   0  0  2  0  0  0  0  0  0  0  0  0
   11.2993    8.3080  -11.4513 N   0  0  0  0  0  0  0  0  0  0  0  0
   11.1804   15.1314  -11.1477 C   0  0  2  0  0  0  0  0  0  0  0  0
    9.7452   14.8978  -10.9853 O   0  0  0  0  0  0  0  0  0  0  0  0
    6.6431   17.2325  -10.6354 C   0  0  1  0  0  0  0  0  0  0  0  0
    6.6090   17.4364   -9.2050 O   0  0  0  0  0  0  0  0  0  0  0  0
   11.6211   12.1620   -6.3978 C   0  0  2  0  0  0  0  0  0  0  0  0
   11.2075   13.4413   -5.9773 O   0  0  0  0  0  0  0  0  0  0  0  0
   12.5036   10.4264  -10.8608 C   0  0  2  0  0  0  0  0  0  0  0  0
   11.6809   14.6041  -12.5030 C   0  0  2  0  0  0  0  0  0  0  0  0
   12.0673   13.2648  -12.2035 O   0  0  0  0  0  0  0  0  0  0  0  0
    7.3300   18.4967  -11.3408 C   0  0  2  0  0  0  0  0  0  0  0  0
    7.1179   18.3738  -12.7466 O   0  0  0  0  0  0  0  0  0  0  0  0
   12.7788   12.2715   -7.4453 C   0  0  2  0  0  0  0  0  0  0  0  0
   13.1836   10.9325   -7.8730 O   0  0  0  0  0  0  0  0  0  0  0  0
   13.8633   11.1086  -10.5940 C   0  0  2  0  0  0  0  0  0  0  0  0
   13.5652   12.5284  -10.4940 O   0  0  0  0  0  0  0  0  0  0  0  0
   12.8674   15.4051  -13.1233 C   0  0  0  0  0  0  0  0  0  0  0  0
   12.5132   16.7823  -13.2057 O   0  0  0  0  0  0  0  0  0  0  0  0
    8.8727   18.5398  -11.0239 C   0  0  1  0  0  0  0  0  0  0  0  0
    9.4219   17.2542  -11.4886 O   0  0  0  0  0  0  0  0  0  0  0  0
   13.9867   12.9999   -6.9029 C   0  0  0  0  0  0  0  0  0  0  0  0
   14.5073   12.3140   -5.7903 O   0  0  0  0  0  0  0  0  0  0  0  0
   14.8633   10.8271  -11.7925 C   0  0  1  0  0  0  0  0  0  0  0  0
   16.1650   11.3287  -11.4772 O   0  0  0  0  0  0  0  0  0  0  0  0
    9.6422   19.7480  -11.7143 C   0  0  0  0  0  0  0  0  0  0  0  0
    9.9772   19.5581  -13.1525 N   0  0  0  0  0  0  0  0  0  0  0  0
  1  2  1  6  0  0  0
  1  7  1  0  0  0  0
  1 30  1  0  0  0  0
  3  4  1  6  0  0  0
  3  9  1  0  0  0  0
  3 39  1  0  0  0  0
  5 10  1  0  0  0  0
  5 26  1  0  0  0  0
  5 32  1  6  0  0  0
  6 12  1  0  0  0  0
  6 36  1  0  0  0  0
  6 19  1  6  0  0  0
  7  8  1  6  0  0  0
  7 14  1  0  0  0  0
  9 16  1  0  0  0  0
 10 11  1  1  0  0  0
 10 18  1  0  0  0  0
 12 13  1  6  0  0  0
 12 20  1  0  0  0  0
 14 15  1  1  0  0  0
 14 22  1  0  0  0  0
 16 17  1  6  0  0  0
 16 24  1  0  0  0  0
 18 19  1  1  0  0  0
 18 25  1  0  0  0  0
 20 21  1  1  0  0  0
 20 27  1  0  0  0  0
 22 23  1  6  0  0  0
 22 29  1  0  0  0  0
 24  2  1  1  0  0  0
 24 31  1  0  0  0  0
 25 26  1  0  0  0  0
 25 33  1  1  0  0  0
 27 28  1  6  0  0  0
 27 35  1  0  0  0  0
 29 30  1  0  0  0  0
 29 37  1  1  0  0  0
 31 32  1  6  0  0  0
 31 39  1  0  0  0  0
 33 34  1  0  0  0  0
 35 36  1  0  0  0  0
 35 41  1  6  0  0  0
 37 38  1  0  0  0  0
 39 40  1  1  0  0  0
 41 42  1  0  0  0  0
M  END
>  <CHROM.1>
-164.54388384,64.65573271,117.38741054,162.98781801,-54.18581288,60.82956718
-7.13838644,156.50783615,-79.28653797,11.32955417,13.43636199,-10.24109060
0.70186216,-0.79118796,2.20838938

>  <Name>
ligand

>  <RI>
0

>  <Rbt.Current_Directory>
/home/itssahil/PROJECTS/Mol_Feturizer/Test_systems_manuscript/rnas/2o3w

>  <Rbt.Executable>
rbdock ($Id: //depot/dev/client3/rdock/2013.1/src/exe/rbdock.cxx#4 $)

>  <Rbt.Library>
libRbt.so (2013.1, Build901 2013/11/27)

>  <Rbt.Parameter_File>
/export/apps/rDock/src/rDock_2013.1_src/data/scripts/dock_solv.prm

>  <Rbt.Receptor>
prm/blind_docking_80.prm

>  <SCORE>
9.53707

>  <SCORE.INTER>
-0.774714

>  <SCORE.INTER.CONST>
1

>  <SCORE.INTER.POLAR>
0

>  <SCORE.INTER.ROT>
9

>  <SCORE.INTER.SOLV>
27.6723

>  <SCORE.INTER.VDW>
-19.3406

>  <SCORE.INTER.norm>
-0.0184456

>  <SCORE.INTRA>
-0.203791

>  <SCORE.INTRA.DIHEDRAL>
-7.37973

>  <SCORE.INTRA.DIHEDRAL.0>
27.8999

>  <SCORE.INTRA.POLAR>
0

>  <SCORE.INTRA.POLAR.0>
0

>  <SCORE.INTRA.REPUL>
0

>  <SCORE.INTRA.REPUL.0>
0

>  <SCORE.INTRA.SOLV>
-1.30807

>  <SCORE.INTRA.SOLV.lig_0>
-104.479

>  <SCORE.INTRA.VDW>
4.14011

>  <SCORE.INTRA.VDW.0>
-6.17816

>  <SCORE.INTRA.norm>
-0.00485217

>  <SCORE.RESTR>
10.5156

>  <SCORE.RESTR.CAVITY>
10.5156

>  <SCORE.RESTR.norm>
0.250371

>  <SCORE.SYSTEM>
0

>  <SCORE.SYSTEM.CONST>
0

>  <SCORE.SYSTEM.DIHEDRAL>
0

>  <SCORE.SYSTEM.SOLV>
0

>  <SCORE.SYSTEM.norm>
0

>  <SCORE.heavy>
42

>  <SCORE.norm>
0.227073

>  <RMSD>
18.037

$$$$
ligand
 OpenBabel02271912133D
libRbt.so/2013.1/901 2013/11/27
 42 45  0  0  0  0  0  0  0  0999 V2000
   13.2897   12.2488  -12.5132 C   0  0  2  0  0  0  0  0  0  0  0  0
   12.9585   13.1679  -11.4582 O   0  0  0  0  0  0  0  0  0  0  0  0
   10.9966   17.0340  -11.4766 C   0  0  2  0  0  0  0  0  0  0  0  0
    9.9894   18.1225  -11.6530 N   0  0  0  0  0  0  0  0  0  0  0  0
   11.5127   12.5120   -9.0912 C   0  0  1  0  0  0  0  0  0  0  0  0
   14.3994   11.1408   -6.2555 C   0  0  1  0  0  0  0  0  0  0  0  0
   12.2158   11.1199  -12.4870 C   0  0  2  0  0  0  0  0  0  0  0  0
   10.8414   11.6498  -12.4594 N   0  0  0  0  0  0  0  0  0  0  0  0
   11.4324   16.4240  -12.8694 C   0  0  0  0  0  0  0  0  0  0  0  0
   12.2420   13.0038   -7.8039 C   0  0  2  0  0  0  0  0  0  0  0  0
   13.5927   13.4742   -8.0351 O   0  0  0  0  0  0  0  0  0  0  0  0
   14.6277   10.1251   -5.0787 C   0  0  2  0  0  0  0  0  0  0  0  0
   13.4161   10.0341   -4.2099 N   0  0  0  0  0  0  0  0  0  0  0  0
   12.3632   10.2017  -11.2598 C   0  0  1  0  0  0  0  0  0  0  0  0
   11.3858    9.1604  -11.2975 O   0  0  0  0  0  0  0  0  0  0  0  0
   12.5086   15.3006  -12.6202 C   0  0  2  0  0  0  0  0  0  0  0  0
   12.9527   14.7135  -13.9132 N   0  0  0  0  0  0  0  0  0  0  0  0
   12.1140   11.7750   -6.9022 C   0  0  2  0  0  0  0  0  0  0  0  0
   13.2496   10.8670   -7.0657 O   0  0  0  0  0  0  0  0  0  0  0  0
   15.9105   10.5768   -4.2318 C   0  0  1  0  0  0  0  0  0  0  0  0
   17.1016   10.2878   -4.9978 O   0  0  0  0  0  0  0  0  0  0  0  0
   13.7977    9.6279  -11.2144 C   0  0  2  0  0  0  0  0  0  0  0  0
   13.9440    8.7716  -10.1054 O   0  0  0  0  0  0  0  0  0  0  0  0
   11.9215   14.1624  -11.6951 C   0  0  2  0  0  0  0  0  0  0  0  0
   10.7937   11.0931   -7.2989 C   0  0  2  0  0  0  0  0  0  0  0  0
   10.6744   11.4061   -8.6846 O   0  0  0  0  0  0  0  0  0  0  0  0
   15.8854   12.1319   -3.8464 C   0  0  2  0  0  0  0  0  0  0  0  0
   14.8429   12.3223   -2.8907 O   0  0  0  0  0  0  0  0  0  0  0  0
   14.8188   10.8115  -11.1376 C   0  0  2  0  0  0  0  0  0  0  0  0
   14.6408   11.6905  -12.2932 O   0  0  0  0  0  0  0  0  0  0  0  0
   11.4218   14.6949  -10.3342 C   0  0  2  0  0  0  0  0  0  0  0  0
   10.7576   13.5659   -9.7028 O   0  0  0  0  0  0  0  0  0  0  0  0
    9.5399   11.5745   -6.5048 C   0  0  0  0  0  0  0  0  0  0  0  0
    9.5240   12.9983   -6.4687 O   0  0  0  0  0  0  0  0  0  0  0  0
   15.6227   13.0168   -5.1232 C   0  0  1  0  0  0  0  0  0  0  0  0
   14.3483   12.5456   -5.6925 O   0  0  0  0  0  0  0  0  0  0  0  0
   16.2539   10.3397  -11.0958 C   0  0  0  0  0  0  0  0  0  0  0  0
   16.6073    9.7528  -12.3246 O   0  0  0  0  0  0  0  0  0  0  0  0
   10.4068   15.8938  -10.5531 C   0  0  1  0  0  0  0  0  0  0  0  0
   10.0621   16.4842   -9.2968 O   0  0  0  0  0  0  0  0  0  0  0  0
   15.5483   14.5771   -4.8257 C   0  0  0  0  0  0  0  0  0  0  0  0
   14.8264   14.9599   -3.5812 N   0  0  0  0  0  0  0  0  0  0  0  0
  1  2  1  1  0  0  0
  1  7  1  0  0  0  0
  1 30  1  0  0  0  0
  3  4  1  6  0  0  0
  3  9  1  0  0  0  0
  3 39  1  0  0  0  0
  5 10  1  0  0  0  0
  5 26  1  0  0  0  0
  5 32  1  1  0  0  0
  6 12  1  0  0  0  0
  6 36  1  0  0  0  0
  6 19  1  1  0  0  0
  7  8  1  1  0  0  0
  7 14  1  0  0  0  0
  9 16  1  0  0  0  0
 10 11  1  6  0  0  0
 10 18  1  0  0  0  0
 12 13  1  1  0  0  0
 12 20  1  0  0  0  0
 14 15  1  6  0  0  0
 14 22  1  0  0  0  0
 16 17  1  6  0  0  0
 16 24  1  0  0  0  0
 18 19  1  6  0  0  0
 18 25  1  0  0  0  0
 20 21  1  6  0  0  0
 20 27  1  0  0  0  0
 22 23  1  1  0  0  0
 22 29  1  0  0  0  0
 24  2  1  1  0  0  0
 24 31  1  0  0  0  0
 25 26  1  0  0  0  0
 25 33  1  1  0  0  0
 27 28  1  1  0  0  0
 27 35  1  0  0  0  0
 29 30  1  0  0  0  0
 29 37  1  6  0  0  0
 31 32  1  6  0  0  0
 31 39  1  0  0  0  0
 33 34  1  0  0  0  0
 35 36  1  0  0  0  0
 35 41  1  1  0  0  0
 37 38  1  0  0  0  0
 39 40  1  1  0  0  0
 41 42  1  0  0  0  0
M  END
>  <CHROM.1>
-80.81884667,-75.33926496,86.59900037,107.58790336,47.38372384,67.82328510
77.18513414,68.73721582,-40.35489601,12.99040829,12.48188238,-8.84866565
-2.26868242,-0.95289708,1.29947699

>  <Name>
ligand

>  <RI>
0

>  <Rbt.Current_Directory>
/home/itssahil/PROJECTS/Mol_Feturizer/Test_systems_manuscript/rnas/2o3w

>  <Rbt.Executable>
rbdock ($Id: //depot/dev/client3/rdock/2013.1/src/exe/rbdock.cxx#4 $)

>  <Rbt.Library>
libRbt.so (2013.1, Build901 2013/11/27)

>  <Rbt.Parameter_File>
/export/apps/rDock/src/rDock_2013.1_src/data/scripts/dock_solv.prm

>  <Rbt.Receptor>
prm/blind_docking_80.prm

>  <SCORE>
1.93058

>  <SCORE.INTER>
-4.79298

>  <SCORE.INTER.CONST>
1

>  <SCORE.INTER.POLAR>
0

>  <SCORE.INTER.ROT>
9

>  <SCORE.INTER.SOLV>
31.6197

>  <SCORE.INTER.VDW>
-23.3352

>  <SCORE.INTER.norm>
-0.114119

>  <SCORE.INTRA>
-3.21313

>  <SCORE.INTRA.DIHEDRAL>
-11.6112

>  <SCORE.INTRA.DIHEDRAL.0>
27.8999

>  <SCORE.INTRA.POLAR>
0

>  <SCORE.INTRA.POLAR.0>
0

>  <SCORE.INTRA.REPUL>
0

>  <SCORE.INTRA.REPUL.0>
0

>  <SCORE.INTRA.SOLV>
2.67384

>  <SCORE.INTRA.SOLV.lig_0>
-104.479

>  <SCORE.INTRA.VDW>
1.25553

>  <SCORE.INTRA.VDW.0>
-6.17816

>  <SCORE.INTRA.norm>
-0.0765032

>  <SCORE.RESTR>
9.93669

>  <SCORE.RESTR.CAVITY>
9.93669

>  <SCORE.RESTR.norm>
0.236588

>  <SCORE.SYSTEM>
0

>  <SCORE.SYSTEM.CONST>
0

>  <SCORE.SYSTEM.DIHEDRAL>
0

>  <SCORE.SYSTEM.SOLV>
0

>  <SCORE.SYSTEM.norm>
0

>  <SCORE.heavy>
42

>  <SCORE.norm>
0.0459661

>  <RMSD>
18.054

$$$$
ligand
 OpenBabel02271912133D
libRbt.so/2013.1/901 2013/11/27
 42 45  0  0  0  0  0  0  0  0999 V2000
   12.1670   10.3476   -7.5621 C   0  0  2  0  0  0  0  0  0  0  0  0
   12.7549   10.7502   -8.8110 O   0  0  0  0  0  0  0  0  0  0  0  0
   11.8513    8.9069  -12.6296 C   0  0  2  0  0  0  0  0  0  0  0  0
   11.2046    8.5640  -13.9314 N   0  0  0  0  0  0  0  0  0  0  0  0
   11.8643   13.1510  -11.1037 C   0  0  1  0  0  0  0  0  0  0  0  0
    9.2918   16.8131  -10.5133 C   0  0  1  0  0  0  0  0  0  0  0  0
   11.2215   11.5013   -7.1115 C   0  0  2  0  0  0  0  0  0  0  0  0
   10.3051   11.9301   -8.1824 N   0  0  0  0  0  0  0  0  0  0  0  0
   10.8975    8.5794  -11.4110 C   0  0  0  0  0  0  0  0  0  0  0  0
   12.0659   14.3596  -10.1396 C   0  0  2  0  0  0  0  0  0  0  0  0
   11.6294   14.1088   -8.7810 O   0  0  0  0  0  0  0  0  0  0  0  0
    7.7487   16.8119  -10.2171 C   0  0  2  0  0  0  0  0  0  0  0  0
    7.0271   15.8959  -11.1504 N   0  0  0  0  0  0  0  0  0  0  0  0
   11.9989   12.7528   -6.6639 C   0  0  1  0  0  0  0  0  0  0  0  0
   11.0958   13.7680   -6.2228 O   0  0  0  0  0  0  0  0  0  0  0  0
   11.6411    8.9402  -10.0696 C   0  0  2  0  0  0  0  0  0  0  0  0
   10.7764    8.6305   -8.8992 N   0  0  0  0  0  0  0  0  0  0  0  0
   11.3123   15.4626  -10.8844 C   0  0  2  0  0  0  0  0  0  0  0  0
    9.9063   15.5188  -10.4833 O   0  0  0  0  0  0  0  0  0  0  0  0
    7.1875   18.3083  -10.3307 C   0  0  1  0  0  0  0  0  0  0  0  0
    7.6261   19.0606   -9.1772 O   0  0  0  0  0  0  0  0  0  0  0  0
   13.0010   12.3671   -5.5521 C   0  0  2  0  0  0  0  0  0  0  0  0
   13.7092   13.5054   -5.1195 O   0  0  0  0  0  0  0  0  0  0  0  0
   12.0370   10.4695  -10.0463 C   0  0  2  0  0  0  0  0  0  0  0  0
   11.4522   15.1364  -12.3808 C   0  0  2  0  0  0  0  0  0  0  0  0
   11.5291   13.7129  -12.3933 O   0  0  0  0  0  0  0  0  0  0  0  0
    7.6638   19.0514  -11.6681 C   0  0  2  0  0  0  0  0  0  0  0  0
    7.0038   18.4251  -12.7674 O   0  0  0  0  0  0  0  0  0  0  0  0
   13.9836   11.2814   -6.1047 C   0  0  2  0  0  0  0  0  0  0  0  0
   13.2247   10.1150   -6.5557 O   0  0  0  0  0  0  0  0  0  0  0  0
   12.9253   10.8764  -11.2423 C   0  0  2  0  0  0  0  0  0  0  0  0
   13.0340   12.3243  -11.1622 O   0  0  0  0  0  0  0  0  0  0  0  0
   12.6942   15.7716  -13.0795 C   0  0  0  0  0  0  0  0  0  0  0  0
   12.4393   15.8896  -14.4759 O   0  0  0  0  0  0  0  0  0  0  0  0
    9.2265   18.9439  -11.8372 C   0  0  1  0  0  0  0  0  0  0  0  0
    9.5400   17.5045  -11.8374 O   0  0  0  0  0  0  0  0  0  0  0  0
   14.9991   10.8389   -5.0766 C   0  0  0  0  0  0  0  0  0  0  0  0
   14.3930    9.9946   -4.1285 O   0  0  0  0  0  0  0  0  0  0  0  0
   12.2442   10.4385  -12.6061 C   0  0  1  0  0  0  0  0  0  0  0  0
   13.1330   10.6780  -13.7008 O   0  0  0  0  0  0  0  0  0  0  0  0
    9.7832   19.6279  -13.1604 C   0  0  0  0  0  0  0  0  0  0  0  0
   11.1776   19.2634  -13.5339 N   0  0  0  0  0  0  0  0  0  0  0  0
  1  2  1  6  0  0  0
  1  7  1  0  0  0  0
  1 30  1  0  0  0  0
  3  4  1  6  0  0  0
  3  9  1  0  0  0  0
  3 39  1  0  0  0  0
  5 10  1  0  0  0  0
  5 26  1  0  0  0  0
  5 32  1  6  0  0  0
  6 12  1  0  0  0  0
  6 36  1  0  0  0  0
  6 19  1  6  0  0  0
  7  8  1  6  0  0  0
  7 14  1  0  0  0  0
  9 16  1  0  0  0  0
 10 11  1  1  0  0  0
 10 18  1  0  0  0  0
 12 13  1  6  0  0  0
 12 20  1  0  0  0  0
 14 15  1  1  0  0  0
 14 22  1  0  0  0  0
 16 17  1  1  0  0  0
 16 24  1  0  0  0  0
 18 19  1  1  0  0  0
 18 25  1  0  0  0  0
 20 21  1  1  0  0  0
 20 27  1  0  0  0  0
 22 23  1  6  0  0  0
 22 29  1  0  0  0  0
 24  2  1  1  0  0  0
 24 31  1  0  0  0  0
 25 26  1  0  0  0  0
 25 33  1  1  0  0  0
 27 28  1  6  0  0  0
 27 35  1  0  0  0  0
 29 30  1  0  0  0  0
 29 37  1  1  0  0  0
 31 32  1  6  0  0  0
 31 39  1  0  0  0  0
 33 34  1  0  0  0  0
 35 36  1  0  0  0  0
 35 41  1  6  0  0  0
 37 38  1  0  0  0  0
 39 40  1  6  0  0  0
 41 42  1  0  0  0  0
M  END
>  <CHROM.1>
-86.46854404,-51.54736973,148.36777477,174.12473868,-155.81977911,74.96854411
-54.14264338,141.80480741,-165.27198445,11.22596819,13.60136083,-10.05106485
0.17737152,-1.14608650,1.27477987

>  <Name>
ligand

>  <RI>
0

>  <Rbt.Current_Directory>
/home/itssahil/PROJECTS/Mol_Feturizer/Test_systems_manuscript/rnas/2o3w

>  <Rbt.Executable>
rbdock ($Id: //depot/dev/client3/rdock/2013.1/src/exe/rbdock.cxx#4 $)

>  <Rbt.Library>
libRbt.so (2013.1, Build901 2013/11/27)

>  <Rbt.Parameter_File>
/export/apps/rDock/src/rDock_2013.1_src/data/scripts/dock_solv.prm

>  <Rbt.Receptor>
prm/blind_docking_100.prm

>  <SCORE>
5.03047

>  <SCORE.INTER>
-3.50642

>  <SCORE.INTER.CONST>
1

>  <SCORE.INTER.POLAR>
0

>  <SCORE.INTER.ROT>
9

>  <SCORE.INTER.SOLV>
25.669

>  <SCORE.INTER.VDW>
-20.4939

>  <SCORE.INTER.norm>
-0.0834862

>  <SCORE.INTRA>
0.723152

>  <SCORE.INTRA.DIHEDRAL>
-11.8138

>  <SCORE.INTRA.DIHEDRAL.0>
27.8999

>  <SCORE.INTRA.POLAR>
0

>  <SCORE.INTRA.POLAR.0>
0

>  <SCORE.INTRA.REPUL>
0.0649424

>  <SCORE.INTRA.REPUL.0>
0

>  <SCORE.INTRA.SOLV>
2.73698

>  <SCORE.INTRA.SOLV.lig_0>
-104.479

>  <SCORE.INTRA.VDW>
4.93686

>  <SCORE.INTRA.VDW.0>
-6.17816

>  <SCORE.INTRA.norm>
0.0172179

>  <SCORE.RESTR>
7.81374

>  <SCORE.RESTR.CAVITY>
7.81374

>  <SCORE.RESTR.norm>
0.186041

>  <SCORE.SYSTEM>
0

>  <SCORE.SYSTEM.CONST>
0

>  <SCORE.SYSTEM.DIHEDRAL>
0

>  <SCORE.SYSTEM.SOLV>
0

>  <SCORE.SYSTEM.norm>
0

>  <SCORE.heavy>
42

>  <SCORE.norm>
0.119773

>  <RMSD>
18.058

$$$$
ligand
 OpenBabel02271912133D
libRbt.so/2013.1/901 2013/11/27
 42 45  0  0  0  0  0  0  0  0999 V2000
   12.6890   11.1504   -6.2880 C   0  0  2  0  0  0  0  0  0  0  0  0
   13.3639   10.7312   -7.4864 O   0  0  0  0  0  0  0  0  0  0  0  0
   11.2943    8.8332  -10.7895 C   0  0  2  0  0  0  0  0  0  0  0  0
   10.5338    8.6031  -12.0541 N   0  0  0  0  0  0  0  0  0  0  0  0
   14.2678   12.1153  -10.7427 C   0  0  1  0  0  0  0  0  0  0  0  0
   12.3180   15.0779  -13.5357 C   0  0  1  0  0  0  0  0  0  0  0  0
   12.6254   12.7069   -6.3223 C   0  0  2  0  0  0  0  0  0  0  0  0
   12.1104   13.2221   -7.6029 N   0  0  0  0  0  0  0  0  0  0  0  0
   10.4222    9.6203   -9.7304 C   0  0  0  0  0  0  0  0  0  0  0  0
   13.5924   11.8775  -12.1276 C   0  0  2  0  0  0  0  0  0  0  0  0
   14.5264   11.7924  -13.2319 O   0  0  0  0  0  0  0  0  0  0  0  0
   13.0004   15.9015  -14.6867 C   0  0  2  0  0  0  0  0  0  0  0  0
   14.1408   16.7098  -14.1603 N   0  0  0  0  0  0  0  0  0  0  0  0
   14.0062   13.3531   -6.1061 C   0  0  1  0  0  0  0  0  0  0  0  0
   13.8943   14.7773   -6.1055 O   0  0  0  0  0  0  0  0  0  0  0  0
   11.2676    9.8121   -8.4147 C   0  0  2  0  0  0  0  0  0  0  0  0
   10.4710   10.5380   -7.3890 N   0  0  0  0  0  0  0  0  0  0  0  0
   12.6072   13.0462  -12.1821 C   0  0  2  0  0  0  0  0  0  0  0  0
   13.2079   14.2278  -12.8015 O   0  0  0  0  0  0  0  0  0  0  0  0
   11.9057   16.8386  -15.3869 C   0  0  1  0  0  0  0  0  0  0  0  0
   11.0371   16.0164  -16.1983 O   0  0  0  0  0  0  0  0  0  0  0  0
   14.6169   12.8344   -4.7843 C   0  0  2  0  0  0  0  0  0  0  0  0
   15.8745   13.4295   -4.5632 O   0  0  0  0  0  0  0  0  0  0  0  0
   12.5960   10.6117   -8.7178 C   0  0  2  0  0  0  0  0  0  0  0  0
   12.2002   13.3265  -10.7257 C   0  0  2  0  0  0  0  0  0  0  0  0
   13.3643   12.9570   -9.9902 O   0  0  0  0  0  0  0  0  0  0  0  0
   11.0285   17.6659  -14.3316 C   0  0  2  0  0  0  0  0  0  0  0  0
   11.8817   18.6397  -13.7314 O   0  0  0  0  0  0  0  0  0  0  0  0
   14.7476   11.2766   -4.8589 C   0  0  2  0  0  0  0  0  0  0  0  0
   13.4321   10.6834   -5.0982 O   0  0  0  0  0  0  0  0  0  0  0  0
   13.4748    9.9290   -9.7887 C   0  0  2  0  0  0  0  0  0  0  0  0
   14.5396   10.8783  -10.0710 O   0  0  0  0  0  0  0  0  0  0  0  0
   10.9487   12.5385  -10.2288 C   0  0  0  0  0  0  0  0  0  0  0  0
    9.9968   12.4528  -11.2849 O   0  0  0  0  0  0  0  0  0  0  0  0
   10.4348   16.7083  -13.2304 C   0  0  1  0  0  0  0  0  0  0  0  0
   11.5879   16.0307  -12.6126 O   0  0  0  0  0  0  0  0  0  0  0  0
   15.3330   10.6811   -3.5994 C   0  0  0  0  0  0  0  0  0  0  0  0
   16.7143   10.9410   -3.5367 O   0  0  0  0  0  0  0  0  0  0  0  0
   12.6220    9.6364  -11.0937 C   0  0  1  0  0  0  0  0  0  0  0  0
   13.3918    8.8708  -12.0247 O   0  0  0  0  0  0  0  0  0  0  0  0
    9.5752   17.4534  -12.1193 C   0  0  0  0  0  0  0  0  0  0  0  0
   10.3053   18.4765  -11.3214 N   0  0  0  0  0  0  0  0  0  0  0  0
  1  2  1  6  0  0  0
  1  7  1  0  0  0  0
  1 30  1  0  0  0  0
  3  4  1  6  0  0  0
  3  9  1  0  0  0  0
  3 39  1  0  0  0  0
  5 10  1  0  0  0  0
  5 26  1  0  0  0  0
  5 32  1  1  0  0  0
  6 12  1  0  0  0  0
  6 36  1  0  0  0  0
  6 19  1  1  0  0  0
  7  8  1  6  0  0  0
  7 14  1  0  0  0  0
  9 16  1  0  0  0  0
 10 11  1  6  0  0  0
 10 18  1  0  0  0  0
 12 13  1  1  0  0  0
 12 20  1  0  0  0  0
 14 15  1  1  0  0  0
 14 22  1  0  0  0  0
 16 17  1  1  0  0  0
 16 24  1  0  0  0  0
 18 19  1  1  0  0  0
 18 25  1  0  0  0  0
 20 21  1  1  0  0  0
 20 27  1  0  0  0  0
 22 23  1  6  0  0  0
 22 29  1  0  0  0  0
 24  2  1  1  0  0  0
 24 31  1  0  0  0  0
 25 26  1  0  0  0  0
 25 33  1  1  0  0  0
 27 28  1  1  0  0  0
 27 35  1  0  0  0  0
 29 30  1  0  0  0  0
 29 37  1  1  0  0  0
 31 32  1  6  0  0  0
 31 39  1  0  0  0  0
 33 34  1  0  0  0  0
 35 36  1  0  0  0  0
 35 41  1  1  0  0  0
 37 38  1  0  0  0  0
 39 40  1  6  0  0  0
 41 42  1  0  0  0  0
M  END
>  <CHROM.1>
-83.23800552,-47.33098493,148.20205244,-153.16341587,-37.86534438,-74.15613616
-68.74229790,-57.06871197,-60.67515376,12.69586985,12.93750730,-10.01357795
-0.69752855,-1.24576905,-0.16072953

>  <Name>
ligand

>  <RI>
0

>  <Rbt.Current_Directory>
/home/itssahil/PROJECTS/Mol_Feturizer/Test_systems_manuscript/rnas/2o3w

>  <Rbt.Executable>
rbdock ($Id: //depot/dev/client3/rdock/2013.1/src/exe/rbdock.cxx#4 $)

>  <Rbt.Library>
libRbt.so (2013.1, Build901 2013/11/27)

>  <Rbt.Parameter_File>
/export/apps/rDock/src/rDock_2013.1_src/data/scripts/dock_solv.prm

>  <Rbt.Receptor>
prm/blind_docking_100.prm

>  <SCORE>
2.16722

>  <SCORE.INTER>
-6.66165

>  <SCORE.INTER.CONST>
1

>  <SCORE.INTER.POLAR>
0

>  <SCORE.INTER.ROT>
9

>  <SCORE.INTER.SOLV>
29.2779

>  <SCORE.INTER.VDW>
-23.8004

>  <SCORE.INTER.norm>
-0.158611

>  <SCORE.INTRA>
2.94413

>  <SCORE.INTRA.DIHEDRAL>
-15.1157

>  <SCORE.INTRA.DIHEDRAL.0>
27.8999

>  <SCORE.INTRA.POLAR>
0

>  <SCORE.INTRA.POLAR.0>
0

>  <SCORE.INTRA.REPUL>
0.112674

>  <SCORE.INTRA.REPUL.0>
0

>  <SCORE.INTRA.SOLV>
5.95392

>  <SCORE.INTRA.SOLV.lig_0>
-104.479

>  <SCORE.INTRA.VDW>
6.96164

>  <SCORE.INTRA.VDW.0>
-6.17816

>  <SCORE.INTRA.norm>
0.0700984

>  <SCORE.RESTR>
5.88473

>  <SCORE.RESTR.CAVITY>
5.88473

>  <SCORE.RESTR.norm>
0.140113

>  <SCORE.SYSTEM>
0

>  <SCORE.SYSTEM.CONST>
0

>  <SCORE.SYSTEM.DIHEDRAL>
0

>  <SCORE.SYSTEM.SOLV>
0

>  <SCORE.SYSTEM.norm>
0

>  <SCORE.heavy>
42

>  <SCORE.norm>
0.0516005

>  <RMSD>
18.091

$$$$
ligand
 OpenBabel02271912133D
libRbt.so/2013.1/901 2013/11/27
 42 45  0  0  0  0  0  0  0  0999 V2000
   12.3507   12.1127   -7.0307 C   0  0  2  0  0  0  0  0  0  0  0  0
   12.8593   12.0938   -8.3754 O   0  0  0  0  0  0  0  0  0  0  0  0
   12.1599    8.8671  -11.1853 C   0  0  2  0  0  0  0  0  0  0  0  0
   11.5480    7.9896  -12.2274 N   0  0  0  0  0  0  0  0  0  0  0  0
   11.6282   13.3162  -11.4115 C   0  0  1  0  0  0  0  0  0  0  0  0
    9.2197   16.7875  -12.0088 C   0  0  1  0  0  0  0  0  0  0  0  0
   12.6228   13.5374   -6.4612 C   0  0  2  0  0  0  0  0  0  0  0  0
   12.1687   14.6041   -7.3703 N   0  0  0  0  0  0  0  0  0  0  0  0
   11.2739    8.9065   -9.8757 C   0  0  0  0  0  0  0  0  0  0  0  0
   11.7864   14.8308  -11.7455 C   0  0  2  0  0  0  0  0  0  0  0  0
   11.6742   15.7030  -10.5941 O   0  0  0  0  0  0  0  0  0  0  0  0
    9.8011   17.3216  -10.6502 C   0  0  2  0  0  0  0  0  0  0  0  0
    9.2597   16.5436   -9.4958 N   0  0  0  0  0  0  0  0  0  0  0  0
   14.1195   13.7852   -6.1975 C   0  0  1  0  0  0  0  0  0  0  0  0
   14.3178   15.0856   -5.6403 O   0  0  0  0  0  0  0  0  0  0  0  0
   11.9800    9.8267   -8.8093 C   0  0  2  0  0  0  0  0  0  0  0  0
   11.1793    9.8751   -7.5563 N   0  0  0  0  0  0  0  0  0  0  0  0
   10.7135   15.0116  -12.8204 C   0  0  2  0  0  0  0  0  0  0  0  0
    9.4255   15.3878  -12.2369 O   0  0  0  0  0  0  0  0  0  0  0  0
    9.4590   18.8800  -10.5050 C   0  0  1  0  0  0  0  0  0  0  0  0
   10.3025   19.6296  -11.4079 O   0  0  0  0  0  0  0  0  0  0  0  0
   14.6682   12.6817   -5.2646 C   0  0  2  0  0  0  0  0  0  0  0  0
   16.0339   12.9036   -4.9998 O   0  0  0  0  0  0  0  0  0  0  0  0
   12.1692   11.2899   -9.3744 C   0  0  2  0  0  0  0  0  0  0  0  0
   10.6194   13.6648  -13.5570 C   0  0  2  0  0  0  0  0  0  0  0  0
   10.9528   12.7201  -12.5427 O   0  0  0  0  0  0  0  0  0  0  0  0
    7.9209   19.2103  -10.8098 C   0  0  2  0  0  0  0  0  0  0  0  0
    7.1430   18.6571   -9.7490 O   0  0  0  0  0  0  0  0  0  0  0  0
   14.4559   11.2873   -5.9430 C   0  0  2  0  0  0  0  0  0  0  0  0
   13.0332   11.0848   -6.2162 O   0  0  0  0  0  0  0  0  0  0  0  0
   12.9801   11.3242  -10.6883 C   0  0  2  0  0  0  0  0  0  0  0  0
   12.8963   12.6995  -11.1531 O   0  0  0  0  0  0  0  0  0  0  0  0
   11.5647   13.5216  -14.7900 C   0  0  0  0  0  0  0  0  0  0  0  0
   12.8896   13.8828  -14.4114 O   0  0  0  0  0  0  0  0  0  0  0  0
    7.4819   18.5889  -12.1894 C   0  0  1  0  0  0  0  0  0  0  0  0
    7.7503   17.1437  -12.0911 O   0  0  0  0  0  0  0  0  0  0  0  0
   14.9603   10.1442   -5.0930 C   0  0  0  0  0  0  0  0  0  0  0  0
   14.2911   10.1280   -3.8556 O   0  0  0  0  0  0  0  0  0  0  0  0
   12.3459   10.3321  -11.7509 C   0  0  1  0  0  0  0  0  0  0  0  0
   13.1808   10.2502  -12.9093 O   0  0  0  0  0  0  0  0  0  0  0  0
    5.9553   18.8406  -12.5565 C   0  0  0  0  0  0  0  0  0  0  0  0
    5.5882   20.2550  -12.8418 N   0  0  0  0  0  0  0  0  0  0  0  0
  1  2  1  6  0  0  0
  1  7  1  0  0  0  0
  1 30  1  0  0  0  0
  3  4  1  6  0  0  0
  3  9  1  0  0  0  0
  3 39  1  0  0  0  0
  5 10  1  0  0  0  0
  5 26  1  0  0  0  0
  5 32  1  6  0  0  0
  6 12  1  0  0  0  0
  6 36  1  0  0  0  0
  6 19  1  1  0  0  0
  7  8  1  6  0  0  0
  7 14  1  0  0  0  0
  9 16  1  0  0  0  0
 10 11  1  1  0  0  0
 10 18  1  0  0  0  0
 12 13  1  1  0  0  0
 12 20  1  0  0  0  0
 14 15  1  1  0  0  0
 14 22  1  0  0  0  0
 16 17  1  1  0  0  0
 16 24  1  0  0  0  0
 18 19  1  1  0  0  0
 18 25  1  0  0  0  0
 20 21  1  6  0  0  0
 20 27  1  0  0  0  0
 22 23  1  6  0  0  0
 22 29  1  0  0  0  0
 24  2  1  1  0  0  0
 24 31  1  0  0  0  0
 25 26  1  0  0  0  0
 25 33  1  6  0  0  0
 27 28  1  1  0  0  0
 27 35  1  0  0  0  0
 29 30  1  0  0  0  0
 29 37  1  1  0  0  0
 31 32  1  6  0  0  0
 31 39  1  0  0  0  0
 33 34  1  0  0  0  0
 35 36  1  0  0  0  0
 35 41  1  1  0  0  0
 37 38  1  0  0  0  0
 39 40  1  6  0  0  0
 41 42  1  0  0  0  0
M  END
>  <CHROM.1>
-146.32626233,-51.19338679,86.02194275,-84.56882348,50.39978514,59.55009996
-58.10196281,173.71359945,67.61096183,11.41905529,13.83895672,-9.90541414
-0.06962741,-1.01156117,0.87926701

>  <Name>
ligand

>  <RI>
0

>  <Rbt.Current_Directory>
/home/itssahil/PROJECTS/Mol_Feturizer/Test_systems_manuscript/rnas/2o3w

>  <Rbt.Executable>
rbdock ($Id: //depot/dev/client3/rdock/2013.1/src/exe/rbdock.cxx#4 $)

>  <Rbt.Library>
libRbt.so (2013.1, Build901 2013/11/27)

>  <Rbt.Parameter_File>
/export/apps/rDock/src/rDock_2013.1_src/data/scripts/dock_solv.prm

>  <Rbt.Receptor>
prm/blind_docking_60.prm

>  <SCORE>
8.31011

>  <SCORE.INTER>
-5.24491

>  <SCORE.INTER.CONST>
1

>  <SCORE.INTER.POLAR>
0

>  <SCORE.INTER.ROT>
9

>  <SCORE.INTER.SOLV>
29.3883

>  <SCORE.INTER.VDW>
-22.8927

>  <SCORE.INTER.norm>
-0.124879

>  <SCORE.INTRA>
-1.32169

>  <SCORE.INTRA.DIHEDRAL>
-16.94

>  <SCORE.INTRA.DIHEDRAL.0>
27.8999

>  <SCORE.INTRA.POLAR>
0

>  <SCORE.INTRA.POLAR.0>
0

>  <SCORE.INTRA.REPUL>
0.087532

>  <SCORE.INTRA.REPUL.0>
0

>  <SCORE.INTRA.SOLV>
0.769935

>  <SCORE.INTRA.SOLV.lig_0>
-104.479

>  <SCORE.INTRA.VDW>
6.32568

>  <SCORE.INTRA.VDW.0>
-6.17816

>  <SCORE.INTRA.norm>
-0.0314688

>  <SCORE.RESTR>
14.8767

>  <SCORE.RESTR.CAVITY>
14.8767

>  <SCORE.RESTR.norm>
0.354208

>  <SCORE.SYSTEM>
0

>  <SCORE.SYSTEM.CONST>
0

>  <SCORE.SYSTEM.DIHEDRAL>
0

>  <SCORE.SYSTEM.SOLV>
0

>  <SCORE.SYSTEM.norm>
0

>  <SCORE.heavy>
42

>  <SCORE.norm>
0.19786

>  <RMSD>
18.108

$$$$
ligand
 OpenBabel02271912133D
libRbt.so/2013.1/901 2013/11/27
 42 45  0  0  0  0  0  0  0  0999 V2000
   11.8164   11.1033   -7.9257 C   0  0  2  0  0  0  0  0  0  0  0  0
   12.0011   11.7284   -9.2073 O   0  0  0  0  0  0  0  0  0  0  0  0
   14.8571    9.1722  -11.2333 C   0  0  2  0  0  0  0  0  0  0  0  0
   15.5702    8.3737  -12.2746 N   0  0  0  0  0  0  0  0  0  0  0  0
   12.2984   13.3307  -11.3262 C   0  0  1  0  0  0  0  0  0  0  0  0
    8.7489   16.0822  -10.8002 C   0  0  1  0  0  0  0  0  0  0  0  0
   11.0446   12.1190   -7.0309 C   0  0  2  0  0  0  0  0  0  0  0  0
    9.8474   12.6609   -7.6969 N   0  0  0  0  0  0  0  0  0  0  0  0
   13.4191    8.5814  -10.9417 C   0  0  0  0  0  0  0  0  0  0  0  0
   11.9997   14.5158  -10.3581 C   0  0  2  0  0  0  0  0  0  0  0  0
   11.4728   14.1074   -9.0718 O   0  0  0  0  0  0  0  0  0  0  0  0
    7.2382   15.6565  -10.7266 C   0  0  2  0  0  0  0  0  0  0  0  0
    6.8364   14.9019  -11.9513 N   0  0  0  0  0  0  0  0  0  0  0  0
   11.9151   13.3246   -6.6310 C   0  0  1  0  0  0  0  0  0  0  0  0
   11.1814   14.2075   -5.7807 O   0  0  0  0  0  0  0  0  0  0  0  0
   12.7280    9.4496   -9.8232 C   0  0  2  0  0  0  0  0  0  0  0  0
   11.3758    8.9122   -9.5128 N   0  0  0  0  0  0  0  0  0  0  0  0
   11.0654   15.3713  -11.2152 C   0  0  2  0  0  0  0  0  0  0  0  0
    9.6639   15.0008  -11.0173 O   0  0  0  0  0  0  0  0  0  0  0  0
    6.3301   16.9619  -10.5310 C   0  0  1  0  0  0  0  0  0  0  0  0
    6.4841   17.4393   -9.1756 O   0  0  0  0  0  0  0  0  0  0  0  0
   13.2061   12.8232   -5.9447 C   0  0  2  0  0  0  0  0  0  0  0  0
   14.0066   13.9158   -5.5573 O   0  0  0  0  0  0  0  0  0  0  0  0
   12.6069   10.9562  -10.2829 C   0  0  2  0  0  0  0  0  0  0  0  0
   11.5010   15.1455  -12.6729 C   0  0  2  0  0  0  0  0  0  0  0  0
   11.9945   13.8081  -12.6570 O   0  0  0  0  0  0  0  0  0  0  0  0
    6.6986   18.1355  -11.5578 C   0  0  2  0  0  0  0  0  0  0  0  0
    6.2956   17.7116  -12.8594 O   0  0  0  0  0  0  0  0  0  0  0  0
   13.9825   11.8926   -6.9350 C   0  0  2  0  0  0  0  0  0  0  0  0
   13.1282   10.7725   -7.3295 O   0  0  0  0  0  0  0  0  0  0  0  0
   13.9716   11.5849  -10.6400 C   0  0  2  0  0  0  0  0  0  0  0  0
   13.6560   12.8854  -11.2090 O   0  0  0  0  0  0  0  0  0  0  0  0
   12.5851   16.1376  -13.1970 C   0  0  0  0  0  0  0  0  0  0  0  0
   12.5146   16.2036  -14.6181 O   0  0  0  0  0  0  0  0  0  0  0  0
    8.2464   18.4286  -11.5347 C   0  0  1  0  0  0  0  0  0  0  0  0
    8.9092   17.1534  -11.8585 O   0  0  0  0  0  0  0  0  0  0  0  0
   15.2614   11.3493   -6.3409 C   0  0  0  0  0  0  0  0  0  0  0  0
   14.9758   10.5716   -5.2039 O   0  0  0  0  0  0  0  0  0  0  0  0
   14.7337   10.6793  -11.6959 C   0  0  1  0  0  0  0  0  0  0  0  0
   16.0562   11.1795  -11.9116 O   0  0  0  0  0  0  0  0  0  0  0  0
    8.7064   19.5608  -12.5521 C   0  0  0  0  0  0  0  0  0  0  0  0
   10.1332   19.5045  -12.9736 N   0  0  0  0  0  0  0  0  0  0  0  0
  1  2  1  6  0  0  0
  1  7  1  0  0  0  0
  1 30  1  0  0  0  0
  3  4  1  6  0  0  0
  3  9  1  0  0  0  0
  3 39  1  0  0  0  0
  5 10  1  0  0  0  0
  5 26  1  0  0  0  0
  5 32  1  6  0  0  0
  6 12  1  0  0  0  0
  6 36  1  0  0  0  0
  6 19  1  6  0  0  0
  7  8  1  6  0  0  0
  7 14  1  0  0  0  0
  9 16  1  0  0  0  0
 10 11  1  1  0  0  0
 10 18  1  0  0  0  0
 12 13  1  6  0  0  0
 12 20  1  0  0  0  0
 14 15  1  1  0  0  0
 14 22  1  0  0  0  0
 16 17  1  6  0  0  0
 16 24  1  0  0  0  0
 18 19  1  6  0  0  0
 18 25  1  0  0  0  0
 20 21  1  1  0  0  0
 20 27  1  0  0  0  0
 22 23  1  6  0  0  0
 22 29  1  0  0  0  0
 24  2  1  1  0  0  0
 24 31  1  0  0  0  0
 25 26  1  0  0  0  0
 25 33  1  1  0  0  0
 27 28  1  6  0  0  0
 27 35  1  0  0  0  0
 29 30  1  0  0  0  0
 29 37  1  1  0  0  0
 31 32  1  6  0  0  0
 31 39  1  0  0  0  0
 33 34  1  0  0  0  0
 35 36  1  0  0  0  0
 35 41  1  6  0  0  0
 37 38  1  0  0  0  0
 39 40  1  1  0  0  0
 41 42  1  0  0  0  0
M  END
>  <CHROM.1>
-175.18771343,9.00588391,132.60852068,174.53806378,-156.60505648,61.30398290
0.42310833,111.28273054,-156.32861945,11.46501770,13.67533584,-10.08171941
0.50938263,-0.79008755,1.81429018

>  <Name>
ligand

>  <RI>
0

>  <Rbt.Current_Directory>
/home/itssahil/PROJECTS/Mol_Feturizer/Test_systems_manuscript/rnas/2o3w

>  <Rbt.Executable>
rbdock ($Id: //depot/dev/client3/rdock/2013.1/src/exe/rbdock.cxx#4 $)

>  <Rbt.Library>
libRbt.so (2013.1, Build901 2013/11/27)

>  <Rbt.Parameter_File>
/export/apps/rDock/src/rDock_2013.1_src/data/scripts/dock_solv.prm

>  <Rbt.Receptor>
prm/blind_docking_80.prm

>  <SCORE>
16.654

>  <SCORE.INTER>
-2.52809

>  <SCORE.INTER.CONST>
1

>  <SCORE.INTER.POLAR>
0

>  <SCORE.INTER.ROT>
9

>  <SCORE.INTER.SOLV>
26.0892

>  <SCORE.INTER.VDW>
-19.9818

>  <SCORE.INTER.norm>
-0.0601926

>  <SCORE.INTRA>
10.5803

>  <SCORE.INTRA.DIHEDRAL>
3.1874

>  <SCORE.INTRA.DIHEDRAL.0>
27.8999

>  <SCORE.INTRA.POLAR>
0

>  <SCORE.INTRA.POLAR.0>
0

>  <SCORE.INTRA.REPUL>
0.00572069

>  <SCORE.INTRA.REPUL.0>
0

>  <SCORE.INTRA.SOLV>
-0.901285

>  <SCORE.INTRA.SOLV.lig_0>
-104.479

>  <SCORE.INTRA.VDW>
9.40861

>  <SCORE.INTRA.VDW.0>
-6.17816

>  <SCORE.INTRA.norm>
0.251911

>  <SCORE.RESTR>
8.60182

>  <SCORE.RESTR.CAVITY>
8.60182

>  <SCORE.RESTR.norm>
0.204805

>  <SCORE.SYSTEM>
0

>  <SCORE.SYSTEM.CONST>
0

>  <SCORE.SYSTEM.DIHEDRAL>
0

>  <SCORE.SYSTEM.SOLV>
0

>  <SCORE.SYSTEM.norm>
0

>  <SCORE.heavy>
42

>  <SCORE.norm>
0.396524

>  <RMSD>
18.110

$$$$
ligand
 OpenBabel02271912133D
libRbt.so/2013.1/901 2013/11/27
 42 45  0  0  0  0  0  0  0  0999 V2000
   13.2932   11.4860  -11.5021 C   0  0  2  0  0  0  0  0  0  0  0  0
   13.2853   12.6661  -12.3234 O   0  0  0  0  0  0  0  0  0  0  0  0
   11.4270   16.3490  -10.9895 C   0  0  2  0  0  0  0  0  0  0  0  0
   10.4266   17.4194  -10.6996 N   0  0  0  0  0  0  0  0  0  0  0  0
   11.9001   11.8539   -9.0094 C   0  0  1  0  0  0  0  0  0  0  0  0
   13.2421   10.8260   -6.4138 C   0  0  1  0  0  0  0  0  0  0  0  0
   14.6474   10.7601  -11.7616 C   0  0  2  0  0  0  0  0  0  0  0  0
   15.8033   11.6671  -11.6520 N   0  0  0  0  0  0  0  0  0  0  0  0
   11.6075   16.1386  -12.5467 C   0  0  0  0  0  0  0  0  0  0  0  0
   10.7417   11.1362   -8.2518 C   0  0  2  0  0  0  0  0  0  0  0  0
   10.1319   11.9388   -7.2111 O   0  0  0  0  0  0  0  0  0  0  0  0
   14.2991   10.3527   -5.3519 C   0  0  2  0  0  0  0  0  0  0  0  0
   13.6925   10.2857   -3.9886 N   0  0  0  0  0  0  0  0  0  0  0  0
   14.7112   10.1257  -13.1631 C   0  0  1  0  0  0  0  0  0  0  0  0
   15.9510    9.4390  -13.3423 O   0  0  0  0  0  0  0  0  0  0  0  0
   12.6876   15.0172  -12.7883 C   0  0  2  0  0  0  0  0  0  0  0  0
   12.8937   14.8028  -14.2461 N   0  0  0  0  0  0  0  0  0  0  0  0
   11.4409    9.8603   -7.7801 C   0  0  2  0  0  0  0  0  0  0  0  0
   12.0476   10.0358   -6.4603 O   0  0  0  0  0  0  0  0  0  0  0  0
   15.5542   11.3482   -5.3751 C   0  0  1  0  0  0  0  0  0  0  0  0
   16.3262   11.0989   -6.5711 O   0  0  0  0  0  0  0  0  0  0  0  0
   13.5070    9.1757  -13.3544 C   0  0  2  0  0  0  0  0  0  0  0  0
   13.5599    8.5738  -14.6269 O   0  0  0  0  0  0  0  0  0  0  0  0
   12.2434   13.6609  -12.1107 C   0  0  2  0  0  0  0  0  0  0  0  0
   12.5044    9.5409   -8.8442 C   0  0  2  0  0  0  0  0  0  0  0  0
   12.8701   10.8304   -9.3299 O   0  0  0  0  0  0  0  0  0  0  0  0
   15.1251   12.8913   -5.3260 C   0  0  2  0  0  0  0  0  0  0  0  0
   14.5923   13.1494   -4.0276 O   0  0  0  0  0  0  0  0  0  0  0  0
   12.1817    9.9903  -13.1825 C   0  0  2  0  0  0  0  0  0  0  0  0
   12.1549   10.6126  -11.8589 O   0  0  0  0  0  0  0  0  0  0  0  0
   11.9930   13.8035  -10.5934 C   0  0  2  0  0  0  0  0  0  0  0  0
   11.4230   12.5314  -10.1791 O   0  0  0  0  0  0  0  0  0  0  0  0
   12.0172    8.6208  -10.0062 C   0  0  0  0  0  0  0  0  0  0  0  0
   10.7246    9.0432  -10.4303 O   0  0  0  0  0  0  0  0  0  0  0  0
   14.0456   13.2034   -6.4303 C   0  0  1  0  0  0  0  0  0  0  0  0
   12.9214   12.2864   -6.1743 O   0  0  0  0  0  0  0  0  0  0  0  0
   10.9474    9.1342  -13.3477 C   0  0  0  0  0  0  0  0  0  0  0  0
    9.8134    9.8229  -12.8796 O   0  0  0  0  0  0  0  0  0  0  0  0
   10.9798   14.9913  -10.3134 C   0  0  1  0  0  0  0  0  0  0  0  0
   10.8655   15.2210   -8.9064 O   0  0  0  0  0  0  0  0  0  0  0  0
   13.5368   14.7100   -6.4311 C   0  0  0  0  0  0  0  0  0  0  0  0
   12.0622   14.8898   -6.5292 N   0  0  0  0  0  0  0  0  0  0  0  0
  1  2  1  6  0  0  0
  1  7  1  0  0  0  0
  1 30  1  0  0  0  0
  3  4  1  6  0  0  0
  3  9  1  0  0  0  0
  3 39  1  0  0  0  0
  5 10  1  0  0  0  0
  5 26  1  0  0  0  0
  5 32  1  6  0  0  0
  6 12  1  0  0  0  0
  6 36  1  0  0  0  0
  6 19  1  1  0  0  0
  7  8  1  6  0  0  0
  7 14  1  0  0  0  0
  9 16  1  0  0  0  0
 10 11  1  1  0  0  0
 10 18  1  0  0  0  0
 12 13  1  1  0  0  0
 12 20  1  0  0  0  0
 14 15  1  1  0  0  0
 14 22  1  0  0  0  0
 16 17  1  6  0  0  0
 16 24  1  0  0  0  0
 18 19  1  1  0  0  0
 18 25  1  0  0  0  0
 20 21  1  6  0  0  0
 20 27  1  0  0  0  0
 22 23  1  6  0  0  0
 22 29  1  0  0  0  0
 24  2  1  1  0  0  0
 24 31  1  0  0  0  0
 25 26  1  0  0  0  0
 25 33  1  6  0  0  0
 27 28  1  1  0  0  0
 27 35  1  0  0  0  0
 29 30  1  0  0  0  0
 29 37  1  1  0  0  0
 31 32  1  6  0  0  0
 31 39  1  0  0  0  0
 33 34  1  0  0  0  0
 35 36  1  0  0  0  0
 35 41  1  1  0  0  0
 37 38  1  0  0  0  0
 39 40  1  1  0  0  0
 41 42  1  0  0  0  0
M  END
>  <CHROM.1>
-169.31612642,162.84869890,-73.92528917,-145.04105247,43.34033718,166.14210027
133.45475594,143.79190610,-134.06980436,12.75262995,11.90334608,-9.67254207
-1.98779991,-1.24721618,1.05637625

>  <Name>
ligand

>  <RI>
0

>  <Rbt.Current_Directory>
/home/itssahil/PROJECTS/Mol_Feturizer/Test_systems_manuscript/rnas/2o3w

>  <Rbt.Executable>
rbdock ($Id: //depot/dev/client3/rdock/2013.1/src/exe/rbdock.cxx#4 $)

>  <Rbt.Library>
libRbt.so (2013.1, Build901 2013/11/27)

>  <Rbt.Parameter_File>
/export/apps/rDock/src/rDock_2013.1_src/data/scripts/dock_solv.prm

>  <Rbt.Receptor>
prm/blind_docking_40.prm

>  <SCORE>
29.2437

>  <SCORE.INTER>
9.39254

>  <SCORE.INTER.CONST>
1

>  <SCORE.INTER.POLAR>
0

>  <SCORE.INTER.ROT>
9

>  <SCORE.INTER.SOLV>
39.4806

>  <SCORE.INTER.VDW>
-16.4985

>  <SCORE.INTER.norm>
0.223632

>  <SCORE.INTRA>
10.0257

>  <SCORE.INTRA.DIHEDRAL>
-3.20847

>  <SCORE.INTRA.DIHEDRAL.0>
27.8999

>  <SCORE.INTRA.POLAR>
0

>  <SCORE.INTRA.POLAR.0>
0

>  <SCORE.INTRA.REPUL>
0.0278918

>  <SCORE.INTRA.REPUL.0>
0

>  <SCORE.INTRA.SOLV>
1.05878

>  <SCORE.INTRA.SOLV.lig_0>
-104.479

>  <SCORE.INTRA.VDW>
10.9611

>  <SCORE.INTRA.VDW.0>
-6.17816

>  <SCORE.INTRA.norm>
0.238708

>  <SCORE.RESTR>
9.82544

>  <SCORE.RESTR.CAVITY>
9.82544

>  <SCORE.RESTR.norm>
0.233939

>  <SCORE.SYSTEM>
0

>  <SCORE.SYSTEM.CONST>
0

>  <SCORE.SYSTEM.DIHEDRAL>
0

>  <SCORE.SYSTEM.SOLV>
0

>  <SCORE.SYSTEM.norm>
0

>  <SCORE.heavy>
42

>  <SCORE.norm>
0.696279

>  <RMSD>
18.120

$$$$
ligand
 OpenBabel02271912133D
libRbt.so/2013.1/901 2013/11/27
 42 45  0  0  0  0  0  0  0  0999 V2000
   12.3119   12.2077   -6.3698 C   0  0  2  0  0  0  0  0  0  0  0  0
   12.8012   11.8938   -7.6849 O   0  0  0  0  0  0  0  0  0  0  0  0
   11.2354    8.9077  -10.4102 C   0  0  2  0  0  0  0  0  0  0  0  0
   10.3866    8.1928  -11.4097 N   0  0  0  0  0  0  0  0  0  0  0  0
   12.0500   13.0050  -11.5330 C   0  0  1  0  0  0  0  0  0  0  0  0
   10.4320   16.2827  -13.4686 C   0  0  1  0  0  0  0  0  0  0  0  0
   12.7713   13.6616   -6.0485 C   0  0  2  0  0  0  0  0  0  0  0  0
   12.4503   14.6068   -7.1321 N   0  0  0  0  0  0  0  0  0  0  0  0
   10.4470    9.1581   -9.0621 C   0  0  0  0  0  0  0  0  0  0  0  0
   12.3347   14.5235  -11.7422 C   0  0  2  0  0  0  0  0  0  0  0  0
   11.4516   15.3969  -10.9963 O   0  0  0  0  0  0  0  0  0  0  0  0
   11.5690   17.3672  -13.4740 C   0  0  2  0  0  0  0  0  0  0  0  0
   12.6392   17.0229  -12.4906 N   0  0  0  0  0  0  0  0  0  0  0  0
   14.2898   13.7558   -5.8116 C   0  0  1  0  0  0  0  0  0  0  0  0
   14.6597   15.0957   -5.4820 O   0  0  0  0  0  0  0  0  0  0  0  0
   11.3984    9.8926   -8.0434 C   0  0  2  0  0  0  0  0  0  0  0  0
   10.6922   10.1317   -6.7559 N   0  0  0  0  0  0  0  0  0  0  0  0
   12.2455   14.6354  -13.2650 C   0  0  2  0  0  0  0  0  0  0  0  0
   10.8838   14.9431  -13.7030 O   0  0  0  0  0  0  0  0  0  0  0  0
   10.9325   18.8020  -13.1531 C   0  0  1  0  0  0  0  0  0  0  0  0
   10.1977   19.2568  -14.3115 O   0  0  0  0  0  0  0  0  0  0  0  0
   14.7001   12.7666   -4.6970 C   0  0  2  0  0  0  0  0  0  0  0  0
   16.0854   12.8526   -4.4563 O   0  0  0  0  0  0  0  0  0  0  0  0
   11.8957   11.2689   -8.6388 C   0  0  2  0  0  0  0  0  0  0  0  0
   12.7160   13.2798  -13.8185 C   0  0  2  0  0  0  0  0  0  0  0  0
   12.3229   12.3632  -12.7998 O   0  0  0  0  0  0  0  0  0  0  0  0
    9.9629   18.7812  -11.8775 C   0  0  2  0  0  0  0  0  0  0  0  0
   10.7749   18.5751  -10.7223 O   0  0  0  0  0  0  0  0  0  0  0  0
   14.3029   11.3160   -5.1301 C   0  0  2  0  0  0  0  0  0  0  0  0
   12.8635   11.2549   -5.3831 O   0  0  0  0  0  0  0  0  0  0  0  0
   12.6281   11.1076   -9.9889 C   0  0  2  0  0  0  0  0  0  0  0  0
   12.8446   12.4626  -10.4703 O   0  0  0  0  0  0  0  0  0  0  0  0
   14.2469   13.1804  -14.1026 C   0  0  0  0  0  0  0  0  0  0  0  0
   14.8634   12.3925  -13.0887 O   0  0  0  0  0  0  0  0  0  0  0  0
    8.8975   17.6279  -12.0080 C   0  0  1  0  0  0  0  0  0  0  0  0
    9.6633   16.3795  -12.1676 O   0  0  0  0  0  0  0  0  0  0  0  0
   14.6633   10.2797   -4.0909 C   0  0  0  0  0  0  0  0  0  0  0  0
   16.0604   10.2079   -3.9419 O   0  0  0  0  0  0  0  0  0  0  0  0
   11.7299   10.2864  -11.0060 C   0  0  1  0  0  0  0  0  0  0  0  0
   12.4661   10.0071  -12.2000 O   0  0  0  0  0  0  0  0  0  0  0  0
    7.9120   17.5131  -10.7654 C   0  0  0  0  0  0  0  0  0  0  0  0
    8.5589   17.2158   -9.4579 N   0  0  0  0  0  0  0  0  0  0  0  0
  1  2  1  6  0  0  0
  1  7  1  0  0  0  0
  1 30  1  0  0  0  0
  3  4  1  6  0  0  0
  3  9  1  0  0  0  0
  3 39  1  0  0  0  0
  5 10  1  0  0  0  0
  5 26  1  0  0  0  0
  5 32  1  1  0  0  0
  6 12  1  0  0  0  0
  6 36  1  0  0  0  0
  6 19  1  1  0  0  0
  7  8  1  6  0  0  0
  7 14  1  0  0  0  0
  9 16  1  0  0  0  0
 10 11  1  1  0  0  0
 10 18  1  0  0  0  0
 12 13  1  1  0  0  0
 12 20  1  0  0  0  0
 14 15  1  1  0  0  0
 14 22  1  0  0  0  0
 16 17  1  1  0  0  0
 16 24  1  0  0  0  0
 18 19  1  1  0  0  0
 18 25  1  0  0  0  0
 20 21  1  6  0  0  0
 20 27  1  0  0  0  0
 22 23  1  6  0  0  0
 22 29  1  0  0  0  0
 24  2  1  1  0  0  0
 24 31  1  0  0  0  0
 25 26  1  0  0  0  0
 25 33  1  1  0  0  0
 27 28  1  1  0  0  0
 27 35  1  0  0  0  0
 29 30  1  0  0  0  0
 29 37  1  1  0  0  0
 31 32  1  6  0  0  0
 31 39  1  0  0  0  0
 33 34  1  0  0  0  0
 35 36  1  0  0  0  0
 35 41  1  1  0  0  0
 37 38  1  0  0  0  0
 39 40  1  6  0  0  0
 41 42  1  0  0  0  0
M  END
>  <CHROM.1>
-133.60980057,-59.83742514,73.41100021,29.38678073,105.20719283,-64.96475976
-104.73435677,172.35483591,-61.26446462,12.13416871,13.57557479,-9.83011947
-0.17368122,-1.23487514,0.51354893

>  <Name>
ligand

>  <RI>
0

>  <Rbt.Current_Directory>
/home/itssahil/PROJECTS/Mol_Feturizer/Test_systems_manuscript/rnas/2o3w

>  <Rbt.Executable>
rbdock ($Id: //depot/dev/client3/rdock/2013.1/src/exe/rbdock.cxx#4 $)

>  <Rbt.Library>
libRbt.so (2013.1, Build901 2013/11/27)

>  <Rbt.Parameter_File>
/export/apps/rDock/src/rDock_2013.1_src/data/scripts/dock_solv.prm

>  <Rbt.Receptor>
prm/blind_docking_60.prm

>  <SCORE>
19.0134

>  <SCORE.INTER>
-0.748516

>  <SCORE.INTER.CONST>
1

>  <SCORE.INTER.POLAR>
0

>  <SCORE.INTER.ROT>
9

>  <SCORE.INTER.SOLV>
34.7476

>  <SCORE.INTER.VDW>
-21.6815

>  <SCORE.INTER.norm>
-0.0178218

>  <SCORE.INTRA>
9.56112

>  <SCORE.INTRA.DIHEDRAL>
-5.98049

>  <SCORE.INTRA.DIHEDRAL.0>
27.8999

>  <SCORE.INTRA.POLAR>
0

>  <SCORE.INTRA.POLAR.0>
0

>  <SCORE.INTRA.REPUL>
0

>  <SCORE.INTRA.REPUL.0>
0

>  <SCORE.INTRA.SOLV>
4.5997

>  <SCORE.INTRA.SOLV.lig_0>
-104.479

>  <SCORE.INTRA.VDW>
10.2515

>  <SCORE.INTRA.VDW.0>
-6.17816

>  <SCORE.INTRA.norm>
0.227646

>  <SCORE.RESTR>
10.2008

>  <SCORE.RESTR.CAVITY>
10.2008

>  <SCORE.RESTR.norm>
0.242877

>  <SCORE.SYSTEM>
0

>  <SCORE.SYSTEM.CONST>
0

>  <SCORE.SYSTEM.DIHEDRAL>
0

>  <SCORE.SYSTEM.SOLV>
0

>  <SCORE.SYSTEM.norm>
0

>  <SCORE.heavy>
42

>  <SCORE.norm>
0.452701

>  <RMSD>
18.130

$$$$
ligand
 OpenBabel02271912133D
libRbt.so/2013.1/901 2013/11/27
 42 45  0  0  0  0  0  0  0  0999 V2000
   11.3805    9.3919   -8.7808 C   0  0  2  0  0  0  0  0  0  0  0  0
   11.0053   10.3041   -9.8270 O   0  0  0  0  0  0  0  0  0  0  0  0
   12.9945    8.4740  -13.2167 C   0  0  2  0  0  0  0  0  0  0  0  0
   13.7094    8.2688  -14.5117 N   0  0  0  0  0  0  0  0  0  0  0  0
   13.6642   12.1503  -10.6141 C   0  0  1  0  0  0  0  0  0  0  0  0
   11.8476   16.0101  -12.0272 C   0  0  1  0  0  0  0  0  0  0  0  0
   10.2419    9.4256   -7.7176 C   0  0  2  0  0  0  0  0  0  0  0  0
    8.9065    9.2547   -8.3160 N   0  0  0  0  0  0  0  0  0  0  0  0
   11.5486    9.0722  -13.4478 C   0  0  0  0  0  0  0  0  0  0  0  0
   12.4553   12.3350  -11.5812 C   0  0  2  0  0  0  0  0  0  0  0  0
   12.7952   12.1959  -12.9827 O   0  0  0  0  0  0  0  0  0  0  0  0
   10.3345   15.8390  -12.4147 C   0  0  2  0  0  0  0  0  0  0  0  0
   10.1934   15.0679  -13.6861 N   0  0  0  0  0  0  0  0  0  0  0  0
   10.2121   10.7515   -6.9351 C   0  0  1  0  0  0  0  0  0  0  0  0
    9.1809   10.7228   -5.9469 O   0  0  0  0  0  0  0  0  0  0  0  0
   10.8385    9.2444  -12.0518 C   0  0  2  0  0  0  0  0  0  0  0  0
    9.4673    9.7928  -12.2330 N   0  0  0  0  0  0  0  0  0  0  0  0
   11.9437   13.7127  -11.1575 C   0  0  2  0  0  0  0  0  0  0  0  0
   12.5803   14.7827  -11.9259 O   0  0  0  0  0  0  0  0  0  0  0  0
    9.6540   17.2840  -12.5394 C   0  0  1  0  0  0  0  0  0  0  0  0
    9.4746   17.8319  -11.2140 O   0  0  0  0  0  0  0  0  0  0  0  0
   11.5974   11.0054   -6.2981 C   0  0  2  0  0  0  0  0  0  0  0  0
   11.5819   12.2076   -5.5640 O   0  0  0  0  0  0  0  0  0  0  0  0
   11.6743   10.2048  -11.1165 C   0  0  2  0  0  0  0  0  0  0  0  0
   12.2596   13.8399   -9.6576 C   0  0  2  0  0  0  0  0  0  0  0  0
   13.4438   13.0598   -9.5116 O   0  0  0  0  0  0  0  0  0  0  0  0
   10.5145   18.3022  -13.4284 C   0  0  2  0  0  0  0  0  0  0  0  0
   10.4536   17.8510  -14.7808 O   0  0  0  0  0  0  0  0  0  0  0  0
   12.6770   11.0623   -7.4298 C   0  0  2  0  0  0  0  0  0  0  0  0
   12.6669    9.8082   -8.1828 O   0  0  0  0  0  0  0  0  0  0  0  0
   13.1204    9.7118  -10.8910 C   0  0  2  0  0  0  0  0  0  0  0  0
   13.7847   10.7904  -10.1769 O   0  0  0  0  0  0  0  0  0  0  0  0
   11.1336   13.3350   -8.7028 C   0  0  0  0  0  0  0  0  0  0  0  0
   11.1456   14.1121   -7.5091 O   0  0  0  0  0  0  0  0  0  0  0  0
   12.0100   18.3443  -12.9344 C   0  0  1  0  0  0  0  0  0  0  0  0
   12.5044   16.9585  -13.0081 O   0  0  0  0  0  0  0  0  0  0  0  0
   14.0694   11.3020   -6.8936 C   0  0  0  0  0  0  0  0  0  0  0  0
   14.0626   11.2531   -5.4876 O   0  0  0  0  0  0  0  0  0  0  0  0
   13.8304    9.4380  -12.2826 C   0  0  1  0  0  0  0  0  0  0  0  0
   15.1124    8.8395  -12.0731 O   0  0  0  0  0  0  0  0  0  0  0  0
   12.9462   19.3078  -13.7852 C   0  0  0  0  0  0  0  0  0  0  0  0
   13.1260   18.9311  -15.2143 N   0  0  0  0  0  0  0  0  0  0  0  0
  1  2  1  6  0  0  0
  1  7  1  0  0  0  0
  1 30  1  0  0  0  0
  3  4  1  6  0  0  0
  3  9  1  0  0  0  0
  3 39  1  0  0  0  0
  5 10  1  0  0  0  0
  5 26  1  0  0  0  0
  5 32  1  1  0  0  0
  6 12  1  0  0  0  0
  6 36  1  0  0  0  0
  6 19  1  6  0  0  0
  7  8  1  6  0  0  0
  7 14  1  0  0  0  0
  9 16  1  0  0  0  0
 10 11  1  6  0  0  0
 10 18  1  0  0  0  0
 12 13  1  6  0  0  0
 12 20  1  0  0  0  0
 14 15  1  1  0  0  0
 14 22  1  0  0  0  0
 16 17  1  6  0  0  0
 16 24  1  0  0  0  0
 18 19  1  6  0  0  0
 18 25  1  0  0  0  0
 20 21  1  1  0  0  0
 20 27  1  0  0  0  0
 22 23  1  6  0  0  0
 22 29  1  0  0  0  0
 24  2  1  1  0  0  0
 24 31  1  0  0  0  0
 25 26  1  0  0  0  0
 25 33  1  1  0  0  0
 27 28  1  6  0  0  0
 27 35  1  0  0  0  0
 29 30  1  0  0  0  0
 29 37  1  1  0  0  0
 31 32  1  6  0  0  0
 31 39  1  0  0  0  0
 33 34  1  0  0  0  0
 35 36  1  0  0  0  0
 35 41  1  6  0  0  0
 37 38  1  0  0  0  0
 39 40  1  1  0  0  0
 41 42  1  0  0  0  0
M  END
>  <CHROM.1>
-162.80793857,91.92458634,155.71274050,-47.34944408,-147.87699415,7.08534424
-47.22946352,17.57987188,-63.41733296,11.87658751,12.67496401,-10.63012820
-1.35556733,1.30671334,-0.77097426

>  <Name>
ligand

>  <RI>
0

>  <Rbt.Current_Directory>
/home/itssahil/PROJECTS/Mol_Feturizer/Test_systems_manuscript/rnas/2o3w

>  <Rbt.Executable>
rbdock ($Id: //depot/dev/client3/rdock/2013.1/src/exe/rbdock.cxx#4 $)

>  <Rbt.Library>
libRbt.so (2013.1, Build901 2013/11/27)

>  <Rbt.Parameter_File>
/export/apps/rDock/src/rDock_2013.1_src/data/scripts/dock_solv.prm

>  <Rbt.Receptor>
prm/blind_docking_40.prm

>  <SCORE>
31.0399

>  <SCORE.INTER>
2.93312

>  <SCORE.INTER.CONST>
1

>  <SCORE.INTER.POLAR>
0

>  <SCORE.INTER.ROT>
9

>  <SCORE.INTER.SOLV>
25.5416

>  <SCORE.INTER.VDW>
-16.1584

>  <SCORE.INTER.norm>
0.0698362

>  <SCORE.INTRA>
15.5984

>  <SCORE.INTRA.DIHEDRAL>
-4.6369

>  <SCORE.INTRA.DIHEDRAL.0>
27.8999

>  <SCORE.INTRA.POLAR>
0

>  <SCORE.INTRA.POLAR.0>
0

>  <SCORE.INTRA.REPUL>
0

>  <SCORE.INTRA.REPUL.0>
0

>  <SCORE.INTRA.SOLV>
1.00968

>  <SCORE.INTRA.SOLV.lig_0>
-104.479

>  <SCORE.INTRA.VDW>
17.412

>  <SCORE.INTRA.VDW.0>
-6.17816

>  <SCORE.INTRA.norm>
0.37139

>  <SCORE.RESTR>
12.5084

>  <SCORE.RESTR.CAVITY>
12.5084

>  <SCORE.RESTR.norm>
0.297819

>  <SCORE.SYSTEM>
0

>  <SCORE.SYSTEM.CONST>
0

>  <SCORE.SYSTEM.DIHEDRAL>
0

>  <SCORE.SYSTEM.SOLV>
0

>  <SCORE.SYSTEM.norm>
0

>  <SCORE.heavy>
42

>  <SCORE.norm>
0.739046

>  <RMSD>
18.131

$$$$
ligand
 OpenBabel02271912133D
libRbt.so/2013.1/901 2013/11/27
 42 45  0  0  0  0  0  0  0  0999 V2000
   12.4455   12.0756   -7.1417 C   0  0  2  0  0  0  0  0  0  0  0  0
   13.0096   12.0390   -8.4637 O   0  0  0  0  0  0  0  0  0  0  0  0
   12.2699    8.6982  -11.1260 C   0  0  2  0  0  0  0  0  0  0  0  0
   11.6838    7.8127  -12.1762 N   0  0  0  0  0  0  0  0  0  0  0  0
   12.2739   13.1536  -11.6845 C   0  0  1  0  0  0  0  0  0  0  0  0
    9.5782   16.3308  -11.1962 C   0  0  1  0  0  0  0  0  0  0  0  0
   12.6944   13.5077   -6.5802 C   0  0  2  0  0  0  0  0  0  0  0  0
   12.2789   14.5623   -7.5214 N   0  0  0  0  0  0  0  0  0  0  0  0
   11.2522    8.9307   -9.9377 C   0  0  0  0  0  0  0  0  0  0  0  0
   12.1923   14.5530  -11.0020 C   0  0  2  0  0  0  0  0  0  0  0  0
   11.4110   14.5689   -9.7820 O   0  0  0  0  0  0  0  0  0  0  0  0
    8.0521   16.0612  -10.9372 C   0  0  2  0  0  0  0  0  0  0  0  0
    7.2802   16.0940  -12.2155 N   0  0  0  0  0  0  0  0  0  0  0  0
   14.1789   13.7591   -6.2577 C   0  0  1  0  0  0  0  0  0  0  0  0
   14.3543   15.0668   -5.7099 O   0  0  0  0  0  0  0  0  0  0  0  0
   11.9334    9.8505   -8.8550 C   0  0  2  0  0  0  0  0  0  0  0  0
   11.0072   10.0787   -7.7132 N   0  0  0  0  0  0  0  0  0  0  0  0
   11.6504   15.4106  -12.1466 C   0  0  2  0  0  0  0  0  0  0  0  0
   10.1877   15.4472  -12.1457 O   0  0  0  0  0  0  0  0  0  0  0  0
    7.4925   17.1456   -9.8990 C   0  0  1  0  0  0  0  0  0  0  0  0
    7.9921   16.8307   -8.5799 O   0  0  0  0  0  0  0  0  0  0  0  0
   14.6878   12.6681   -5.2883 C   0  0  2  0  0  0  0  0  0  0  0  0
   16.0414   12.8936   -4.9698 O   0  0  0  0  0  0  0  0  0  0  0  0
   12.3499   11.2380   -9.4852 C   0  0  2  0  0  0  0  0  0  0  0  0
   12.1913   14.7812  -13.4414 C   0  0  2  0  0  0  0  0  0  0  0  0
   12.2889   13.3981  -13.1097 O   0  0  0  0  0  0  0  0  0  0  0  0
    7.9038   18.6456  -10.2840 C   0  0  2  0  0  0  0  0  0  0  0  0
    7.1864   18.9993  -11.4658 O   0  0  0  0  0  0  0  0  0  0  0  0
   14.5033   11.2649   -5.9565 C   0  0  2  0  0  0  0  0  0  0  0  0
   13.0931   11.0586   -6.2860 O   0  0  0  0  0  0  0  0  0  0  0  0
   13.3023   11.0861  -10.6914 C   0  0  2  0  0  0  0  0  0  0  0  0
   13.4280   12.4230  -11.2496 O   0  0  0  0  0  0  0  0  0  0  0  0
   13.5660   15.3416  -13.9214 C   0  0  0  0  0  0  0  0  0  0  0  0
   13.8954   14.7643  -15.1812 O   0  0  0  0  0  0  0  0  0  0  0  0
    9.4555   18.7489  -10.5367 C   0  0  1  0  0  0  0  0  0  0  0  0
    9.7623   17.7782  -11.6014 O   0  0  0  0  0  0  0  0  0  0  0  0
   14.9714   10.1331   -5.0712 C   0  0  0  0  0  0  0  0  0  0  0  0
   14.3031   10.1771   -3.8340 O   0  0  0  0  0  0  0  0  0  0  0  0
   12.6835   10.0878  -11.7573 C   0  0  1  0  0  0  0  0  0  0  0  0
   13.6289    9.8300  -12.7990 O   0  0  0  0  0  0  0  0  0  0  0  0
    9.9477   20.2010  -10.9584 C   0  0  0  0  0  0  0  0  0  0  0  0
    9.8187   21.2520   -9.9117 N   0  0  0  0  0  0  0  0  0  0  0  0
  1  2  1  6  0  0  0
  1  7  1  0  0  0  0
  1 30  1  0  0  0  0
  3  4  1  6  0  0  0
  3  9  1  0  0  0  0
  3 39  1  0  0  0  0
  5 10  1  0  0  0  0
  5 26  1  0  0  0  0
  5 32  1  1  0  0  0
  6 12  1  0  0  0  0
  6 36  1  0  0  0  0
  6 19  1  6  0  0  0
  7  8  1  6  0  0  0
  7 14  1  0  0  0  0
  9 16  1  0  0  0  0
 10 11  1  1  0  0  0
 10 18  1  0  0  0  0
 12 13  1  6  0  0  0
 12 20  1  0  0  0  0
 14 15  1  1  0  0  0
 14 22  1  0  0  0  0
 16 17  1  1  0  0  0
 16 24  1  0  0  0  0
 18 19  1  6  0  0  0
 18 25  1  0  0  0  0
 20 21  1  1  0  0  0
 20 27  1  0  0  0  0
 22 23  1  6  0  0  0
 22 29  1  0  0  0  0
 24  2  1  1  0  0  0
 24 31  1  0  0  0  0
 25 26  1  0  0  0  0
 25 33  1  1  0  0  0
 27 28  1  6  0  0  0
 27 35  1  0  0  0  0
 29 30  1  0  0  0  0
 29 37  1  1  0  0  0
 31 32  1  6  0  0  0
 31 39  1  0  0  0  0
 33 34  1  0  0  0  0
 35 36  1  0  0  0  0
 35 41  1  6  0  0  0
 37 38  1  0  0  0  0
 39 40  1  6  0  0  0
 41 42  1  0  0  0  0
M  END
>  <CHROM.1>
-145.40336649,-43.36735045,78.83928769,-163.69006174,-174.98790605,56.35081897
-57.43466238,125.55264081,66.58518280,11.78975941,13.79208526,-9.73250345
0.01516679,-1.07032898,1.07836529

>  <Name>
ligand

>  <RI>
0

>  <Rbt.Current_Directory>
/home/itssahil/PROJECTS/Mol_Feturizer/Test_systems_manuscript/rnas/2o3w

>  <Rbt.Executable>
rbdock ($Id: //depot/dev/client3/rdock/2013.1/src/exe/rbdock.cxx#4 $)

>  <Rbt.Library>
libRbt.so (2013.1, Build901 2013/11/27)

>  <Rbt.Parameter_File>
/export/apps/rDock/src/rDock_2013.1_src/data/scripts/dock_solv.prm

>  <Rbt.Receptor>
prm/blind_docking_40.prm

>  <SCORE>
7.85392

>  <SCORE.INTER>
-5.42815

>  <SCORE.INTER.CONST>
1

>  <SCORE.INTER.POLAR>
0

>  <SCORE.INTER.ROT>
9

>  <SCORE.INTER.SOLV>
28.6686

>  <SCORE.INTER.VDW>
-22.775

>  <SCORE.INTER.norm>
-0.129242

>  <SCORE.INTRA>
-0.373998

>  <SCORE.INTRA.DIHEDRAL>
-11.8372

>  <SCORE.INTRA.DIHEDRAL.0>
27.8999

>  <SCORE.INTRA.POLAR>
0

>  <SCORE.INTRA.POLAR.0>
0

>  <SCORE.INTRA.REPUL>
0.101566

>  <SCORE.INTRA.REPUL.0>
0

>  <SCORE.INTRA.SOLV>
-1.02952

>  <SCORE.INTRA.SOLV.lig_0>
-104.479

>  <SCORE.INTRA.VDW>
5.55154

>  <SCORE.INTRA.VDW.0>
-6.17816

>  <SCORE.INTRA.norm>
-0.00890471

>  <SCORE.RESTR>
13.6561

>  <SCORE.RESTR.CAVITY>
13.6561

>  <SCORE.RESTR.norm>
0.325144

>  <SCORE.SYSTEM>
0

>  <SCORE.SYSTEM.CONST>
0

>  <SCORE.SYSTEM.DIHEDRAL>
0

>  <SCORE.SYSTEM.SOLV>
0

>  <SCORE.SYSTEM.norm>
0

>  <SCORE.heavy>
42

>  <SCORE.norm>
0.186998

>  <RMSD>
18.135

$$$$
ligand
 OpenBabel02271912133D
libRbt.so/2013.1/901 2013/11/27
 42 45  0  0  0  0  0  0  0  0999 V2000
   12.2136   12.1204   -6.9356 C   0  0  2  0  0  0  0  0  0  0  0  0
   12.9044   11.8608   -8.1695 O   0  0  0  0  0  0  0  0  0  0  0  0
   12.0400    8.7366  -11.0485 C   0  0  2  0  0  0  0  0  0  0  0  0
   11.4114    7.9393  -12.1437 N   0  0  0  0  0  0  0  0  0  0  0  0
   12.1673   13.1065  -11.5966 C   0  0  1  0  0  0  0  0  0  0  0  0
    9.7638   16.6631  -12.7666 C   0  0  1  0  0  0  0  0  0  0  0  0
   12.5777   13.5737   -6.5073 C   0  0  2  0  0  0  0  0  0  0  0  0
   12.3971   14.5454   -7.5999 N   0  0  0  0  0  0  0  0  0  0  0  0
   11.0595    8.8937   -9.8173 C   0  0  0  0  0  0  0  0  0  0  0  0
   12.1760   14.6405  -11.3179 C   0  0  2  0  0  0  0  0  0  0  0  0
   11.3677   15.0378  -10.1831 O   0  0  0  0  0  0  0  0  0  0  0  0
   10.7505   17.7489  -12.2040 C   0  0  2  0  0  0  0  0  0  0  0  0
   11.1912   17.4028  -10.8194 N   0  0  0  0  0  0  0  0  0  0  0  0
   14.0398   13.6963   -6.0402 C   0  0  1  0  0  0  0  0  0  0  0  0
   14.3174   15.0333   -5.6205 O   0  0  0  0  0  0  0  0  0  0  0  0
   11.7846    9.7216   -8.6899 C   0  0  2  0  0  0  0  0  0  0  0  0
   10.8943    9.8765   -7.5080 N   0  0  0  0  0  0  0  0  0  0  0  0
   11.7307   15.1912  -12.6735 C   0  0  2  0  0  0  0  0  0  0  0  0
   10.2756   15.3247  -12.7482 O   0  0  0  0  0  0  0  0  0  0  0  0
   10.0353   19.1821  -12.2389 C   0  0  1  0  0  0  0  0  0  0  0  0
    9.9724   19.6395  -13.6085 O   0  0  0  0  0  0  0  0  0  0  0  0
   14.3050   12.6817   -4.9046 C   0  0  2  0  0  0  0  0  0  0  0  0
   15.6351   12.7928   -4.4542 O   0  0  0  0  0  0  0  0  0  0  0  0
   12.2043   11.1465   -9.2278 C   0  0  2  0  0  0  0  0  0  0  0  0
   12.2542   14.2005  -13.7269 C   0  0  2  0  0  0  0  0  0  0  0  0
   12.2370   12.9552  -13.0331 O   0  0  0  0  0  0  0  0  0  0  0  0
    8.5600   19.1565  -11.6141 C   0  0  2  0  0  0  0  0  0  0  0  0
    8.6909   18.9478  -10.2085 O   0  0  0  0  0  0  0  0  0  0  0  0
   14.0192   11.2368   -5.4339 C   0  0  2  0  0  0  0  0  0  0  0  0
   12.6367   11.1496   -5.9040 O   0  0  0  0  0  0  0  0  0  0  0  0
   13.1203   11.0721  -10.4691 C   0  0  2  0  0  0  0  0  0  0  0  0
   13.2506   12.4449  -10.9305 O   0  0  0  0  0  0  0  0  0  0  0  0
   13.6795   14.5168  -14.2770 C   0  0  0  0  0  0  0  0  0  0  0  0
   14.5533   13.4348  -13.9695 O   0  0  0  0  0  0  0  0  0  0  0  0
    7.7031   18.0024  -12.2592 C   0  0  1  0  0  0  0  0  0  0  0  0
    8.4499   16.7554  -12.0196 O   0  0  0  0  0  0  0  0  0  0  0  0
   14.2479   10.1764   -4.3818 C   0  0  0  0  0  0  0  0  0  0  0  0
   15.6071   10.1366   -4.0208 O   0  0  0  0  0  0  0  0  0  0  0  0
   12.4568   10.1637  -11.5873 C   0  0  1  0  0  0  0  0  0  0  0  0
   13.3687    9.9716  -12.6722 O   0  0  0  0  0  0  0  0  0  0  0  0
    6.2306   17.8829  -11.6710 C   0  0  0  0  0  0  0  0  0  0  0  0
    6.0857   17.0079  -10.4752 N   0  0  0  0  0  0  0  0  0  0  0  0
  1  2  1  6  0  0  0
  1  7  1  0  0  0  0
  1 30  1  0  0  0  0
  3  4  1  6  0  0  0
  3  9  1  0  0  0  0
  3 39  1  0  0  0  0
  5 10  1  0  0  0  0
  5 26  1  0  0  0  0
  5 32  1  1  0  0  0
  6 12  1  0  0  0  0
  6 36  1  0  0  0  0
  6 19  1  1  0  0  0
  7  8  1  6  0  0  0
  7 14  1  0  0  0  0
  9 16  1  0  0  0  0
 10 11  1  1  0  0  0
 10 18  1  0  0  0  0
 12 13  1  1  0  0  0
 12 20  1  0  0  0  0
 14 15  1  1  0  0  0
 14 22  1  0  0  0  0
 16 17  1  1  0  0  0
 16 24  1  0  0  0  0
 18 19  1  1  0  0  0
 18 25  1  0  0  0  0
 20 21  1  6  0  0  0
 20 27  1  0  0  0  0
 22 23  1  6  0  0  0
 22 29  1  0  0  0  0
 24  2  1  1  0  0  0
 24 31  1  0  0  0  0
 25 26  1  0  0  0  0
 25 33  1  1  0  0  0
 27 28  1  1  0  0  0
 27 35  1  0  0  0  0
 29 30  1  0  0  0  0
 29 37  1  1  0  0  0
 31 32  1  6  0  0  0
 31 39  1  0  0  0  0
 33 34  1  0  0  0  0
 35 36  1  0  0  0  0
 35 41  1  1  0  0  0
 37 38  1  0  0  0  0
 39 40  1  6  0  0  0
 41 42  1  0  0  0  0
M  END
>  <CHROM.1>
-138.62007665,-60.20131128,110.29657921,-20.66513210,118.69970164,-64.73952556
-73.67814881,149.03409213,-88.53255197,11.79841106,13.71792214,-9.93061519
0.15648885,-1.10461106,1.04646227

>  <Name>
ligand

>  <RI>
0

>  <Rbt.Current_Directory>
/home/itssahil/PROJECTS/Mol_Feturizer/Test_systems_manuscript/rnas/2o3w

>  <Rbt.Executable>
rbdock ($Id: //depot/dev/client3/rdock/2013.1/src/exe/rbdock.cxx#4 $)

>  <Rbt.Library>
libRbt.so (2013.1, Build901 2013/11/27)

>  <Rbt.Parameter_File>
/export/apps/rDock/src/rDock_2013.1_src/data/scripts/dock_solv.prm

>  <Rbt.Receptor>
prm/blind_docking_80.prm

>  <SCORE>
16.6593

>  <SCORE.INTER>
-0.243122

>  <SCORE.INTER.CONST>
1

>  <SCORE.INTER.POLAR>
0

>  <SCORE.INTER.ROT>
9

>  <SCORE.INTER.SOLV>
32.1379

>  <SCORE.INTER.VDW>
-20.4747

>  <SCORE.INTER.norm>
-0.00578862

>  <SCORE.INTRA>
7.93618

>  <SCORE.INTRA.DIHEDRAL>
2.18456

>  <SCORE.INTRA.DIHEDRAL.0>
27.8999

>  <SCORE.INTRA.POLAR>
0

>  <SCORE.INTRA.POLAR.0>
0

>  <SCORE.INTRA.REPUL>
0.0348523

>  <SCORE.INTRA.REPUL.0>
0

>  <SCORE.INTRA.SOLV>
3.32966

>  <SCORE.INTRA.SOLV.lig_0>
-104.479

>  <SCORE.INTRA.VDW>
5.00481

>  <SCORE.INTRA.VDW.0>
-6.17816

>  <SCORE.INTRA.norm>
0.188957

>  <SCORE.RESTR>
8.96624

>  <SCORE.RESTR.CAVITY>
8.96624

>  <SCORE.RESTR.norm>
0.213482

>  <SCORE.SYSTEM>
0

>  <SCORE.SYSTEM.CONST>
0

>  <SCORE.SYSTEM.DIHEDRAL>
0

>  <SCORE.SYSTEM.SOLV>
0

>  <SCORE.SYSTEM.norm>
0

>  <SCORE.heavy>
42

>  <SCORE.norm>
0.39665

>  <RMSD>
18.144

$$$$
ligand
 OpenBabel02271912133D
libRbt.so/2013.1/901 2013/11/27
 42 45  0  0  0  0  0  0  0  0999 V2000
   13.6162   11.8973  -11.1484 C   0  0  2  0  0  0  0  0  0  0  0  0
   13.5153   12.9635  -12.1077 O   0  0  0  0  0  0  0  0  0  0  0  0
   11.1685   16.5332  -11.3689 C   0  0  2  0  0  0  0  0  0  0  0  0
   10.0336   17.4978  -11.2594 N   0  0  0  0  0  0  0  0  0  0  0  0
   11.8683   12.6045   -8.6254 C   0  0  1  0  0  0  0  0  0  0  0  0
   12.9199   12.0938   -5.7057 C   0  0  1  0  0  0  0  0  0  0  0  0
   14.8731   11.0591  -11.5302 C   0  0  2  0  0  0  0  0  0  0  0  0
   16.0674   11.8963  -11.7377 N   0  0  0  0  0  0  0  0  0  0  0  0
   11.4315   16.1247  -12.8741 C   0  0  0  0  0  0  0  0  0  0  0  0
   10.6023   12.8204   -7.7414 C   0  0  2  0  0  0  0  0  0  0  0  0
   10.5094   14.1435   -7.1583 O   0  0  0  0  0  0  0  0  0  0  0  0
   13.6401   10.7326   -5.3934 C   0  0  2  0  0  0  0  0  0  0  0  0
   13.2888   10.2447   -4.0262 N   0  0  0  0  0  0  0  0  0  0  0  0
   14.6656   10.2515  -12.8247 C   0  0  1  0  0  0  0  0  0  0  0  0
   15.8255    9.4694  -13.1142 O   0  0  0  0  0  0  0  0  0  0  0  0
   12.6499   15.1271  -12.9267 C   0  0  2  0  0  0  0  0  0  0  0  0
   12.9351   14.7324  -14.3326 N   0  0  0  0  0  0  0  0  0  0  0  0
   10.7343   11.6661   -6.7467 C   0  0  2  0  0  0  0  0  0  0  0  0
   11.4946   12.0619   -5.5609 O   0  0  0  0  0  0  0  0  0  0  0  0
   15.2233   10.9248   -5.5468 C   0  0  1  0  0  0  0  0  0  0  0  0
   15.5483   11.0213   -6.9518 O   0  0  0  0  0  0  0  0  0  0  0  0
   13.4077    9.3645  -12.6831 C   0  0  2  0  0  0  0  0  0  0  0  0
   13.2134    8.6060  -13.8542 O   0  0  0  0  0  0  0  0  0  0  0  0
   12.3515   13.8375  -12.0642 C   0  0  2  0  0  0  0  0  0  0  0  0
   11.4386   10.5294   -7.5065 C   0  0  2  0  0  0  0  0  0  0  0  0
   12.2667   11.2277   -8.4334 O   0  0  0  0  0  0  0  0  0  0  0  0
   15.7697   12.2213   -4.7800 C   0  0  2  0  0  0  0  0  0  0  0  0
   15.6564   11.9732   -3.3793 O   0  0  0  0  0  0  0  0  0  0  0  0
   12.1678   10.2778  -12.4036 C   0  0  2  0  0  0  0  0  0  0  0  0
   12.3976   11.0613  -11.1898 O   0  0  0  0  0  0  0  0  0  0  0  0
   12.0290   14.1647  -10.5897 C   0  0  2  0  0  0  0  0  0  0  0  0
   11.6052   12.9037  -10.0025 O   0  0  0  0  0  0  0  0  0  0  0  0
   10.4837    9.5391   -8.2425 C   0  0  0  0  0  0  0  0  0  0  0  0
   11.1934    8.8981   -9.2981 O   0  0  0  0  0  0  0  0  0  0  0  0
   14.9331   13.4959   -5.1774 C   0  0  1  0  0  0  0  0  0  0  0  0
   13.5311   13.1835   -4.8501 O   0  0  0  0  0  0  0  0  0  0  0  0
   10.8887    9.4890  -12.2442 C   0  0  0  0  0  0  0  0  0  0  0  0
   10.4574    9.0070  -13.4936 O   0  0  0  0  0  0  0  0  0  0  0  0
   10.8673   15.2415  -10.5078 C   0  0  1  0  0  0  0  0  0  0  0  0
   10.6732   15.6557   -9.1526 O   0  0  0  0  0  0  0  0  0  0  0  0
   15.3876   14.8264   -4.4346 C   0  0  0  0  0  0  0  0  0  0  0  0
   16.7794   15.2748   -4.7146 N   0  0  0  0  0  0  0  0  0  0  0  0
  1  2  1  6  0  0  0
  1  7  1  0  0  0  0
  1 30  1  0  0  0  0
  3  4  1  6  0  0  0
  3  9  1  0  0  0  0
  3 39  1  0  0  0  0
  5 10  1  0  0  0  0
  5 26  1  0  0  0  0
  5 32  1  6  0  0  0
  6 12  1  0  0  0  0
  6 36  1  0  0  0  0
  6 19  1  1  0  0  0
  7  8  1  6  0  0  0
  7 14  1  0  0  0  0
  9 16  1  0  0  0  0
 10 11  1  1  0  0  0
 10 18  1  0  0  0  0
 12 13  1  1  0  0  0
 12 20  1  0  0  0  0
 14 15  1  1  0  0  0
 14 22  1  0  0  0  0
 16 17  1  6  0  0  0
 16 24  1  0  0  0  0
 18 19  1  1  0  0  0
 18 25  1  0  0  0  0
 20 21  1  6  0  0  0
 20 27  1  0  0  0  0
 22 23  1  6  0  0  0
 22 29  1  0  0  0  0
 24  2  1  1  0  0  0
 24 31  1  0  0  0  0
 25 26  1  0  0  0  0
 25 33  1  6  0  0  0
 27 28  1  1  0  0  0
 27 35  1  0  0  0  0
 29 30  1  0  0  0  0
 29 37  1  1  0  0  0
 31 32  1  1  0  0  0
 31 39  1  0  0  0  0
 33 34  1  0  0  0  0
 35 36  1  0  0  0  0
 35 41  1  1  0  0  0
 37 38  1  0  0  0  0
 39 40  1  1  0  0  0
 41 42  1  0  0  0  0
M  END
>  <CHROM.1>
174.38752467,164.88899137,-79.02918923,-88.67737582,156.96585202,-73.34653608
147.73855161,101.31699300,62.46036892,12.85149743,12.26573404,-9.22849642
-2.18022511,-1.19137273,0.92648617

>  <Name>
ligand

>  <RI>
0

>  <Rbt.Current_Directory>
/home/itssahil/PROJECTS/Mol_Feturizer/Test_systems_manuscript/rnas/2o3w

>  <Rbt.Executable>
rbdock ($Id: //depot/dev/client3/rdock/2013.1/src/exe/rbdock.cxx#4 $)

>  <Rbt.Library>
libRbt.so (2013.1, Build901 2013/11/27)

>  <Rbt.Parameter_File>
/export/apps/rDock/src/rDock_2013.1_src/data/scripts/dock_solv.prm

>  <Rbt.Receptor>
prm/blind_docking_80.prm

>  <SCORE>
11.9843

>  <SCORE.INTER>
3.86157

>  <SCORE.INTER.CONST>
1

>  <SCORE.INTER.POLAR>
0

>  <SCORE.INTER.ROT>
9

>  <SCORE.INTER.SOLV>
33.7996

>  <SCORE.INTER.VDW>
-18.2922

>  <SCORE.INTER.norm>
0.091942

>  <SCORE.INTRA>
0.241737

>  <SCORE.INTRA.DIHEDRAL>
-9.64036

>  <SCORE.INTRA.DIHEDRAL.0>
27.8999

>  <SCORE.INTRA.POLAR>
0

>  <SCORE.INTRA.POLAR.0>
0

>  <SCORE.INTRA.REPUL>
0.10831

>  <SCORE.INTRA.REPUL.0>
0

>  <SCORE.INTRA.SOLV>
-3.19967

>  <SCORE.INTRA.SOLV.lig_0>
-104.479

>  <SCORE.INTRA.VDW>
6.1202

>  <SCORE.INTRA.VDW.0>
-6.17816

>  <SCORE.INTRA.norm>
0.00575563

>  <SCORE.RESTR>
7.88103

>  <SCORE.RESTR.CAVITY>
7.88103

>  <SCORE.RESTR.norm>
0.187643

>  <SCORE.SYSTEM>
0

>  <SCORE.SYSTEM.CONST>
0

>  <SCORE.SYSTEM.DIHEDRAL>
0

>  <SCORE.SYSTEM.SOLV>
0

>  <SCORE.SYSTEM.norm>
0

>  <SCORE.heavy>
42

>  <SCORE.norm>
0.285341

>  <RMSD>
18.154

$$$$
ligand
 OpenBabel02271912133D
libRbt.so/2013.1/901 2013/11/27
 42 45  0  0  0  0  0  0  0  0999 V2000
   12.2138   11.3566   -7.8709 C   0  0  2  0  0  0  0  0  0  0  0  0
   12.5742   11.9446   -9.1325 O   0  0  0  0  0  0  0  0  0  0  0  0
   14.2840    8.8473  -11.6385 C   0  0  2  0  0  0  0  0  0  0  0  0
   14.5599    7.9269  -12.7818 N   0  0  0  0  0  0  0  0  0  0  0  0
   12.7080   13.2288  -11.9305 C   0  0  1  0  0  0  0  0  0  0  0  0
    9.3361   16.1762  -12.1610 C   0  0  1  0  0  0  0  0  0  0  0  0
   11.4388   12.4435   -7.0671 C   0  0  2  0  0  0  0  0  0  0  0  0
   10.3604   13.0655   -7.8551 N   0  0  0  0  0  0  0  0  0  0  0  0
   12.8478    8.5896  -11.0279 C   0  0  0  0  0  0  0  0  0  0  0  0
   12.3088   14.5419  -11.1908 C   0  0  2  0  0  0  0  0  0  0  0  0
   11.5004   14.3292  -10.0075 O   0  0  0  0  0  0  0  0  0  0  0  0
    9.9231   17.2772  -11.2059 C   0  0  2  0  0  0  0  0  0  0  0  0
   10.3202   16.6872   -9.8924 N   0  0  0  0  0  0  0  0  0  0  0  0
   12.3570   13.5844   -6.5917 C   0  0  1  0  0  0  0  0  0  0  0  0
   11.6138   14.5353   -5.8273 O   0  0  0  0  0  0  0  0  0  0  0  0
   12.6248    9.5716   -9.8161 C   0  0  2  0  0  0  0  0  0  0  0  0
   11.2861    9.3463   -9.2071 N   0  0  0  0  0  0  0  0  0  0  0  0
   11.6375   15.3261  -12.3193 C   0  0  2  0  0  0  0  0  0  0  0  0
   10.2010   15.0552  -12.3822 O   0  0  0  0  0  0  0  0  0  0  0  0
    8.8385   18.4401  -11.0101 C   0  0  1  0  0  0  0  0  0  0  0  0
    8.7696   19.2235  -12.2226 O   0  0  0  0  0  0  0  0  0  0  0  0
   13.5296   12.9959   -5.7744 C   0  0  2  0  0  0  0  0  0  0  0  0
   14.3707   14.0295   -5.3174 O   0  0  0  0  0  0  0  0  0  0  0  0
   12.7467   11.0745  -10.2873 C   0  0  2  0  0  0  0  0  0  0  0  0
   12.3434   14.8934  -13.6154 C   0  0  2  0  0  0  0  0  0  0  0  0
   12.7199   13.5459  -13.3414 O   0  0  0  0  0  0  0  0  0  0  0  0
    7.3815   17.8778  -10.6517 C   0  0  2  0  0  0  0  0  0  0  0  0
    7.4420   17.3326   -9.3343 O   0  0  0  0  0  0  0  0  0  0  0  0
   14.3254   11.9919   -6.6734 C   0  0  2  0  0  0  0  0  0  0  0  0
   13.4294   10.9351   -7.1425 O   0  0  0  0  0  0  0  0  0  0  0  0
   14.1076   11.3867  -10.9474 C   0  0  2  0  0  0  0  0  0  0  0  0
   13.9750   12.7344  -11.4772 O   0  0  0  0  0  0  0  0  0  0  0  0
   13.5841   15.7541  -14.0079 C   0  0  0  0  0  0  0  0  0  0  0  0
   13.1805   17.1088  -14.1832 O   0  0  0  0  0  0  0  0  0  0  0  0
    6.9451   16.7683  -11.6815 C   0  0  1  0  0  0  0  0  0  0  0  0
    7.9893   15.7303  -11.6317 O   0  0  0  0  0  0  0  0  0  0  0  0
   15.4918   11.3611   -5.9487 C   0  0  0  0  0  0  0  0  0  0  0  0
   15.0310   10.5966   -4.8612 O   0  0  0  0  0  0  0  0  0  0  0  0
   14.4031   10.3513  -12.1121 C   0  0  1  0  0  0  0  0  0  0  0  0
   15.7257   10.5453  -12.6209 O   0  0  0  0  0  0  0  0  0  0  0  0
    5.5203   16.1295  -11.3803 C   0  0  0  0  0  0  0  0  0  0  0  0
    5.2086   15.9042   -9.9420 N   0  0  0  0  0  0  0  0  0  0  0  0
  1  2  1  6  0  0  0
  1  7  1  0  0  0  0
  1 30  1  0  0  0  0
  3  4  1  6  0  0  0
  3  9  1  0  0  0  0
  3 39  1  0  0  0  0
  5 10  1  0  0  0  0
  5 26  1  0  0  0  0
  5 32  1  1  0  0  0
  6 12  1  0  0  0  0
  6 36  1  0  0  0  0
  6 19  1  1  0  0  0
  7  8  1  6  0  0  0
  7 14  1  0  0  0  0
  9 16  1  0  0  0  0
 10 11  1  1  0  0  0
 10 18  1  0  0  0  0
 12 13  1  1  0  0  0
 12 20  1  0  0  0  0
 14 15  1  1  0  0  0
 14 22  1  0  0  0  0
 16 17  1  6  0  0  0
 16 24  1  0  0  0  0
 18 19  1  6  0  0  0
 18 25  1  0  0  0  0
 20 21  1  6  0  0  0
 20 27  1  0  0  0  0
 22 23  1  6  0  0  0
 22 29  1  0  0  0  0
 24  2  1  1  0  0  0
 24 31  1  0  0  0  0
 25 26  1  0  0  0  0
 25 33  1  1  0  0  0
 27 28  1  1  0  0  0
 27 35  1  0  0  0  0
 29 30  1  0  0  0  0
 29 37  1  1  0  0  0
 31 32  1  6  0  0  0
 31 39  1  0  0  0  0
 33 34  1  0  0  0  0
 35 36  1  0  0  0  0
 35 41  1  1  0  0  0
 37 38  1  0  0  0  0
 39 40  1  1  0  0  0
 41 42  1  0  0  0  0
M  END
>  <CHROM.1>
-152.58258003,-5.80402932,117.85337327,-30.04372407,-59.58191433,62.90727301
-30.92300452,123.67173102,-38.74925525,11.70811188,13.60915032,-10.13314014
0.39575112,-0.82182358,1.69366793

>  <Name>
ligand

>  <RI>
0

>  <Rbt.Current_Directory>
/home/itssahil/PROJECTS/Mol_Feturizer/Test_systems_manuscript/rnas/2o3w

>  <Rbt.Executable>
rbdock ($Id: //depot/dev/client3/rdock/2013.1/src/exe/rbdock.cxx#4 $)

>  <Rbt.Library>
libRbt.so (2013.1, Build901 2013/11/27)

>  <Rbt.Parameter_File>
/export/apps/rDock/src/rDock_2013.1_src/data/scripts/dock_solv.prm

>  <Rbt.Receptor>
prm/blind_docking_100.prm

>  <SCORE>
7.98419

>  <SCORE.INTER>
-8.33783

>  <SCORE.INTER.CONST>
1

>  <SCORE.INTER.POLAR>
0

>  <SCORE.INTER.ROT>
9

>  <SCORE.INTER.SOLV>
24.9163

>  <SCORE.INTER.VDW>
-23.464

>  <SCORE.INTER.norm>
-0.19852

>  <SCORE.INTRA>
11.7202

>  <SCORE.INTRA.DIHEDRAL>
5.08067

>  <SCORE.INTRA.DIHEDRAL.0>
27.8999

>  <SCORE.INTRA.POLAR>
0

>  <SCORE.INTRA.POLAR.0>
0

>  <SCORE.INTRA.REPUL>
0.0909158

>  <SCORE.INTRA.REPUL.0>
0

>  <SCORE.INTRA.SOLV>
2.46119

>  <SCORE.INTRA.SOLV.lig_0>
-104.479

>  <SCORE.INTRA.VDW>
7.4947

>  <SCORE.INTRA.VDW.0>
-6.17816

>  <SCORE.INTRA.norm>
0.279053

>  <SCORE.RESTR>
4.60182

>  <SCORE.RESTR.CAVITY>
4.60182

>  <SCORE.RESTR.norm>
0.109567

>  <SCORE.SYSTEM>
0

>  <SCORE.SYSTEM.CONST>
0

>  <SCORE.SYSTEM.DIHEDRAL>
0

>  <SCORE.SYSTEM.SOLV>
0

>  <SCORE.SYSTEM.norm>
0

>  <SCORE.heavy>
42

>  <SCORE.norm>
0.1901

>  <RMSD>
18.157

$$$$
ligand
 OpenBabel02271912133D
libRbt.so/2013.1/901 2013/11/27
 42 45  0  0  0  0  0  0  0  0999 V2000
   12.1640   12.2728   -7.0710 C   0  0  2  0  0  0  0  0  0  0  0  0
   12.7038   12.2931   -8.4034 O   0  0  0  0  0  0  0  0  0  0  0  0
   12.1456    9.3056  -11.4953 C   0  0  2  0  0  0  0  0  0  0  0  0
   11.5572    8.4768  -12.5895 N   0  0  0  0  0  0  0  0  0  0  0  0
   11.2318   13.6026  -11.6020 C   0  0  1  0  0  0  0  0  0  0  0  0
    8.1200   16.2020  -11.4388 C   0  0  1  0  0  0  0  0  0  0  0  0
   12.4989   13.6500   -6.4234 C   0  0  2  0  0  0  0  0  0  0  0  0
   12.1257   14.7844   -7.2862 N   0  0  0  0  0  0  0  0  0  0  0  0
   11.3456    9.1226  -10.1431 C   0  0  0  0  0  0  0  0  0  0  0  0
   10.9540   15.0956  -11.2493 C   0  0  2  0  0  0  0  0  0  0  0  0
   10.2275   15.2831  -10.0099 O   0  0  0  0  0  0  0  0  0  0  0  0
    6.5520   16.1833  -11.5390 C   0  0  2  0  0  0  0  0  0  0  0  0
    6.1002   16.5750  -12.9077 N   0  0  0  0  0  0  0  0  0  0  0  0
   13.9999   13.8010   -6.1146 C   0  0  1  0  0  0  0  0  0  0  0  0
   14.2545   15.0589   -5.4872 O   0  0  0  0  0  0  0  0  0  0  0  0
   12.0250   10.0011   -9.0254 C   0  0  2  0  0  0  0  0  0  0  0  0
   11.3051    9.8416   -7.7331 N   0  0  0  0  0  0  0  0  0  0  0  0
   10.2387   15.5716  -12.5147 C   0  0  2  0  0  0  0  0  0  0  0  0
    8.7901   15.3927  -12.4134 O   0  0  0  0  0  0  0  0  0  0  0  0
    5.9396   17.1626  -10.4286 C   0  0  1  0  0  0  0  0  0  0  0  0
    6.0785   16.5421   -9.1307 O   0  0  0  0  0  0  0  0  0  0  0  0
   14.4648   12.6236   -5.2278 C   0  0  2  0  0  0  0  0  0  0  0  0
   15.8336   12.7560   -4.9222 O   0  0  0  0  0  0  0  0  0  0  0  0
   12.0334   11.5247   -9.4429 C   0  0  2  0  0  0  0  0  0  0  0  0
   10.8231   14.7418  -13.6702 C   0  0  2  0  0  0  0  0  0  0  0  0
   11.1529   13.5050  -13.0426 O   0  0  0  0  0  0  0  0  0  0  0  0
    6.6433   18.6021  -10.4125 C   0  0  2  0  0  0  0  0  0  0  0  0
    6.2696   19.2778  -11.6125 O   0  0  0  0  0  0  0  0  0  0  0  0
   14.1940   11.2788   -5.9813 C   0  0  2  0  0  0  0  0  0  0  0  0
   12.7696   11.1693   -6.2956 O   0  0  0  0  0  0  0  0  0  0  0  0
   12.7513   11.7733  -10.7876 C   0  0  2  0  0  0  0  0  0  0  0  0
   12.5036   13.1717  -11.1001 O   0  0  0  0  0  0  0  0  0  0  0  0
   12.0713   15.3689  -14.3652 C   0  0  0  0  0  0  0  0  0  0  0  0
   13.0978   15.5680  -13.3980 O   0  0  0  0  0  0  0  0  0  0  0  0
    8.2099   18.4541  -10.3353 C   0  0  1  0  0  0  0  0  0  0  0  0
    8.6015   17.6366  -11.4966 O   0  0  0  0  0  0  0  0  0  0  0  0
   14.6147   10.0684   -5.1803 C   0  0  0  0  0  0  0  0  0  0  0  0
   16.0145   10.0402   -5.0432 O   0  0  0  0  0  0  0  0  0  0  0  0
   12.1506   10.8307  -11.9130 C   0  0  1  0  0  0  0  0  0  0  0  0
   12.9137   10.9513  -13.1166 O   0  0  0  0  0  0  0  0  0  0  0  0
    8.9926   19.8382  -10.3486 C   0  0  0  0  0  0  0  0  0  0  0  0
   10.4712   19.7386  -10.4913 N   0  0  0  0  0  0  0  0  0  0  0  0
  1  2  1  6  0  0  0
  1  7  1  0  0  0  0
  1 30  1  0  0  0  0
  3  4  1  6  0  0  0
  3  9  1  0  0  0  0
  3 39  1  0  0  0  0
  5 10  1  0  0  0  0
  5 26  1  0  0  0  0
  5 32  1  6  0  0  0
  6 12  1  0  0  0  0
  6 36  1  0  0  0  0
  6 19  1  6  0  0  0
  7  8  1  6  0  0  0
  7 14  1  0  0  0  0
  9 16  1  0  0  0  0
 10 11  1  1  0  0  0
 10 18  1  0  0  0  0
 12 13  1  6  0  0  0
 12 20  1  0  0  0  0
 14 15  1  1  0  0  0
 14 22  1  0  0  0  0
 16 17  1  1  0  0  0
 16 24  1  0  0  0  0
 18 19  1  1  0  0  0
 18 25  1  0  0  0  0
 20 21  1  1  0  0  0
 20 27  1  0  0  0  0
 22 23  1  6  0  0  0
 22 29  1  0  0  0  0
 24  2  1  1  0  0  0
 24 31  1  0  0  0  0
 25 26  1  0  0  0  0
 25 33  1  1  0  0  0
 27 28  1  6  0  0  0
 27 35  1  0  0  0  0
 29 30  1  0  0  0  0
 29 37  1  1  0  0  0
 31 32  1  6  0  0  0
 31 39  1  0  0  0  0
 33 34  1  0  0  0  0
 35 36  1  0  0  0  0
 35 41  1  6  0  0  0
 37 38  1  0  0  0  0
 39 40  1  6  0  0  0
 41 42  1  0  0  0  0
M  END
>  <CHROM.1>
-149.37321263,-59.92489937,66.68236450,169.14931523,58.19277549,-67.29080954
-76.38805972,153.52821692,-170.83929838,11.14292203,13.94716518,-9.83074385
-0.00014556,-0.92293048,0.94916718

>  <Name>
ligand

>  <RI>
0

>  <Rbt.Current_Directory>
/home/itssahil/PROJECTS/Mol_Feturizer/Test_systems_manuscript/rnas/2o3w

>  <Rbt.Executable>
rbdock ($Id: //depot/dev/client3/rdock/2013.1/src/exe/rbdock.cxx#4 $)

>  <Rbt.Library>
libRbt.so (2013.1, Build901 2013/11/27)

>  <Rbt.Parameter_File>
/export/apps/rDock/src/rDock_2013.1_src/data/scripts/dock_solv.prm

>  <Rbt.Receptor>
prm/blind_docking_80.prm

>  <SCORE>
0.629292

>  <SCORE.INTER>
-2.6205

>  <SCORE.INTER.CONST>
1

>  <SCORE.INTER.POLAR>
0

>  <SCORE.INTER.ROT>
9

>  <SCORE.INTER.SOLV>
32.5322

>  <SCORE.INTER.VDW>
-22.1911

>  <SCORE.INTER.norm>
-0.0623928

>  <SCORE.INTRA>
-5.52936

>  <SCORE.INTRA.DIHEDRAL>
-18.5773

>  <SCORE.INTRA.DIHEDRAL.0>
27.8999

>  <SCORE.INTRA.POLAR>
0

>  <SCORE.INTRA.POLAR.0>
0

>  <SCORE.INTRA.REPUL>
0

>  <SCORE.INTRA.REPUL.0>
0

>  <SCORE.INTRA.SOLV>
-0.997589

>  <SCORE.INTRA.SOLV.lig_0>
-104.479

>  <SCORE.INTRA.VDW>
4.25811

>  <SCORE.INTRA.VDW.0>
-6.17816

>  <SCORE.INTRA.norm>
-0.131651

>  <SCORE.RESTR>
8.77915

>  <SCORE.RESTR.CAVITY>
8.77915

>  <SCORE.RESTR.norm>
0.209027

>  <SCORE.SYSTEM>
0

>  <SCORE.SYSTEM.CONST>
0

>  <SCORE.SYSTEM.DIHEDRAL>
0

>  <SCORE.SYSTEM.SOLV>
0

>  <SCORE.SYSTEM.norm>
0

>  <SCORE.heavy>
42

>  <SCORE.norm>
0.0149831

>  <RMSD>
18.164

$$$$
ligand
 OpenBabel02271912133D
libRbt.so/2013.1/901 2013/11/27
 42 45  0  0  0  0  0  0  0  0999 V2000
   12.4501   11.3772   -7.9934 C   0  0  2  0  0  0  0  0  0  0  0  0
   13.3566   11.7773   -9.0353 O   0  0  0  0  0  0  0  0  0  0  0  0
   14.4178    9.6377  -12.6535 C   0  0  2  0  0  0  0  0  0  0  0  0
   14.3717    9.0242  -14.0144 N   0  0  0  0  0  0  0  0  0  0  0  0
   12.2535   13.5382  -11.4135 C   0  0  1  0  0  0  0  0  0  0  0  0
    9.0786   16.2033  -11.8765 C   0  0  1  0  0  0  0  0  0  0  0  0
   11.7979   12.6769   -7.4336 C   0  0  2  0  0  0  0  0  0  0  0  0
   11.2629   13.5430   -8.4986 N   0  0  0  0  0  0  0  0  0  0  0  0
   13.3622    8.9667  -11.6854 C   0  0  0  0  0  0  0  0  0  0  0  0
   11.9150   14.8722  -12.1462 C   0  0  2  0  0  0  0  0  0  0  0  0
   11.8802   16.0301  -11.2760 O   0  0  0  0  0  0  0  0  0  0  0  0
    9.5610   16.9271  -10.5680 C   0  0  2  0  0  0  0  0  0  0  0  0
    9.0819   16.2051   -9.3514 N   0  0  0  0  0  0  0  0  0  0  0  0
   12.7938   13.5292   -6.6256 C   0  0  1  0  0  0  0  0  0  0  0  0
   12.1444   14.6878   -6.0995 O   0  0  0  0  0  0  0  0  0  0  0  0
   13.4740    9.6381  -10.2644 C   0  0  2  0  0  0  0  0  0  0  0  0
   12.5027    9.0197   -9.3221 N   0  0  0  0  0  0  0  0  0  0  0  0
   10.5913   14.5120  -12.8225 C   0  0  2  0  0  0  0  0  0  0  0  0
    9.4472   14.8213  -11.9646 O   0  0  0  0  0  0  0  0  0  0  0  0
    9.0411   18.4426  -10.5798 C   0  0  1  0  0  0  0  0  0  0  0  0
    9.8172   19.1952  -11.5390 O   0  0  0  0  0  0  0  0  0  0  0  0
   13.4136   12.6697   -5.5003 C   0  0  2  0  0  0  0  0  0  0  0  0
   14.3155   13.4403   -4.7406 O   0  0  0  0  0  0  0  0  0  0  0  0
   13.2043   11.1918  -10.3598 C   0  0  2  0  0  0  0  0  0  0  0  0
   10.6671   13.0068  -13.1292 C   0  0  2  0  0  0  0  0  0  0  0  0
   11.4890   12.5059  -12.0776 O   0  0  0  0  0  0  0  0  0  0  0  0
    7.4839   18.5632  -10.9374 C   0  0  2  0  0  0  0  0  0  0  0  0
    6.7468   18.0273   -9.8393 O   0  0  0  0  0  0  0  0  0  0  0  0
   14.1394   11.4388   -6.1390 C   0  0  2  0  0  0  0  0  0  0  0  0
   13.1855   10.6610   -6.9294 O   0  0  0  0  0  0  0  0  0  0  0  0
   14.1649   11.9077  -11.3344 C   0  0  2  0  0  0  0  0  0  0  0  0
   13.6611   13.2679  -11.4372 O   0  0  0  0  0  0  0  0  0  0  0  0
   11.2629   12.6490  -14.5261 C   0  0  0  0  0  0  0  0  0  0  0  0
   11.4571   11.2403  -14.6078 O   0  0  0  0  0  0  0  0  0  0  0  0
    7.1532   17.7673  -12.2563 C   0  0  1  0  0  0  0  0  0  0  0  0
    7.5808   16.3785  -12.0143 O   0  0  0  0  0  0  0  0  0  0  0  0
   14.7720   10.5361   -5.1052 C   0  0  0  0  0  0  0  0  0  0  0  0
   13.8255   10.1818   -4.1265 O   0  0  0  0  0  0  0  0  0  0  0  0
   14.1446   11.1922  -12.7498 C   0  0  1  0  0  0  0  0  0  0  0  0
   15.1425   11.7588  -13.6035 O   0  0  0  0  0  0  0  0  0  0  0  0
    5.6178   17.8058  -12.6682 C   0  0  0  0  0  0  0  0  0  0  0  0
    4.7060   16.9844  -11.8252 N   0  0  0  0  0  0  0  0  0  0  0  0
  1  2  1  6  0  0  0
  1  7  1  0  0  0  0
  1 30  1  0  0  0  0
  3  4  1  6  0  0  0
  3  9  1  0  0  0  0
  3 39  1  0  0  0  0
  5 10  1  0  0  0  0
  5 26  1  0  0  0  0
  5 32  1  6  0  0  0
  6 12  1  0  0  0  0
  6 36  1  0  0  0  0
  6 19  1  1  0  0  0
  7  8  1  6  0  0  0
  7 14  1  0  0  0  0
  9 16  1  0  0  0  0
 10 11  1  1  0  0  0
 10 18  1  0  0  0  0
 12 13  1  1  0  0  0
 12 20  1  0  0  0  0
 14 15  1  1  0  0  0
 14 22  1  0  0  0  0
 16 17  1  1  0  0  0
 16 24  1  0  0  0  0
 18 19  1  1  0  0  0
 18 25  1  0  0  0  0
 20 21  1  6  0  0  0
 20 27  1  0  0  0  0
 22 23  1  6  0  0  0
 22 29  1  0  0  0  0
 24  2  1  1  0  0  0
 24 31  1  0  0  0  0
 25 26  1  0  0  0  0
 25 33  1  6  0  0  0
 27 28  1  1  0  0  0
 27 35  1  0  0  0  0
 29 30  1  0  0  0  0
 29 37  1  1  0  0  0
 31 32  1  6  0  0  0
 31 39  1  0  0  0  0
 33 34  1  0  0  0  0
 35 36  1  0  0  0  0
 35 41  1  1  0  0  0
 37 38  1  0  0  0  0
 39 40  1  6  0  0  0
 41 42  1  0  0  0  0
M  END
>  <CHROM.1>
-124.74624434,-63.89111628,76.56759770,-101.44542329,171.65839901,52.25233137
-35.97165226,-154.52582087,-72.88985724,11.49854287,13.53090954,-10.29295560
0.19551991,-0.86183471,1.36569264

>  <Name>
ligand

>  <RI>
0

>  <Rbt.Current_Directory>
/home/itssahil/PROJECTS/Mol_Feturizer/Test_systems_manuscript/rnas/2o3w

>  <Rbt.Executable>
rbdock ($Id: //depot/dev/client3/rdock/2013.1/src/exe/rbdock.cxx#4 $)

>  <Rbt.Library>
libRbt.so (2013.1, Build901 2013/11/27)

>  <Rbt.Parameter_File>
/export/apps/rDock/src/rDock_2013.1_src/data/scripts/dock_solv.prm

>  <Rbt.Receptor>
prm/blind_docking_100.prm

>  <SCORE>
5.83695

>  <SCORE.INTER>
-6.04406

>  <SCORE.INTER.CONST>
1

>  <SCORE.INTER.POLAR>
0

>  <SCORE.INTER.ROT>
9

>  <SCORE.INTER.SOLV>
26.8418

>  <SCORE.INTER.VDW>
-22.5766

>  <SCORE.INTER.norm>
-0.143906

>  <SCORE.INTRA>
2.1447

>  <SCORE.INTRA.DIHEDRAL>
-7.49541

>  <SCORE.INTRA.DIHEDRAL.0>
27.8999

>  <SCORE.INTRA.POLAR>
0

>  <SCORE.INTRA.POLAR.0>
0

>  <SCORE.INTRA.REPUL>
0

>  <SCORE.INTRA.REPUL.0>
0

>  <SCORE.INTRA.SOLV>
3.63235

>  <SCORE.INTRA.SOLV.lig_0>
-104.479

>  <SCORE.INTRA.VDW>
4.07623

>  <SCORE.INTRA.VDW.0>
-6.17816

>  <SCORE.INTRA.norm>
0.0510644

>  <SCORE.RESTR>
9.73631

>  <SCORE.RESTR.CAVITY>
9.73631

>  <SCORE.RESTR.norm>
0.231817

>  <SCORE.SYSTEM>
0

>  <SCORE.SYSTEM.CONST>
0

>  <SCORE.SYSTEM.DIHEDRAL>
0

>  <SCORE.SYSTEM.SOLV>
0

>  <SCORE.SYSTEM.norm>
0

>  <SCORE.heavy>
42

>  <SCORE.norm>
0.138975

>  <RMSD>
18.170

$$$$
ligand
 OpenBabel02271912133D
libRbt.so/2013.1/901 2013/11/27
 42 45  0  0  0  0  0  0  0  0999 V2000
   11.7304   13.3745   -7.2816 C   0  0  2  0  0  0  0  0  0  0  0  0
   12.4682   13.3131   -8.5141 O   0  0  0  0  0  0  0  0  0  0  0  0
   13.0271   10.6930  -11.9228 C   0  0  2  0  0  0  0  0  0  0  0  0
   12.8890    9.5697  -12.8972 N   0  0  0  0  0  0  0  0  0  0  0  0
   10.1007   14.5656  -10.5131 C   0  0  1  0  0  0  0  0  0  0  0  0
    9.8290   17.5092  -11.1689 C   0  0  1  0  0  0  0  0  0  0  0  0
   12.7662   13.6155   -6.1427 C   0  0  2  0  0  0  0  0  0  0  0  0
   13.6804   14.7321   -6.4390 N   0  0  0  0  0  0  0  0  0  0  0  0
   13.5027   10.1701  -10.5078 C   0  0  0  0  0  0  0  0  0  0  0  0
    8.5649   14.8337  -10.5103 C   0  0  2  0  0  0  0  0  0  0  0  0
    7.9802   14.9249  -11.8327 O   0  0  0  0  0  0  0  0  0  0  0  0
   10.0292   18.9534  -11.7547 C   0  0  2  0  0  0  0  0  0  0  0  0
    8.9006   19.3227  -12.6606 N   0  0  0  0  0  0  0  0  0  0  0  0
   13.6452   12.3786   -5.8809 C   0  0  1  0  0  0  0  0  0  0  0  0
   14.5508   12.6306   -4.8052 O   0  0  0  0  0  0  0  0  0  0  0  0
   13.6512   11.3992   -9.5331 C   0  0  2  0  0  0  0  0  0  0  0  0
   14.1122   10.9445   -8.1936 N   0  0  0  0  0  0  0  0  0  0  0  0
    8.4868   16.1044   -9.6626 C   0  0  2  0  0  0  0  0  0  0  0  0
    8.5841   17.3086  -10.4880 O   0  0  0  0  0  0  0  0  0  0  0  0
   11.4319   19.0213  -12.5258 C   0  0  1  0  0  0  0  0  0  0  0  0
   12.5000   19.0355  -11.5523 O   0  0  0  0  0  0  0  0  0  0  0  0
   12.7435   11.1584   -5.5855 C   0  0  2  0  0  0  0  0  0  0  0  0
   13.5336   10.0211   -5.3271 O   0  0  0  0  0  0  0  0  0  0  0  0
   12.2769   12.1649   -9.3890 C   0  0  2  0  0  0  0  0  0  0  0  0
    9.6515   16.0193   -8.6618 C   0  0  2  0  0  0  0  0  0  0  0  0
   10.6400   15.2860   -9.3812 O   0  0  0  0  0  0  0  0  0  0  0  0
   11.6454   17.7974  -13.5378 C   0  0  2  0  0  0  0  0  0  0  0  0
   10.7284   17.9665  -14.6180 O   0  0  0  0  0  0  0  0  0  0  0  0
   11.8018   10.9109   -6.8109 C   0  0  2  0  0  0  0  0  0  0  0  0
   10.9998   12.1076   -7.0647 O   0  0  0  0  0  0  0  0  0  0  0  0
   11.7209   12.6575  -10.7430 C   0  0  2  0  0  0  0  0  0  0  0  0
   10.3897   13.1629  -10.4482 O   0  0  0  0  0  0  0  0  0  0  0  0
    9.3077   15.3206   -7.3098 C   0  0  0  0  0  0  0  0  0  0  0  0
   10.4278   15.4121   -6.4347 O   0  0  0  0  0  0  0  0  0  0  0  0
   11.3850   16.4238  -12.8115 C   0  0  1  0  0  0  0  0  0  0  0  0
   10.0133   16.4960  -12.2790 O   0  0  0  0  0  0  0  0  0  0  0  0
   10.8763    9.7342   -6.6046 C   0  0  0  0  0  0  0  0  0  0  0  0
   10.3299    9.3255   -7.8350 O   0  0  0  0  0  0  0  0  0  0  0  0
   11.6501   11.4567  -11.7769 C   0  0  1  0  0  0  0  0  0  0  0  0
   11.2802   11.9409  -13.0709 O   0  0  0  0  0  0  0  0  0  0  0  0
   11.5424   15.1528  -13.7540 C   0  0  0  0  0  0  0  0  0  0  0  0
   12.9335   14.8387  -14.1816 N   0  0  0  0  0  0  0  0  0  0  0  0
  1  2  1  6  0  0  0
  1  7  1  0  0  0  0
  1 30  1  0  0  0  0
  3  4  1  6  0  0  0
  3  9  1  0  0  0  0
  3 39  1  0  0  0  0
  5 10  1  0  0  0  0
  5 26  1  0  0  0  0
  5 32  1  1  0  0  0
  6 12  1  0  0  0  0
  6 36  1  0  0  0  0
  6 19  1  6  0  0  0
  7  8  1  6  0  0  0
  7 14  1  0  0  0  0
  9 16  1  0  0  0  0
 10 11  1  6  0  0  0
 10 18  1  0  0  0  0
 12 13  1  6  0  0  0
 12 20  1  0  0  0  0
 14 15  1  1  0  0  0
 14 22  1  0  0  0  0
 16 17  1  1  0  0  0
 16 24  1  0  0  0  0
 18 19  1  6  0  0  0
 18 25  1  0  0  0  0
 20 21  1  1  0  0  0
 20 27  1  0  0  0  0
 22 23  1  6  0  0  0
 22 29  1  0  0  0  0
 24  2  1  1  0  0  0
 24 31  1  0  0  0  0
 25 26  1  0  0  0  0
 25 33  1  1  0  0  0
 27 28  1  6  0  0  0
 27 35  1  0  0  0  0
 29 30  1  0  0  0  0
 29 37  1  1  0  0  0
 31 32  1  1  0  0  0
 31 39  1  0  0  0  0
 33 34  1  0  0  0  0
 35 36  1  0  0  0  0
 35 41  1  6  0  0  0
 37 38  1  0  0  0  0
 39 40  1  6  0  0  0
 41 42  1  0  0  0  0
M  END
>  <CHROM.1>
127.28588140,-118.04028531,-64.93971411,-165.95409402,-174.91778510,-163.71538898
110.45060145,165.82270031,70.24128812,11.37196718,14.04237726,-9.80714861
0.68035824,-1.20782114,1.57273984

>  <Name>
ligand

>  <RI>
0

>  <Rbt.Current_Directory>
/home/itssahil/PROJECTS/Mol_Feturizer/Test_systems_manuscript/rnas/2o3w

>  <Rbt.Executable>
rbdock ($Id: //depot/dev/client3/rdock/2013.1/src/exe/rbdock.cxx#4 $)

>  <Rbt.Library>
libRbt.so (2013.1, Build901 2013/11/27)

>  <Rbt.Parameter_File>
/export/apps/rDock/src/rDock_2013.1_src/data/scripts/dock_solv.prm

>  <Rbt.Receptor>
prm/blind_docking_60.prm

>  <SCORE>
11.6309

>  <SCORE.INTER>
-8.63861

>  <SCORE.INTER.CONST>
1

>  <SCORE.INTER.POLAR>
0

>  <SCORE.INTER.ROT>
9

>  <SCORE.INTER.SOLV>
29.629

>  <SCORE.INTER.VDW>
-25.2354

>  <SCORE.INTER.norm>
-0.205681

>  <SCORE.INTRA>
4.20567

>  <SCORE.INTRA.DIHEDRAL>
-3.59512

>  <SCORE.INTRA.DIHEDRAL.0>
27.8999

>  <SCORE.INTRA.POLAR>
0

>  <SCORE.INTRA.POLAR.0>
0

>  <SCORE.INTRA.REPUL>
0

>  <SCORE.INTRA.REPUL.0>
0

>  <SCORE.INTRA.SOLV>
4.27051

>  <SCORE.INTRA.SOLV.lig_0>
-104.479

>  <SCORE.INTRA.VDW>
3.86797

>  <SCORE.INTRA.VDW.0>
-6.17816

>  <SCORE.INTRA.norm>
0.100135

>  <SCORE.RESTR>
16.0638

>  <SCORE.RESTR.CAVITY>
16.0638

>  <SCORE.RESTR.norm>
0.382472

>  <SCORE.SYSTEM>
0

>  <SCORE.SYSTEM.CONST>
0

>  <SCORE.SYSTEM.DIHEDRAL>
0

>  <SCORE.SYSTEM.SOLV>
0

>  <SCORE.SYSTEM.norm>
0

>  <SCORE.heavy>
42

>  <SCORE.norm>
0.276926

>  <RMSD>
18.172

$$$$
ligand
 OpenBabel02271912133D
libRbt.so/2013.1/901 2013/11/27
 42 45  0  0  0  0  0  0  0  0999 V2000
   12.6024   11.2370   -7.8371 C   0  0  2  0  0  0  0  0  0  0  0  0
   13.5693   11.5866   -8.8423 O   0  0  0  0  0  0  0  0  0  0  0  0
   14.4265    9.9653  -12.7707 C   0  0  2  0  0  0  0  0  0  0  0  0
   14.2979    9.5236  -14.1916 N   0  0  0  0  0  0  0  0  0  0  0  0
   12.2367   13.6154  -11.3088 C   0  0  1  0  0  0  0  0  0  0  0  0
    9.7348   15.0009  -12.0476 C   0  0  1  0  0  0  0  0  0  0  0  0
   12.0321   12.5719   -7.2706 C   0  0  2  0  0  0  0  0  0  0  0  0
   11.5980   13.4955   -8.3332 N   0  0  0  0  0  0  0  0  0  0  0  0
   13.4769    9.1293  -11.8215 C   0  0  0  0  0  0  0  0  0  0  0  0
   11.8863   13.3883  -12.8109 C   0  0  2  0  0  0  0  0  0  0  0  0
   11.9678   14.5856  -13.6226 O   0  0  0  0  0  0  0  0  0  0  0  0
    8.5480   15.5781  -11.1949 C   0  0  2  0  0  0  0  0  0  0  0  0
    7.3224   15.7467  -12.0319 N   0  0  0  0  0  0  0  0  0  0  0  0
   13.0627   13.3313   -6.4150 C   0  0  1  0  0  0  0  0  0  0  0  0
   12.4857   14.5258   -5.8850 O   0  0  0  0  0  0  0  0  0  0  0  0
   13.6733    9.6242  -10.3387 C   0  0  2  0  0  0  0  0  0  0  0  0
   12.8038    8.8475   -9.4144 N   0  0  0  0  0  0  0  0  0  0  0  0
   10.4978   12.7567  -12.6999 C   0  0  2  0  0  0  0  0  0  0  0  0
    9.4426   13.7701  -12.7210 O   0  0  0  0  0  0  0  0  0  0  0  0
    8.9949   16.9712  -10.5418 C   0  0  1  0  0  0  0  0  0  0  0  0
    9.9225   16.7062   -9.4655 O   0  0  0  0  0  0  0  0  0  0  0  0
   13.5799   12.4066   -5.2895 C   0  0  2  0  0  0  0  0  0  0  0  0
   14.5123   13.0926   -4.4867 O   0  0  0  0  0  0  0  0  0  0  0  0
   13.3366   11.1629  -10.2158 C   0  0  2  0  0  0  0  0  0  0  0  0
   10.4922   11.9739  -11.3760 C   0  0  2  0  0  0  0  0  0  0  0  0
   11.3814   12.7265  -10.5542 O   0  0  0  0  0  0  0  0  0  0  0  0
    9.6719   17.9656  -11.6002 C   0  0  2  0  0  0  0  0  0  0  0  0
    8.6515   18.3975  -12.4995 O   0  0  0  0  0  0  0  0  0  0  0  0
   14.2312   11.1364   -5.9311 C   0  0  2  0  0  0  0  0  0  0  0  0
   13.2474   10.4477   -6.7663 O   0  0  0  0  0  0  0  0  0  0  0  0
   14.1893   12.0396  -11.1589 C   0  0  2  0  0  0  0  0  0  0  0  0
   13.6264   13.3760  -11.0510 O   0  0  0  0  0  0  0  0  0  0  0  0
   10.9538   10.4878  -11.4883 C   0  0  0  0  0  0  0  0  0  0  0  0
    9.9321    9.7244  -12.1224 O   0  0  0  0  0  0  0  0  0  0  0  0
   10.8227   17.2361  -12.3911 C   0  0  1  0  0  0  0  0  0  0  0  0
   10.2019   16.0596  -13.0243 O   0  0  0  0  0  0  0  0  0  0  0  0
   14.7608   10.1694   -4.8975 C   0  0  0  0  0  0  0  0  0  0  0  0
   16.1608   10.0718   -4.9973 O   0  0  0  0  0  0  0  0  0  0  0  0
   14.0862   11.5047  -12.6485 C   0  0  1  0  0  0  0  0  0  0  0  0
   14.9913   12.2204  -13.4936 O   0  0  0  0  0  0  0  0  0  0  0  0
   11.5291   18.1429  -13.4898 C   0  0  0  0  0  0  0  0  0  0  0  0
   12.5130   17.4452  -14.3626 N   0  0  0  0  0  0  0  0  0  0  0  0
  1  2  1  6  0  0  0
  1  7  1  0  0  0  0
  1 30  1  0  0  0  0
  3  4  1  6  0  0  0
  3  9  1  0  0  0  0
  3 39  1  0  0  0  0
  5 10  1  0  0  0  0
  5 26  1  0  0  0  0
  5 32  1  6  0  0  0
  6 12  1  0  0  0  0
  6 36  1  0  0  0  0
  6 19  1  6  0  0  0
  7  8  1  6  0  0  0
  7 14  1  0  0  0  0
  9 16  1  0  0  0  0
 10 11  1  6  0  0  0
 10 18  1  0  0  0  0
 12 13  1  6  0  0  0
 12 20  1  0  0  0  0
 14 15  1  1  0  0  0
 14 22  1  0  0  0  0
 16 17  1  1  0  0  0
 16 24  1  0  0  0  0
 18 19  1  1  0  0  0
 18 25  1  0  0  0  0
 20 21  1  1  0  0  0
 20 27  1  0  0  0  0
 22 23  1  6  0  0  0
 22 29  1  0  0  0  0
 24  2  1  1  0  0  0
 24 31  1  0  0  0  0
 25 26  1  0  0  0  0
 25 33  1  6  0  0  0
 27 28  1  6  0  0  0
 27 35  1  0  0  0  0
 29 30  1  0  0  0  0
 29 37  1  1  0  0  0
 31 32  1  6  0  0  0
 31 39  1  0  0  0  0
 33 34  1  0  0  0  0
 35 36  1  0  0  0  0
 35 41  1  6  0  0  0
 37 38  1  0  0  0  0
 39 40  1  6  0  0  0
 41 42  1  0  0  0  0
M  END
>  <CHROM.1>
-117.97039100,-76.44906121,-36.85829748,-138.13612815,-73.21717776,-115.05430740
-55.69306480,-67.31539686,-173.29933326,12.08787113,13.10121903,-10.35006363
0.43162442,-1.03461801,1.27141172

>  <Name>
ligand

>  <RI>
0

>  <Rbt.Current_Directory>
/home/itssahil/PROJECTS/Mol_Feturizer/Test_systems_manuscript/rnas/2o3w

>  <Rbt.Executable>
rbdock ($Id: //depot/dev/client3/rdock/2013.1/src/exe/rbdock.cxx#4 $)

>  <Rbt.Library>
libRbt.so (2013.1, Build901 2013/11/27)

>  <Rbt.Parameter_File>
/export/apps/rDock/src/rDock_2013.1_src/data/scripts/dock_solv.prm

>  <Rbt.Receptor>
prm/blind_docking_80.prm

>  <SCORE>
13.4517

>  <SCORE.INTER>
-4.60808

>  <SCORE.INTER.CONST>
1

>  <SCORE.INTER.POLAR>
0

>  <SCORE.INTER.ROT>
9

>  <SCORE.INTER.SOLV>
25.143

>  <SCORE.INTER.VDW>
-21.0531

>  <SCORE.INTER.norm>
-0.109716

>  <SCORE.INTRA>
11.2747

>  <SCORE.INTRA.DIHEDRAL>
-5.09527

>  <SCORE.INTRA.DIHEDRAL.0>
27.8999

>  <SCORE.INTRA.POLAR>
0

>  <SCORE.INTRA.POLAR.0>
0

>  <SCORE.INTRA.REPUL>
0.295014

>  <SCORE.INTRA.REPUL.0>
0

>  <SCORE.INTRA.SOLV>
4.22007

>  <SCORE.INTRA.SOLV.lig_0>
-104.479

>  <SCORE.INTRA.VDW>
10.2372

>  <SCORE.INTRA.VDW.0>
-6.17816

>  <SCORE.INTRA.norm>
0.268445

>  <SCORE.RESTR>
6.78515

>  <SCORE.RESTR.CAVITY>
6.78515

>  <SCORE.RESTR.norm>
0.161551

>  <SCORE.SYSTEM>
0

>  <SCORE.SYSTEM.CONST>
0

>  <SCORE.SYSTEM.DIHEDRAL>
0

>  <SCORE.SYSTEM.SOLV>
0

>  <SCORE.SYSTEM.norm>
0

>  <SCORE.heavy>
42

>  <SCORE.norm>
0.32028

>  <RMSD>
18.183

$$$$
ligand
 OpenBabel02271912133D
libRbt.so/2013.1/901 2013/11/27
 42 45  0  0  0  0  0  0  0  0999 V2000
   11.4122   12.4086   -7.1119 C   0  0  2  0  0  0  0  0  0  0  0  0
   11.6878   12.4037   -8.5231 O   0  0  0  0  0  0  0  0  0  0  0  0
   11.9568    9.1491  -11.3746 C   0  0  2  0  0  0  0  0  0  0  0  0
   11.6206    7.9846  -12.2471 N   0  0  0  0  0  0  0  0  0  0  0  0
   10.5775   13.9964  -11.3045 C   0  0  1  0  0  0  0  0  0  0  0  0
   10.7547   16.9549  -11.4210 C   0  0  1  0  0  0  0  0  0  0  0  0
   11.9030   13.7795   -6.5572 C   0  0  2  0  0  0  0  0  0  0  0  0
   11.4038   14.9186   -7.3469 N   0  0  0  0  0  0  0  0  0  0  0  0
   11.8254    8.7759   -9.8432 C   0  0  0  0  0  0  0  0  0  0  0  0
   11.9978   14.3918  -10.7974 C   0  0  2  0  0  0  0  0  0  0  0  0
   12.0063   14.9967   -9.4809 O   0  0  0  0  0  0  0  0  0  0  0  0
    9.7563   16.5762  -12.5736 C   0  0  2  0  0  0  0  0  0  0  0  0
   10.1355   17.2511  -13.8510 N   0  0  0  0  0  0  0  0  0  0  0  0
   13.4390   13.8877   -6.5424 C   0  0  1  0  0  0  0  0  0  0  0  0
   13.8439   15.1417   -5.9906 O   0  0  0  0  0  0  0  0  0  0  0  0
   12.2131   10.0332   -8.9764 C   0  0  2  0  0  0  0  0  0  0  0  0
   12.1144    9.7127   -7.5269 N   0  0  0  0  0  0  0  0  0  0  0  0
   12.4830   15.2854  -11.9399 C   0  0  2  0  0  0  0  0  0  0  0  0
   12.1321   16.6875  -11.7125 O   0  0  0  0  0  0  0  0  0  0  0  0
    8.2671   16.9712  -12.1341 C   0  0  1  0  0  0  0  0  0  0  0  0
    7.8093   16.0305  -11.1369 O   0  0  0  0  0  0  0  0  0  0  0  0
   14.0317   12.7029   -5.7461 C   0  0  2  0  0  0  0  0  0  0  0  0
   15.4368   12.7965   -5.7090 O   0  0  0  0  0  0  0  0  0  0  0  0
   11.2704   11.2550   -9.3146 C   0  0  2  0  0  0  0  0  0  0  0  0
   11.8157   14.7436  -13.2153 C   0  0  2  0  0  0  0  0  0  0  0  0
   10.5809   14.2187  -12.7333 O   0  0  0  0  0  0  0  0  0  0  0  0
    8.1645   18.4608  -11.5527 C   0  0  2  0  0  0  0  0  0  0  0  0
    8.3802   19.3626  -12.6375 O   0  0  0  0  0  0  0  0  0  0  0  0
   13.5843   11.3618   -6.4175 C   0  0  2  0  0  0  0  0  0  0  0  0
   12.1236   11.2927   -6.4528 O   0  0  0  0  0  0  0  0  0  0  0  0
   11.3039   11.6414  -10.8096 C   0  0  2  0  0  0  0  0  0  0  0  0
   10.2585   12.6395  -10.9696 O   0  0  0  0  0  0  0  0  0  0  0  0
   12.6326   13.6511  -13.9723 C   0  0  0  0  0  0  0  0  0  0  0  0
   13.8620   14.2113  -14.4236 O   0  0  0  0  0  0  0  0  0  0  0  0
    9.2424   18.6937  -10.4275 C   0  0  1  0  0  0  0  0  0  0  0  0
   10.5483   18.4075  -11.0462 O   0  0  0  0  0  0  0  0  0  0  0  0
   14.1162   10.1448   -5.6966 C   0  0  0  0  0  0  0  0  0  0  0  0
   13.7995   10.2152   -4.3276 O   0  0  0  0  0  0  0  0  0  0  0  0
   11.0105   10.3703  -11.7118 C   0  0  1  0  0  0  0  0  0  0  0  0
   11.1906   10.6938  -13.0933 O   0  0  0  0  0  0  0  0  0  0  0  0
    9.2337   20.1617   -9.8162 C   0  0  0  0  0  0  0  0  0  0  0  0
    8.7585   20.2688   -8.4094 N   0  0  0  0  0  0  0  0  0  0  0  0
  1  2  1  6  0  0  0
  1  7  1  0  0  0  0
  1 30  1  0  0  0  0
  3  4  1  6  0  0  0
  3  9  1  0  0  0  0
  3 39  1  0  0  0  0
  5 10  1  0  0  0  0
  5 26  1  0  0  0  0
  5 32  1  6  0  0  0
  6 12  1  0  0  0  0
  6 36  1  0  0  0  0
  6 19  1  6  0  0  0
  7  8  1  6  0  0  0
  7 14  1  0  0  0  0
  9 16  1  0  0  0  0
 10 11  1  1  0  0  0
 10 18  1  0  0  0  0
 12 13  1  6  0  0  0
 12 20  1  0  0  0  0
 14 15  1  1  0  0  0
 14 22  1  0  0  0  0
 16 17  1  1  0  0  0
 16 24  1  0  0  0  0
 18 19  1  1  0  0  0
 18 25  1  0  0  0  0
 20 21  1  1  0  0  0
 20 27  1  0  0  0  0
 22 23  1  6  0  0  0
 22 29  1  0  0  0  0
 24  2  1  1  0  0  0
 24 31  1  0  0  0  0
 25 26  1  0  0  0  0
 25 33  1  1  0  0  0
 27 28  1  6  0  0  0
 27 35  1  0  0  0  0
 29 30  1  0  0  0  0
 29 37  1  1  0  0  0
 31 32  1  1  0  0  0
 31 39  1  0  0  0  0
 33 34  1  0  0  0  0
 35 36  1  0  0  0  0
 35 41  1  6  0  0  0
 37 38  1  0  0  0  0
 39 40  1  6  0  0  0
 41 42  1  0  0  0  0
M  END
>  <CHROM.1>
-177.15173686,-72.57947464,-52.33527465,-62.54278897,-62.91691011,52.40878449
113.70119711,-27.72811845,110.71870837,11.46012991,13.93675037,-9.92095369
-0.20806147,-1.17940757,0.79021464

>  <Name>
ligand

>  <RI>
0

>  <Rbt.Current_Directory>
/home/itssahil/PROJECTS/Mol_Feturizer/Test_systems_manuscript/rnas/2o3w

>  <Rbt.Executable>
rbdock ($Id: //depot/dev/client3/rdock/2013.1/src/exe/rbdock.cxx#4 $)

>  <Rbt.Library>
libRbt.so (2013.1, Build901 2013/11/27)

>  <Rbt.Parameter_File>
/export/apps/rDock/src/rDock_2013.1_src/data/scripts/dock_solv.prm

>  <Rbt.Receptor>
prm/blind_docking_40.prm

>  <SCORE>
53.7161

>  <SCORE.INTER>
18.2577

>  <SCORE.INTER.CONST>
1

>  <SCORE.INTER.POLAR>
0

>  <SCORE.INTER.ROT>
9

>  <SCORE.INTER.SOLV>
33.2517

>  <SCORE.INTER.VDW>
-8.51212

>  <SCORE.INTER.norm>
0.434707

>  <SCORE.INTRA>
23.4845

>  <SCORE.INTRA.DIHEDRAL>
-10.414

>  <SCORE.INTRA.DIHEDRAL.0>
27.8999

>  <SCORE.INTRA.POLAR>
0

>  <SCORE.INTRA.POLAR.0>
0

>  <SCORE.INTRA.REPUL>
0

>  <SCORE.INTRA.REPUL.0>
0

>  <SCORE.INTRA.SOLV>
5.18025

>  <SCORE.INTRA.SOLV.lig_0>
-104.479

>  <SCORE.INTRA.VDW>
26.1014

>  <SCORE.INTRA.VDW.0>
-6.17816

>  <SCORE.INTRA.norm>
0.559155

>  <SCORE.RESTR>
11.974

>  <SCORE.RESTR.CAVITY>
11.974

>  <SCORE.RESTR.norm>
0.285094

>  <SCORE.SYSTEM>
0

>  <SCORE.SYSTEM.CONST>
0

>  <SCORE.SYSTEM.DIHEDRAL>
0

>  <SCORE.SYSTEM.SOLV>
0

>  <SCORE.SYSTEM.norm>
0

>  <SCORE.heavy>
42

>  <SCORE.norm>
1.27896

>  <RMSD>
18.211

$$$$
ligand
 OpenBabel02271912133D
libRbt.so/2013.1/901 2013/11/27
 42 45  0  0  0  0  0  0  0  0999 V2000
   12.2671   11.2778   -7.7869 C   0  0  2  0  0  0  0  0  0  0  0  0
   12.7812   11.7924   -9.0272 O   0  0  0  0  0  0  0  0  0  0  0  0
   13.9775    8.5947  -11.6993 C   0  0  2  0  0  0  0  0  0  0  0  0
   14.0689    7.6726  -12.8705 N   0  0  0  0  0  0  0  0  0  0  0  0
   12.7975   13.0997  -11.8330 C   0  0  1  0  0  0  0  0  0  0  0  0
    9.7694   16.0220  -11.1921 C   0  0  1  0  0  0  0  0  0  0  0  0
   11.5470   12.4581   -7.0682 C   0  0  2  0  0  0  0  0  0  0  0  0
   10.6011   13.1629   -7.9510 N   0  0  0  0  0  0  0  0  0  0  0  0
   12.5806    8.4594  -10.9698 C   0  0  0  0  0  0  0  0  0  0  0  0
   12.5874   14.4520  -11.0860 C   0  0  2  0  0  0  0  0  0  0  0  0
   11.8636   14.3289   -9.8370 O   0  0  0  0  0  0  0  0  0  0  0  0
    8.2536   15.6779  -10.9621 C   0  0  2  0  0  0  0  0  0  0  0  0
    7.5113   15.6461  -12.2577 N   0  0  0  0  0  0  0  0  0  0  0  0
   12.5371   13.5142   -6.5437 C   0  0  1  0  0  0  0  0  0  0  0  0
   11.8378   14.5549   -5.8590 O   0  0  0  0  0  0  0  0  0  0  0  0
   12.5532    9.4368   -9.7343 C   0  0  2  0  0  0  0  0  0  0  0  0
   11.2559    9.3248   -9.0145 N   0  0  0  0  0  0  0  0  0  0  0  0
   11.9019   15.2863  -12.1692 C   0  0  2  0  0  0  0  0  0  0  0  0
   10.4460   15.1538  -12.1096 O   0  0  0  0  0  0  0  0  0  0  0  0
    7.6142   16.7509   -9.9587 C   0  0  1  0  0  0  0  0  0  0  0  0
    8.0984   16.4876   -8.6226 O   0  0  0  0  0  0  0  0  0  0  0  0
   13.5776   12.8341   -5.6249 C   0  0  2  0  0  0  0  0  0  0  0  0
   14.4817   13.7906   -5.1228 O   0  0  0  0  0  0  0  0  0  0  0  0
   12.7736   10.9301  -10.2005 C   0  0  2  0  0  0  0  0  0  0  0  0
   12.4535   14.7757  -13.5109 C   0  0  2  0  0  0  0  0  0  0  0  0
   12.7221   13.4010  -13.2454 O   0  0  0  0  0  0  0  0  0  0  0  0
    7.9561   18.2629  -10.3644 C   0  0  2  0  0  0  0  0  0  0  0  0
    7.2493   18.5562  -11.5689 O   0  0  0  0  0  0  0  0  0  0  0  0
   14.3340   11.7317   -6.4385 C   0  0  2  0  0  0  0  0  0  0  0  0
   13.3740   10.7571   -6.9567 O   0  0  0  0  0  0  0  0  0  0  0  0
   14.0967   11.1274  -10.9724 C   0  0  2  0  0  0  0  0  0  0  0  0
   14.0452   12.4904  -11.4764 O   0  0  0  0  0  0  0  0  0  0  0  0
   13.7333   15.5098  -14.0185 C   0  0  0  0  0  0  0  0  0  0  0  0
   13.5009   16.9151  -14.0182 O   0  0  0  0  0  0  0  0  0  0  0  0
    9.5059   18.4425  -10.5842 C   0  0  1  0  0  0  0  0  0  0  0  0
    9.8875   17.4692  -11.6221 O   0  0  0  0  0  0  0  0  0  0  0  0
   15.3712   11.0075   -5.6117 C   0  0  0  0  0  0  0  0  0  0  0  0
   14.7531   10.3245   -4.5484 O   0  0  0  0  0  0  0  0  0  0  0  0
   14.1950   10.0894  -12.1676 C   0  0  1  0  0  0  0  0  0  0  0  0
   15.4819   10.1700  -12.7865 O   0  0  0  0  0  0  0  0  0  0  0  0
    9.9318   19.9101  -11.0238 C   0  0  0  0  0  0  0  0  0  0  0  0
    9.7431   20.9691   -9.9944 N   0  0  0  0  0  0  0  0  0  0  0  0
  1  2  1  6  0  0  0
  1  7  1  0  0  0  0
  1 30  1  0  0  0  0
  3  4  1  6  0  0  0
  3  9  1  0  0  0  0
  3 39  1  0  0  0  0
  5 10  1  0  0  0  0
  5 26  1  0  0  0  0
  5 32  1  6  0  0  0
  6 12  1  0  0  0  0
  6 36  1  0  0  0  0
  6 19  1  6  0  0  0
  7  8  1  6  0  0  0
  7 14  1  0  0  0  0
  9 16  1  0  0  0  0
 10 11  1  1  0  0  0
 10 18  1  0  0  0  0
 12 13  1  6  0  0  0
 12 20  1  0  0  0  0
 14 15  1  1  0  0  0
 14 22  1  0  0  0  0
 16 17  1  6  0  0  0
 16 24  1  0  0  0  0
 18 19  1  6  0  0  0
 18 25  1  0  0  0  0
 20 21  1  1  0  0  0
 20 27  1  0  0  0  0
 22 23  1  6  0  0  0
 22 29  1  0  0  0  0
 24  2  1  1  0  0  0
 24 31  1  0  0  0  0
 25 26  1  0  0  0  0
 25 33  1  1  0  0  0
 27 28  1  6  0  0  0
 27 35  1  0  0  0  0
 29 30  1  0  0  0  0
 29 37  1  1  0  0  0
 31 32  1  6  0  0  0
 31 39  1  0  0  0  0
 33 34  1  0  0  0  0
 35 36  1  0  0  0  0
 35 41  1  6  0  0  0
 37 38  1  0  0  0  0
 39 40  1  1  0  0  0
 41 42  1  0  0  0  0
M  END
>  <CHROM.1>
-143.88308394,-15.88177696,84.95040008,-169.39939403,-52.10740705,62.81521118
-31.84839475,125.46953124,67.47590489,11.92065326,13.65858606,-9.99915375
0.28719770,-1.01506170,1.59441702

>  <Name>
ligand

>  <RI>
0

>  <Rbt.Current_Directory>
/home/itssahil/PROJECTS/Mol_Feturizer/Test_systems_manuscript/rnas/2o3w

>  <Rbt.Executable>
rbdock ($Id: //depot/dev/client3/rdock/2013.1/src/exe/rbdock.cxx#4 $)

>  <Rbt.Library>
libRbt.so (2013.1, Build901 2013/11/27)

>  <Rbt.Parameter_File>
/export/apps/rDock/src/rDock_2013.1_src/data/scripts/dock_solv.prm

>  <Rbt.Receptor>
prm/blind_docking_40.prm

>  <SCORE>
12.5819

>  <SCORE.INTER>
-3.47939

>  <SCORE.INTER.CONST>
1

>  <SCORE.INTER.POLAR>
0

>  <SCORE.INTER.ROT>
9

>  <SCORE.INTER.SOLV>
25.1746

>  <SCORE.INTER.VDW>
-20.3111

>  <SCORE.INTER.norm>
-0.0828427

>  <SCORE.INTRA>
5.09095

>  <SCORE.INTRA.DIHEDRAL>
-3.12776

>  <SCORE.INTRA.DIHEDRAL.0>
27.8999

>  <SCORE.INTRA.POLAR>
0

>  <SCORE.INTRA.POLAR.0>
0

>  <SCORE.INTRA.REPUL>
0

>  <SCORE.INTRA.REPUL.0>
0

>  <SCORE.INTRA.SOLV>
-1.01538

>  <SCORE.INTRA.SOLV.lig_0>
-104.479

>  <SCORE.INTRA.VDW>
7.16252

>  <SCORE.INTRA.VDW.0>
-6.17816

>  <SCORE.INTRA.norm>
0.121213

>  <SCORE.RESTR>
10.9703

>  <SCORE.RESTR.CAVITY>
10.9703

>  <SCORE.RESTR.norm>
0.261198

>  <SCORE.SYSTEM>
0

>  <SCORE.SYSTEM.CONST>
0

>  <SCORE.SYSTEM.DIHEDRAL>
0

>  <SCORE.SYSTEM.SOLV>
0

>  <SCORE.SYSTEM.norm>
0

>  <SCORE.heavy>
42

>  <SCORE.norm>
0.299569

>  <RMSD>
18.218

$$$$
ligand
 OpenBabel02271912133D
libRbt.so/2013.1/901 2013/11/27
 42 45  0  0  0  0  0  0  0  0999 V2000
   14.1190    9.1399  -10.1978 C   0  0  2  0  0  0  0  0  0  0  0  0
   13.9110   10.5059   -9.8004 O   0  0  0  0  0  0  0  0  0  0  0  0
   10.8479    9.8489   -6.8033 C   0  0  2  0  0  0  0  0  0  0  0  0
    9.7140   10.0526   -5.8530 N   0  0  0  0  0  0  0  0  0  0  0  0
   10.8029   12.0069  -10.7053 C   0  0  1  0  0  0  0  0  0  0  0  0
   10.9531   16.4484  -10.8865 C   0  0  1  0  0  0  0  0  0  0  0  0
   15.4458    9.1004  -11.0140 C   0  0  2  0  0  0  0  0  0  0  0  0
   16.5547    9.7785  -10.3203 N   0  0  0  0  0  0  0  0  0  0  0  0
   12.1045   10.7172   -6.3923 C   0  0  0  0  0  0  0  0  0  0  0  0
   11.6674   12.9076   -9.7713 C   0  0  2  0  0  0  0  0  0  0  0  0
   11.0947   13.1141   -8.4566 O   0  0  0  0  0  0  0  0  0  0  0  0
    9.6517   17.3247  -10.9726 C   0  0  2  0  0  0  0  0  0  0  0  0
    8.5991   16.6386  -11.7802 N   0  0  0  0  0  0  0  0  0  0  0  0
   15.3047    9.7740  -12.3915 C   0  0  1  0  0  0  0  0  0  0  0  0
   16.5305    9.6796  -13.1191 O   0  0  0  0  0  0  0  0  0  0  0  0
   13.2708   10.4432   -7.4156 C   0  0  2  0  0  0  0  0  0  0  0  0
   14.4765   11.2347   -7.0499 N   0  0  0  0  0  0  0  0  0  0  0  0
   11.8230   14.1633  -10.6305 C   0  0  2  0  0  0  0  0  0  0  0  0
   10.7484   15.1239  -10.3790 O   0  0  0  0  0  0  0  0  0  0  0  0
   10.0170   18.7537  -11.5982 C   0  0  1  0  0  0  0  0  0  0  0  0
   10.7312   19.5281  -10.6087 O   0  0  0  0  0  0  0  0  0  0  0  0
   14.1367    9.1229  -13.1666 C   0  0  2  0  0  0  0  0  0  0  0  0
   14.0050    9.7172  -14.4369 O   0  0  0  0  0  0  0  0  0  0  0  0
   12.8207   10.8111   -8.8846 C   0  0  2  0  0  0  0  0  0  0  0  0
   11.8099   13.6824  -12.0913 C   0  0  2  0  0  0  0  0  0  0  0  0
   10.9712   12.5306  -12.0427 O   0  0  0  0  0  0  0  0  0  0  0  0
   10.8997   18.6420  -12.9308 C   0  0  2  0  0  0  0  0  0  0  0  0
   10.0677   18.0973  -13.9544 O   0  0  0  0  0  0  0  0  0  0  0  0
   12.8189    9.2894  -12.3387 C   0  0  2  0  0  0  0  0  0  0  0  0
   12.9838    8.6735  -11.0222 O   0  0  0  0  0  0  0  0  0  0  0  0
   11.5607   10.0402   -9.3356 C   0  0  2  0  0  0  0  0  0  0  0  0
   11.1888   10.6295  -10.6119 O   0  0  0  0  0  0  0  0  0  0  0  0
   13.2110   13.3320  -12.6815 C   0  0  0  0  0  0  0  0  0  0  0  0
   13.6923   12.1373  -12.0731 O   0  0  0  0  0  0  0  0  0  0  0  0
   12.1502   17.7137  -12.6931 C   0  0  1  0  0  0  0  0  0  0  0  0
   11.6168   16.4149  -12.2472 O   0  0  0  0  0  0  0  0  0  0  0  0
   11.6206    8.6729  -13.0227 C   0  0  0  0  0  0  0  0  0  0  0  0
   10.4316    9.1556  -12.4462 O   0  0  0  0  0  0  0  0  0  0  0  0
   10.3972   10.2204   -8.2728 C   0  0  1  0  0  0  0  0  0  0  0  0
    9.2855    9.3871   -8.6123 O   0  0  0  0  0  0  0  0  0  0  0  0
   13.0664   17.5196  -13.9782 C   0  0  0  0  0  0  0  0  0  0  0  0
   12.4498   16.7548  -15.0969 N   0  0  0  0  0  0  0  0  0  0  0  0
  1  2  1  6  0  0  0
  1  7  1  0  0  0  0
  1 30  1  0  0  0  0
  3  4  1  1  0  0  0
  3  9  1  0  0  0  0
  3 39  1  0  0  0  0
  5 10  1  0  0  0  0
  5 26  1  0  0  0  0
  5 32  1  6  0  0  0
  6 12  1  0  0  0  0
  6 36  1  0  0  0  0
  6 19  1  6  0  0  0
  7  8  1  1  0  0  0
  7 14  1  0  0  0  0
  9 16  1  0  0  0  0
 10 11  1  1  0  0  0
 10 18  1  0  0  0  0
 12 13  1  6  0  0  0
 12 20  1  0  0  0  0
 14 15  1  6  0  0  0
 14 22  1  0  0  0  0
 16 17  1  1  0  0  0
 16 24  1  0  0  0  0
 18 19  1  6  0  0  0
 18 25  1  0  0  0  0
 20 21  1  1  0  0  0
 20 27  1  0  0  0  0
 22 23  1  6  0  0  0
 22 29  1  0  0  0  0
 24  2  1  6  0  0  0
 24 31  1  0  0  0  0
 25 26  1  0  0  0  0
 25 33  1  1  0  0  0
 27 28  1  6  0  0  0
 27 35  1  0  0  0  0
 29 30  1  0  0  0  0
 29 37  1  6  0  0  0
 31 32  1  6  0  0  0
 31 39  1  0  0  0  0
 33 34  1  0  0  0  0
 35 36  1  0  0  0  0
 35 41  1  6  0  0  0
 37 38  1  0  0  0  0
 39 40  1  6  0  0  0
 41 42  1  0  0  0  0
M  END
>  <CHROM.1>
-172.75857050,78.83448848,166.08237225,163.25086029,70.50206817,-163.85338984
-62.92685089,38.66046922,-67.51530370,12.12362682,12.58554326,-10.93910499
-1.12544539,0.92265592,-0.63493859

>  <Name>
ligand

>  <RI>
0

>  <Rbt.Current_Directory>
/home/itssahil/PROJECTS/Mol_Feturizer/Test_systems_manuscript/rnas/2o3w

>  <Rbt.Executable>
rbdock ($Id: //depot/dev/client3/rdock/2013.1/src/exe/rbdock.cxx#4 $)

>  <Rbt.Library>
libRbt.so (2013.1, Build901 2013/11/27)

>  <Rbt.Parameter_File>
/export/apps/rDock/src/rDock_2013.1_src/data/scripts/dock_solv.prm

>  <Rbt.Receptor>
prm/blind_docking_80.prm

>  <SCORE>
15.9692

>  <SCORE.INTER>
6.81172

>  <SCORE.INTER.CONST>
1

>  <SCORE.INTER.POLAR>
0

>  <SCORE.INTER.ROT>
9

>  <SCORE.INTER.SOLV>
31.0022

>  <SCORE.INTER.VDW>
-15.3929

>  <SCORE.INTER.norm>
0.162184

>  <SCORE.INTRA>
-0.0124563

>  <SCORE.INTRA.DIHEDRAL>
-20.1767

>  <SCORE.INTRA.DIHEDRAL.0>
27.8999

>  <SCORE.INTRA.POLAR>
0

>  <SCORE.INTRA.POLAR.0>
0

>  <SCORE.INTRA.REPUL>
0.359436

>  <SCORE.INTRA.REPUL.0>
0

>  <SCORE.INTRA.SOLV>
1.46529

>  <SCORE.INTRA.SOLV.lig_0>
-104.479

>  <SCORE.INTRA.VDW>
7.54606

>  <SCORE.INTRA.VDW.0>
-6.17816

>  <SCORE.INTRA.norm>
-0.000296579

>  <SCORE.RESTR>
9.16992

>  <SCORE.RESTR.CAVITY>
9.16992

>  <SCORE.RESTR.norm>
0.218331

>  <SCORE.SYSTEM>
0

>  <SCORE.SYSTEM.CONST>
0

>  <SCORE.SYSTEM.DIHEDRAL>
0

>  <SCORE.SYSTEM.SOLV>
0

>  <SCORE.SYSTEM.norm>
0

>  <SCORE.heavy>
42

>  <SCORE.norm>
0.380219

>  <RMSD>
18.225

$$$$
ligand
 OpenBabel02271912133D
libRbt.so/2013.1/901 2013/11/27
 42 45  0  0  0  0  0  0  0  0999 V2000
   14.2590    9.3000  -10.2099 C   0  0  2  0  0  0  0  0  0  0  0  0
   14.0265   10.6617   -9.8110 O   0  0  0  0  0  0  0  0  0  0  0  0
   10.9080    9.9282   -6.8897 C   0  0  2  0  0  0  0  0  0  0  0  0
    9.7658   10.1109   -5.9451 N   0  0  0  0  0  0  0  0  0  0  0  0
   10.8683   12.2475  -10.6690 C   0  0  1  0  0  0  0  0  0  0  0  0
   10.7854   16.6797  -10.8425 C   0  0  1  0  0  0  0  0  0  0  0  0
   15.5946    9.2827  -11.0124 C   0  0  2  0  0  0  0  0  0  0  0  0
   16.6860    9.9752  -10.3055 N   0  0  0  0  0  0  0  0  0  0  0  0
   12.1776   10.7464   -6.4201 C   0  0  0  0  0  0  0  0  0  0  0  0
   11.8187   13.1762   -9.8535 C   0  0  2  0  0  0  0  0  0  0  0  0
   11.4297   13.3475   -8.4685 O   0  0  0  0  0  0  0  0  0  0  0  0
    9.7532   17.6872  -10.2193 C   0  0  2  0  0  0  0  0  0  0  0  0
    8.3605   17.1579  -10.3254 N   0  0  0  0  0  0  0  0  0  0  0  0
   15.4577    9.9580  -12.3894 C   0  0  1  0  0  0  0  0  0  0  0  0
   16.6922    9.8840  -13.1046 O   0  0  0  0  0  0  0  0  0  0  0  0
   13.3518   10.4966   -7.4406 C   0  0  2  0  0  0  0  0  0  0  0  0
   14.5694   11.2414   -7.0208 N   0  0  0  0  0  0  0  0  0  0  0  0
   11.8000   14.4444  -10.7083 C   0  0  2  0  0  0  0  0  0  0  0  0
   10.7336   15.3566  -10.2943 O   0  0  0  0  0  0  0  0  0  0  0  0
    9.8879   19.1044  -10.9543 C   0  0  1  0  0  0  0  0  0  0  0  0
   11.1057   19.7456  -10.5132 O   0  0  0  0  0  0  0  0  0  0  0  0
   14.3075    9.2917  -13.1784 C   0  0  2  0  0  0  0  0  0  0  0  0
   14.1801    9.8876  -14.4484 O   0  0  0  0  0  0  0  0  0  0  0  0
   12.9306   10.9462   -8.8953 C   0  0  2  0  0  0  0  0  0  0  0  0
   11.6001   13.9755  -12.1593 C   0  0  2  0  0  0  0  0  0  0  0  0
   10.8244   12.7888  -12.0092 O   0  0  0  0  0  0  0  0  0  0  0  0
    9.8969   18.9782  -12.5517 C   0  0  2  0  0  0  0  0  0  0  0  0
    8.5890   18.5790  -12.9598 O   0  0  0  0  0  0  0  0  0  0  0  0
   12.9790    9.4363  -12.3638 C   0  0  2  0  0  0  0  0  0  0  0  0
   13.1395    8.8191  -11.0473 O   0  0  0  0  0  0  0  0  0  0  0  0
   11.6602   10.2273   -9.4001 C   0  0  2  0  0  0  0  0  0  0  0  0
   11.3193   10.8869  -10.6504 O   0  0  0  0  0  0  0  0  0  0  0  0
   12.9168   13.6895  -12.9459 C   0  0  0  0  0  0  0  0  0  0  0  0
   13.5674   12.5567  -12.3781 O   0  0  0  0  0  0  0  0  0  0  0  0
   10.9620   17.9157  -13.0193 C   0  0  1  0  0  0  0  0  0  0  0  0
   10.6054   16.6550  -12.3458 O   0  0  0  0  0  0  0  0  0  0  0  0
   11.7972    8.8038  -13.0618 C   0  0  0  0  0  0  0  0  0  0  0  0
   10.6068    9.1180  -12.3809 O   0  0  0  0  0  0  0  0  0  0  0  0
   10.4862   10.3816   -8.3448 C   0  0  1  0  0  0  0  0  0  0  0  0
    9.3612    9.5915   -8.7393 O   0  0  0  0  0  0  0  0  0  0  0  0
   11.0150   17.7016  -14.5941 C   0  0  0  0  0  0  0  0  0  0  0  0
   11.7418   16.4859  -15.0529 N   0  0  0  0  0  0  0  0  0  0  0  0
  1  2  1  6  0  0  0
  1  7  1  0  0  0  0
  1 30  1  0  0  0  0
  3  4  1  1  0  0  0
  3  9  1  0  0  0  0
  3 39  1  0  0  0  0
  5 10  1  0  0  0  0
  5 26  1  0  0  0  0
  5 32  1  6  0  0  0
  6 12  1  0  0  0  0
  6 36  1  0  0  0  0
  6 19  1  1  0  0  0
  7  8  1  1  0  0  0
  7 14  1  0  0  0  0
  9 16  1  0  0  0  0
 10 11  1  1  0  0  0
 10 18  1  0  0  0  0
 12 13  1  6  0  0  0
 12 20  1  0  0  0  0
 14 15  1  6  0  0  0
 14 22  1  0  0  0  0
 16 17  1  1  0  0  0
 16 24  1  0  0  0  0
 18 19  1  1  0  0  0
 18 25  1  0  0  0  0
 20 21  1  1  0  0  0
 20 27  1  0  0  0  0
 22 23  1  6  0  0  0
 22 29  1  0  0  0  0
 24  2  1  6  0  0  0
 24 31  1  0  0  0  0
 25 26  1  0  0  0  0
 25 33  1  1  0  0  0
 27 28  1  1  0  0  0
 27 35  1  0  0  0  0
 29 30  1  0  0  0  0
 29 37  1  6  0  0  0
 31 32  1  6  0  0  0
 31 39  1  0  0  0  0
 33 34  1  0  0  0  0
 35 36  1  0  0  0  0
 35 41  1  6  0  0  0
 37 38  1  0  0  0  0
 39 40  1  6  0  0  0
 41 42  1  0  0  0  0
M  END
>  <CHROM.1>
-172.16193782,75.16331024,168.10291504,-171.55880861,67.15402485,-172.05635477
-67.67194960,50.09107413,-165.16392494,12.00390896,12.78690645,-10.88790703
-0.90284884,0.94621942,-0.77125008

>  <Name>
ligand

>  <RI>
0

>  <Rbt.Current_Directory>
/home/itssahil/PROJECTS/Mol_Feturizer/Test_systems_manuscript/rnas/2o3w

>  <Rbt.Executable>
rbdock ($Id: //depot/dev/client3/rdock/2013.1/src/exe/rbdock.cxx#4 $)

>  <Rbt.Library>
libRbt.so (2013.1, Build901 2013/11/27)

>  <Rbt.Parameter_File>
/export/apps/rDock/src/rDock_2013.1_src/data/scripts/dock_solv.prm

>  <Rbt.Receptor>
prm/blind_docking_40.prm

>  <SCORE>
16.6104

>  <SCORE.INTER>
11.2602

>  <SCORE.INTER.CONST>
1

>  <SCORE.INTER.POLAR>
0

>  <SCORE.INTER.ROT>
9

>  <SCORE.INTER.SOLV>
33.0425

>  <SCORE.INTER.VDW>
-13.1074

>  <SCORE.INTER.norm>
0.268099

>  <SCORE.INTRA>
-6.61796

>  <SCORE.INTRA.DIHEDRAL>
-23.4482

>  <SCORE.INTRA.DIHEDRAL.0>
27.8999

>  <SCORE.INTRA.POLAR>
0

>  <SCORE.INTRA.POLAR.0>
0

>  <SCORE.INTRA.REPUL>
0.272807

>  <SCORE.INTRA.REPUL.0>
0

>  <SCORE.INTRA.SOLV>
-0.252082

>  <SCORE.INTRA.SOLV.lig_0>
-104.479

>  <SCORE.INTRA.VDW>
3.86816

>  <SCORE.INTRA.VDW.0>
-6.17816

>  <SCORE.INTRA.norm>
-0.15757

>  <SCORE.RESTR>
11.9682

>  <SCORE.RESTR.CAVITY>
11.9682

>  <SCORE.RESTR.norm>
0.284957

>  <SCORE.SYSTEM>
0

>  <SCORE.SYSTEM.CONST>
0

>  <SCORE.SYSTEM.DIHEDRAL>
0

>  <SCORE.SYSTEM.SOLV>
0

>  <SCORE.SYSTEM.norm>
0

>  <SCORE.heavy>
42

>  <SCORE.norm>
0.395485

>  <RMSD>
18.234

$$$$
ligand
 OpenBabel02271912133D
libRbt.so/2013.1/901 2013/11/27
 42 45  0  0  0  0  0  0  0  0999 V2000
   12.7545   10.1838   -8.3437 C   0  0  2  0  0  0  0  0  0  0  0  0
   12.4659   11.0687   -9.4396 O   0  0  0  0  0  0  0  0  0  0  0  0
   13.7392    8.5287  -12.7142 C   0  0  2  0  0  0  0  0  0  0  0  0
   13.9336    7.9440  -14.0746 N   0  0  0  0  0  0  0  0  0  0  0  0
   13.1462   13.0507  -11.6435 C   0  0  1  0  0  0  0  0  0  0  0  0
   10.8512   15.5114  -12.1411 C   0  0  1  0  0  0  0  0  0  0  0  0
   11.5027   10.1856   -7.4156 C   0  0  2  0  0  0  0  0  0  0  0  0
   10.2506    9.9562   -8.1573 N   0  0  0  0  0  0  0  0  0  0  0  0
   12.2253    8.4443  -12.2640 C   0  0  0  0  0  0  0  0  0  0  0  0
   11.7816   12.2965  -11.6476 C   0  0  2  0  0  0  0  0  0  0  0  0
   11.3705   11.8293  -12.9560 O   0  0  0  0  0  0  0  0  0  0  0  0
   10.0093   16.6894  -11.5309 C   0  0  2  0  0  0  0  0  0  0  0  0
    8.6277   16.7074  -12.0983 N   0  0  0  0  0  0  0  0  0  0  0  0
   11.3357   11.5182   -6.6624 C   0  0  1  0  0  0  0  0  0  0  0  0
   10.2015   11.4609   -5.7957 O   0  0  0  0  0  0  0  0  0  0  0  0
   12.0882    9.0540  -10.8176 C   0  0  2  0  0  0  0  0  0  0  0  0
   10.6760    8.9775  -10.3556 N   0  0  0  0  0  0  0  0  0  0  0  0
   10.8663   13.3352  -10.9975 C   0  0  2  0  0  0  0  0  0  0  0  0
   10.2574   14.2153  -11.9953 O   0  0  0  0  0  0  0  0  0  0  0  0
   10.7628   18.0760  -11.8067 C   0  0  1  0  0  0  0  0  0  0  0  0
   11.9141   18.1631  -10.9372 O   0  0  0  0  0  0  0  0  0  0  0  0
   12.6299   11.8329   -5.8781 C   0  0  2  0  0  0  0  0  0  0  0  0
   12.4872   13.0419   -5.1693 O   0  0  0  0  0  0  0  0  0  0  0  0
   12.5713   10.5580  -10.7991 C   0  0  2  0  0  0  0  0  0  0  0  0
   11.7506   14.1281  -10.0205 C   0  0  2  0  0  0  0  0  0  0  0  0
   13.0323   14.0891  -10.6436 O   0  0  0  0  0  0  0  0  0  0  0  0
   11.2291   18.2381  -13.3312 C   0  0  2  0  0  0  0  0  0  0  0  0
   10.0550   18.3994  -14.1260 O   0  0  0  0  0  0  0  0  0  0  0  0
   13.8274   11.9185   -6.8822 C   0  0  2  0  0  0  0  0  0  0  0  0
   13.9489   10.6564   -7.6117 O   0  0  0  0  0  0  0  0  0  0  0  0
   14.0287   10.7249  -11.2823 C   0  0  2  0  0  0  0  0  0  0  0  0
   14.2379   12.1608  -11.3763 O   0  0  0  0  0  0  0  0  0  0  0  0
   11.8128   13.5510   -8.5723 C   0  0  0  0  0  0  0  0  0  0  0  0
   12.7363   14.3135   -7.8013 O   0  0  0  0  0  0  0  0  0  0  0  0
   12.0371   16.9705  -13.8030 C   0  0  1  0  0  0  0  0  0  0  0  0
   11.1458   15.8162  -13.5948 O   0  0  0  0  0  0  0  0  0  0  0  0
   15.1406   12.2180   -6.1970 C   0  0  0  0  0  0  0  0  0  0  0  0
   15.4952   11.1574   -5.3435 O   0  0  0  0  0  0  0  0  0  0  0  0
   14.2201   10.0351  -12.6977 C   0  0  1  0  0  0  0  0  0  0  0  0
   15.5996   10.0571  -13.0748 O   0  0  0  0  0  0  0  0  0  0  0  0
   12.5111   17.0324  -15.3196 C   0  0  0  0  0  0  0  0  0  0  0  0
   11.4223   17.0024  -16.3346 N   0  0  0  0  0  0  0  0  0  0  0  0
  1  2  1  6  0  0  0
  1  7  1  0  0  0  0
  1 30  1  0  0  0  0
  3  4  1  6  0  0  0
  3  9  1  0  0  0  0
  3 39  1  0  0  0  0
  5 10  1  0  0  0  0
  5 26  1  0  0  0  0
  5 32  1  1  0  0  0
  6 12  1  0  0  0  0
  6 36  1  0  0  0  0
  6 19  1  6  0  0  0
  7  8  1  6  0  0  0
  7 14  1  0  0  0  0
  9 16  1  0  0  0  0
 10 11  1  6  0  0  0
 10 18  1  0  0  0  0
 12 13  1  6  0  0  0
 12 20  1  0  0  0  0
 14 15  1  1  0  0  0
 14 22  1  0  0  0  0
 16 17  1  6  0  0  0
 16 24  1  0  0  0  0
 18 19  1  6  0  0  0
 18 25  1  0  0  0  0
 20 21  1  1  0  0  0
 20 27  1  0  0  0  0
 22 23  1  6  0  0  0
 22 29  1  0  0  0  0
 24  2  1  1  0  0  0
 24 31  1  0  0  0  0
 25 26  1  0  0  0  0
 25 33  1  1  0  0  0
 27 28  1  6  0  0  0
 27 35  1  0  0  0  0
 29 30  1  0  0  0  0
 29 37  1  1  0  0  0
 31 32  1  6  0  0  0
 31 39  1  0  0  0  0
 33 34  1  0  0  0  0
 35 36  1  0  0  0  0
 35 41  1  6  0  0  0
 37 38  1  0  0  0  0
 39 40  1  1  0  0  0
 41 42  1  0  0  0  0
M  END
>  <CHROM.1>
-124.44117164,36.03936638,-101.10826398,-106.03806146,175.69600376,64.69779337
-28.21001924,6.26415139,-66.35953722,12.22158225,12.90671518,-10.53690516
-0.71466131,1.26199703,-1.52783337

>  <Name>
ligand

>  <RI>
0

>  <Rbt.Current_Directory>
/home/itssahil/PROJECTS/Mol_Feturizer/Test_systems_manuscript/rnas/2o3w

>  <Rbt.Executable>
rbdock ($Id: //depot/dev/client3/rdock/2013.1/src/exe/rbdock.cxx#4 $)

>  <Rbt.Library>
libRbt.so (2013.1, Build901 2013/11/27)

>  <Rbt.Parameter_File>
/export/apps/rDock/src/rDock_2013.1_src/data/scripts/dock_solv.prm

>  <Rbt.Receptor>
prm/blind_docking_40.prm

>  <SCORE>
47.5515

>  <SCORE.INTER>
10.2473

>  <SCORE.INTER.CONST>
1

>  <SCORE.INTER.POLAR>
0

>  <SCORE.INTER.ROT>
9

>  <SCORE.INTER.SOLV>
26.37

>  <SCORE.INTER.VDW>
-11.5585

>  <SCORE.INTER.norm>
0.243983

>  <SCORE.INTRA>
28.8535

>  <SCORE.INTRA.DIHEDRAL>
4.78356

>  <SCORE.INTRA.DIHEDRAL.0>
27.8999

>  <SCORE.INTRA.POLAR>
0

>  <SCORE.INTRA.POLAR.0>
0

>  <SCORE.INTRA.REPUL>
0

>  <SCORE.INTRA.REPUL.0>
0

>  <SCORE.INTRA.SOLV>
4.78484

>  <SCORE.INTRA.SOLV.lig_0>
-104.479

>  <SCORE.INTRA.VDW>
24.0693

>  <SCORE.INTRA.VDW.0>
-6.17816

>  <SCORE.INTRA.norm>
0.686987

>  <SCORE.RESTR>
8.45081

>  <SCORE.RESTR.CAVITY>
8.45081

>  <SCORE.RESTR.norm>
0.20121

>  <SCORE.SYSTEM>
0

>  <SCORE.SYSTEM.CONST>
0

>  <SCORE.SYSTEM.DIHEDRAL>
0

>  <SCORE.SYSTEM.SOLV>
0

>  <SCORE.SYSTEM.norm>
0

>  <SCORE.heavy>
42

>  <SCORE.norm>
1.13218

>  <RMSD>
18.241

$$$$
ligand
 OpenBabel02271912133D
libRbt.so/2013.1/901 2013/11/27
 42 45  0  0  0  0  0  0  0  0999 V2000
   12.4000   11.1729   -7.9931 C   0  0  2  0  0  0  0  0  0  0  0  0
   13.3461   11.6012   -8.9875 O   0  0  0  0  0  0  0  0  0  0  0  0
   14.4178    9.7066  -12.7369 C   0  0  2  0  0  0  0  0  0  0  0  0
   14.3778    9.1902  -14.1377 N   0  0  0  0  0  0  0  0  0  0  0  0
   12.3196   13.5458  -11.5788 C   0  0  1  0  0  0  0  0  0  0  0  0
    8.7429   16.2044  -12.0391 C   0  0  1  0  0  0  0  0  0  0  0  0
   11.7507   12.4589   -7.3991 C   0  0  2  0  0  0  0  0  0  0  0  0
   11.2644   13.3784   -8.4424 N   0  0  0  0  0  0  0  0  0  0  0  0
   13.3456    8.9822  -11.8272 C   0  0  0  0  0  0  0  0  0  0  0  0
   11.9734   15.0349  -11.2731 C   0  0  2  0  0  0  0  0  0  0  0  0
   11.4481   15.2564   -9.9412 O   0  0  0  0  0  0  0  0  0  0  0  0
    9.2727   17.4348  -11.2180 C   0  0  2  0  0  0  0  0  0  0  0  0
    9.6141   17.0359   -9.8197 N   0  0  0  0  0  0  0  0  0  0  0  0
   12.7332   13.2588   -6.5240 C   0  0  1  0  0  0  0  0  0  0  0  0
   12.0856   14.4051   -5.9696 O   0  0  0  0  0  0  0  0  0  0  0  0
   13.4514    9.5516  -10.3619 C   0  0  2  0  0  0  0  0  0  0  0  0
   12.4645    8.8805   -9.4735 N   0  0  0  0  0  0  0  0  0  0  0  0
   11.0196   15.3603  -12.4237 C   0  0  2  0  0  0  0  0  0  0  0  0
    9.6292   15.0785  -12.0659 O   0  0  0  0  0  0  0  0  0  0  0  0
    8.1678   18.5950  -11.2319 C   0  0  1  0  0  0  0  0  0  0  0  0
    8.1474   19.2049  -12.5420 O   0  0  0  0  0  0  0  0  0  0  0  0
   13.3023   12.3418   -5.4175 C   0  0  2  0  0  0  0  0  0  0  0  0
   14.1912   13.0638   -4.5971 O   0  0  0  0  0  0  0  0  0  0  0  0
   13.1998   11.1113  -10.3509 C   0  0  2  0  0  0  0  0  0  0  0  0
   11.4758   14.4953  -13.6107 C   0  0  2  0  0  0  0  0  0  0  0  0
   12.0126   13.3369  -12.9764 O   0  0  0  0  0  0  0  0  0  0  0  0
    6.7016   18.0620  -10.8659 C   0  0  2  0  0  0  0  0  0  0  0  0
    6.7062   17.7021   -9.4850 O   0  0  0  0  0  0  0  0  0  0  0  0
   14.0288   11.1268   -6.0850 C   0  0  2  0  0  0  0  0  0  0  0  0
   13.0889   10.3997   -6.9380 O   0  0  0  0  0  0  0  0  0  0  0  0
   14.1775   11.8820  -11.2649 C   0  0  2  0  0  0  0  0  0  0  0  0
   13.6898   13.2519  -11.2768 O   0  0  0  0  0  0  0  0  0  0  0  0
   12.5318   15.1638  -14.5447 C   0  0  0  0  0  0  0  0  0  0  0  0
   12.0389   16.4258  -14.9846 O   0  0  0  0  0  0  0  0  0  0  0  0
    6.3258   16.8155  -11.7530 C   0  0  1  0  0  0  0  0  0  0  0  0
    7.3776   15.8118  -11.5150 O   0  0  0  0  0  0  0  0  0  0  0  0
   14.6131   10.1703   -5.0714 C   0  0  0  0  0  0  0  0  0  0  0  0
   15.5898   10.8220   -4.2964 O   0  0  0  0  0  0  0  0  0  0  0  0
   14.1627   11.2672  -12.7269 C   0  0  1  0  0  0  0  0  0  0  0  0
   15.1749   11.8802  -13.5302 O   0  0  0  0  0  0  0  0  0  0  0  0
    4.8955   16.1995  -11.4317 C   0  0  0  0  0  0  0  0  0  0  0  0
    3.7378   17.1044  -11.6719 N   0  0  0  0  0  0  0  0  0  0  0  0
  1  2  1  6  0  0  0
  1  7  1  0  0  0  0
  1 30  1  0  0  0  0
  3  4  1  6  0  0  0
  3  9  1  0  0  0  0
  3 39  1  0  0  0  0
  5 10  1  0  0  0  0
  5 26  1  0  0  0  0
  5 32  1  6  0  0  0
  6 12  1  0  0  0  0
  6 36  1  0  0  0  0
  6 19  1  1  0  0  0
  7  8  1  6  0  0  0
  7 14  1  0  0  0  0
  9 16  1  0  0  0  0
 10 11  1  1  0  0  0
 10 18  1  0  0  0  0
 12 13  1  1  0  0  0
 12 20  1  0  0  0  0
 14 15  1  1  0  0  0
 14 22  1  0  0  0  0
 16 17  1  1  0  0  0
 16 24  1  0  0  0  0
 18 19  1  1  0  0  0
 18 25  1  0  0  0  0
 20 21  1  6  0  0  0
 20 27  1  0  0  0  0
 22 23  1  6  0  0  0
 22 29  1  0  0  0  0
 24  2  1  1  0  0  0
 24 31  1  0  0  0  0
 25 26  1  0  0  0  0
 25 33  1  1  0  0  0
 27 28  1  1  0  0  0
 27 35  1  0  0  0  0
 29 30  1  0  0  0  0
 29 37  1  1  0  0  0
 31 32  1  6  0  0  0
 31 39  1  0  0  0  0
 33 34  1  0  0  0  0
 35 36  1  0  0  0  0
 35 41  1  1  0  0  0
 37 38  1  0  0  0  0
 39 40  1  6  0  0  0
 41 42  1  0  0  0  0
M  END
>  <CHROM.1>
-122.64224045,-65.82664436,116.81366799,-49.75857027,-54.09566071,-62.14129462
-51.60455790,169.39221991,62.51676900,11.46287052,13.68460724,-10.27600905
0.41366237,-0.76750281,1.61549276

>  <Name>
ligand

>  <RI>
0

>  <Rbt.Current_Directory>
/home/itssahil/PROJECTS/Mol_Feturizer/Test_systems_manuscript/rnas/2o3w

>  <Rbt.Executable>
rbdock ($Id: //depot/dev/client3/rdock/2013.1/src/exe/rbdock.cxx#4 $)

>  <Rbt.Library>
libRbt.so (2013.1, Build901 2013/11/27)

>  <Rbt.Parameter_File>
/export/apps/rDock/src/rDock_2013.1_src/data/scripts/dock_solv.prm

>  <Rbt.Receptor>
prm/blind_docking_80.prm

>  <SCORE>
4.87714

>  <SCORE.INTER>
-2.75974

>  <SCORE.INTER.CONST>
1

>  <SCORE.INTER.POLAR>
0

>  <SCORE.INTER.ROT>
9

>  <SCORE.INTER.SOLV>
26.44

>  <SCORE.INTER.VDW>
-20.2532

>  <SCORE.INTER.norm>
-0.065708

>  <SCORE.INTRA>
-0.474608

>  <SCORE.INTRA.DIHEDRAL>
-11.7559

>  <SCORE.INTRA.DIHEDRAL.0>
27.8999

>  <SCORE.INTRA.POLAR>
0

>  <SCORE.INTRA.POLAR.0>
0

>  <SCORE.INTRA.REPUL>
0.0863485

>  <SCORE.INTRA.REPUL.0>
0

>  <SCORE.INTRA.SOLV>
2.06124

>  <SCORE.INTRA.SOLV.lig_0>
-104.479

>  <SCORE.INTRA.VDW>
3.94097

>  <SCORE.INTRA.VDW.0>
-6.17816

>  <SCORE.INTRA.norm>
-0.0113002

>  <SCORE.RESTR>
8.11149

>  <SCORE.RESTR.CAVITY>
8.11149

>  <SCORE.RESTR.norm>
0.193131

>  <SCORE.SYSTEM>
0

>  <SCORE.SYSTEM.CONST>
0

>  <SCORE.SYSTEM.DIHEDRAL>
0

>  <SCORE.SYSTEM.SOLV>
0

>  <SCORE.SYSTEM.norm>
0

>  <SCORE.heavy>
42

>  <SCORE.norm>
0.116122

>  <RMSD>
18.250

$$$$
ligand
 OpenBabel02271912133D
libRbt.so/2013.1/901 2013/11/27
 42 45  0  0  0  0  0  0  0  0999 V2000
   12.1543   11.4168   -7.7636 C   0  0  2  0  0  0  0  0  0  0  0  0
   12.4895   11.9722   -9.0468 O   0  0  0  0  0  0  0  0  0  0  0  0
   14.5530    8.8493  -11.2342 C   0  0  2  0  0  0  0  0  0  0  0  0
   14.9765    7.8971  -12.3040 N   0  0  0  0  0  0  0  0  0  0  0  0
   12.8504   13.1747  -11.8162 C   0  0  1  0  0  0  0  0  0  0  0  0
    9.4349   15.9570  -12.0730 C   0  0  1  0  0  0  0  0  0  0  0  0
   11.2351   12.4506   -7.0464 C   0  0  2  0  0  0  0  0  0  0  0  0
   10.1214   12.9017   -7.8989 N   0  0  0  0  0  0  0  0  0  0  0  0
   13.0712    8.5603  -10.7624 C   0  0  0  0  0  0  0  0  0  0  0  0
   12.3834   14.5077  -11.1561 C   0  0  2  0  0  0  0  0  0  0  0  0
   11.5089   14.3257  -10.0153 O   0  0  0  0  0  0  0  0  0  0  0  0
    9.6271   17.3361  -12.8011 C   0  0  2  0  0  0  0  0  0  0  0  0
   11.0317   17.8235  -12.6582 N   0  0  0  0  0  0  0  0  0  0  0  0
   12.0028   13.7130   -6.6127 C   0  0  1  0  0  0  0  0  0  0  0  0
   11.1318   14.6134   -5.9259 O   0  0  0  0  0  0  0  0  0  0  0  0
   12.6912    9.5785   -9.6216 C   0  0  2  0  0  0  0  0  0  0  0  0
   11.3054    9.3256   -9.1429 N   0  0  0  0  0  0  0  0  0  0  0  0
   11.7673   15.2325  -12.3538 C   0  0  2  0  0  0  0  0  0  0  0  0
   10.3424   14.9297  -12.4911 O   0  0  0  0  0  0  0  0  0  0  0  0
    8.5859   18.3981  -12.2052 C   0  0  1  0  0  0  0  0  0  0  0  0
    7.2634   18.0806  -12.6941 O   0  0  0  0  0  0  0  0  0  0  0  0
   13.2053   13.3076   -5.7302 C   0  0  2  0  0  0  0  0  0  0  0  0
   13.9090   14.4536   -5.3110 O   0  0  0  0  0  0  0  0  0  0  0  0
   12.8095   11.0660  -10.1407 C   0  0  2  0  0  0  0  0  0  0  0  0
   12.5581   14.7631  -13.5866 C   0  0  2  0  0  0  0  0  0  0  0  0
   12.9417   13.4357  -13.2356 O   0  0  0  0  0  0  0  0  0  0  0  0
    8.5730   18.4249  -10.6032 C   0  0  2  0  0  0  0  0  0  0  0  0
    9.8134   18.9828  -10.1715 O   0  0  0  0  0  0  0  0  0  0  0  0
   14.1390   12.3532   -6.5469 C   0  0  2  0  0  0  0  0  0  0  0  0
   13.3839   11.1770   -6.9785 O   0  0  0  0  0  0  0  0  0  0  0  0
   14.2197   11.4046  -10.6718 C   0  0  2  0  0  0  0  0  0  0  0  0
   14.0964   12.7249  -11.2683 O   0  0  0  0  0  0  0  0  0  0  0  0
   13.8044   15.6329  -13.9394 C   0  0  0  0  0  0  0  0  0  0  0  0
   14.2543   15.3007  -15.2494 O   0  0  0  0  0  0  0  0  0  0  0  0
    8.3986   16.9700  -10.0243 C   0  0  1  0  0  0  0  0  0  0  0  0
    9.5087   16.1742  -10.5762 O   0  0  0  0  0  0  0  0  0  0  0  0
   15.3434   11.8999   -5.7545 C   0  0  0  0  0  0  0  0  0  0  0  0
   16.1043   10.9876   -6.5082 O   0  0  0  0  0  0  0  0  0  0  0  0
   14.6688   10.3375  -11.7559 C   0  0  1  0  0  0  0  0  0  0  0  0
   16.0293   10.5625  -12.1356 O   0  0  0  0  0  0  0  0  0  0  0  0
    8.4086   16.8996   -8.4357 C   0  0  0  0  0  0  0  0  0  0  0  0
    7.9878   15.5981   -7.8479 N   0  0  0  0  0  0  0  0  0  0  0  0
  1  2  1  6  0  0  0
  1  7  1  0  0  0  0
  1 30  1  0  0  0  0
  3  4  1  6  0  0  0
  3  9  1  0  0  0  0
  3 39  1  0  0  0  0
  5 10  1  0  0  0  0
  5 26  1  0  0  0  0
  5 32  1  1  0  0  0
  6 12  1  0  0  0  0
  6 36  1  0  0  0  0
  6 19  1  6  0  0  0
  7  8  1  6  0  0  0
  7 14  1  0  0  0  0
  9 16  1  0  0  0  0
 10 11  1  1  0  0  0
 10 18  1  0  0  0  0
 12 13  1  1  0  0  0
 12 20  1  0  0  0  0
 14 15  1  1  0  0  0
 14 22  1  0  0  0  0
 16 17  1  6  0  0  0
 16 24  1  0  0  0  0
 18 19  1  6  0  0  0
 18 25  1  0  0  0  0
 20 21  1  1  0  0  0
 20 27  1  0  0  0  0
 22 23  1  6  0  0  0
 22 29  1  0  0  0  0
 24  2  1  1  0  0  0
 24 31  1  0  0  0  0
 25 26  1  0  0  0  0
 25 33  1  1  0  0  0
 27 28  1  1  0  0  0
 27 35  1  0  0  0  0
 29 30  1  0  0  0  0
 29 37  1  1  0  0  0
 31 32  1  6  0  0  0
 31 39  1  0  0  0  0
 33 34  1  0  0  0  0
 35 36  1  0  0  0  0
 35 41  1  1  0  0  0
 37 38  1  0  0  0  0
 39 40  1  1  0  0  0
 41 42  1  0  0  0  0
M  END
>  <CHROM.1>
-153.12628736,0.52640486,104.15602060,57.29218224,-166.30264066,176.66216360
-28.18423128,123.41182859,168.68427961,12.03562307,13.67690765,-10.09512755
0.45870051,-0.90439446,1.78170122

>  <Name>
ligand

>  <RI>
0

>  <Rbt.Current_Directory>
/home/itssahil/PROJECTS/Mol_Feturizer/Test_systems_manuscript/rnas/2o3w

>  <Rbt.Executable>
rbdock ($Id: //depot/dev/client3/rdock/2013.1/src/exe/rbdock.cxx#4 $)

>  <Rbt.Library>
libRbt.so (2013.1, Build901 2013/11/27)

>  <Rbt.Parameter_File>
/export/apps/rDock/src/rDock_2013.1_src/data/scripts/dock_solv.prm

>  <Rbt.Receptor>
prm/blind_docking_40.prm

>  <SCORE>
16.9632

>  <SCORE.INTER>
-0.92995

>  <SCORE.INTER.CONST>
1

>  <SCORE.INTER.POLAR>
0

>  <SCORE.INTER.ROT>
9

>  <SCORE.INTER.SOLV>
27.5082

>  <SCORE.INTER.VDW>
-19.3894

>  <SCORE.INTER.norm>
-0.0221417

>  <SCORE.INTRA>
7.76083

>  <SCORE.INTRA.DIHEDRAL>
0.627964

>  <SCORE.INTRA.DIHEDRAL.0>
27.8999

>  <SCORE.INTRA.POLAR>
0

>  <SCORE.INTRA.POLAR.0>
0

>  <SCORE.INTRA.REPUL>
0.0667145

>  <SCORE.INTRA.REPUL.0>
0

>  <SCORE.INTRA.SOLV>
1.79984

>  <SCORE.INTRA.SOLV.lig_0>
-104.479

>  <SCORE.INTRA.VDW>
6.21336

>  <SCORE.INTRA.VDW.0>
-6.17816

>  <SCORE.INTRA.norm>
0.184782

>  <SCORE.RESTR>
10.1323

>  <SCORE.RESTR.CAVITY>
10.1323

>  <SCORE.RESTR.norm>
0.241246

>  <SCORE.SYSTEM>
0

>  <SCORE.SYSTEM.CONST>
0

>  <SCORE.SYSTEM.DIHEDRAL>
0

>  <SCORE.SYSTEM.SOLV>
0

>  <SCORE.SYSTEM.norm>
0

>  <SCORE.heavy>
42

>  <SCORE.norm>
0.403886

>  <RMSD>
18.251

$$$$
ligand
 OpenBabel02271912133D
libRbt.so/2013.1/901 2013/11/27
 42 45  0  0  0  0  0  0  0  0999 V2000
   11.7701   11.7398  -11.8995 C   0  0  2  0  0  0  0  0  0  0  0  0
   11.3963   11.5588  -10.5229 O   0  0  0  0  0  0  0  0  0  0  0  0
   12.5801   12.9614   -6.5952 C   0  0  2  0  0  0  0  0  0  0  0  0
   13.3522   13.5640   -5.4677 N   0  0  0  0  0  0  0  0  0  0  0  0
   10.6220   15.3409  -10.3334 C   0  0  1  0  0  0  0  0  0  0  0  0
    7.5299   17.5132  -11.3816 C   0  0  1  0  0  0  0  0  0  0  0  0
   11.2352   10.5033  -12.6825 C   0  0  2  0  0  0  0  0  0  0  0  0
    9.8162   10.2268  -12.3986 N   0  0  0  0  0  0  0  0  0  0  0  0
   13.3070   11.6786   -7.1676 C   0  0  0  0  0  0  0  0  0  0  0  0
   11.0135   16.3357  -11.4682 C   0  0  2  0  0  0  0  0  0  0  0  0
   11.6834   17.5314  -10.9985 O   0  0  0  0  0  0  0  0  0  0  0  0
    6.6496   18.6755  -11.9672 C   0  0  2  0  0  0  0  0  0  0  0  0
    7.0640   19.9948  -11.4026 N   0  0  0  0  0  0  0  0  0  0  0  0
   12.0143    9.2180  -12.3480 C   0  0  1  0  0  0  0  0  0  0  0  0
   11.5172    8.1209  -13.1162 O   0  0  0  0  0  0  0  0  0  0  0  0
   12.4363   11.0770   -8.3350 C   0  0  2  0  0  0  0  0  0  0  0  0
   13.0846    9.8576   -8.8885 N   0  0  0  0  0  0  0  0  0  0  0  0
    9.6615   16.5578  -12.1480 C   0  0  2  0  0  0  0  0  0  0  0  0
    8.9415   17.6865  -11.5577 O   0  0  0  0  0  0  0  0  0  0  0  0
    5.1061   18.3767  -11.6587 C   0  0  1  0  0  0  0  0  0  0  0  0
    4.6548   17.3102  -12.5234 O   0  0  0  0  0  0  0  0  0  0  0  0
   13.5215    9.4478  -12.6020 C   0  0  2  0  0  0  0  0  0  0  0  0
   14.2472    8.2747  -12.3162 O   0  0  0  0  0  0  0  0  0  0  0  0
   12.2372   12.1405   -9.4862 C   0  0  2  0  0  0  0  0  0  0  0  0
    8.8786   15.2454  -11.9748 C   0  0  2  0  0  0  0  0  0  0  0  0
    9.3698   14.7397  -10.7356 O   0  0  0  0  0  0  0  0  0  0  0  0
    4.8439   17.9745  -10.1299 C   0  0  2  0  0  0  0  0  0  0  0  0
    5.0639   19.1385   -9.3343 O   0  0  0  0  0  0  0  0  0  0  0  0
   14.0147   10.6345  -11.7086 C   0  0  2  0  0  0  0  0  0  0  0  0
   13.2406   11.8369  -12.0167 O   0  0  0  0  0  0  0  0  0  0  0  0
   11.5815   13.4470   -8.9877 C   0  0  2  0  0  0  0  0  0  0  0  0
   11.6462   14.3616  -10.1162 O   0  0  0  0  0  0  0  0  0  0  0  0
    9.0739   14.2062  -13.1220 C   0  0  0  0  0  0  0  0  0  0  0  0
   10.4652   13.9593  -13.3013 O   0  0  0  0  0  0  0  0  0  0  0  0
    5.8167   16.8179   -9.6848 C   0  0  1  0  0  0  0  0  0  0  0  0
    7.1821   17.3181   -9.9208 O   0  0  0  0  0  0  0  0  0  0  0  0
   15.4837   10.9341  -11.8986 C   0  0  0  0  0  0  0  0  0  0  0  0
   15.7863   12.2136  -11.3982 O   0  0  0  0  0  0  0  0  0  0  0  0
   12.3841   14.0258   -7.7481 C   0  0  1  0  0  0  0  0  0  0  0  0
   11.6928   15.1482   -7.1933 O   0  0  0  0  0  0  0  0  0  0  0  0
    5.6474   16.3779   -8.1661 C   0  0  0  0  0  0  0  0  0  0  0  0
    6.5779   15.3141   -7.6981 N   0  0  0  0  0  0  0  0  0  0  0  0
  1  2  1  1  0  0  0
  1  7  1  0  0  0  0
  1 30  1  0  0  0  0
  3  4  1  1  0  0  0
  3  9  1  0  0  0  0
  3 39  1  0  0  0  0
  5 10  1  0  0  0  0
  5 26  1  0  0  0  0
  5 32  1  6  0  0  0
  6 12  1  0  0  0  0
  6 36  1  0  0  0  0
  6 19  1  1  0  0  0
  7  8  1  1  0  0  0
  7 14  1  0  0  0  0
  9 16  1  0  0  0  0
 10 11  1  1  0  0  0
 10 18  1  0  0  0  0
 12 13  1  1  0  0  0
 12 20  1  0  0  0  0
 14 15  1  6  0  0  0
 14 22  1  0  0  0  0
 16 17  1  6  0  0  0
 16 24  1  0  0  0  0
 18 19  1  1  0  0  0
 18 25  1  0  0  0  0
 20 21  1  6  0  0  0
 20 27  1  0  0  0  0
 22 23  1  1  0  0  0
 22 29  1  0  0  0  0
 24  2  1  6  0  0  0
 24 31  1  0  0  0  0
 25 26  1  0  0  0  0
 25 33  1  6  0  0  0
 27 28  1  1  0  0  0
 27 35  1  0  0  0  0
 29 30  1  0  0  0  0
 29 37  1  6  0  0  0
 31 32  1  6  0  0  0
 31 39  1  0  0  0  0
 33 34  1  0  0  0  0
 35 36  1  0  0  0  0
 35 41  1  1  0  0  0
 37 38  1  0  0  0  0
 39 40  1  1  0  0  0
 41 42  1  0  0  0  0
M  END
>  <CHROM.1>
150.89115269,-135.74674376,-139.68035616,-128.89360876,54.01965869,162.82524002
147.43548711,171.48214306,-178.27734452,10.34931808,14.03969292,-10.60049732
0.39440452,0.73879381,-2.08301134

>  <Name>
ligand

>  <RI>
0

>  <Rbt.Current_Directory>
/home/itssahil/PROJECTS/Mol_Feturizer/Test_systems_manuscript/rnas/2o3w

>  <Rbt.Executable>
rbdock ($Id: //depot/dev/client3/rdock/2013.1/src/exe/rbdock.cxx#4 $)

>  <Rbt.Library>
libRbt.so (2013.1, Build901 2013/11/27)

>  <Rbt.Parameter_File>
/export/apps/rDock/src/rDock_2013.1_src/data/scripts/dock_solv.prm

>  <Rbt.Receptor>
prm/blind_docking_100.prm

>  <SCORE>
9.11516

>  <SCORE.INTER>
0.265717

>  <SCORE.INTER.CONST>
1

>  <SCORE.INTER.POLAR>
0

>  <SCORE.INTER.ROT>
9

>  <SCORE.INTER.SOLV>
26.0077

>  <SCORE.INTER.VDW>
-18.0921

>  <SCORE.INTER.norm>
0.0063266

>  <SCORE.INTRA>
1.03626

>  <SCORE.INTRA.DIHEDRAL>
-0.628541

>  <SCORE.INTRA.DIHEDRAL.0>
27.8999

>  <SCORE.INTRA.POLAR>
0

>  <SCORE.INTRA.POLAR.0>
0

>  <SCORE.INTRA.REPUL>
0

>  <SCORE.INTRA.REPUL.0>
0

>  <SCORE.INTRA.SOLV>
-1.45032

>  <SCORE.INTRA.SOLV.lig_0>
-104.479

>  <SCORE.INTRA.VDW>
2.07569

>  <SCORE.INTRA.VDW.0>
-6.17816

>  <SCORE.INTRA.norm>
0.0246729

>  <SCORE.RESTR>
7.81318

>  <SCORE.RESTR.CAVITY>
7.81318

>  <SCORE.RESTR.norm>
0.186028

>  <SCORE.SYSTEM>
0

>  <SCORE.SYSTEM.CONST>
0

>  <SCORE.SYSTEM.DIHEDRAL>
0

>  <SCORE.SYSTEM.SOLV>
0

>  <SCORE.SYSTEM.norm>
0

>  <SCORE.heavy>
42

>  <SCORE.norm>
0.217028

>  <RMSD>
18.254

$$$$
ligand
 OpenBabel02271912133D
libRbt.so/2013.1/901 2013/11/27
 42 45  0  0  0  0  0  0  0  0999 V2000
   13.3499   12.3634  -11.0442 C   0  0  2  0  0  0  0  0  0  0  0  0
   13.1851   13.3023  -12.1205 O   0  0  0  0  0  0  0  0  0  0  0  0
   10.6902   16.8398  -11.8791 C   0  0  2  0  0  0  0  0  0  0  0  0
    9.5120   17.7575  -11.8719 N   0  0  0  0  0  0  0  0  0  0  0  0
   11.9414   13.3917   -8.6081 C   0  0  1  0  0  0  0  0  0  0  0  0
   13.6347   12.6103   -5.4928 C   0  0  1  0  0  0  0  0  0  0  0  0
   14.5574   11.4515  -11.4167 C   0  0  2  0  0  0  0  0  0  0  0  0
   15.7427   12.2249  -11.8259 N   0  0  0  0  0  0  0  0  0  0  0  0
   10.8960   16.1810  -13.3023 C   0  0  0  0  0  0  0  0  0  0  0  0
   10.8209   13.2099   -7.5394 C   0  0  2  0  0  0  0  0  0  0  0  0
   10.3808   14.4486   -6.9304 O   0  0  0  0  0  0  0  0  0  0  0  0
   14.0161   11.0928   -5.3493 C   0  0  2  0  0  0  0  0  0  0  0  0
   13.3657   10.4907   -4.1471 N   0  0  0  0  0  0  0  0  0  0  0  0
   14.2298   10.4929  -12.5763 C   0  0  1  0  0  0  0  0  0  0  0  0
   15.3492    9.6509  -12.8569 O   0  0  0  0  0  0  0  0  0  0  0  0
   12.1622   15.2446  -13.2529 C   0  0  2  0  0  0  0  0  0  0  0  0
   12.3946   14.6180  -14.5822 N   0  0  0  0  0  0  0  0  0  0  0  0
   11.4743   12.2020   -6.5926 C   0  0  2  0  0  0  0  0  0  0  0  0
   12.2261   12.8708   -5.5304 O   0  0  0  0  0  0  0  0  0  0  0  0
   15.6103   10.9533   -5.2717 C   0  0  1  0  0  0  0  0  0  0  0  0
   16.1644   11.1898   -6.5855 O   0  0  0  0  0  0  0  0  0  0  0  0
   12.9748    9.6635  -12.2208 C   0  0  2  0  0  0  0  0  0  0  0  0
   12.6713    8.7687  -13.2656 O   0  0  0  0  0  0  0  0  0  0  0  0
   11.9795   14.1180  -12.1605 C   0  0  2  0  0  0  0  0  0  0  0  0
   12.3960   11.3345   -7.4663 C   0  0  2  0  0  0  0  0  0  0  0  0
   12.7985   12.2322   -8.4981 O   0  0  0  0  0  0  0  0  0  0  0  0
   16.2728   11.9650   -4.2205 C   0  0  2  0  0  0  0  0  0  0  0  0
   15.8945   11.5366   -2.9129 O   0  0  0  0  0  0  0  0  0  0  0  0
   11.7768   10.6364  -11.9604 C   0  0  2  0  0  0  0  0  0  0  0  0
   12.1195   11.5604  -10.8794 O   0  0  0  0  0  0  0  0  0  0  0  0
   11.7172   14.6888  -10.7496 C   0  0  2  0  0  0  0  0  0  0  0  0
   11.3936   13.5356   -9.9251 O   0  0  0  0  0  0  0  0  0  0  0  0
   11.7269   10.0575   -8.0628 C   0  0  0  0  0  0  0  0  0  0  0  0
   10.9285    9.4335   -7.0618 O   0  0  0  0  0  0  0  0  0  0  0  0
   15.7751   13.4377   -4.4770 C   0  0  1  0  0  0  0  0  0  0  0  0
   14.3055   13.3949   -4.3849 O   0  0  0  0  0  0  0  0  0  0  0  0
   10.5037    9.9073  -11.5981 C   0  0  0  0  0  0  0  0  0  0  0  0
   10.0937    9.0878  -12.6656 O   0  0  0  0  0  0  0  0  0  0  0  0
   10.5048   15.7107  -10.7875 C   0  0  1  0  0  0  0  0  0  0  0  0
   10.3595   16.3514   -9.5171 O   0  0  0  0  0  0  0  0  0  0  0  0
   16.3591   14.5060   -3.4541 C   0  0  0  0  0  0  0  0  0  0  0  0
   15.9174   14.3503   -2.0409 N   0  0  0  0  0  0  0  0  0  0  0  0
  1  2  1  6  0  0  0
  1  7  1  0  0  0  0
  1 30  1  0  0  0  0
  3  4  1  6  0  0  0
  3  9  1  0  0  0  0
  3 39  1  0  0  0  0
  5 10  1  0  0  0  0
  5 26  1  0  0  0  0
  5 32  1  6  0  0  0
  6 12  1  0  0  0  0
  6 36  1  0  0  0  0
  6 19  1  1  0  0  0
  7  8  1  6  0  0  0
  7 14  1  0  0  0  0
  9 16  1  0  0  0  0
 10 11  1  1  0  0  0
 10 18  1  0  0  0  0
 12 13  1  1  0  0  0
 12 20  1  0  0  0  0
 14 15  1  1  0  0  0
 14 22  1  0  0  0  0
 16 17  1  6  0  0  0
 16 24  1  0  0  0  0
 18 19  1  1  0  0  0
 18 25  1  0  0  0  0
 20 21  1  6  0  0  0
 20 27  1  0  0  0  0
 22 23  1  6  0  0  0
 22 29  1  0  0  0  0
 24  2  1  1  0  0  0
 24 31  1  0  0  0  0
 25 26  1  0  0  0  0
 25 33  1  6  0  0  0
 27 28  1  1  0  0  0
 27 35  1  0  0  0  0
 29 30  1  0  0  0  0
 29 37  1  1  0  0  0
 31 32  1  1  0  0  0
 31 39  1  0  0  0  0
 33 34  1  0  0  0  0
 35 36  1  0  0  0  0
 35 41  1  1  0  0  0
 37 38  1  0  0  0  0
 39 40  1  1  0  0  0
 41 42  1  0  0  0  0
M  END
>  <CHROM.1>
168.74135659,169.11589779,-118.15236732,-57.85018791,-42.85406602,-62.66498594
136.70814311,124.54481377,-66.06572764,12.85137110,12.55866770,-8.96559531
-2.38246969,-1.08297965,0.90590650

>  <Name>
ligand

>  <RI>
0

>  <Rbt.Current_Directory>
/home/itssahil/PROJECTS/Mol_Feturizer/Test_systems_manuscript/rnas/2o3w

>  <Rbt.Executable>
rbdock ($Id: //depot/dev/client3/rdock/2013.1/src/exe/rbdock.cxx#4 $)

>  <Rbt.Library>
libRbt.so (2013.1, Build901 2013/11/27)

>  <Rbt.Parameter_File>
/export/apps/rDock/src/rDock_2013.1_src/data/scripts/dock_solv.prm

>  <Rbt.Receptor>
prm/blind_docking_80.prm

>  <SCORE>
14.1978

>  <SCORE.INTER>
-1.16174

>  <SCORE.INTER.CONST>
1

>  <SCORE.INTER.POLAR>
0

>  <SCORE.INTER.ROT>
9

>  <SCORE.INTER.SOLV>
30.376

>  <SCORE.INTER.VDW>
-20.4998

>  <SCORE.INTER.norm>
-0.0276605

>  <SCORE.INTRA>
7.73603

>  <SCORE.INTRA.DIHEDRAL>
-5.27824

>  <SCORE.INTRA.DIHEDRAL.0>
27.8999

>  <SCORE.INTRA.POLAR>
0

>  <SCORE.INTRA.POLAR.0>
0

>  <SCORE.INTRA.REPUL>
0.024869

>  <SCORE.INTRA.REPUL.0>
0

>  <SCORE.INTRA.SOLV>
-1.66965

>  <SCORE.INTRA.SOLV.lig_0>
-104.479

>  <SCORE.INTRA.VDW>
11.0856

>  <SCORE.INTRA.VDW.0>
-6.17816

>  <SCORE.INTRA.norm>
0.184191

>  <SCORE.RESTR>
7.6235

>  <SCORE.RESTR.CAVITY>
7.6235

>  <SCORE.RESTR.norm>
0.181512

>  <SCORE.SYSTEM>
0

>  <SCORE.SYSTEM.CONST>
0

>  <SCORE.SYSTEM.DIHEDRAL>
0

>  <SCORE.SYSTEM.SOLV>
0

>  <SCORE.SYSTEM.norm>
0

>  <SCORE.heavy>
42

>  <SCORE.norm>
0.338043

>  <RMSD>
18.262

$$$$
ligand
 OpenBabel02271912133D
libRbt.so/2013.1/901 2013/11/27
 42 45  0  0  0  0  0  0  0  0999 V2000
   12.1864    9.5607   -9.6786 C   0  0  2  0  0  0  0  0  0  0  0  0
   12.6635   10.6624  -10.4699 O   0  0  0  0  0  0  0  0  0  0  0  0
   16.6055   10.7413  -12.2728 C   0  0  2  0  0  0  0  0  0  0  0  0
   17.7440   10.5652  -13.2231 N   0  0  0  0  0  0  0  0  0  0  0  0
   12.2048   13.3021  -12.1965 C   0  0  1  0  0  0  0  0  0  0  0  0
   10.5525   15.9010  -11.0855 C   0  0  1  0  0  0  0  0  0  0  0  0
   10.6564    9.7749   -9.4759 C   0  0  2  0  0  0  0  0  0  0  0  0
    9.9535   10.0525  -10.7406 N   0  0  0  0  0  0  0  0  0  0  0  0
   16.0529    9.3457  -11.7741 C   0  0  0  0  0  0  0  0  0  0  0  0
   10.9435   12.6697  -11.5331 C   0  0  2  0  0  0  0  0  0  0  0  0
    9.7996   12.5713  -12.4167 O   0  0  0  0  0  0  0  0  0  0  0  0
    9.6629   17.1959  -11.0580 C   0  0  2  0  0  0  0  0  0  0  0  0
    8.3971   16.9898  -11.8236 N   0  0  0  0  0  0  0  0  0  0  0  0
   10.3513   10.9512   -8.5302 C   0  0  1  0  0  0  0  0  0  0  0  0
    8.9415   11.0855   -8.3423 O   0  0  0  0  0  0  0  0  0  0  0  0
   14.8726    9.5967  -10.7610 C   0  0  2  0  0  0  0  0  0  0  0  0
   14.3372    8.3023  -10.2594 N   0  0  0  0  0  0  0  0  0  0  0  0
   10.7629   13.5761  -10.3144 C   0  0  2  0  0  0  0  0  0  0  0  0
    9.8970   14.7164  -10.6157 O   0  0  0  0  0  0  0  0  0  0  0  0
   10.5008   18.4256  -11.6517 C   0  0  1  0  0  0  0  0  0  0  0  0
   11.4930   18.8271  -10.6805 O   0  0  0  0  0  0  0  0  0  0  0  0
   11.0817   10.7343   -7.1854 C   0  0  2  0  0  0  0  0  0  0  0  0
   10.7991   11.7946   -6.3020 O   0  0  0  0  0  0  0  0  0  0  0  0
   13.7127   10.4189  -11.4498 C   0  0  2  0  0  0  0  0  0  0  0  0
   12.1747   14.0384   -9.9163 C   0  0  2  0  0  0  0  0  0  0  0  0
   12.8669   14.0656  -11.1623 O   0  0  0  0  0  0  0  0  0  0  0  0
   11.2206   18.0755  -13.0398 C   0  0  2  0  0  0  0  0  0  0  0  0
   10.2022   17.9324  -14.0292 O   0  0  0  0  0  0  0  0  0  0  0  0
   12.6207   10.6311   -7.4511 C   0  0  2  0  0  0  0  0  0  0  0  0
   12.8873    9.5306   -8.3772 O   0  0  0  0  0  0  0  0  0  0  0  0
   14.1925   11.7744  -12.0132 C   0  0  2  0  0  0  0  0  0  0  0  0
   13.0608   12.2998  -12.7601 O   0  0  0  0  0  0  0  0  0  0  0  0
   12.9036   13.1174   -8.8893 C   0  0  0  0  0  0  0  0  0  0  0  0
   12.4507   13.4275   -7.5750 O   0  0  0  0  0  0  0  0  0  0  0  0
   12.0505   16.7421  -12.9147 C   0  0  1  0  0  0  0  0  0  0  0  0
   11.0964   15.7051  -12.4850 O   0  0  0  0  0  0  0  0  0  0  0  0
   13.4159   10.4111   -6.1851 C   0  0  0  0  0  0  0  0  0  0  0  0
   13.3423   11.5498   -5.3621 O   0  0  0  0  0  0  0  0  0  0  0  0
   15.4438   11.5616  -12.9643 C   0  0  1  0  0  0  0  0  0  0  0  0
   15.9803   12.8257  -13.3642 O   0  0  0  0  0  0  0  0  0  0  0  0
   12.7730   16.3004  -14.2606 C   0  0  0  0  0  0  0  0  0  0  0  0
   13.4545   14.9773  -14.2194 N   0  0  0  0  0  0  0  0  0  0  0  0
  1  2  1  6  0  0  0
  1  7  1  0  0  0  0
  1 30  1  0  0  0  0
  3  4  1  6  0  0  0
  3  9  1  0  0  0  0
  3 39  1  0  0  0  0
  5 10  1  0  0  0  0
  5 26  1  0  0  0  0
  5 32  1  1  0  0  0
  6 12  1  0  0  0  0
  6 36  1  0  0  0  0
  6 19  1  6  0  0  0
  7  8  1  6  0  0  0
  7 14  1  0  0  0  0
  9 16  1  0  0  0  0
 10 11  1  6  0  0  0
 10 18  1  0  0  0  0
 12 13  1  6  0  0  0
 12 20  1  0  0  0  0
 14 15  1  1  0  0  0
 14 22  1  0  0  0  0
 16 17  1  6  0  0  0
 16 24  1  0  0  0  0
 18 19  1  6  0  0  0
 18 25  1  0  0  0  0
 20 21  1  1  0  0  0
 20 27  1  0  0  0  0
 22 23  1  1  0  0  0
 22 29  1  0  0  0  0
 24  2  1  1  0  0  0
 24 31  1  0  0  0  0
 25 26  1  0  0  0  0
 25 33  1  1  0  0  0
 27 28  1  6  0  0  0
 27 35  1  0  0  0  0
 29 30  1  0  0  0  0
 29 37  1  1  0  0  0
 31 32  1  6  0  0  0
 31 39  1  0  0  0  0
 33 34  1  0  0  0  0
 35 36  1  0  0  0  0
 35 41  1  6  0  0  0
 37 38  1  0  0  0  0
 39 40  1  1  0  0  0
 41 42  1  0  0  0  0
M  END
>  <CHROM.1>
-143.91674696,-48.43991515,-90.85708004,-165.52195095,-81.47459120,-67.12929101
100.40711032,-95.43007306,-174.16835840,12.27411141,12.94203470,-10.70982059
1.13414013,-0.71354237,2.40795581

>  <Name>
ligand

>  <RI>
0

>  <Rbt.Current_Directory>
/home/itssahil/PROJECTS/Mol_Feturizer/Test_systems_manuscript/rnas/2o3w

>  <Rbt.Executable>
rbdock ($Id: //depot/dev/client3/rdock/2013.1/src/exe/rbdock.cxx#4 $)

>  <Rbt.Library>
libRbt.so (2013.1, Build901 2013/11/27)

>  <Rbt.Parameter_File>
/export/apps/rDock/src/rDock_2013.1_src/data/scripts/dock_solv.prm

>  <Rbt.Receptor>
prm/blind_docking_80.prm

>  <SCORE>
17.344

>  <SCORE.INTER>
1.8489

>  <SCORE.INTER.CONST>
1

>  <SCORE.INTER.POLAR>
0

>  <SCORE.INTER.ROT>
9

>  <SCORE.INTER.SOLV>
26.1595

>  <SCORE.INTER.VDW>
-17.0872

>  <SCORE.INTER.norm>
0.0440215

>  <SCORE.INTRA>
3.80992

>  <SCORE.INTRA.DIHEDRAL>
-5.79755

>  <SCORE.INTRA.DIHEDRAL.0>
27.8999

>  <SCORE.INTRA.POLAR>
0

>  <SCORE.INTRA.POLAR.0>
0

>  <SCORE.INTRA.REPUL>
0

>  <SCORE.INTRA.REPUL.0>
0

>  <SCORE.INTRA.SOLV>
6.88661

>  <SCORE.INTRA.SOLV.lig_0>
-104.479

>  <SCORE.INTRA.VDW>
3.26539

>  <SCORE.INTRA.VDW.0>
-6.17816

>  <SCORE.INTRA.norm>
0.0907124

>  <SCORE.RESTR>
11.6852

>  <SCORE.RESTR.CAVITY>
11.6852

>  <SCORE.RESTR.norm>
0.278219

>  <SCORE.SYSTEM>
0

>  <SCORE.SYSTEM.CONST>
0

>  <SCORE.SYSTEM.DIHEDRAL>
0

>  <SCORE.SYSTEM.SOLV>
0

>  <SCORE.SYSTEM.norm>
0

>  <SCORE.heavy>
42

>  <SCORE.norm>
0.412953

>  <RMSD>
18.266

$$$$
ligand
 OpenBabel02271912133D
libRbt.so/2013.1/901 2013/11/27
 42 45  0  0  0  0  0  0  0  0999 V2000
   12.2534   12.1965   -6.7132 C   0  0  2  0  0  0  0  0  0  0  0  0
   12.8798   11.9283   -7.9793 O   0  0  0  0  0  0  0  0  0  0  0  0
   11.8021    8.8513  -10.8371 C   0  0  2  0  0  0  0  0  0  0  0  0
   11.1030    8.0793  -11.9075 N   0  0  0  0  0  0  0  0  0  0  0  0
   12.2100   13.0824  -11.7144 C   0  0  1  0  0  0  0  0  0  0  0  0
   10.3698   16.3822  -13.3998 C   0  0  1  0  0  0  0  0  0  0  0  0
   12.6582   13.6442   -6.3028 C   0  0  2  0  0  0  0  0  0  0  0  0
   12.4386   14.6193   -7.3852 N   0  0  0  0  0  0  0  0  0  0  0  0
   10.8842    9.0230   -9.5605 C   0  0  0  0  0  0  0  0  0  0  0  0
   12.4544   14.6094  -11.9125 C   0  0  2  0  0  0  0  0  0  0  0  0
   11.6391   15.4520  -11.0613 O   0  0  0  0  0  0  0  0  0  0  0  0
   11.4887   17.4817  -13.4884 C   0  0  2  0  0  0  0  0  0  0  0  0
   12.6529   17.1291  -12.6217 N   0  0  0  0  0  0  0  0  0  0  0  0
   14.1429   13.7458   -5.9073 C   0  0  1  0  0  0  0  0  0  0  0  0
   14.4594   15.0784   -5.5014 O   0  0  0  0  0  0  0  0  0  0  0  0
   11.6821    9.8228   -8.4621 C   0  0  2  0  0  0  0  0  0  0  0  0
   10.8518    9.9905   -7.2390 N   0  0  0  0  0  0  0  0  0  0  0  0
   12.2136   14.7562  -13.4157 C   0  0  2  0  0  0  0  0  0  0  0  0
   10.8117   15.0546  -13.7094 O   0  0  0  0  0  0  0  0  0  0  0  0
   10.8703   18.9000  -13.0725 C   0  0  1  0  0  0  0  0  0  0  0  0
   10.0217   19.3717  -14.1432 O   0  0  0  0  0  0  0  0  0  0  0  0
   14.4487   12.7266   -4.7862 C   0  0  2  0  0  0  0  0  0  0  0  0
   15.8006   12.8186   -4.4009 O   0  0  0  0  0  0  0  0  0  0  0  0
   12.1130   11.2409   -9.0089 C   0  0  2  0  0  0  0  0  0  0  0  0
   12.6432   13.4211  -14.0468 C   0  0  2  0  0  0  0  0  0  0  0  0
   12.3639   12.4749  -13.0176 O   0  0  0  0  0  0  0  0  0  0  0  0
   10.0291   18.8364  -11.7102 C   0  0  2  0  0  0  0  0  0  0  0  0
   10.9514   18.6145  -10.6442 O   0  0  0  0  0  0  0  0  0  0  0  0
   14.1172   11.2863   -5.3012 C   0  0  2  0  0  0  0  0  0  0  0  0
   12.7125   11.2189   -5.7036 O   0  0  0  0  0  0  0  0  0  0  0  0
   12.9682   11.1535  -10.2920 C   0  0  2  0  0  0  0  0  0  0  0  0
   13.1124   12.5263  -10.7492 O   0  0  0  0  0  0  0  0  0  0  0  0
   14.1396   13.3506  -14.4830 C   0  0  0  0  0  0  0  0  0  0  0  0
   14.9107   12.7825  -13.4287 O   0  0  0  0  0  0  0  0  0  0  0  0
    8.9690   17.6722  -11.7654 C   0  0  1  0  0  0  0  0  0  0  0  0
    9.7296   16.4384  -12.0286 O   0  0  0  0  0  0  0  0  0  0  0  0
   14.3819   10.2218   -4.2617 C   0  0  0  0  0  0  0  0  0  0  0  0
   15.7630   10.1181   -4.0145 O   0  0  0  0  0  0  0  0  0  0  0  0
   12.2302   10.2717  -11.3845 C   0  0  1  0  0  0  0  0  0  0  0  0
   13.0855   10.0655  -12.5121 O   0  0  0  0  0  0  0  0  0  0  0  0
    8.1097   17.5153  -10.4366 C   0  0  0  0  0  0  0  0  0  0  0  0
    7.5303   18.7748   -9.8940 N   0  0  0  0  0  0  0  0  0  0  0  0
  1  2  1  6  0  0  0
  1  7  1  0  0  0  0
  1 30  1  0  0  0  0
  3  4  1  6  0  0  0
  3  9  1  0  0  0  0
  3 39  1  0  0  0  0
  5 10  1  0  0  0  0
  5 26  1  0  0  0  0
  5 32  1  1  0  0  0
  6 12  1  0  0  0  0
  6 36  1  0  0  0  0
  6 19  1  1  0  0  0
  7  8  1  6  0  0  0
  7 14  1  0  0  0  0
  9 16  1  0  0  0  0
 10 11  1  1  0  0  0
 10 18  1  0  0  0  0
 12 13  1  1  0  0  0
 12 20  1  0  0  0  0
 14 15  1  1  0  0  0
 14 22  1  0  0  0  0
 16 17  1  1  0  0  0
 16 24  1  0  0  0  0
 18 19  1  1  0  0  0
 18 25  1  0  0  0  0
 20 21  1  6  0  0  0
 20 27  1  0  0  0  0
 22 23  1  6  0  0  0
 22 29  1  0  0  0  0
 24  2  1  1  0  0  0
 24 31  1  0  0  0  0
 25 26  1  0  0  0  0
 25 33  1  1  0  0  0
 27 28  1  1  0  0  0
 27 35  1  0  0  0  0
 29 30  1  0  0  0  0
 29 37  1  1  0  0  0
 31 32  1  6  0  0  0
 31 39  1  0  0  0  0
 33 34  1  0  0  0  0
 35 36  1  0  0  0  0
 35 41  1  1  0  0  0
 37 38  1  0  0  0  0
 39 40  1  6  0  0  0
 41 42  1  0  0  0  0
M  END
>  <CHROM.1>
-137.79653397,-60.27029544,73.49870790,29.23597211,93.64456185,-67.57406625
-93.71001608,172.91476933,47.96756082,12.17197865,13.64470751,-9.99523449
0.15338422,-1.23236742,0.92050831

>  <Name>
ligand

>  <RI>
0

>  <Rbt.Current_Directory>
/home/itssahil/PROJECTS/Mol_Feturizer/Test_systems_manuscript/rnas/2o3w

>  <Rbt.Executable>
rbdock ($Id: //depot/dev/client3/rdock/2013.1/src/exe/rbdock.cxx#4 $)

>  <Rbt.Library>
libRbt.so (2013.1, Build901 2013/11/27)

>  <Rbt.Parameter_File>
/export/apps/rDock/src/rDock_2013.1_src/data/scripts/dock_solv.prm

>  <Rbt.Receptor>
prm/blind_docking_40.prm

>  <SCORE>
18.7329

>  <SCORE.INTER>
1.03322

>  <SCORE.INTER.CONST>
1

>  <SCORE.INTER.POLAR>
0

>  <SCORE.INTER.ROT>
9

>  <SCORE.INTER.SOLV>
32.9165

>  <SCORE.INTER.VDW>
-19.8834

>  <SCORE.INTER.norm>
0.0246005

>  <SCORE.INTRA>
6.72639

>  <SCORE.INTRA.DIHEDRAL>
-9.13574

>  <SCORE.INTRA.DIHEDRAL.0>
27.8999

>  <SCORE.INTRA.POLAR>
0

>  <SCORE.INTRA.POLAR.0>
0

>  <SCORE.INTRA.REPUL>
0

>  <SCORE.INTRA.REPUL.0>
0

>  <SCORE.INTRA.SOLV>
3.50257

>  <SCORE.INTRA.SOLV.lig_0>
-104.479

>  <SCORE.INTRA.VDW>
9.54297

>  <SCORE.INTRA.VDW.0>
-6.17816

>  <SCORE.INTRA.norm>
0.160152

>  <SCORE.RESTR>
10.9733

>  <SCORE.RESTR.CAVITY>
10.9733

>  <SCORE.RESTR.norm>
0.261269

>  <SCORE.SYSTEM>
0

>  <SCORE.SYSTEM.CONST>
0

>  <SCORE.SYSTEM.DIHEDRAL>
0

>  <SCORE.SYSTEM.SOLV>
0

>  <SCORE.SYSTEM.norm>
0

>  <SCORE.heavy>
42

>  <SCORE.norm>
0.446022

>  <RMSD>
18.279

$$$$
ligand
 OpenBabel02271912133D
libRbt.so/2013.1/901 2013/11/27
 42 45  0  0  0  0  0  0  0  0999 V2000
   12.5965   12.1718  -11.1383 C   0  0  2  0  0  0  0  0  0  0  0  0
   12.5622   12.9109  -12.3711 O   0  0  0  0  0  0  0  0  0  0  0  0
   10.7420   16.8162  -12.8522 C   0  0  2  0  0  0  0  0  0  0  0  0
    9.7447   17.9151  -13.0201 N   0  0  0  0  0  0  0  0  0  0  0  0
   11.5067   14.0207   -8.9148 C   0  0  1  0  0  0  0  0  0  0  0  0
   12.7545   13.5956   -5.2537 C   0  0  1  0  0  0  0  0  0  0  0  0
   13.9335   11.3715  -11.1245 C   0  0  2  0  0  0  0  0  0  0  0  0
   15.0992   12.2160  -11.4384 N   0  0  0  0  0  0  0  0  0  0  0  0
   10.7442   15.8470  -14.1022 C   0  0  0  0  0  0  0  0  0  0  0  0
   10.4685   14.6308   -7.9245 C   0  0  2  0  0  0  0  0  0  0  0  0
   10.5665   16.0691   -7.7801 O   0  0  0  0  0  0  0  0  0  0  0  0
   14.2021   14.2044   -5.2030 C   0  0  2  0  0  0  0  0  0  0  0  0
   14.6434   14.6447   -6.5603 N   0  0  0  0  0  0  0  0  0  0  0  0
   13.9338   10.2167  -12.1430 C   0  0  1  0  0  0  0  0  0  0  0  0
   15.1602    9.4878  -12.0681 O   0  0  0  0  0  0  0  0  0  0  0  0
   11.8282   14.7260  -13.8769 C   0  0  2  0  0  0  0  0  0  0  0  0
   11.8677   13.8026  -15.0428 N   0  0  0  0  0  0  0  0  0  0  0  0
   10.7505   13.8176   -6.6602 C   0  0  2  0  0  0  0  0  0  0  0  0
   11.7629   14.4601   -5.8218 O   0  0  0  0  0  0  0  0  0  0  0  0
   15.2111   13.1192   -4.5937 C   0  0  1  0  0  0  0  0  0  0  0  0
   14.9756   13.0088   -3.1720 O   0  0  0  0  0  0  0  0  0  0  0  0
   12.7160    9.3006  -11.8841 C   0  0  2  0  0  0  0  0  0  0  0  0
   12.7111    8.2285  -12.7980 O   0  0  0  0  0  0  0  0  0  0  0  0
   11.5173   13.9069  -12.5622 C   0  0  2  0  0  0  0  0  0  0  0  0
   11.2212   12.4347   -7.1412 C   0  0  2  0  0  0  0  0  0  0  0  0
   11.8681   12.7278   -8.3773 O   0  0  0  0  0  0  0  0  0  0  0  0
   15.0596   11.6771   -5.2756 C   0  0  2  0  0  0  0  0  0  0  0  0
   15.5418   11.7808   -6.6147 O   0  0  0  0  0  0  0  0  0  0  0  0
   11.4049   10.1451  -12.0152 C   0  0  2  0  0  0  0  0  0  0  0  0
   11.4381   11.2561  -11.0642 O   0  0  0  0  0  0  0  0  0  0  0  0
   11.4435   14.7993  -11.3039 C   0  0  2  0  0  0  0  0  0  0  0  0
   10.9736   13.9242  -10.2420 O   0  0  0  0  0  0  0  0  0  0  0  0
   10.0845   11.3842   -7.3379 C   0  0  0  0  0  0  0  0  0  0  0  0
   10.6606   10.0904   -7.4897 O   0  0  0  0  0  0  0  0  0  0  0  0
   13.5529   11.2165   -5.2729 C   0  0  1  0  0  0  0  0  0  0  0  0
   12.8022   12.2681   -5.9807 O   0  0  0  0  0  0  0  0  0  0  0  0
   10.1587    9.3260  -11.7701 C   0  0  0  0  0  0  0  0  0  0  0  0
    9.0592    9.9075  -12.4276 O   0  0  0  0  0  0  0  0  0  0  0  0
   10.4281   15.9951  -11.5378 C   0  0  1  0  0  0  0  0  0  0  0  0
   10.4731   16.9037  -10.4341 O   0  0  0  0  0  0  0  0  0  0  0  0
   13.3058    9.8055   -5.9632 C   0  0  0  0  0  0  0  0  0  0  0  0
   12.9871    9.8487   -7.4169 N   0  0  0  0  0  0  0  0  0  0  0  0
  1  2  1  6  0  0  0
  1  7  1  0  0  0  0
  1 30  1  0  0  0  0
  3  4  1  6  0  0  0
  3  9  1  0  0  0  0
  3 39  1  0  0  0  0
  5 10  1  0  0  0  0
  5 26  1  0  0  0  0
  5 32  1  6  0  0  0
  6 12  1  0  0  0  0
  6 36  1  0  0  0  0
  6 19  1  6  0  0  0
  7  8  1  6  0  0  0
  7 14  1  0  0  0  0
  9 16  1  0  0  0  0
 10 11  1  1  0  0  0
 10 18  1  0  0  0  0
 12 13  1  6  0  0  0
 12 20  1  0  0  0  0
 14 15  1  1  0  0  0
 14 22  1  0  0  0  0
 16 17  1  6  0  0  0
 16 24  1  0  0  0  0
 18 19  1  6  0  0  0
 18 25  1  0  0  0  0
 20 21  1  1  0  0  0
 20 27  1  0  0  0  0
 22 23  1  6  0  0  0
 22 29  1  0  0  0  0
 24  2  1  1  0  0  0
 24 31  1  0  0  0  0
 25 26  1  0  0  0  0
 25 33  1  6  0  0  0
 27 28  1  6  0  0  0
 27 35  1  0  0  0  0
 29 30  1  0  0  0  0
 29 37  1  1  0  0  0
 31 32  1  1  0  0  0
 31 39  1  0  0  0  0
 33 34  1  0  0  0  0
 35 36  1  0  0  0  0
 35 41  1  6  0  0  0
 37 38  1  0  0  0  0
 39 40  1  1  0  0  0
 41 42  1  0  0  0  0
M  END
>  <CHROM.1>
-170.79873942,171.25905447,-137.35365911,141.94107477,-167.20575717,-154.84056676
140.72305699,108.61913023,-91.31038979,12.24161831,12.73303636,-9.41414290
-2.40857734,-1.16686112,0.90665811

>  <Name>
ligand

>  <RI>
0

>  <Rbt.Current_Directory>
/home/itssahil/PROJECTS/Mol_Feturizer/Test_systems_manuscript/rnas/2o3w

>  <Rbt.Executable>
rbdock ($Id: //depot/dev/client3/rdock/2013.1/src/exe/rbdock.cxx#4 $)

>  <Rbt.Library>
libRbt.so (2013.1, Build901 2013/11/27)

>  <Rbt.Parameter_File>
/export/apps/rDock/src/rDock_2013.1_src/data/scripts/dock_solv.prm

>  <Rbt.Receptor>
prm/blind_docking_40.prm

>  <SCORE>
44.8598

>  <SCORE.INTER>
11.8979

>  <SCORE.INTER.CONST>
1

>  <SCORE.INTER.POLAR>
0

>  <SCORE.INTER.ROT>
9

>  <SCORE.INTER.SOLV>
35.3589

>  <SCORE.INTER.VDW>
-13.4543

>  <SCORE.INTER.norm>
0.283284

>  <SCORE.INTRA>
22.1559

>  <SCORE.INTRA.DIHEDRAL>
1.016

>  <SCORE.INTRA.DIHEDRAL.0>
27.8999

>  <SCORE.INTRA.POLAR>
0

>  <SCORE.INTRA.POLAR.0>
0

>  <SCORE.INTRA.REPUL>
0.0189493

>  <SCORE.INTRA.REPUL.0>
0

>  <SCORE.INTRA.SOLV>
2.28843

>  <SCORE.INTRA.SOLV.lig_0>
-104.479

>  <SCORE.INTRA.VDW>
20.4089

>  <SCORE.INTRA.VDW.0>
-6.17816

>  <SCORE.INTRA.norm>
0.527522

>  <SCORE.RESTR>
10.806

>  <SCORE.RESTR.CAVITY>
10.806

>  <SCORE.RESTR.norm>
0.257286

>  <SCORE.SYSTEM>
0

>  <SCORE.SYSTEM.CONST>
0

>  <SCORE.SYSTEM.DIHEDRAL>
0

>  <SCORE.SYSTEM.SOLV>
0

>  <SCORE.SYSTEM.norm>
0

>  <SCORE.heavy>
42

>  <SCORE.norm>
1.06809

>  <RMSD>
18.291

$$$$
ligand
 OpenBabel02271912133D
libRbt.so/2013.1/901 2013/11/27
 42 45  0  0  0  0  0  0  0  0999 V2000
   12.5748   12.0752   -7.3126 C   0  0  2  0  0  0  0  0  0  0  0  0
   13.2458   12.1337   -8.5829 O   0  0  0  0  0  0  0  0  0  0  0  0
   13.1267    8.8275  -11.3848 C   0  0  2  0  0  0  0  0  0  0  0  0
   12.7309    7.9130  -12.4973 N   0  0  0  0  0  0  0  0  0  0  0  0
   12.6269   13.1980  -11.9877 C   0  0  1  0  0  0  0  0  0  0  0  0
    9.5268   16.1629  -12.4351 C   0  0  1  0  0  0  0  0  0  0  0  0
   12.7045   13.4861   -6.6641 C   0  0  2  0  0  0  0  0  0  0  0  0
   12.3142   14.5679   -7.5849 N   0  0  0  0  0  0  0  0  0  0  0  0
   12.0144    8.8796  -10.2614 C   0  0  0  0  0  0  0  0  0  0  0  0
   12.2688   14.6254  -11.4730 C   0  0  2  0  0  0  0  0  0  0  0  0
   11.3152   14.6366  -10.3823 O   0  0  0  0  0  0  0  0  0  0  0  0
    9.8194   17.6024  -12.9927 C   0  0  2  0  0  0  0  0  0  0  0  0
   11.2526   17.9715  -12.7912 N   0  0  0  0  0  0  0  0  0  0  0  0
   14.1432   13.7889   -6.2066 C   0  0  1  0  0  0  0  0  0  0  0  0
   14.2071   15.0730   -5.5837 O   0  0  0  0  0  0  0  0  0  0  0  0
   12.4976    9.8393   -9.1091 C   0  0  2  0  0  0  0  0  0  0  0  0
   11.4794    9.9009   -8.0260 N   0  0  0  0  0  0  0  0  0  0  0  0
   11.8047   15.2993  -12.7652 C   0  0  2  0  0  0  0  0  0  0  0  0
   10.3659   15.1328  -12.9722 O   0  0  0  0  0  0  0  0  0  0  0  0
    8.8476   18.6550  -12.2752 C   0  0  1  0  0  0  0  0  0  0  0  0
    7.5111   18.4899  -12.7999 O   0  0  0  0  0  0  0  0  0  0  0  0
   14.6261   12.6737   -5.2515 C   0  0  2  0  0  0  0  0  0  0  0  0
   15.9361   12.9449   -4.8102 O   0  0  0  0  0  0  0  0  0  0  0  0
   12.7642   11.2922   -9.6693 C   0  0  2  0  0  0  0  0  0  0  0  0
   12.6104   14.6431  -13.8992 C   0  0  2  0  0  0  0  0  0  0  0  0
   12.8279   13.3202  -13.4145 O   0  0  0  0  0  0  0  0  0  0  0  0
    8.8217   18.4913  -10.6814 C   0  0  2  0  0  0  0  0  0  0  0  0
   10.0934   18.9070  -10.1848 O   0  0  0  0  0  0  0  0  0  0  0  0
   14.5677   11.3002   -5.9996 C   0  0  2  0  0  0  0  0  0  0  0  0
   13.2012   11.0461   -6.4556 O   0  0  0  0  0  0  0  0  0  0  0  0
   13.8022   11.3121  -10.8127 C   0  0  2  0  0  0  0  0  0  0  0  0
   13.7834   12.6739  -11.3221 O   0  0  0  0  0  0  0  0  0  0  0  0
   13.9614   15.3458  -14.2385 C   0  0  0  0  0  0  0  0  0  0  0  0
   13.7520   16.7521  -14.3234 O   0  0  0  0  0  0  0  0  0  0  0  0
    8.5431   16.9933  -10.2809 C   0  0  1  0  0  0  0  0  0  0  0  0
    9.6013   16.1945  -10.9230 O   0  0  0  0  0  0  0  0  0  0  0  0
   15.0188   10.1467   -5.1336 C   0  0  0  0  0  0  0  0  0  0  0  0
   14.2896   10.1294   -3.9306 O   0  0  0  0  0  0  0  0  0  0  0  0
   13.3901   10.2821  -11.9462 C   0  0  1  0  0  0  0  0  0  0  0  0
   14.4250   10.1899  -12.9292 O   0  0  0  0  0  0  0  0  0  0  0  0
    8.5336   16.7334   -8.7122 C   0  0  0  0  0  0  0  0  0  0  0  0
    7.4336   17.3952   -7.9582 N   0  0  0  0  0  0  0  0  0  0  0  0
  1  2  1  6  0  0  0
  1  7  1  0  0  0  0
  1 30  1  0  0  0  0
  3  4  1  6  0  0  0
  3  9  1  0  0  0  0
  3 39  1  0  0  0  0
  5 10  1  0  0  0  0
  5 26  1  0  0  0  0
  5 32  1  1  0  0  0
  6 12  1  0  0  0  0
  6 36  1  0  0  0  0
  6 19  1  6  0  0  0
  7  8  1  6  0  0  0
  7 14  1  0  0  0  0
  9 16  1  0  0  0  0
 10 11  1  1  0  0  0
 10 18  1  0  0  0  0
 12 13  1  1  0  0  0
 12 20  1  0  0  0  0
 14 15  1  1  0  0  0
 14 22  1  0  0  0  0
 16 17  1  1  0  0  0
 16 24  1  0  0  0  0
 18 19  1  6  0  0  0
 18 25  1  0  0  0  0
 20 21  1  6  0  0  0
 20 27  1  0  0  0  0
 22 23  1  6  0  0  0
 22 29  1  0  0  0  0
 24  2  1  1  0  0  0
 24 31  1  0  0  0  0
 25 26  1  0  0  0  0
 25 33  1  1  0  0  0
 27 28  1  6  0  0  0
 27 35  1  0  0  0  0
 29 30  1  0  0  0  0
 29 37  1  1  0  0  0
 31 32  1  6  0  0  0
 31 39  1  0  0  0  0
 33 34  1  0  0  0  0
 35 36  1  0  0  0  0
 35 41  1  1  0  0  0
 37 38  1  0  0  0  0
 39 40  1  6  0  0  0
 41 42  1  0  0  0  0
M  END
>  <CHROM.1>
-149.28392788,-45.18282357,91.06704068,58.94958683,-46.07963270,53.84476328
-66.53672588,134.19778268,65.70820559,12.12237239,13.75700989,-9.96584648
0.42580084,-1.05422027,1.39751464

>  <Name>
ligand

>  <RI>
0

>  <Rbt.Current_Directory>
/home/itssahil/PROJECTS/Mol_Feturizer/Test_systems_manuscript/rnas/2o3w

>  <Rbt.Executable>
rbdock ($Id: //depot/dev/client3/rdock/2013.1/src/exe/rbdock.cxx#4 $)

>  <Rbt.Library>
libRbt.so (2013.1, Build901 2013/11/27)

>  <Rbt.Parameter_File>
/export/apps/rDock/src/rDock_2013.1_src/data/scripts/dock_solv.prm

>  <Rbt.Receptor>
prm/blind_docking_60.prm

>  <SCORE>
10.8134

>  <SCORE.INTER>
0.175493

>  <SCORE.INTER.CONST>
1

>  <SCORE.INTER.POLAR>
0

>  <SCORE.INTER.ROT>
9

>  <SCORE.INTER.SOLV>
35.6377

>  <SCORE.INTER.VDW>
-21.3622

>  <SCORE.INTER.norm>
0.0041784

>  <SCORE.INTRA>
0.933951

>  <SCORE.INTRA.DIHEDRAL>
-11.8479

>  <SCORE.INTRA.DIHEDRAL.0>
27.8999

>  <SCORE.INTRA.POLAR>
0

>  <SCORE.INTRA.POLAR.0>
0

>  <SCORE.INTRA.REPUL>
0

>  <SCORE.INTRA.REPUL.0>
0

>  <SCORE.INTRA.SOLV>
2.15701

>  <SCORE.INTRA.SOLV.lig_0>
-104.479

>  <SCORE.INTRA.VDW>
5.77941

>  <SCORE.INTRA.VDW.0>
-6.17816

>  <SCORE.INTRA.norm>
0.0222369

>  <SCORE.RESTR>
9.70395

>  <SCORE.RESTR.CAVITY>
9.70395

>  <SCORE.RESTR.norm>
0.231046

>  <SCORE.SYSTEM>
0

>  <SCORE.SYSTEM.CONST>
0

>  <SCORE.SYSTEM.DIHEDRAL>
0

>  <SCORE.SYSTEM.SOLV>
0

>  <SCORE.SYSTEM.norm>
0

>  <SCORE.heavy>
42

>  <SCORE.norm>
0.257462

>  <RMSD>
18.298

$$$$
ligand
 OpenBabel02271912133D
libRbt.so/2013.1/901 2013/11/27
 42 45  0  0  0  0  0  0  0  0999 V2000
   11.9564   10.9913   -7.7440 C   0  0  2  0  0  0  0  0  0  0  0  0
   12.8190   11.1245   -8.8865 O   0  0  0  0  0  0  0  0  0  0  0  0
   12.6358    8.8386  -12.5658 C   0  0  2  0  0  0  0  0  0  0  0  0
   12.2341    8.3291  -13.9110 N   0  0  0  0  0  0  0  0  0  0  0  0
   12.3685   13.2055  -11.8228 C   0  0  1  0  0  0  0  0  0  0  0  0
    9.9438   16.3567  -11.4521 C   0  0  1  0  0  0  0  0  0  0  0  0
   11.4756   12.4249   -7.3673 C   0  0  2  0  0  0  0  0  0  0  0  0
   10.9508   13.1664   -8.5271 N   0  0  0  0  0  0  0  0  0  0  0  0
   11.4906    8.6083  -11.4994 C   0  0  0  0  0  0  0  0  0  0  0  0
   12.4310   14.6864  -11.3391 C   0  0  2  0  0  0  0  0  0  0  0  0
   11.7001   14.9374  -10.1136 O   0  0  0  0  0  0  0  0  0  0  0  0
    8.5106   15.9224  -10.9764 C   0  0  2  0  0  0  0  0  0  0  0  0
    7.5412   15.9471  -12.1125 N   0  0  0  0  0  0  0  0  0  0  0  0
   12.6055   13.2811   -6.7662 C   0  0  1  0  0  0  0  0  0  0  0  0
   12.1114   14.5705   -6.3999 O   0  0  0  0  0  0  0  0  0  0  0  0
   11.9804    9.1439  -10.1009 C   0  0  2  0  0  0  0  0  0  0  0  0
   10.9309    8.9296   -9.0683 N   0  0  0  0  0  0  0  0  0  0  0  0
   11.9210   15.4251  -12.5775 C   0  0  2  0  0  0  0  0  0  0  0  0
   10.4676   15.5912  -12.5444 O   0  0  0  0  0  0  0  0  0  0  0  0
    8.0321   16.8875   -9.7905 C   0  0  1  0  0  0  0  0  0  0  0  0
    8.7660   16.5532   -8.5911 O   0  0  0  0  0  0  0  0  0  0  0  0
   13.2195   12.5463   -5.5529 C   0  0  2  0  0  0  0  0  0  0  0  0
   14.2447   13.3248   -4.9808 O   0  0  0  0  0  0  0  0  0  0  0  0
   12.3342   10.6812  -10.1861 C   0  0  2  0  0  0  0  0  0  0  0  0
   12.3579   14.5799  -13.7859 C   0  0  2  0  0  0  0  0  0  0  0  0
   12.3507   13.2517  -13.2681 O   0  0  0  0  0  0  0  0  0  0  0  0
    8.2387   18.4398  -10.1301 C   0  0  2  0  0  0  0  0  0  0  0  0
    7.3097   18.7836  -11.1573 O   0  0  0  0  0  0  0  0  0  0  0  0
   13.7743   11.1602   -6.0226 C   0  0  2  0  0  0  0  0  0  0  0  0
   12.6945   10.3753   -6.6208 O   0  0  0  0  0  0  0  0  0  0  0  0
   13.4094   10.9902  -11.2508 C   0  0  2  0  0  0  0  0  0  0  0  0
   13.4723   12.4413  -11.3203 O   0  0  0  0  0  0  0  0  0  0  0  0
   13.7560   14.9456  -14.3738 C   0  0  0  0  0  0  0  0  0  0  0  0
   13.8474   16.3589  -14.5258 O   0  0  0  0  0  0  0  0  0  0  0  0
    9.7129   18.7112  -10.6150 C   0  0  1  0  0  0  0  0  0  0  0  0
    9.9285   17.8351  -11.7796 O   0  0  0  0  0  0  0  0  0  0  0  0
   14.3901   10.3673   -4.8931 C   0  0  0  0  0  0  0  0  0  0  0  0
   15.5883   10.9730   -4.4725 O   0  0  0  0  0  0  0  0  0  0  0  0
   12.9866   10.3781  -12.6517 C   0  0  1  0  0  0  0  0  0  0  0  0
   14.0480   10.5320  -13.5979 O   0  0  0  0  0  0  0  0  0  0  0  0
    9.9973   20.2259  -11.0067 C   0  0  0  0  0  0  0  0  0  0  0  0
    9.7417   21.2257   -9.9335 N   0  0  0  0  0  0  0  0  0  0  0  0
  1  2  1  6  0  0  0
  1  7  1  0  0  0  0
  1 30  1  0  0  0  0
  3  4  1  6  0  0  0
  3  9  1  0  0  0  0
  3 39  1  0  0  0  0
  5 10  1  0  0  0  0
  5 26  1  0  0  0  0
  5 32  1  6  0  0  0
  6 12  1  0  0  0  0
  6 36  1  0  0  0  0
  6 19  1  6  0  0  0
  7  8  1  6  0  0  0
  7 14  1  0  0  0  0
  9 16  1  0  0  0  0
 10 11  1  1  0  0  0
 10 18  1  0  0  0  0
 12 13  1  6  0  0  0
 12 20  1  0  0  0  0
 14 15  1  1  0  0  0
 14 22  1  0  0  0  0
 16 17  1  1  0  0  0
 16 24  1  0  0  0  0
 18 19  1  1  0  0  0
 18 25  1  0  0  0  0
 20 21  1  1  0  0  0
 20 27  1  0  0  0  0
 22 23  1  6  0  0  0
 22 29  1  0  0  0  0
 24  2  1  1  0  0  0
 24 31  1  0  0  0  0
 25 26  1  0  0  0  0
 25 33  1  1  0  0  0
 27 28  1  6  0  0  0
 27 35  1  0  0  0  0
 29 30  1  0  0  0  0
 29 37  1  1  0  0  0
 31 32  1  6  0  0  0
 31 39  1  0  0  0  0
 33 34  1  0  0  0  0
 35 36  1  0  0  0  0
 35 41  1  6  0  0  0
 37 38  1  0  0  0  0
 39 40  1  6  0  0  0
 41 42  1  0  0  0  0
M  END
>  <CHROM.1>
-107.52965229,-59.37877040,61.41129613,-148.77716679,-47.10838156,-69.62442407
-66.99779200,159.29406524,57.51717048,11.69621212,13.67036071,-10.13705088
0.19099624,-1.13622602,1.41362910

>  <Name>
ligand

>  <RI>
0

>  <Rbt.Current_Directory>
/home/itssahil/PROJECTS/Mol_Feturizer/Test_systems_manuscript/rnas/2o3w

>  <Rbt.Executable>
rbdock ($Id: //depot/dev/client3/rdock/2013.1/src/exe/rbdock.cxx#4 $)

>  <Rbt.Library>
libRbt.so (2013.1, Build901 2013/11/27)

>  <Rbt.Parameter_File>
/export/apps/rDock/src/rDock_2013.1_src/data/scripts/dock_solv.prm

>  <Rbt.Receptor>
prm/blind_docking_60.prm

>  <SCORE>
4.03926

>  <SCORE.INTER>
-7.02257

>  <SCORE.INTER.CONST>
1

>  <SCORE.INTER.POLAR>
0

>  <SCORE.INTER.ROT>
9

>  <SCORE.INTER.SOLV>
22.6823

>  <SCORE.INTER.VDW>
-21.8425

>  <SCORE.INTER.norm>
-0.167204

>  <SCORE.INTRA>
-2.2948

>  <SCORE.INTRA.DIHEDRAL>
-14.454

>  <SCORE.INTRA.DIHEDRAL.0>
27.8999

>  <SCORE.INTRA.POLAR>
0

>  <SCORE.INTRA.POLAR.0>
0

>  <SCORE.INTRA.REPUL>
0.0943027

>  <SCORE.INTRA.REPUL.0>
0

>  <SCORE.INTRA.SOLV>
0.37299

>  <SCORE.INTRA.SOLV.lig_0>
-104.479

>  <SCORE.INTRA.VDW>
4.27421

>  <SCORE.INTRA.VDW.0>
-6.17816

>  <SCORE.INTRA.norm>
-0.0546381

>  <SCORE.RESTR>
13.3566

>  <SCORE.RESTR.CAVITY>
13.3566

>  <SCORE.RESTR.norm>
0.318015

>  <SCORE.SYSTEM>
0

>  <SCORE.SYSTEM.CONST>
0

>  <SCORE.SYSTEM.DIHEDRAL>
0

>  <SCORE.SYSTEM.SOLV>
0

>  <SCORE.SYSTEM.norm>
0

>  <SCORE.heavy>
42

>  <SCORE.norm>
0.0961728

>  <RMSD>
18.305

$$$$
ligand
 OpenBabel02271912133D
libRbt.so/2013.1/901 2013/11/27
 42 45  0  0  0  0  0  0  0  0999 V2000
   12.5560   10.7306   -8.4526 C   0  0  2  0  0  0  0  0  0  0  0  0
   12.0164   11.2866   -9.6638 O   0  0  0  0  0  0  0  0  0  0  0  0
   14.4663    9.0944  -12.4901 C   0  0  2  0  0  0  0  0  0  0  0  0
   15.0210    8.5173  -13.7510 N   0  0  0  0  0  0  0  0  0  0  0  0
   12.2807   13.2544  -11.7853 C   0  0  1  0  0  0  0  0  0  0  0  0
    9.1437   16.3775  -11.8931 C   0  0  1  0  0  0  0  0  0  0  0  0
   11.3548   10.4806   -7.4920 C   0  0  2  0  0  0  0  0  0  0  0  0
   10.2564    9.7449   -8.1424 N   0  0  0  0  0  0  0  0  0  0  0  0
   13.0104    8.5482  -12.2007 C   0  0  0  0  0  0  0  0  0  0  0  0
   12.1343   14.7617  -11.4147 C   0  0  2  0  0  0  0  0  0  0  0  0
   11.6412   14.9933  -10.0721 O   0  0  0  0  0  0  0  0  0  0  0  0
    9.6203   17.0778  -10.5698 C   0  0  2  0  0  0  0  0  0  0  0  0
    9.5091   16.1494   -9.4050 N   0  0  0  0  0  0  0  0  0  0  0  0
   10.7540   11.7924   -6.9541 C   0  0  1  0  0  0  0  0  0  0  0  0
    9.6841   11.5150   -6.0490 O   0  0  0  0  0  0  0  0  0  0  0  0
   12.4898    9.1732  -10.8513 C   0  0  2  0  0  0  0  0  0  0  0  0
   11.1253    8.6686  -10.5399 N   0  0  0  0  0  0  0  0  0  0  0  0
   11.2336   15.2597  -12.5460 C   0  0  2  0  0  0  0  0  0  0  0  0
    9.8176   15.1493  -12.1946 O   0  0  0  0  0  0  0  0  0  0  0  0
    8.7547   18.4050  -10.3326 C   0  0  1  0  0  0  0  0  0  0  0  0
    9.1806   19.4151  -11.2744 O   0  0  0  0  0  0  0  0  0  0  0  0
   11.8640   12.6281   -6.2767 C   0  0  2  0  0  0  0  0  0  0  0  0
   11.3268   13.8252   -5.7639 O   0  0  0  0  0  0  0  0  0  0  0  0
   12.4641   10.7503  -10.9414 C   0  0  2  0  0  0  0  0  0  0  0  0
   11.5729   14.3938  -13.7710 C   0  0  2  0  0  0  0  0  0  0  0  0
   11.9507   13.1484  -13.1892 O   0  0  0  0  0  0  0  0  0  0  0  0
    7.1795   18.1564  -10.4890 C   0  0  2  0  0  0  0  0  0  0  0  0
    6.7587   17.3522   -9.3878 O   0  0  0  0  0  0  0  0  0  0  0  0
   12.9869   12.9300   -7.3243 C   0  0  2  0  0  0  0  0  0  0  0  0
   13.5214   11.6732   -7.8484 O   0  0  0  0  0  0  0  0  0  0  0  0
   13.8453   11.3535  -11.2785 C   0  0  2  0  0  0  0  0  0  0  0  0
   13.5996   12.7691  -11.5022 O   0  0  0  0  0  0  0  0  0  0  0  0
   12.7092   14.9563  -14.6802 C   0  0  0  0  0  0  0  0  0  0  0  0
   13.7343   15.5122  -13.8622 O   0  0  0  0  0  0  0  0  0  0  0  0
    6.8643   17.4265  -11.8491 C   0  0  1  0  0  0  0  0  0  0  0  0
    7.6440   16.1766  -11.8330 O   0  0  0  0  0  0  0  0  0  0  0  0
   14.1214   13.7417   -6.7430 C   0  0  0  0  0  0  0  0  0  0  0  0
   13.6442   14.9832   -6.2846 O   0  0  0  0  0  0  0  0  0  0  0  0
   14.4381   10.6728  -12.5827 C   0  0  1  0  0  0  0  0  0  0  0  0
   15.7775   11.1209  -12.8079 O   0  0  0  0  0  0  0  0  0  0  0  0
    5.3221   17.1094  -12.0718 C   0  0  0  0  0  0  0  0  0  0  0  0
    4.7669   17.5159  -13.3920 N   0  0  0  0  0  0  0  0  0  0  0  0
  1  2  1  6  0  0  0
  1  7  1  0  0  0  0
  1 30  1  0  0  0  0
  3  4  1  6  0  0  0
  3  9  1  0  0  0  0
  3 39  1  0  0  0  0
  5 10  1  0  0  0  0
  5 26  1  0  0  0  0
  5 32  1  6  0  0  0
  6 12  1  0  0  0  0
  6 36  1  0  0  0  0
  6 19  1  1  0  0  0
  7  8  1  6  0  0  0
  7 14  1  0  0  0  0
  9 16  1  0  0  0  0
 10 11  1  1  0  0  0
 10 18  1  0  0  0  0
 12 13  1  1  0  0  0
 12 20  1  0  0  0  0
 14 15  1  1  0  0  0
 14 22  1  0  0  0  0
 16 17  1  6  0  0  0
 16 24  1  0  0  0  0
 18 19  1  1  0  0  0
 18 25  1  0  0  0  0
 20 21  1  6  0  0  0
 20 27  1  0  0  0  0
 22 23  1  6  0  0  0
 22 29  1  0  0  0  0
 24  2  1  1  0  0  0
 24 31  1  0  0  0  0
 25 26  1  0  0  0  0
 25 33  1  1  0  0  0
 27 28  1  1  0  0  0
 27 35  1  0  0  0  0
 29 30  1  0  0  0  0
 29 37  1  1  0  0  0
 31 32  1  6  0  0  0
 31 39  1  0  0  0  0
 33 34  1  0  0  0  0
 35 36  1  0  0  0  0
 35 41  1  1  0  0  0
 37 38  1  0  0  0  0
 39 40  1  1  0  0  0
 41 42  1  0  0  0  0
M  END
>  <CHROM.1>
-133.60675877,44.13268296,106.58062544,-67.77691118,39.78164572,-60.70976175
-18.77311851,156.56531284,130.76158566,11.24722061,13.57333556,-10.50524443
0.29726148,-0.85985347,1.81974490

>  <Name>
ligand

>  <RI>
0

>  <Rbt.Current_Directory>
/home/itssahil/PROJECTS/Mol_Feturizer/Test_systems_manuscript/rnas/2o3w

>  <Rbt.Executable>
rbdock ($Id: //depot/dev/client3/rdock/2013.1/src/exe/rbdock.cxx#4 $)

>  <Rbt.Library>
libRbt.so (2013.1, Build901 2013/11/27)

>  <Rbt.Parameter_File>
/export/apps/rDock/src/rDock_2013.1_src/data/scripts/dock_solv.prm

>  <Rbt.Receptor>
prm/blind_docking_80.prm

>  <SCORE>
12.1194

>  <SCORE.INTER>
-2.18991

>  <SCORE.INTER.CONST>
1

>  <SCORE.INTER.POLAR>
0

>  <SCORE.INTER.ROT>
9

>  <SCORE.INTER.SOLV>
30.1491

>  <SCORE.INTER.VDW>
-21.1096

>  <SCORE.INTER.norm>
-0.0521407

>  <SCORE.INTRA>
5.45208

>  <SCORE.INTRA.DIHEDRAL>
0.548111

>  <SCORE.INTRA.DIHEDRAL.0>
27.8999

>  <SCORE.INTRA.POLAR>
0

>  <SCORE.INTRA.POLAR.0>
0

>  <SCORE.INTRA.REPUL>
0

>  <SCORE.INTRA.REPUL.0>
0

>  <SCORE.INTRA.SOLV>
-0.0854253

>  <SCORE.INTRA.SOLV.lig_0>
-104.479

>  <SCORE.INTRA.VDW>
5.22074

>  <SCORE.INTRA.VDW.0>
-6.17816

>  <SCORE.INTRA.norm>
0.129811

>  <SCORE.RESTR>
8.85725

>  <SCORE.RESTR.CAVITY>
8.85725

>  <SCORE.RESTR.norm>
0.210887

>  <SCORE.SYSTEM>
0

>  <SCORE.SYSTEM.CONST>
0

>  <SCORE.SYSTEM.DIHEDRAL>
0

>  <SCORE.SYSTEM.SOLV>
0

>  <SCORE.SYSTEM.norm>
0

>  <SCORE.heavy>
42

>  <SCORE.norm>
0.288558

>  <RMSD>
18.306

$$$$
ligand
 OpenBabel02271912133D
libRbt.so/2013.1/901 2013/11/27
 42 45  0  0  0  0  0  0  0  0999 V2000
   12.1368   11.3186   -7.8823 C   0  0  2  0  0  0  0  0  0  0  0  0
   12.4408   11.9380   -9.1437 O   0  0  0  0  0  0  0  0  0  0  0  0
   14.5284    8.9499  -11.4909 C   0  0  2  0  0  0  0  0  0  0  0  0
   14.9562    8.0551  -12.6075 N   0  0  0  0  0  0  0  0  0  0  0  0
   12.7923   13.2435  -11.9419 C   0  0  1  0  0  0  0  0  0  0  0  0
    9.4502   15.9589  -12.2383 C   0  0  1  0  0  0  0  0  0  0  0  0
   11.3770   12.3767   -7.0272 C   0  0  2  0  0  0  0  0  0  0  0  0
   10.2608   12.9984   -7.7608 N   0  0  0  0  0  0  0  0  0  0  0  0
   13.0543    8.6190  -11.0228 C   0  0  0  0  0  0  0  0  0  0  0  0
   12.3521   14.6428  -11.4138 C   0  0  2  0  0  0  0  0  0  0  0  0
   11.4610   14.5885  -10.2727 O   0  0  0  0  0  0  0  0  0  0  0  0
    9.5430   17.3891  -12.8824 C   0  0  2  0  0  0  0  0  0  0  0  0
   10.9437   17.9055  -12.8352 N   0  0  0  0  0  0  0  0  0  0  0  0
   12.2960   13.5214   -6.5623 C   0  0  1  0  0  0  0  0  0  0  0  0
   11.5685   14.4449   -5.7506 O   0  0  0  0  0  0  0  0  0  0  0  0
   12.6697    9.5770   -9.8325 C   0  0  2  0  0  0  0  0  0  0  0  0
   11.2911    9.2831   -9.3564 N   0  0  0  0  0  0  0  0  0  0  0  0
   11.7675   15.2682  -12.6814 C   0  0  2  0  0  0  0  0  0  0  0  0
   10.3370   14.9886  -12.8088 O   0  0  0  0  0  0  0  0  0  0  0  0
    8.5389   18.3782  -12.1206 C   0  0  1  0  0  0  0  0  0  0  0  0
    7.1838   18.0571  -12.5072 O   0  0  0  0  0  0  0  0  0  0  0  0
   13.5070   12.9341   -5.8022 C   0  0  2  0  0  0  0  0  0  0  0  0
   14.3498   13.9707   -5.3552 O   0  0  0  0  0  0  0  0  0  0  0  0
   12.7644   11.0888  -10.2815 C   0  0  2  0  0  0  0  0  0  0  0  0
   12.5594   14.6676  -13.8551 C   0  0  2  0  0  0  0  0  0  0  0  0
   12.9056   13.3695  -13.3780 O   0  0  0  0  0  0  0  0  0  0  0  0
    8.6752   18.2961  -10.5262 C   0  0  2  0  0  0  0  0  0  0  0  0
    9.9380   18.8585  -10.1721 O   0  0  0  0  0  0  0  0  0  0  0  0
   14.2827   11.9612   -6.7515 C   0  0  2  0  0  0  0  0  0  0  0  0
   13.3850   10.9007   -7.2091 O   0  0  0  0  0  0  0  0  0  0  0  0
   14.1658   11.4711  -10.8059 C   0  0  2  0  0  0  0  0  0  0  0  0
   14.0205   12.8163  -11.3385 O   0  0  0  0  0  0  0  0  0  0  0  0
   13.8311   15.4705  -14.2703 C   0  0  0  0  0  0  0  0  0  0  0  0
   13.4729   16.8281  -14.5098 O   0  0  0  0  0  0  0  0  0  0  0  0
    8.5878   16.8010  -10.0371 C   0  0  1  0  0  0  0  0  0  0  0  0
    9.6587   16.0763  -10.7430 O   0  0  0  0  0  0  0  0  0  0  0  0
   15.4847   11.3333   -6.0846 C   0  0  0  0  0  0  0  0  0  0  0  0
   15.0708   10.4578   -5.0640 O   0  0  0  0  0  0  0  0  0  0  0  0
   14.6206   10.4626  -11.9425 C   0  0  1  0  0  0  0  0  0  0  0  0
   15.9750   10.7235  -12.3207 O   0  0  0  0  0  0  0  0  0  0  0  0
    8.7478   16.6234   -8.4650 C   0  0  0  0  0  0  0  0  0  0  0  0
   10.0377   16.0329   -8.0134 N   0  0  0  0  0  0  0  0  0  0  0  0
  1  2  1  6  0  0  0
  1  7  1  0  0  0  0
  1 30  1  0  0  0  0
  3  4  1  6  0  0  0
  3  9  1  0  0  0  0
  3 39  1  0  0  0  0
  5 10  1  0  0  0  0
  5 26  1  0  0  0  0
  5 32  1  1  0  0  0
  6 12  1  0  0  0  0
  6 36  1  0  0  0  0
  6 19  1  6  0  0  0
  7  8  1  6  0  0  0
  7 14  1  0  0  0  0
  9 16  1  0  0  0  0
 10 11  1  1  0  0  0
 10 18  1  0  0  0  0
 12 13  1  1  0  0  0
 12 20  1  0  0  0  0
 14 15  1  1  0  0  0
 14 22  1  0  0  0  0
 16 17  1  6  0  0  0
 16 24  1  0  0  0  0
 18 19  1  6  0  0  0
 18 25  1  0  0  0  0
 20 21  1  1  0  0  0
 20 27  1  0  0  0  0
 22 23  1  6  0  0  0
 22 29  1  0  0  0  0
 24  2  1  1  0  0  0
 24 31  1  0  0  0  0
 25 26  1  0  0  0  0
 25 33  1  1  0  0  0
 27 28  1  6  0  0  0
 27 35  1  0  0  0  0
 29 30  1  0  0  0  0
 29 37  1  1  0  0  0
 31 32  1  6  0  0  0
 31 39  1  0  0  0  0
 33 34  1  0  0  0  0
 35 36  1  0  0  0  0
 35 41  1  1  0  0  0
 37 38  1  0  0  0  0
 39 40  1  1  0  0  0
 41 42  1  0  0  0  0
M  END
>  <CHROM.1>
-160.98161523,1.18089291,91.45966668,62.27062312,-53.19546125,67.49848549
-32.65219728,133.17474337,-107.43097288,12.08503832,13.65939020,-10.15748075
0.52380287,-0.95423069,1.73347829

>  <Name>
ligand

>  <RI>
0

>  <Rbt.Current_Directory>
/home/itssahil/PROJECTS/Mol_Feturizer/Test_systems_manuscript/rnas/2o3w

>  <Rbt.Executable>
rbdock ($Id: //depot/dev/client3/rdock/2013.1/src/exe/rbdock.cxx#4 $)

>  <Rbt.Library>
libRbt.so (2013.1, Build901 2013/11/27)

>  <Rbt.Parameter_File>
/export/apps/rDock/src/rDock_2013.1_src/data/scripts/dock_solv.prm

>  <Rbt.Receptor>
prm/blind_docking_80.prm

>  <SCORE>
14.75

>  <SCORE.INTER>
-2.62987

>  <SCORE.INTER.CONST>
1

>  <SCORE.INTER.POLAR>
0

>  <SCORE.INTER.ROT>
9

>  <SCORE.INTER.SOLV>
28.8303

>  <SCORE.INTER.VDW>
-20.9634

>  <SCORE.INTER.norm>
-0.0626159

>  <SCORE.INTRA>
9.6464

>  <SCORE.INTRA.DIHEDRAL>
-0.542203

>  <SCORE.INTRA.DIHEDRAL.0>
27.8999

>  <SCORE.INTRA.POLAR>
0

>  <SCORE.INTRA.POLAR.0>
0

>  <SCORE.INTRA.REPUL>
0.0453652

>  <SCORE.INTRA.REPUL.0>
0

>  <SCORE.INTRA.SOLV>
6.42156

>  <SCORE.INTRA.SOLV.lig_0>
-104.479

>  <SCORE.INTRA.VDW>
6.47989

>  <SCORE.INTRA.VDW.0>
-6.17816

>  <SCORE.INTRA.norm>
0.229676

>  <SCORE.RESTR>
7.73345

>  <SCORE.RESTR.CAVITY>
7.73345

>  <SCORE.RESTR.norm>
0.18413

>  <SCORE.SYSTEM>
0

>  <SCORE.SYSTEM.CONST>
0

>  <SCORE.SYSTEM.DIHEDRAL>
0

>  <SCORE.SYSTEM.SOLV>
0

>  <SCORE.SYSTEM.norm>
0

>  <SCORE.heavy>
42

>  <SCORE.norm>
0.35119

>  <RMSD>
18.306

$$$$
ligand
 OpenBabel02271912133D
libRbt.so/2013.1/901 2013/11/27
 42 45  0  0  0  0  0  0  0  0999 V2000
   14.3273    9.7158  -10.0717 C   0  0  2  0  0  0  0  0  0  0  0  0
   13.9249   11.0412   -9.6858 O   0  0  0  0  0  0  0  0  0  0  0  0
   11.7292   10.0159   -6.0908 C   0  0  2  0  0  0  0  0  0  0  0  0
   10.7995   10.0662   -4.9231 N   0  0  0  0  0  0  0  0  0  0  0  0
   11.6016   11.7075  -10.7063 C   0  0  1  0  0  0  0  0  0  0  0  0
   11.2989   15.2611  -13.4708 C   0  0  1  0  0  0  0  0  0  0  0  0
   15.3248    9.8707  -11.2588 C   0  0  2  0  0  0  0  0  0  0  0  0
   16.3927   10.8450  -10.9744 N   0  0  0  0  0  0  0  0  0  0  0  0
   12.8578   11.1180   -5.9739 C   0  0  0  0  0  0  0  0  0  0  0  0
   10.4667   12.3107  -11.5888 C   0  0  2  0  0  0  0  0  0  0  0  0
   10.3692   11.7202  -12.9082 O   0  0  0  0  0  0  0  0  0  0  0  0
   12.3784   15.7611  -14.4972 C   0  0  2  0  0  0  0  0  0  0  0  0
   13.6515   16.1165  -13.8016 N   0  0  0  0  0  0  0  0  0  0  0  0
   14.6283   10.3385  -12.5500 C   0  0  1  0  0  0  0  0  0  0  0  0
   15.5714   10.4284  -13.6193 O   0  0  0  0  0  0  0  0  0  0  0  0
   13.8167   11.0004   -7.2185 C   0  0  2  0  0  0  0  0  0  0  0  0
   14.9014   12.0152   -7.1337 N   0  0  0  0  0  0  0  0  0  0  0  0
   10.8218   13.7980  -11.5536 C   0  0  2  0  0  0  0  0  0  0  0  0
   11.7183   14.1632  -12.6508 O   0  0  0  0  0  0  0  0  0  0  0  0
   11.7964   17.0144  -15.3081 C   0  0  1  0  0  0  0  0  0  0  0  0
   10.8075   16.5426  -16.2506 O   0  0  0  0  0  0  0  0  0  0  0  0
   13.4753    9.3685  -12.8944 C   0  0  2  0  0  0  0  0  0  0  0  0
   12.8379    9.7736  -14.0836 O   0  0  0  0  0  0  0  0  0  0  0  0
   13.0108   11.1970   -8.5630 C   0  0  2  0  0  0  0  0  0  0  0  0
   11.4840   14.0441  -10.1875 C   0  0  2  0  0  0  0  0  0  0  0  0
   12.1177   12.7978   -9.9087 O   0  0  0  0  0  0  0  0  0  0  0  0
   11.1416   18.1228  -14.3540 C   0  0  2  0  0  0  0  0  0  0  0  0
   12.1988   18.7371  -13.6184 O   0  0  0  0  0  0  0  0  0  0  0  0
   12.4592    9.3402  -11.7043 C   0  0  2  0  0  0  0  0  0  0  0  0
   13.1460    8.9266  -10.4808 O   0  0  0  0  0  0  0  0  0  0  0  0
   11.8524   10.1876   -8.7199 C   0  0  2  0  0  0  0  0  0  0  0  0
   11.1200   10.6267   -9.8969 O   0  0  0  0  0  0  0  0  0  0  0  0
   10.5022   14.4431   -9.0425 C   0  0  0  0  0  0  0  0  0  0  0  0
   11.2510   14.8442   -7.8991 O   0  0  0  0  0  0  0  0  0  0  0  0
   10.1027   17.4648  -13.3691 C   0  0  1  0  0  0  0  0  0  0  0  0
   10.8426   16.4311  -12.6247 O   0  0  0  0  0  0  0  0  0  0  0  0
   11.2967    8.4075  -11.9542 C   0  0  0  0  0  0  0  0  0  0  0  0
   10.3853    8.9975  -12.8490 O   0  0  0  0  0  0  0  0  0  0  0  0
   10.9220   10.2159   -7.4358 C   0  0  1  0  0  0  0  0  0  0  0  0
    9.9407    9.1783   -7.5144 O   0  0  0  0  0  0  0  0  0  0  0  0
    9.4272   18.4914  -12.3599 C   0  0  0  0  0  0  0  0  0  0  0  0
   10.3462   19.1182  -11.3704 N   0  0  0  0  0  0  0  0  0  0  0  0
  1  2  1  6  0  0  0
  1  7  1  0  0  0  0
  1 30  1  0  0  0  0
  3  4  1  1  0  0  0
  3  9  1  0  0  0  0
  3 39  1  0  0  0  0
  5 10  1  0  0  0  0
  5 26  1  0  0  0  0
  5 32  1  1  0  0  0
  6 12  1  0  0  0  0
  6 36  1  0  0  0  0
  6 19  1  1  0  0  0
  7  8  1  1  0  0  0
  7 14  1  0  0  0  0
  9 16  1  0  0  0  0
 10 11  1  6  0  0  0
 10 18  1  0  0  0  0
 12 13  1  1  0  0  0
 12 20  1  0  0  0  0
 14 15  1  6  0  0  0
 14 22  1  0  0  0  0
 16 17  1  1  0  0  0
 16 24  1  0  0  0  0
 18 19  1  6  0  0  0
 18 25  1  0  0  0  0
 20 21  1  6  0  0  0
 20 27  1  0  0  0  0
 22 23  1  6  0  0  0
 22 29  1  0  0  0  0
 24  2  1  6  0  0  0
 24 31  1  0  0  0  0
 25 26  1  0  0  0  0
 25 33  1  1  0  0  0
 27 28  1  1  0  0  0
 27 35  1  0  0  0  0
 29 30  1  0  0  0  0
 29 37  1  6  0  0  0
 31 32  1  6  0  0  0
 31 39  1  0  0  0  0
 33 34  1  0  0  0  0
 35 36  1  0  0  0  0
 35 41  1  1  0  0  0
 37 38  1  0  0  0  0
 39 40  1  6  0  0  0
 41 42  1  0  0  0  0
M  END
>  <CHROM.1>
-178.40968875,77.16660222,126.94609358,171.28532446,-170.93047425,-76.43303233
5.73606941,-160.74179212,-65.39540268,12.10455301,12.65259329,-11.05396473
-1.14020997,1.16111226,-0.99561818

>  <Name>
ligand

>  <RI>
0

>  <Rbt.Current_Directory>
/home/itssahil/PROJECTS/Mol_Feturizer/Test_systems_manuscript/rnas/2o3w

>  <Rbt.Executable>
rbdock ($Id: //depot/dev/client3/rdock/2013.1/src/exe/rbdock.cxx#4 $)

>  <Rbt.Library>
libRbt.so (2013.1, Build901 2013/11/27)

>  <Rbt.Parameter_File>
/export/apps/rDock/src/rDock_2013.1_src/data/scripts/dock_solv.prm

>  <Rbt.Receptor>
prm/blind_docking_80.prm

>  <SCORE>
54.2642

>  <SCORE.INTER>
29.8914

>  <SCORE.INTER.CONST>
1

>  <SCORE.INTER.POLAR>
0

>  <SCORE.INTER.ROT>
9

>  <SCORE.INTER.SOLV>
36.8767

>  <SCORE.INTER.VDW>
-1.96461

>  <SCORE.INTER.norm>
0.711701

>  <SCORE.INTRA>
12.3873

>  <SCORE.INTRA.DIHEDRAL>
-9.08453

>  <SCORE.INTRA.DIHEDRAL.0>
27.8999

>  <SCORE.INTRA.POLAR>
0

>  <SCORE.INTRA.POLAR.0>
0

>  <SCORE.INTRA.REPUL>
0

>  <SCORE.INTRA.REPUL.0>
0

>  <SCORE.INTRA.SOLV>
-1.75298

>  <SCORE.INTRA.SOLV.lig_0>
-104.479

>  <SCORE.INTRA.VDW>
17.8061

>  <SCORE.INTRA.VDW.0>
-6.17816

>  <SCORE.INTRA.norm>
0.294937

>  <SCORE.RESTR>
11.9854

>  <SCORE.RESTR.CAVITY>
11.9854

>  <SCORE.RESTR.norm>
0.285368

>  <SCORE.SYSTEM>
0

>  <SCORE.SYSTEM.CONST>
0

>  <SCORE.SYSTEM.DIHEDRAL>
0

>  <SCORE.SYSTEM.SOLV>
0

>  <SCORE.SYSTEM.norm>
0

>  <SCORE.heavy>
42

>  <SCORE.norm>
1.29201

>  <RMSD>
18.306

$$$$
ligand
 OpenBabel02271912133D
libRbt.so/2013.1/901 2013/11/27
 42 45  0  0  0  0  0  0  0  0999 V2000
   12.2589   11.4784   -7.8717 C   0  0  2  0  0  0  0  0  0  0  0  0
   13.2666   11.6872   -8.8758 O   0  0  0  0  0  0  0  0  0  0  0  0
   14.1480    9.0462  -12.1992 C   0  0  2  0  0  0  0  0  0  0  0  0
   14.0943    8.3398  -13.5139 N   0  0  0  0  0  0  0  0  0  0  0  0
   12.9854   13.3597  -11.9732 C   0  0  1  0  0  0  0  0  0  0  0  0
   10.7832   15.0292  -13.1295 C   0  0  1  0  0  0  0  0  0  0  0  0
   11.6266   12.8693   -7.5655 C   0  0  2  0  0  0  0  0  0  0  0  0
   11.2239   13.5869   -8.7876 N   0  0  0  0  0  0  0  0  0  0  0  0
   12.8728    8.7226  -11.3211 C   0  0  0  0  0  0  0  0  0  0  0  0
   13.0551   13.1399  -13.5151 C   0  0  2  0  0  0  0  0  0  0  0  0
   13.6269   14.2539  -14.2439 O   0  0  0  0  0  0  0  0  0  0  0  0
    9.8073   14.7017  -11.9425 C   0  0  2  0  0  0  0  0  0  0  0  0
    8.4270   14.4319  -12.4456 N   0  0  0  0  0  0  0  0  0  0  0  0
   12.5926   13.7954   -6.8038 C   0  0  1  0  0  0  0  0  0  0  0  0
   11.9590   15.0417   -6.5102 O   0  0  0  0  0  0  0  0  0  0  0  0
   12.9977    9.4758   -9.9429 C   0  0  2  0  0  0  0  0  0  0  0  0
   11.8191    9.1817   -9.0838 N   0  0  0  0  0  0  0  0  0  0  0  0
   11.5945   12.8185  -13.8357 C   0  0  2  0  0  0  0  0  0  0  0  0
   10.8348   14.0279  -14.1534 O   0  0  0  0  0  0  0  0  0  0  0  0
    9.8126   15.9202  -10.9021 C   0  0  1  0  0  0  0  0  0  0  0  0
   11.0570   15.9015  -10.1672 O   0  0  0  0  0  0  0  0  0  0  0  0
   13.0750   13.0902   -5.5158 C   0  0  2  0  0  0  0  0  0  0  0  0
   13.9475   13.9318   -4.7983 O   0  0  0  0  0  0  0  0  0  0  0  0
   13.1131   11.0352  -10.1688 C   0  0  2  0  0  0  0  0  0  0  0  0
   11.0304   12.1178  -12.5882 C   0  0  2  0  0  0  0  0  0  0  0  0
   11.7760   12.7059  -11.5249 O   0  0  0  0  0  0  0  0  0  0  0  0
    9.6308   17.3451  -11.6121 C   0  0  2  0  0  0  0  0  0  0  0  0
    8.2944   17.4119  -12.1082 O   0  0  0  0  0  0  0  0  0  0  0  0
   13.7904   11.7531   -5.9031 C   0  0  2  0  0  0  0  0  0  0  0  0
   12.8684   10.9016   -6.6544 O   0  0  0  0  0  0  0  0  0  0  0  0
   14.3077   11.4233  -11.0674 C   0  0  2  0  0  0  0  0  0  0  0  0
   14.1519   12.8476  -11.3158 O   0  0  0  0  0  0  0  0  0  0  0  0
   11.1760   10.5644  -12.5836 C   0  0  0  0  0  0  0  0  0  0  0  0
   10.4253   10.0247  -11.5000 O   0  0  0  0  0  0  0  0  0  0  0  0
   10.6599   17.5130  -12.7932 C   0  0  1  0  0  0  0  0  0  0  0  0
   10.4225   16.3818  -13.7067 O   0  0  0  0  0  0  0  0  0  0  0  0
   14.2911   10.9912   -4.6979 C   0  0  0  0  0  0  0  0  0  0  0  0
   15.1878    9.9841   -5.0990 O   0  0  0  0  0  0  0  0  0  0  0  0
   14.2603   10.6071  -12.4265 C   0  0  1  0  0  0  0  0  0  0  0  0
   15.4436   10.8529  -13.1913 O   0  0  0  0  0  0  0  0  0  0  0  0
   10.5268   18.8900  -13.5773 C   0  0  0  0  0  0  0  0  0  0  0  0
   10.7488   20.1166  -12.7633 N   0  0  0  0  0  0  0  0  0  0  0  0
  1  2  1  6  0  0  0
  1  7  1  0  0  0  0
  1 30  1  0  0  0  0
  3  4  1  6  0  0  0
  3  9  1  0  0  0  0
  3 39  1  0  0  0  0
  5 10  1  0  0  0  0
  5 26  1  0  0  0  0
  5 32  1  1  0  0  0
  6 12  1  0  0  0  0
  6 36  1  0  0  0  0
  6 19  1  6  0  0  0
  7  8  1  6  0  0  0
  7 14  1  0  0  0  0
  9 16  1  0  0  0  0
 10 11  1  6  0  0  0
 10 18  1  0  0  0  0
 12 13  1  6  0  0  0
 12 20  1  0  0  0  0
 14 15  1  1  0  0  0
 14 22  1  0  0  0  0
 16 17  1  1  0  0  0
 16 24  1  0  0  0  0
 18 19  1  1  0  0  0
 18 25  1  0  0  0  0
 20 21  1  6  0  0  0
 20 27  1  0  0  0  0
 22 23  1  6  0  0  0
 22 29  1  0  0  0  0
 24  2  1  1  0  0  0
 24 31  1  0  0  0  0
 25 26  1  0  0  0  0
 25 33  1  6  0  0  0
 27 28  1  6  0  0  0
 27 35  1  0  0  0  0
 29 30  1  0  0  0  0
 29 37  1  1  0  0  0
 31 32  1  6  0  0  0
 31 39  1  0  0  0  0
 33 34  1  0  0  0  0
 35 36  1  0  0  0  0
 35 41  1  6  0  0  0
 37 38  1  0  0  0  0
 39 40  1  1  0  0  0
 41 42  1  0  0  0  0
M  END
>  <CHROM.1>
-117.78708398,-57.18345803,-59.43982262,-75.99270214,-170.32103059,-166.03243029
-60.41746869,-78.20352902,60.92870930,12.15172692,13.04433274,-10.56499076
0.42317557,-1.13398141,1.27220215

>  <Name>
ligand

>  <RI>
0

>  <Rbt.Current_Directory>
/home/itssahil/PROJECTS/Mol_Feturizer/Test_systems_manuscript/rnas/2o3w

>  <Rbt.Executable>
rbdock ($Id: //depot/dev/client3/rdock/2013.1/src/exe/rbdock.cxx#4 $)

>  <Rbt.Library>
libRbt.so (2013.1, Build901 2013/11/27)

>  <Rbt.Parameter_File>
/export/apps/rDock/src/rDock_2013.1_src/data/scripts/dock_solv.prm

>  <Rbt.Receptor>
prm/blind_docking_80.prm

>  <SCORE>
6.89988

>  <SCORE.INTER>
-4.65002

>  <SCORE.INTER.CONST>
1

>  <SCORE.INTER.POLAR>
0

>  <SCORE.INTER.ROT>
9

>  <SCORE.INTER.SOLV>
23.8588

>  <SCORE.INTER.VDW>
-20.6529

>  <SCORE.INTER.norm>
-0.110715

>  <SCORE.INTRA>
2.95533

>  <SCORE.INTRA.DIHEDRAL>
-16.8465

>  <SCORE.INTRA.DIHEDRAL.0>
27.8999

>  <SCORE.INTRA.POLAR>
0

>  <SCORE.INTRA.POLAR.0>
0

>  <SCORE.INTRA.REPUL>
0.175565

>  <SCORE.INTRA.REPUL.0>
0

>  <SCORE.INTRA.SOLV>
5.723

>  <SCORE.INTRA.SOLV.lig_0>
-104.479

>  <SCORE.INTRA.VDW>
7.63927

>  <SCORE.INTRA.VDW.0>
-6.17816

>  <SCORE.INTRA.norm>
0.070365

>  <SCORE.RESTR>
8.59456

>  <SCORE.RESTR.CAVITY>
8.59456

>  <SCORE.RESTR.norm>
0.204632

>  <SCORE.SYSTEM>
0

>  <SCORE.SYSTEM.CONST>
0

>  <SCORE.SYSTEM.DIHEDRAL>
0

>  <SCORE.SYSTEM.SOLV>
0

>  <SCORE.SYSTEM.norm>
0

>  <SCORE.heavy>
42

>  <SCORE.norm>
0.164283

>  <RMSD>
18.335

$$$$
ligand
 OpenBabel02271912133D
libRbt.so/2013.1/901 2013/11/27
 42 45  0  0  0  0  0  0  0  0999 V2000
   12.0735    9.9643   -8.2539 C   0  0  2  0  0  0  0  0  0  0  0  0
   11.6056   10.4499   -9.5237 O   0  0  0  0  0  0  0  0  0  0  0  0
   13.9886    8.0815  -12.2637 C   0  0  2  0  0  0  0  0  0  0  0  0
   14.7979    7.6445  -13.4404 N   0  0  0  0  0  0  0  0  0  0  0  0
   14.1757   12.3341  -10.7433 C   0  0  1  0  0  0  0  0  0  0  0  0
   12.5723   15.3157  -13.5918 C   0  0  1  0  0  0  0  0  0  0  0  0
   10.8545    9.9801   -7.2833 C   0  0  2  0  0  0  0  0  0  0  0  0
    9.6663    9.3274   -7.8600 N   0  0  0  0  0  0  0  0  0  0  0  0
   12.5000    8.4141  -12.6825 C   0  0  0  0  0  0  0  0  0  0  0  0
   13.5636   11.9659  -12.1291 C   0  0  2  0  0  0  0  0  0  0  0  0
   14.5496   11.6884  -13.1538 O   0  0  0  0  0  0  0  0  0  0  0  0
   13.2542   16.1845  -14.7094 C   0  0  2  0  0  0  0  0  0  0  0  0
   14.5734   16.7099  -14.2460 N   0  0  0  0  0  0  0  0  0  0  0  0
   10.4332   11.4101   -6.8977 C   0  0  1  0  0  0  0  0  0  0  0  0
    9.3405   11.3757   -5.9781 O   0  0  0  0  0  0  0  0  0  0  0  0
   11.6934    8.8457  -11.3998 C   0  0  2  0  0  0  0  0  0  0  0  0
   10.2817    9.1528  -11.7553 N   0  0  0  0  0  0  0  0  0  0  0  0
   12.6629   13.1749  -12.3867 C   0  0  2  0  0  0  0  0  0  0  0  0
   13.3743   14.2323  -13.1055 O   0  0  0  0  0  0  0  0  0  0  0  0
   12.2714   17.3805  -15.1227 C   0  0  1  0  0  0  0  0  0  0  0  0
   11.1828   16.8412  -15.9055 O   0  0  0  0  0  0  0  0  0  0  0  0
   11.6462   12.1628   -6.3050 C   0  0  2  0  0  0  0  0  0  0  0  0
   11.2728   13.4687   -5.9313 O   0  0  0  0  0  0  0  0  0  0  0  0
   12.3568   10.1102  -10.7239 C   0  0  2  0  0  0  0  0  0  0  0  0
   12.1955   13.6584  -11.0036 C   0  0  2  0  0  0  0  0  0  0  0  0
   13.2899   13.3152  -10.1568 O   0  0  0  0  0  0  0  0  0  0  0  0
   11.6830   18.1676  -13.8570 C   0  0  2  0  0  0  0  0  0  0  0  0
   12.7596   18.8892  -13.2597 O   0  0  0  0  0  0  0  0  0  0  0  0
   12.7940   12.1988   -7.3684 C   0  0  2  0  0  0  0  0  0  0  0  0
   13.1569   10.8332   -7.7469 O   0  0  0  0  0  0  0  0  0  0  0  0
   13.8339    9.8771  -10.3378 C   0  0  2  0  0  0  0  0  0  0  0  0
   14.3269   11.1768   -9.9110 O   0  0  0  0  0  0  0  0  0  0  0  0
   10.8687   13.0141  -10.4949 C   0  0  0  0  0  0  0  0  0  0  0  0
   10.6462   13.4010   -9.1423 O   0  0  0  0  0  0  0  0  0  0  0  0
   11.0582   17.1614  -12.8181 C   0  0  1  0  0  0  0  0  0  0  0  0
   12.1348   16.2217  -12.4601 O   0  0  0  0  0  0  0  0  0  0  0  0
   14.0278   12.9141   -6.8684 C   0  0  0  0  0  0  0  0  0  0  0  0
   13.7345   14.2662   -6.6136 O   0  0  0  0  0  0  0  0  0  0  0  0
   14.6519    9.3491  -11.5900 C   0  0  1  0  0  0  0  0  0  0  0  0
   15.9792    8.9900  -11.1966 O   0  0  0  0  0  0  0  0  0  0  0  0
   10.4786   17.8571  -11.5109 C   0  0  0  0  0  0  0  0  0  0  0  0
    9.6671   16.9800  -10.6227 N   0  0  0  0  0  0  0  0  0  0  0  0
  1  2  1  6  0  0  0
  1  7  1  0  0  0  0
  1 30  1  0  0  0  0
  3  4  1  6  0  0  0
  3  9  1  0  0  0  0
  3 39  1  0  0  0  0
  5 10  1  0  0  0  0
  5 26  1  0  0  0  0
  5 32  1  1  0  0  0
  6 12  1  0  0  0  0
  6 36  1  0  0  0  0
  6 19  1  1  0  0  0
  7  8  1  6  0  0  0
  7 14  1  0  0  0  0
  9 16  1  0  0  0  0
 10 11  1  6  0  0  0
 10 18  1  0  0  0  0
 12 13  1  1  0  0  0
 12 20  1  0  0  0  0
 14 15  1  1  0  0  0
 14 22  1  0  0  0  0
 16 17  1  6  0  0  0
 16 24  1  0  0  0  0
 18 19  1  1  0  0  0
 18 25  1  0  0  0  0
 20 21  1  1  0  0  0
 20 27  1  0  0  0  0
 22 23  1  6  0  0  0
 22 29  1  0  0  0  0
 24  2  1  1  0  0  0
 24 31  1  0  0  0  0
 25 26  1  0  0  0  0
 25 33  1  1  0  0  0
 27 28  1  1  0  0  0
 27 35  1  0  0  0  0
 29 30  1  0  0  0  0
 29 37  1  1  0  0  0
 31 32  1  6  0  0  0
 31 39  1  0  0  0  0
 33 34  1  0  0  0  0
 35 36  1  0  0  0  0
 35 41  1  1  0  0  0
 37 38  1  0  0  0  0
 39 40  1  1  0  0  0
 41 42  1  0  0  0  0
M  END
>  <CHROM.1>
-158.27032117,96.14533836,170.10373653,-162.07281507,172.05973540,-63.51353877
-52.50431864,-5.00158649,169.47339533,12.43650661,12.75660096,-10.74101060
1.53409169,-1.13392674,2.49888174

>  <Name>
ligand

>  <RI>
0

>  <Rbt.Current_Directory>
/home/itssahil/PROJECTS/Mol_Feturizer/Test_systems_manuscript/rnas/2o3w

>  <Rbt.Executable>
rbdock ($Id: //depot/dev/client3/rdock/2013.1/src/exe/rbdock.cxx#4 $)

>  <Rbt.Library>
libRbt.so (2013.1, Build901 2013/11/27)

>  <Rbt.Parameter_File>
/export/apps/rDock/src/rDock_2013.1_src/data/scripts/dock_solv.prm

>  <Rbt.Receptor>
prm/blind_docking_100.prm

>  <SCORE>
8.96236

>  <SCORE.INTER>
1.04647

>  <SCORE.INTER.CONST>
1

>  <SCORE.INTER.POLAR>
0

>  <SCORE.INTER.ROT>
9

>  <SCORE.INTER.SOLV>
32.81

>  <SCORE.INTER.VDW>
-19.839

>  <SCORE.INTER.norm>
0.024916

>  <SCORE.INTRA>
1.01116

>  <SCORE.INTRA.DIHEDRAL>
-11.0413

>  <SCORE.INTRA.DIHEDRAL.0>
27.8999

>  <SCORE.INTRA.POLAR>
0

>  <SCORE.INTRA.POLAR.0>
0

>  <SCORE.INTRA.REPUL>
0

>  <SCORE.INTRA.REPUL.0>
0

>  <SCORE.INTRA.SOLV>
-0.173223

>  <SCORE.INTRA.SOLV.lig_0>
-104.479

>  <SCORE.INTRA.VDW>
6.61842

>  <SCORE.INTRA.VDW.0>
-6.17816

>  <SCORE.INTRA.norm>
0.0240753

>  <SCORE.RESTR>
6.90473

>  <SCORE.RESTR.CAVITY>
6.90473

>  <SCORE.RESTR.norm>
0.164398

>  <SCORE.SYSTEM>
0

>  <SCORE.SYSTEM.CONST>
0

>  <SCORE.SYSTEM.DIHEDRAL>
0

>  <SCORE.SYSTEM.SOLV>
0

>  <SCORE.SYSTEM.norm>
0

>  <SCORE.heavy>
42

>  <SCORE.norm>
0.21339

>  <RMSD>
18.348

$$$$
ligand
 OpenBabel02271912133D
libRbt.so/2013.1/901 2013/11/27
 42 45  0  0  0  0  0  0  0  0999 V2000
   12.3832   11.4050   -7.7954 C   0  0  2  0  0  0  0  0  0  0  0  0
   13.0125   11.9688   -8.9588 O   0  0  0  0  0  0  0  0  0  0  0  0
   13.8566    9.6219  -12.5049 C   0  0  2  0  0  0  0  0  0  0  0  0
   13.7394    8.9535  -13.8353 N   0  0  0  0  0  0  0  0  0  0  0  0
   11.9625   13.6500  -11.7546 C   0  0  1  0  0  0  0  0  0  0  0  0
    8.6272   16.0611  -11.2569 C   0  0  1  0  0  0  0  0  0  0  0  0
   11.5192   12.5321   -7.1542 C   0  0  2  0  0  0  0  0  0  0  0  0
   10.6482   13.2022   -8.1355 N   0  0  0  0  0  0  0  0  0  0  0  0
   12.7963    9.0500  -11.4800 C   0  0  0  0  0  0  0  0  0  0  0  0
   11.5993   15.1093  -11.3431 C   0  0  2  0  0  0  0  0  0  0  0  0
   11.0298   15.2229  -10.0157 O   0  0  0  0  0  0  0  0  0  0  0  0
    7.0588   15.9671  -11.2664 C   0  0  2  0  0  0  0  0  0  0  0  0
    6.5166   16.2349  -12.6321 N   0  0  0  0  0  0  0  0  0  0  0  0
   12.3806   13.6292   -6.5019 C   0  0  1  0  0  0  0  0  0  0  0  0
   11.5489   14.6187   -5.8937 O   0  0  0  0  0  0  0  0  0  0  0  0
   12.9838    9.7753  -10.0939 C   0  0  2  0  0  0  0  0  0  0  0  0
   12.0098    9.2503   -9.0992 N   0  0  0  0  0  0  0  0  0  0  0  0
   10.6820   15.5231  -12.4949 C   0  0  2  0  0  0  0  0  0  0  0  0
    9.2819   15.2107  -12.2066 O   0  0  0  0  0  0  0  0  0  0  0  0
    6.4609   16.9995  -10.1971 C   0  0  1  0  0  0  0  0  0  0  0  0
    6.6980   16.4848   -8.8675 O   0  0  0  0  0  0  0  0  0  0  0  0
   13.3397   12.9881   -5.4732 C   0  0  2  0  0  0  0  0  0  0  0  0
   14.1240   13.9816   -4.8548 O   0  0  0  0  0  0  0  0  0  0  0  0
   12.7918   11.3355  -10.2512 C   0  0  2  0  0  0  0  0  0  0  0  0
   11.1808   14.7565  -13.7313 C   0  0  2  0  0  0  0  0  0  0  0  0
   11.7022   13.5524  -13.1737 O   0  0  0  0  0  0  0  0  0  0  0  0
    7.0954   18.4652  -10.3254 C   0  0  2  0  0  0  0  0  0  0  0  0
    6.6266   19.0322  -11.5482 O   0  0  0  0  0  0  0  0  0  0  0  0
   14.2467   11.9424   -6.2034 C   0  0  2  0  0  0  0  0  0  0  0  0
   13.4100   10.9282   -6.8447 O   0  0  0  0  0  0  0  0  0  0  0  0
   13.7594   11.9569  -11.2822 C   0  0  2  0  0  0  0  0  0  0  0  0
   13.3235   13.3361  -11.4321 O   0  0  0  0  0  0  0  0  0  0  0  0
   12.2633   15.4996  -14.5740 C   0  0  0  0  0  0  0  0  0  0  0  0
   12.6220   14.6953  -15.6935 O   0  0  0  0  0  0  0  0  0  0  0  0
    8.6692   18.3914  -10.3267 C   0  0  1  0  0  0  0  0  0  0  0  0
    9.0365   17.5067  -11.4459 O   0  0  0  0  0  0  0  0  0  0  0  0
   15.2160   11.2588   -5.2669 C   0  0  0  0  0  0  0  0  0  0  0  0
   14.5144   10.5039   -4.3093 O   0  0  0  0  0  0  0  0  0  0  0  0
   13.6611   11.1830  -12.6632 C   0  0  1  0  0  0  0  0  0  0  0  0
   14.6617   11.6588  -13.5677 O   0  0  0  0  0  0  0  0  0  0  0  0
    9.3836   19.8033  -10.4848 C   0  0  0  0  0  0  0  0  0  0  0  0
    9.8620   20.4262   -9.2200 N   0  0  0  0  0  0  0  0  0  0  0  0
  1  2  1  6  0  0  0
  1  7  1  0  0  0  0
  1 30  1  0  0  0  0
  3  4  1  6  0  0  0
  3  9  1  0  0  0  0
  3 39  1  0  0  0  0
  5 10  1  0  0  0  0
  5 26  1  0  0  0  0
  5 32  1  6  0  0  0
  6 12  1  0  0  0  0
  6 36  1  0  0  0  0
  6 19  1  6  0  0  0
  7  8  1  6  0  0  0
  7 14  1  0  0  0  0
  9 16  1  0  0  0  0
 10 11  1  1  0  0  0
 10 18  1  0  0  0  0
 12 13  1  6  0  0  0
 12 20  1  0  0  0  0
 14 15  1  1  0  0  0
 14 22  1  0  0  0  0
 16 17  1  1  0  0  0
 16 24  1  0  0  0  0
 18 19  1  1  0  0  0
 18 25  1  0  0  0  0
 20 21  1  1  0  0  0
 20 27  1  0  0  0  0
 22 23  1  6  0  0  0
 22 29  1  0  0  0  0
 24  2  1  1  0  0  0
 24 31  1  0  0  0  0
 25 26  1  0  0  0  0
 25 33  1  1  0  0  0
 27 28  1  6  0  0  0
 27 35  1  0  0  0  0
 29 30  1  0  0  0  0
 29 37  1  1  0  0  0
 31 32  1  6  0  0  0
 31 39  1  0  0  0  0
 33 34  1  0  0  0  0
 35 36  1  0  0  0  0
 35 41  1  6  0  0  0
 37 38  1  0  0  0  0
 39 40  1  6  0  0  0
 41 42  1  0  0  0  0
M  END
>  <CHROM.1>
-122.89358786,-46.60665907,74.24438075,163.67127008,-179.12961635,63.93631800
-53.49179095,158.41303687,98.73163485,11.39858512,13.91533555,-10.13617262
0.25402857,-0.90215498,1.46984022

>  <Name>
ligand

>  <RI>
0

>  <Rbt.Current_Directory>
/home/itssahil/PROJECTS/Mol_Feturizer/Test_systems_manuscript/rnas/2o3w

>  <Rbt.Executable>
rbdock ($Id: //depot/dev/client3/rdock/2013.1/src/exe/rbdock.cxx#4 $)

>  <Rbt.Library>
libRbt.so (2013.1, Build901 2013/11/27)

>  <Rbt.Parameter_File>
/export/apps/rDock/src/rDock_2013.1_src/data/scripts/dock_solv.prm

>  <Rbt.Receptor>
prm/blind_docking_80.prm

>  <SCORE>
4.77362

>  <SCORE.INTER>
-6.02709

>  <SCORE.INTER.CONST>
1

>  <SCORE.INTER.POLAR>
0

>  <SCORE.INTER.ROT>
9

>  <SCORE.INTER.SOLV>
22.2666

>  <SCORE.INTER.VDW>
-21.0403

>  <SCORE.INTER.norm>
-0.143502

>  <SCORE.INTRA>
-1.45646

>  <SCORE.INTRA.DIHEDRAL>
-11.4418

>  <SCORE.INTRA.DIHEDRAL.0>
27.8999

>  <SCORE.INTRA.POLAR>
0

>  <SCORE.INTRA.POLAR.0>
0

>  <SCORE.INTRA.REPUL>
0.126531

>  <SCORE.INTRA.REPUL.0>
0

>  <SCORE.INTRA.SOLV>
-1.75598

>  <SCORE.INTRA.SOLV.lig_0>
-104.479

>  <SCORE.INTRA.VDW>
4.50979

>  <SCORE.INTRA.VDW.0>
-6.17816

>  <SCORE.INTRA.norm>
-0.0346775

>  <SCORE.RESTR>
12.2572

>  <SCORE.RESTR.CAVITY>
12.2572

>  <SCORE.RESTR.norm>
0.291837

>  <SCORE.SYSTEM>
0

>  <SCORE.SYSTEM.CONST>
0

>  <SCORE.SYSTEM.DIHEDRAL>
0

>  <SCORE.SYSTEM.SOLV>
0

>  <SCORE.SYSTEM.norm>
0

>  <SCORE.heavy>
42

>  <SCORE.norm>
0.113658

>  <RMSD>
18.372

$$$$
ligand
 OpenBabel02271912133D
libRbt.so/2013.1/901 2013/11/27
 42 45  0  0  0  0  0  0  0  0999 V2000
   12.5550   11.5074   -8.3693 C   0  0  2  0  0  0  0  0  0  0  0  0
   12.1619   12.8683   -8.1233 O   0  0  0  0  0  0  0  0  0  0  0  0
   10.4974   14.8970  -11.5743 C   0  0  2  0  0  0  0  0  0  0  0  0
   10.3263   15.7855  -12.7625 N   0  0  0  0  0  0  0  0  0  0  0  0
   13.3702   11.0233  -11.3311 C   0  0  1  0  0  0  0  0  0  0  0  0
   14.4349    8.6827  -12.7768 C   0  0  1  0  0  0  0  0  0  0  0  0
   11.4373   10.5969   -7.7778 C   0  0  2  0  0  0  0  0  0  0  0  0
   10.0901   11.0007   -8.2167 N   0  0  0  0  0  0  0  0  0  0  0  0
   10.6959   15.7401  -10.2509 C   0  0  0  0  0  0  0  0  0  0  0  0
   13.7019    9.8872  -10.3161 C   0  0  2  0  0  0  0  0  0  0  0  0
   15.1190    9.6258  -10.1665 O   0  0  0  0  0  0  0  0  0  0  0  0
   14.3962    8.1384  -14.2503 C   0  0  2  0  0  0  0  0  0  0  0  0
   14.7834    6.6966  -14.2967 N   0  0  0  0  0  0  0  0  0  0  0  0
   11.4262   10.6106   -6.2381 C   0  0  1  0  0  0  0  0  0  0  0  0
   10.4143    9.7337   -5.7402 O   0  0  0  0  0  0  0  0  0  0  0  0
   10.8478   14.7511   -9.0338 C   0  0  2  0  0  0  0  0  0  0  0  0
   11.0222   15.5122   -7.7673 N   0  0  0  0  0  0  0  0  0  0  0  0
   12.8716    8.7332  -10.8802 C   0  0  2  0  0  0  0  0  0  0  0  0
   13.6353    7.9427  -11.8459 O   0  0  0  0  0  0  0  0  0  0  0  0
   15.3664    9.0246  -15.1669 C   0  0  1  0  0  0  0  0  0  0  0  0
   14.7464   10.3097  -15.3973 O   0  0  0  0  0  0  0  0  0  0  0  0
   12.8242   10.2174   -5.7090 C   0  0  2  0  0  0  0  0  0  0  0  0
   12.8262   10.2089   -4.3003 O   0  0  0  0  0  0  0  0  0  0  0  0
   12.0824   13.7891   -9.2485 C   0  0  2  0  0  0  0  0  0  0  0  0
   11.6400    9.3783  -11.5380 C   0  0  2  0  0  0  0  0  0  0  0  0
   12.1356   10.6401  -11.9791 O   0  0  0  0  0  0  0  0  0  0  0  0
   16.8148    9.2374  -14.5154 C   0  0  2  0  0  0  0  0  0  0  0  0
   17.4869    7.9788  -14.5388 O   0  0  0  0  0  0  0  0  0  0  0  0
   13.8818   11.2324   -6.2574 C   0  0  2  0  0  0  0  0  0  0  0  0
   13.8538   11.2298   -7.7199 O   0  0  0  0  0  0  0  0  0  0  0  0
   11.9846   12.9718  -10.5552 C   0  0  2  0  0  0  0  0  0  0  0  0
   13.2662   12.2962  -10.6800 O   0  0  0  0  0  0  0  0  0  0  0  0
   10.4088    9.5569  -10.5964 C   0  0  0  0  0  0  0  0  0  0  0  0
   10.5152    8.6475   -9.5053 O   0  0  0  0  0  0  0  0  0  0  0  0
   16.6868    9.7598  -13.0346 C   0  0  1  0  0  0  0  0  0  0  0  0
   15.8756    8.7612  -12.3170 O   0  0  0  0  0  0  0  0  0  0  0  0
   15.2850   10.9181   -5.7925 C   0  0  0  0  0  0  0  0  0  0  0  0
   16.1158   12.0403   -5.9653 O   0  0  0  0  0  0  0  0  0  0  0  0
   11.7353   13.9368  -11.7890 C   0  0  1  0  0  0  0  0  0  0  0  0
   11.4942   13.1716  -12.9731 O   0  0  0  0  0  0  0  0  0  0  0  0
   18.0809    9.9671  -12.2983 C   0  0  0  0  0  0  0  0  0  0  0  0
   18.8465    8.7230  -12.0105 N   0  0  0  0  0  0  0  0  0  0  0  0
  1  2  1  1  0  0  0
  1  7  1  0  0  0  0
  1 30  1  0  0  0  0
  3  4  1  6  0  0  0
  3  9  1  0  0  0  0
  3 39  1  0  0  0  0
  5 10  1  0  0  0  0
  5 26  1  0  0  0  0
  5 32  1  1  0  0  0
  6 12  1  0  0  0  0
  6 36  1  0  0  0  0
  6 19  1  1  0  0  0
  7  8  1  6  0  0  0
  7 14  1  0  0  0  0
  9 16  1  0  0  0  0
 10 11  1  6  0  0  0
 10 18  1  0  0  0  0
 12 13  1  1  0  0  0
 12 20  1  0  0  0  0
 14 15  1  1  0  0  0
 14 22  1  0  0  0  0
 16 17  1  1  0  0  0
 16 24  1  0  0  0  0
 18 19  1  6  0  0  0
 18 25  1  0  0  0  0
 20 21  1  1  0  0  0
 20 27  1  0  0  0  0
 22 23  1  1  0  0  0
 22 29  1  0  0  0  0
 24  2  1  1  0  0  0
 24 31  1  0  0  0  0
 25 26  1  0  0  0  0
 25 33  1  1  0  0  0
 27 28  1  1  0  0  0
 27 35  1  0  0  0  0
 29 30  1  0  0  0  0
 29 37  1  6  0  0  0
 31 32  1  6  0  0  0
 31 39  1  0  0  0  0
 33 34  1  0  0  0  0
 35 36  1  0  0  0  0
 35 41  1  1  0  0  0
 37 38  1  0  0  0  0
 39 40  1  6  0  0  0
 41 42  1  0  0  0  0
M  END
>  <CHROM.1>
-125.18905287,142.47234375,-42.52354929,-138.33501886,-21.82097031,-162.58090494
149.75061560,-110.64645372,-67.68434175,13.29824350,10.87250616,-10.35284351
-2.40727420,0.82027869,-1.42597151

>  <Name>
ligand

>  <RI>
0

>  <Rbt.Current_Directory>
/home/itssahil/PROJECTS/Mol_Feturizer/Test_systems_manuscript/rnas/2o3w

>  <Rbt.Executable>
rbdock ($Id: //depot/dev/client3/rdock/2013.1/src/exe/rbdock.cxx#4 $)

>  <Rbt.Library>
libRbt.so (2013.1, Build901 2013/11/27)

>  <Rbt.Parameter_File>
/export/apps/rDock/src/rDock_2013.1_src/data/scripts/dock_solv.prm

>  <Rbt.Receptor>
prm/blind_docking_40.prm

>  <SCORE>
30.3295

>  <SCORE.INTER>
0.789084

>  <SCORE.INTER.CONST>
1

>  <SCORE.INTER.POLAR>
0

>  <SCORE.INTER.ROT>
9

>  <SCORE.INTER.SOLV>
27.5519

>  <SCORE.INTER.VDW>
-18.2579

>  <SCORE.INTER.norm>
0.0187877

>  <SCORE.INTRA>
11.7914

>  <SCORE.INTRA.DIHEDRAL>
6.55389

>  <SCORE.INTRA.DIHEDRAL.0>
27.8999

>  <SCORE.INTRA.POLAR>
0

>  <SCORE.INTRA.POLAR.0>
0

>  <SCORE.INTRA.REPUL>
0

>  <SCORE.INTRA.REPUL.0>
0

>  <SCORE.INTRA.SOLV>
1.54776

>  <SCORE.INTRA.SOLV.lig_0>
-104.479

>  <SCORE.INTRA.VDW>
7.74053

>  <SCORE.INTRA.VDW.0>
-6.17816

>  <SCORE.INTRA.norm>
0.280747

>  <SCORE.RESTR>
17.749

>  <SCORE.RESTR.CAVITY>
17.749

>  <SCORE.RESTR.norm>
0.422596

>  <SCORE.SYSTEM>
0

>  <SCORE.SYSTEM.CONST>
0

>  <SCORE.SYSTEM.DIHEDRAL>
0

>  <SCORE.SYSTEM.SOLV>
0

>  <SCORE.SYSTEM.norm>
0

>  <SCORE.heavy>
42

>  <SCORE.norm>
0.72213

>  <RMSD>
18.380

$$$$
ligand
 OpenBabel02271912133D
libRbt.so/2013.1/901 2013/11/27
 42 45  0  0  0  0  0  0  0  0999 V2000
   13.5344   12.1472  -11.1845 C   0  0  2  0  0  0  0  0  0  0  0  0
   13.2135   12.9663  -12.3218 O   0  0  0  0  0  0  0  0  0  0  0  0
   10.4504   16.3048  -12.4469 C   0  0  2  0  0  0  0  0  0  0  0  0
    9.2027   17.1256  -12.4447 N   0  0  0  0  0  0  0  0  0  0  0  0
   12.4748   13.8028   -8.7449 C   0  0  1  0  0  0  0  0  0  0  0  0
   14.0315   13.5599   -4.7192 C   0  0  1  0  0  0  0  0  0  0  0  0
   14.6799   11.1866  -11.6242 C   0  0  2  0  0  0  0  0  0  0  0  0
   15.7913   11.8976  -12.2799 N   0  0  0  0  0  0  0  0  0  0  0  0
   10.5067   15.3495  -13.7063 C   0  0  0  0  0  0  0  0  0  0  0  0
   11.5120   13.9525   -7.5278 C   0  0  2  0  0  0  0  0  0  0  0  0
   11.1419   15.3222   -7.2342 O   0  0  0  0  0  0  0  0  0  0  0  0
   14.9994   14.5697   -4.0035 C   0  0  2  0  0  0  0  0  0  0  0  0
   15.8324   15.3074   -4.9999 N   0  0  0  0  0  0  0  0  0  0  0  0
   14.1937   10.1122  -12.6142 C   0  0  1  0  0  0  0  0  0  0  0  0
   15.2649    9.2319  -12.9585 O   0  0  0  0  0  0  0  0  0  0  0  0
   11.8512   14.5289  -13.6646 C   0  0  2  0  0  0  0  0  0  0  0  0
   11.9444   13.6282  -14.8451 N   0  0  0  0  0  0  0  0  0  0  0  0
   12.3012   13.2309   -6.4343 C   0  0  2  0  0  0  0  0  0  0  0  0
   13.1810   14.1491   -5.7107 O   0  0  0  0  0  0  0  0  0  0  0  0
   15.9195   13.7723   -2.9621 C   0  0  1  0  0  0  0  0  0  0  0  0
   15.1166   13.3994   -1.8196 O   0  0  0  0  0  0  0  0  0  0  0  0
   13.0059    9.3406  -11.9954 C   0  0  2  0  0  0  0  0  0  0  0  0
   12.5597    8.3417  -12.8828 O   0  0  0  0  0  0  0  0  0  0  0  0
   11.9419   13.6755  -12.3382 C   0  0  2  0  0  0  0  0  0  0  0  0
   13.1075   12.1324   -7.1474 C   0  0  2  0  0  0  0  0  0  0  0  0
   13.3543   12.6983   -8.4325 O   0  0  0  0  0  0  0  0  0  0  0  0
   16.5874   12.4621   -3.5984 C   0  0  2  0  0  0  0  0  0  0  0  0
   17.5587   12.8929   -4.5509 O   0  0  0  0  0  0  0  0  0  0  0  0
   11.8535   10.3497  -11.6739 C   0  0  2  0  0  0  0  0  0  0  0  0
   12.3436   11.3810  -10.7596 O   0  0  0  0  0  0  0  0  0  0  0  0
   11.8366   14.5390  -11.0621 C   0  0  2  0  0  0  0  0  0  0  0  0
   11.7516   13.5893   -9.9642 O   0  0  0  0  0  0  0  0  0  0  0  0
   12.3808   10.7571   -7.2700 C   0  0  0  0  0  0  0  0  0  0  0  0
   11.3784   10.8429   -8.2783 O   0  0  0  0  0  0  0  0  0  0  0  0
   15.4967   11.5664   -4.2987 C   0  0  1  0  0  0  0  0  0  0  0  0
   14.8459   12.4249   -5.3036 O   0  0  0  0  0  0  0  0  0  0  0  0
   10.6483    9.6786  -11.0567 C   0  0  0  0  0  0  0  0  0  0  0  0
    9.9182    8.9906  -12.0431 O   0  0  0  0  0  0  0  0  0  0  0  0
   10.5385   15.4486  -11.1203 C   0  0  1  0  0  0  0  0  0  0  0  0
   10.5209   16.3547  -10.0139 O   0  0  0  0  0  0  0  0  0  0  0  0
   16.0792   10.2574   -4.9885 C   0  0  0  0  0  0  0  0  0  0  0  0
   17.1295    9.5379   -4.2167 N   0  0  0  0  0  0  0  0  0  0  0  0
  1  2  1  6  0  0  0
  1  7  1  0  0  0  0
  1 30  1  0  0  0  0
  3  4  1  1  0  0  0
  3  9  1  0  0  0  0
  3 39  1  0  0  0  0
  5 10  1  0  0  0  0
  5 26  1  0  0  0  0
  5 32  1  6  0  0  0
  6 12  1  0  0  0  0
  6 36  1  0  0  0  0
  6 19  1  6  0  0  0
  7  8  1  6  0  0  0
  7 14  1  0  0  0  0
  9 16  1  0  0  0  0
 10 11  1  1  0  0  0
 10 18  1  0  0  0  0
 12 13  1  6  0  0  0
 12 20  1  0  0  0  0
 14 15  1  1  0  0  0
 14 22  1  0  0  0  0
 16 17  1  6  0  0  0
 16 24  1  0  0  0  0
 18 19  1  6  0  0  0
 18 25  1  0  0  0  0
 20 21  1  1  0  0  0
 20 27  1  0  0  0  0
 22 23  1  6  0  0  0
 22 29  1  0  0  0  0
 24  2  1  1  0  0  0
 24 31  1  0  0  0  0
 25 26  1  0  0  0  0
 25 33  1  6  0  0  0
 27 28  1  6  0  0  0
 27 35  1  0  0  0  0
 29 30  1  0  0  0  0
 29 37  1  1  0  0  0
 31 32  1  1  0  0  0
 31 39  1  0  0  0  0
 33 34  1  0  0  0  0
 35 36  1  0  0  0  0
 35 41  1  6  0  0  0
 37 38  1  0  0  0  0
 39 40  1  1  0  0  0
 41 42  1  0  0  0  0
M  END
>  <CHROM.1>
162.25835147,178.36425477,-176.13313675,177.76963790,74.89395363,-75.98768242
138.18266589,117.95436611,41.22232380,13.13514062,12.65962797,-8.97288940
-2.36583666,-0.97086083,0.86319068

>  <Name>
ligand

>  <RI>
0

>  <Rbt.Current_Directory>
/home/itssahil/PROJECTS/Mol_Feturizer/Test_systems_manuscript/rnas/2o3w

>  <Rbt.Executable>
rbdock ($Id: //depot/dev/client3/rdock/2013.1/src/exe/rbdock.cxx#4 $)

>  <Rbt.Library>
libRbt.so (2013.1, Build901 2013/11/27)

>  <Rbt.Parameter_File>
/export/apps/rDock/src/rDock_2013.1_src/data/scripts/dock_solv.prm

>  <Rbt.Receptor>
prm/blind_docking_100.prm

>  <SCORE>
1.01527

>  <SCORE.INTER>
-7.43658

>  <SCORE.INTER.CONST>
1

>  <SCORE.INTER.POLAR>
0

>  <SCORE.INTER.ROT>
9

>  <SCORE.INTER.SOLV>
28.7044

>  <SCORE.INTER.VDW>
-24.1259

>  <SCORE.INTER.norm>
-0.177061

>  <SCORE.INTRA>
-2.21541

>  <SCORE.INTRA.DIHEDRAL>
-10.5659

>  <SCORE.INTRA.DIHEDRAL.0>
27.8999

>  <SCORE.INTRA.POLAR>
0

>  <SCORE.INTRA.POLAR.0>
0

>  <SCORE.INTRA.REPUL>
0.0397688

>  <SCORE.INTRA.REPUL.0>
0

>  <SCORE.INTRA.SOLV>
-3.28616

>  <SCORE.INTRA.SOLV.lig_0>
-104.479

>  <SCORE.INTRA.VDW>
4.51175

>  <SCORE.INTRA.VDW.0>
-6.17816

>  <SCORE.INTRA.norm>
-0.0527479

>  <SCORE.RESTR>
10.6673

>  <SCORE.RESTR.CAVITY>
10.6673

>  <SCORE.RESTR.norm>
0.253982

>  <SCORE.SYSTEM>
0

>  <SCORE.SYSTEM.CONST>
0

>  <SCORE.SYSTEM.DIHEDRAL>
0

>  <SCORE.SYSTEM.SOLV>
0

>  <SCORE.SYSTEM.norm>
0

>  <SCORE.heavy>
42

>  <SCORE.norm>
0.024173

>  <RMSD>
18.381

$$$$
ligand
 OpenBabel02271912133D
libRbt.so/2013.1/901 2013/11/27
 42 45  0  0  0  0  0  0  0  0999 V2000
   12.8301   12.2286   -6.7873 C   0  0  2  0  0  0  0  0  0  0  0  0
   13.3996   12.4897   -8.0814 O   0  0  0  0  0  0  0  0  0  0  0  0
   13.4791    9.4253  -11.1472 C   0  0  2  0  0  0  0  0  0  0  0  0
   13.1251    8.5680  -12.3177 N   0  0  0  0  0  0  0  0  0  0  0  0
   12.5172   13.7613  -11.3377 C   0  0  1  0  0  0  0  0  0  0  0  0
   10.6881   15.5141  -12.9417 C   0  0  1  0  0  0  0  0  0  0  0  0
   12.9582   13.5429   -5.9601 C   0  0  2  0  0  0  0  0  0  0  0  0
   12.4603   14.7205   -6.6921 N   0  0  0  0  0  0  0  0  0  0  0  0
   12.4193    9.2732   -9.9829 C   0  0  0  0  0  0  0  0  0  0  0  0
   12.3997   13.4030  -12.8504 C   0  0  2  0  0  0  0  0  0  0  0  0
   12.8755   14.4421  -13.7409 O   0  0  0  0  0  0  0  0  0  0  0  0
    9.8963   16.3079  -11.8410 C   0  0  2  0  0  0  0  0  0  0  0  0
    8.4707   16.4997  -12.2433 N   0  0  0  0  0  0  0  0  0  0  0  0
   14.4159   13.8467   -5.5679 C   0  0  1  0  0  0  0  0  0  0  0  0
   14.4812   15.0359   -4.7790 O   0  0  0  0  0  0  0  0  0  0  0  0
   12.8576   10.1810   -8.7721 C   0  0  2  0  0  0  0  0  0  0  0  0
   11.8886   10.0511   -7.6506 N   0  0  0  0  0  0  0  0  0  0  0  0
   10.9119   13.0660  -12.9611 C   0  0  2  0  0  0  0  0  0  0  0  0
   10.1158   14.2480  -13.2925 O   0  0  0  0  0  0  0  0  0  0  0  0
   10.6161   17.7159  -11.5838 C   0  0  1  0  0  0  0  0  0  0  0  0
   11.8378   17.4882  -10.8460 O   0  0  0  0  0  0  0  0  0  0  0  0
   15.0099   12.6355   -4.8133 C   0  0  2  0  0  0  0  0  0  0  0  0
   16.3392   12.9043   -4.4324 O   0  0  0  0  0  0  0  0  0  0  0  0
   12.9542   11.6939   -9.2166 C   0  0  2  0  0  0  0  0  0  0  0  0
   10.5056   12.4851  -11.5963 C   0  0  2  0  0  0  0  0  0  0  0  0
   11.3731   13.1605  -10.6888 O   0  0  0  0  0  0  0  0  0  0  0  0
   10.9478   18.5019  -12.9402 C   0  0  2  0  0  0  0  0  0  0  0  0
    9.7084   18.9252  -13.5070 O   0  0  0  0  0  0  0  0  0  0  0  0
   14.9438   11.3750   -5.7386 C   0  0  2  0  0  0  0  0  0  0  0  0
   13.5565   11.1226   -6.1278 O   0  0  0  0  0  0  0  0  0  0  0  0
   13.9322   11.9115  -10.3920 C   0  0  2  0  0  0  0  0  0  0  0  0
   13.7564   13.3010  -10.7830 O   0  0  0  0  0  0  0  0  0  0  0  0
   10.6550   10.9373  -11.4689 C   0  0  0  0  0  0  0  0  0  0  0  0
   10.1245   10.3159  -12.6356 O   0  0  0  0  0  0  0  0  0  0  0  0
   11.7183   17.5688  -13.9491 C   0  0  1  0  0  0  0  0  0  0  0  0
   10.8542   16.3949  -14.1623 O   0  0  0  0  0  0  0  0  0  0  0  0
   15.5008   10.1367   -5.0751 C   0  0  0  0  0  0  0  0  0  0  0  0
   14.8419    9.9028   -3.8543 O   0  0  0  0  0  0  0  0  0  0  0  0
   13.5724   10.9397  -11.5927 C   0  0  1  0  0  0  0  0  0  0  0  0
   14.5656   11.0329  -12.6176 O   0  0  0  0  0  0  0  0  0  0  0  0
   12.0589   18.2604  -15.3399 C   0  0  0  0  0  0  0  0  0  0  0  0
   12.9706   17.4930  -16.2324 N   0  0  0  0  0  0  0  0  0  0  0  0
  1  2  1  6  0  0  0
  1  7  1  0  0  0  0
  1 30  1  0  0  0  0
  3  4  1  6  0  0  0
  3  9  1  0  0  0  0
  3 39  1  0  0  0  0
  5 10  1  0  0  0  0
  5 26  1  0  0  0  0
  5 32  1  1  0  0  0
  6 12  1  0  0  0  0
  6 36  1  0  0  0  0
  6 19  1  6  0  0  0
  7  8  1  6  0  0  0
  7 14  1  0  0  0  0
  9 16  1  0  0  0  0
 10 11  1  6  0  0  0
 10 18  1  0  0  0  0
 12 13  1  6  0  0  0
 12 20  1  0  0  0  0
 14 15  1  1  0  0  0
 14 22  1  0  0  0  0
 16 17  1  1  0  0  0
 16 24  1  0  0  0  0
 18 19  1  1  0  0  0
 18 25  1  0  0  0  0
 20 21  1  6  0  0  0
 20 27  1  0  0  0  0
 22 23  1  6  0  0  0
 22 29  1  0  0  0  0
 24  2  1  1  0  0  0
 24 31  1  0  0  0  0
 25 26  1  0  0  0  0
 25 33  1  6  0  0  0
 27 28  1  6  0  0  0
 27 35  1  0  0  0  0
 29 30  1  0  0  0  0
 29 37  1  1  0  0  0
 31 32  1  6  0  0  0
 31 39  1  0  0  0  0
 33 34  1  0  0  0  0
 35 36  1  0  0  0  0
 35 41  1  6  0  0  0
 37 38  1  0  0  0  0
 39 40  1  6  0  0  0
 41 42  1  0  0  0  0
M  END
>  <CHROM.1>
-154.93596252,-43.00773629,-23.90650663,-114.62627042,-45.20415980,55.39901528
-65.48314596,-79.98519201,170.61412592,12.49909742,13.40809108,-10.19548858
-0.22406577,-1.21515719,0.35192676

>  <Name>
ligand

>  <RI>
0

>  <Rbt.Current_Directory>
/home/itssahil/PROJECTS/Mol_Feturizer/Test_systems_manuscript/rnas/2o3w

>  <Rbt.Executable>
rbdock ($Id: //depot/dev/client3/rdock/2013.1/src/exe/rbdock.cxx#4 $)

>  <Rbt.Library>
libRbt.so (2013.1, Build901 2013/11/27)

>  <Rbt.Parameter_File>
/export/apps/rDock/src/rDock_2013.1_src/data/scripts/dock_solv.prm

>  <Rbt.Receptor>
prm/blind_docking_100.prm

>  <SCORE>
15.3968

>  <SCORE.INTER>
2.09778

>  <SCORE.INTER.CONST>
1

>  <SCORE.INTER.POLAR>
0

>  <SCORE.INTER.ROT>
9

>  <SCORE.INTER.SOLV>
33.0799

>  <SCORE.INTER.VDW>
-19.2281

>  <SCORE.INTER.norm>
0.0499472

>  <SCORE.INTRA>
7.20072

>  <SCORE.INTRA.DIHEDRAL>
-9.03226

>  <SCORE.INTRA.DIHEDRAL.0>
27.8999

>  <SCORE.INTRA.POLAR>
0

>  <SCORE.INTRA.POLAR.0>
0

>  <SCORE.INTRA.REPUL>
0

>  <SCORE.INTRA.REPUL.0>
0

>  <SCORE.INTRA.SOLV>
1.05267

>  <SCORE.INTRA.SOLV.lig_0>
-104.479

>  <SCORE.INTRA.VDW>
11.1905

>  <SCORE.INTRA.VDW.0>
-6.17816

>  <SCORE.INTRA.norm>
0.171446

>  <SCORE.RESTR>
6.09834

>  <SCORE.RESTR.CAVITY>
6.09834

>  <SCORE.RESTR.norm>
0.145199

>  <SCORE.SYSTEM>
0

>  <SCORE.SYSTEM.CONST>
0

>  <SCORE.SYSTEM.DIHEDRAL>
0

>  <SCORE.SYSTEM.SOLV>
0

>  <SCORE.SYSTEM.norm>
0

>  <SCORE.heavy>
42

>  <SCORE.norm>
0.366592

>  <RMSD>
18.385

$$$$
ligand
 OpenBabel02271912133D
libRbt.so/2013.1/901 2013/11/27
 42 45  0  0  0  0  0  0  0  0999 V2000
   11.6125   13.2514   -7.0682 C   0  0  2  0  0  0  0  0  0  0  0  0
   12.1878   13.2573   -8.3859 O   0  0  0  0  0  0  0  0  0  0  0  0
    9.9317   15.6377  -11.2213 C   0  0  2  0  0  0  0  0  0  0  0  0
    9.5234   16.7058  -12.1819 N   0  0  0  0  0  0  0  0  0  0  0  0
   13.4739   12.0033  -11.1019 C   0  0  1  0  0  0  0  0  0  0  0  0
   14.4920    8.9288  -11.5846 C   0  0  1  0  0  0  0  0  0  0  0  0
   12.7846   13.4417   -6.0591 C   0  0  2  0  0  0  0  0  0  0  0  0
   13.6532   14.5782   -6.4119 N   0  0  0  0  0  0  0  0  0  0  0  0
   10.1286   16.2209   -9.7642 C   0  0  0  0  0  0  0  0  0  0  0  0
   13.0051   11.2625   -9.8126 C   0  0  2  0  0  0  0  0  0  0  0  0
   14.0033   11.2163   -8.7635 O   0  0  0  0  0  0  0  0  0  0  0  0
   15.4985    7.7252  -11.6694 C   0  0  2  0  0  0  0  0  0  0  0  0
   16.3902    7.6901  -10.4717 N   0  0  0  0  0  0  0  0  0  0  0  0
   13.6902   12.1993   -5.9743 C   0  0  1  0  0  0  0  0  0  0  0  0
   14.7251   12.4030   -5.0108 O   0  0  0  0  0  0  0  0  0  0  0  0
   10.5352   15.0468   -8.7954 C   0  0  2  0  0  0  0  0  0  0  0  0
   10.7149   15.5581   -7.4098 N   0  0  0  0  0  0  0  0  0  0  0  0
   12.5828    9.9084  -10.3850 C   0  0  2  0  0  0  0  0  0  0  0  0
   13.6950    8.9577  -10.3941 O   0  0  0  0  0  0  0  0  0  0  0  0
   16.3527    7.8444  -13.0196 C   0  0  1  0  0  0  0  0  0  0  0  0
   15.5078    7.4960  -14.1393 O   0  0  0  0  0  0  0  0  0  0  0  0
   12.8339   10.9596   -5.6293 C   0  0  2  0  0  0  0  0  0  0  0  0
   13.6509    9.8163   -5.5315 O   0  0  0  0  0  0  0  0  0  0  0  0
   11.8709   14.3588   -9.2839 C   0  0  2  0  0  0  0  0  0  0  0  0
   12.0779   10.1890  -11.8104 C   0  0  2  0  0  0  0  0  0  0  0  0
   12.8601   11.3108  -12.2131 O   0  0  0  0  0  0  0  0  0  0  0  0
   16.9615    9.3096  -13.2432 C   0  0  2  0  0  0  0  0  0  0  0  0
   17.9739    9.5106  -12.2577 O   0  0  0  0  0  0  0  0  0  0  0  0
   11.7442   10.7677   -6.7363 C   0  0  2  0  0  0  0  0  0  0  0  0
   10.9160   11.9702   -6.8250 O   0  0  0  0  0  0  0  0  0  0  0  0
   11.7710   13.8135  -10.7254 C   0  0  2  0  0  0  0  0  0  0  0  0
   13.1198   13.3920  -11.0686 O   0  0  0  0  0  0  0  0  0  0  0  0
   10.5529   10.5000  -11.9191 C   0  0  0  0  0  0  0  0  0  0  0  0
   10.2238   11.5589  -11.0250 O   0  0  0  0  0  0  0  0  0  0  0  0
   15.8385   10.4056  -13.1025 C   0  0  1  0  0  0  0  0  0  0  0  0
   15.2556   10.2245  -11.7617 O   0  0  0  0  0  0  0  0  0  0  0  0
   10.8529    9.5757   -6.4744 C   0  0  0  0  0  0  0  0  0  0  0  0
    9.6399    9.9947   -5.8980 O   0  0  0  0  0  0  0  0  0  0  0  0
   11.2703   14.9520  -11.7096 C   0  0  1  0  0  0  0  0  0  0  0  0
   11.0332   14.4096  -13.0116 O   0  0  0  0  0  0  0  0  0  0  0  0
   16.3631   11.8965  -13.2769 C   0  0  0  0  0  0  0  0  0  0  0  0
   15.3402   12.8920  -13.7003 N   0  0  0  0  0  0  0  0  0  0  0  0
  1  2  1  6  0  0  0
  1  7  1  0  0  0  0
  1 30  1  0  0  0  0
  3  4  1  6  0  0  0
  3  9  1  0  0  0  0
  3 39  1  0  0  0  0
  5 10  1  0  0  0  0
  5 26  1  0  0  0  0
  5 32  1  1  0  0  0
  6 12  1  0  0  0  0
  6 36  1  0  0  0  0
  6 19  1  1  0  0  0
  7  8  1  6  0  0  0
  7 14  1  0  0  0  0
  9 16  1  0  0  0  0
 10 11  1  1  0  0  0
 10 18  1  0  0  0  0
 12 13  1  1  0  0  0
 12 20  1  0  0  0  0
 14 15  1  1  0  0  0
 14 22  1  0  0  0  0
 16 17  1  1  0  0  0
 16 24  1  0  0  0  0
 18 19  1  6  0  0  0
 18 25  1  0  0  0  0
 20 21  1  6  0  0  0
 20 27  1  0  0  0  0
 22 23  1  6  0  0  0
 22 29  1  0  0  0  0
 24  2  1  1  0  0  0
 24 31  1  0  0  0  0
 25 26  1  0  0  0  0
 25 33  1  1  0  0  0
 27 28  1  1  0  0  0
 27 35  1  0  0  0  0
 29 30  1  0  0  0  0
 29 37  1  1  0  0  0
 31 32  1  6  0  0  0
 31 39  1  0  0  0  0
 33 34  1  0  0  0  0
 35 36  1  0  0  0  0
 35 41  1  1  0  0  0
 37 38  1  0  0  0  0
 39 40  1  6  0  0  0
 41 42  1  0  0  0  0
M  END
>  <CHROM.1>
-113.18946291,-20.88562126,-90.89382475,-169.11500325,53.45315535,99.39110591
104.88540656,-48.77443841,156.18590779,13.02195387,11.71370874,-9.91506862
-2.73592996,0.90191081,-1.26921520

>  <Name>
ligand

>  <RI>
0

>  <Rbt.Current_Directory>
/home/itssahil/PROJECTS/Mol_Feturizer/Test_systems_manuscript/rnas/2o3w

>  <Rbt.Executable>
rbdock ($Id: //depot/dev/client3/rdock/2013.1/src/exe/rbdock.cxx#4 $)

>  <Rbt.Library>
libRbt.so (2013.1, Build901 2013/11/27)

>  <Rbt.Parameter_File>
/export/apps/rDock/src/rDock_2013.1_src/data/scripts/dock_solv.prm

>  <Rbt.Receptor>
prm/blind_docking_80.prm

>  <SCORE>
14.3475

>  <SCORE.INTER>
-2.92623

>  <SCORE.INTER.CONST>
1

>  <SCORE.INTER.POLAR>
0

>  <SCORE.INTER.ROT>
9

>  <SCORE.INTER.SOLV>
37.9468

>  <SCORE.INTER.VDW>
-24.1998

>  <SCORE.INTER.norm>
-0.0696721

>  <SCORE.INTRA>
9.25159

>  <SCORE.INTRA.DIHEDRAL>
1.30891

>  <SCORE.INTRA.DIHEDRAL.0>
27.8999

>  <SCORE.INTRA.POLAR>
0

>  <SCORE.INTRA.POLAR.0>
0

>  <SCORE.INTRA.REPUL>
0

>  <SCORE.INTRA.REPUL.0>
0

>  <SCORE.INTRA.SOLV>
3.74271

>  <SCORE.INTRA.SOLV.lig_0>
-104.479

>  <SCORE.INTRA.VDW>
6.72578

>  <SCORE.INTRA.VDW.0>
-6.17816

>  <SCORE.INTRA.norm>
0.220276

>  <SCORE.RESTR>
8.02211

>  <SCORE.RESTR.CAVITY>
8.02211

>  <SCORE.RESTR.norm>
0.191003

>  <SCORE.SYSTEM>
0

>  <SCORE.SYSTEM.CONST>
0

>  <SCORE.SYSTEM.DIHEDRAL>
0

>  <SCORE.SYSTEM.SOLV>
0

>  <SCORE.SYSTEM.norm>
0

>  <SCORE.heavy>
42

>  <SCORE.norm>
0.341606

>  <RMSD>
18.388

$$$$
ligand
 OpenBabel02271912133D
libRbt.so/2013.1/901 2013/11/27
 42 45  0  0  0  0  0  0  0  0999 V2000
   12.3860   11.4563   -7.7554 C   0  0  2  0  0  0  0  0  0  0  0  0
   13.3235   11.6683   -8.8248 O   0  0  0  0  0  0  0  0  0  0  0  0
   13.9262    8.9284  -12.1301 C   0  0  2  0  0  0  0  0  0  0  0  0
   13.7866    8.2098  -13.4319 N   0  0  0  0  0  0  0  0  0  0  0  0
   13.0744   13.3136  -11.9459 C   0  0  1  0  0  0  0  0  0  0  0  0
   10.8357   15.0550  -13.0500 C   0  0  1  0  0  0  0  0  0  0  0  0
   11.7036   12.8278   -7.4699 C   0  0  2  0  0  0  0  0  0  0  0  0
   11.1970   13.4712   -8.6946 N   0  0  0  0  0  0  0  0  0  0  0  0
   12.6570    8.7059  -11.2128 C   0  0  0  0  0  0  0  0  0  0  0  0
   13.0524   12.9986  -13.4727 C   0  0  2  0  0  0  0  0  0  0  0  0
   13.6908   14.0086  -14.2921 O   0  0  0  0  0  0  0  0  0  0  0  0
    9.7379   14.8026  -11.9546 C   0  0  2  0  0  0  0  0  0  0  0  0
    8.3895   14.6440  -12.5773 N   0  0  0  0  0  0  0  0  0  0  0  0
   12.6639   13.8311   -6.8050 C   0  0  1  0  0  0  0  0  0  0  0  0
   11.9867   15.0577   -6.5259 O   0  0  0  0  0  0  0  0  0  0  0  0
   12.8726    9.4669   -9.8501 C   0  0  2  0  0  0  0  0  0  0  0  0
   11.7012    9.2668   -8.9548 N   0  0  0  0  0  0  0  0  0  0  0  0
   11.5551   12.7998  -13.7134 C   0  0  2  0  0  0  0  0  0  0  0  0
   10.8970   14.0555  -14.0751 O   0  0  0  0  0  0  0  0  0  0  0  0
    9.7487   16.0141  -10.9062 C   0  0  1  0  0  0  0  0  0  0  0  0
   10.9195   15.8953  -10.0671 O   0  0  0  0  0  0  0  0  0  0  0  0
   13.2531   13.2066   -5.5196 C   0  0  2  0  0  0  0  0  0  0  0  0
   14.1219   14.1193   -4.8898 O   0  0  0  0  0  0  0  0  0  0  0  0
   13.0889   11.0113  -10.1029 C   0  0  2  0  0  0  0  0  0  0  0  0
   10.9865   12.2300  -12.4029 C   0  0  2  0  0  0  0  0  0  0  0  0
   11.8315   12.8054  -11.4093 O   0  0  0  0  0  0  0  0  0  0  0  0
    9.7414   17.4508  -11.6157 C   0  0  2  0  0  0  0  0  0  0  0  0
    8.4624   17.6243  -12.2244 O   0  0  0  0  0  0  0  0  0  0  0  0
   14.0111   11.8893   -5.8932 C   0  0  2  0  0  0  0  0  0  0  0  0
   13.0915   10.9629   -6.5535 O   0  0  0  0  0  0  0  0  0  0  0  0
   14.2815   11.3036  -11.0396 C   0  0  2  0  0  0  0  0  0  0  0  0
   14.2174   12.7318  -11.3055 O   0  0  0  0  0  0  0  0  0  0  0  0
   10.9874   10.6727  -12.3072 C   0  0  0  0  0  0  0  0  0  0  0  0
   10.1221   10.1395  -13.3051 O   0  0  0  0  0  0  0  0  0  0  0  0
   10.8789   17.5399  -12.7021 C   0  0  1  0  0  0  0  0  0  0  0  0
   10.6335   16.4335  -13.6433 O   0  0  0  0  0  0  0  0  0  0  0  0
   14.6166   11.2054   -4.6892 C   0  0  0  0  0  0  0  0  0  0  0  0
   15.4001   10.1103   -5.0967 O   0  0  0  0  0  0  0  0  0  0  0  0
   14.1394   10.4745  -12.3843 C   0  0  1  0  0  0  0  0  0  0  0  0
   15.3148   10.6273  -13.1847 O   0  0  0  0  0  0  0  0  0  0  0  0
   10.9227   18.9252  -13.4817 C   0  0  0  0  0  0  0  0  0  0  0  0
   11.9963   19.0523  -14.5054 N   0  0  0  0  0  0  0  0  0  0  0  0
  1  2  1  6  0  0  0
  1  7  1  0  0  0  0
  1 30  1  0  0  0  0
  3  4  1  6  0  0  0
  3  9  1  0  0  0  0
  3 39  1  0  0  0  0
  5 10  1  0  0  0  0
  5 26  1  0  0  0  0
  5 32  1  1  0  0  0
  6 12  1  0  0  0  0
  6 36  1  0  0  0  0
  6 19  1  6  0  0  0
  7  8  1  6  0  0  0
  7 14  1  0  0  0  0
  9 16  1  0  0  0  0
 10 11  1  6  0  0  0
 10 18  1  0  0  0  0
 12 13  1  6  0  0  0
 12 20  1  0  0  0  0
 14 15  1  1  0  0  0
 14 22  1  0  0  0  0
 16 17  1  1  0  0  0
 16 24  1  0  0  0  0
 18 19  1  1  0  0  0
 18 25  1  0  0  0  0
 20 21  1  6  0  0  0
 20 27  1  0  0  0  0
 22 23  1  6  0  0  0
 22 29  1  0  0  0  0
 24  2  1  1  0  0  0
 24 31  1  0  0  0  0
 25 26  1  0  0  0  0
 25 33  1  6  0  0  0
 27 28  1  6  0  0  0
 27 35  1  0  0  0  0
 29 30  1  0  0  0  0
 29 37  1  1  0  0  0
 31 32  1  6  0  0  0
 31 39  1  0  0  0  0
 33 34  1  0  0  0  0
 35 36  1  0  0  0  0
 35 41  1  6  0  0  0
 37 38  1  0  0  0  0
 39 40  1  6  0  0  0
 41 42  1  0  0  0  0
M  END
>  <CHROM.1>
-114.43892681,-52.26894511,-67.19538833,-77.28031038,-64.16462206,-173.83754284
-60.80300932,-74.88846592,179.28074385,12.20591946,13.03799683,-10.60903654
0.39979702,-1.15670829,1.15829254

>  <Name>
ligand

>  <RI>
0

>  <Rbt.Current_Directory>
/home/itssahil/PROJECTS/Mol_Feturizer/Test_systems_manuscript/rnas/2o3w

>  <Rbt.Executable>
rbdock ($Id: //depot/dev/client3/rdock/2013.1/src/exe/rbdock.cxx#4 $)

>  <Rbt.Library>
libRbt.so (2013.1, Build901 2013/11/27)

>  <Rbt.Parameter_File>
/export/apps/rDock/src/rDock_2013.1_src/data/scripts/dock_solv.prm

>  <Rbt.Receptor>
prm/blind_docking_40.prm

>  <SCORE>
6.21831

>  <SCORE.INTER>
-6.39593

>  <SCORE.INTER.CONST>
1

>  <SCORE.INTER.POLAR>
0

>  <SCORE.INTER.ROT>
9

>  <SCORE.INTER.SOLV>
24.6816

>  <SCORE.INTER.VDW>
-22.0912

>  <SCORE.INTER.norm>
-0.152284

>  <SCORE.INTRA>
2.23075

>  <SCORE.INTRA.DIHEDRAL>
-17.558

>  <SCORE.INTRA.DIHEDRAL.0>
27.8999

>  <SCORE.INTRA.POLAR>
0

>  <SCORE.INTRA.POLAR.0>
0

>  <SCORE.INTRA.REPUL>
0.252359

>  <SCORE.INTRA.REPUL.0>
0

>  <SCORE.INTRA.SOLV>
3.88507

>  <SCORE.INTRA.SOLV.lig_0>
-104.479

>  <SCORE.INTRA.VDW>
7.80544

>  <SCORE.INTRA.VDW.0>
-6.17816

>  <SCORE.INTRA.norm>
0.0531132

>  <SCORE.RESTR>
10.3835

>  <SCORE.RESTR.CAVITY>
10.3835

>  <SCORE.RESTR.norm>
0.247226

>  <SCORE.SYSTEM>
0

>  <SCORE.SYSTEM.CONST>
0

>  <SCORE.SYSTEM.DIHEDRAL>
0

>  <SCORE.SYSTEM.SOLV>
0

>  <SCORE.SYSTEM.norm>
0

>  <SCORE.heavy>
42

>  <SCORE.norm>
0.148055

>  <RMSD>
18.392

$$$$
ligand
 OpenBabel02271912133D
libRbt.so/2013.1/901 2013/11/27
 42 45  0  0  0  0  0  0  0  0999 V2000
   12.0008   10.1988   -8.2446 C   0  0  2  0  0  0  0  0  0  0  0  0
   11.4058   10.4859   -9.5216 O   0  0  0  0  0  0  0  0  0  0  0  0
   14.4897    8.8126  -12.0683 C   0  0  2  0  0  0  0  0  0  0  0  0
   15.3622    8.5085  -13.2416 N   0  0  0  0  0  0  0  0  0  0  0  0
   12.9330   12.9717  -11.4820 C   0  0  1  0  0  0  0  0  0  0  0  0
   10.9224   15.5766  -13.8958 C   0  0  1  0  0  0  0  0  0  0  0  0
   10.8446   10.1691   -7.2003 C   0  0  2  0  0  0  0  0  0  0  0  0
    9.7201    9.3188   -7.6282 N   0  0  0  0  0  0  0  0  0  0  0  0
   12.9955    8.3667  -12.3332 C   0  0  0  0  0  0  0  0  0  0  0  0
   11.4765   12.5224  -11.8101 C   0  0  2  0  0  0  0  0  0  0  0  0
   11.3903   11.5138  -12.8466 O   0  0  0  0  0  0  0  0  0  0  0  0
   12.3388   16.1696  -14.2289 C   0  0  2  0  0  0  0  0  0  0  0  0
   13.2954   15.9280  -13.1076 N   0  0  0  0  0  0  0  0  0  0  0  0
   10.2651   11.5699   -6.9301 C   0  0  1  0  0  0  0  0  0  0  0  0
    9.2377   11.5006   -5.9399 O   0  0  0  0  0  0  0  0  0  0  0  0
   12.1319    8.6917  -11.0560 C   0  0  2  0  0  0  0  0  0  0  0  0
   10.7202    8.2710  -11.2651 N   0  0  0  0  0  0  0  0  0  0  0  0
   10.8179   13.8640  -12.1352 C   0  0  2  0  0  0  0  0  0  0  0  0
   10.9225   14.1837  -13.5591 O   0  0  0  0  0  0  0  0  0  0  0  0
   12.1972   17.7354  -14.5374 C   0  0  1  0  0  0  0  0  0  0  0  0
   11.5847   17.9023  -15.8358 O   0  0  0  0  0  0  0  0  0  0  0  0
   11.4022   12.5236   -6.4978 C   0  0  2  0  0  0  0  0  0  0  0  0
   10.8854   13.8065   -6.2304 O   0  0  0  0  0  0  0  0  0  0  0  0
   12.1818   10.2363  -10.7282 C   0  0  2  0  0  0  0  0  0  0  0  0
   11.5424   14.9122  -11.2740 C   0  0  2  0  0  0  0  0  0  0  0  0
   12.8601   14.3798  -11.1612 O   0  0  0  0  0  0  0  0  0  0  0  0
   11.3330   18.5112  -13.4334 C   0  0  2  0  0  0  0  0  0  0  0  0
   12.0960   18.5355  -12.2277 O   0  0  0  0  0  0  0  0  0  0  0  0
   12.4761   12.5859   -7.6347 C   0  0  2  0  0  0  0  0  0  0  0  0
   12.9899   11.2422   -7.9002 O   0  0  0  0  0  0  0  0  0  0  0  0
   13.6198   10.7566  -10.5123 C   0  0  2  0  0  0  0  0  0  0  0  0
   13.4919   12.2015  -10.4099 O   0  0  0  0  0  0  0  0  0  0  0  0
   10.9136   15.1568   -9.8672 C   0  0  0  0  0  0  0  0  0  0  0  0
    9.6522   15.8003  -10.0213 O   0  0  0  0  0  0  0  0  0  0  0  0
    9.9564   17.7836  -13.1929 C   0  0  1  0  0  0  0  0  0  0  0  0
   10.2867   16.4033  -12.7978 O   0  0  0  0  0  0  0  0  0  0  0  0
   13.6334   13.4953   -7.2921 C   0  0  0  0  0  0  0  0  0  0  0  0
   14.3046   13.0173   -6.1518 O   0  0  0  0  0  0  0  0  0  0  0  0
   14.5379   10.3594  -11.7431 C   0  0  1  0  0  0  0  0  0  0  0  0
   15.8992   10.7072  -11.4758 O   0  0  0  0  0  0  0  0  0  0  0  0
    9.0462   18.4698  -12.0842 C   0  0  0  0  0  0  0  0  0  0  0  0
    7.8630   17.6798  -11.6455 N   0  0  0  0  0  0  0  0  0  0  0  0
  1  2  1  6  0  0  0
  1  7  1  0  0  0  0
  1 30  1  0  0  0  0
  3  4  1  6  0  0  0
  3  9  1  0  0  0  0
  3 39  1  0  0  0  0
  5 10  1  0  0  0  0
  5 26  1  0  0  0  0
  5 32  1  1  0  0  0
  6 12  1  0  0  0  0
  6 36  1  0  0  0  0
  6 19  1  1  0  0  0
  7  8  1  6  0  0  0
  7 14  1  0  0  0  0
  9 16  1  0  0  0  0
 10 11  1  6  0  0  0
 10 18  1  0  0  0  0
 12 13  1  1  0  0  0
 12 20  1  0  0  0  0
 14 15  1  1  0  0  0
 14 22  1  0  0  0  0
 16 17  1  6  0  0  0
 16 24  1  0  0  0  0
 18 19  1  6  0  0  0
 18 25  1  0  0  0  0
 20 21  1  6  0  0  0
 20 27  1  0  0  0  0
 22 23  1  6  0  0  0
 22 29  1  0  0  0  0
 24  2  1  1  0  0  0
 24 31  1  0  0  0  0
 25 26  1  0  0  0  0
 25 33  1  1  0  0  0
 27 28  1  1  0  0  0
 27 35  1  0  0  0  0
 29 30  1  0  0  0  0
 29 37  1  1  0  0  0
 31 32  1  6  0  0  0
 31 39  1  0  0  0  0
 33 34  1  0  0  0  0
 35 36  1  0  0  0  0
 35 41  1  1  0  0  0
 37 38  1  0  0  0  0
 39 40  1  1  0  0  0
 41 42  1  0  0  0  0
M  END
>  <CHROM.1>
-164.25438618,79.35479082,-152.51467898,101.99503692,-68.82770724,61.94770264
-59.31348553,59.21422021,-168.96684506,11.85743398,13.19413863,-10.76665123
1.19302391,-1.06454925,2.27175994

>  <Name>
ligand

>  <RI>
0

>  <Rbt.Current_Directory>
/home/itssahil/PROJECTS/Mol_Feturizer/Test_systems_manuscript/rnas/2o3w

>  <Rbt.Executable>
rbdock ($Id: //depot/dev/client3/rdock/2013.1/src/exe/rbdock.cxx#4 $)

>  <Rbt.Library>
libRbt.so (2013.1, Build901 2013/11/27)

>  <Rbt.Parameter_File>
/export/apps/rDock/src/rDock_2013.1_src/data/scripts/dock_solv.prm

>  <Rbt.Receptor>
prm/blind_docking_60.prm

>  <SCORE>
14.2693

>  <SCORE.INTER>
-0.270891

>  <SCORE.INTER.CONST>
1

>  <SCORE.INTER.POLAR>
0

>  <SCORE.INTER.ROT>
9

>  <SCORE.INTER.SOLV>
29.9119

>  <SCORE.INTER.VDW>
-19.7512

>  <SCORE.INTER.norm>
-0.00644979

>  <SCORE.INTRA>
3.45076

>  <SCORE.INTRA.DIHEDRAL>
-15.4373

>  <SCORE.INTRA.DIHEDRAL.0>
27.8999

>  <SCORE.INTRA.POLAR>
0

>  <SCORE.INTRA.POLAR.0>
0

>  <SCORE.INTRA.REPUL>
0

>  <SCORE.INTRA.REPUL.0>
0

>  <SCORE.INTRA.SOLV>
3.008

>  <SCORE.INTRA.SOLV.lig_0>
-104.479

>  <SCORE.INTRA.VDW>
9.66541

>  <SCORE.INTRA.VDW.0>
-6.17816

>  <SCORE.INTRA.norm>
0.082161

>  <SCORE.RESTR>
11.0894

>  <SCORE.RESTR.CAVITY>
11.0894

>  <SCORE.RESTR.norm>
0.264033

>  <SCORE.SYSTEM>
0

>  <SCORE.SYSTEM.CONST>
0

>  <SCORE.SYSTEM.DIHEDRAL>
0

>  <SCORE.SYSTEM.SOLV>
0

>  <SCORE.SYSTEM.norm>
0

>  <SCORE.heavy>
42

>  <SCORE.norm>
0.339745

>  <RMSD>
18.393

$$$$
ligand
 OpenBabel02271912133D
libRbt.so/2013.1/901 2013/11/27
 42 45  0  0  0  0  0  0  0  0999 V2000
   12.9395   10.8207   -7.1707 C   0  0  2  0  0  0  0  0  0  0  0  0
   13.7608   10.6608   -8.3400 O   0  0  0  0  0  0  0  0  0  0  0  0
   12.1604    8.5628  -11.7799 C   0  0  2  0  0  0  0  0  0  0  0  0
   11.5335    8.2569  -13.1005 N   0  0  0  0  0  0  0  0  0  0  0  0
   14.7936   12.1237  -11.4931 C   0  0  1  0  0  0  0  0  0  0  0  0
   12.8317   15.1977  -13.8542 C   0  0  1  0  0  0  0  0  0  0  0  0
   12.5245   12.3214   -7.1079 C   0  0  2  0  0  0  0  0  0  0  0  0
   11.9810   12.8100   -8.3872 N   0  0  0  0  0  0  0  0  0  0  0  0
   11.1334    9.2704  -10.8071 C   0  0  0  0  0  0  0  0  0  0  0  0
   14.4376   11.8703  -12.9898 C   0  0  2  0  0  0  0  0  0  0  0  0
   15.5635   11.9967  -13.8928 O   0  0  0  0  0  0  0  0  0  0  0  0
   13.3085   16.3889  -14.7612 C   0  0  2  0  0  0  0  0  0  0  0  0
   14.5650   16.9955  -14.2280 N   0  0  0  0  0  0  0  0  0  0  0  0
   13.7064   13.2399   -6.7471 C   0  0  1  0  0  0  0  0  0  0  0  0
   13.2727   14.5984   -6.6620 O   0  0  0  0  0  0  0  0  0  0  0  0
   11.8438    9.5462   -9.4281 C   0  0  2  0  0  0  0  0  0  0  0  0
   10.9002   10.1997   -8.4815 N   0  0  0  0  0  0  0  0  0  0  0  0
   13.3042   12.8755  -13.1998 C   0  0  2  0  0  0  0  0  0  0  0  0
   13.8110   14.1708  -13.6540 O   0  0  0  0  0  0  0  0  0  0  0  0
   12.1392   17.4798  -14.8590 C   0  0  1  0  0  0  0  0  0  0  0  0
   11.0920   16.9668  -15.7128 O   0  0  0  0  0  0  0  0  0  0  0  0
   14.3414   12.7659   -5.4200 C   0  0  2  0  0  0  0  0  0  0  0  0
   15.4149   13.6069   -5.0669 O   0  0  0  0  0  0  0  0  0  0  0  0
   13.1135   10.4645   -9.6295 C   0  0  2  0  0  0  0  0  0  0  0  0
   12.5911   13.0009  -11.8429 C   0  0  2  0  0  0  0  0  0  0  0  0
   13.6407   12.7697  -10.9061 O   0  0  0  0  0  0  0  0  0  0  0  0
   11.5254   17.8637  -13.4295 C   0  0  2  0  0  0  0  0  0  0  0  0
   12.5226   18.5916  -12.7139 O   0  0  0  0  0  0  0  0  0  0  0  0
   14.8282   11.2878   -5.5862 C   0  0  2  0  0  0  0  0  0  0  0  0
   13.6990   10.4372   -5.9616 O   0  0  0  0  0  0  0  0  0  0  0  0
   14.1385    9.8614  -10.6148 C   0  0  2  0  0  0  0  0  0  0  0  0
   15.1311   10.9043  -10.8192 O   0  0  0  0  0  0  0  0  0  0  0  0
   11.4130   12.0018  -11.6237 C   0  0  0  0  0  0  0  0  0  0  0  0
   10.6801   12.3858  -10.4642 O   0  0  0  0  0  0  0  0  0  0  0  0
   11.1198   16.5667  -12.6324 C   0  0  1  0  0  0  0  0  0  0  0  0
   12.3413   15.7493  -12.5320 O   0  0  0  0  0  0  0  0  0  0  0  0
   15.4597   10.7386   -4.3279 C   0  0  0  0  0  0  0  0  0  0  0  0
   14.4860   10.1073   -3.5324 O   0  0  0  0  0  0  0  0  0  0  0  0
   13.4292    9.4845  -11.9825 C   0  0  1  0  0  0  0  0  0  0  0  0
   14.3420    8.7895  -12.8365 O   0  0  0  0  0  0  0  0  0  0  0  0
   10.5306   16.8547  -11.1837 C   0  0  0  0  0  0  0  0  0  0  0  0
    9.7819   15.7293  -10.5595 N   0  0  0  0  0  0  0  0  0  0  0  0
  1  2  1  6  0  0  0
  1  7  1  0  0  0  0
  1 30  1  0  0  0  0
  3  4  1  6  0  0  0
  3  9  1  0  0  0  0
  3 39  1  0  0  0  0
  5 10  1  0  0  0  0
  5 26  1  0  0  0  0
  5 32  1  1  0  0  0
  6 12  1  0  0  0  0
  6 36  1  0  0  0  0
  6 19  1  1  0  0  0
  7  8  1  6  0  0  0
  7 14  1  0  0  0  0
  9 16  1  0  0  0  0
 10 11  1  6  0  0  0
 10 18  1  0  0  0  0
 12 13  1  1  0  0  0
 12 20  1  0  0  0  0
 14 15  1  1  0  0  0
 14 22  1  0  0  0  0
 16 17  1  1  0  0  0
 16 24  1  0  0  0  0
 18 19  1  1  0  0  0
 18 25  1  0  0  0  0
 20 21  1  6  0  0  0
 20 27  1  0  0  0  0
 22 23  1  6  0  0  0
 22 29  1  0  0  0  0
 24  2  1  1  0  0  0
 24 31  1  0  0  0  0
 25 26  1  0  0  0  0
 25 33  1  6  0  0  0
 27 28  1  1  0  0  0
 27 35  1  0  0  0  0
 29 30  1  0  0  0  0
 29 37  1  1  0  0  0
 31 32  1  6  0  0  0
 31 39  1  0  0  0  0
 33 34  1  0  0  0  0
 35 36  1  0  0  0  0
 35 41  1  1  0  0  0
 37 38  1  0  0  0  0
 39 40  1  6  0  0  0
 41 42  1  0  0  0  0
M  END
>  <CHROM.1>
-83.59915975,-38.04832882,-178.68471292,-161.04915958,-168.75714725,91.04172697
-66.93753054,-65.82552554,163.04988214,13.02543385,12.78068169,-10.46263147
0.09916689,-1.40472164,0.73373577

>  <Name>
ligand

>  <RI>
0

>  <Rbt.Current_Directory>
/home/itssahil/PROJECTS/Mol_Feturizer/Test_systems_manuscript/rnas/2o3w

>  <Rbt.Executable>
rbdock ($Id: //depot/dev/client3/rdock/2013.1/src/exe/rbdock.cxx#4 $)

>  <Rbt.Library>
libRbt.so (2013.1, Build901 2013/11/27)

>  <Rbt.Parameter_File>
/export/apps/rDock/src/rDock_2013.1_src/data/scripts/dock_solv.prm

>  <Rbt.Receptor>
prm/blind_docking_100.prm

>  <SCORE>
1.57676

>  <SCORE.INTER>
-6.49571

>  <SCORE.INTER.CONST>
1

>  <SCORE.INTER.POLAR>
0

>  <SCORE.INTER.ROT>
9

>  <SCORE.INTER.SOLV>
29.8302

>  <SCORE.INTER.VDW>
-23.8739

>  <SCORE.INTER.norm>
-0.15466

>  <SCORE.INTRA>
3.37765

>  <SCORE.INTRA.DIHEDRAL>
-17.0299

>  <SCORE.INTRA.DIHEDRAL.0>
27.8999

>  <SCORE.INTRA.POLAR>
0

>  <SCORE.INTRA.POLAR.0>
0

>  <SCORE.INTRA.REPUL>
0.0357826

>  <SCORE.INTRA.REPUL.0>
0

>  <SCORE.INTRA.SOLV>
7.03772

>  <SCORE.INTRA.SOLV.lig_0>
-104.479

>  <SCORE.INTRA.VDW>
8.19485

>  <SCORE.INTRA.VDW.0>
-6.17816

>  <SCORE.INTRA.norm>
0.0804202

>  <SCORE.RESTR>
4.69482

>  <SCORE.RESTR.CAVITY>
4.69482

>  <SCORE.RESTR.norm>
0.111781

>  <SCORE.SYSTEM>
0

>  <SCORE.SYSTEM.CONST>
0

>  <SCORE.SYSTEM.DIHEDRAL>
0

>  <SCORE.SYSTEM.SOLV>
0

>  <SCORE.SYSTEM.norm>
0

>  <SCORE.heavy>
42

>  <SCORE.norm>
0.0375418

>  <RMSD>
18.397

$$$$
ligand
 OpenBabel02271912133D
libRbt.so/2013.1/901 2013/11/27
 42 45  0  0  0  0  0  0  0  0999 V2000
   11.8714   11.1669  -12.2098 C   0  0  2  0  0  0  0  0  0  0  0  0
   11.2358   11.3028  -10.9273 O   0  0  0  0  0  0  0  0  0  0  0  0
   12.3332   11.8189   -6.7649 C   0  0  2  0  0  0  0  0  0  0  0  0
   13.1046   11.8593   -5.4867 N   0  0  0  0  0  0  0  0  0  0  0  0
   12.5161   14.4015  -11.1010 C   0  0  1  0  0  0  0  0  0  0  0  0
   10.1682   17.1284  -13.0816 C   0  0  1  0  0  0  0  0  0  0  0  0
   11.7065    9.6794  -12.6440 C   0  0  2  0  0  0  0  0  0  0  0  0
   10.3154    9.2087  -12.5262 N   0  0  0  0  0  0  0  0  0  0  0  0
   12.2115   10.3411   -7.3154 C   0  0  0  0  0  0  0  0  0  0  0  0
   11.6961   13.8001  -12.2828 C   0  0  2  0  0  0  0  0  0  0  0  0
   12.4657   13.6041  -13.4945 O   0  0  0  0  0  0  0  0  0  0  0  0
   11.0129   18.2277  -12.3421 C   0  0  2  0  0  0  0  0  0  0  0  0
   11.5415   17.7109  -11.0442 N   0  0  0  0  0  0  0  0  0  0  0  0
   12.5719    8.7251  -11.8005 C   0  0  1  0  0  0  0  0  0  0  0  0
   12.4199    7.3804  -12.2581 O   0  0  0  0  0  0  0  0  0  0  0  0
   11.3713   10.3605   -8.6481 C   0  0  2  0  0  0  0  0  0  0  0  0
   11.2243    8.9816   -9.1873 N   0  0  0  0  0  0  0  0  0  0  0  0
   10.5440   14.8010  -12.3846 C   0  0  2  0  0  0  0  0  0  0  0  0
   10.8604   15.8936  -13.3049 O   0  0  0  0  0  0  0  0  0  0  0  0
   10.1057   19.5289  -12.1168 C   0  0  1  0  0  0  0  0  0  0  0  0
    9.9362   20.2052  -13.3828 O   0  0  0  0  0  0  0  0  0  0  0  0
   14.0483    9.1785  -11.8612 C   0  0  2  0  0  0  0  0  0  0  0  0
   14.8565    8.3050  -11.1073 O   0  0  0  0  0  0  0  0  0  0  0  0
   12.0633   11.2815   -9.7293 C   0  0  2  0  0  0  0  0  0  0  0  0
   10.3093   15.3246  -10.9577 C   0  0  2  0  0  0  0  0  0  0  0  0
   11.6090   15.2625  -10.3750 O   0  0  0  0  0  0  0  0  0  0  0  0
    8.6690   19.1856  -11.4959 C   0  0  2  0  0  0  0  0  0  0  0  0
    8.8726   18.7550  -10.1507 O   0  0  0  0  0  0  0  0  0  0  0  0
   14.1561   10.6413  -11.3152 C   0  0  2  0  0  0  0  0  0  0  0  0
   13.3018   11.5261  -12.1071 O   0  0  0  0  0  0  0  0  0  0  0  0
   12.2671   12.7316   -9.2387 C   0  0  2  0  0  0  0  0  0  0  0  0
   13.0687   13.3740  -10.2679 O   0  0  0  0  0  0  0  0  0  0  0  0
    9.2783   14.5081  -10.1183 C   0  0  0  0  0  0  0  0  0  0  0  0
    7.9585   14.8656  -10.5173 O   0  0  0  0  0  0  0  0  0  0  0  0
    7.9596   18.0525  -12.3296 C   0  0  1  0  0  0  0  0  0  0  0  0
    8.8789   16.9014  -12.3207 O   0  0  0  0  0  0  0  0  0  0  0  0
   15.5715   11.1700  -11.3441 C   0  0  0  0  0  0  0  0  0  0  0  0
   16.0305   11.2545  -12.6713 O   0  0  0  0  0  0  0  0  0  0  0  0
   13.0285   12.7385   -7.8472 C   0  0  1  0  0  0  0  0  0  0  0  0
   13.0829   14.0674   -7.3211 O   0  0  0  0  0  0  0  0  0  0  0  0
    6.5373   17.6245  -11.7615 C   0  0  0  0  0  0  0  0  0  0  0  0
    5.3631   18.1136  -12.5352 N   0  0  0  0  0  0  0  0  0  0  0  0
  1  2  1  1  0  0  0
  1  7  1  0  0  0  0
  1 30  1  0  0  0  0
  3  4  1  1  0  0  0
  3  9  1  0  0  0  0
  3 39  1  0  0  0  0
  5 10  1  0  0  0  0
  5 26  1  0  0  0  0
  5 32  1  1  0  0  0
  6 12  1  0  0  0  0
  6 36  1  0  0  0  0
  6 19  1  1  0  0  0
  7  8  1  1  0  0  0
  7 14  1  0  0  0  0
  9 16  1  0  0  0  0
 10 11  1  6  0  0  0
 10 18  1  0  0  0  0
 12 13  1  1  0  0  0
 12 20  1  0  0  0  0
 14 15  1  6  0  0  0
 14 22  1  0  0  0  0
 16 17  1  6  0  0  0
 16 24  1  0  0  0  0
 18 19  1  6  0  0  0
 18 25  1  0  0  0  0
 20 21  1  6  0  0  0
 20 27  1  0  0  0  0
 22 23  1  1  0  0  0
 22 29  1  0  0  0  0
 24  2  1  6  0  0  0
 24 31  1  0  0  0  0
 25 26  1  0  0  0  0
 25 33  1  1  0  0  0
 27 28  1  1  0  0  0
 27 35  1  0  0  0  0
 29 30  1  0  0  0  0
 29 37  1  6  0  0  0
 31 32  1  6  0  0  0
 31 39  1  0  0  0  0
 33 34  1  0  0  0  0
 35 36  1  0  0  0  0
 35 41  1  1  0  0  0
 37 38  1  0  0  0  0
 39 40  1  1  0  0  0
 41 42  1  0  0  0  0
M  END
>  <CHROM.1>
99.25552623,-135.68360143,-154.78808588,101.23351347,-78.38226276,63.75381380
111.43328862,-81.86639652,105.35665014,11.39769970,13.60205514,-11.01108232
-0.11347864,1.09193009,-1.61998461

>  <Name>
ligand

>  <RI>
0

>  <Rbt.Current_Directory>
/home/itssahil/PROJECTS/Mol_Feturizer/Test_systems_manuscript/rnas/2o3w

>  <Rbt.Executable>
rbdock ($Id: //depot/dev/client3/rdock/2013.1/src/exe/rbdock.cxx#4 $)

>  <Rbt.Library>
libRbt.so (2013.1, Build901 2013/11/27)

>  <Rbt.Parameter_File>
/export/apps/rDock/src/rDock_2013.1_src/data/scripts/dock_solv.prm

>  <Rbt.Receptor>
prm/blind_docking_40.prm

>  <SCORE>
33.8507

>  <SCORE.INTER>
7.16586

>  <SCORE.INTER.CONST>
1

>  <SCORE.INTER.POLAR>
0

>  <SCORE.INTER.ROT>
9

>  <SCORE.INTER.SOLV>
30.6332

>  <SCORE.INTER.VDW>
-15.0338

>  <SCORE.INTER.norm>
0.170616

>  <SCORE.INTRA>
13.7163

>  <SCORE.INTRA.DIHEDRAL>
6.40935

>  <SCORE.INTRA.DIHEDRAL.0>
27.8999

>  <SCORE.INTRA.POLAR>
0

>  <SCORE.INTRA.POLAR.0>
0

>  <SCORE.INTRA.REPUL>
0

>  <SCORE.INTRA.REPUL.0>
0

>  <SCORE.INTRA.SOLV>
4.47854

>  <SCORE.INTRA.SOLV.lig_0>
-104.479

>  <SCORE.INTRA.VDW>
8.2724

>  <SCORE.INTRA.VDW.0>
-6.17816

>  <SCORE.INTRA.norm>
0.32658

>  <SCORE.RESTR>
12.9685

>  <SCORE.RESTR.CAVITY>
12.9685

>  <SCORE.RESTR.norm>
0.308774

>  <SCORE.SYSTEM>
0

>  <SCORE.SYSTEM.CONST>
0

>  <SCORE.SYSTEM.DIHEDRAL>
0

>  <SCORE.SYSTEM.SOLV>
0

>  <SCORE.SYSTEM.norm>
0

>  <SCORE.heavy>
42

>  <SCORE.norm>
0.80597

>  <RMSD>
18.401

$$$$
ligand
 OpenBabel02271912133D
libRbt.so/2013.1/901 2013/11/27
 42 45  0  0  0  0  0  0  0  0999 V2000
   14.1620    9.1907  -10.2006 C   0  0  2  0  0  0  0  0  0  0  0  0
   13.9826   10.5596   -9.7991 O   0  0  0  0  0  0  0  0  0  0  0  0
   10.8700    9.9455   -6.8444 C   0  0  2  0  0  0  0  0  0  0  0  0
    9.7401   10.1698   -5.8940 N   0  0  0  0  0  0  0  0  0  0  0  0
   10.9658   12.2391  -10.6704 C   0  0  1  0  0  0  0  0  0  0  0  0
   11.0775   16.5107  -11.2146 C   0  0  1  0  0  0  0  0  0  0  0  0
   15.4658    9.1333  -11.0520 C   0  0  2  0  0  0  0  0  0  0  0  0
   16.6018    9.7971  -10.3890 N   0  0  0  0  0  0  0  0  0  0  0  0
   12.1632   10.7384   -6.3961 C   0  0  0  0  0  0  0  0  0  0  0  0
   12.0148   13.0848   -9.8860 C   0  0  2  0  0  0  0  0  0  0  0  0
   11.6600   13.3283   -8.5026 O   0  0  0  0  0  0  0  0  0  0  0  0
    9.6344   16.8442  -11.7391 C   0  0  2  0  0  0  0  0  0  0  0  0
    9.0403   15.6715  -12.4482 N   0  0  0  0  0  0  0  0  0  0  0  0
   15.2967    9.8077  -12.4259 C   0  0  1  0  0  0  0  0  0  0  0  0
   16.5012    9.6967  -13.1860 O   0  0  0  0  0  0  0  0  0  0  0  0
   13.3227   10.4450   -7.4217 C   0  0  2  0  0  0  0  0  0  0  0  0
   14.5617   11.1651   -7.0218 N   0  0  0  0  0  0  0  0  0  0  0  0
   12.1171   14.3273  -10.7720 C   0  0  2  0  0  0  0  0  0  0  0  0
   11.1540   15.3538  -10.3724 O   0  0  0  0  0  0  0  0  0  0  0  0
    9.7040   18.1235  -12.7010 C   0  0  1  0  0  0  0  0  0  0  0  0
    9.9163   19.3037  -11.8942 O   0  0  0  0  0  0  0  0  0  0  0  0
   14.0999    9.1714  -13.1687 C   0  0  2  0  0  0  0  0  0  0  0  0
   13.9420    9.7666  -14.4357 O   0  0  0  0  0  0  0  0  0  0  0  0
   12.9013   10.8843   -8.8795 C   0  0  2  0  0  0  0  0  0  0  0  0
   11.8549   13.8466  -12.2092 C   0  0  2  0  0  0  0  0  0  0  0  0
   10.9634   12.7497  -12.0233 O   0  0  0  0  0  0  0  0  0  0  0  0
   10.8627   18.0115  -13.8022 C   0  0  2  0  0  0  0  0  0  0  0  0
   10.4823   16.9924  -14.7258 O   0  0  0  0  0  0  0  0  0  0  0  0
   12.8070    9.3559  -12.3061 C   0  0  2  0  0  0  0  0  0  0  0  0
   12.9991    8.7388  -10.9938 O   0  0  0  0  0  0  0  0  0  0  0  0
   11.6097   10.1902   -9.3643 C   0  0  2  0  0  0  0  0  0  0  0  0
   11.2754   10.8403  -10.6214 O   0  0  0  0  0  0  0  0  0  0  0  0
   13.1271   13.4082  -12.9989 C   0  0  0  0  0  0  0  0  0  0  0  0
   13.6783   12.2426  -12.3935 O   0  0  0  0  0  0  0  0  0  0  0  0
   12.2387   17.6488  -13.1261 C   0  0  1  0  0  0  0  0  0  0  0  0
   12.0165   16.3886  -12.3963 O   0  0  0  0  0  0  0  0  0  0  0  0
   11.5829    8.7547  -12.9571 C   0  0  0  0  0  0  0  0  0  0  0  0
   10.4275    9.1078  -12.2362 O   0  0  0  0  0  0  0  0  0  0  0  0
   10.4482   10.3885   -8.3026 C   0  0  1  0  0  0  0  0  0  0  0  0
    9.3008    9.6212   -8.6773 O   0  0  0  0  0  0  0  0  0  0  0  0
   13.4414   17.4843  -14.1533 C   0  0  0  0  0  0  0  0  0  0  0  0
   13.6286   18.6106  -15.1088 N   0  0  0  0  0  0  0  0  0  0  0  0
  1  2  1  6  0  0  0
  1  7  1  0  0  0  0
  1 30  1  0  0  0  0
  3  4  1  1  0  0  0
  3  9  1  0  0  0  0
  3 39  1  0  0  0  0
  5 10  1  0  0  0  0
  5 26  1  0  0  0  0
  5 32  1  6  0  0  0
  6 12  1  0  0  0  0
  6 36  1  0  0  0  0
  6 19  1  6  0  0  0
  7  8  1  1  0  0  0
  7 14  1  0  0  0  0
  9 16  1  0  0  0  0
 10 11  1  1  0  0  0
 10 18  1  0  0  0  0
 12 13  1  6  0  0  0
 12 20  1  0  0  0  0
 14 15  1  6  0  0  0
 14 22  1  0  0  0  0
 16 17  1  1  0  0  0
 16 24  1  0  0  0  0
 18 19  1  1  0  0  0
 18 25  1  0  0  0  0
 20 21  1  1  0  0  0
 20 27  1  0  0  0  0
 22 23  1  6  0  0  0
 22 29  1  0  0  0  0
 24  2  1  6  0  0  0
 24 31  1  0  0  0  0
 25 26  1  0  0  0  0
 25 33  1  1  0  0  0
 27 28  1  6  0  0  0
 27 35  1  0  0  0  0
 29 30  1  0  0  0  0
 29 37  1  6  0  0  0
 31 32  1  6  0  0  0
 31 39  1  0  0  0  0
 33 34  1  0  0  0  0
 35 36  1  0  0  0  0
 35 41  1  6  0  0  0
 37 38  1  0  0  0  0
 39 40  1  6  0  0  0
 41 42  1  0  0  0  0
M  END
>  <CHROM.1>
-174.20389205,76.35839283,-174.34501825,125.91059909,66.10372748,-171.87790651
-62.43784121,47.74195055,51.27667308,12.22134858,12.60500355,-11.11944290
-1.22881820,0.86828439,-0.65948951

>  <Name>
ligand

>  <RI>
0

>  <Rbt.Current_Directory>
/home/itssahil/PROJECTS/Mol_Feturizer/Test_systems_manuscript/rnas/2o3w

>  <Rbt.Executable>
rbdock ($Id: //depot/dev/client3/rdock/2013.1/src/exe/rbdock.cxx#4 $)

>  <Rbt.Library>
libRbt.so (2013.1, Build901 2013/11/27)

>  <Rbt.Parameter_File>
/export/apps/rDock/src/rDock_2013.1_src/data/scripts/dock_solv.prm

>  <Rbt.Receptor>
prm/blind_docking_80.prm

>  <SCORE>
18.505

>  <SCORE.INTER>
7.1257

>  <SCORE.INTER.CONST>
1

>  <SCORE.INTER.POLAR>
0

>  <SCORE.INTER.ROT>
9

>  <SCORE.INTER.SOLV>
30.0379

>  <SCORE.INTER.VDW>
-14.8622

>  <SCORE.INTER.norm>
0.169659

>  <SCORE.INTRA>
1.41068

>  <SCORE.INTRA.DIHEDRAL>
-17.9034

>  <SCORE.INTRA.DIHEDRAL.0>
27.8999

>  <SCORE.INTRA.POLAR>
0

>  <SCORE.INTRA.POLAR.0>
0

>  <SCORE.INTRA.REPUL>
0.240961

>  <SCORE.INTRA.REPUL.0>
0

>  <SCORE.INTRA.SOLV>
1.2902

>  <SCORE.INTRA.SOLV.lig_0>
-104.479

>  <SCORE.INTRA.VDW>
8.51246

>  <SCORE.INTRA.VDW.0>
-6.17816

>  <SCORE.INTRA.norm>
0.0335875

>  <SCORE.RESTR>
9.96864

>  <SCORE.RESTR.CAVITY>
9.96864

>  <SCORE.RESTR.norm>
0.237349

>  <SCORE.SYSTEM>
0

>  <SCORE.SYSTEM.CONST>
0

>  <SCORE.SYSTEM.DIHEDRAL>
0

>  <SCORE.SYSTEM.SOLV>
0

>  <SCORE.SYSTEM.norm>
0

>  <SCORE.heavy>
42

>  <SCORE.norm>
0.440596

>  <RMSD>
18.403

$$$$
ligand
 OpenBabel02271912133D
libRbt.so/2013.1/901 2013/11/27
 42 45  0  0  0  0  0  0  0  0999 V2000
   13.5266   11.9277  -11.3818 C   0  0  2  0  0  0  0  0  0  0  0  0
   13.1192   12.6834  -12.5352 O   0  0  0  0  0  0  0  0  0  0  0  0
   10.5117   16.1468  -12.4909 C   0  0  2  0  0  0  0  0  0  0  0  0
    9.3065   17.0249  -12.4087 N   0  0  0  0  0  0  0  0  0  0  0  0
   12.5355   13.6443   -8.8563 C   0  0  1  0  0  0  0  0  0  0  0  0
   13.9960   13.5586   -4.7987 C   0  0  1  0  0  0  0  0  0  0  0  0
   14.8719   11.2309  -11.7463 C   0  0  2  0  0  0  0  0  0  0  0  0
   15.8535   12.1665  -12.3221 N   0  0  0  0  0  0  0  0  0  0  0  0
   10.4384   15.1873  -13.7462 C   0  0  0  0  0  0  0  0  0  0  0  0
   11.5359   13.8230   -7.6732 C   0  0  2  0  0  0  0  0  0  0  0  0
   11.1402   15.1968   -7.4385 O   0  0  0  0  0  0  0  0  0  0  0  0
   14.9154   14.6098   -4.0786 C   0  0  2  0  0  0  0  0  0  0  0  0
   15.7457   15.3592   -5.0685 N   0  0  0  0  0  0  0  0  0  0  0  0
   14.6838   10.0972  -12.7711 C   0  0  1  0  0  0  0  0  0  0  0  0
   15.9338    9.4620  -13.0452 O   0  0  0  0  0  0  0  0  0  0  0  0
   11.7430   14.3050  -13.7911 C   0  0  2  0  0  0  0  0  0  0  0  0
   11.7143   13.3985  -14.9705 N   0  0  0  0  0  0  0  0  0  0  0  0
   12.3020   13.1505   -6.5330 C   0  0  2  0  0  0  0  0  0  0  0  0
   13.1488   14.1051   -5.8171 O   0  0  0  0  0  0  0  0  0  0  0  0
   15.8377   13.8582   -3.0055 C   0  0  1  0  0  0  0  0  0  0  0  0
   15.0227   13.4766   -1.8746 O   0  0  0  0  0  0  0  0  0  0  0  0
   13.6426    9.0872  -12.2374 C   0  0  2  0  0  0  0  0  0  0  0  0
   13.4712    8.0338  -13.1569 O   0  0  0  0  0  0  0  0  0  0  0  0
   11.8836   13.4511  -12.4694 C   0  0  2  0  0  0  0  0  0  0  0  0
   13.1425   12.0390   -7.1838 C   0  0  2  0  0  0  0  0  0  0  0  0
   13.4194   12.5634   -8.4803 O   0  0  0  0  0  0  0  0  0  0  0  0
   16.5609   12.5610   -3.6070 C   0  0  2  0  0  0  0  0  0  0  0  0
   17.5384   13.0088   -4.5454 O   0  0  0  0  0  0  0  0  0  0  0  0
   12.2883    9.8321  -11.9912 C   0  0  2  0  0  0  0  0  0  0  0  0
   12.4940   10.9258  -11.0418 O   0  0  0  0  0  0  0  0  0  0  0  0
   11.9051   14.3212  -11.1936 C   0  0  2  0  0  0  0  0  0  0  0  0
   11.8508   13.3789  -10.0875 O   0  0  0  0  0  0  0  0  0  0  0  0
   12.4372   10.6506   -7.2789 C   0  0  0  0  0  0  0  0  0  0  0  0
   11.4144   10.7092   -8.2685 O   0  0  0  0  0  0  0  0  0  0  0  0
   15.5150   11.6202   -4.3162 C   0  0  1  0  0  0  0  0  0  0  0  0
   14.8589   12.4420   -5.3479 O   0  0  0  0  0  0  0  0  0  0  0  0
   11.2095    8.9170  -11.4598 C   0  0  0  0  0  0  0  0  0  0  0  0
    9.9962    9.6184  -11.3361 O   0  0  0  0  0  0  0  0  0  0  0  0
   10.6497   15.2902  -11.1688 C   0  0  1  0  0  0  0  0  0  0  0  0
   10.7491   16.1985  -10.0685 O   0  0  0  0  0  0  0  0  0  0  0  0
   16.1539   10.3205   -4.9730 C   0  0  0  0  0  0  0  0  0  0  0  0
   17.1010    9.5636   -4.1088 N   0  0  0  0  0  0  0  0  0  0  0  0
  1  2  1  6  0  0  0
  1  7  1  0  0  0  0
  1 30  1  0  0  0  0
  3  4  1  1  0  0  0
  3  9  1  0  0  0  0
  3 39  1  0  0  0  0
  5 10  1  0  0  0  0
  5 26  1  0  0  0  0
  5 32  1  6  0  0  0
  6 12  1  0  0  0  0
  6 36  1  0  0  0  0
  6 19  1  6  0  0  0
  7  8  1  6  0  0  0
  7 14  1  0  0  0  0
  9 16  1  0  0  0  0
 10 11  1  1  0  0  0
 10 18  1  0  0  0  0
 12 13  1  6  0  0  0
 12 20  1  0  0  0  0
 14 15  1  1  0  0  0
 14 22  1  0  0  0  0
 16 17  1  6  0  0  0
 16 24  1  0  0  0  0
 18 19  1  6  0  0  0
 18 25  1  0  0  0  0
 20 21  1  1  0  0  0
 20 27  1  0  0  0  0
 22 23  1  6  0  0  0
 22 29  1  0  0  0  0
 24  2  1  6  0  0  0
 24 31  1  0  0  0  0
 25 26  1  0  0  0  0
 25 33  1  6  0  0  0
 27 28  1  6  0  0  0
 27 35  1  0  0  0  0
 29 30  1  0  0  0  0
 29 37  1  1  0  0  0
 31 32  1  1  0  0  0
 31 39  1  0  0  0  0
 33 34  1  0  0  0  0
 35 36  1  0  0  0  0
 35 41  1  6  0  0  0
 37 38  1  0  0  0  0
 39 40  1  1  0  0  0
 41 42  1  0  0  0  0
M  END
>  <CHROM.1>
-179.57920039,173.98094544,-174.99921140,178.53247609,71.78873731,-176.36935093
145.94300391,115.07536497,47.59478954,13.23706885,12.56998390,-9.05238156
-2.25530373,-0.93970243,0.95248398

>  <Name>
ligand

>  <RI>
0

>  <Rbt.Current_Directory>
/home/itssahil/PROJECTS/Mol_Feturizer/Test_systems_manuscript/rnas/2o3w

>  <Rbt.Executable>
rbdock ($Id: //depot/dev/client3/rdock/2013.1/src/exe/rbdock.cxx#4 $)

>  <Rbt.Library>
libRbt.so (2013.1, Build901 2013/11/27)

>  <Rbt.Parameter_File>
/export/apps/rDock/src/rDock_2013.1_src/data/scripts/dock_solv.prm

>  <Rbt.Receptor>
prm/blind_docking_80.prm

>  <SCORE>
-2.86881

>  <SCORE.INTER>
-7.94594

>  <SCORE.INTER.CONST>
1

>  <SCORE.INTER.POLAR>
0

>  <SCORE.INTER.ROT>
9

>  <SCORE.INTER.SOLV>
28.4528

>  <SCORE.INTER.VDW>
-24.3816

>  <SCORE.INTER.norm>
-0.189189

>  <SCORE.INTRA>
-5.70387

>  <SCORE.INTRA.DIHEDRAL>
-14.9562

>  <SCORE.INTRA.DIHEDRAL.0>
27.8999

>  <SCORE.INTRA.POLAR>
0

>  <SCORE.INTRA.POLAR.0>
0

>  <SCORE.INTRA.REPUL>
0

>  <SCORE.INTRA.REPUL.0>
0

>  <SCORE.INTRA.SOLV>
-3.9433

>  <SCORE.INTRA.SOLV.lig_0>
-104.479

>  <SCORE.INTRA.VDW>
3.74588

>  <SCORE.INTRA.VDW.0>
-6.17816

>  <SCORE.INTRA.norm>
-0.135806

>  <SCORE.RESTR>
10.781

>  <SCORE.RESTR.CAVITY>
10.781

>  <SCORE.RESTR.norm>
0.25669

>  <SCORE.SYSTEM>
0

>  <SCORE.SYSTEM.CONST>
0

>  <SCORE.SYSTEM.DIHEDRAL>
0

>  <SCORE.SYSTEM.SOLV>
0

>  <SCORE.SYSTEM.norm>
0

>  <SCORE.heavy>
42

>  <SCORE.norm>
-0.0683051

>  <RMSD>
18.408

$$$$
ligand
 OpenBabel02271912133D
libRbt.so/2013.1/901 2013/11/27
 42 45  0  0  0  0  0  0  0  0999 V2000
   12.1235   11.3593   -7.8625 C   0  0  2  0  0  0  0  0  0  0  0  0
   12.8521   11.7951   -9.0228 O   0  0  0  0  0  0  0  0  0  0  0  0
   13.9736    8.8584  -12.0085 C   0  0  2  0  0  0  0  0  0  0  0  0
   13.9985    8.0108  -13.2379 N   0  0  0  0  0  0  0  0  0  0  0  0
   12.4492   13.1936  -11.9094 C   0  0  1  0  0  0  0  0  0  0  0  0
    9.6119   16.0846  -11.7271 C   0  0  1  0  0  0  0  0  0  0  0  0
   11.4850   12.6287   -7.2228 C   0  0  2  0  0  0  0  0  0  0  0  0
   10.7595   13.4514   -8.2063 N   0  0  0  0  0  0  0  0  0  0  0  0
   12.6883    8.5645  -11.1347 C   0  0  0  0  0  0  0  0  0  0  0  0
   12.3464   14.7458  -11.8055 C   0  0  2  0  0  0  0  0  0  0  0  0
   11.8713   15.2203  -10.5216 O   0  0  0  0  0  0  0  0  0  0  0  0
    8.1483   15.9152  -11.1813 C   0  0  2  0  0  0  0  0  0  0  0  0
    7.1694   15.8067  -12.3042 N   0  0  0  0  0  0  0  0  0  0  0  0
   12.5353   13.5433   -6.5662 C   0  0  1  0  0  0  0  0  0  0  0  0
   11.9027   14.6715   -5.9596 O   0  0  0  0  0  0  0  0  0  0  0  0
   12.7300    9.4693   -9.8454 C   0  0  2  0  0  0  0  0  0  0  0  0
   11.5403    9.2078   -8.9911 N   0  0  0  0  0  0  0  0  0  0  0  0
   11.4496   15.0650  -13.0026 C   0  0  2  0  0  0  0  0  0  0  0  0
   10.0342   15.0567  -12.6319 O   0  0  0  0  0  0  0  0  0  0  0  0
    7.7938   17.1518  -10.2263 C   0  0  1  0  0  0  0  0  0  0  0  0
    8.5066   16.9978   -8.9784 O   0  0  0  0  0  0  0  0  0  0  0  0
   13.3526   12.7324   -5.5349 C   0  0  2  0  0  0  0  0  0  0  0  0
   14.3078   13.5599   -4.9125 O   0  0  0  0  0  0  0  0  0  0  0  0
   12.7740   10.9986  -10.2393 C   0  0  2  0  0  0  0  0  0  0  0  0
   11.7550   13.9907  -14.0601 C   0  0  2  0  0  0  0  0  0  0  0  0
   12.1043   12.8550  -13.2723 O   0  0  0  0  0  0  0  0  0  0  0  0
    8.1591   18.5680  -10.8809 C   0  0  2  0  0  0  0  0  0  0  0  0
    7.2560   18.7880  -11.9637 O   0  0  0  0  0  0  0  0  0  0  0  0
   14.0490   11.5349   -6.2632 C   0  0  2  0  0  0  0  0  0  0  0  0
   13.0386   10.6970   -6.9087 O   0  0  0  0  0  0  0  0  0  0  0  0
   13.9762   11.3499  -11.1429 C   0  0  2  0  0  0  0  0  0  0  0  0
   13.7570   12.7281  -11.5515 O   0  0  0  0  0  0  0  0  0  0  0  0
   12.8981   14.3552  -15.0574 C   0  0  0  0  0  0  0  0  0  0  0  0
   13.9454   15.0145  -14.3521 O   0  0  0  0  0  0  0  0  0  0  0  0
    9.6461   18.5727  -11.4015 C   0  0  1  0  0  0  0  0  0  0  0  0
    9.7489   17.4553  -12.3560 O   0  0  0  0  0  0  0  0  0  0  0  0
   14.8687   10.6804   -5.3241 C   0  0  0  0  0  0  0  0  0  0  0  0
   14.0508   10.1573   -4.3060 O   0  0  0  0  0  0  0  0  0  0  0  0
   14.0144   10.3889  -12.4041 C   0  0  1  0  0  0  0  0  0  0  0  0
   15.2082   10.6129  -13.1592 O   0  0  0  0  0  0  0  0  0  0  0  0
   10.0838   19.9332  -12.0987 C   0  0  0  0  0  0  0  0  0  0  0  0
   11.1849   19.8193  -13.0944 N   0  0  0  0  0  0  0  0  0  0  0  0
  1  2  1  6  0  0  0
  1  7  1  0  0  0  0
  1 30  1  0  0  0  0
  3  4  1  6  0  0  0
  3  9  1  0  0  0  0
  3 39  1  0  0  0  0
  5 10  1  0  0  0  0
  5 26  1  0  0  0  0
  5 32  1  6  0  0  0
  6 12  1  0  0  0  0
  6 36  1  0  0  0  0
  6 19  1  6  0  0  0
  7  8  1  6  0  0  0
  7 14  1  0  0  0  0
  9 16  1  0  0  0  0
 10 11  1  1  0  0  0
 10 18  1  0  0  0  0
 12 13  1  6  0  0  0
 12 20  1  0  0  0  0
 14 15  1  1  0  0  0
 14 22  1  0  0  0  0
 16 17  1  1  0  0  0
 16 24  1  0  0  0  0
 18 19  1  1  0  0  0
 18 25  1  0  0  0  0
 20 21  1  1  0  0  0
 20 27  1  0  0  0  0
 22 23  1  6  0  0  0
 22 29  1  0  0  0  0
 24  2  1  1  0  0  0
 24 31  1  0  0  0  0
 25 26  1  0  0  0  0
 25 33  1  6  0  0  0
 27 28  1  6  0  0  0
 27 35  1  0  0  0  0
 29 30  1  0  0  0  0
 29 37  1  1  0  0  0
 31 32  1  6  0  0  0
 31 39  1  0  0  0  0
 33 34  1  0  0  0  0
 35 36  1  0  0  0  0
 35 41  1  6  0  0  0
 37 38  1  0  0  0  0
 39 40  1  1  0  0  0
 41 42  1  0  0  0  0
M  END
>  <CHROM.1>
-138.30513884,-36.83833644,66.42017228,-171.05948345,39.84165630,59.20758594
-40.83333777,159.30340324,-154.39798921,11.82727801,13.63019805,-10.33399050
0.46896600,-1.01950030,1.60797624

>  <Name>
ligand

>  <RI>
0

>  <Rbt.Current_Directory>
/home/itssahil/PROJECTS/Mol_Feturizer/Test_systems_manuscript/rnas/2o3w

>  <Rbt.Executable>
rbdock ($Id: //depot/dev/client3/rdock/2013.1/src/exe/rbdock.cxx#4 $)

>  <Rbt.Library>
libRbt.so (2013.1, Build901 2013/11/27)

>  <Rbt.Parameter_File>
/export/apps/rDock/src/rDock_2013.1_src/data/scripts/dock_solv.prm

>  <Rbt.Receptor>
prm/blind_docking_40.prm

>  <SCORE>
8.25865

>  <SCORE.INTER>
-4.5681

>  <SCORE.INTER.CONST>
1

>  <SCORE.INTER.POLAR>
0

>  <SCORE.INTER.ROT>
9

>  <SCORE.INTER.SOLV>
24.9064

>  <SCORE.INTER.VDW>
-20.9475

>  <SCORE.INTER.norm>
-0.108764

>  <SCORE.INTRA>
-0.0425032

>  <SCORE.INTRA.DIHEDRAL>
-12.2202

>  <SCORE.INTRA.DIHEDRAL.0>
27.8999

>  <SCORE.INTRA.POLAR>
0

>  <SCORE.INTRA.POLAR.0>
0

>  <SCORE.INTRA.REPUL>
0.0666216

>  <SCORE.INTRA.REPUL.0>
0

>  <SCORE.INTRA.SOLV>
-1.1671

>  <SCORE.INTRA.SOLV.lig_0>
-104.479

>  <SCORE.INTRA.VDW>
6.31802

>  <SCORE.INTRA.VDW.0>
-6.17816

>  <SCORE.INTRA.norm>
-0.00101198

>  <SCORE.RESTR>
12.8693

>  <SCORE.RESTR.CAVITY>
12.8693

>  <SCORE.RESTR.norm>
0.306411

>  <SCORE.SYSTEM>
0

>  <SCORE.SYSTEM.CONST>
0

>  <SCORE.SYSTEM.DIHEDRAL>
0

>  <SCORE.SYSTEM.SOLV>
0

>  <SCORE.SYSTEM.norm>
0

>  <SCORE.heavy>
42

>  <SCORE.norm>
0.196635

>  <RMSD>
18.410

$$$$
ligand
 OpenBabel02271912133D
libRbt.so/2013.1/901 2013/11/27
 42 45  0  0  0  0  0  0  0  0999 V2000
   11.5956   13.0475   -7.4782 C   0  0  2  0  0  0  0  0  0  0  0  0
   11.8992   12.8499   -8.8697 O   0  0  0  0  0  0  0  0  0  0  0  0
   10.5116   15.7133  -11.8145 C   0  0  2  0  0  0  0  0  0  0  0  0
   10.4447   16.8593  -12.7698 N   0  0  0  0  0  0  0  0  0  0  0  0
   13.1353   11.3813  -11.5162 C   0  0  1  0  0  0  0  0  0  0  0  0
   14.0099    8.5959  -11.9498 C   0  0  1  0  0  0  0  0  0  0  0  0
   12.9537   13.2412   -6.7392 C   0  0  2  0  0  0  0  0  0  0  0  0
   13.8129   14.2442   -7.3922 N   0  0  0  0  0  0  0  0  0  0  0  0
   10.6880   16.2169  -10.3255 C   0  0  0  0  0  0  0  0  0  0  0  0
   13.5204   10.7536  -10.1420 C   0  0  2  0  0  0  0  0  0  0  0  0
   14.9405   10.5168   -9.9795 O   0  0  0  0  0  0  0  0  0  0  0  0
   13.1116    9.1659  -13.1061 C   0  0  2  0  0  0  0  0  0  0  0  0
   11.9399    8.2752  -13.3598 N   0  0  0  0  0  0  0  0  0  0  0  0
   13.7696   11.9374   -6.6649 C   0  0  1  0  0  0  0  0  0  0  0  0
   14.9856   12.1519   -5.9463 O   0  0  0  0  0  0  0  0  0  0  0  0
   10.7292   14.9679   -9.3659 C   0  0  2  0  0  0  0  0  0  0  0  0
   10.8801   15.4064   -7.9521 N   0  0  0  0  0  0  0  0  0  0  0  0
   12.6350    9.5065  -10.1265 C   0  0  2  0  0  0  0  0  0  0  0  0
   13.3167    8.3553  -10.7188 O   0  0  0  0  0  0  0  0  0  0  0  0
   13.9994    9.3398  -14.4284 C   0  0  1  0  0  0  0  0  0  0  0  0
   14.8748   10.4770  -14.2572 O   0  0  0  0  0  0  0  0  0  0  0  0
   12.9138   10.8303   -6.0084 C   0  0  2  0  0  0  0  0  0  0  0  0
   13.6525    9.6342   -5.9177 O   0  0  0  0  0  0  0  0  0  0  0  0
   11.9221   14.0072   -9.7531 C   0  0  2  0  0  0  0  0  0  0  0  0
   11.3701    9.8742  -10.9203 C   0  0  2  0  0  0  0  0  0  0  0  0
   11.8524   10.8180  -11.8738 O   0  0  0  0  0  0  0  0  0  0  0  0
   14.8709    8.0388  -14.7680 C   0  0  2  0  0  0  0  0  0  0  0  0
   13.9693    7.0101  -15.1744 O   0  0  0  0  0  0  0  0  0  0  0  0
   11.6169   10.6162   -6.8580 C   0  0  2  0  0  0  0  0  0  0  0  0
   10.8731   11.8728   -6.9454 O   0  0  0  0  0  0  0  0  0  0  0  0
   11.8468   13.5186  -11.2163 C   0  0  2  0  0  0  0  0  0  0  0  0
   13.0968   12.8127  -11.4481 O   0  0  0  0  0  0  0  0  0  0  0  0
   10.2112   10.4790  -10.0686 C   0  0  0  0  0  0  0  0  0  0  0  0
    9.7898    9.5225   -9.1009 O   0  0  0  0  0  0  0  0  0  0  0  0
   15.6934    7.5759  -13.5064 C   0  0  1  0  0  0  0  0  0  0  0  0
   14.7066    7.3431  -12.4375 O   0  0  0  0  0  0  0  0  0  0  0  0
   10.7139    9.5501   -6.2821 C   0  0  0  0  0  0  0  0  0  0  0  0
    9.3729    9.8217   -6.6097 O   0  0  0  0  0  0  0  0  0  0  0  0
   11.7079   14.7541  -12.2011 C   0  0  1  0  0  0  0  0  0  0  0  0
   11.4863   14.2969  -13.5381 O   0  0  0  0  0  0  0  0  0  0  0  0
   16.5639    6.2668  -13.7454 C   0  0  0  0  0  0  0  0  0  0  0  0
   15.9315    5.2215  -14.5963 N   0  0  0  0  0  0  0  0  0  0  0  0
  1  2  1  6  0  0  0
  1  7  1  0  0  0  0
  1 30  1  0  0  0  0
  3  4  1  6  0  0  0
  3  9  1  0  0  0  0
  3 39  1  0  0  0  0
  5 10  1  0  0  0  0
  5 26  1  0  0  0  0
  5 32  1  1  0  0  0
  6 12  1  0  0  0  0
  6 36  1  0  0  0  0
  6 19  1  1  0  0  0
  7  8  1  6  0  0  0
  7 14  1  0  0  0  0
  9 16  1  0  0  0  0
 10 11  1  6  0  0  0
 10 18  1  0  0  0  0
 12 13  1  6  0  0  0
 12 20  1  0  0  0  0
 14 15  1  1  0  0  0
 14 22  1  0  0  0  0
 16 17  1  1  0  0  0
 16 24  1  0  0  0  0
 18 19  1  6  0  0  0
 18 25  1  0  0  0  0
 20 21  1  1  0  0  0
 20 27  1  0  0  0  0
 22 23  1  6  0  0  0
 22 29  1  0  0  0  0
 24  2  1  1  0  0  0
 24 31  1  0  0  0  0
 25 26  1  0  0  0  0
 25 33  1  1  0  0  0
 27 28  1  1  0  0  0
 27 35  1  0  0  0  0
 29 30  1  0  0  0  0
 29 37  1  1  0  0  0
 31 32  1  6  0  0  0
 31 39  1  0  0  0  0
 33 34  1  0  0  0  0
 35 36  1  0  0  0  0
 35 41  1  6  0  0  0
 37 38  1  0  0  0  0
 39 40  1  6  0  0  0
 41 42  1  0  0  0  0
M  END
>  <CHROM.1>
-92.37169118,-40.00927617,-45.23661621,-57.56824059,-61.58675163,150.91521566
105.73288832,-95.63133959,-38.05912664,12.66749283,11.07931768,-10.41422005
-2.72219958,1.16697538,-1.26307574

>  <Name>
ligand

>  <RI>
0

>  <Rbt.Current_Directory>
/home/itssahil/PROJECTS/Mol_Feturizer/Test_systems_manuscript/rnas/2o3w

>  <Rbt.Executable>
rbdock ($Id: //depot/dev/client3/rdock/2013.1/src/exe/rbdock.cxx#4 $)

>  <Rbt.Library>
libRbt.so (2013.1, Build901 2013/11/27)

>  <Rbt.Parameter_File>
/export/apps/rDock/src/rDock_2013.1_src/data/scripts/dock_solv.prm

>  <Rbt.Receptor>
prm/blind_docking_80.prm

>  <SCORE>
26.8019

>  <SCORE.INTER>
7.15748

>  <SCORE.INTER.CONST>
1

>  <SCORE.INTER.POLAR>
0

>  <SCORE.INTER.ROT>
9

>  <SCORE.INTER.SOLV>
34.4998

>  <SCORE.INTER.VDW>
-16.3283

>  <SCORE.INTER.norm>
0.170416

>  <SCORE.INTRA>
9.45039

>  <SCORE.INTRA.DIHEDRAL>
-5.92885

>  <SCORE.INTRA.DIHEDRAL.0>
27.8999

>  <SCORE.INTRA.POLAR>
0

>  <SCORE.INTRA.POLAR.0>
0

>  <SCORE.INTRA.REPUL>
0

>  <SCORE.INTRA.REPUL.0>
0

>  <SCORE.INTRA.SOLV>
5.73601

>  <SCORE.INTRA.SOLV.lig_0>
-104.479

>  <SCORE.INTRA.VDW>
9.54681

>  <SCORE.INTRA.VDW.0>
-6.17816

>  <SCORE.INTRA.norm>
0.225009

>  <SCORE.RESTR>
10.1941

>  <SCORE.RESTR.CAVITY>
10.1941

>  <SCORE.RESTR.norm>
0.242716

>  <SCORE.SYSTEM>
0

>  <SCORE.SYSTEM.CONST>
0

>  <SCORE.SYSTEM.DIHEDRAL>
0

>  <SCORE.SYSTEM.SOLV>
0

>  <SCORE.SYSTEM.norm>
0

>  <SCORE.heavy>
42

>  <SCORE.norm>
0.638142

>  <RMSD>
18.410

$$$$
ligand
 OpenBabel02271912133D
libRbt.so/2013.1/901 2013/11/27
 42 45  0  0  0  0  0  0  0  0999 V2000
   12.2240   11.4357   -8.0113 C   0  0  2  0  0  0  0  0  0  0  0  0
   13.1182   11.9096   -9.0327 O   0  0  0  0  0  0  0  0  0  0  0  0
   14.0697   10.1148  -12.8628 C   0  0  2  0  0  0  0  0  0  0  0  0
   13.9829    9.6300  -14.2727 N   0  0  0  0  0  0  0  0  0  0  0  0
   12.0094   13.9177  -11.6833 C   0  0  1  0  0  0  0  0  0  0  0  0
    8.6656   16.2957  -11.3494 C   0  0  1  0  0  0  0  0  0  0  0  0
   11.6122   12.6929   -7.3231 C   0  0  2  0  0  0  0  0  0  0  0  0
   11.0754   13.6620   -8.2943 N   0  0  0  0  0  0  0  0  0  0  0  0
   13.0412    9.3564  -11.9306 C   0  0  0  0  0  0  0  0  0  0  0  0
   11.6257   15.3858  -11.3253 C   0  0  2  0  0  0  0  0  0  0  0  0
   10.9989   15.5313  -10.0273 O   0  0  0  0  0  0  0  0  0  0  0  0
    7.4744   15.5999  -10.5974 C   0  0  2  0  0  0  0  0  0  0  0  0
    6.4889   15.0345  -11.5670 N   0  0  0  0  0  0  0  0  0  0  0  0
   12.6427   13.4484   -6.4640 C   0  0  1  0  0  0  0  0  0  0  0  0
   12.0300   14.5679   -5.8221 O   0  0  0  0  0  0  0  0  0  0  0  0
   13.1956    9.8934  -10.4575 C   0  0  2  0  0  0  0  0  0  0  0  0
   12.2509    9.1898   -9.5486 N   0  0  0  0  0  0  0  0  0  0  0  0
   10.7585   15.7674  -12.5260 C   0  0  2  0  0  0  0  0  0  0  0  0
    9.3479   15.4580  -12.2909 O   0  0  0  0  0  0  0  0  0  0  0  0
    6.7761   16.6591   -9.6188 C   0  0  1  0  0  0  0  0  0  0  0  0
    7.6412   16.8875   -8.4838 O   0  0  0  0  0  0  0  0  0  0  0  0
   13.2656   12.4786   -5.4341 C   0  0  2  0  0  0  0  0  0  0  0  0
   14.1994   13.1592   -4.6283 O   0  0  0  0  0  0  0  0  0  0  0  0
   12.9263   11.4491  -10.4007 C   0  0  2  0  0  0  0  0  0  0  0  0
   11.3122   14.9712  -13.7197 C   0  0  2  0  0  0  0  0  0  0  0  0
   11.8112   13.7833  -13.1095 O   0  0  0  0  0  0  0  0  0  0  0  0
    6.4567   18.0545  -10.3387 C   0  0  2  0  0  0  0  0  0  0  0  0
    5.4131   17.8228  -11.2841 O   0  0  0  0  0  0  0  0  0  0  0  0
   13.9509   11.2958   -6.1962 C   0  0  2  0  0  0  0  0  0  0  0  0
   12.9643   10.6118   -7.0321 O   0  0  0  0  0  0  0  0  0  0  0  0
   13.8597   12.2528  -11.3324 C   0  0  2  0  0  0  0  0  0  0  0  0
   13.3558   13.6163  -11.2942 O   0  0  0  0  0  0  0  0  0  0  0  0
   12.4288   15.6960  -14.5333 C   0  0  0  0  0  0  0  0  0  0  0  0
   13.5383   15.9579  -13.6793 O   0  0  0  0  0  0  0  0  0  0  0  0
    7.7385   18.6105  -11.0668 C   0  0  1  0  0  0  0  0  0  0  0  0
    8.1606   17.5610  -12.0105 O   0  0  0  0  0  0  0  0  0  0  0  0
   14.5838   10.2909   -5.2616 C   0  0  0  0  0  0  0  0  0  0  0  0
   15.6042   10.9027   -4.5108 O   0  0  0  0  0  0  0  0  0  0  0  0
   13.7969   11.6714  -12.8068 C   0  0  1  0  0  0  0  0  0  0  0  0
   14.7707   12.3153  -13.6330 O   0  0  0  0  0  0  0  0  0  0  0  0
    7.5018   19.9806  -11.8384 C   0  0  0  0  0  0  0  0  0  0  0  0
    6.9456   21.0918  -11.0184 N   0  0  0  0  0  0  0  0  0  0  0  0
  1  2  1  6  0  0  0
  1  7  1  0  0  0  0
  1 30  1  0  0  0  0
  3  4  1  6  0  0  0
  3  9  1  0  0  0  0
  3 39  1  0  0  0  0
  5 10  1  0  0  0  0
  5 26  1  0  0  0  0
  5 32  1  6  0  0  0
  6 12  1  0  0  0  0
  6 36  1  0  0  0  0
  6 19  1  6  0  0  0
  7  8  1  6  0  0  0
  7 14  1  0  0  0  0
  9 16  1  0  0  0  0
 10 11  1  1  0  0  0
 10 18  1  0  0  0  0
 12 13  1  6  0  0  0
 12 20  1  0  0  0  0
 14 15  1  1  0  0  0
 14 22  1  0  0  0  0
 16 17  1  1  0  0  0
 16 24  1  0  0  0  0
 18 19  1  1  0  0  0
 18 25  1  0  0  0  0
 20 21  1  1  0  0  0
 20 27  1  0  0  0  0
 22 23  1  6  0  0  0
 22 29  1  0  0  0  0
 24  2  1  1  0  0  0
 24 31  1  0  0  0  0
 25 26  1  0  0  0  0
 25 33  1  1  0  0  0
 27 28  1  6  0  0  0
 27 35  1  0  0  0  0
 29 30  1  0  0  0  0
 29 37  1  1  0  0  0
 31 32  1  6  0  0  0
 31 39  1  0  0  0  0
 33 34  1  0  0  0  0
 35 36  1  0  0  0  0
 35 41  1  6  0  0  0
 37 38  1  0  0  0  0
 39 40  1  6  0  0  0
 41 42  1  0  0  0  0
M  END
>  <CHROM.1>
-124.73722341,-65.17921715,71.69727329,-151.60968459,60.65134257,-62.24173245
-58.67808243,170.05677684,55.15179289,11.34026697,13.97360764,-10.18578668
0.37299503,-0.81451525,1.62775088

>  <Name>
ligand

>  <RI>
0

>  <Rbt.Current_Directory>
/home/itssahil/PROJECTS/Mol_Feturizer/Test_systems_manuscript/rnas/2o3w

>  <Rbt.Executable>
rbdock ($Id: //depot/dev/client3/rdock/2013.1/src/exe/rbdock.cxx#4 $)

>  <Rbt.Library>
libRbt.so (2013.1, Build901 2013/11/27)

>  <Rbt.Parameter_File>
/export/apps/rDock/src/rDock_2013.1_src/data/scripts/dock_solv.prm

>  <Rbt.Receptor>
prm/blind_docking_100.prm

>  <SCORE>
-2.1612

>  <SCORE.INTER>
-6.46351

>  <SCORE.INTER.CONST>
1

>  <SCORE.INTER.POLAR>
0

>  <SCORE.INTER.ROT>
9

>  <SCORE.INTER.SOLV>
21.0453

>  <SCORE.INTER.VDW>
-20.9241

>  <SCORE.INTER.norm>
-0.153893

>  <SCORE.INTRA>
-4.76991

>  <SCORE.INTRA.DIHEDRAL>
-16.0467

>  <SCORE.INTRA.DIHEDRAL.0>
27.8999

>  <SCORE.INTRA.POLAR>
0

>  <SCORE.INTRA.POLAR.0>
0

>  <SCORE.INTRA.REPUL>
0.0494934

>  <SCORE.INTRA.REPUL.0>
0

>  <SCORE.INTRA.SOLV>
0.276746

>  <SCORE.INTRA.SOLV.lig_0>
-104.479

>  <SCORE.INTRA.VDW>
2.86762

>  <SCORE.INTRA.VDW.0>
-6.17816

>  <SCORE.INTRA.norm>
-0.113569

>  <SCORE.RESTR>
9.07222

>  <SCORE.RESTR.CAVITY>
9.07222

>  <SCORE.RESTR.norm>
0.216005

>  <SCORE.SYSTEM>
0

>  <SCORE.SYSTEM.CONST>
0

>  <SCORE.SYSTEM.DIHEDRAL>
0

>  <SCORE.SYSTEM.SOLV>
0

>  <SCORE.SYSTEM.norm>
0

>  <SCORE.heavy>
42

>  <SCORE.norm>
-0.051457

>  <RMSD>
18.414

$$$$
ligand
 OpenBabel02271912133D
libRbt.so/2013.1/901 2013/11/27
 42 45  0  0  0  0  0  0  0  0999 V2000
   12.6097   10.7794   -8.5462 C   0  0  2  0  0  0  0  0  0  0  0  0
   11.9335   11.2036   -9.7421 O   0  0  0  0  0  0  0  0  0  0  0  0
   15.0368   10.1112  -12.5656 C   0  0  2  0  0  0  0  0  0  0  0  0
   15.8183    9.9187  -13.8236 N   0  0  0  0  0  0  0  0  0  0  0  0
   12.0388   13.5997  -11.4312 C   0  0  1  0  0  0  0  0  0  0  0  0
    8.6971   16.0185  -11.1651 C   0  0  1  0  0  0  0  0  0  0  0  0
   11.5087   10.3804   -7.5182 C   0  0  2  0  0  0  0  0  0  0  0  0
   10.5088    9.4623   -8.0907 N   0  0  0  0  0  0  0  0  0  0  0  0
   13.6927    9.2779  -12.5916 C   0  0  0  0  0  0  0  0  0  0  0  0
   11.6593   15.0699  -11.0772 C   0  0  2  0  0  0  0  0  0  0  0  0
   11.0163   15.2183   -9.7874 O   0  0  0  0  0  0  0  0  0  0  0  0
    7.1322   15.8835  -11.2069 C   0  0  2  0  0  0  0  0  0  0  0  0
    6.6153   16.0951  -12.5921 N   0  0  0  0  0  0  0  0  0  0  0  0
   10.7372   11.6016   -6.9848 C   0  0  1  0  0  0  0  0  0  0  0  0
    9.7674   11.1939   -6.0183 O   0  0  0  0  0  0  0  0  0  0  0  0
   12.9261    9.5034  -11.2337 C   0  0  2  0  0  0  0  0  0  0  0  0
   11.6608    8.7209  -11.2177 N   0  0  0  0  0  0  0  0  0  0  0  0
   10.8104   15.4575  -12.2890 C   0  0  2  0  0  0  0  0  0  0  0  0
    9.3950   15.1566  -12.0727 O   0  0  0  0  0  0  0  0  0  0  0  0
    6.4836   16.9324  -10.1841 C   0  0  1  0  0  0  0  0  0  0  0  0
    6.7026   16.4651   -8.8341 O   0  0  0  0  0  0  0  0  0  0  0  0
   11.7343   12.6212   -6.3886 C   0  0  2  0  0  0  0  0  0  0  0  0
   11.0421   13.7380   -5.8806 O   0  0  0  0  0  0  0  0  0  0  0  0
   12.6044   11.0358  -11.0235 C   0  0  2  0  0  0  0  0  0  0  0  0
   11.3750   14.6587  -13.4758 C   0  0  2  0  0  0  0  0  0  0  0  0
   11.8587   13.4674  -12.8599 O   0  0  0  0  0  0  0  0  0  0  0  0
    7.0838   18.4095  -10.3440 C   0  0  2  0  0  0  0  0  0  0  0  0
    6.6294   18.9263  -11.5942 O   0  0  0  0  0  0  0  0  0  0  0  0
   12.7458   13.0564   -7.5008 C   0  0  2  0  0  0  0  0  0  0  0  0
   13.4441   11.8798   -8.0183 O   0  0  0  0  0  0  0  0  0  0  0  0
   13.8695   11.9215  -11.0433 C   0  0  2  0  0  0  0  0  0  0  0  0
   13.3781   13.2899  -11.0245 O   0  0  0  0  0  0  0  0  0  0  0  0
   12.5067   15.3773  -14.2740 C   0  0  0  0  0  0  0  0  0  0  0  0
   12.0303   16.6386  -14.7334 O   0  0  0  0  0  0  0  0  0  0  0  0
    8.6585   18.3766  -10.3075 C   0  0  1  0  0  0  0  0  0  0  0  0
    9.0740   17.4677  -11.3900 O   0  0  0  0  0  0  0  0  0  0  0  0
   13.7663   14.0527   -7.0011 C   0  0  0  0  0  0  0  0  0  0  0  0
   14.5495   13.4761   -5.9845 O   0  0  0  0  0  0  0  0  0  0  0  0
   14.7127   11.6450  -12.3579 C   0  0  1  0  0  0  0  0  0  0  0  0
   15.9557   12.3505  -12.3044 O   0  0  0  0  0  0  0  0  0  0  0  0
    9.3405   19.8009  -10.4937 C   0  0  0  0  0  0  0  0  0  0  0  0
   10.7951   19.7801  -10.8103 N   0  0  0  0  0  0  0  0  0  0  0  0
  1  2  1  6  0  0  0
  1  7  1  0  0  0  0
  1 30  1  0  0  0  0
  3  4  1  6  0  0  0
  3  9  1  0  0  0  0
  3 39  1  0  0  0  0
  5 10  1  0  0  0  0
  5 26  1  0  0  0  0
  5 32  1  6  0  0  0
  6 12  1  0  0  0  0
  6 36  1  0  0  0  0
  6 19  1  6  0  0  0
  7  8  1  6  0  0  0
  7 14  1  0  0  0  0
  9 16  1  0  0  0  0
 10 11  1  1  0  0  0
 10 18  1  0  0  0  0
 12 13  1  6  0  0  0
 12 20  1  0  0  0  0
 14 15  1  1  0  0  0
 14 22  1  0  0  0  0
 16 17  1  6  0  0  0
 16 24  1  0  0  0  0
 18 19  1  1  0  0  0
 18 25  1  0  0  0  0
 20 21  1  1  0  0  0
 20 27  1  0  0  0  0
 22 23  1  6  0  0  0
 22 29  1  0  0  0  0
 24  2  1  1  0  0  0
 24 31  1  0  0  0  0
 25 26  1  0  0  0  0
 25 33  1  1  0  0  0
 27 28  1  6  0  0  0
 27 35  1  0  0  0  0
 29 30  1  0  0  0  0
 29 37  1  1  0  0  0
 31 32  1  6  0  0  0
 31 39  1  0  0  0  0
 33 34  1  0  0  0  0
 35 36  1  0  0  0  0
 35 41  1  6  0  0  0
 37 38  1  0  0  0  0
 39 40  1  1  0  0  0
 41 42  1  0  0  0  0
M  END
>  <CHROM.1>
-151.39906411,59.05655148,73.20086485,166.53868764,-56.43954760,62.48774759
-20.77260748,169.38383627,-165.09071402,11.28287176,13.84270628,-10.40683719
0.47392855,-0.82627727,2.04329363

>  <Name>
ligand

>  <RI>
0

>  <Rbt.Current_Directory>
/home/itssahil/PROJECTS/Mol_Feturizer/Test_systems_manuscript/rnas/2o3w

>  <Rbt.Executable>
rbdock ($Id: //depot/dev/client3/rdock/2013.1/src/exe/rbdock.cxx#4 $)

>  <Rbt.Library>
libRbt.so (2013.1, Build901 2013/11/27)

>  <Rbt.Parameter_File>
/export/apps/rDock/src/rDock_2013.1_src/data/scripts/dock_solv.prm

>  <Rbt.Receptor>
prm/blind_docking_80.prm

>  <SCORE>
5.45356

>  <SCORE.INTER>
1.0214

>  <SCORE.INTER.CONST>
1

>  <SCORE.INTER.POLAR>
0

>  <SCORE.INTER.ROT>
9

>  <SCORE.INTER.SOLV>
27.9438

>  <SCORE.INTER.VDW>
-18.2337

>  <SCORE.INTER.norm>
0.024319

>  <SCORE.INTRA>
-5.46202

>  <SCORE.INTRA.DIHEDRAL>
-16.0981

>  <SCORE.INTRA.DIHEDRAL.0>
27.8999

>  <SCORE.INTRA.POLAR>
0

>  <SCORE.INTRA.POLAR.0>
0

>  <SCORE.INTRA.REPUL>
0

>  <SCORE.INTRA.REPUL.0>
0

>  <SCORE.INTRA.SOLV>
-3.09565

>  <SCORE.INTRA.SOLV.lig_0>
-104.479

>  <SCORE.INTRA.VDW>
4.13487

>  <SCORE.INTRA.VDW.0>
-6.17816

>  <SCORE.INTRA.norm>
-0.130048

>  <SCORE.RESTR>
9.89418

>  <SCORE.RESTR.CAVITY>
9.89418

>  <SCORE.RESTR.norm>
0.235576

>  <SCORE.SYSTEM>
0

>  <SCORE.SYSTEM.CONST>
0

>  <SCORE.SYSTEM.DIHEDRAL>
0

>  <SCORE.SYSTEM.SOLV>
0

>  <SCORE.SYSTEM.norm>
0

>  <SCORE.heavy>
42

>  <SCORE.norm>
0.129847

>  <RMSD>
18.438

$$$$
ligand
 OpenBabel02271912133D
libRbt.so/2013.1/901 2013/11/27
 42 45  0  0  0  0  0  0  0  0999 V2000
   12.3491   11.5845   -7.8133 C   0  0  2  0  0  0  0  0  0  0  0  0
   13.0395   12.1135   -8.9582 O   0  0  0  0  0  0  0  0  0  0  0  0
   14.1475    9.7089  -12.3913 C   0  0  2  0  0  0  0  0  0  0  0  0
   14.1187    8.9941  -13.7023 N   0  0  0  0  0  0  0  0  0  0  0  0
   11.9854   13.6522  -11.7501 C   0  0  1  0  0  0  0  0  0  0  0  0
    8.6382   15.9589  -11.3030 C   0  0  1  0  0  0  0  0  0  0  0  0
   11.4344   12.7221   -7.2679 C   0  0  2  0  0  0  0  0  0  0  0  0
   10.6151   13.3419   -8.3239 N   0  0  0  0  0  0  0  0  0  0  0  0
   13.0815    9.1104  -11.3877 C   0  0  0  0  0  0  0  0  0  0  0  0
   11.5945   15.1421  -11.5088 C   0  0  2  0  0  0  0  0  0  0  0  0
   11.0870   15.4102  -10.1785 O   0  0  0  0  0  0  0  0  0  0  0  0
    7.0671   15.9425  -11.2886 C   0  0  2  0  0  0  0  0  0  0  0  0
    6.5182   16.2264  -12.6484 N   0  0  0  0  0  0  0  0  0  0  0  0
   12.2416   13.8554   -6.6084 C   0  0  1  0  0  0  0  0  0  0  0  0
   11.3629   14.8547   -6.0887 O   0  0  0  0  0  0  0  0  0  0  0  0
   13.1752    9.8877  -10.0204 C   0  0  2  0  0  0  0  0  0  0  0  0
   12.1938    9.3399   -9.0455 N   0  0  0  0  0  0  0  0  0  0  0  0
   10.6089   15.3798  -12.6540 C   0  0  2  0  0  0  0  0  0  0  0  0
    9.2357   15.0699  -12.2551 O   0  0  0  0  0  0  0  0  0  0  0  0
    6.5371   17.0114  -10.2193 C   0  0  1  0  0  0  0  0  0  0  0  0
    6.7685   16.4957   -8.8891 O   0  0  0  0  0  0  0  0  0  0  0  0
   13.1457   13.2676   -5.5010 C   0  0  2  0  0  0  0  0  0  0  0  0
   13.8793   14.2950   -4.8759 O   0  0  0  0  0  0  0  0  0  0  0  0
   12.9040   11.4290  -10.2363 C   0  0  2  0  0  0  0  0  0  0  0  0
   11.0720   14.4741  -13.8075 C   0  0  2  0  0  0  0  0  0  0  0  0
   11.6596   13.3661  -13.1296 O   0  0  0  0  0  0  0  0  0  0  0  0
    7.2412   18.4429  -10.3693 C   0  0  2  0  0  0  0  0  0  0  0  0
    6.7826   19.0230  -11.5897 O   0  0  0  0  0  0  0  0  0  0  0  0
   14.1076   12.2086   -6.1358 C   0  0  2  0  0  0  0  0  0  0  0  0
   13.3233   11.1589   -6.7860 O   0  0  0  0  0  0  0  0  0  0  0  0
   13.8750   12.0716  -11.2509 C   0  0  2  0  0  0  0  0  0  0  0  0
   13.3702   13.4188  -11.4623 O   0  0  0  0  0  0  0  0  0  0  0  0
   12.0870   15.1312  -14.7935 C   0  0  0  0  0  0  0  0  0  0  0  0
   13.1072   15.7897  -14.0489 O   0  0  0  0  0  0  0  0  0  0  0  0
    8.8092   18.2913  -10.3930 C   0  0  1  0  0  0  0  0  0  0  0  0
    9.1154   17.3810  -11.5101 O   0  0  0  0  0  0  0  0  0  0  0  0
   15.0278   11.5751   -5.1181 C   0  0  0  0  0  0  0  0  0  0  0  0
   15.9639   10.7448   -5.7613 O   0  0  0  0  0  0  0  0  0  0  0  0
   13.8728   11.2509  -12.6082 C   0  0  1  0  0  0  0  0  0  0  0  0
   14.8799   11.7539  -13.4905 O   0  0  0  0  0  0  0  0  0  0  0  0
    9.5900   19.6648  -10.5734 C   0  0  0  0  0  0  0  0  0  0  0  0
    9.8110   20.4466   -9.3258 N   0  0  0  0  0  0  0  0  0  0  0  0
  1  2  1  6  0  0  0
  1  7  1  0  0  0  0
  1 30  1  0  0  0  0
  3  4  1  6  0  0  0
  3  9  1  0  0  0  0
  3 39  1  0  0  0  0
  5 10  1  0  0  0  0
  5 26  1  0  0  0  0
  5 32  1  6  0  0  0
  6 12  1  0  0  0  0
  6 36  1  0  0  0  0
  6 19  1  6  0  0  0
  7  8  1  6  0  0  0
  7 14  1  0  0  0  0
  9 16  1  0  0  0  0
 10 11  1  1  0  0  0
 10 18  1  0  0  0  0
 12 13  1  6  0  0  0
 12 20  1  0  0  0  0
 14 15  1  1  0  0  0
 14 22  1  0  0  0  0
 16 17  1  1  0  0  0
 16 24  1  0  0  0  0
 18 19  1  1  0  0  0
 18 25  1  0  0  0  0
 20 21  1  1  0  0  0
 20 27  1  0  0  0  0
 22 23  1  6  0  0  0
 22 29  1  0  0  0  0
 24  2  1  1  0  0  0
 24 31  1  0  0  0  0
 25 26  1  0  0  0  0
 25 33  1  6  0  0  0
 27 28  1  6  0  0  0
 27 35  1  0  0  0  0
 29 30  1  0  0  0  0
 29 37  1  1  0  0  0
 31 32  1  6  0  0  0
 31 39  1  0  0  0  0
 33 34  1  0  0  0  0
 35 36  1  0  0  0  0
 35 41  1  6  0  0  0
 37 38  1  0  0  0  0
 39 40  1  6  0  0  0
 41 42  1  0  0  0  0
M  END
>  <CHROM.1>
-122.88542173,-49.33747289,69.33850579,158.55159029,46.60161453,-173.58247580
-48.93834099,162.62635708,83.65082207,11.47789830,13.99864319,-10.15736359
0.18204323,-0.87725700,1.44124181

>  <Name>
ligand

>  <RI>
0

>  <Rbt.Current_Directory>
/home/itssahil/PROJECTS/Mol_Feturizer/Test_systems_manuscript/rnas/2o3w

>  <Rbt.Executable>
rbdock ($Id: //depot/dev/client3/rdock/2013.1/src/exe/rbdock.cxx#4 $)

>  <Rbt.Library>
libRbt.so (2013.1, Build901 2013/11/27)

>  <Rbt.Parameter_File>
/export/apps/rDock/src/rDock_2013.1_src/data/scripts/dock_solv.prm

>  <Rbt.Receptor>
prm/blind_docking_80.prm

>  <SCORE>
3.37077

>  <SCORE.INTER>
-5.38732

>  <SCORE.INTER.CONST>
1

>  <SCORE.INTER.POLAR>
0

>  <SCORE.INTER.ROT>
9

>  <SCORE.INTER.SOLV>
23.1166

>  <SCORE.INTER.VDW>
-20.8971

>  <SCORE.INTER.norm>
-0.128269

>  <SCORE.INTRA>
-2.40233

>  <SCORE.INTRA.DIHEDRAL>
-13.0814

>  <SCORE.INTRA.DIHEDRAL.0>
27.8999

>  <SCORE.INTRA.POLAR>
0

>  <SCORE.INTRA.POLAR.0>
0

>  <SCORE.INTRA.REPUL>
0.0270574

>  <SCORE.INTRA.REPUL.0>
0

>  <SCORE.INTRA.SOLV>
-0.942571

>  <SCORE.INTRA.SOLV.lig_0>
-104.479

>  <SCORE.INTRA.VDW>
4.47439

>  <SCORE.INTRA.VDW.0>
-6.17816

>  <SCORE.INTRA.norm>
-0.0571984

>  <SCORE.RESTR>
11.1604

>  <SCORE.RESTR.CAVITY>
11.1604

>  <SCORE.RESTR.norm>
0.265724

>  <SCORE.SYSTEM>
0

>  <SCORE.SYSTEM.CONST>
0

>  <SCORE.SYSTEM.DIHEDRAL>
0

>  <SCORE.SYSTEM.SOLV>
0

>  <SCORE.SYSTEM.norm>
0

>  <SCORE.heavy>
42

>  <SCORE.norm>
0.0802564

>  <RMSD>
18.443

$$$$
ligand
 OpenBabel02271912133D
libRbt.so/2013.1/901 2013/11/27
 42 45  0  0  0  0  0  0  0  0999 V2000
   12.6681   13.2968  -11.4694 C   0  0  2  0  0  0  0  0  0  0  0  0
   12.8740   12.2612  -12.4453 O   0  0  0  0  0  0  0  0  0  0  0  0
   15.1509    8.6074  -12.9568 C   0  0  2  0  0  0  0  0  0  0  0  0
   15.9797    7.3935  -12.6926 N   0  0  0  0  0  0  0  0  0  0  0  0
   12.0923    9.6149   -9.9499 C   0  0  1  0  0  0  0  0  0  0  0  0
   13.7136   10.8208   -6.5844 C   0  0  1  0  0  0  0  0  0  0  0  0
   11.1361   13.3622  -11.1917 C   0  0  2  0  0  0  0  0  0  0  0  0
   10.5583   12.0379  -10.9037 N   0  0  0  0  0  0  0  0  0  0  0  0
   15.9502    9.9314  -12.6253 C   0  0  0  0  0  0  0  0  0  0  0  0
   12.2812   10.9455   -9.1595 C   0  0  2  0  0  0  0  0  0  0  0  0
   13.6585   11.3858   -9.0675 O   0  0  0  0  0  0  0  0  0  0  0  0
   14.6126   10.2628   -5.4228 C   0  0  2  0  0  0  0  0  0  0  0  0
   13.8132   10.0678   -4.1763 N   0  0  0  0  0  0  0  0  0  0  0  0
   10.3506   13.9407  -12.3830 C   0  0  1  0  0  0  0  0  0  0  0  0
    8.9589   14.0190  -12.0702 O   0  0  0  0  0  0  0  0  0  0  0  0
   15.0348   11.1735  -12.9443 C   0  0  2  0  0  0  0  0  0  0  0  0
   15.7618   12.4394  -12.6570 N   0  0  0  0  0  0  0  0  0  0  0  0
   11.6062   10.6003   -7.8311 C   0  0  2  0  0  0  0  0  0  0  0  0
   12.5566   10.0275   -6.8775 O   0  0  0  0  0  0  0  0  0  0  0  0
   15.8351   11.2673   -5.1713 C   0  0  1  0  0  0  0  0  0  0  0  0
   16.7804   11.1337   -6.2564 O   0  0  0  0  0  0  0  0  0  0  0  0
   10.9244   15.3269  -12.7548 C   0  0  2  0  0  0  0  0  0  0  0  0
   10.2050   15.8776  -13.8335 O   0  0  0  0  0  0  0  0  0  0  0  0
   13.7061   11.1199  -12.0912 C   0  0  2  0  0  0  0  0  0  0  0  0
   10.4871    9.6015   -8.1706 C   0  0  2  0  0  0  0  0  0  0  0  0
   11.0060    8.9112   -9.3049 O   0  0  0  0  0  0  0  0  0  0  0  0
   15.3695   12.7959   -5.0512 C   0  0  2  0  0  0  0  0  0  0  0  0
   14.6455   12.9311   -3.8289 O   0  0  0  0  0  0  0  0  0  0  0  0
   12.4380   15.1713  -13.1214 C   0  0  2  0  0  0  0  0  0  0  0  0
   13.1608   14.5895  -11.9905 O   0  0  0  0  0  0  0  0  0  0  0  0
   12.8984    9.8239  -12.3216 C   0  0  2  0  0  0  0  0  0  0  0  0
   11.8286    9.8605  -11.3374 O   0  0  0  0  0  0  0  0  0  0  0  0
    9.1035   10.2474   -8.4913 C   0  0  0  0  0  0  0  0  0  0  0  0
    8.7527    9.9618   -9.8419 O   0  0  0  0  0  0  0  0  0  0  0  0
   14.4581   13.1969   -6.2721 C   0  0  1  0  0  0  0  0  0  0  0  0
   13.3289   12.2507   -6.2679 O   0  0  0  0  0  0  0  0  0  0  0  0
   13.0843   16.4857  -13.4935 C   0  0  0  0  0  0  0  0  0  0  0  0
   12.3396   17.1238  -14.5023 O   0  0  0  0  0  0  0  0  0  0  0  0
   13.8228    8.5542  -12.1001 C   0  0  1  0  0  0  0  0  0  0  0  0
   13.1187    7.3624  -12.4597 O   0  0  0  0  0  0  0  0  0  0  0  0
   13.9218   14.6929   -6.2161 C   0  0  0  0  0  0  0  0  0  0  0  0
   12.5438   14.9012   -6.7398 N   0  0  0  0  0  0  0  0  0  0  0  0
  1  2  1  6  0  0  0
  1  7  1  0  0  0  0
  1 30  1  0  0  0  0
  3  4  1  1  0  0  0
  3  9  1  0  0  0  0
  3 39  1  0  0  0  0
  5 10  1  0  0  0  0
  5 26  1  0  0  0  0
  5 32  1  6  0  0  0
  6 12  1  0  0  0  0
  6 36  1  0  0  0  0
  6 19  1  1  0  0  0
  7  8  1  6  0  0  0
  7 14  1  0  0  0  0
  9 16  1  0  0  0  0
 10 11  1  1  0  0  0
 10 18  1  0  0  0  0
 12 13  1  1  0  0  0
 12 20  1  0  0  0  0
 14 15  1  1  0  0  0
 14 22  1  0  0  0  0
 16 17  1  1  0  0  0
 16 24  1  0  0  0  0
 18 19  1  1  0  0  0
 18 25  1  0  0  0  0
 20 21  1  6  0  0  0
 20 27  1  0  0  0  0
 22 23  1  6  0  0  0
 22 29  1  0  0  0  0
 24  2  1  6  0  0  0
 24 31  1  0  0  0  0
 25 26  1  0  0  0  0
 25 33  1  6  0  0  0
 27 28  1  1  0  0  0
 27 35  1  0  0  0  0
 29 30  1  0  0  0  0
 29 37  1  1  0  0  0
 31 32  1  1  0  0  0
 31 39  1  0  0  0  0
 33 34  1  0  0  0  0
 35 36  1  0  0  0  0
 35 41  1  1  0  0  0
 37 38  1  0  0  0  0
 39 40  1  6  0  0  0
 41 42  1  0  0  0  0
M  END
>  <CHROM.1>
-119.34490244,-111.73663413,56.07817807,172.42508605,116.31967593,-52.98566785
-73.69045045,96.22182881,-144.16368861,12.88641337,11.81100977,-9.88877131
2.55791482,1.24317353,-2.19601809

>  <Name>
ligand

>  <RI>
0

>  <Rbt.Current_Directory>
/home/itssahil/PROJECTS/Mol_Feturizer/Test_systems_manuscript/rnas/2o3w

>  <Rbt.Executable>
rbdock ($Id: //depot/dev/client3/rdock/2013.1/src/exe/rbdock.cxx#4 $)

>  <Rbt.Library>
libRbt.so (2013.1, Build901 2013/11/27)

>  <Rbt.Parameter_File>
/export/apps/rDock/src/rDock_2013.1_src/data/scripts/dock_solv.prm

>  <Rbt.Receptor>
prm/blind_docking_80.prm

>  <SCORE>
24.9054

>  <SCORE.INTER>
11.3148

>  <SCORE.INTER.CONST>
1

>  <SCORE.INTER.POLAR>
0

>  <SCORE.INTER.ROT>
9

>  <SCORE.INTER.SOLV>
37.4711

>  <SCORE.INTER.VDW>
-14.5472

>  <SCORE.INTER.norm>
0.2694

>  <SCORE.INTRA>
6.27231

>  <SCORE.INTRA.DIHEDRAL>
1.01459

>  <SCORE.INTRA.DIHEDRAL.0>
27.8999

>  <SCORE.INTRA.POLAR>
0

>  <SCORE.INTRA.POLAR.0>
0

>  <SCORE.INTRA.REPUL>
0.0164378

>  <SCORE.INTRA.REPUL.0>
0

>  <SCORE.INTRA.SOLV>
3.58572

>  <SCORE.INTRA.SOLV.lig_0>
-104.479

>  <SCORE.INTRA.VDW>
3.88997

>  <SCORE.INTRA.VDW.0>
-6.17816

>  <SCORE.INTRA.norm>
0.149341

>  <SCORE.RESTR>
7.31824

>  <SCORE.RESTR.CAVITY>
7.31824

>  <SCORE.RESTR.norm>
0.174244

>  <SCORE.SYSTEM>
0

>  <SCORE.SYSTEM.CONST>
0

>  <SCORE.SYSTEM.DIHEDRAL>
0

>  <SCORE.SYSTEM.SOLV>
0

>  <SCORE.SYSTEM.norm>
0

>  <SCORE.heavy>
42

>  <SCORE.norm>
0.592985

>  <RMSD>
18.445

$$$$
ligand
 OpenBabel02271912133D
libRbt.so/2013.1/901 2013/11/27
 42 45  0  0  0  0  0  0  0  0999 V2000
   11.5058   11.6723   -8.3566 C   0  0  2  0  0  0  0  0  0  0  0  0
   11.8686   12.3942   -9.5459 O   0  0  0  0  0  0  0  0  0  0  0  0
   14.3785    9.7991  -11.9464 C   0  0  2  0  0  0  0  0  0  0  0  0
   14.9462    9.0171  -13.0851 N   0  0  0  0  0  0  0  0  0  0  0  0
   12.0479   13.9512  -11.9702 C   0  0  1  0  0  0  0  0  0  0  0  0
    8.6378   16.3460  -11.2636 C   0  0  1  0  0  0  0  0  0  0  0  0
   10.7812   12.6809   -7.4154 C   0  0  2  0  0  0  0  0  0  0  0  0
    9.7144   13.4281   -8.1040 N   0  0  0  0  0  0  0  0  0  0  0  0
   12.9442    9.2676  -11.5437 C   0  0  0  0  0  0  0  0  0  0  0  0
   11.6549   15.2877  -11.2702 C   0  0  2  0  0  0  0  0  0  0  0  0
   11.0077   15.1123   -9.9859 O   0  0  0  0  0  0  0  0  0  0  0  0
    7.3843   15.5951  -10.6859 C   0  0  2  0  0  0  0  0  0  0  0  0
    6.4805   15.1418  -11.7852 N   0  0  0  0  0  0  0  0  0  0  0  0
   11.7460   13.7257   -6.8249 C   0  0  1  0  0  0  0  0  0  0  0  0
   11.0479   14.6030   -5.9395 O   0  0  0  0  0  0  0  0  0  0  0  0
   12.4093   10.1142  -10.3272 C   0  0  2  0  0  0  0  0  0  0  0  0
   11.0650    9.6308   -9.9117 N   0  0  0  0  0  0  0  0  0  0  0  0
   10.8054   15.9523  -12.3546 C   0  0  2  0  0  0  0  0  0  0  0  0
    9.3921   15.5966  -12.2243 O   0  0  0  0  0  0  0  0  0  0  0  0
    6.6121   16.5614   -9.6676 C   0  0  1  0  0  0  0  0  0  0  0  0
    7.3804   16.6647   -8.4478 O   0  0  0  0  0  0  0  0  0  0  0  0
   12.9086   13.0051   -6.1049 C   0  0  2  0  0  0  0  0  0  0  0  0
   13.7922   13.9481   -5.5442 O   0  0  0  0  0  0  0  0  0  0  0  0
   12.3279   11.6455  -10.7074 C   0  0  2  0  0  0  0  0  0  0  0  0
   11.3795   15.4713  -13.6979 C   0  0  2  0  0  0  0  0  0  0  0  0
   11.8722   14.1697  -13.3888 O   0  0  0  0  0  0  0  0  0  0  0  0
    6.3611   18.0255  -10.2685 C   0  0  2  0  0  0  0  0  0  0  0  0
    5.3991   17.9025  -11.3153 O   0  0  0  0  0  0  0  0  0  0  0  0
   13.6554   12.0894   -7.1313 C   0  0  2  0  0  0  0  0  0  0  0  0
   12.7160   11.1266   -7.7059 O   0  0  0  0  0  0  0  0  0  0  0  0
   13.6853   12.2215  -11.1665 C   0  0  2  0  0  0  0  0  0  0  0  0
   13.3889   13.5622  -11.6455 O   0  0  0  0  0  0  0  0  0  0  0  0
   12.5067   16.3716  -14.2921 C   0  0  0  0  0  0  0  0  0  0  0  0
   12.7603   15.9810  -15.6382 O   0  0  0  0  0  0  0  0  0  0  0  0
    7.7021   18.6336  -10.8290 C   0  0  1  0  0  0  0  0  0  0  0  0
    8.1963   17.6771  -11.8346 O   0  0  0  0  0  0  0  0  0  0  0  0
   14.8090   11.3380   -6.5082 C   0  0  0  0  0  0  0  0  0  0  0  0
   14.3434   10.5053   -5.4742 O   0  0  0  0  0  0  0  0  0  0  0  0
   14.2945   11.3311  -12.3291 C   0  0  1  0  0  0  0  0  0  0  0  0
   15.6162   11.7742  -12.6492 O   0  0  0  0  0  0  0  0  0  0  0  0
    7.5378   20.0765  -11.4769 C   0  0  0  0  0  0  0  0  0  0  0  0
    6.9524   21.1170  -10.5875 N   0  0  0  0  0  0  0  0  0  0  0  0
  1  2  1  6  0  0  0
  1  7  1  0  0  0  0
  1 30  1  0  0  0  0
  3  4  1  6  0  0  0
  3  9  1  0  0  0  0
  3 39  1  0  0  0  0
  5 10  1  0  0  0  0
  5 26  1  0  0  0  0
  5 32  1  6  0  0  0
  6 12  1  0  0  0  0
  6 36  1  0  0  0  0
  6 19  1  6  0  0  0
  7  8  1  6  0  0  0
  7 14  1  0  0  0  0
  9 16  1  0  0  0  0
 10 11  1  1  0  0  0
 10 18  1  0  0  0  0
 12 13  1  6  0  0  0
 12 20  1  0  0  0  0
 14 15  1  1  0  0  0
 14 22  1  0  0  0  0
 16 17  1  6  0  0  0
 16 24  1  0  0  0  0
 18 19  1  1  0  0  0
 18 25  1  0  0  0  0
 20 21  1  1  0  0  0
 20 27  1  0  0  0  0
 22 23  1  6  0  0  0
 22 29  1  0  0  0  0
 24  2  1  1  0  0  0
 24 31  1  0  0  0  0
 25 26  1  0  0  0  0
 25 33  1  1  0  0  0
 27 28  1  6  0  0  0
 27 35  1  0  0  0  0
 29 30  1  0  0  0  0
 29 37  1  1  0  0  0
 31 32  1  6  0  0  0
 31 39  1  0  0  0  0
 33 34  1  0  0  0  0
 35 36  1  0  0  0  0
 35 41  1  6  0  0  0
 37 38  1  0  0  0  0
 39 40  1  1  0  0  0
 41 42  1  0  0  0  0
M  END
>  <CHROM.1>
-168.20657293,-3.73892795,81.88003829,-154.39533974,-168.39870445,60.53619656
-17.39813533,129.28793970,56.64262462,11.10809008,14.07885348,-10.30106075
0.36342985,-0.79285375,1.79890861

>  <Name>
ligand

>  <RI>
0

>  <Rbt.Current_Directory>
/home/itssahil/PROJECTS/Mol_Feturizer/Test_systems_manuscript/rnas/2o3w

>  <Rbt.Executable>
rbdock ($Id: //depot/dev/client3/rdock/2013.1/src/exe/rbdock.cxx#4 $)

>  <Rbt.Library>
libRbt.so (2013.1, Build901 2013/11/27)

>  <Rbt.Parameter_File>
/export/apps/rDock/src/rDock_2013.1_src/data/scripts/dock_solv.prm

>  <Rbt.Receptor>
prm/blind_docking_100.prm

>  <SCORE>
8.26812

>  <SCORE.INTER>
-5.38375

>  <SCORE.INTER.CONST>
1

>  <SCORE.INTER.POLAR>
0

>  <SCORE.INTER.ROT>
9

>  <SCORE.INTER.SOLV>
17.2384

>  <SCORE.INTER.VDW>
-18.9353

>  <SCORE.INTER.norm>
-0.128184

>  <SCORE.INTRA>
5.60663

>  <SCORE.INTRA.DIHEDRAL>
-2.10533

>  <SCORE.INTRA.DIHEDRAL.0>
27.8999

>  <SCORE.INTRA.POLAR>
0

>  <SCORE.INTRA.POLAR.0>
0

>  <SCORE.INTRA.REPUL>
0

>  <SCORE.INTRA.REPUL.0>
0

>  <SCORE.INTRA.SOLV>
-1.51359

>  <SCORE.INTRA.SOLV.lig_0>
-104.479

>  <SCORE.INTRA.VDW>
7.4161

>  <SCORE.INTRA.VDW.0>
-6.17816

>  <SCORE.INTRA.norm>
0.133491

>  <SCORE.RESTR>
8.04524

>  <SCORE.RESTR.CAVITY>
8.04524

>  <SCORE.RESTR.norm>
0.191553

>  <SCORE.SYSTEM>
0

>  <SCORE.SYSTEM.CONST>
0

>  <SCORE.SYSTEM.DIHEDRAL>
0

>  <SCORE.SYSTEM.SOLV>
0

>  <SCORE.SYSTEM.norm>
0

>  <SCORE.heavy>
42

>  <SCORE.norm>
0.19686

>  <RMSD>
18.470

$$$$
ligand
 OpenBabel02271912133D
libRbt.so/2013.1/901 2013/11/27
 42 45  0  0  0  0  0  0  0  0999 V2000
   11.6887   13.4767   -7.0128 C   0  0  2  0  0  0  0  0  0  0  0  0
   12.0518   13.3050   -8.3934 O   0  0  0  0  0  0  0  0  0  0  0  0
   10.0893   15.7034  -11.4253 C   0  0  2  0  0  0  0  0  0  0  0  0
    9.7821   16.7733  -12.4209 N   0  0  0  0  0  0  0  0  0  0  0  0
   13.5513   12.0265  -11.0460 C   0  0  1  0  0  0  0  0  0  0  0  0
   14.5094    8.9345  -11.6000 C   0  0  1  0  0  0  0  0  0  0  0  0
   13.0135   13.6619   -6.2135 C   0  0  2  0  0  0  0  0  0  0  0  0
   13.8953   14.6793   -6.8117 N   0  0  0  0  0  0  0  0  0  0  0  0
   10.1611   16.2886   -9.9576 C   0  0  0  0  0  0  0  0  0  0  0  0
   13.0394   11.2598   -9.7887 C   0  0  2  0  0  0  0  0  0  0  0  0
   14.0126   11.1648   -8.7196 O   0  0  0  0  0  0  0  0  0  0  0  0
   15.4944    7.7138  -11.6920 C   0  0  2  0  0  0  0  0  0  0  0  0
   16.3698    7.6424  -10.4839 N   0  0  0  0  0  0  0  0  0  0  0  0
   13.8310   12.3598   -6.1277 C   0  0  1  0  0  0  0  0  0  0  0  0
   15.0145   12.5656   -5.3545 O   0  0  0  0  0  0  0  0  0  0  0  0
   10.4646   15.1127   -8.9537 C   0  0  2  0  0  0  0  0  0  0  0  0
   10.5249   15.6261   -7.5585 N   0  0  0  0  0  0  0  0  0  0  0  0
   12.6041    9.9308  -10.4080 C   0  0  2  0  0  0  0  0  0  0  0  0
   13.6976    8.9587  -10.4193 O   0  0  0  0  0  0  0  0  0  0  0  0
   16.3682    7.8391  -13.0291 C   0  0  1  0  0  0  0  0  0  0  0  0
   15.5316    7.5249  -14.1650 O   0  0  0  0  0  0  0  0  0  0  0  0
   12.9528   11.2382   -5.5278 C   0  0  2  0  0  0  0  0  0  0  0  0
   13.6920   10.0433   -5.4270 O   0  0  0  0  0  0  0  0  0  0  0  0
   11.8304   14.4075   -9.3185 C   0  0  2  0  0  0  0  0  0  0  0  0
   12.1369   10.2606  -11.8357 C   0  0  2  0  0  0  0  0  0  0  0  0
   12.9494   11.3773  -12.1894 O   0  0  0  0  0  0  0  0  0  0  0  0
   17.0068    9.2962  -13.2205 C   0  0  2  0  0  0  0  0  0  0  0  0
   18.0099    9.4620  -12.2191 O   0  0  0  0  0  0  0  0  0  0  0  0
   11.6939   11.0349   -6.4353 C   0  0  2  0  0  0  0  0  0  0  0  0
   10.9493   12.2902   -6.5320 O   0  0  0  0  0  0  0  0  0  0  0  0
   11.8543   13.8590  -10.7621 C   0  0  2  0  0  0  0  0  0  0  0  0
   13.2233   13.4205  -10.9814 O   0  0  0  0  0  0  0  0  0  0  0  0
   10.6209   10.6048  -11.9690 C   0  0  0  0  0  0  0  0  0  0  0  0
    9.8458    9.4911  -11.5358 O   0  0  0  0  0  0  0  0  0  0  0  0
   15.9025   10.4105  -13.0759 C   0  0  1  0  0  0  0  0  0  0  0  0
   15.2990   10.2183  -11.7459 O   0  0  0  0  0  0  0  0  0  0  0  0
   10.7718    9.9556   -5.9171 C   0  0  0  0  0  0  0  0  0  0  0  0
    9.8297    9.6085   -6.9026 O   0  0  0  0  0  0  0  0  0  0  0  0
   11.4581   15.0004  -11.7896 C   0  0  1  0  0  0  0  0  0  0  0  0
   11.3327   14.4568  -13.1066 O   0  0  0  0  0  0  0  0  0  0  0  0
   16.4568   11.8940  -13.2188 C   0  0  0  0  0  0  0  0  0  0  0  0
   15.4650   12.9098  -13.6671 N   0  0  0  0  0  0  0  0  0  0  0  0
  1  2  1  6  0  0  0
  1  7  1  0  0  0  0
  1 30  1  0  0  0  0
  3  4  1  6  0  0  0
  3  9  1  0  0  0  0
  3 39  1  0  0  0  0
  5 10  1  0  0  0  0
  5 26  1  0  0  0  0
  5 32  1  1  0  0  0
  6 12  1  0  0  0  0
  6 36  1  0  0  0  0
  6 19  1  1  0  0  0
  7  8  1  6  0  0  0
  7 14  1  0  0  0  0
  9 16  1  0  0  0  0
 10 11  1  1  0  0  0
 10 18  1  0  0  0  0
 12 13  1  1  0  0  0
 12 20  1  0  0  0  0
 14 15  1  1  0  0  0
 14 22  1  0  0  0  0
 16 17  1  1  0  0  0
 16 24  1  0  0  0  0
 18 19  1  6  0  0  0
 18 25  1  0  0  0  0
 20 21  1  6  0  0  0
 20 27  1  0  0  0  0
 22 23  1  6  0  0  0
 22 29  1  0  0  0  0
 24  2  1  1  0  0  0
 24 31  1  0  0  0  0
 25 26  1  0  0  0  0
 25 33  1  1  0  0  0
 27 28  1  1  0  0  0
 27 35  1  0  0  0  0
 29 30  1  0  0  0  0
 29 37  1  1  0  0  0
 31 32  1  6  0  0  0
 31 39  1  0  0  0  0
 33 34  1  0  0  0  0
 35 36  1  0  0  0  0
 35 41  1  1  0  0  0
 37 38  1  0  0  0  0
 39 40  1  6  0  0  0
 41 42  1  0  0  0  0
M  END
>  <CHROM.1>
-105.54272979,-38.57545384,-91.71220475,-169.17782044,-60.29990305,-166.99001685
108.00750010,-53.73790527,154.90994461,13.07699821,11.72092994,-9.96914749
-2.74183170,0.92492032,-1.28177308

>  <Name>
ligand

>  <RI>
0

>  <Rbt.Current_Directory>
/home/itssahil/PROJECTS/Mol_Feturizer/Test_systems_manuscript/rnas/2o3w

>  <Rbt.Executable>
rbdock ($Id: //depot/dev/client3/rdock/2013.1/src/exe/rbdock.cxx#4 $)

>  <Rbt.Library>
libRbt.so (2013.1, Build901 2013/11/27)

>  <Rbt.Parameter_File>
/export/apps/rDock/src/rDock_2013.1_src/data/scripts/dock_solv.prm

>  <Rbt.Receptor>
prm/blind_docking_80.prm

>  <SCORE>
8.47787

>  <SCORE.INTER>
-1.99851

>  <SCORE.INTER.CONST>
1

>  <SCORE.INTER.POLAR>
0

>  <SCORE.INTER.ROT>
9

>  <SCORE.INTER.SOLV>
39.3944

>  <SCORE.INTER.VDW>
-24.0638

>  <SCORE.INTER.norm>
-0.0475835

>  <SCORE.INTRA>
3.19896

>  <SCORE.INTRA.DIHEDRAL>
-5.79298

>  <SCORE.INTRA.DIHEDRAL.0>
27.8999

>  <SCORE.INTRA.POLAR>
0

>  <SCORE.INTRA.POLAR.0>
0

>  <SCORE.INTRA.REPUL>
0

>  <SCORE.INTRA.REPUL.0>
0

>  <SCORE.INTRA.SOLV>
1.69025

>  <SCORE.INTRA.SOLV.lig_0>
-104.479

>  <SCORE.INTRA.VDW>
5.25032

>  <SCORE.INTRA.VDW.0>
-6.17816

>  <SCORE.INTRA.norm>
0.0761656

>  <SCORE.RESTR>
7.27742

>  <SCORE.RESTR.CAVITY>
7.27742

>  <SCORE.RESTR.norm>
0.173272

>  <SCORE.SYSTEM>
0

>  <SCORE.SYSTEM.CONST>
0

>  <SCORE.SYSTEM.DIHEDRAL>
0

>  <SCORE.SYSTEM.SOLV>
0

>  <SCORE.SYSTEM.norm>
0

>  <SCORE.heavy>
42

>  <SCORE.norm>
0.201854

>  <RMSD>
18.471

$$$$
ligand
 OpenBabel02271912133D
libRbt.so/2013.1/901 2013/11/27
 42 45  0  0  0  0  0  0  0  0999 V2000
   11.7517   11.5500  -11.6928 C   0  0  2  0  0  0  0  0  0  0  0  0
   11.4018   11.4380  -10.3027 O   0  0  0  0  0  0  0  0  0  0  0  0
   12.9997   12.5100   -6.4177 C   0  0  2  0  0  0  0  0  0  0  0  0
   13.9201   12.9337   -5.3205 N   0  0  0  0  0  0  0  0  0  0  0  0
   11.1752   15.0852  -10.2265 C   0  0  1  0  0  0  0  0  0  0  0  0
    9.5674   17.1861  -11.5590 C   0  0  1  0  0  0  0  0  0  0  0  0
   11.3941   10.1895  -12.3631 C   0  0  2  0  0  0  0  0  0  0  0  0
   10.0255    9.7465  -12.0445 N   0  0  0  0  0  0  0  0  0  0  0  0
   13.4479   11.1270   -7.0409 C   0  0  0  0  0  0  0  0  0  0  0  0
    9.9413   14.3880  -10.8763 C   0  0  2  0  0  0  0  0  0  0  0  0
   10.0001   14.3136  -12.3220 O   0  0  0  0  0  0  0  0  0  0  0  0
    9.2347   18.7199  -11.6348 C   0  0  2  0  0  0  0  0  0  0  0  0
    8.0729   18.9695  -12.5396 N   0  0  0  0  0  0  0  0  0  0  0  0
   12.3411    9.0564  -11.9268 C   0  0  1  0  0  0  0  0  0  0  0  0
   12.0018    7.8398  -12.5945 O   0  0  0  0  0  0  0  0  0  0  0  0
   12.4293   10.7236   -8.1733 C   0  0  2  0  0  0  0  0  0  0  0  0
   12.8130    9.4172   -8.7729 N   0  0  0  0  0  0  0  0  0  0  0  0
    8.7935   15.2201  -10.3022 C   0  0  2  0  0  0  0  0  0  0  0  0
    8.4679   16.3556  -11.1655 O   0  0  0  0  0  0  0  0  0  0  0  0
   10.5322   19.5184  -12.1306 C   0  0  1  0  0  0  0  0  0  0  0  0
   11.4944   19.5613  -11.0530 O   0  0  0  0  0  0  0  0  0  0  0  0
   13.8034    9.4680  -12.2123 C   0  0  2  0  0  0  0  0  0  0  0  0
   14.6822    8.4342  -11.8339 O   0  0  0  0  0  0  0  0  0  0  0  0
   12.3817   11.8304   -9.2996 C   0  0  2  0  0  0  0  0  0  0  0  0
    9.2630   15.6911   -8.9154 C   0  0  2  0  0  0  0  0  0  0  0  0
   10.6751   15.8041   -9.0758 O   0  0  0  0  0  0  0  0  0  0  0  0
   11.2084   18.8629  -13.4270 C   0  0  2  0  0  0  0  0  0  0  0  0
   10.3215   19.0683  -14.5260 O   0  0  0  0  0  0  0  0  0  0  0  0
   14.1261   10.7832  -11.4276 C   0  0  2  0  0  0  0  0  0  0  0  0
   13.1954   11.8373  -11.8304 O   0  0  0  0  0  0  0  0  0  0  0  0
   12.0045   13.2249   -8.7534 C   0  0  2  0  0  0  0  0  0  0  0  0
   12.1891   14.1358   -9.8717 O   0  0  0  0  0  0  0  0  0  0  0  0
    8.9069   14.7305   -7.7387 C   0  0  0  0  0  0  0  0  0  0  0  0
    9.5945   13.4955   -7.9150 O   0  0  0  0  0  0  0  0  0  0  0  0
   11.4556   17.3227  -13.2063 C   0  0  1  0  0  0  0  0  0  0  0  0
   10.1412   16.7389  -12.8870 O   0  0  0  0  0  0  0  0  0  0  0  0
   15.5407   11.2638  -11.6549 C   0  0  0  0  0  0  0  0  0  0  0  0
   16.4573   10.3560  -11.0937 O   0  0  0  0  0  0  0  0  0  0  0  0
   12.9553   13.6171   -7.5460 C   0  0  1  0  0  0  0  0  0  0  0  0
   12.5113   14.8362   -6.9442 O   0  0  0  0  0  0  0  0  0  0  0  0
   12.0953   16.5833  -14.4604 C   0  0  0  0  0  0  0  0  0  0  0  0
   13.4823   16.9960  -14.8105 N   0  0  0  0  0  0  0  0  0  0  0  0
  1  2  1  1  0  0  0
  1  7  1  0  0  0  0
  1 30  1  0  0  0  0
  3  4  1  1  0  0  0
  3  9  1  0  0  0  0
  3 39  1  0  0  0  0
  5 10  1  0  0  0  0
  5 26  1  0  0  0  0
  5 32  1  1  0  0  0
  6 12  1  0  0  0  0
  6 36  1  0  0  0  0
  6 19  1  6  0  0  0
  7  8  1  1  0  0  0
  7 14  1  0  0  0  0
  9 16  1  0  0  0  0
 10 11  1  6  0  0  0
 10 18  1  0  0  0  0
 12 13  1  6  0  0  0
 12 20  1  0  0  0  0
 14 15  1  6  0  0  0
 14 22  1  0  0  0  0
 16 17  1  6  0  0  0
 16 24  1  0  0  0  0
 18 19  1  6  0  0  0
 18 25  1  0  0  0  0
 20 21  1  1  0  0  0
 20 27  1  0  0  0  0
 22 23  1  1  0  0  0
 22 29  1  0  0  0  0
 24  2  1  6  0  0  0
 24 31  1  0  0  0  0
 25 26  1  0  0  0  0
 25 33  1  1  0  0  0
 27 28  1  6  0  0  0
 27 35  1  0  0  0  0
 29 30  1  0  0  0  0
 29 37  1  6  0  0  0
 31 32  1  6  0  0  0
 31 39  1  0  0  0  0
 33 34  1  0  0  0  0
 35 36  1  0  0  0  0
 35 41  1  6  0  0  0
 37 38  1  0  0  0  0
 39 40  1  1  0  0  0
 41 42  1  0  0  0  0
M  END
>  <CHROM.1>
130.58780710,-134.47101360,-50.95754290,-142.74870862,64.45324435,-66.86234492
131.48754120,-71.79293088,66.12789880,11.64502922,13.82995370,-10.72546118
-0.46408965,1.14719593,-1.31612960

>  <Name>
ligand

>  <RI>
0

>  <Rbt.Current_Directory>
/home/itssahil/PROJECTS/Mol_Feturizer/Test_systems_manuscript/rnas/2o3w

>  <Rbt.Executable>
rbdock ($Id: //depot/dev/client3/rdock/2013.1/src/exe/rbdock.cxx#4 $)

>  <Rbt.Library>
libRbt.so (2013.1, Build901 2013/11/27)

>  <Rbt.Parameter_File>
/export/apps/rDock/src/rDock_2013.1_src/data/scripts/dock_solv.prm

>  <Rbt.Receptor>
prm/blind_docking_80.prm

>  <SCORE>
13.1466

>  <SCORE.INTER>
-1.35727

>  <SCORE.INTER.CONST>
1

>  <SCORE.INTER.POLAR>
0

>  <SCORE.INTER.ROT>
9

>  <SCORE.INTER.SOLV>
28.0734

>  <SCORE.INTER.VDW>
-19.8626

>  <SCORE.INTER.norm>
-0.0323159

>  <SCORE.INTRA>
1.4703

>  <SCORE.INTRA.DIHEDRAL>
-2.09125

>  <SCORE.INTRA.DIHEDRAL.0>
27.8999

>  <SCORE.INTRA.POLAR>
0

>  <SCORE.INTRA.POLAR.0>
0

>  <SCORE.INTRA.REPUL>
0

>  <SCORE.INTRA.REPUL.0>
0

>  <SCORE.INTRA.SOLV>
1.04167

>  <SCORE.INTRA.SOLV.lig_0>
-104.479

>  <SCORE.INTRA.VDW>
1.99508

>  <SCORE.INTRA.VDW.0>
-6.17816

>  <SCORE.INTRA.norm>
0.0350071

>  <SCORE.RESTR>
13.0336

>  <SCORE.RESTR.CAVITY>
13.0336

>  <SCORE.RESTR.norm>
0.310323

>  <SCORE.SYSTEM>
0

>  <SCORE.SYSTEM.CONST>
0

>  <SCORE.SYSTEM.DIHEDRAL>
0

>  <SCORE.SYSTEM.SOLV>
0

>  <SCORE.SYSTEM.norm>
0

>  <SCORE.heavy>
42

>  <SCORE.norm>
0.313014

>  <RMSD>
18.480

$$$$
ligand
 OpenBabel02271912133D
libRbt.so/2013.1/901 2013/11/27
 42 45  0  0  0  0  0  0  0  0999 V2000
   12.0599   12.5487   -6.3013 C   0  0  2  0  0  0  0  0  0  0  0  0
   12.3025   12.4628   -7.7159 O   0  0  0  0  0  0  0  0  0  0  0  0
   11.3447    8.4017   -8.8933 C   0  0  2  0  0  0  0  0  0  0  0  0
   10.7878    7.2186   -9.6148 N   0  0  0  0  0  0  0  0  0  0  0  0
   12.5138   12.0434  -11.2140 C   0  0  1  0  0  0  0  0  0  0  0  0
   11.7608   15.0145  -13.8384 C   0  0  1  0  0  0  0  0  0  0  0  0
   12.6480   13.9093   -5.8206 C   0  0  2  0  0  0  0  0  0  0  0  0
   12.2031   15.0411   -6.6522 N   0  0  0  0  0  0  0  0  0  0  0  0
   10.1948    9.2677   -8.2379 C   0  0  0  0  0  0  0  0  0  0  0  0
   13.2929   13.0737  -12.0871 C   0  0  2  0  0  0  0  0  0  0  0  0
   13.1681   14.4441  -11.6338 O   0  0  0  0  0  0  0  0  0  0  0  0
   10.6005   15.8169  -14.5302 C   0  0  2  0  0  0  0  0  0  0  0  0
   10.3158   15.2752  -15.8927 N   0  0  0  0  0  0  0  0  0  0  0  0
   14.1877   13.9204   -5.8415 C   0  0  1  0  0  0  0  0  0  0  0  0
   14.6827   15.1697   -5.3567 O   0  0  0  0  0  0  0  0  0  0  0  0
   10.8438   10.4841   -7.4751 C   0  0  2  0  0  0  0  0  0  0  0  0
    9.7892   11.3141   -6.8327 N   0  0  0  0  0  0  0  0  0  0  0  0
   12.7202   12.7804  -13.4747 C   0  0  2  0  0  0  0  0  0  0  0  0
   11.5415   13.6008  -13.7546 O   0  0  0  0  0  0  0  0  0  0  0  0
   10.9979   17.3675  -14.5988 C   0  0  1  0  0  0  0  0  0  0  0  0
   10.8912   17.9362  -13.2744 O   0  0  0  0  0  0  0  0  0  0  0  0
   14.7232   12.7375   -5.0030 C   0  0  2  0  0  0  0  0  0  0  0  0
   16.1319   12.7433   -4.9983 O   0  0  0  0  0  0  0  0  0  0  0  0
   11.6896   11.3764   -8.4673 C   0  0  2  0  0  0  0  0  0  0  0  0
   12.3712   11.2826  -13.4819 C   0  0  2  0  0  0  0  0  0  0  0  0
   12.0327   11.0252  -12.1212 O   0  0  0  0  0  0  0  0  0  0  0  0
   12.4770   17.6060  -15.1669 C   0  0  2  0  0  0  0  0  0  0  0  0
   12.4674   17.2622  -16.5519 O   0  0  0  0  0  0  0  0  0  0  0  0
   14.1777   11.3986   -5.6024 C   0  0  2  0  0  0  0  0  0  0  0  0
   12.7151   11.4208   -5.6054 O   0  0  0  0  0  0  0  0  0  0  0  0
   12.7997   10.5817   -9.1892 C   0  0  2  0  0  0  0  0  0  0  0  0
   13.3427   11.4975  -10.1796 O   0  0  0  0  0  0  0  0  0  0  0  0
   13.5192   10.3416  -13.9623 C   0  0  0  0  0  0  0  0  0  0  0  0
   14.4007   10.0815  -12.8741 O   0  0  0  0  0  0  0  0  0  0  0  0
   13.5205   16.7160  -14.3915 C   0  0  1  0  0  0  0  0  0  0  0  0
   13.0643   15.3236  -14.5443 O   0  0  0  0  0  0  0  0  0  0  0  0
   14.6489   10.1840   -4.8365 C   0  0  0  0  0  0  0  0  0  0  0  0
   16.0270    9.9873   -5.0395 O   0  0  0  0  0  0  0  0  0  0  0  0
   12.1884    9.2957   -9.8880 C   0  0  1  0  0  0  0  0  0  0  0  0
   13.2345    8.4822  -10.4260 O   0  0  0  0  0  0  0  0  0  0  0  0
   15.0146   16.8654  -14.9148 C   0  0  0  0  0  0  0  0  0  0  0  0
   15.5630   18.2495  -14.9054 N   0  0  0  0  0  0  0  0  0  0  0  0
  1  2  1  6  0  0  0
  1  7  1  0  0  0  0
  1 30  1  0  0  0  0
  3  4  1  6  0  0  0
  3  9  1  0  0  0  0
  3 39  1  0  0  0  0
  5 10  1  0  0  0  0
  5 26  1  0  0  0  0
  5 32  1  1  0  0  0
  6 12  1  0  0  0  0
  6 36  1  0  0  0  0
  6 19  1  6  0  0  0
  7  8  1  6  0  0  0
  7 14  1  0  0  0  0
  9 16  1  0  0  0  0
 10 11  1  1  0  0  0
 10 18  1  0  0  0  0
 12 13  1  6  0  0  0
 12 20  1  0  0  0  0
 14 15  1  1  0  0  0
 14 22  1  0  0  0  0
 16 17  1  6  0  0  0
 16 24  1  0  0  0  0
 18 19  1  1  0  0  0
 18 25  1  0  0  0  0
 20 21  1  1  0  0  0
 20 27  1  0  0  0  0
 22 23  1  6  0  0  0
 22 29  1  0  0  0  0
 24  2  1  1  0  0  0
 24 31  1  0  0  0  0
 25 26  1  0  0  0  0
 25 33  1  1  0  0  0
 27 28  1  6  0  0  0
 27 35  1  0  0  0  0
 29 30  1  0  0  0  0
 29 37  1  1  0  0  0
 31 32  1  6  0  0  0
 31 39  1  0  0  0  0
 33 34  1  0  0  0  0
 35 36  1  0  0  0  0
 35 41  1  6  0  0  0
 37 38  1  0  0  0  0
 39 40  1  1  0  0  0
 41 42  1  0  0  0  0
M  END
>  <CHROM.1>
-171.38456449,-0.09430157,64.78100495,163.37049253,82.91479665,-69.79753492
-60.29800563,175.88342006,56.58038288,12.77117560,12.89467826,-10.36105054
-1.31712453,-1.24711545,-0.79978258

>  <Name>
ligand

>  <RI>
0

>  <Rbt.Current_Directory>
/home/itssahil/PROJECTS/Mol_Feturizer/Test_systems_manuscript/rnas/2o3w

>  <Rbt.Executable>
rbdock ($Id: //depot/dev/client3/rdock/2013.1/src/exe/rbdock.cxx#4 $)

>  <Rbt.Library>
libRbt.so (2013.1, Build901 2013/11/27)

>  <Rbt.Parameter_File>
/export/apps/rDock/src/rDock_2013.1_src/data/scripts/dock_solv.prm

>  <Rbt.Receptor>
prm/blind_docking_100.prm

>  <SCORE>
54.8045

>  <SCORE.INTER>
49.1759

>  <SCORE.INTER.CONST>
1

>  <SCORE.INTER.POLAR>
0

>  <SCORE.INTER.ROT>
9

>  <SCORE.INTER.SOLV>
44.1863

>  <SCORE.INTER.VDW>
8.4552

>  <SCORE.INTER.norm>
1.17086

>  <SCORE.INTRA>
-3.13307

>  <SCORE.INTRA.DIHEDRAL>
-16.788

>  <SCORE.INTRA.DIHEDRAL.0>
27.8999

>  <SCORE.INTRA.POLAR>
0

>  <SCORE.INTRA.POLAR.0>
0

>  <SCORE.INTRA.REPUL>
0

>  <SCORE.INTRA.REPUL.0>
0

>  <SCORE.INTRA.SOLV>
-2.11963

>  <SCORE.INTRA.SOLV.lig_0>
-104.479

>  <SCORE.INTRA.VDW>
6.32072

>  <SCORE.INTRA.VDW.0>
-6.17816

>  <SCORE.INTRA.norm>
-0.0745968

>  <SCORE.RESTR>
8.7616

>  <SCORE.RESTR.CAVITY>
8.7616

>  <SCORE.RESTR.norm>
0.20861

>  <SCORE.SYSTEM>
0

>  <SCORE.SYSTEM.CONST>
0

>  <SCORE.SYSTEM.DIHEDRAL>
0

>  <SCORE.SYSTEM.SOLV>
0

>  <SCORE.SYSTEM.norm>
0

>  <SCORE.heavy>
42

>  <SCORE.norm>
1.30487

>  <RMSD>
18.485

$$$$
ligand
 OpenBabel02271912133D
libRbt.so/2013.1/901 2013/11/27
 42 45  0  0  0  0  0  0  0  0999 V2000
   10.5237   11.7875   -7.4251 C   0  0  2  0  0  0  0  0  0  0  0  0
   10.8730   11.9601   -8.8091 O   0  0  0  0  0  0  0  0  0  0  0  0
   11.7150    8.5511  -11.3519 C   0  0  2  0  0  0  0  0  0  0  0  0
   11.5714    7.4203  -12.3169 N   0  0  0  0  0  0  0  0  0  0  0  0
   11.4750   13.3802  -12.2112 C   0  0  1  0  0  0  0  0  0  0  0  0
   12.3201   16.0466  -13.1483 C   0  0  1  0  0  0  0  0  0  0  0  0
   10.1943   13.2014   -6.8591 C   0  0  2  0  0  0  0  0  0  0  0  0
    9.2445   13.9413   -7.7083 N   0  0  0  0  0  0  0  0  0  0  0  0
   10.8656    8.2990  -10.0417 C   0  0  0  0  0  0  0  0  0  0  0  0
   12.4723   14.0018  -11.1866 C   0  0  2  0  0  0  0  0  0  0  0  0
   11.9404   15.1373  -10.4609 O   0  0  0  0  0  0  0  0  0  0  0  0
   12.3540   16.8035  -14.5248 C   0  0  2  0  0  0  0  0  0  0  0  0
   13.2639   17.9863  -14.4609 N   0  0  0  0  0  0  0  0  0  0  0  0
   11.4492   14.0832   -6.7229 C   0  0  1  0  0  0  0  0  0  0  0  0
   11.1067   15.3528   -6.1646 O   0  0  0  0  0  0  0  0  0  0  0  0
   11.0749    9.5109   -9.0568 C   0  0  2  0  0  0  0  0  0  0  0  0
   10.2999    9.2997   -7.8045 N   0  0  0  0  0  0  0  0  0  0  0  0
   13.6761   14.2940  -12.0837 C   0  0  2  0  0  0  0  0  0  0  0  0
   13.6037   15.6367  -12.6607 O   0  0  0  0  0  0  0  0  0  0  0  0
   10.8658   17.2431  -14.9234 C   0  0  1  0  0  0  0  0  0  0  0  0
   10.1289   16.0721  -15.3413 O   0  0  0  0  0  0  0  0  0  0  0  0
   12.5018   13.3521   -5.8588 C   0  0  2  0  0  0  0  0  0  0  0  0
   13.6507   14.1536   -5.7105 O   0  0  0  0  0  0  0  0  0  0  0  0
   10.6259   10.8647   -9.7361 C   0  0  2  0  0  0  0  0  0  0  0  0
   13.6607   13.2150  -13.1796 C   0  0  2  0  0  0  0  0  0  0  0  0
   12.2719   12.9312  -13.3312 O   0  0  0  0  0  0  0  0  0  0  0  0
   10.0882   17.9656  -13.7231 C   0  0  2  0  0  0  0  0  0  0  0  0
   10.7040   19.2357  -13.5133 O   0  0  0  0  0  0  0  0  0  0  0  0
   12.8623   11.9889   -6.5381 C   0  0  2  0  0  0  0  0  0  0  0  0
   11.6531   11.1798   -6.6895 O   0  0  0  0  0  0  0  0  0  0  0  0
   11.3759   11.1500  -11.0558 C   0  0  2  0  0  0  0  0  0  0  0  0
   10.7164   12.3139  -11.6259 O   0  0  0  0  0  0  0  0  0  0  0  0
   14.4642   11.9213  -12.8406 C   0  0  0  0  0  0  0  0  0  0  0  0
   14.0874   11.4587  -11.5472 O   0  0  0  0  0  0  0  0  0  0  0  0
   10.1649   17.0989  -12.4096 C   0  0  1  0  0  0  0  0  0  0  0  0
   11.5983   16.9048  -12.1306 O   0  0  0  0  0  0  0  0  0  0  0  0
   13.8854   11.2008   -5.7534 C   0  0  0  0  0  0  0  0  0  0  0  0
   15.1055   11.8999   -5.7082 O   0  0  0  0  0  0  0  0  0  0  0  0
   11.2624    9.9051  -12.0320 C   0  0  1  0  0  0  0  0  0  0  0  0
   12.0802   10.1080  -13.1876 O   0  0  0  0  0  0  0  0  0  0  0  0
    9.4452   17.7594  -11.1549 C   0  0  0  0  0  0  0  0  0  0  0  0
    7.9606   17.6491  -11.1343 N   0  0  0  0  0  0  0  0  0  0  0  0
  1  2  1  6  0  0  0
  1  7  1  0  0  0  0
  1 30  1  0  0  0  0
  3  4  1  6  0  0  0
  3  9  1  0  0  0  0
  3 39  1  0  0  0  0
  5 10  1  0  0  0  0
  5 26  1  0  0  0  0
  5 32  1  1  0  0  0
  6 12  1  0  0  0  0
  6 36  1  0  0  0  0
  6 19  1  1  0  0  0
  7  8  1  6  0  0  0
  7 14  1  0  0  0  0
  9 16  1  0  0  0  0
 10 11  1  6  0  0  0
 10 18  1  0  0  0  0
 12 13  1  1  0  0  0
 12 20  1  0  0  0  0
 14 15  1  1  0  0  0
 14 22  1  0  0  0  0
 16 17  1  1  0  0  0
 16 24  1  0  0  0  0
 18 19  1  6  0  0  0
 18 25  1  0  0  0  0
 20 21  1  1  0  0  0
 20 27  1  0  0  0  0
 22 23  1  6  0  0  0
 22 29  1  0  0  0  0
 24  2  1  1  0  0  0
 24 31  1  0  0  0  0
 25 26  1  0  0  0  0
 25 33  1  1  0  0  0
 27 28  1  1  0  0  0
 27 35  1  0  0  0  0
 29 30  1  0  0  0  0
 29 37  1  1  0  0  0
 31 32  1  6  0  0  0
 31 39  1  0  0  0  0
 33 34  1  0  0  0  0
 35 36  1  0  0  0  0
 35 41  1  1  0  0  0
 37 38  1  0  0  0  0
 39 40  1  6  0  0  0
 41 42  1  0  0  0  0
M  END
>  <CHROM.1>
-151.59660355,-43.37315131,-42.74693815,-137.61796138,49.49528304,-64.01505787
137.31802370,-58.40049811,77.95451315,11.71677664,13.45696040,-10.56525579
0.83062568,-1.43457605,1.65036307

>  <Name>
ligand

>  <RI>
0

>  <Rbt.Current_Directory>
/home/itssahil/PROJECTS/Mol_Feturizer/Test_systems_manuscript/rnas/2o3w

>  <Rbt.Executable>
rbdock ($Id: //depot/dev/client3/rdock/2013.1/src/exe/rbdock.cxx#4 $)

>  <Rbt.Library>
libRbt.so (2013.1, Build901 2013/11/27)

>  <Rbt.Parameter_File>
/export/apps/rDock/src/rDock_2013.1_src/data/scripts/dock_solv.prm

>  <Rbt.Receptor>
prm/blind_docking_80.prm

>  <SCORE>
82.1524

>  <SCORE.INTER>
68.7455

>  <SCORE.INTER.CONST>
1

>  <SCORE.INTER.POLAR>
0

>  <SCORE.INTER.ROT>
9

>  <SCORE.INTER.SOLV>
31.0711

>  <SCORE.INTER.VDW>
25.8733

>  <SCORE.INTER.norm>
1.6368

>  <SCORE.INTRA>
0.745392

>  <SCORE.INTRA.DIHEDRAL>
-8.76703

>  <SCORE.INTRA.DIHEDRAL.0>
27.8999

>  <SCORE.INTRA.POLAR>
0

>  <SCORE.INTRA.POLAR.0>
0

>  <SCORE.INTRA.REPUL>
0

>  <SCORE.INTRA.REPUL.0>
0

>  <SCORE.INTRA.SOLV>
-0.127143

>  <SCORE.INTRA.SOLV.lig_0>
-104.479

>  <SCORE.INTRA.VDW>
5.19248

>  <SCORE.INTRA.VDW.0>
-6.17816

>  <SCORE.INTRA.norm>
0.0177474

>  <SCORE.RESTR>
12.6615

>  <SCORE.RESTR.CAVITY>
12.6615

>  <SCORE.RESTR.norm>
0.301464

>  <SCORE.SYSTEM>
0

>  <SCORE.SYSTEM.CONST>
0

>  <SCORE.SYSTEM.DIHEDRAL>
0

>  <SCORE.SYSTEM.SOLV>
0

>  <SCORE.SYSTEM.norm>
0

>  <SCORE.heavy>
42

>  <SCORE.norm>
1.95601

>  <RMSD>
18.488

$$$$
ligand
 OpenBabel02271912133D
libRbt.so/2013.1/901 2013/11/27
 42 45  0  0  0  0  0  0  0  0999 V2000
   13.2652   12.2323  -11.3290 C   0  0  2  0  0  0  0  0  0  0  0  0
   13.0388   13.1185  -12.4384 O   0  0  0  0  0  0  0  0  0  0  0  0
   10.4995   16.6296  -12.5800 C   0  0  2  0  0  0  0  0  0  0  0  0
    9.3077   17.5296  -12.5883 N   0  0  0  0  0  0  0  0  0  0  0  0
   12.3134   13.9899   -8.8656 C   0  0  1  0  0  0  0  0  0  0  0  0
   13.8325   13.6211   -4.8481 C   0  0  1  0  0  0  0  0  0  0  0  0
   14.5077   11.3629  -11.6873 C   0  0  2  0  0  0  0  0  0  0  0  0
   15.6486   12.1730  -12.1484 N   0  0  0  0  0  0  0  0  0  0  0  0
   10.5081   15.6771  -13.8428 C   0  0  0  0  0  0  0  0  0  0  0  0
   11.3463   14.1783   -7.6572 C   0  0  2  0  0  0  0  0  0  0  0  0
   11.0454   15.5626   -7.3535 O   0  0  0  0  0  0  0  0  0  0  0  0
   14.8497   14.5708   -4.1188 C   0  0  2  0  0  0  0  0  0  0  0  0
   15.7085   15.2915   -5.1057 N   0  0  0  0  0  0  0  0  0  0  0  0
   14.2063   10.3441  -12.8019 C   0  0  1  0  0  0  0  0  0  0  0  0
   15.3592    9.5440  -13.0695 O   0  0  0  0  0  0  0  0  0  0  0  0
   11.7960   14.7709  -13.7896 C   0  0  2  0  0  0  0  0  0  0  0  0
   11.8441   13.8703  -14.9729 N   0  0  0  0  0  0  0  0  0  0  0  0
   12.0841   13.4054   -6.5629 C   0  0  2  0  0  0  0  0  0  0  0  0
   13.0028   14.2689   -5.8206 O   0  0  0  0  0  0  0  0  0  0  0  0
   15.7397   13.7109   -3.1013 C   0  0  1  0  0  0  0  0  0  0  0  0
   14.9285   13.3502   -1.9608 O   0  0  0  0  0  0  0  0  0  0  0  0
   12.9976    9.4728  -12.3909 C   0  0  2  0  0  0  0  0  0  0  0  0
   12.7191    8.5235  -13.3938 O   0  0  0  0  0  0  0  0  0  0  0  0
   11.8161   13.9087  -12.4659 C   0  0  2  0  0  0  0  0  0  0  0  0
   12.8395   12.2730   -7.2788 C   0  0  2  0  0  0  0  0  0  0  0  0
   13.1301   12.8376   -8.5552 O   0  0  0  0  0  0  0  0  0  0  0  0
   16.3436   12.3859   -3.7700 C   0  0  2  0  0  0  0  0  0  0  0  0
   17.3271   12.7928   -4.7206 O   0  0  0  0  0  0  0  0  0  0  0  0
   11.7598   10.3991  -12.1472 C   0  0  2  0  0  0  0  0  0  0  0  0
   12.0766   11.3807  -11.1100 O   0  0  0  0  0  0  0  0  0  0  0  0
   11.7524   14.7728  -11.1874 C   0  0  2  0  0  0  0  0  0  0  0  0
   11.5936   13.8267  -10.0946 O   0  0  0  0  0  0  0  0  0  0  0  0
   12.0430   10.9392   -7.4232 C   0  0  0  0  0  0  0  0  0  0  0  0
   12.7209   10.0831   -8.3378 O   0  0  0  0  0  0  0  0  0  0  0  0
   15.2091   11.5553   -4.4807 C   0  0  1  0  0  0  0  0  0  0  0  0
   14.5910   12.4633   -5.4623 O   0  0  0  0  0  0  0  0  0  0  0  0
   10.5284    9.6271  -11.7330 C   0  0  0  0  0  0  0  0  0  0  0  0
   10.7892    8.8891  -10.5640 O   0  0  0  0  0  0  0  0  0  0  0  0
   10.5168   15.7648  -11.2562 C   0  0  1  0  0  0  0  0  0  0  0  0
   10.5454   16.6663  -10.1462 O   0  0  0  0  0  0  0  0  0  0  0  0
   15.7273   10.2364   -5.2022 C   0  0  0  0  0  0  0  0  0  0  0  0
   16.9542    9.6258   -4.6204 N   0  0  0  0  0  0  0  0  0  0  0  0
  1  2  1  6  0  0  0
  1  7  1  0  0  0  0
  1 30  1  0  0  0  0
  3  4  1  1  0  0  0
  3  9  1  0  0  0  0
  3 39  1  0  0  0  0
  5 10  1  0  0  0  0
  5 26  1  0  0  0  0
  5 32  1  6  0  0  0
  6 12  1  0  0  0  0
  6 36  1  0  0  0  0
  6 19  1  6  0  0  0
  7  8  1  6  0  0  0
  7 14  1  0  0  0  0
  9 16  1  0  0  0  0
 10 11  1  1  0  0  0
 10 18  1  0  0  0  0
 12 13  1  6  0  0  0
 12 20  1  0  0  0  0
 14 15  1  1  0  0  0
 14 22  1  0  0  0  0
 16 17  1  6  0  0  0
 16 24  1  0  0  0  0
 18 19  1  6  0  0  0
 18 25  1  0  0  0  0
 20 21  1  1  0  0  0
 20 27  1  0  0  0  0
 22 23  1  6  0  0  0
 22 29  1  0  0  0  0
 24  2  1  1  0  0  0
 24 31  1  0  0  0  0
 25 26  1  0  0  0  0
 25 33  1  6  0  0  0
 27 28  1  6  0  0  0
 27 35  1  0  0  0  0
 29 30  1  0  0  0  0
 29 37  1  1  0  0  0
 31 32  1  1  0  0  0
 31 39  1  0  0  0  0
 33 34  1  0  0  0  0
 35 36  1  0  0  0  0
 35 41  1  6  0  0  0
 37 38  1  0  0  0  0
 39 40  1  1  0  0  0
 41 42  1  0  0  0  0
M  END
>  <CHROM.1>
170.76355464,-178.94641645,-174.71946306,177.37211553,167.59047939,57.90846381
138.29668443,118.67504601,27.74981270,13.06761038,12.77062316,-9.10479414
-2.37183996,-1.01575033,0.88665954

>  <Name>
ligand

>  <RI>
0

>  <Rbt.Current_Directory>
/home/itssahil/PROJECTS/Mol_Feturizer/Test_systems_manuscript/rnas/2o3w

>  <Rbt.Executable>
rbdock ($Id: //depot/dev/client3/rdock/2013.1/src/exe/rbdock.cxx#4 $)

>  <Rbt.Library>
libRbt.so (2013.1, Build901 2013/11/27)

>  <Rbt.Parameter_File>
/export/apps/rDock/src/rDock_2013.1_src/data/scripts/dock_solv.prm

>  <Rbt.Receptor>
prm/blind_docking_80.prm

>  <SCORE>
2.53733

>  <SCORE.INTER>
-3.32848

>  <SCORE.INTER.CONST>
1

>  <SCORE.INTER.POLAR>
0

>  <SCORE.INTER.ROT>
9

>  <SCORE.INTER.SOLV>
31.5772

>  <SCORE.INTER.VDW>
-22.3447

>  <SCORE.INTER.norm>
-0.0792496

>  <SCORE.INTRA>
-3.51157

>  <SCORE.INTRA.DIHEDRAL>
-10.8058

>  <SCORE.INTRA.DIHEDRAL.0>
27.8999

>  <SCORE.INTRA.POLAR>
0

>  <SCORE.INTRA.POLAR.0>
0

>  <SCORE.INTRA.REPUL>
0

>  <SCORE.INTRA.REPUL.0>
0

>  <SCORE.INTRA.SOLV>
-3.27711

>  <SCORE.INTRA.SOLV.lig_0>
-104.479

>  <SCORE.INTRA.VDW>
3.52987

>  <SCORE.INTRA.VDW.0>
-6.17816

>  <SCORE.INTRA.norm>
-0.0836088

>  <SCORE.RESTR>
9.37739

>  <SCORE.RESTR.CAVITY>
9.37739

>  <SCORE.RESTR.norm>
0.223271

>  <SCORE.SYSTEM>
0

>  <SCORE.SYSTEM.CONST>
0

>  <SCORE.SYSTEM.DIHEDRAL>
0

>  <SCORE.SYSTEM.SOLV>
0

>  <SCORE.SYSTEM.norm>
0

>  <SCORE.heavy>
42

>  <SCORE.norm>
0.0604127

>  <RMSD>
18.509

$$$$
ligand
 OpenBabel02271912133D
libRbt.so/2013.1/901 2013/11/27
 42 45  0  0  0  0  0  0  0  0999 V2000
   12.3204   12.2201   -7.1488 C   0  0  2  0  0  0  0  0  0  0  0  0
   12.9214   12.3220   -8.4510 O   0  0  0  0  0  0  0  0  0  0  0  0
   12.9491    8.9666  -11.1963 C   0  0  2  0  0  0  0  0  0  0  0  0
   12.5828    8.0053  -12.2789 N   0  0  0  0  0  0  0  0  0  0  0  0
   12.0209   13.4177  -11.4630 C   0  0  1  0  0  0  0  0  0  0  0  0
    9.9317   16.4968  -12.3043 C   0  0  1  0  0  0  0  0  0  0  0  0
   12.5949   13.5667   -6.4143 C   0  0  2  0  0  0  0  0  0  0  0  0
   12.2381   14.7384   -7.2332 N   0  0  0  0  0  0  0  0  0  0  0  0
   11.8784    8.9552  -10.0321 C   0  0  0  0  0  0  0  0  0  0  0  0
   12.0998   14.6119  -12.4622 C   0  0  2  0  0  0  0  0  0  0  0  0
   12.2479   15.9046  -11.8250 O   0  0  0  0  0  0  0  0  0  0  0  0
    8.9140   17.0894  -11.2642 C   0  0  2  0  0  0  0  0  0  0  0  0
    7.5092   16.9454  -11.7509 N   0  0  0  0  0  0  0  0  0  0  0  0
   14.0761   13.7294   -6.0266 C   0  0  1  0  0  0  0  0  0  0  0  0
   14.2740   14.9566   -5.3224 O   0  0  0  0  0  0  0  0  0  0  0  0
   12.3299    9.9689   -8.9136 C   0  0  2  0  0  0  0  0  0  0  0  0
   11.3508    9.9732   -7.7934 N   0  0  0  0  0  0  0  0  0  0  0  0
   10.8134   14.4128  -13.2652 C   0  0  2  0  0  0  0  0  0  0  0  0
    9.6886   15.1317  -12.6662 O   0  0  0  0  0  0  0  0  0  0  0  0
    9.2732   18.6264  -10.9897 C   0  0  1  0  0  0  0  0  0  0  0  0
   10.4683   18.6893  -10.1792 O   0  0  0  0  0  0  0  0  0  0  0  0
   14.5243   12.5152   -5.1817 C   0  0  2  0  0  0  0  0  0  0  0  0
   15.8741   12.6571   -4.8044 O   0  0  0  0  0  0  0  0  0  0  0  0
   12.4649   11.4274   -9.5054 C   0  0  2  0  0  0  0  0  0  0  0  0
   10.5573   12.8965  -13.2875 C   0  0  2  0  0  0  0  0  0  0  0  0
   11.1096   12.4594  -12.0480 O   0  0  0  0  0  0  0  0  0  0  0  0
    9.4952   19.4637  -12.3377 C   0  0  2  0  0  0  0  0  0  0  0  0
    8.2278   19.5875  -12.9817 O   0  0  0  0  0  0  0  0  0  0  0  0
   14.3181   11.2079   -6.0171 C   0  0  2  0  0  0  0  0  0  0  0  0
   12.9126   11.0883   -6.4045 O   0  0  0  0  0  0  0  0  0  0  0  0
   13.4555   11.5047  -10.6878 C   0  0  2  0  0  0  0  0  0  0  0  0
   13.3148   12.8520  -11.2165 O   0  0  0  0  0  0  0  0  0  0  0  0
   11.2026   12.1376  -14.4883 C   0  0  0  0  0  0  0  0  0  0  0  0
   10.9962   12.8852  -15.6830 O   0  0  0  0  0  0  0  0  0  0  0  0
   10.5188   18.7310  -13.2850 C   0  0  1  0  0  0  0  0  0  0  0  0
    9.9629   17.3885  -13.5278 O   0  0  0  0  0  0  0  0  0  0  0  0
   14.7267    9.9645   -5.2616 C   0  0  0  0  0  0  0  0  0  0  0  0
   16.1007   10.0086   -4.9623 O   0  0  0  0  0  0  0  0  0  0  0  0
   13.0808   10.4266  -11.7892 C   0  0  1  0  0  0  0  0  0  0  0  0
   14.0826   10.3948  -12.8094 O   0  0  0  0  0  0  0  0  0  0  0  0
   10.7733   19.4784  -14.6652 C   0  0  0  0  0  0  0  0  0  0  0  0
   11.6168   20.7028  -14.5866 N   0  0  0  0  0  0  0  0  0  0  0  0
  1  2  1  6  0  0  0
  1  7  1  0  0  0  0
  1 30  1  0  0  0  0
  3  4  1  6  0  0  0
  3  9  1  0  0  0  0
  3 39  1  0  0  0  0
  5 10  1  0  0  0  0
  5 26  1  0  0  0  0
  5 32  1  6  0  0  0
  6 12  1  0  0  0  0
  6 36  1  0  0  0  0
  6 19  1  6  0  0  0
  7  8  1  6  0  0  0
  7 14  1  0  0  0  0
  9 16  1  0  0  0  0
 10 11  1  1  0  0  0
 10 18  1  0  0  0  0
 12 13  1  6  0  0  0
 12 20  1  0  0  0  0
 14 15  1  1  0  0  0
 14 22  1  0  0  0  0
 16 17  1  1  0  0  0
 16 24  1  0  0  0  0
 18 19  1  1  0  0  0
 18 25  1  0  0  0  0
 20 21  1  1  0  0  0
 20 27  1  0  0  0  0
 22 23  1  6  0  0  0
 22 29  1  0  0  0  0
 24  2  1  1  0  0  0
 24 31  1  0  0  0  0
 25 26  1  0  0  0  0
 25 33  1  6  0  0  0
 27 28  1  6  0  0  0
 27 35  1  0  0  0  0
 29 30  1  0  0  0  0
 29 37  1  1  0  0  0
 31 32  1  6  0  0  0
 31 39  1  0  0  0  0
 33 34  1  0  0  0  0
 35 36  1  0  0  0  0
 35 41  1  6  0  0  0
 37 38  1  0  0  0  0
 39 40  1  6  0  0  0
 41 42  1  0  0  0  0
M  END
>  <CHROM.1>
-159.81177383,-44.11427839,47.72799206,-160.80176300,-43.52727950,-62.42541899
-47.09124090,-159.92293179,74.38337267,11.96609559,13.78614248,-10.34408617
-0.16668892,-1.15353086,0.66207779

>  <Name>
ligand

>  <RI>
0

>  <Rbt.Current_Directory>
/home/itssahil/PROJECTS/Mol_Feturizer/Test_systems_manuscript/rnas/2o3w

>  <Rbt.Executable>
rbdock ($Id: //depot/dev/client3/rdock/2013.1/src/exe/rbdock.cxx#4 $)

>  <Rbt.Library>
libRbt.so (2013.1, Build901 2013/11/27)

>  <Rbt.Parameter_File>
/export/apps/rDock/src/rDock_2013.1_src/data/scripts/dock_solv.prm

>  <Rbt.Receptor>
prm/blind_docking_40.prm

>  <SCORE>
16.7763

>  <SCORE.INTER>
2.37638

>  <SCORE.INTER.CONST>
1

>  <SCORE.INTER.POLAR>
0

>  <SCORE.INTER.ROT>
9

>  <SCORE.INTER.SOLV>
30.903

>  <SCORE.INTER.VDW>
-18.3167

>  <SCORE.INTER.norm>
0.0565804

>  <SCORE.INTRA>
0.403099

>  <SCORE.INTRA.DIHEDRAL>
-18.1614

>  <SCORE.INTRA.DIHEDRAL.0>
27.8999

>  <SCORE.INTRA.POLAR>
0

>  <SCORE.INTRA.POLAR.0>
0

>  <SCORE.INTRA.REPUL>
0

>  <SCORE.INTRA.REPUL.0>
0

>  <SCORE.INTRA.SOLV>
-1.80346

>  <SCORE.INTRA.SOLV.lig_0>
-104.479

>  <SCORE.INTRA.VDW>
10.3855

>  <SCORE.INTRA.VDW.0>
-6.17816

>  <SCORE.INTRA.norm>
0.00959759

>  <SCORE.RESTR>
13.9968

>  <SCORE.RESTR.CAVITY>
13.9968

>  <SCORE.RESTR.norm>
0.333258

>  <SCORE.SYSTEM>
0

>  <SCORE.SYSTEM.CONST>
0

>  <SCORE.SYSTEM.DIHEDRAL>
0

>  <SCORE.SYSTEM.SOLV>
0

>  <SCORE.SYSTEM.norm>
0

>  <SCORE.heavy>
42

>  <SCORE.norm>
0.399436

>  <RMSD>
18.527

$$$$
ligand
 OpenBabel02271912133D
libRbt.so/2013.1/901 2013/11/27
 42 45  0  0  0  0  0  0  0  0999 V2000
   12.1775   11.3894   -7.7118 C   0  0  2  0  0  0  0  0  0  0  0  0
   12.7939   11.4767   -9.0078 O   0  0  0  0  0  0  0  0  0  0  0  0
   12.0270    8.8933  -12.4039 C   0  0  2  0  0  0  0  0  0  0  0  0
   11.4042    8.2645  -13.6069 N   0  0  0  0  0  0  0  0  0  0  0  0
   11.7077   13.3039  -11.9033 C   0  0  1  0  0  0  0  0  0  0  0  0
    9.4350   16.5043  -11.3862 C   0  0  1  0  0  0  0  0  0  0  0  0
   11.5908   12.7969   -7.3911 C   0  0  2  0  0  0  0  0  0  0  0  0
   10.7726   13.3312   -8.4936 N   0  0  0  0  0  0  0  0  0  0  0  0
   11.1109    8.7194  -11.1262 C   0  0  0  0  0  0  0  0  0  0  0  0
   11.8766   14.8451  -11.7395 C   0  0  2  0  0  0  0  0  0  0  0  0
   11.5312   15.3391  -10.4220 O   0  0  0  0  0  0  0  0  0  0  0  0
    7.9441   16.6594  -10.9152 C   0  0  2  0  0  0  0  0  0  0  0  0
    7.0600   17.0367  -12.0584 N   0  0  0  0  0  0  0  0  0  0  0  0
   12.6900   13.8375   -7.1083 C   0  0  1  0  0  0  0  0  0  0  0  0
   12.1072   15.1001   -6.7810 O   0  0  0  0  0  0  0  0  0  0  0  0
   11.8291    9.3810   -9.8896 C   0  0  2  0  0  0  0  0  0  0  0  0
   11.0000    9.2230   -8.6644 N   0  0  0  0  0  0  0  0  0  0  0  0
   11.0105   15.3627  -12.8889 C   0  0  2  0  0  0  0  0  0  0  0  0
    9.6273   15.5803  -12.4645 O   0  0  0  0  0  0  0  0  0  0  0  0
    7.8700   17.7518   -9.7455 C   0  0  1  0  0  0  0  0  0  0  0  0
    8.4178   17.1796   -8.5366 O   0  0  0  0  0  0  0  0  0  0  0  0
   13.6040   13.3261   -5.9715 C   0  0  2  0  0  0  0  0  0  0  0  0
   14.6059   14.2752   -5.6890 O   0  0  0  0  0  0  0  0  0  0  0  0
   12.0952   10.9154  -10.1554 C   0  0  2  0  0  0  0  0  0  0  0  0
   11.0929   14.2977  -13.9955 C   0  0  2  0  0  0  0  0  0  0  0  0
   11.2666   13.0868  -13.2633 O   0  0  0  0  0  0  0  0  0  0  0  0
    8.6563   19.1011  -10.1039 C   0  0  2  0  0  0  0  0  0  0  0  0
    7.9317   19.7593  -11.1422 O   0  0  0  0  0  0  0  0  0  0  0  0
   14.2397   11.9623   -6.4021 C   0  0  2  0  0  0  0  0  0  0  0  0
   13.1807   10.9978   -6.6989 O   0  0  0  0  0  0  0  0  0  0  0  0
   12.9395   11.1658  -11.4241 C   0  0  2  0  0  0  0  0  0  0  0  0
   12.9267   12.6075  -11.6131 O   0  0  0  0  0  0  0  0  0  0  0  0
   12.2494   14.5036  -15.0222 C   0  0  0  0  0  0  0  0  0  0  0  0
   13.4434   14.8440  -14.3240 O   0  0  0  0  0  0  0  0  0  0  0  0
   10.1228   18.7797  -10.5817 C   0  0  1  0  0  0  0  0  0  0  0  0
    9.9880   17.8706  -11.7331 O   0  0  0  0  0  0  0  0  0  0  0  0
   15.1479   11.3836   -5.3419 C   0  0  0  0  0  0  0  0  0  0  0  0
   16.3498   12.1124   -5.2825 O   0  0  0  0  0  0  0  0  0  0  0  0
   12.2900   10.4297  -12.6699 C   0  0  1  0  0  0  0  0  0  0  0  0
   13.1494   10.5349  -13.8083 O   0  0  0  0  0  0  0  0  0  0  0  0
   10.9666   20.0638  -10.9912 C   0  0  0  0  0  0  0  0  0  0  0  0
   11.4693   20.8898   -9.8591 N   0  0  0  0  0  0  0  0  0  0  0  0
  1  2  1  6  0  0  0
  1  7  1  0  0  0  0
  1 30  1  0  0  0  0
  3  4  1  6  0  0  0
  3  9  1  0  0  0  0
  3 39  1  0  0  0  0
  5 10  1  0  0  0  0
  5 26  1  0  0  0  0
  5 32  1  6  0  0  0
  6 12  1  0  0  0  0
  6 36  1  0  0  0  0
  6 19  1  6  0  0  0
  7  8  1  6  0  0  0
  7 14  1  0  0  0  0
  9 16  1  0  0  0  0
 10 11  1  1  0  0  0
 10 18  1  0  0  0  0
 12 13  1  6  0  0  0
 12 20  1  0  0  0  0
 14 15  1  1  0  0  0
 14 22  1  0  0  0  0
 16 17  1  1  0  0  0
 16 24  1  0  0  0  0
 18 19  1  1  0  0  0
 18 25  1  0  0  0  0
 20 21  1  1  0  0  0
 20 27  1  0  0  0  0
 22 23  1  6  0  0  0
 22 29  1  0  0  0  0
 24  2  1  1  0  0  0
 24 31  1  0  0  0  0
 25 26  1  0  0  0  0
 25 33  1  6  0  0  0
 27 28  1  6  0  0  0
 27 35  1  0  0  0  0
 29 30  1  0  0  0  0
 29 37  1  1  0  0  0
 31 32  1  6  0  0  0
 31 39  1  0  0  0  0
 33 34  1  0  0  0  0
 35 36  1  0  0  0  0
 35 41  1  6  0  0  0
 37 38  1  0  0  0  0
 39 40  1  6  0  0  0
 41 42  1  0  0  0  0
M  END
>  <CHROM.1>
-103.04334186,-58.12177678,58.70837382,-177.25345346,44.29263672,-73.32411514
-64.56052597,166.89947388,75.58107516,11.54304584,13.95153597,-10.23725365
-0.38161078,-1.08879560,0.84728486

>  <Name>
ligand

>  <RI>
0

>  <Rbt.Current_Directory>
/home/itssahil/PROJECTS/Mol_Feturizer/Test_systems_manuscript/rnas/2o3w

>  <Rbt.Executable>
rbdock ($Id: //depot/dev/client3/rdock/2013.1/src/exe/rbdock.cxx#4 $)

>  <Rbt.Library>
libRbt.so (2013.1, Build901 2013/11/27)

>  <Rbt.Parameter_File>
/export/apps/rDock/src/rDock_2013.1_src/data/scripts/dock_solv.prm

>  <Rbt.Receptor>
prm/blind_docking_40.prm

>  <SCORE>
5.09849

>  <SCORE.INTER>
-5.05332

>  <SCORE.INTER.CONST>
1

>  <SCORE.INTER.POLAR>
0

>  <SCORE.INTER.ROT>
9

>  <SCORE.INTER.SOLV>
23.5768

>  <SCORE.INTER.VDW>
-20.8278

>  <SCORE.INTER.norm>
-0.120317

>  <SCORE.INTRA>
-5.12311

>  <SCORE.INTRA.DIHEDRAL>
-18.6094

>  <SCORE.INTRA.DIHEDRAL.0>
27.8999

>  <SCORE.INTRA.POLAR>
0

>  <SCORE.INTRA.POLAR.0>
0

>  <SCORE.INTRA.REPUL>
0

>  <SCORE.INTRA.REPUL.0>
0

>  <SCORE.INTRA.SOLV>
0.302028

>  <SCORE.INTRA.SOLV.lig_0>
-104.479

>  <SCORE.INTRA.VDW>
4.03055

>  <SCORE.INTRA.VDW.0>
-6.17816

>  <SCORE.INTRA.norm>
-0.121979

>  <SCORE.RESTR>
15.2749

>  <SCORE.RESTR.CAVITY>
15.2749

>  <SCORE.RESTR.norm>
0.363689

>  <SCORE.SYSTEM>
0

>  <SCORE.SYSTEM.CONST>
0

>  <SCORE.SYSTEM.DIHEDRAL>
0

>  <SCORE.SYSTEM.SOLV>
0

>  <SCORE.SYSTEM.norm>
0

>  <SCORE.heavy>
42

>  <SCORE.norm>
0.121393

>  <RMSD>
18.539

$$$$
ligand
 OpenBabel02271912133D
libRbt.so/2013.1/901 2013/11/27
 42 45  0  0  0  0  0  0  0  0999 V2000
   12.0684   14.0378  -12.7719 C   0  0  2  0  0  0  0  0  0  0  0  0
   13.2912   13.9024  -12.0277 O   0  0  0  0  0  0  0  0  0  0  0  0
   13.2772    9.6499  -11.1838 C   0  0  2  0  0  0  0  0  0  0  0  0
   13.4621    8.3266  -10.5165 N   0  0  0  0  0  0  0  0  0  0  0  0
   11.9243   12.8401   -8.5431 C   0  0  1  0  0  0  0  0  0  0  0  0
   13.1002   12.5815   -5.6669 C   0  0  1  0  0  0  0  0  0  0  0  0
   12.2729   15.2144  -13.7729 C   0  0  2  0  0  0  0  0  0  0  0  0
   13.5222   15.0884  -14.5435 N   0  0  0  0  0  0  0  0  0  0  0  0
   14.6685   10.3317  -11.5021 C   0  0  0  0  0  0  0  0  0  0  0  0
   10.9414   13.6767   -7.6686 C   0  0  2  0  0  0  0  0  0  0  0  0
   11.4011   15.0217   -7.3880 O   0  0  0  0  0  0  0  0  0  0  0  0
   13.2205   11.0193   -5.7844 C   0  0  2  0  0  0  0  0  0  0  0  0
   12.6660   10.3488   -4.5704 N   0  0  0  0  0  0  0  0  0  0  0  0
   12.3225   16.5813  -13.0656 C   0  0  1  0  0  0  0  0  0  0  0  0
   12.4709   17.6314  -14.0227 O   0  0  0  0  0  0  0  0  0  0  0  0
   14.4090   11.7084  -12.2230 C   0  0  2  0  0  0  0  0  0  0  0  0
   15.6996   12.3721  -12.5509 N   0  0  0  0  0  0  0  0  0  0  0  0
   10.7776   12.7654   -6.4513 C   0  0  2  0  0  0  0  0  0  0  0  0
   11.7726   13.0611   -5.4201 O   0  0  0  0  0  0  0  0  0  0  0  0
   14.7563   10.6227   -6.0101 C   0  0  1  0  0  0  0  0  0  0  0  0
   15.1344   10.9686   -7.3615 O   0  0  0  0  0  0  0  0  0  0  0  0
   11.0452   16.7687  -12.2155 C   0  0  2  0  0  0  0  0  0  0  0  0
   11.0675   18.0229  -11.5745 O   0  0  0  0  0  0  0  0  0  0  0  0
   13.5404   12.6606  -11.3092 C   0  0  2  0  0  0  0  0  0  0  0  0
   10.9280   11.3270   -6.9745 C   0  0  2  0  0  0  0  0  0  0  0  0
   11.8263   11.4766   -8.0714 O   0  0  0  0  0  0  0  0  0  0  0  0
   15.7438   11.3454   -4.9756 C   0  0  2  0  0  0  0  0  0  0  0  0
   15.5011   10.7858   -3.6855 O   0  0  0  0  0  0  0  0  0  0  0  0
   10.9570   15.6120  -11.1648 C   0  0  2  0  0  0  0  0  0  0  0  0
   10.9451   14.3216  -11.8536 O   0  0  0  0  0  0  0  0  0  0  0  0
   12.1857   12.0354  -10.9101 C   0  0  2  0  0  0  0  0  0  0  0  0
   11.6133   12.9529   -9.9380 O   0  0  0  0  0  0  0  0  0  0  0  0
    9.5977   10.6489   -7.4270 C   0  0  0  0  0  0  0  0  0  0  0  0
    9.8305    9.2624   -7.6558 O   0  0  0  0  0  0  0  0  0  0  0  0
   15.4851   12.8994   -4.9533 C   0  0  1  0  0  0  0  0  0  0  0  0
   14.0637   13.0726   -4.6069 O   0  0  0  0  0  0  0  0  0  0  0  0
    9.7287   15.7133  -10.2903 C   0  0  0  0  0  0  0  0  0  0  0  0
    8.5835   15.9096  -11.0836 O   0  0  0  0  0  0  0  0  0  0  0  0
   12.4104   10.6031  -10.2670 C   0  0  1  0  0  0  0  0  0  0  0  0
   11.1524    9.9625  -10.0373 O   0  0  0  0  0  0  0  0  0  0  0  0
   16.4021   13.6939   -3.9255 C   0  0  0  0  0  0  0  0  0  0  0  0
   16.1939   13.3615   -2.4892 N   0  0  0  0  0  0  0  0  0  0  0  0
  1  2  1  1  0  0  0
  1  7  1  0  0  0  0
  1 30  1  0  0  0  0
  3  4  1  1  0  0  0
  3  9  1  0  0  0  0
  3 39  1  0  0  0  0
  5 10  1  0  0  0  0
  5 26  1  0  0  0  0
  5 32  1  6  0  0  0
  6 12  1  0  0  0  0
  6 36  1  0  0  0  0
  6 19  1  1  0  0  0
  7  8  1  1  0  0  0
  7 14  1  0  0  0  0
  9 16  1  0  0  0  0
 10 11  1  1  0  0  0
 10 18  1  0  0  0  0
 12 13  1  1  0  0  0
 12 20  1  0  0  0  0
 14 15  1  6  0  0  0
 14 22  1  0  0  0  0
 16 17  1  1  0  0  0
 16 24  1  0  0  0  0
 18 19  1  1  0  0  0
 18 25  1  0  0  0  0
 20 21  1  6  0  0  0
 20 27  1  0  0  0  0
 22 23  1  1  0  0  0
 22 29  1  0  0  0  0
 24  2  1  6  0  0  0
 24 31  1  0  0  0  0
 25 26  1  0  0  0  0
 25 33  1  6  0  0  0
 27 28  1  1  0  0  0
 27 35  1  0  0  0  0
 29 30  1  0  0  0  0
 29 37  1  6  0  0  0
 31 32  1  1  0  0  0
 31 39  1  0  0  0  0
 33 34  1  0  0  0  0
 35 36  1  0  0  0  0
 35 41  1  1  0  0  0
 37 38  1  0  0  0  0
 39 40  1  6  0  0  0
 41 42  1  0  0  0  0
M  END
>  <CHROM.1>
-162.12249193,94.81776348,-76.20417724,-61.82092719,-169.57153957,49.00514915
-87.06071875,-165.75184316,-64.15142894,12.63561501,12.88321650,-8.99817266
-2.39721485,-1.21063708,1.23524966

>  <Name>
ligand

>  <RI>
0

>  <Rbt.Current_Directory>
/home/itssahil/PROJECTS/Mol_Feturizer/Test_systems_manuscript/rnas/2o3w

>  <Rbt.Executable>
rbdock ($Id: //depot/dev/client3/rdock/2013.1/src/exe/rbdock.cxx#4 $)

>  <Rbt.Library>
libRbt.so (2013.1, Build901 2013/11/27)

>  <Rbt.Parameter_File>
/export/apps/rDock/src/rDock_2013.1_src/data/scripts/dock_solv.prm

>  <Rbt.Receptor>
prm/blind_docking_80.prm

>  <SCORE>
25.5731

>  <SCORE.INTER>
13.8902

>  <SCORE.INTER.CONST>
1

>  <SCORE.INTER.POLAR>
0

>  <SCORE.INTER.ROT>
9

>  <SCORE.INTER.SOLV>
34.5207

>  <SCORE.INTER.VDW>
-11.8468

>  <SCORE.INTER.norm>
0.330719

>  <SCORE.INTRA>
4.03753

>  <SCORE.INTRA.DIHEDRAL>
-15.7499

>  <SCORE.INTRA.DIHEDRAL.0>
27.8999

>  <SCORE.INTRA.POLAR>
0

>  <SCORE.INTRA.POLAR.0>
0

>  <SCORE.INTRA.REPUL>
0

>  <SCORE.INTRA.REPUL.0>
0

>  <SCORE.INTRA.SOLV>
0.489012

>  <SCORE.INTRA.SOLV.lig_0>
-104.479

>  <SCORE.INTRA.VDW>
11.668

>  <SCORE.INTRA.VDW.0>
-6.17816

>  <SCORE.INTRA.norm>
0.0961318

>  <SCORE.RESTR>
7.64536

>  <SCORE.RESTR.CAVITY>
7.64536

>  <SCORE.RESTR.norm>
0.182032

>  <SCORE.SYSTEM>
0

>  <SCORE.SYSTEM.CONST>
0

>  <SCORE.SYSTEM.DIHEDRAL>
0

>  <SCORE.SYSTEM.SOLV>
0

>  <SCORE.SYSTEM.norm>
0

>  <SCORE.heavy>
42

>  <SCORE.norm>
0.608883

>  <RMSD>
18.543

$$$$
ligand
 OpenBabel02271912133D
libRbt.so/2013.1/901 2013/11/27
 42 45  0  0  0  0  0  0  0  0999 V2000
   12.3463   10.6427   -8.2224 C   0  0  2  0  0  0  0  0  0  0  0  0
   13.3296   10.8707   -9.2464 O   0  0  0  0  0  0  0  0  0  0  0  0
   13.8374    8.7325  -12.9836 C   0  0  2  0  0  0  0  0  0  0  0  0
   13.6497    8.2306  -14.3776 N   0  0  0  0  0  0  0  0  0  0  0  0
   12.8731   12.9917  -12.0744 C   0  0  1  0  0  0  0  0  0  0  0  0
   10.0732   16.4226  -12.7700 C   0  0  1  0  0  0  0  0  0  0  0  0
   11.6435   12.0074   -7.9545 C   0  0  2  0  0  0  0  0  0  0  0  0
   11.1887   12.6603   -9.1944 N   0  0  0  0  0  0  0  0  0  0  0  0
   12.6282    8.3123  -12.0545 C   0  0  0  0  0  0  0  0  0  0  0  0
   12.7497   14.4641  -11.5766 C   0  0  2  0  0  0  0  0  0  0  0  0
   11.9733   14.6125  -10.3624 O   0  0  0  0  0  0  0  0  0  0  0  0
   10.9849   17.5936  -12.2539 C   0  0  2  0  0  0  0  0  0  0  0  0
   11.5492   17.2767  -10.9077 N   0  0  0  0  0  0  0  0  0  0  0  0
   12.5670   13.0093   -7.2372 C   0  0  1  0  0  0  0  0  0  0  0  0
   11.8706   14.2292   -6.9769 O   0  0  0  0  0  0  0  0  0  0  0  0
   12.8938    8.8493  -10.5973 C   0  0  2  0  0  0  0  0  0  0  0  0
   11.7803    8.4587   -9.6910 N   0  0  0  0  0  0  0  0  0  0  0  0
   12.1761   15.1500  -12.8175 C   0  0  2  0  0  0  0  0  0  0  0  0
   10.7130   15.1409  -12.8093 O   0  0  0  0  0  0  0  0  0  0  0  0
   10.1327   18.9498  -12.2160 C   0  0  1  0  0  0  0  0  0  0  0  0
    9.9337   19.4145  -13.5700 O   0  0  0  0  0  0  0  0  0  0  0  0
   13.1015   12.3751   -5.9328 C   0  0  2  0  0  0  0  0  0  0  0  0
   13.9356   13.2862   -5.2555 O   0  0  0  0  0  0  0  0  0  0  0  0
   13.0464   10.4217  -10.6023 C   0  0  2  0  0  0  0  0  0  0  0  0
   12.7314   14.3763  -14.0251 C   0  0  2  0  0  0  0  0  0  0  0  0
   12.8744   13.0511  -13.5192 O   0  0  0  0  0  0  0  0  0  0  0  0
    8.7123   18.7719  -11.4961 C   0  0  2  0  0  0  0  0  0  0  0  0
    8.9569   18.5610  -10.1062 O   0  0  0  0  0  0  0  0  0  0  0  0
   13.8834   11.0658   -6.2848 C   0  0  2  0  0  0  0  0  0  0  0  0
   13.0000   10.1411   -6.9949 O   0  0  0  0  0  0  0  0  0  0  0  0
   14.1759   10.9108  -11.5352 C   0  0  2  0  0  0  0  0  0  0  0  0
   14.0517   12.3594  -11.5585 O   0  0  0  0  0  0  0  0  0  0  0  0
   14.0856   14.9128  -14.5842 C   0  0  0  0  0  0  0  0  0  0  0  0
   14.3438   14.3109  -15.8491 O   0  0  0  0  0  0  0  0  0  0  0  0
    7.9305   17.5466  -12.1042 C   0  0  1  0  0  0  0  0  0  0  0  0
    8.8097   16.3764  -11.9367 O   0  0  0  0  0  0  0  0  0  0  0  0
   14.4383   10.3733   -5.0616 C   0  0  0  0  0  0  0  0  0  0  0  0
   15.4628   11.1485   -4.4883 O   0  0  0  0  0  0  0  0  0  0  0  0
   13.9869   10.3068  -12.9895 C   0  0  1  0  0  0  0  0  0  0  0  0
   15.1111   10.6355  -13.8103 O   0  0  0  0  0  0  0  0  0  0  0  0
    6.5195   17.2760  -11.4229 C   0  0  0  0  0  0  0  0  0  0  0  0
    6.5331   17.1701   -9.9379 N   0  0  0  0  0  0  0  0  0  0  0  0
  1  2  1  6  0  0  0
  1  7  1  0  0  0  0
  1 30  1  0  0  0  0
  3  4  1  6  0  0  0
  3  9  1  0  0  0  0
  3 39  1  0  0  0  0
  5 10  1  0  0  0  0
  5 26  1  0  0  0  0
  5 32  1  1  0  0  0
  6 12  1  0  0  0  0
  6 36  1  0  0  0  0
  6 19  1  1  0  0  0
  7  8  1  6  0  0  0
  7 14  1  0  0  0  0
  9 16  1  0  0  0  0
 10 11  1  1  0  0  0
 10 18  1  0  0  0  0
 12 13  1  1  0  0  0
 12 20  1  0  0  0  0
 14 15  1  1  0  0  0
 14 22  1  0  0  0  0
 16 17  1  1  0  0  0
 16 24  1  0  0  0  0
 18 19  1  1  0  0  0
 18 25  1  0  0  0  0
 20 21  1  6  0  0  0
 20 27  1  0  0  0  0
 22 23  1  6  0  0  0
 22 29  1  0  0  0  0
 24  2  1  1  0  0  0
 24 31  1  0  0  0  0
 25 26  1  0  0  0  0
 25 33  1  1  0  0  0
 27 28  1  1  0  0  0
 27 35  1  0  0  0  0
 29 30  1  0  0  0  0
 29 37  1  1  0  0  0
 31 32  1  6  0  0  0
 31 39  1  0  0  0  0
 33 34  1  0  0  0  0
 35 36  1  0  0  0  0
 35 41  1  1  0  0  0
 37 38  1  0  0  0  0
 39 40  1  6  0  0  0
 41 42  1  0  0  0  0
M  END
>  <CHROM.1>
-103.93478385,-62.62652625,117.40022006,-19.99763744,-167.64667283,-68.22420522
-62.66382691,160.91044287,-51.77049762,12.07877165,13.43572267,-10.68475734
0.48701940,-1.02355861,1.69091785

>  <Name>
ligand

>  <RI>
0

>  <Rbt.Current_Directory>
/home/itssahil/PROJECTS/Mol_Feturizer/Test_systems_manuscript/rnas/2o3w

>  <Rbt.Executable>
rbdock ($Id: //depot/dev/client3/rdock/2013.1/src/exe/rbdock.cxx#4 $)

>  <Rbt.Library>
libRbt.so (2013.1, Build901 2013/11/27)

>  <Rbt.Parameter_File>
/export/apps/rDock/src/rDock_2013.1_src/data/scripts/dock_solv.prm

>  <Rbt.Receptor>
prm/blind_docking_40.prm

>  <SCORE>
13.9737

>  <SCORE.INTER>
-3.81852

>  <SCORE.INTER.CONST>
1

>  <SCORE.INTER.POLAR>
0

>  <SCORE.INTER.ROT>
9

>  <SCORE.INTER.SOLV>
25.7407

>  <SCORE.INTER.VDW>
-20.7259

>  <SCORE.INTER.norm>
-0.0909171

>  <SCORE.INTRA>
3.18909

>  <SCORE.INTRA.DIHEDRAL>
-6.57744

>  <SCORE.INTRA.DIHEDRAL.0>
27.8999

>  <SCORE.INTRA.POLAR>
0

>  <SCORE.INTRA.POLAR.0>
0

>  <SCORE.INTRA.REPUL>
0

>  <SCORE.INTRA.REPUL.0>
0

>  <SCORE.INTRA.SOLV>
4.00708

>  <SCORE.INTRA.SOLV.lig_0>
-104.479

>  <SCORE.INTRA.VDW>
4.47426

>  <SCORE.INTRA.VDW.0>
-6.17816

>  <SCORE.INTRA.norm>
0.0759306

>  <SCORE.RESTR>
14.6032

>  <SCORE.RESTR.CAVITY>
14.6032

>  <SCORE.RESTR.norm>
0.347695

>  <SCORE.SYSTEM>
0

>  <SCORE.SYSTEM.CONST>
0

>  <SCORE.SYSTEM.DIHEDRAL>
0

>  <SCORE.SYSTEM.SOLV>
0

>  <SCORE.SYSTEM.norm>
0

>  <SCORE.heavy>
42

>  <SCORE.norm>
0.332708

>  <RMSD>
18.549

$$$$
ligand
 OpenBabel02271912133D
libRbt.so/2013.1/901 2013/11/27
 42 45  0  0  0  0  0  0  0  0999 V2000
   12.7535   10.7873   -7.0380 C   0  0  2  0  0  0  0  0  0  0  0  0
   13.4293   10.7458   -8.3065 O   0  0  0  0  0  0  0  0  0  0  0  0
   11.7916    8.8370  -11.8377 C   0  0  2  0  0  0  0  0  0  0  0  0
   11.0385    8.5794  -13.1015 N   0  0  0  0  0  0  0  0  0  0  0  0
   13.5549   12.9168  -10.7937 C   0  0  1  0  0  0  0  0  0  0  0  0
   11.9911   16.4506  -12.6508 C   0  0  1  0  0  0  0  0  0  0  0  0
   12.3504   12.2712   -6.7855 C   0  0  2  0  0  0  0  0  0  0  0  0
   11.6587   12.8717   -7.9394 N   0  0  0  0  0  0  0  0  0  0  0  0
   10.8085    9.1175  -10.6308 C   0  0  0  0  0  0  0  0  0  0  0  0
   13.2750   13.4858  -12.2180 C   0  0  2  0  0  0  0  0  0  0  0  0
   14.2855   14.4091  -12.6928 O   0  0  0  0  0  0  0  0  0  0  0  0
   10.6930   16.5487  -13.5307 C   0  0  2  0  0  0  0  0  0  0  0  0
   10.3413   15.2188  -14.1125 N   0  0  0  0  0  0  0  0  0  0  0  0
   13.5679   13.1640   -6.4829 C   0  0  1  0  0  0  0  0  0  0  0  0
   13.1487   14.5040   -6.2193 O   0  0  0  0  0  0  0  0  0  0  0  0
   11.6582    9.3587   -9.3260 C   0  0  2  0  0  0  0  0  0  0  0  0
   10.7629    9.6119   -8.1650 N   0  0  0  0  0  0  0  0  0  0  0  0
   11.8752   14.0739  -12.0330 C   0  0  2  0  0  0  0  0  0  0  0  0
   11.9312   15.4721  -11.6056 O   0  0  0  0  0  0  0  0  0  0  0  0
   10.9161   17.6399  -14.6824 C   0  0  1  0  0  0  0  0  0  0  0  0
   10.8740   18.9582  -14.0914 O   0  0  0  0  0  0  0  0  0  0  0  0
   14.3561   12.5745   -5.2911 C   0  0  2  0  0  0  0  0  0  0  0  0
   15.4649   13.3897   -4.9905 O   0  0  0  0  0  0  0  0  0  0  0  0
   12.6373   10.5836   -9.5175 C   0  0  2  0  0  0  0  0  0  0  0  0
   11.1820   13.1959  -10.9776 C   0  0  2  0  0  0  0  0  0  0  0  0
   12.2653   12.7638  -10.1577 O   0  0  0  0  0  0  0  0  0  0  0  0
   12.3022   17.4463  -15.4626 C   0  0  2  0  0  0  0  0  0  0  0  0
   12.1997   16.2495  -16.2328 O   0  0  0  0  0  0  0  0  0  0  0  0
   14.8182   11.1234   -5.6523 C   0  0  2  0  0  0  0  0  0  0  0  0
   13.6514   10.3001   -5.9693 O   0  0  0  0  0  0  0  0  0  0  0  0
   13.5929   10.4045  -10.7175 C   0  0  2  0  0  0  0  0  0  0  0  0
   14.2775   11.6801  -10.8543 O   0  0  0  0  0  0  0  0  0  0  0  0
   10.3913   11.9789  -11.5503 C   0  0  0  0  0  0  0  0  0  0  0  0
    9.4475   11.5329  -10.5812 O   0  0  0  0  0  0  0  0  0  0  0  0
   13.5017   17.3399  -14.4466 C   0  0  1  0  0  0  0  0  0  0  0  0
   13.1830   16.2122  -13.5539 O   0  0  0  0  0  0  0  0  0  0  0  0
   15.5947   10.4654   -4.5353 C   0  0  0  0  0  0  0  0  0  0  0  0
   14.7132    9.9829   -3.5507 O   0  0  0  0  0  0  0  0  0  0  0  0
   12.7689   10.0652  -12.0296 C   0  0  1  0  0  0  0  0  0  0  0  0
   13.6592    9.7510  -13.1040 O   0  0  0  0  0  0  0  0  0  0  0  0
   14.9163   17.1121  -15.1364 C   0  0  0  0  0  0  0  0  0  0  0  0
   15.0285   15.8935  -15.9844 N   0  0  0  0  0  0  0  0  0  0  0  0
  1  2  1  6  0  0  0
  1  7  1  0  0  0  0
  1 30  1  0  0  0  0
  3  4  1  6  0  0  0
  3  9  1  0  0  0  0
  3 39  1  0  0  0  0
  5 10  1  0  0  0  0
  5 26  1  0  0  0  0
  5 32  1  6  0  0  0
  6 12  1  0  0  0  0
  6 36  1  0  0  0  0
  6 19  1  1  0  0  0
  7  8  1  6  0  0  0
  7 14  1  0  0  0  0
  9 16  1  0  0  0  0
 10 11  1  1  0  0  0
 10 18  1  0  0  0  0
 12 13  1  6  0  0  0
 12 20  1  0  0  0  0
 14 15  1  1  0  0  0
 14 22  1  0  0  0  0
 16 17  1  1  0  0  0
 16 24  1  0  0  0  0
 18 19  1  1  0  0  0
 18 25  1  0  0  0  0
 20 21  1  1  0  0  0
 20 27  1  0  0  0  0
 22 23  1  6  0  0  0
 22 29  1  0  0  0  0
 24  2  1  1  0  0  0
 24 31  1  0  0  0  0
 25 26  1  0  0  0  0
 25 33  1  6  0  0  0
 27 28  1  1  0  0  0
 27 35  1  0  0  0  0
 29 30  1  0  0  0  0
 29 37  1  1  0  0  0
 31 32  1  6  0  0  0
 31 39  1  0  0  0  0
 33 34  1  0  0  0  0
 35 36  1  0  0  0  0
 35 41  1  6  0  0  0
 37 38  1  0  0  0  0
 39 40  1  6  0  0  0
 41 42  1  0  0  0  0
M  END
>  <CHROM.1>
-87.24042531,-50.19202046,88.20900378,66.96531415,-160.16052497,79.27725767
-45.44152942,-99.57002922,-58.51989907,12.70123871,12.98911306,-10.56272468
-1.23323260,-1.18220300,-0.65164038

>  <Name>
ligand

>  <RI>
0

>  <Rbt.Current_Directory>
/home/itssahil/PROJECTS/Mol_Feturizer/Test_systems_manuscript/rnas/2o3w

>  <Rbt.Executable>
rbdock ($Id: //depot/dev/client3/rdock/2013.1/src/exe/rbdock.cxx#4 $)

>  <Rbt.Library>
libRbt.so (2013.1, Build901 2013/11/27)

>  <Rbt.Parameter_File>
/export/apps/rDock/src/rDock_2013.1_src/data/scripts/dock_solv.prm

>  <Rbt.Receptor>
prm/blind_docking_100.prm

>  <SCORE>
33.6245

>  <SCORE.INTER>
13.8058

>  <SCORE.INTER.CONST>
1

>  <SCORE.INTER.POLAR>
0

>  <SCORE.INTER.ROT>
9

>  <SCORE.INTER.SOLV>
26.2039

>  <SCORE.INTER.VDW>
-9.13078

>  <SCORE.INTER.norm>
0.328709

>  <SCORE.INTRA>
15.1714

>  <SCORE.INTRA.DIHEDRAL>
-11.8864

>  <SCORE.INTRA.DIHEDRAL.0>
27.8999

>  <SCORE.INTRA.POLAR>
0

>  <SCORE.INTRA.POLAR.0>
0

>  <SCORE.INTRA.REPUL>
0.25744

>  <SCORE.INTRA.REPUL.0>
0

>  <SCORE.INTRA.SOLV>
9.47572

>  <SCORE.INTRA.SOLV.lig_0>
-104.479

>  <SCORE.INTRA.VDW>
15.0895

>  <SCORE.INTRA.VDW.0>
-6.17816

>  <SCORE.INTRA.norm>
0.361223

>  <SCORE.RESTR>
4.64736

>  <SCORE.RESTR.CAVITY>
4.64736

>  <SCORE.RESTR.norm>
0.110651

>  <SCORE.SYSTEM>
0

>  <SCORE.SYSTEM.CONST>
0

>  <SCORE.SYSTEM.DIHEDRAL>
0

>  <SCORE.SYSTEM.SOLV>
0

>  <SCORE.SYSTEM.norm>
0

>  <SCORE.heavy>
42

>  <SCORE.norm>
0.800584

>  <RMSD>
18.556

$$$$
ligand
 OpenBabel02271912133D
libRbt.so/2013.1/901 2013/11/27
 42 45  0  0  0  0  0  0  0  0999 V2000
   12.4829   14.0144  -11.5905 C   0  0  2  0  0  0  0  0  0  0  0  0
   13.0487   12.8971  -12.2967 O   0  0  0  0  0  0  0  0  0  0  0  0
   14.8061    9.0733  -11.2546 C   0  0  2  0  0  0  0  0  0  0  0  0
   15.5595    7.9935  -10.5498 N   0  0  0  0  0  0  0  0  0  0  0  0
   12.6781   12.2240   -8.8781 C   0  0  1  0  0  0  0  0  0  0  0  0
   13.8439   13.5988   -5.0322 C   0  0  1  0  0  0  0  0  0  0  0  0
   10.9341   13.8901  -11.7083 C   0  0  2  0  0  0  0  0  0  0  0  0
   10.4473   12.5469  -11.3485 N   0  0  0  0  0  0  0  0  0  0  0  0
   15.7770   10.2158  -11.7582 C   0  0  0  0  0  0  0  0  0  0  0  0
   11.6244   13.0097   -8.0395 C   0  0  2  0  0  0  0  0  0  0  0  0
   11.4633   14.3922   -8.4416 O   0  0  0  0  0  0  0  0  0  0  0  0
   14.7174   14.8135   -4.5523 C   0  0  2  0  0  0  0  0  0  0  0  0
   15.6335   15.2738   -5.6384 N   0  0  0  0  0  0  0  0  0  0  0  0
   10.4317   14.1778  -13.1351 C   0  0  1  0  0  0  0  0  0  0  0  0
    9.0066   14.0917  -13.1875 O   0  0  0  0  0  0  0  0  0  0  0  0
   14.9298   11.3107  -12.5105 C   0  0  2  0  0  0  0  0  0  0  0  0
   15.8152   12.3963  -13.0116 N   0  0  0  0  0  0  0  0  0  0  0  0
   12.1506   12.7898   -6.6203 C   0  0  2  0  0  0  0  0  0  0  0  0
   13.0874   13.8418   -6.2248 O   0  0  0  0  0  0  0  0  0  0  0  0
   15.5416   14.3884   -3.2458 C   0  0  1  0  0  0  0  0  0  0  0  0
   14.6345   14.3205   -2.1227 O   0  0  0  0  0  0  0  0  0  0  0  0
   10.9299   15.5697  -13.5863 C   0  0  2  0  0  0  0  0  0  0  0  0
   10.4643   15.8554  -14.8848 O   0  0  0  0  0  0  0  0  0  0  0  0
   13.8325   11.9216  -11.5521 C   0  0  2  0  0  0  0  0  0  0  0  0
   12.8322   11.4111   -6.6291 C   0  0  2  0  0  0  0  0  0  0  0  0
   13.3150   11.3003   -7.9659 O   0  0  0  0  0  0  0  0  0  0  0  0
   16.2926   12.9830   -3.4140 C   0  0  2  0  0  0  0  0  0  0  0  0
   17.3473   13.1682   -4.3573 O   0  0  0  0  0  0  0  0  0  0  0  0
   12.4943   15.5908  -13.5426 C   0  0  2  0  0  0  0  0  0  0  0  0
   12.9528   15.2823  -12.1882 O   0  0  0  0  0  0  0  0  0  0  0  0
   12.8790   10.8524  -10.9750 C   0  0  2  0  0  0  0  0  0  0  0  0
   12.0708   11.5531   -9.9899 O   0  0  0  0  0  0  0  0  0  0  0  0
   11.8996   10.2136   -6.2680 C   0  0  0  0  0  0  0  0  0  0  0  0
   10.9402   10.0350   -7.3056 O   0  0  0  0  0  0  0  0  0  0  0  0
   15.2936   11.8764   -3.9233 C   0  0  1  0  0  0  0  0  0  0  0  0
   14.7324   12.3825   -5.1879 O   0  0  0  0  0  0  0  0  0  0  0  0
   13.0698   16.9230  -13.9644 C   0  0  0  0  0  0  0  0  0  0  0  0
   12.6386   17.9365  -13.0892 O   0  0  0  0  0  0  0  0  0  0  0  0
   13.7103    9.6861  -10.2933 C   0  0  1  0  0  0  0  0  0  0  0  0
   12.8371    8.6259   -9.8945 O   0  0  0  0  0  0  0  0  0  0  0  0
   15.9649   10.4529   -4.1507 C   0  0  0  0  0  0  0  0  0  0  0  0
   15.5494    9.7372   -5.3883 N   0  0  0  0  0  0  0  0  0  0  0  0
  1  2  1  6  0  0  0
  1  7  1  0  0  0  0
  1 30  1  0  0  0  0
  3  4  1  1  0  0  0
  3  9  1  0  0  0  0
  3 39  1  0  0  0  0
  5 10  1  0  0  0  0
  5 26  1  0  0  0  0
  5 32  1  6  0  0  0
  6 12  1  0  0  0  0
  6 36  1  0  0  0  0
  6 19  1  6  0  0  0
  7  8  1  6  0  0  0
  7 14  1  0  0  0  0
  9 16  1  0  0  0  0
 10 11  1  6  0  0  0
 10 18  1  0  0  0  0
 12 13  1  6  0  0  0
 12 20  1  0  0  0  0
 14 15  1  1  0  0  0
 14 22  1  0  0  0  0
 16 17  1  1  0  0  0
 16 24  1  0  0  0  0
 18 19  1  6  0  0  0
 18 25  1  0  0  0  0
 20 21  1  1  0  0  0
 20 27  1  0  0  0  0
 22 23  1  6  0  0  0
 22 29  1  0  0  0  0
 24  2  1  6  0  0  0
 24 31  1  0  0  0  0
 25 26  1  0  0  0  0
 25 33  1  6  0  0  0
 27 28  1  6  0  0  0
 27 35  1  0  0  0  0
 29 30  1  0  0  0  0
 29 37  1  1  0  0  0
 31 32  1  1  0  0  0
 31 39  1  0  0  0  0
 33 34  1  0  0  0  0
 35 36  1  0  0  0  0
 35 41  1  6  0  0  0
 37 38  1  0  0  0  0
 39 40  1  6  0  0  0
 41 42  1  0  0  0  0
M  END
>  <CHROM.1>
-116.92885722,-149.72384540,-167.87735162,-173.48600713,67.95110615,61.61564942
-58.57323795,174.68441054,-137.51925408,13.32334205,12.75160945,-9.04445089
2.72328797,1.20076511,-2.48090587

>  <Name>
ligand

>  <RI>
0

>  <Rbt.Current_Directory>
/home/itssahil/PROJECTS/Mol_Feturizer/Test_systems_manuscript/rnas/2o3w

>  <Rbt.Executable>
rbdock ($Id: //depot/dev/client3/rdock/2013.1/src/exe/rbdock.cxx#4 $)

>  <Rbt.Library>
libRbt.so (2013.1, Build901 2013/11/27)

>  <Rbt.Parameter_File>
/export/apps/rDock/src/rDock_2013.1_src/data/scripts/dock_solv.prm

>  <Rbt.Receptor>
prm/blind_docking_80.prm

>  <SCORE>
3.00344

>  <SCORE.INTER>
-5.31012

>  <SCORE.INTER.CONST>
1

>  <SCORE.INTER.POLAR>
0

>  <SCORE.INTER.ROT>
9

>  <SCORE.INTER.SOLV>
35.2622

>  <SCORE.INTER.VDW>
-24.8941

>  <SCORE.INTER.norm>
-0.126431

>  <SCORE.INTRA>
-0.656789

>  <SCORE.INTRA.DIHEDRAL>
-11.4582

>  <SCORE.INTRA.DIHEDRAL.0>
27.8999

>  <SCORE.INTRA.POLAR>
0

>  <SCORE.INTRA.POLAR.0>
0

>  <SCORE.INTRA.REPUL>
0.0014055

>  <SCORE.INTRA.REPUL.0>
0

>  <SCORE.INTRA.SOLV>
2.02721

>  <SCORE.INTRA.SOLV.lig_0>
-104.479

>  <SCORE.INTRA.VDW>
4.05168

>  <SCORE.INTRA.VDW.0>
-6.17816

>  <SCORE.INTRA.norm>
-0.0156378

>  <SCORE.RESTR>
8.97035

>  <SCORE.RESTR.CAVITY>
8.97035

>  <SCORE.RESTR.norm>
0.21358

>  <SCORE.SYSTEM>
0

>  <SCORE.SYSTEM.CONST>
0

>  <SCORE.SYSTEM.DIHEDRAL>
0

>  <SCORE.SYSTEM.SOLV>
0

>  <SCORE.SYSTEM.norm>
0

>  <SCORE.heavy>
42

>  <SCORE.norm>
0.0715105

>  <RMSD>
18.562

$$$$
ligand
 OpenBabel02271912133D
libRbt.so/2013.1/901 2013/11/27
 42 45  0  0  0  0  0  0  0  0999 V2000
   11.6590   11.4925  -11.3881 C   0  0  2  0  0  0  0  0  0  0  0  0
   11.3737   11.2762   -9.9956 O   0  0  0  0  0  0  0  0  0  0  0  0
   12.4811   13.1328   -6.2375 C   0  0  2  0  0  0  0  0  0  0  0  0
   13.2480   13.8249   -5.1589 N   0  0  0  0  0  0  0  0  0  0  0  0
   10.9607   15.1013  -10.3933 C   0  0  1  0  0  0  0  0  0  0  0  0
    9.5850   17.3656  -11.7535 C   0  0  1  0  0  0  0  0  0  0  0  0
   11.2911   10.1768  -12.1376 C   0  0  2  0  0  0  0  0  0  0  0  0
    9.9448    9.6886  -11.7918 N   0  0  0  0  0  0  0  0  0  0  0  0
   13.1099   11.7209   -6.5735 C   0  0  0  0  0  0  0  0  0  0  0  0
    9.6986   14.4994  -11.0830 C   0  0  2  0  0  0  0  0  0  0  0  0
    9.8117   14.3858  -12.5229 O   0  0  0  0  0  0  0  0  0  0  0  0
    9.3650   18.9189  -11.6657 C   0  0  2  0  0  0  0  0  0  0  0  0
    8.2495   19.3510  -12.5601 N   0  0  0  0  0  0  0  0  0  0  0  0
   12.2729    9.0324  -11.8255 C   0  0  1  0  0  0  0  0  0  0  0  0
   11.9213    7.8605  -12.5630 O   0  0  0  0  0  0  0  0  0  0  0  0
   12.2474   11.0327   -7.6981 C   0  0  2  0  0  0  0  0  0  0  0  0
   12.8032    9.6930   -8.0295 N   0  0  0  0  0  0  0  0  0  0  0  0
    8.6056   15.4421  -10.5769 C   0  0  2  0  0  0  0  0  0  0  0  0
    8.4184   16.5809  -11.4763 O   0  0  0  0  0  0  0  0  0  0  0  0
   10.7295   19.6684  -12.0443 C   0  0  1  0  0  0  0  0  0  0  0  0
   11.6619   19.5223  -10.9497 O   0  0  0  0  0  0  0  0  0  0  0  0
   13.7148    9.4887  -12.1447 C   0  0  2  0  0  0  0  0  0  0  0  0
   14.6245    8.4461  -11.8801 O   0  0  0  0  0  0  0  0  0  0  0  0
   12.2116   11.9283   -8.9990 C   0  0  2  0  0  0  0  0  0  0  0  0
    9.0558   15.9030   -9.1804 C   0  0  2  0  0  0  0  0  0  0  0  0
   10.4778   15.8883   -9.2803 O   0  0  0  0  0  0  0  0  0  0  0  0
   11.3928   19.1099  -13.3917 C   0  0  2  0  0  0  0  0  0  0  0  0
   10.5538   19.4989  -14.4785 O   0  0  0  0  0  0  0  0  0  0  0  0
   14.0537   10.7504  -11.2828 C   0  0  2  0  0  0  0  0  0  0  0  0
   13.0908   11.8140  -11.5680 O   0  0  0  0  0  0  0  0  0  0  0  0
   11.6597   13.3464   -8.7349 C   0  0  2  0  0  0  0  0  0  0  0  0
   11.8707   14.0756   -9.9751 O   0  0  0  0  0  0  0  0  0  0  0  0
    8.5667   15.0054   -8.0016 C   0  0  0  0  0  0  0  0  0  0  0  0
    9.3181   15.3146   -6.8317 O   0  0  0  0  0  0  0  0  0  0  0  0
   11.5231   17.5407  -13.3380 C   0  0  1  0  0  0  0  0  0  0  0  0
   10.1621   17.0245  -13.1113 O   0  0  0  0  0  0  0  0  0  0  0  0
   15.4496   11.2705  -11.5371 C   0  0  0  0  0  0  0  0  0  0  0  0
   15.6217   11.5484  -12.9055 O   0  0  0  0  0  0  0  0  0  0  0  0
   12.4487   14.0288   -7.5401 C   0  0  1  0  0  0  0  0  0  0  0  0
   11.8407   15.2770   -7.1965 O   0  0  0  0  0  0  0  0  0  0  0  0
   12.1431   16.8970  -14.6533 C   0  0  0  0  0  0  0  0  0  0  0  0
   12.4712   15.4474  -14.5657 N   0  0  0  0  0  0  0  0  0  0  0  0
  1  2  1  1  0  0  0
  1  7  1  0  0  0  0
  1 30  1  0  0  0  0
  3  4  1  1  0  0  0
  3  9  1  0  0  0  0
  3 39  1  0  0  0  0
  5 10  1  0  0  0  0
  5 26  1  0  0  0  0
  5 32  1  1  0  0  0
  6 12  1  0  0  0  0
  6 36  1  0  0  0  0
  6 19  1  6  0  0  0
  7  8  1  1  0  0  0
  7 14  1  0  0  0  0
  9 16  1  0  0  0  0
 10 11  1  6  0  0  0
 10 18  1  0  0  0  0
 12 13  1  6  0  0  0
 12 20  1  0  0  0  0
 14 15  1  6  0  0  0
 14 22  1  0  0  0  0
 16 17  1  6  0  0  0
 16 24  1  0  0  0  0
 18 19  1  6  0  0  0
 18 25  1  0  0  0  0
 20 21  1  1  0  0  0
 20 27  1  0  0  0  0
 22 23  1  1  0  0  0
 22 29  1  0  0  0  0
 24  2  1  6  0  0  0
 24 31  1  0  0  0  0
 25 26  1  0  0  0  0
 25 33  1  1  0  0  0
 27 28  1  6  0  0  0
 27 35  1  0  0  0  0
 29 30  1  0  0  0  0
 29 37  1  6  0  0  0
 31 32  1  6  0  0  0
 31 39  1  0  0  0  0
 33 34  1  0  0  0  0
 35 36  1  0  0  0  0
 35 41  1  6  0  0  0
 37 38  1  0  0  0  0
 39 40  1  1  0  0  0
 41 42  1  0  0  0  0
M  END
>  <CHROM.1>
146.93685582,-150.62399837,-55.69233281,-134.24439813,164.82011054,56.16060225
147.65004755,-81.13716920,171.20961398,11.47440466,14.03723881,-10.71062718
-0.51616992,1.16931403,-1.23411948

>  <Name>
ligand

>  <RI>
0

>  <Rbt.Current_Directory>
/home/itssahil/PROJECTS/Mol_Feturizer/Test_systems_manuscript/rnas/2o3w

>  <Rbt.Executable>
rbdock ($Id: //depot/dev/client3/rdock/2013.1/src/exe/rbdock.cxx#4 $)

>  <Rbt.Library>
libRbt.so (2013.1, Build901 2013/11/27)

>  <Rbt.Parameter_File>
/export/apps/rDock/src/rDock_2013.1_src/data/scripts/dock_solv.prm

>  <Rbt.Receptor>
prm/blind_docking_80.prm

>  <SCORE>
9.16064

>  <SCORE.INTER>
-1.32345

>  <SCORE.INTER.CONST>
1

>  <SCORE.INTER.POLAR>
0

>  <SCORE.INTER.ROT>
9

>  <SCORE.INTER.SOLV>
30.6384

>  <SCORE.INTER.VDW>
-20.6951

>  <SCORE.INTER.norm>
-0.0315107

>  <SCORE.INTRA>
-3.01137

>  <SCORE.INTRA.DIHEDRAL>
-6.74381

>  <SCORE.INTRA.DIHEDRAL.0>
27.8999

>  <SCORE.INTRA.POLAR>
0

>  <SCORE.INTRA.POLAR.0>
0

>  <SCORE.INTRA.REPUL>
0

>  <SCORE.INTRA.REPUL.0>
0

>  <SCORE.INTRA.SOLV>
-1.63893

>  <SCORE.INTRA.SOLV.lig_0>
-104.479

>  <SCORE.INTRA.VDW>
1.18001

>  <SCORE.INTRA.VDW.0>
-6.17816

>  <SCORE.INTRA.norm>
-0.0716992

>  <SCORE.RESTR>
13.4955

>  <SCORE.RESTR.CAVITY>
13.4955

>  <SCORE.RESTR.norm>
0.32132

>  <SCORE.SYSTEM>
0

>  <SCORE.SYSTEM.CONST>
0

>  <SCORE.SYSTEM.DIHEDRAL>
0

>  <SCORE.SYSTEM.SOLV>
0

>  <SCORE.SYSTEM.norm>
0

>  <SCORE.heavy>
42

>  <SCORE.norm>
0.21811

>  <RMSD>
18.564

$$$$
ligand
 OpenBabel02271912133D
libRbt.so/2013.1/901 2013/11/27
 42 45  0  0  0  0  0  0  0  0999 V2000
   12.5423   11.1042   -7.3697 C   0  0  2  0  0  0  0  0  0  0  0  0
   13.3465   11.2654   -8.5507 O   0  0  0  0  0  0  0  0  0  0  0  0
   12.9267    8.9606  -12.1986 C   0  0  2  0  0  0  0  0  0  0  0  0
   12.4597    8.4645  -13.5276 N   0  0  0  0  0  0  0  0  0  0  0  0
   12.8737   13.3749  -11.0982 C   0  0  1  0  0  0  0  0  0  0  0  0
   11.1486   16.3352  -12.7885 C   0  0  1  0  0  0  0  0  0  0  0  0
   11.8551   12.4758   -7.0965 C   0  0  2  0  0  0  0  0  0  0  0  0
   11.1945   13.0238   -8.2939 N   0  0  0  0  0  0  0  0  0  0  0  0
   11.7971    8.8127  -11.1014 C   0  0  0  0  0  0  0  0  0  0  0  0
   12.6487   13.8872  -12.5534 C   0  0  2  0  0  0  0  0  0  0  0  0
   13.2880   15.1560  -12.8369 O   0  0  0  0  0  0  0  0  0  0  0  0
   11.2747   17.5526  -11.8031 C   0  0  2  0  0  0  0  0  0  0  0  0
    9.9471   17.9027  -11.2151 N   0  0  0  0  0  0  0  0  0  0  0  0
   12.8533   13.5432   -6.6115 C   0  0  1  0  0  0  0  0  0  0  0  0
   12.1749   14.7699   -6.3360 O   0  0  0  0  0  0  0  0  0  0  0  0
   12.3551    9.3298   -9.7216 C   0  0  2  0  0  0  0  0  0  0  0  0
   11.3210    9.1915   -8.6608 N   0  0  0  0  0  0  0  0  0  0  0  0
   11.1216   13.8816  -12.6375 C   0  0  2  0  0  0  0  0  0  0  0  0
   10.5549   15.1631  -12.2163 O   0  0  0  0  0  0  0  0  0  0  0  0
   11.9059   18.8013  -12.5836 C   0  0  1  0  0  0  0  0  0  0  0  0
   13.3135   18.5543  -12.7996 O   0  0  0  0  0  0  0  0  0  0  0  0
   13.6022   13.0201   -5.3646 C   0  0  2  0  0  0  0  0  0  0  0  0
   14.5082   13.9926   -4.8980 O   0  0  0  0  0  0  0  0  0  0  0  0
   12.8018   10.8410   -9.8327 C   0  0  2  0  0  0  0  0  0  0  0  0
   10.6504   12.7371  -11.7246 C   0  0  2  0  0  0  0  0  0  0  0  0
   11.6549   12.6984  -10.7137 O   0  0  0  0  0  0  0  0  0  0  0  0
   11.1894   19.0833  -13.9888 C   0  0  2  0  0  0  0  0  0  0  0  0
    9.8751   19.5660  -13.7132 O   0  0  0  0  0  0  0  0  0  0  0  0
   14.3529   11.6983   -5.7372 C   0  0  2  0  0  0  0  0  0  0  0  0
   13.3933   10.7089   -6.2272 O   0  0  0  0  0  0  0  0  0  0  0  0
   13.8666   11.0719  -10.9273 C   0  0  2  0  0  0  0  0  0  0  0  0
   14.0181   12.5155  -11.0144 O   0  0  0  0  0  0  0  0  0  0  0  0
   10.5074   11.3513  -12.4270 C   0  0  0  0  0  0  0  0  0  0  0  0
    9.7566   10.4755  -11.5915 O   0  0  0  0  0  0  0  0  0  0  0  0
   11.1170   17.7660  -14.8500 C   0  0  1  0  0  0  0  0  0  0  0  0
   10.3981   16.7780  -14.0269 O   0  0  0  0  0  0  0  0  0  0  0  0
   15.1107   11.1109   -4.5690 C   0  0  0  0  0  0  0  0  0  0  0  0
   15.7708    9.9325   -4.9625 O   0  0  0  0  0  0  0  0  0  0  0  0
   13.3706   10.4742  -12.3103 C   0  0  1  0  0  0  0  0  0  0  0  0
   14.4149   10.5522  -13.2844 O   0  0  0  0  0  0  0  0  0  0  0  0
   10.3885   17.9478  -16.2517 C   0  0  0  0  0  0  0  0  0  0  0  0
   10.1771   16.6980  -17.0326 N   0  0  0  0  0  0  0  0  0  0  0  0
  1  2  1  6  0  0  0
  1  7  1  0  0  0  0
  1 30  1  0  0  0  0
  3  4  1  6  0  0  0
  3  9  1  0  0  0  0
  3 39  1  0  0  0  0
  5 10  1  0  0  0  0
  5 26  1  0  0  0  0
  5 32  1  6  0  0  0
  6 12  1  0  0  0  0
  6 36  1  0  0  0  0
  6 19  1  1  0  0  0
  7  8  1  6  0  0  0
  7 14  1  0  0  0  0
  9 16  1  0  0  0  0
 10 11  1  1  0  0  0
 10 18  1  0  0  0  0
 12 13  1  6  0  0  0
 12 20  1  0  0  0  0
 14 15  1  1  0  0  0
 14 22  1  0  0  0  0
 16 17  1  1  0  0  0
 16 24  1  0  0  0  0
 18 19  1  1  0  0  0
 18 25  1  0  0  0  0
 20 21  1  6  0  0  0
 20 27  1  0  0  0  0
 22 23  1  6  0  0  0
 22 29  1  0  0  0  0
 24  2  1  1  0  0  0
 24 31  1  0  0  0  0
 25 26  1  0  0  0  0
 25 33  1  6  0  0  0
 27 28  1  1  0  0  0
 27 35  1  0  0  0  0
 29 30  1  0  0  0  0
 29 37  1  1  0  0  0
 31 32  1  6  0  0  0
 31 39  1  0  0  0  0
 33 34  1  0  0  0  0
 35 36  1  0  0  0  0
 35 41  1  6  0  0  0
 37 38  1  0  0  0  0
 39 40  1  6  0  0  0
 41 42  1  0  0  0  0
M  END
>  <CHROM.1>
-97.21961886,-54.78706797,48.15068917,-142.15312329,-165.33662606,-179.63785790
-47.86711345,-102.90345815,-174.00526297,12.24793839,13.40734906,-10.63566118
-0.36837798,-1.28438439,0.38177140

>  <Name>
ligand

>  <RI>
0

>  <Rbt.Current_Directory>
/home/itssahil/PROJECTS/Mol_Feturizer/Test_systems_manuscript/rnas/2o3w

>  <Rbt.Executable>
rbdock ($Id: //depot/dev/client3/rdock/2013.1/src/exe/rbdock.cxx#4 $)

>  <Rbt.Library>
libRbt.so (2013.1, Build901 2013/11/27)

>  <Rbt.Parameter_File>
/export/apps/rDock/src/rDock_2013.1_src/data/scripts/dock_solv.prm

>  <Rbt.Receptor>
prm/blind_docking_60.prm

>  <SCORE>
20.1267

>  <SCORE.INTER>
-4.35424

>  <SCORE.INTER.CONST>
1

>  <SCORE.INTER.POLAR>
0

>  <SCORE.INTER.ROT>
9

>  <SCORE.INTER.SOLV>
25.2443

>  <SCORE.INTER.VDW>
-20.9176

>  <SCORE.INTER.norm>
-0.103672

>  <SCORE.INTRA>
11.5033

>  <SCORE.INTRA.DIHEDRAL>
-9.66589

>  <SCORE.INTRA.DIHEDRAL.0>
27.8999

>  <SCORE.INTRA.POLAR>
0

>  <SCORE.INTRA.POLAR.0>
0

>  <SCORE.INTRA.REPUL>
0.320318

>  <SCORE.INTRA.REPUL.0>
0

>  <SCORE.INTRA.SOLV>
3.51751

>  <SCORE.INTRA.SOLV.lig_0>
-104.479

>  <SCORE.INTRA.VDW>
12.9759

>  <SCORE.INTRA.VDW.0>
-6.17816

>  <SCORE.INTRA.norm>
0.273888

>  <SCORE.RESTR>
12.9776

>  <SCORE.RESTR.CAVITY>
12.9776

>  <SCORE.RESTR.norm>
0.308991

>  <SCORE.SYSTEM>
0

>  <SCORE.SYSTEM.CONST>
0

>  <SCORE.SYSTEM.DIHEDRAL>
0

>  <SCORE.SYSTEM.SOLV>
0

>  <SCORE.SYSTEM.norm>
0

>  <SCORE.heavy>
42

>  <SCORE.norm>
0.479207

>  <RMSD>
18.571

$$$$
ligand
 OpenBabel02271912133D
libRbt.so/2013.1/901 2013/11/27
 42 45  0  0  0  0  0  0  0  0999 V2000
   13.5467   11.4995  -11.5237 C   0  0  2  0  0  0  0  0  0  0  0  0
   13.4701   11.2075  -10.1180 O   0  0  0  0  0  0  0  0  0  0  0  0
   11.4992   13.4762   -6.9932 C   0  0  2  0  0  0  0  0  0  0  0  0
   11.1376   14.5513   -6.0217 N   0  0  0  0  0  0  0  0  0  0  0  0
   11.5691   14.8858  -11.1405 C   0  0  1  0  0  0  0  0  0  0  0  0
    9.5019   18.1118  -12.1056 C   0  0  1  0  0  0  0  0  0  0  0  0
   12.3671   10.7472  -12.2098 C   0  0  2  0  0  0  0  0  0  0  0  0
   11.0779   10.9891  -11.5389 N   0  0  0  0  0  0  0  0  0  0  0  0
   12.9246   12.8696   -6.6738 C   0  0  0  0  0  0  0  0  0  0  0  0
   11.8023   15.2741  -12.6324 C   0  0  2  0  0  0  0  0  0  0  0  0
   13.0329   16.0021  -12.8664 O   0  0  0  0  0  0  0  0  0  0  0  0
    9.5622   18.3164  -10.5489 C   0  0  2  0  0  0  0  0  0  0  0  0
    9.7944   17.0176   -9.8488 N   0  0  0  0  0  0  0  0  0  0  0  0
   12.5792    9.2221  -12.2291 C   0  0  1  0  0  0  0  0  0  0  0  0
   11.4955    8.5778  -12.9009 O   0  0  0  0  0  0  0  0  0  0  0  0
   13.2390   11.7296   -7.7149 C   0  0  2  0  0  0  0  0  0  0  0  0
   14.5694   11.1254   -7.4346 N   0  0  0  0  0  0  0  0  0  0  0  0
   10.5130   16.0346  -12.9464 C   0  0  2  0  0  0  0  0  0  0  0  0
   10.6502   17.4644  -12.6675 O   0  0  0  0  0  0  0  0  0  0  0  0
    8.2020   19.0024  -10.0528 C   0  0  1  0  0  0  0  0  0  0  0  0
    8.2070   20.3917  -10.4514 O   0  0  0  0  0  0  0  0  0  0  0  0
   13.9327    8.8982  -12.9016 C   0  0  2  0  0  0  0  0  0  0  0  0
   14.1342    7.5046  -12.9423 O   0  0  0  0  0  0  0  0  0  0  0  0
   13.2151   12.2989   -9.1884 C   0  0  2  0  0  0  0  0  0  0  0  0
    9.4207   15.3984  -12.0703 C   0  0  2  0  0  0  0  0  0  0  0  0
   10.1426   14.9694  -10.9182 O   0  0  0  0  0  0  0  0  0  0  0  0
    6.8940   18.2826  -10.6346 C   0  0  2  0  0  0  0  0  0  0  0  0
    6.7972   16.9999  -10.0168 O   0  0  0  0  0  0  0  0  0  0  0  0
   15.0808    9.6000  -12.1023 C   0  0  2  0  0  0  0  0  0  0  0  0
   14.8442   11.0431  -12.0661 O   0  0  0  0  0  0  0  0  0  0  0  0
   11.8677   12.9596   -9.5533 C   0  0  2  0  0  0  0  0  0  0  0  0
   12.0855   13.5804  -10.8501 O   0  0  0  0  0  0  0  0  0  0  0  0
    8.6581   14.2079  -12.7303 C   0  0  0  0  0  0  0  0  0  0  0  0
    9.6011   13.2805  -13.2592 O   0  0  0  0  0  0  0  0  0  0  0  0
    6.9942   18.1280  -12.1993 C   0  0  1  0  0  0  0  0  0  0  0  0
    8.2301   17.3689  -12.4572 O   0  0  0  0  0  0  0  0  0  0  0  0
   16.4458    9.3410  -12.6969 C   0  0  0  0  0  0  0  0  0  0  0  0
   17.4311   10.0319  -11.9682 O   0  0  0  0  0  0  0  0  0  0  0  0
   11.4781   14.0480   -8.4674 C   0  0  1  0  0  0  0  0  0  0  0  0
   10.1634   14.5504   -8.7220 O   0  0  0  0  0  0  0  0  0  0  0  0
    5.7487   17.3909  -12.8582 C   0  0  0  0  0  0  0  0  0  0  0  0
    4.4166   17.9793  -12.5486 N   0  0  0  0  0  0  0  0  0  0  0  0
  1  2  1  1  0  0  0
  1  7  1  0  0  0  0
  1 30  1  0  0  0  0
  3  4  1  1  0  0  0
  3  9  1  0  0  0  0
  3 39  1  0  0  0  0
  5 10  1  0  0  0  0
  5 26  1  0  0  0  0
  5 32  1  6  0  0  0
  6 12  1  0  0  0  0
  6 36  1  0  0  0  0
  6 19  1  1  0  0  0
  7  8  1  1  0  0  0
  7 14  1  0  0  0  0
  9 16  1  0  0  0  0
 10 11  1  1  0  0  0
 10 18  1  0  0  0  0
 12 13  1  1  0  0  0
 12 20  1  0  0  0  0
 14 15  1  6  0  0  0
 14 22  1  0  0  0  0
 16 17  1  1  0  0  0
 16 24  1  0  0  0  0
 18 19  1  1  0  0  0
 18 25  1  0  0  0  0
 20 21  1  6  0  0  0
 20 27  1  0  0  0  0
 22 23  1  1  0  0  0
 22 29  1  0  0  0  0
 24  2  1  6  0  0  0
 24 31  1  0  0  0  0
 25 26  1  0  0  0  0
 25 33  1  6  0  0  0
 27 28  1  1  0  0  0
 27 35  1  0  0  0  0
 29 30  1  0  0  0  0
 29 37  1  6  0  0  0
 31 32  1  6  0  0  0
 31 39  1  0  0  0  0
 33 34  1  0  0  0  0
 35 36  1  0  0  0  0
 35 41  1  1  0  0  0
 37 38  1  0  0  0  0
 39 40  1  6  0  0  0
 41 42  1  0  0  0  0
M  END
>  <CHROM.1>
-116.17800717,-177.64635223,-141.97824928,99.59296470,49.86749453,177.93867034
-138.19737575,-174.12676365,54.55307801,11.16213958,13.94817457,-11.02497091
0.31905179,0.84004276,-1.98559024

>  <Name>
ligand

>  <RI>
0

>  <Rbt.Current_Directory>
/home/itssahil/PROJECTS/Mol_Feturizer/Test_systems_manuscript/rnas/2o3w

>  <Rbt.Executable>
rbdock ($Id: //depot/dev/client3/rdock/2013.1/src/exe/rbdock.cxx#4 $)

>  <Rbt.Library>
libRbt.so (2013.1, Build901 2013/11/27)

>  <Rbt.Parameter_File>
/export/apps/rDock/src/rDock_2013.1_src/data/scripts/dock_solv.prm

>  <Rbt.Receptor>
prm/blind_docking_80.prm

>  <SCORE>
25.2995

>  <SCORE.INTER>
0.400945

>  <SCORE.INTER.CONST>
1

>  <SCORE.INTER.POLAR>
0

>  <SCORE.INTER.ROT>
9

>  <SCORE.INTER.SOLV>
31.2456

>  <SCORE.INTER.VDW>
-19.7479

>  <SCORE.INTER.norm>
0.0095463

>  <SCORE.INTRA>
16.2013

>  <SCORE.INTRA.DIHEDRAL>
-3.95367

>  <SCORE.INTRA.DIHEDRAL.0>
27.8999

>  <SCORE.INTRA.POLAR>
0

>  <SCORE.INTRA.POLAR.0>
0

>  <SCORE.INTRA.REPUL>
0.0393434

>  <SCORE.INTRA.REPUL.0>
0

>  <SCORE.INTRA.SOLV>
4.3625

>  <SCORE.INTRA.SOLV.lig_0>
-104.479

>  <SCORE.INTRA.VDW>
15.8002

>  <SCORE.INTRA.VDW.0>
-6.17816

>  <SCORE.INTRA.norm>
0.385745

>  <SCORE.RESTR>
8.69726

>  <SCORE.RESTR.CAVITY>
8.69726

>  <SCORE.RESTR.norm>
0.207078

>  <SCORE.SYSTEM>
0

>  <SCORE.SYSTEM.CONST>
0

>  <SCORE.SYSTEM.DIHEDRAL>
0

>  <SCORE.SYSTEM.SOLV>
0

>  <SCORE.SYSTEM.norm>
0

>  <SCORE.heavy>
42

>  <SCORE.norm>
0.602369

>  <RMSD>
18.604

$$$$
ligand
 OpenBabel02271912133D
libRbt.so/2013.1/901 2013/11/27
 42 45  0  0  0  0  0  0  0  0999 V2000
   10.4082   13.5919   -6.6159 C   0  0  2  0  0  0  0  0  0  0  0  0
   10.1524   13.8800   -8.0011 O   0  0  0  0  0  0  0  0  0  0  0  0
    8.1155   17.1997   -9.9056 C   0  0  2  0  0  0  0  0  0  0  0  0
    7.7517   18.5684  -10.3798 N   0  0  0  0  0  0  0  0  0  0  0  0
   11.8919   14.2565  -11.1748 C   0  0  1  0  0  0  0  0  0  0  0  0
   12.7622   11.8692  -12.7554 C   0  0  1  0  0  0  0  0  0  0  0  0
   11.8862   13.9959   -6.3325 C   0  0  2  0  0  0  0  0  0  0  0  0
   12.2008   15.3539   -6.8092 N   0  0  0  0  0  0  0  0  0  0  0  0
    8.0450   17.1010   -8.3285 C   0  0  0  0  0  0  0  0  0  0  0  0
   10.8432   14.0988  -12.3177 C   0  0  2  0  0  0  0  0  0  0  0  0
    9.9082   13.0111  -12.1136 O   0  0  0  0  0  0  0  0  0  0  0  0
   13.9200   10.9197  -13.2315 C   0  0  2  0  0  0  0  0  0  0  0  0
   13.4249    9.9423  -14.2466 N   0  0  0  0  0  0  0  0  0  0  0  0
   12.8916   13.0440   -7.0064 C   0  0  1  0  0  0  0  0  0  0  0  0
   14.2303   13.4279   -6.6878 O   0  0  0  0  0  0  0  0  0  0  0  0
    8.4159   15.6332   -7.8920 C   0  0  2  0  0  0  0  0  0  0  0  0
    8.3455   15.5002   -6.4118 N   0  0  0  0  0  0  0  0  0  0  0  0
   11.7533   13.9693  -13.5401 C   0  0  2  0  0  0  0  0  0  0  0  0
   12.0951   12.5726  -13.8108 O   0  0  0  0  0  0  0  0  0  0  0  0
   14.5411   10.1656  -11.9616 C   0  0  1  0  0  0  0  0  0  0  0  0
   15.3340   11.1053  -11.2019 O   0  0  0  0  0  0  0  0  0  0  0  0
   12.6011   11.5912   -6.5658 C   0  0  2  0  0  0  0  0  0  0  0  0
   13.5238   10.7088   -7.1612 O   0  0  0  0  0  0  0  0  0  0  0  0
    9.8665   15.2539   -8.3899 C   0  0  2  0  0  0  0  0  0  0  0  0
   13.0091   14.7991  -13.2242 C   0  0  2  0  0  0  0  0  0  0  0  0
   13.1183   14.6893  -11.8070 O   0  0  0  0  0  0  0  0  0  0  0  0
   13.4227    9.5187  -11.0139 C   0  0  2  0  0  0  0  0  0  0  0  0
   12.8358    8.4279  -11.7225 O   0  0  0  0  0  0  0  0  0  0  0  0
   11.1368   11.2174   -6.9728 C   0  0  2  0  0  0  0  0  0  0  0  0
   10.1994   12.1525   -6.3508 O   0  0  0  0  0  0  0  0  0  0  0  0
   10.0268   15.3821   -9.9206 C   0  0  2  0  0  0  0  0  0  0  0  0
   11.4444   15.1806  -10.1744 O   0  0  0  0  0  0  0  0  0  0  0  0
   12.9393   16.2933  -13.6676 C   0  0  0  0  0  0  0  0  0  0  0  0
   11.9475   16.9666  -12.8983 O   0  0  0  0  0  0  0  0  0  0  0  0
   12.3226   10.5844  -10.6450 C   0  0  1  0  0  0  0  0  0  0  0  0
   11.7791   11.0713  -11.9248 O   0  0  0  0  0  0  0  0  0  0  0  0
   10.7636    9.8088   -6.5726 C   0  0  0  0  0  0  0  0  0  0  0  0
    9.4394    9.5301   -6.9575 O   0  0  0  0  0  0  0  0  0  0  0  0
    9.5688   16.8224  -10.4018 C   0  0  1  0  0  0  0  0  0  0  0  0
    9.5735   16.8899  -11.8305 O   0  0  0  0  0  0  0  0  0  0  0  0
   11.1516   10.0168   -9.7311 C   0  0  0  0  0  0  0  0  0  0  0  0
   10.2834    8.9872  -10.3656 N   0  0  0  0  0  0  0  0  0  0  0  0
  1  2  1  6  0  0  0
  1  7  1  0  0  0  0
  1 30  1  0  0  0  0
  3  4  1  1  0  0  0
  3  9  1  0  0  0  0
  3 39  1  0  0  0  0
  5 10  1  0  0  0  0
  5 26  1  0  0  0  0
  5 32  1  1  0  0  0
  6 12  1  0  0  0  0
  6 36  1  0  0  0  0
  6 19  1  6  0  0  0
  7  8  1  6  0  0  0
  7 14  1  0  0  0  0
  9 16  1  0  0  0  0
 10 11  1  1  0  0  0
 10 18  1  0  0  0  0
 12 13  1  6  0  0  0
 12 20  1  0  0  0  0
 14 15  1  1  0  0  0
 14 22  1  0  0  0  0
 16 17  1  1  0  0  0
 16 24  1  0  0  0  0
 18 19  1  1  0  0  0
 18 25  1  0  0  0  0
 20 21  1  1  0  0  0
 20 27  1  0  0  0  0
 22 23  1  6  0  0  0
 22 29  1  0  0  0  0
 24  2  1  6  0  0  0
 24 31  1  0  0  0  0
 25 26  1  0  0  0  0
 25 33  1  1  0  0  0
 27 28  1  6  0  0  0
 27 35  1  0  0  0  0
 29 30  1  0  0  0  0
 29 37  1  1  0  0  0
 31 32  1  1  0  0  0
 31 39  1  0  0  0  0
 33 34  1  0  0  0  0
 35 36  1  0  0  0  0
 35 41  1  1  0  0  0
 37 38  1  0  0  0  0
 39 40  1  6  0  0  0
 41 42  1  0  0  0  0
M  END
>  <CHROM.1>
-79.66920549,-72.64901626,-58.81353707,-139.59826487,66.45218072,179.77472896
130.33244228,28.16426872,-65.93189592,11.44035912,13.19394712,-9.98606231
2.94351372,1.04370705,-0.97010839

>  <Name>
ligand

>  <RI>
0

>  <Rbt.Current_Directory>
/home/itssahil/PROJECTS/Mol_Feturizer/Test_systems_manuscript/rnas/2o3w

>  <Rbt.Executable>
rbdock ($Id: //depot/dev/client3/rdock/2013.1/src/exe/rbdock.cxx#4 $)

>  <Rbt.Library>
libRbt.so (2013.1, Build901 2013/11/27)

>  <Rbt.Parameter_File>
/export/apps/rDock/src/rDock_2013.1_src/data/scripts/dock_solv.prm

>  <Rbt.Receptor>
prm/blind_docking_40.prm

>  <SCORE>
19.1114

>  <SCORE.INTER>
0.906324

>  <SCORE.INTER.CONST>
1

>  <SCORE.INTER.POLAR>
0

>  <SCORE.INTER.ROT>
9

>  <SCORE.INTER.SOLV>
29.6162

>  <SCORE.INTER.VDW>
-18.8679

>  <SCORE.INTER.norm>
0.0215791

>  <SCORE.INTRA>
-0.780001

>  <SCORE.INTRA.DIHEDRAL>
-8.97539

>  <SCORE.INTRA.DIHEDRAL.0>
27.8999

>  <SCORE.INTRA.POLAR>
0

>  <SCORE.INTRA.POLAR.0>
0

>  <SCORE.INTRA.REPUL>
0

>  <SCORE.INTRA.REPUL.0>
0

>  <SCORE.INTRA.SOLV>
3.66831

>  <SCORE.INTRA.SOLV.lig_0>
-104.479

>  <SCORE.INTRA.VDW>
1.87354

>  <SCORE.INTRA.VDW.0>
-6.17816

>  <SCORE.INTRA.norm>
-0.0185715

>  <SCORE.RESTR>
18.9851

>  <SCORE.RESTR.CAVITY>
18.9851

>  <SCORE.RESTR.norm>
0.452026

>  <SCORE.SYSTEM>
0

>  <SCORE.SYSTEM.CONST>
0

>  <SCORE.SYSTEM.DIHEDRAL>
0

>  <SCORE.SYSTEM.SOLV>
0

>  <SCORE.SYSTEM.norm>
0

>  <SCORE.heavy>
42

>  <SCORE.norm>
0.455033

>  <RMSD>
18.619

$$$$
ligand
 OpenBabel02271912133D
libRbt.so/2013.1/901 2013/11/27
 42 45  0  0  0  0  0  0  0  0999 V2000
   13.1738   10.2859   -8.5163 C   0  0  2  0  0  0  0  0  0  0  0  0
   13.3698   10.8134   -9.8394 O   0  0  0  0  0  0  0  0  0  0  0  0
   13.5787    9.2699  -13.8854 C   0  0  2  0  0  0  0  0  0  0  0  0
   13.3320    8.4703  -15.1225 N   0  0  0  0  0  0  0  0  0  0  0  0
   10.9017   12.5724  -11.1275 C   0  0  1  0  0  0  0  0  0  0  0  0
   10.8536   16.9201  -10.8026 C   0  0  1  0  0  0  0  0  0  0  0  0
   11.6355   10.2125   -8.2789 C   0  0  2  0  0  0  0  0  0  0  0  0
   10.9257    9.5453   -9.3841 N   0  0  0  0  0  0  0  0  0  0  0  0
   14.1550    8.3654  -12.7228 C   0  0  0  0  0  0  0  0  0  0  0  0
   12.2263   13.3929  -11.0723 C   0  0  2  0  0  0  0  0  0  0  0  0
   12.8725   13.3822   -9.7756 O   0  0  0  0  0  0  0  0  0  0  0  0
    9.5230   17.3621  -10.0934 C   0  0  2  0  0  0  0  0  0  0  0  0
    8.4313   16.3741  -10.3442 N   0  0  0  0  0  0  0  0  0  0  0  0
   11.0016   11.6068   -8.1207 C   0  0  1  0  0  0  0  0  0  0  0  0
    9.6007   11.4902   -7.8659 O   0  0  0  0  0  0  0  0  0  0  0  0
   14.4149    9.2663  -11.4566 C   0  0  2  0  0  0  0  0  0  0  0  0
   14.9722    8.4487  -10.3455 N   0  0  0  0  0  0  0  0  0  0  0  0
   11.7491   14.7606  -11.5632 C   0  0  2  0  0  0  0  0  0  0  0  0
   11.3081   15.6065  -10.4538 O   0  0  0  0  0  0  0  0  0  0  0  0
    9.1084   18.8211  -10.6093 C   0  0  1  0  0  0  0  0  0  0  0  0
    9.9986   19.7954  -10.0201 O   0  0  0  0  0  0  0  0  0  0  0  0
   11.7195   12.3740   -6.9871 C   0  0  2  0  0  0  0  0  0  0  0  0
   11.1396   13.6467   -6.8182 O   0  0  0  0  0  0  0  0  0  0  0  0
   13.0774    9.9617  -10.9838 C   0  0  2  0  0  0  0  0  0  0  0  0
   10.5972   14.4816  -12.5433 C   0  0  2  0  0  0  0  0  0  0  0  0
   10.0229   13.2817  -12.0306 O   0  0  0  0  0  0  0  0  0  0  0  0
    9.1517   18.9520  -12.2057 C   0  0  2  0  0  0  0  0  0  0  0  0
    8.0871   18.1607  -12.7320 O   0  0  0  0  0  0  0  0  0  0  0  0
   13.2392   12.5010   -7.3392 C   0  0  2  0  0  0  0  0  0  0  0  0
   13.8155   11.1685   -7.5188 O   0  0  0  0  0  0  0  0  0  0  0  0
   12.4253   10.8200  -12.0899 C   0  0  2  0  0  0  0  0  0  0  0  0
   11.1364   11.2229  -11.5506 O   0  0  0  0  0  0  0  0  0  0  0  0
   11.0282   14.3059  -14.0325 C   0  0  0  0  0  0  0  0  0  0  0  0
    9.8916   14.4743  -14.8742 O   0  0  0  0  0  0  0  0  0  0  0  0
   10.5347   18.4483  -12.7674 C   0  0  1  0  0  0  0  0  0  0  0  0
   10.6843   17.0590  -12.3010 O   0  0  0  0  0  0  0  0  0  0  0  0
   14.0229   13.2359   -6.2765 C   0  0  0  0  0  0  0  0  0  0  0  0
   13.5732   14.5650   -6.1745 O   0  0  0  0  0  0  0  0  0  0  0  0
   12.2387    9.9629  -13.4114 C   0  0  1  0  0  0  0  0  0  0  0  0
   11.7767   10.7957  -14.4784 O   0  0  0  0  0  0  0  0  0  0  0  0
   10.6520   18.5118  -14.3520 C   0  0  0  0  0  0  0  0  0  0  0  0
   11.8587   17.8617  -14.9332 N   0  0  0  0  0  0  0  0  0  0  0  0
  1  2  1  6  0  0  0
  1  7  1  0  0  0  0
  1 30  1  0  0  0  0
  3  4  1  6  0  0  0
  3  9  1  0  0  0  0
  3 39  1  0  0  0  0
  5 10  1  0  0  0  0
  5 26  1  0  0  0  0
  5 32  1  6  0  0  0
  6 12  1  0  0  0  0
  6 36  1  0  0  0  0
  6 19  1  6  0  0  0
  7  8  1  6  0  0  0
  7 14  1  0  0  0  0
  9 16  1  0  0  0  0
 10 11  1  1  0  0  0
 10 18  1  0  0  0  0
 12 13  1  6  0  0  0
 12 20  1  0  0  0  0
 14 15  1  1  0  0  0
 14 22  1  0  0  0  0
 16 17  1  1  0  0  0
 16 24  1  0  0  0  0
 18 19  1  1  0  0  0
 18 25  1  0  0  0  0
 20 21  1  1  0  0  0
 20 27  1  0  0  0  0
 22 23  1  6  0  0  0
 22 29  1  0  0  0  0
 24  2  1  1  0  0  0
 24 31  1  0  0  0  0
 25 26  1  0  0  0  0
 25 33  1  6  0  0  0
 27 28  1  6  0  0  0
 27 35  1  0  0  0  0
 29 30  1  0  0  0  0
 29 37  1  1  0  0  0
 31 32  1  1  0  0  0
 31 39  1  0  0  0  0
 33 34  1  0  0  0  0
 35 36  1  0  0  0  0
 35 41  1  6  0  0  0
 37 38  1  0  0  0  0
 39 40  1  6  0  0  0
 41 42  1  0  0  0  0
M  END
>  <CHROM.1>
-72.89928442,-95.11378782,179.31864769,134.94740019,-161.91505444,-63.78783428
107.26642788,-10.79250954,-171.37100410,11.59598220,13.42481500,-10.88493392
-0.01989567,-1.19100634,1.34588114

>  <Name>
ligand

>  <RI>
0

>  <Rbt.Current_Directory>
/home/itssahil/PROJECTS/Mol_Feturizer/Test_systems_manuscript/rnas/2o3w

>  <Rbt.Executable>
rbdock ($Id: //depot/dev/client3/rdock/2013.1/src/exe/rbdock.cxx#4 $)

>  <Rbt.Library>
libRbt.so (2013.1, Build901 2013/11/27)

>  <Rbt.Parameter_File>
/export/apps/rDock/src/rDock_2013.1_src/data/scripts/dock_solv.prm

>  <Rbt.Receptor>
prm/blind_docking_40.prm

>  <SCORE>
20.1426

>  <SCORE.INTER>
4.04374

>  <SCORE.INTER.CONST>
1

>  <SCORE.INTER.POLAR>
0

>  <SCORE.INTER.ROT>
9

>  <SCORE.INTER.SOLV>
26.5475

>  <SCORE.INTER.VDW>
-15.7533

>  <SCORE.INTER.norm>
0.0962794

>  <SCORE.INTRA>
4.01621

>  <SCORE.INTRA.DIHEDRAL>
-1.95145

>  <SCORE.INTRA.DIHEDRAL.0>
27.8999

>  <SCORE.INTRA.POLAR>
0

>  <SCORE.INTRA.POLAR.0>
0

>  <SCORE.INTRA.REPUL>
0

>  <SCORE.INTRA.REPUL.0>
0

>  <SCORE.INTRA.SOLV>
3.11681

>  <SCORE.INTRA.SOLV.lig_0>
-104.479

>  <SCORE.INTRA.VDW>
3.43353

>  <SCORE.INTRA.VDW.0>
-6.17816

>  <SCORE.INTRA.norm>
0.095624

>  <SCORE.RESTR>
12.0826

>  <SCORE.RESTR.CAVITY>
12.0826

>  <SCORE.RESTR.norm>
0.287681

>  <SCORE.SYSTEM>
0

>  <SCORE.SYSTEM.CONST>
0

>  <SCORE.SYSTEM.DIHEDRAL>
0

>  <SCORE.SYSTEM.SOLV>
0

>  <SCORE.SYSTEM.norm>
0

>  <SCORE.heavy>
42

>  <SCORE.norm>
0.479585

>  <RMSD>
18.619

$$$$
ligand
 OpenBabel02271912133D
libRbt.so/2013.1/901 2013/11/27
 42 45  0  0  0  0  0  0  0  0999 V2000
   12.2198   12.3528   -6.1347 C   0  0  2  0  0  0  0  0  0  0  0  0
   12.6315   12.0602   -7.4809 O   0  0  0  0  0  0  0  0  0  0  0  0
   11.1596    9.3310  -10.5109 C   0  0  2  0  0  0  0  0  0  0  0  0
   10.2770    8.6179  -11.4820 N   0  0  0  0  0  0  0  0  0  0  0  0
   11.6337   13.6853  -11.3060 C   0  0  1  0  0  0  0  0  0  0  0  0
   10.7916   15.8889  -14.5033 C   0  0  1  0  0  0  0  0  0  0  0  0
   12.7547   13.7762   -5.7944 C   0  0  2  0  0  0  0  0  0  0  0  0
   12.4218   14.7667   -6.8330 N   0  0  0  0  0  0  0  0  0  0  0  0
   10.6723    9.1093   -9.0225 C   0  0  0  0  0  0  0  0  0  0  0  0
   10.1134   13.6356  -11.6482 C   0  0  2  0  0  0  0  0  0  0  0  0
    9.7106   12.4464  -12.3710 O   0  0  0  0  0  0  0  0  0  0  0  0
   12.3247   15.6799  -14.7766 C   0  0  2  0  0  0  0  0  0  0  0  0
   13.0553   15.3730  -13.5105 N   0  0  0  0  0  0  0  0  0  0  0  0
   14.2855   13.8013   -5.6303 C   0  0  1  0  0  0  0  0  0  0  0  0
   14.7268   15.1143   -5.2807 O   0  0  0  0  0  0  0  0  0  0  0  0
   11.6523    9.8643   -8.0469 C   0  0  2  0  0  0  0  0  0  0  0  0
   11.2312    9.6648   -6.6339 N   0  0  0  0  0  0  0  0  0  0  0  0
    9.9339   14.9577  -12.3960 C   0  0  2  0  0  0  0  0  0  0  0  0
   10.1502   14.7961  -13.8340 O   0  0  0  0  0  0  0  0  0  0  0  0
   12.9196   16.9901  -15.4812 C   0  0  1  0  0  0  0  0  0  0  0  0
   12.4619   17.0323  -16.8515 O   0  0  0  0  0  0  0  0  0  0  0  0
   14.7072   12.7623   -4.5665 C   0  0  2  0  0  0  0  0  0  0  0  0
   16.1049   12.7845   -4.3922 O   0  0  0  0  0  0  0  0  0  0  0  0
   11.6863   11.4089   -8.3769 C   0  0  2  0  0  0  0  0  0  0  0  0
   10.9543   15.9329  -11.7850 C   0  0  2  0  0  0  0  0  0  0  0  0
   12.0236   15.0751  -11.3936 O   0  0  0  0  0  0  0  0  0  0  0  0
   12.4992   18.3436  -14.7338 C   0  0  2  0  0  0  0  0  0  0  0  0
   13.1790   18.3722  -13.4794 O   0  0  0  0  0  0  0  0  0  0  0  0
   14.2290   11.3431   -5.0213 C   0  0  2  0  0  0  0  0  0  0  0  0
   12.7778   11.3482   -5.2045 O   0  0  0  0  0  0  0  0  0  0  0  0
   12.1007   11.7007   -9.8358 C   0  0  2  0  0  0  0  0  0  0  0  0
   11.8997   13.1301  -10.0114 O   0  0  0  0  0  0  0  0  0  0  0  0
   10.4279   16.7625  -10.5731 C   0  0  0  0  0  0  0  0  0  0  0  0
    9.2863   17.5126  -10.9768 O   0  0  0  0  0  0  0  0  0  0  0  0
   10.9404   18.3940  -14.5104 C   0  0  1  0  0  0  0  0  0  0  0  0
   10.5976   17.1841  -13.7431 O   0  0  0  0  0  0  0  0  0  0  0  0
   14.5953   10.2613   -4.0317 C   0  0  0  0  0  0  0  0  0  0  0  0
   15.9913   10.0908   -3.9943 O   0  0  0  0  0  0  0  0  0  0  0  0
   11.1903   10.8773  -10.8402 C   0  0  1  0  0  0  0  0  0  0  0  0
   11.6703   11.0292  -12.1789 O   0  0  0  0  0  0  0  0  0  0  0  0
   10.4379   19.6926  -13.7424 C   0  0  0  0  0  0  0  0  0  0  0  0
   10.6361   20.9811  -14.4616 N   0  0  0  0  0  0  0  0  0  0  0  0
  1  2  1  6  0  0  0
  1  7  1  0  0  0  0
  1 30  1  0  0  0  0
  3  4  1  6  0  0  0
  3  9  1  0  0  0  0
  3 39  1  0  0  0  0
  5 10  1  0  0  0  0
  5 26  1  0  0  0  0
  5 32  1  1  0  0  0
  6 12  1  0  0  0  0
  6 36  1  0  0  0  0
  6 19  1  1  0  0  0
  7  8  1  6  0  0  0
  7 14  1  0  0  0  0
  9 16  1  0  0  0  0
 10 11  1  6  0  0  0
 10 18  1  0  0  0  0
 12 13  1  1  0  0  0
 12 20  1  0  0  0  0
 14 15  1  1  0  0  0
 14 22  1  0  0  0  0
 16 17  1  1  0  0  0
 16 24  1  0  0  0  0
 18 19  1  6  0  0  0
 18 25  1  0  0  0  0
 20 21  1  6  0  0  0
 20 27  1  0  0  0  0
 22 23  1  6  0  0  0
 22 29  1  0  0  0  0
 24  2  1  1  0  0  0
 24 31  1  0  0  0  0
 25 26  1  0  0  0  0
 25 33  1  1  0  0  0
 27 28  1  1  0  0  0
 27 35  1  0  0  0  0
 29 30  1  0  0  0  0
 29 37  1  1  0  0  0
 31 32  1  6  0  0  0
 31 39  1  0  0  0  0
 33 34  1  0  0  0  0
 35 36  1  0  0  0  0
 35 41  1  1  0  0  0
 37 38  1  0  0  0  0
 39 40  1  6  0  0  0
 41 42  1  0  0  0  0
M  END
>  <CHROM.1>
-138.22298776,-79.01790039,-143.71940704,100.32337031,-58.29678693,-67.35625365
-153.67098682,85.75213825,65.00266414,12.04206988,13.91991714,-10.16717386
-1.08616104,-1.08753700,-0.51488661

>  <Name>
ligand

>  <RI>
0

>  <Rbt.Current_Directory>
/home/itssahil/PROJECTS/Mol_Feturizer/Test_systems_manuscript/rnas/2o3w

>  <Rbt.Executable>
rbdock ($Id: //depot/dev/client3/rdock/2013.1/src/exe/rbdock.cxx#4 $)

>  <Rbt.Library>
libRbt.so (2013.1, Build901 2013/11/27)

>  <Rbt.Parameter_File>
/export/apps/rDock/src/rDock_2013.1_src/data/scripts/dock_solv.prm

>  <Rbt.Receptor>
prm/blind_docking_80.prm

>  <SCORE>
20.3798

>  <SCORE.INTER>
-4.32081

>  <SCORE.INTER.CONST>
1

>  <SCORE.INTER.POLAR>
0

>  <SCORE.INTER.ROT>
9

>  <SCORE.INTER.SOLV>
30.5764

>  <SCORE.INTER.VDW>
-22.6727

>  <SCORE.INTER.norm>
-0.102876

>  <SCORE.INTRA>
11.9394

>  <SCORE.INTRA.DIHEDRAL>
-4.32586

>  <SCORE.INTRA.DIHEDRAL.0>
27.8999

>  <SCORE.INTRA.POLAR>
0

>  <SCORE.INTRA.POLAR.0>
0

>  <SCORE.INTRA.REPUL>
0

>  <SCORE.INTRA.REPUL.0>
0

>  <SCORE.INTRA.SOLV>
3.31129

>  <SCORE.INTRA.SOLV.lig_0>
-104.479

>  <SCORE.INTRA.VDW>
12.4466

>  <SCORE.INTRA.VDW.0>
-6.17816

>  <SCORE.INTRA.norm>
0.284271

>  <SCORE.RESTR>
12.7613

>  <SCORE.RESTR.CAVITY>
12.7613

>  <SCORE.RESTR.norm>
0.303839

>  <SCORE.SYSTEM>
0

>  <SCORE.SYSTEM.CONST>
0

>  <SCORE.SYSTEM.DIHEDRAL>
0

>  <SCORE.SYSTEM.SOLV>
0

>  <SCORE.SYSTEM.norm>
0

>  <SCORE.heavy>
42

>  <SCORE.norm>
0.485234

>  <RMSD>
18.655

$$$$
ligand
 OpenBabel02271912133D
libRbt.so/2013.1/901 2013/11/27
 42 45  0  0  0  0  0  0  0  0999 V2000
   13.6244   12.1852  -11.7053 C   0  0  2  0  0  0  0  0  0  0  0  0
   13.4927   13.0022  -12.8812 O   0  0  0  0  0  0  0  0  0  0  0  0
   11.3188   16.7522  -12.9683 C   0  0  2  0  0  0  0  0  0  0  0  0
   10.2242   17.7662  -13.0314 N   0  0  0  0  0  0  0  0  0  0  0  0
   12.0219   13.8159   -9.2711 C   0  0  1  0  0  0  0  0  0  0  0  0
   12.8432   13.5405   -5.3328 C   0  0  1  0  0  0  0  0  0  0  0  0
   14.9398   11.3654  -11.8658 C   0  0  2  0  0  0  0  0  0  0  0  0
   16.0894   12.2104  -12.2335 N   0  0  0  0  0  0  0  0  0  0  0  0
   11.4146   15.9265  -14.3140 C   0  0  0  0  0  0  0  0  0  0  0  0
   10.8040   13.3111   -8.4388 C   0  0  2  0  0  0  0  0  0  0  0  0
    9.8202   14.3356   -8.1532 O   0  0  0  0  0  0  0  0  0  0  0  0
   14.0085   14.5476   -5.6438 C   0  0  2  0  0  0  0  0  0  0  0  0
   14.4050   14.4768   -7.0821 N   0  0  0  0  0  0  0  0  0  0  0  0
   14.8222   10.2783  -12.9499 C   0  0  1  0  0  0  0  0  0  0  0  0
   16.0346    9.5274  -13.0349 O   0  0  0  0  0  0  0  0  0  0  0  0
   12.5974   14.8924  -14.1951 C   0  0  2  0  0  0  0  0  0  0  0  0
   12.7259   14.1065  -15.4518 N   0  0  0  0  0  0  0  0  0  0  0  0
   11.5059   12.7089   -7.2206 C   0  0  2  0  0  0  0  0  0  0  0  0
   11.6818   13.6985   -6.1573 O   0  0  0  0  0  0  0  0  0  0  0  0
   15.2532   14.2275   -4.6872 C   0  0  1  0  0  0  0  0  0  0  0  0
   14.9393   14.6708   -3.3478 O   0  0  0  0  0  0  0  0  0  0  0  0
   13.6143    9.3662  -12.6365 C   0  0  2  0  0  0  0  0  0  0  0  0
   13.5028    8.3550  -13.6109 O   0  0  0  0  0  0  0  0  0  0  0  0
   12.3603   13.9124  -12.9788 C   0  0  2  0  0  0  0  0  0  0  0  0
   12.8615   12.1876   -7.7264 C   0  0  2  0  0  0  0  0  0  0  0  0
   13.1722   13.0823   -8.7920 O   0  0  0  0  0  0  0  0  0  0  0  0
   15.6338   12.6712   -4.6613 C   0  0  2  0  0  0  0  0  0  0  0  0
   16.1752   12.3387   -5.9391 O   0  0  0  0  0  0  0  0  0  0  0  0
   12.3147   10.2373  -12.5922 C   0  0  2  0  0  0  0  0  0  0  0  0
   12.4587   11.2844  -11.5810 O   0  0  0  0  0  0  0  0  0  0  0  0
   12.2003   14.6547  -11.6340 C   0  0  2  0  0  0  0  0  0  0  0  0
   11.8107   13.6316  -10.6770 O   0  0  0  0  0  0  0  0  0  0  0  0
   12.8547   10.7075   -8.2202 C   0  0  0  0  0  0  0  0  0  0  0  0
   12.3870    9.8641   -7.1720 O   0  0  0  0  0  0  0  0  0  0  0  0
   14.3605   11.7925   -4.3632 C   0  0  1  0  0  0  0  0  0  0  0  0
   13.3789   12.1263   -5.4098 O   0  0  0  0  0  0  0  0  0  0  0  0
   11.0793    9.4233  -12.2838 C   0  0  0  0  0  0  0  0  0  0  0  0
   11.1315    8.9447  -10.9619 O   0  0  0  0  0  0  0  0  0  0  0  0
   11.0788   15.7699  -11.7526 C   0  0  1  0  0  0  0  0  0  0  0  0
   11.0360   16.5557  -10.5582 O   0  0  0  0  0  0  0  0  0  0  0  0
   14.6417   10.2275   -4.3524 C   0  0  0  0  0  0  0  0  0  0  0  0
   15.6490    9.7491   -5.3389 N   0  0  0  0  0  0  0  0  0  0  0  0
  1  2  1  6  0  0  0
  1  7  1  0  0  0  0
  1 30  1  0  0  0  0
  3  4  1  6  0  0  0
  3  9  1  0  0  0  0
  3 39  1  0  0  0  0
  5 10  1  0  0  0  0
  5 26  1  0  0  0  0
  5 32  1  6  0  0  0
  6 12  1  0  0  0  0
  6 36  1  0  0  0  0
  6 19  1  6  0  0  0
  7  8  1  6  0  0  0
  7 14  1  0  0  0  0
  9 16  1  0  0  0  0
 10 11  1  1  0  0  0
 10 18  1  0  0  0  0
 12 13  1  6  0  0  0
 12 20  1  0  0  0  0
 14 15  1  1  0  0  0
 14 22  1  0  0  0  0
 16 17  1  6  0  0  0
 16 24  1  0  0  0  0
 18 19  1  1  0  0  0
 18 25  1  0  0  0  0
 20 21  1  1  0  0  0
 20 27  1  0  0  0  0
 22 23  1  6  0  0  0
 22 29  1  0  0  0  0
 24  2  1  1  0  0  0
 24 31  1  0  0  0  0
 25 26  1  0  0  0  0
 25 33  1  6  0  0  0
 27 28  1  6  0  0  0
 27 35  1  0  0  0  0
 29 30  1  0  0  0  0
 29 37  1  1  0  0  0
 31 32  1  1  0  0  0
 31 39  1  0  0  0  0
 33 34  1  0  0  0  0
 35 36  1  0  0  0  0
 35 41  1  6  0  0  0
 37 38  1  0  0  0  0
 39 40  1  1  0  0  0
 41 42  1  0  0  0  0
M  END
>  <CHROM.1>
-178.05904934,168.48644141,-148.47152381,103.83424652,-56.68316617,67.88662970
157.72303728,138.75499115,-35.75949130,13.04793282,12.68653321,-9.57942155
-2.08393961,-1.13745222,1.16559233

>  <Name>
ligand

>  <RI>
0

>  <Rbt.Current_Directory>
/home/itssahil/PROJECTS/Mol_Feturizer/Test_systems_manuscript/rnas/2o3w

>  <Rbt.Executable>
rbdock ($Id: //depot/dev/client3/rdock/2013.1/src/exe/rbdock.cxx#4 $)

>  <Rbt.Library>
libRbt.so (2013.1, Build901 2013/11/27)

>  <Rbt.Parameter_File>
/export/apps/rDock/src/rDock_2013.1_src/data/scripts/dock_solv.prm

>  <Rbt.Receptor>
prm/blind_docking_80.prm

>  <SCORE>
20.7452

>  <SCORE.INTER>
8.04233

>  <SCORE.INTER.CONST>
1

>  <SCORE.INTER.POLAR>
0

>  <SCORE.INTER.ROT>
9

>  <SCORE.INTER.SOLV>
34.9748

>  <SCORE.INTER.VDW>
-15.8967

>  <SCORE.INTER.norm>
0.191484

>  <SCORE.INTRA>
6.07185

>  <SCORE.INTRA.DIHEDRAL>
-7.43786

>  <SCORE.INTRA.DIHEDRAL.0>
27.8999

>  <SCORE.INTRA.POLAR>
0

>  <SCORE.INTRA.POLAR.0>
0

>  <SCORE.INTRA.REPUL>
0.0149765

>  <SCORE.INTRA.REPUL.0>
0

>  <SCORE.INTRA.SOLV>
1.71848

>  <SCORE.INTRA.SOLV.lig_0>
-104.479

>  <SCORE.INTRA.VDW>
8.85666

>  <SCORE.INTRA.VDW.0>
-6.17816

>  <SCORE.INTRA.norm>
0.144568

>  <SCORE.RESTR>
6.631

>  <SCORE.RESTR.CAVITY>
6.631

>  <SCORE.RESTR.norm>
0.157881

>  <SCORE.SYSTEM>
0

>  <SCORE.SYSTEM.CONST>
0

>  <SCORE.SYSTEM.DIHEDRAL>
0

>  <SCORE.SYSTEM.SOLV>
0

>  <SCORE.SYSTEM.norm>
0

>  <SCORE.heavy>
42

>  <SCORE.norm>
0.493933

>  <RMSD>
18.668

$$$$
ligand
 OpenBabel02271912133D
libRbt.so/2013.1/901 2013/11/27
 42 45  0  0  0  0  0  0  0  0999 V2000
   12.5615   10.8156  -12.1157 C   0  0  2  0  0  0  0  0  0  0  0  0
   11.8118   10.3014  -11.0018 O   0  0  0  0  0  0  0  0  0  0  0  0
   11.6655   11.7006   -6.9010 C   0  0  2  0  0  0  0  0  0  0  0  0
   12.0440   12.0656   -5.5031 N   0  0  0  0  0  0  0  0  0  0  0  0
   13.0213   13.8486  -11.0963 C   0  0  1  0  0  0  0  0  0  0  0  0
   11.3619   16.9402  -13.5444 C   0  0  1  0  0  0  0  0  0  0  0  0
   12.0189   10.1092  -13.3943 C   0  0  2  0  0  0  0  0  0  0  0  0
   10.5495   10.1619  -13.4870 N   0  0  0  0  0  0  0  0  0  0  0  0
   11.7936   10.1426   -7.1421 C   0  0  0  0  0  0  0  0  0  0  0  0
   12.6716   13.5185  -12.5794 C   0  0  2  0  0  0  0  0  0  0  0  0
   13.8182   13.4990  -13.4649 O   0  0  0  0  0  0  0  0  0  0  0  0
   12.1022   18.3076  -13.7701 C   0  0  2  0  0  0  0  0  0  0  0  0
   13.0941   18.5631  -12.6830 N   0  0  0  0  0  0  0  0  0  0  0  0
   12.4153    8.6224  -13.4531 C   0  0  1  0  0  0  0  0  0  0  0  0
   11.9319    8.0261  -14.6580 O   0  0  0  0  0  0  0  0  0  0  0  0
   11.3609    9.8180   -8.6219 C   0  0  2  0  0  0  0  0  0  0  0  0
   11.4555    8.3558   -8.8797 N   0  0  0  0  0  0  0  0  0  0  0  0
   11.6197   14.5869  -12.8815 C   0  0  2  0  0  0  0  0  0  0  0  0
   12.2289   15.8068  -13.4121 O   0  0  0  0  0  0  0  0  0  0  0  0
   11.0209   19.4870  -13.8514 C   0  0  1  0  0  0  0  0  0  0  0  0
   10.3335   19.4040  -15.1201 O   0  0  0  0  0  0  0  0  0  0  0  0
   13.9511    8.4932  -13.3361 C   0  0  2  0  0  0  0  0  0  0  0  0
   14.3317    7.1387  -13.4051 O   0  0  0  0  0  0  0  0  0  0  0  0
   12.2702   10.5978   -9.6519 C   0  0  2  0  0  0  0  0  0  0  0  0
   10.8962   14.8582  -11.5517 C   0  0  2  0  0  0  0  0  0  0  0  0
   11.9104   14.6165  -10.5793 O   0  0  0  0  0  0  0  0  0  0  0  0
    9.9524   19.4347  -12.6585 C   0  0  2  0  0  0  0  0  0  0  0  0
   10.6367   19.7705  -11.4521 O   0  0  0  0  0  0  0  0  0  0  0  0
   14.4154    9.1300  -11.9839 C   0  0  2  0  0  0  0  0  0  0  0  0
   14.0007   10.5318  -11.9322 O   0  0  0  0  0  0  0  0  0  0  0  0
   12.2392   12.1273   -9.4398 C   0  0  2  0  0  0  0  0  0  0  0  0
   13.2561   12.6576  -10.3338 O   0  0  0  0  0  0  0  0  0  0  0  0
    9.6436   13.9657  -11.2900 C   0  0  0  0  0  0  0  0  0  0  0  0
    8.7375   14.6639  -10.4412 O   0  0  0  0  0  0  0  0  0  0  0  0
    9.3179   17.9972  -12.5434 C   0  0  1  0  0  0  0  0  0  0  0  0
   10.4436   17.0675  -12.3471 O   0  0  0  0  0  0  0  0  0  0  0  0
   15.9120    9.0531  -11.7886 C   0  0  0  0  0  0  0  0  0  0  0  0
   16.3105    7.7148  -11.6167 O   0  0  0  0  0  0  0  0  0  0  0  0
   12.5784   12.4793   -7.9309 C   0  0  1  0  0  0  0  0  0  0  0  0
   12.4018   13.8796   -7.6992 O   0  0  0  0  0  0  0  0  0  0  0  0
    8.2673   17.8460  -11.3592 C   0  0  0  0  0  0  0  0  0  0  0  0
    6.9576   18.5212  -11.5725 N   0  0  0  0  0  0  0  0  0  0  0  0
  1  2  1  1  0  0  0
  1  7  1  0  0  0  0
  1 30  1  0  0  0  0
  3  4  1  1  0  0  0
  3  9  1  0  0  0  0
  3 39  1  0  0  0  0
  5 10  1  0  0  0  0
  5 26  1  0  0  0  0
  5 32  1  1  0  0  0
  6 12  1  0  0  0  0
  6 36  1  0  0  0  0
  6 19  1  1  0  0  0
  7  8  1  1  0  0  0
  7 14  1  0  0  0  0
  9 16  1  0  0  0  0
 10 11  1  6  0  0  0
 10 18  1  0  0  0  0
 12 13  1  1  0  0  0
 12 20  1  0  0  0  0
 14 15  1  6  0  0  0
 14 22  1  0  0  0  0
 16 17  1  6  0  0  0
 16 24  1  0  0  0  0
 18 19  1  1  0  0  0
 18 25  1  0  0  0  0
 20 21  1  6  0  0  0
 20 27  1  0  0  0  0
 22 23  1  1  0  0  0
 22 29  1  0  0  0  0
 24  2  1  6  0  0  0
 24 31  1  0  0  0  0
 25 26  1  0  0  0  0
 25 33  1  1  0  0  0
 27 28  1  1  0  0  0
 27 35  1  0  0  0  0
 29 30  1  0  0  0  0
 29 37  1  6  0  0  0
 31 32  1  6  0  0  0
 31 39  1  0  0  0  0
 33 34  1  0  0  0  0
 35 36  1  0  0  0  0
 35 41  1  1  0  0  0
 37 38  1  0  0  0  0
 39 40  1  6  0  0  0
 41 42  1  0  0  0  0
M  END
>  <CHROM.1>
168.67177223,-174.94182246,-171.11769901,165.55997072,-152.86840424,-67.61127412
138.33094923,-101.70769702,72.66092964,11.90477925,13.24961893,-11.50444349
-0.68069764,1.15197138,-0.99420981

>  <Name>
ligand

>  <RI>
0

>  <Rbt.Current_Directory>
/home/itssahil/PROJECTS/Mol_Feturizer/Test_systems_manuscript/rnas/2o3w

>  <Rbt.Executable>
rbdock ($Id: //depot/dev/client3/rdock/2013.1/src/exe/rbdock.cxx#4 $)

>  <Rbt.Library>
libRbt.so (2013.1, Build901 2013/11/27)

>  <Rbt.Parameter_File>
/export/apps/rDock/src/rDock_2013.1_src/data/scripts/dock_solv.prm

>  <Rbt.Receptor>
prm/blind_docking_40.prm

>  <SCORE>
39.3399

>  <SCORE.INTER>
25.0457

>  <SCORE.INTER.CONST>
1

>  <SCORE.INTER.POLAR>
0

>  <SCORE.INTER.ROT>
9

>  <SCORE.INTER.SOLV>
33.1983

>  <SCORE.INTER.VDW>
-3.96896

>  <SCORE.INTER.norm>
0.596327

>  <SCORE.INTRA>
-0.504524

>  <SCORE.INTRA.DIHEDRAL>
-11.3754

>  <SCORE.INTRA.DIHEDRAL.0>
27.8999

>  <SCORE.INTRA.POLAR>
0

>  <SCORE.INTRA.POLAR.0>
0

>  <SCORE.INTRA.REPUL>
0

>  <SCORE.INTRA.REPUL.0>
0

>  <SCORE.INTRA.SOLV>
-4.0371

>  <SCORE.INTRA.SOLV.lig_0>
-104.479

>  <SCORE.INTRA.VDW>
7.20172

>  <SCORE.INTRA.VDW.0>
-6.17816

>  <SCORE.INTRA.norm>
-0.0120125

>  <SCORE.RESTR>
14.7987

>  <SCORE.RESTR.CAVITY>
14.7987

>  <SCORE.RESTR.norm>
0.35235

>  <SCORE.SYSTEM>
0

>  <SCORE.SYSTEM.CONST>
0

>  <SCORE.SYSTEM.DIHEDRAL>
0

>  <SCORE.SYSTEM.SOLV>
0

>  <SCORE.SYSTEM.norm>
0

>  <SCORE.heavy>
42

>  <SCORE.norm>
0.936665

>  <RMSD>
18.694

$$$$
ligand
 OpenBabel02271912133D
libRbt.so/2013.1/901 2013/11/27
 42 45  0  0  0  0  0  0  0  0999 V2000
   12.8154   10.6239   -7.8808 C   0  0  2  0  0  0  0  0  0  0  0  0
   13.1879   11.0496   -9.2027 O   0  0  0  0  0  0  0  0  0  0  0  0
   12.6181    9.5973  -13.2477 C   0  0  2  0  0  0  0  0  0  0  0  0
   12.0124    9.0203  -14.4849 N   0  0  0  0  0  0  0  0  0  0  0  0
   11.4973   13.8700  -11.3377 C   0  0  1  0  0  0  0  0  0  0  0  0
   10.8648   17.6027  -12.9098 C   0  0  1  0  0  0  0  0  0  0  0  0
   11.6029   11.5005   -7.4452 C   0  0  2  0  0  0  0  0  0  0  0  0
   10.5413   11.5415   -8.4659 N   0  0  0  0  0  0  0  0  0  0  0  0
   12.6748    8.5278  -12.0837 C   0  0  0  0  0  0  0  0  0  0  0  0
   11.8571   13.9913  -12.8499 C   0  0  2  0  0  0  0  0  0  0  0  0
   13.2751   14.1375  -13.1084 O   0  0  0  0  0  0  0  0  0  0  0  0
   11.5919   18.9738  -13.1556 C   0  0  2  0  0  0  0  0  0  0  0  0
   12.8223   19.0831  -12.3159 N   0  0  0  0  0  0  0  0  0  0  0  0
   12.0074   12.9596   -7.1654 C   0  0  1  0  0  0  0  0  0  0  0  0
   10.8752   13.7153   -6.7319 O   0  0  0  0  0  0  0  0  0  0  0  0
   13.3415    9.1868  -10.8174 C   0  0  2  0  0  0  0  0  0  0  0  0
   13.4245    8.2022   -9.7050 N   0  0  0  0  0  0  0  0  0  0  0  0
   10.9822   15.1736  -13.2694 C   0  0  2  0  0  0  0  0  0  0  0  0
   11.6866   16.4464  -13.1129 O   0  0  0  0  0  0  0  0  0  0  0  0
   10.5761   20.1737  -12.8471 C   0  0  1  0  0  0  0  0  0  0  0  0
    9.6063   20.2513  -13.9159 O   0  0  0  0  0  0  0  0  0  0  0  0
   13.1408   12.9881   -6.1148 C   0  0  2  0  0  0  0  0  0  0  0  0
   13.5112   14.3181   -5.8350 O   0  0  0  0  0  0  0  0  0  0  0  0
   12.5168   10.4496  -10.3472 C   0  0  2  0  0  0  0  0  0  0  0  0
    9.7321   15.1149  -12.3754 C   0  0  2  0  0  0  0  0  0  0  0  0
   10.2275   14.5407  -11.1682 O   0  0  0  0  0  0  0  0  0  0  0  0
    9.8173   20.0017  -11.4463 C   0  0  2  0  0  0  0  0  0  0  0  0
   10.7807   20.1824  -10.4093 O   0  0  0  0  0  0  0  0  0  0  0  0
   14.3630   12.1766   -6.6601 C   0  0  2  0  0  0  0  0  0  0  0  0
   13.9512   10.8036   -6.9517 O   0  0  0  0  0  0  0  0  0  0  0  0
   12.3712   11.5160  -11.4548 C   0  0  2  0  0  0  0  0  0  0  0  0
   11.4451   12.5003  -10.9180 O   0  0  0  0  0  0  0  0  0  0  0  0
    8.5495   14.2763  -12.9518 C   0  0  0  0  0  0  0  0  0  0  0  0
    9.0372   13.0091  -13.3823 O   0  0  0  0  0  0  0  0  0  0  0  0
    9.1636   18.5721  -11.3402 C   0  0  1  0  0  0  0  0  0  0  0  0
   10.2609   17.6060  -11.5212 O   0  0  0  0  0  0  0  0  0  0  0  0
   15.5207   12.1464   -5.6893 C   0  0  0  0  0  0  0  0  0  0  0  0
   16.6069   11.4511   -6.2514 O   0  0  0  0  0  0  0  0  0  0  0  0
   11.7899   10.8592  -12.7763 C   0  0  1  0  0  0  0  0  0  0  0  0
   11.7974   11.8103  -13.8445 O   0  0  0  0  0  0  0  0  0  0  0  0
    8.4157   18.3027   -9.9630 C   0  0  0  0  0  0  0  0  0  0  0  0
    8.3916   16.8840   -9.5121 N   0  0  0  0  0  0  0  0  0  0  0  0
  1  2  1  6  0  0  0
  1  7  1  0  0  0  0
  1 30  1  0  0  0  0
  3  4  1  6  0  0  0
  3  9  1  0  0  0  0
  3 39  1  0  0  0  0
  5 10  1  0  0  0  0
  5 26  1  0  0  0  0
  5 32  1  6  0  0  0
  6 12  1  0  0  0  0
  6 36  1  0  0  0  0
  6 19  1  1  0  0  0
  7  8  1  6  0  0  0
  7 14  1  0  0  0  0
  9 16  1  0  0  0  0
 10 11  1  1  0  0  0
 10 18  1  0  0  0  0
 12 13  1  1  0  0  0
 12 20  1  0  0  0  0
 14 15  1  1  0  0  0
 14 22  1  0  0  0  0
 16 17  1  1  0  0  0
 16 24  1  0  0  0  0
 18 19  1  1  0  0  0
 18 25  1  0  0  0  0
 20 21  1  6  0  0  0
 20 27  1  0  0  0  0
 22 23  1  6  0  0  0
 22 29  1  0  0  0  0
 24  2  1  1  0  0  0
 24 31  1  0  0  0  0
 25 26  1  0  0  0  0
 25 33  1  6  0  0  0
 27 28  1  1  0  0  0
 27 35  1  0  0  0  0
 29 30  1  0  0  0  0
 29 37  1  1  0  0  0
 31 32  1  1  0  0  0
 31 39  1  0  0  0  0
 33 34  1  0  0  0  0
 35 36  1  0  0  0  0
 35 41  1  1  0  0  0
 37 38  1  0  0  0  0
 39 40  1  6  0  0  0
 41 42  1  0  0  0  0
M  END
>  <CHROM.1>
-86.74526803,-91.16728070,-154.08980035,-163.27899968,49.18545254,-177.67558503
152.13401115,36.43501755,-150.34824231,11.70404501,13.95332551,-10.62783225
-0.44965327,-1.17122483,0.67337171

>  <Name>
ligand

>  <RI>
0

>  <Rbt.Current_Directory>
/home/itssahil/PROJECTS/Mol_Feturizer/Test_systems_manuscript/rnas/2o3w

>  <Rbt.Executable>
rbdock ($Id: //depot/dev/client3/rdock/2013.1/src/exe/rbdock.cxx#4 $)

>  <Rbt.Library>
libRbt.so (2013.1, Build901 2013/11/27)

>  <Rbt.Parameter_File>
/export/apps/rDock/src/rDock_2013.1_src/data/scripts/dock_solv.prm

>  <Rbt.Receptor>
prm/blind_docking_60.prm

>  <SCORE>
23.9768

>  <SCORE.INTER>
2.69246

>  <SCORE.INTER.CONST>
1

>  <SCORE.INTER.POLAR>
0

>  <SCORE.INTER.ROT>
9

>  <SCORE.INTER.SOLV>
26.5824

>  <SCORE.INTER.VDW>
-16.6658

>  <SCORE.INTER.norm>
0.0641062

>  <SCORE.INTRA>
3.16789

>  <SCORE.INTRA.DIHEDRAL>
-8.23889

>  <SCORE.INTRA.DIHEDRAL.0>
27.8999

>  <SCORE.INTRA.POLAR>
0

>  <SCORE.INTRA.POLAR.0>
0

>  <SCORE.INTRA.REPUL>
0

>  <SCORE.INTRA.REPUL.0>
0

>  <SCORE.INTRA.SOLV>
1.36523

>  <SCORE.INTRA.SOLV.lig_0>
-104.479

>  <SCORE.INTRA.VDW>
6.60472

>  <SCORE.INTRA.VDW.0>
-6.17816

>  <SCORE.INTRA.norm>
0.0754259

>  <SCORE.RESTR>
18.1164

>  <SCORE.RESTR.CAVITY>
18.1164

>  <SCORE.RESTR.norm>
0.431344

>  <SCORE.SYSTEM>
0

>  <SCORE.SYSTEM.CONST>
0

>  <SCORE.SYSTEM.DIHEDRAL>
0

>  <SCORE.SYSTEM.SOLV>
0

>  <SCORE.SYSTEM.norm>
0

>  <SCORE.heavy>
42

>  <SCORE.norm>
0.570876

>  <RMSD>
18.699

$$$$
ligand
 OpenBabel02271912133D
libRbt.so/2013.1/901 2013/11/27
 42 45  0  0  0  0  0  0  0  0999 V2000
   11.6060   11.5840   -8.5417 C   0  0  2  0  0  0  0  0  0  0  0  0
   12.2416   11.9199   -9.7869 O   0  0  0  0  0  0  0  0  0  0  0  0
   14.7811    9.3007  -12.1293 C   0  0  2  0  0  0  0  0  0  0  0  0
   15.2606    8.2420  -13.0673 N   0  0  0  0  0  0  0  0  0  0  0  0
   11.5137   13.2517  -11.9366 C   0  0  1  0  0  0  0  0  0  0  0  0
   10.1273   17.1645  -10.5142 C   0  0  1  0  0  0  0  0  0  0  0  0
   10.7738   12.8273   -8.1058 C   0  0  2  0  0  0  0  0  0  0  0  0
    9.9134   13.3373   -9.1875 N   0  0  0  0  0  0  0  0  0  0  0  0
   14.0128    8.6716  -10.8981 C   0  0  0  0  0  0  0  0  0  0  0  0
   12.4904   14.3198  -11.3571 C   0  0  2  0  0  0  0  0  0  0  0  0
   12.8930   14.0691   -9.9881 O   0  0  0  0  0  0  0  0  0  0  0  0
    8.6249   17.0800  -10.0619 C   0  0  2  0  0  0  0  0  0  0  0  0
    7.8917   16.0365  -10.8394 N   0  0  0  0  0  0  0  0  0  0  0  0
   11.6659   13.9994   -7.6571 C   0  0  1  0  0  0  0  0  0  0  0  0
   10.8625   15.1006   -7.2297 O   0  0  0  0  0  0  0  0  0  0  0  0
   13.5529    9.8321   -9.9367 C   0  0  2  0  0  0  0  0  0  0  0  0
   12.8378    9.2741   -8.7573 N   0  0  0  0  0  0  0  0  0  0  0  0
   11.6956   15.6058  -11.5887 C   0  0  2  0  0  0  0  0  0  0  0  0
   10.8426   15.9248  -10.4435 O   0  0  0  0  0  0  0  0  0  0  0  0
    7.9384   18.5169  -10.2372 C   0  0  1  0  0  0  0  0  0  0  0  0
    8.4250   19.3970   -9.1991 O   0  0  0  0  0  0  0  0  0  0  0  0
   12.6155   13.5241   -6.5339 C   0  0  2  0  0  0  0  0  0  0  0  0
   13.4277   14.5902   -6.1003 O   0  0  0  0  0  0  0  0  0  0  0  0
   12.6097   10.8453  -10.6980 C   0  0  2  0  0  0  0  0  0  0  0  0
   10.8592   15.3653  -12.8567 C   0  0  2  0  0  0  0  0  0  0  0  0
   10.6131   13.9616  -12.8176 O   0  0  0  0  0  0  0  0  0  0  0  0
    8.2230   19.1714  -11.6718 C   0  0  2  0  0  0  0  0  0  0  0  0
    7.5120   18.4056  -12.6436 O   0  0  0  0  0  0  0  0  0  0  0  0
   13.4921   12.3442   -7.0718 C   0  0  2  0  0  0  0  0  0  0  0  0
   12.6268   11.2550   -7.5242 O   0  0  0  0  0  0  0  0  0  0  0  0
   13.2757   11.4590  -11.9491 C   0  0  2  0  0  0  0  0  0  0  0  0
   12.2210   12.2058  -12.6156 O   0  0  0  0  0  0  0  0  0  0  0  0
   11.5545   15.7763  -14.1916 C   0  0  0  0  0  0  0  0  0  0  0  0
   10.6552   15.5632  -15.2755 O   0  0  0  0  0  0  0  0  0  0  0  0
    9.7657   19.1607  -11.9914 C   0  0  1  0  0  0  0  0  0  0  0  0
   10.1911   17.7527  -11.9081 O   0  0  0  0  0  0  0  0  0  0  0  0
   14.4502   11.8107   -6.0320 C   0  0  0  0  0  0  0  0  0  0  0  0
   15.4348   11.0134   -6.6437 O   0  0  0  0  0  0  0  0  0  0  0  0
   13.8346   10.3123  -12.8917 C   0  0  1  0  0  0  0  0  0  0  0  0
   14.5819   10.8810  -13.9705 O   0  0  0  0  0  0  0  0  0  0  0  0
   10.1363   19.7634  -13.4155 C   0  0  0  0  0  0  0  0  0  0  0  0
    9.7668   21.1904  -13.6248 N   0  0  0  0  0  0  0  0  0  0  0  0
  1  2  1  6  0  0  0
  1  7  1  0  0  0  0
  1 30  1  0  0  0  0
  3  4  1  6  0  0  0
  3  9  1  0  0  0  0
  3 39  1  0  0  0  0
  5 10  1  0  0  0  0
  5 26  1  0  0  0  0
  5 32  1  6  0  0  0
  6 12  1  0  0  0  0
  6 36  1  0  0  0  0
  6 19  1  6  0  0  0
  7  8  1  6  0  0  0
  7 14  1  0  0  0  0
  9 16  1  0  0  0  0
 10 11  1  1  0  0  0
 10 18  1  0  0  0  0
 12 13  1  6  0  0  0
 12 20  1  0  0  0  0
 14 15  1  1  0  0  0
 14 22  1  0  0  0  0
 16 17  1  1  0  0  0
 16 24  1  0  0  0  0
 18 19  1  1  0  0  0
 18 25  1  0  0  0  0
 20 21  1  1  0  0  0
 20 27  1  0  0  0  0
 22 23  1  6  0  0  0
 22 29  1  0  0  0  0
 24  2  1  1  0  0  0
 24 31  1  0  0  0  0
 25 26  1  0  0  0  0
 25 33  1  6  0  0  0
 27 28  1  6  0  0  0
 27 35  1  0  0  0  0
 29 30  1  0  0  0  0
 29 37  1  1  0  0  0
 31 32  1  6  0  0  0
 31 39  1  0  0  0  0
 33 34  1  0  0  0  0
 35 36  1  0  0  0  0
 35 41  1  6  0  0  0
 37 38  1  0  0  0  0
 39 40  1  6  0  0  0
 41 42  1  0  0  0  0
M  END
>  <CHROM.1>
-154.75465056,-56.45488611,175.55438519,136.03746784,-177.25450507,-164.75357337
57.69116206,54.58807553,61.21968155,11.61615257,14.10993515,-10.56792514
0.22380334,-1.04501485,1.56087599

>  <Name>
ligand

>  <RI>
0

>  <Rbt.Current_Directory>
/home/itssahil/PROJECTS/Mol_Feturizer/Test_systems_manuscript/rnas/2o3w

>  <Rbt.Executable>
rbdock ($Id: //depot/dev/client3/rdock/2013.1/src/exe/rbdock.cxx#4 $)

>  <Rbt.Library>
libRbt.so (2013.1, Build901 2013/11/27)

>  <Rbt.Parameter_File>
/export/apps/rDock/src/rDock_2013.1_src/data/scripts/dock_solv.prm

>  <Rbt.Receptor>
prm/blind_docking_40.prm

>  <SCORE>
21.0838

>  <SCORE.INTER>
3.89745

>  <SCORE.INTER.CONST>
1

>  <SCORE.INTER.POLAR>
0

>  <SCORE.INTER.ROT>
9

>  <SCORE.INTER.SOLV>
21.9176

>  <SCORE.INTER.VDW>
-14.3076

>  <SCORE.INTER.norm>
0.0927963

>  <SCORE.INTRA>
2.41391

>  <SCORE.INTRA.DIHEDRAL>
-17.9673

>  <SCORE.INTRA.DIHEDRAL.0>
27.8999

>  <SCORE.INTRA.POLAR>
0

>  <SCORE.INTRA.POLAR.0>
0

>  <SCORE.INTRA.REPUL>
0.0453334

>  <SCORE.INTRA.REPUL.0>
0

>  <SCORE.INTRA.SOLV>
5.41003

>  <SCORE.INTRA.SOLV.lig_0>
-104.479

>  <SCORE.INTRA.VDW>
8.4659

>  <SCORE.INTRA.VDW.0>
-6.17816

>  <SCORE.INTRA.norm>
0.0574741

>  <SCORE.RESTR>
14.7725

>  <SCORE.RESTR.CAVITY>
14.7725

>  <SCORE.RESTR.norm>
0.351726

>  <SCORE.SYSTEM>
0

>  <SCORE.SYSTEM.CONST>
0

>  <SCORE.SYSTEM.DIHEDRAL>
0

>  <SCORE.SYSTEM.SOLV>
0

>  <SCORE.SYSTEM.norm>
0

>  <SCORE.heavy>
42

>  <SCORE.norm>
0.501996

>  <RMSD>
18.729

$$$$
ligand
 OpenBabel02271912133D
libRbt.so/2013.1/901 2013/11/27
 42 45  0  0  0  0  0  0  0  0999 V2000
   11.6499   14.1831  -12.7520 C   0  0  2  0  0  0  0  0  0  0  0  0
   12.6680   13.8891  -11.7803 O   0  0  0  0  0  0  0  0  0  0  0  0
   12.3770    9.5636  -11.8180 C   0  0  2  0  0  0  0  0  0  0  0  0
   12.4705    8.1234  -11.4336 N   0  0  0  0  0  0  0  0  0  0  0  0
   11.7656   13.0567   -8.8528 C   0  0  1  0  0  0  0  0  0  0  0  0
   13.6772   13.6856   -5.1408 C   0  0  1  0  0  0  0  0  0  0  0  0
   12.1641   15.3848  -13.6004 C   0  0  2  0  0  0  0  0  0  0  0  0
   13.5345   15.1769  -14.0997 N   0  0  0  0  0  0  0  0  0  0  0  0
   13.8121   10.2054  -11.9922 C   0  0  0  0  0  0  0  0  0  0  0  0
   10.9891   13.8907   -7.7888 C   0  0  2  0  0  0  0  0  0  0  0  0
   11.0316   15.3211   -8.0154 O   0  0  0  0  0  0  0  0  0  0  0  0
   14.7023   14.7143   -4.5411 C   0  0  2  0  0  0  0  0  0  0  0  0
   15.5101   15.3545   -5.6222 N   0  0  0  0  0  0  0  0  0  0  0  0
   12.1767   16.7011  -12.8016 C   0  0  1  0  0  0  0  0  0  0  0  0
   12.6161   17.7803  -13.6281 O   0  0  0  0  0  0  0  0  0  0  0  0
   13.6483   11.7135  -12.4181 C   0  0  2  0  0  0  0  0  0  0  0  0
   14.9819   12.3460  -12.6054 N   0  0  0  0  0  0  0  0  0  0  0  0
   11.6445   13.4054   -6.4949 C   0  0  2  0  0  0  0  0  0  0  0  0
   12.7999   14.2281   -6.1357 O   0  0  0  0  0  0  0  0  0  0  0  0
   15.6457   13.9658   -3.4844 C   0  0  1  0  0  0  0  0  0  0  0  0
   14.8842   13.6989   -2.2853 O   0  0  0  0  0  0  0  0  0  0  0  0
   10.7672   16.9685  -12.2262 C   0  0  2  0  0  0  0  0  0  0  0  0
   10.7578   18.1791  -11.5058 O   0  0  0  0  0  0  0  0  0  0  0  0
   12.8301   12.5140  -11.3293 C   0  0  2  0  0  0  0  0  0  0  0  0
   12.0573   11.9459   -6.7496 C   0  0  2  0  0  0  0  0  0  0  0  0
   12.3359   11.9304   -8.1477 O   0  0  0  0  0  0  0  0  0  0  0  0
   16.2498   12.5945   -4.0520 C   0  0  2  0  0  0  0  0  0  0  0  0
   17.1894   12.9275   -5.0731 O   0  0  0  0  0  0  0  0  0  0  0  0
   10.3571   15.7727  -11.3035 C   0  0  2  0  0  0  0  0  0  0  0  0
   10.3837   14.5276  -12.0709 O   0  0  0  0  0  0  0  0  0  0  0  0
   11.4341   11.9088  -11.0644 C   0  0  2  0  0  0  0  0  0  0  0  0
   10.9086   12.6447   -9.9256 O   0  0  0  0  0  0  0  0  0  0  0  0
   10.9769   10.8825   -6.3808 C   0  0  0  0  0  0  0  0  0  0  0  0
   11.5478    9.5807   -6.4717 O   0  0  0  0  0  0  0  0  0  0  0  0
   15.1058   11.6843   -4.6395 C   0  0  1  0  0  0  0  0  0  0  0  0
   14.4346   12.4883   -5.6755 O   0  0  0  0  0  0  0  0  0  0  0  0
    8.9827   15.9485  -10.7003 C   0  0  0  0  0  0  0  0  0  0  0  0
    8.9426   17.1166   -9.9172 O   0  0  0  0  0  0  0  0  0  0  0  0
   11.5606   10.3644  -10.7259 C   0  0  1  0  0  0  0  0  0  0  0  0
   10.2622    9.7723  -10.6301 O   0  0  0  0  0  0  0  0  0  0  0  0
   15.6222   10.3129   -5.2569 C   0  0  0  0  0  0  0  0  0  0  0  0
   16.8108    9.7150   -4.5889 N   0  0  0  0  0  0  0  0  0  0  0  0
  1  2  1  1  0  0  0
  1  7  1  0  0  0  0
  1 30  1  0  0  0  0
  3  4  1  1  0  0  0
  3  9  1  0  0  0  0
  3 39  1  0  0  0  0
  5 10  1  0  0  0  0
  5 26  1  0  0  0  0
  5 32  1  6  0  0  0
  6 12  1  0  0  0  0
  6 36  1  0  0  0  0
  6 19  1  6  0  0  0
  7  8  1  1  0  0  0
  7 14  1  0  0  0  0
  9 16  1  0  0  0  0
 10 11  1  6  0  0  0
 10 18  1  0  0  0  0
 12 13  1  6  0  0  0
 12 20  1  0  0  0  0
 14 15  1  6  0  0  0
 14 22  1  0  0  0  0
 16 17  1  1  0  0  0
 16 24  1  0  0  0  0
 18 19  1  6  0  0  0
 18 25  1  0  0  0  0
 20 21  1  1  0  0  0
 20 27  1  0  0  0  0
 22 23  1  1  0  0  0
 22 29  1  0  0  0  0
 24  2  1  6  0  0  0
 24 31  1  0  0  0  0
 25 26  1  0  0  0  0
 25 33  1  6  0  0  0
 27 28  1  6  0  0  0
 27 35  1  0  0  0  0
 29 30  1  0  0  0  0
 29 37  1  6  0  0  0
 31 32  1  1  0  0  0
 31 39  1  0  0  0  0
 33 34  1  0  0  0  0
 35 36  1  0  0  0  0
 35 41  1  6  0  0  0
 37 38  1  0  0  0  0
 39 40  1  6  0  0  0
 41 42  1  0  0  0  0
M  END
>  <CHROM.1>
-149.12302982,79.53460603,-165.37698281,-166.48461744,-171.37095772,-60.13756092
-37.03865290,177.03655629,33.04556430,12.69761616,13.26689635,-8.92952270
-3.03715995,-1.16339112,0.44733430

>  <Name>
ligand

>  <RI>
0

>  <Rbt.Current_Directory>
/home/itssahil/PROJECTS/Mol_Feturizer/Test_systems_manuscript/rnas/2o3w

>  <Rbt.Executable>
rbdock ($Id: //depot/dev/client3/rdock/2013.1/src/exe/rbdock.cxx#4 $)

>  <Rbt.Library>
libRbt.so (2013.1, Build901 2013/11/27)

>  <Rbt.Parameter_File>
/export/apps/rDock/src/rDock_2013.1_src/data/scripts/dock_solv.prm

>  <Rbt.Receptor>
prm/blind_docking_80.prm

>  <SCORE>
-0.151467

>  <SCORE.INTER>
-3.52235

>  <SCORE.INTER.CONST>
1

>  <SCORE.INTER.POLAR>
0

>  <SCORE.INTER.ROT>
9

>  <SCORE.INTER.SOLV>
31.8317

>  <SCORE.INTER.VDW>
-22.5588

>  <SCORE.INTER.norm>
-0.0838654

>  <SCORE.INTRA>
-5.20548

>  <SCORE.INTRA.DIHEDRAL>
-15.613

>  <SCORE.INTRA.DIHEDRAL.0>
27.8999

>  <SCORE.INTRA.POLAR>
0

>  <SCORE.INTRA.POLAR.0>
0

>  <SCORE.INTRA.REPUL>
0

>  <SCORE.INTRA.REPUL.0>
0

>  <SCORE.INTRA.SOLV>
-2.32726

>  <SCORE.INTRA.SOLV.lig_0>
-104.479

>  <SCORE.INTRA.VDW>
3.76463

>  <SCORE.INTRA.VDW.0>
-6.17816

>  <SCORE.INTRA.norm>
-0.12394

>  <SCORE.RESTR>
8.57636

>  <SCORE.RESTR.CAVITY>
8.57636

>  <SCORE.RESTR.norm>
0.204199

>  <SCORE.SYSTEM>
0

>  <SCORE.SYSTEM.CONST>
0

>  <SCORE.SYSTEM.DIHEDRAL>
0

>  <SCORE.SYSTEM.SOLV>
0

>  <SCORE.SYSTEM.norm>
0

>  <SCORE.heavy>
42

>  <SCORE.norm>
-0.00360636

>  <RMSD>
18.776

$$$$
ligand
 OpenBabel02271912133D
libRbt.so/2013.1/901 2013/11/27
 42 45  0  0  0  0  0  0  0  0999 V2000
   12.3710   11.7996   -6.1135 C   0  0  2  0  0  0  0  0  0  0  0  0
   12.8752   11.3335   -7.3767 O   0  0  0  0  0  0  0  0  0  0  0  0
   10.9446    8.6751  -10.2055 C   0  0  2  0  0  0  0  0  0  0  0  0
   10.0385    8.1251  -11.2575 N   0  0  0  0  0  0  0  0  0  0  0  0
   12.6674   12.4768  -11.3384 C   0  0  1  0  0  0  0  0  0  0  0  0
   12.0628   15.8982  -13.8600 C   0  0  1  0  0  0  0  0  0  0  0  0
   12.6225   13.3365   -6.0622 C   0  0  2  0  0  0  0  0  0  0  0  0
   12.1483   14.0262   -7.2747 N   0  0  0  0  0  0  0  0  0  0  0  0
   10.1377    9.0773   -8.9059 C   0  0  0  0  0  0  0  0  0  0  0  0
   13.2069   13.9282  -11.5202 C   0  0  2  0  0  0  0  0  0  0  0  0
   12.3572   14.9495  -10.9423 O   0  0  0  0  0  0  0  0  0  0  0  0
   10.8423   16.3688  -14.7305 C   0  0  2  0  0  0  0  0  0  0  0  0
   10.8611   15.7147  -16.0731 N   0  0  0  0  0  0  0  0  0  0  0  0
   14.1159   13.6795   -5.9108 C   0  0  1  0  0  0  0  0  0  0  0  0
   14.2954   15.0944   -5.8283 O   0  0  0  0  0  0  0  0  0  0  0  0
   11.1470    9.6276   -7.8284 C   0  0  2  0  0  0  0  0  0  0  0  0
   10.4222   10.0029   -6.5845 N   0  0  0  0  0  0  0  0  0  0  0  0
   13.3808   13.9925  -13.0384 C   0  0  2  0  0  0  0  0  0  0  0  0
   12.1688   14.4782  -13.6986 O   0  0  0  0  0  0  0  0  0  0  0  0
   10.8746   17.9648  -14.8673 C   0  0  1  0  0  0  0  0  0  0  0  0
   10.4766   18.5498  -13.6070 O   0  0  0  0  0  0  0  0  0  0  0  0
   14.6853   12.9647   -4.6642 C   0  0  2  0  0  0  0  0  0  0  0  0
   16.0482   13.2820   -4.5019 O   0  0  0  0  0  0  0  0  0  0  0  0
   11.9276   10.8828   -8.3863 C   0  0  2  0  0  0  0  0  0  0  0  0
   13.7247   12.5622  -13.4872 C   0  0  2  0  0  0  0  0  0  0  0  0
   13.0402   11.7531  -12.5336 O   0  0  0  0  0  0  0  0  0  0  0  0
   12.3165   18.5241  -15.2863 C   0  0  2  0  0  0  0  0  0  0  0  0
   12.5574   18.1267  -16.6355 O   0  0  0  0  0  0  0  0  0  0  0  0
   14.4928   11.4202   -4.8289 C   0  0  2  0  0  0  0  0  0  0  0  0
   13.0726   11.1176   -5.0051 O   0  0  0  0  0  0  0  0  0  0  0  0
   12.6964   10.5786   -9.6908 C   0  0  2  0  0  0  0  0  0  0  0  0
   13.1908   11.8661  -10.1517 O   0  0  0  0  0  0  0  0  0  0  0  0
   15.2488   12.2296  -13.5146 C   0  0  0  0  0  0  0  0  0  0  0  0
   15.4439   10.8825  -13.0949 O   0  0  0  0  0  0  0  0  0  0  0  0
   13.4342   17.9445  -14.3393 C   0  0  1  0  0  0  0  0  0  0  0  0
   13.3358   16.4780  -14.4399 O   0  0  0  0  0  0  0  0  0  0  0  0
   15.0183   10.6394   -3.6465 C   0  0  0  0  0  0  0  0  0  0  0  0
   16.4140   10.7870   -3.5496 O   0  0  0  0  0  0  0  0  0  0  0  0
   11.7230    9.9332  -10.7639 C   0  0  1  0  0  0  0  0  0  0  0  0
   12.4641    9.5135  -11.9129 O   0  0  0  0  0  0  0  0  0  0  0  0
   14.9057   18.4230  -14.7058 C   0  0  0  0  0  0  0  0  0  0  0  0
   15.3915   18.0288  -16.0568 N   0  0  0  0  0  0  0  0  0  0  0  0
  1  2  1  6  0  0  0
  1  7  1  0  0  0  0
  1 30  1  0  0  0  0
  3  4  1  6  0  0  0
  3  9  1  0  0  0  0
  3 39  1  0  0  0  0
  5 10  1  0  0  0  0
  5 26  1  0  0  0  0
  5 32  1  1  0  0  0
  6 12  1  0  0  0  0
  6 36  1  0  0  0  0
  6 19  1  6  0  0  0
  7  8  1  6  0  0  0
  7 14  1  0  0  0  0
  9 16  1  0  0  0  0
 10 11  1  6  0  0  0
 10 18  1  0  0  0  0
 12 13  1  6  0  0  0
 12 20  1  0  0  0  0
 14 15  1  1  0  0  0
 14 22  1  0  0  0  0
 16 17  1  1  0  0  0
 16 24  1  0  0  0  0
 18 19  1  6  0  0  0
 18 25  1  0  0  0  0
 20 21  1  1  0  0  0
 20 27  1  0  0  0  0
 22 23  1  6  0  0  0
 22 29  1  0  0  0  0
 24  2  1  1  0  0  0
 24 31  1  0  0  0  0
 25 26  1  0  0  0  0
 25 33  1  1  0  0  0
 27 28  1  6  0  0  0
 27 35  1  0  0  0  0
 29 30  1  0  0  0  0
 29 37  1  1  0  0  0
 31 32  1  6  0  0  0
 31 39  1  0  0  0  0
 33 34  1  0  0  0  0
 35 36  1  0  0  0  0
 35 41  1  6  0  0  0
 37 38  1  0  0  0  0
 39 40  1  6  0  0  0
 41 42  1  0  0  0  0
M  END
>  <CHROM.1>
-110.43028049,-62.64067783,88.81947160,172.61062680,143.15177325,-65.05686765
-111.13596796,172.19253287,-61.57158152,12.91836976,13.27020396,-10.42662247
-1.38759500,-1.13960806,-0.84369615

>  <Name>
ligand

>  <RI>
0

>  <Rbt.Current_Directory>
/home/itssahil/PROJECTS/Mol_Feturizer/Test_systems_manuscript/rnas/2o3w

>  <Rbt.Executable>
rbdock ($Id: //depot/dev/client3/rdock/2013.1/src/exe/rbdock.cxx#4 $)

>  <Rbt.Library>
libRbt.so (2013.1, Build901 2013/11/27)

>  <Rbt.Parameter_File>
/export/apps/rDock/src/rDock_2013.1_src/data/scripts/dock_solv.prm

>  <Rbt.Receptor>
prm/blind_docking_100.prm

>  <SCORE>
30.2898

>  <SCORE.INTER>
21.1092

>  <SCORE.INTER.CONST>
1

>  <SCORE.INTER.POLAR>
0

>  <SCORE.INTER.ROT>
9

>  <SCORE.INTER.SOLV>
34.5532

>  <SCORE.INTER.VDW>
-7.04494

>  <SCORE.INTER.norm>
0.502599

>  <SCORE.INTRA>
1.68786

>  <SCORE.INTRA.DIHEDRAL>
-6.57581

>  <SCORE.INTRA.DIHEDRAL.0>
27.8999

>  <SCORE.INTRA.POLAR>
0

>  <SCORE.INTRA.POLAR.0>
0

>  <SCORE.INTRA.REPUL>
0

>  <SCORE.INTRA.REPUL.0>
0

>  <SCORE.INTRA.SOLV>
-0.523901

>  <SCORE.INTRA.SOLV.lig_0>
-104.479

>  <SCORE.INTRA.VDW>
5.23771

>  <SCORE.INTRA.VDW.0>
-6.17816

>  <SCORE.INTRA.norm>
0.040187

>  <SCORE.RESTR>
7.49273

>  <SCORE.RESTR.CAVITY>
7.49273

>  <SCORE.RESTR.norm>
0.178398

>  <SCORE.SYSTEM>
0

>  <SCORE.SYSTEM.CONST>
0

>  <SCORE.SYSTEM.DIHEDRAL>
0

>  <SCORE.SYSTEM.SOLV>
0

>  <SCORE.SYSTEM.norm>
0

>  <SCORE.heavy>
42

>  <SCORE.norm>
0.721185

>  <RMSD>
18.804

$$$$
ligand
 OpenBabel02271912133D
libRbt.so/2013.1/901 2013/11/27
 42 45  0  0  0  0  0  0  0  0999 V2000
   11.7560   14.2396  -13.0015 C   0  0  2  0  0  0  0  0  0  0  0  0
   12.5971   13.9816  -11.8642 O   0  0  0  0  0  0  0  0  0  0  0  0
   12.1749    9.6752  -11.5948 C   0  0  2  0  0  0  0  0  0  0  0  0
   12.1055    8.2778  -11.0722 N   0  0  0  0  0  0  0  0  0  0  0  0
   10.6651   13.0741   -9.0888 C   0  0  1  0  0  0  0  0  0  0  0  0
   12.4153   12.9252   -6.6272 C   0  0  1  0  0  0  0  0  0  0  0  0
   12.2686   15.5571  -13.6569 C   0  0  2  0  0  0  0  0  0  0  0  0
   13.7245   15.5453  -13.8823 N   0  0  0  0  0  0  0  0  0  0  0  0
   13.6231   10.2847  -11.4128 C   0  0  0  0  0  0  0  0  0  0  0  0
   11.6433   14.2629   -8.8424 C   0  0  2  0  0  0  0  0  0  0  0  0
   13.0423   13.8867   -8.8524 O   0  0  0  0  0  0  0  0  0  0  0  0
   11.4377   11.7470   -6.9811 C   0  0  2  0  0  0  0  0  0  0  0  0
   10.4075   11.5700   -5.9142 N   0  0  0  0  0  0  0  0  0  0  0  0
   11.9619   16.7960  -12.7956 C   0  0  1  0  0  0  0  0  0  0  0  0
   12.4129   17.9821  -13.4519 O   0  0  0  0  0  0  0  0  0  0  0  0
   13.6391   11.7463  -12.0011 C   0  0  2  0  0  0  0  0  0  0  0  0
   14.9932   12.3463  -11.8594 N   0  0  0  0  0  0  0  0  0  0  0  0
   11.1148   14.8124   -7.5165 C   0  0  2  0  0  0  0  0  0  0  0  0
   11.7708   14.1794   -6.3720 O   0  0  0  0  0  0  0  0  0  0  0  0
   12.2841   10.4032   -7.1925 C   0  0  1  0  0  0  0  0  0  0  0  0
   12.9847   10.4860   -8.4540 O   0  0  0  0  0  0  0  0  0  0  0  0
   10.4459   16.8562  -12.5001 C   0  0  2  0  0  0  0  0  0  0  0  0
   10.1462   17.9944  -11.7261 O   0  0  0  0  0  0  0  0  0  0  0  0
   12.5771   12.6548  -11.2645 C   0  0  2  0  0  0  0  0  0  0  0  0
    9.6019   14.5353   -7.5150 C   0  0  2  0  0  0  0  0  0  0  0  0
    9.4939   13.3392   -8.2832 O   0  0  0  0  0  0  0  0  0  0  0  0
   13.3348   10.1376   -6.0123 C   0  0  2  0  0  0  0  0  0  0  0  0
   12.5912    9.8133   -4.8383 O   0  0  0  0  0  0  0  0  0  0  0  0
   10.0196   15.5499  -11.7507 C   0  0  2  0  0  0  0  0  0  0  0  0
   10.3495   14.3833  -12.5693 O   0  0  0  0  0  0  0  0  0  0  0  0
   11.1423   12.0901  -11.3521 C   0  0  2  0  0  0  0  0  0  0  0  0
   10.3446   12.9365  -10.4793 O   0  0  0  0  0  0  0  0  0  0  0  0
    8.7238   15.6733   -8.1216 C   0  0  0  0  0  0  0  0  0  0  0  0
    8.8073   16.8263   -7.2895 O   0  0  0  0  0  0  0  0  0  0  0  0
   14.2222   11.4148   -5.7603 C   0  0  1  0  0  0  0  0  0  0  0  0
   13.2853   12.5111   -5.4591 O   0  0  0  0  0  0  0  0  0  0  0  0
    8.5439   15.5208  -11.4264 C   0  0  0  0  0  0  0  0  0  0  0  0
    8.1569   16.7296  -10.8195 O   0  0  0  0  0  0  0  0  0  0  0  0
   11.1137   10.5843  -10.8546 C   0  0  1  0  0  0  0  0  0  0  0  0
    9.8205   10.0155  -11.0774 O   0  0  0  0  0  0  0  0  0  0  0  0
   15.2736   11.2500   -4.5787 C   0  0  0  0  0  0  0  0  0  0  0  0
   16.4350   12.1807   -4.6181 N   0  0  0  0  0  0  0  0  0  0  0  0
  1  2  1  1  0  0  0
  1  7  1  0  0  0  0
  1 30  1  0  0  0  0
  3  4  1  1  0  0  0
  3  9  1  0  0  0  0
  3 39  1  0  0  0  0
  5 10  1  0  0  0  0
  5 26  1  0  0  0  0
  5 32  1  6  0  0  0
  6 12  1  0  0  0  0
  6 36  1  0  0  0  0
  6 19  1  1  0  0  0
  7  8  1  1  0  0  0
  7 14  1  0  0  0  0
  9 16  1  0  0  0  0
 10 11  1  1  0  0  0
 10 18  1  0  0  0  0
 12 13  1  1  0  0  0
 12 20  1  0  0  0  0
 14 15  1  6  0  0  0
 14 22  1  0  0  0  0
 16 17  1  1  0  0  0
 16 24  1  0  0  0  0
 18 19  1  1  0  0  0
 18 25  1  0  0  0  0
 20 21  1  6  0  0  0
 20 27  1  0  0  0  0
 22 23  1  1  0  0  0
 22 29  1  0  0  0  0
 24  2  1  6  0  0  0
 24 31  1  0  0  0  0
 25 26  1  0  0  0  0
 25 33  1  6  0  0  0
 27 28  1  1  0  0  0
 27 35  1  0  0  0  0
 29 30  1  0  0  0  0
 29 37  1  6  0  0  0
 31 32  1  1  0  0  0
 31 39  1  0  0  0  0
 33 34  1  0  0  0  0
 35 36  1  0  0  0  0
 35 41  1  1  0  0  0
 37 38  1  0  0  0  0
 39 40  1  6  0  0  0
 41 42  1  0  0  0  0
M  END
>  <CHROM.1>
-164.42703545,88.09210771,-19.57297356,-67.33562802,-66.42803290,-49.01742729
-58.40187254,90.39736299,158.42070690,11.71887967,13.29280743,-9.52598182
-2.17766514,-1.02674578,1.72243473

>  <Name>
ligand

>  <RI>
0

>  <Rbt.Current_Directory>
/home/itssahil/PROJECTS/Mol_Feturizer/Test_systems_manuscript/rnas/2o3w

>  <Rbt.Executable>
rbdock ($Id: //depot/dev/client3/rdock/2013.1/src/exe/rbdock.cxx#4 $)

>  <Rbt.Library>
libRbt.so (2013.1, Build901 2013/11/27)

>  <Rbt.Parameter_File>
/export/apps/rDock/src/rDock_2013.1_src/data/scripts/dock_solv.prm

>  <Rbt.Receptor>
prm/blind_docking_40.prm

>  <SCORE>
16.162

>  <SCORE.INTER>
-2.30516

>  <SCORE.INTER.CONST>
1

>  <SCORE.INTER.POLAR>
0

>  <SCORE.INTER.ROT>
9

>  <SCORE.INTER.SOLV>
32.4799

>  <SCORE.INTER.VDW>
-21.9634

>  <SCORE.INTER.norm>
-0.0548849

>  <SCORE.INTRA>
4.59529

>  <SCORE.INTRA.DIHEDRAL>
-11.9219

>  <SCORE.INTRA.DIHEDRAL.0>
27.8999

>  <SCORE.INTRA.POLAR>
0

>  <SCORE.INTRA.POLAR.0>
0

>  <SCORE.INTRA.REPUL>
0

>  <SCORE.INTRA.REPUL.0>
0

>  <SCORE.INTRA.SOLV>
1.49942

>  <SCORE.INTRA.SOLV.lig_0>
-104.479

>  <SCORE.INTRA.VDW>
9.80654

>  <SCORE.INTRA.VDW.0>
-6.17816

>  <SCORE.INTRA.norm>
0.109412

>  <SCORE.RESTR>
13.8719

>  <SCORE.RESTR.CAVITY>
13.8719

>  <SCORE.RESTR.norm>
0.330283

>  <SCORE.SYSTEM>
0

>  <SCORE.SYSTEM.CONST>
0

>  <SCORE.SYSTEM.DIHEDRAL>
0

>  <SCORE.SYSTEM.SOLV>
0

>  <SCORE.SYSTEM.norm>
0

>  <SCORE.heavy>
42

>  <SCORE.norm>
0.38481

>  <RMSD>
18.807

$$$$
ligand
 OpenBabel02271912133D
libRbt.so/2013.1/901 2013/11/27
 42 45  0  0  0  0  0  0  0  0999 V2000
   11.7278   14.4243  -13.0305 C   0  0  2  0  0  0  0  0  0  0  0  0
   12.7898   14.1681  -12.0957 O   0  0  0  0  0  0  0  0  0  0  0  0
   12.2788    9.8859  -11.6506 C   0  0  2  0  0  0  0  0  0  0  0  0
   12.3099    8.4932  -11.1122 N   0  0  0  0  0  0  0  0  0  0  0  0
   11.8637   13.5315   -8.9559 C   0  0  1  0  0  0  0  0  0  0  0  0
   13.6565   13.7708   -5.0228 C   0  0  1  0  0  0  0  0  0  0  0  0
   12.1053   15.7239  -13.8029 C   0  0  2  0  0  0  0  0  0  0  0  0
   13.4786   15.6849  -14.3349 N   0  0  0  0  0  0  0  0  0  0  0  0
   13.7391   10.4273  -11.9265 C   0  0  0  0  0  0  0  0  0  0  0  0
   11.0373   14.0741   -7.7504 C   0  0  2  0  0  0  0  0  0  0  0  0
   10.9252   15.5182   -7.7151 O   0  0  0  0  0  0  0  0  0  0  0  0
   14.7421   14.7608   -4.4657 C   0  0  2  0  0  0  0  0  0  0  0  0
   15.6267   15.2549   -5.5631 N   0  0  0  0  0  0  0  0  0  0  0  0
   12.0070   16.9796  -12.9171 C   0  0  1  0  0  0  0  0  0  0  0  0
   12.3223   18.1488  -13.6749 O   0  0  0  0  0  0  0  0  0  0  0  0
   13.6401   11.8867  -12.5120 C   0  0  2  0  0  0  0  0  0  0  0  0
   14.9983   12.4229  -12.7976 N   0  0  0  0  0  0  0  0  0  0  0  0
   11.7775   13.4383   -6.5727 C   0  0  2  0  0  0  0  0  0  0  0  0
   12.8519   14.3022   -6.0829 O   0  0  0  0  0  0  0  0  0  0  0  0
   15.5948   14.0241   -3.3268 C   0  0  1  0  0  0  0  0  0  0  0  0
   14.7822   13.9065   -2.1374 O   0  0  0  0  0  0  0  0  0  0  0  0
   10.5906   17.0689  -12.3046 C   0  0  2  0  0  0  0  0  0  0  0  0
   10.4790   18.2225  -11.5039 O   0  0  0  0  0  0  0  0  0  0  0  0
   12.8946   12.8435  -11.4999 C   0  0  2  0  0  0  0  0  0  0  0  0
   12.3309   12.1004   -7.0915 C   0  0  2  0  0  0  0  0  0  0  0  0
   12.5680   12.3649   -8.4722 O   0  0  0  0  0  0  0  0  0  0  0  0
   16.1051   12.5722   -3.7730 C   0  0  2  0  0  0  0  0  0  0  0  0
   17.0955   12.7554   -4.7839 O   0  0  0  0  0  0  0  0  0  0  0  0
   10.3178   15.7804  -11.4592 C   0  0  2  0  0  0  0  0  0  0  0  0
   10.4488   14.5973  -12.3094 O   0  0  0  0  0  0  0  0  0  0  0  0
   11.4777   12.3462  -11.1387 C   0  0  2  0  0  0  0  0  0  0  0  0
   11.0224   13.2287  -10.0764 O   0  0  0  0  0  0  0  0  0  0  0  0
   11.3774   10.8789   -6.9096 C   0  0  0  0  0  0  0  0  0  0  0  0
   11.3245   10.5245   -5.5311 O   0  0  0  0  0  0  0  0  0  0  0  0
   14.9101   11.7100   -4.3304 C   0  0  1  0  0  0  0  0  0  0  0  0
   14.3323   12.4827   -5.4437 O   0  0  0  0  0  0  0  0  0  0  0  0
    8.9458   15.7803  -10.8256 C   0  0  0  0  0  0  0  0  0  0  0  0
    7.9555   15.9316  -11.8135 O   0  0  0  0  0  0  0  0  0  0  0  0
   11.5351   10.8433  -10.6352 C   0  0  1  0  0  0  0  0  0  0  0  0
   10.2116   10.3354  -10.4458 O   0  0  0  0  0  0  0  0  0  0  0  0
   15.3344   10.2609   -4.8291 C   0  0  0  0  0  0  0  0  0  0  0  0
   14.3193    9.5398   -5.6453 N   0  0  0  0  0  0  0  0  0  0  0  0
  1  2  1  1  0  0  0
  1  7  1  0  0  0  0
  1 30  1  0  0  0  0
  3  4  1  1  0  0  0
  3  9  1  0  0  0  0
  3 39  1  0  0  0  0
  5 10  1  0  0  0  0
  5 26  1  0  0  0  0
  5 32  1  6  0  0  0
  6 12  1  0  0  0  0
  6 36  1  0  0  0  0
  6 19  1  6  0  0  0
  7  8  1  1  0  0  0
  7 14  1  0  0  0  0
  9 16  1  0  0  0  0
 10 11  1  1  0  0  0
 10 18  1  0  0  0  0
 12 13  1  6  0  0  0
 12 20  1  0  0  0  0
 14 15  1  6  0  0  0
 14 22  1  0  0  0  0
 16 17  1  1  0  0  0
 16 24  1  0  0  0  0
 18 19  1  6  0  0  0
 18 25  1  0  0  0  0
 20 21  1  1  0  0  0
 20 27  1  0  0  0  0
 22 23  1  1  0  0  0
 22 29  1  0  0  0  0
 24  2  1  6  0  0  0
 24 31  1  0  0  0  0
 25 26  1  0  0  0  0
 25 33  1  6  0  0  0
 27 28  1  6  0  0  0
 27 35  1  0  0  0  0
 29 30  1  0  0  0  0
 29 37  1  6  0  0  0
 31 32  1  1  0  0  0
 31 39  1  0  0  0  0
 33 34  1  0  0  0  0
 35 36  1  0  0  0  0
 35 41  1  6  0  0  0
 37 38  1  0  0  0  0
 39 40  1  6  0  0  0
 41 42  1  0  0  0  0
M  END
>  <CHROM.1>
-163.42317145,82.01203637,-176.85307990,-176.46051439,-72.12126309,56.54013708
-47.45372309,-160.83103451,-166.29052271,12.58847950,13.42876745,-8.99116554
-3.09011003,-1.19536810,0.38257512

>  <Name>
ligand

>  <RI>
0

>  <Rbt.Current_Directory>
/home/itssahil/PROJECTS/Mol_Feturizer/Test_systems_manuscript/rnas/2o3w

>  <Rbt.Executable>
rbdock ($Id: //depot/dev/client3/rdock/2013.1/src/exe/rbdock.cxx#4 $)

>  <Rbt.Library>
libRbt.so (2013.1, Build901 2013/11/27)

>  <Rbt.Parameter_File>
/export/apps/rDock/src/rDock_2013.1_src/data/scripts/dock_solv.prm

>  <Rbt.Receptor>
prm/blind_docking_100.prm

>  <SCORE>
-1.38334

>  <SCORE.INTER>
-1.85423

>  <SCORE.INTER.CONST>
1

>  <SCORE.INTER.POLAR>
0

>  <SCORE.INTER.ROT>
9

>  <SCORE.INTER.SOLV>
32.5079

>  <SCORE.INTER.VDW>
-21.6721

>  <SCORE.INTER.norm>
-0.0441484

>  <SCORE.INTRA>
-7.41361

>  <SCORE.INTRA.DIHEDRAL>
-20.6207

>  <SCORE.INTRA.DIHEDRAL.0>
27.8999

>  <SCORE.INTRA.POLAR>
0

>  <SCORE.INTRA.POLAR.0>
0

>  <SCORE.INTRA.REPUL>
0

>  <SCORE.INTRA.REPUL.0>
0

>  <SCORE.INTRA.SOLV>
-1.16458

>  <SCORE.INTRA.SOLV.lig_0>
-104.479

>  <SCORE.INTRA.VDW>
3.47902

>  <SCORE.INTRA.VDW.0>
-6.17816

>  <SCORE.INTRA.norm>
-0.176515

>  <SCORE.RESTR>
7.88451

>  <SCORE.RESTR.CAVITY>
7.88451

>  <SCORE.RESTR.norm>
0.187726

>  <SCORE.SYSTEM>
0

>  <SCORE.SYSTEM.CONST>
0

>  <SCORE.SYSTEM.DIHEDRAL>
0

>  <SCORE.SYSTEM.SOLV>
0

>  <SCORE.SYSTEM.norm>
0

>  <SCORE.heavy>
42

>  <SCORE.norm>
-0.0329366

>  <RMSD>
18.865

$$$$
ligand
 OpenBabel02271912133D
libRbt.so/2013.1/901 2013/11/27
 42 45  0  0  0  0  0  0  0  0999 V2000
   13.8871   12.0066   -8.4304 C   0  0  2  0  0  0  0  0  0  0  0  0
   13.1400   10.7910   -8.6079 O   0  0  0  0  0  0  0  0  0  0  0  0
   12.0271    8.3899  -12.0418 C   0  0  2  0  0  0  0  0  0  0  0  0
   11.5424    7.9637  -13.3886 N   0  0  0  0  0  0  0  0  0  0  0  0
   14.2503   12.2494  -11.6249 C   0  0  1  0  0  0  0  0  0  0  0  0
   12.3864   15.3276  -13.1822 C   0  0  1  0  0  0  0  0  0  0  0  0
   14.2632   12.0932   -6.9207 C   0  0  2  0  0  0  0  0  0  0  0  0
   14.8699   10.8481   -6.4185 N   0  0  0  0  0  0  0  0  0  0  0  0
   10.8631    9.0431  -11.1932 C   0  0  0  0  0  0  0  0  0  0  0  0
   14.0174   12.0312  -13.1510 C   0  0  2  0  0  0  0  0  0  0  0  0
   15.1740   12.3271  -13.9718 O   0  0  0  0  0  0  0  0  0  0  0  0
   10.8439   15.2209  -13.4615 C   0  0  2  0  0  0  0  0  0  0  0  0
   10.5715   15.1423  -14.9280 N   0  0  0  0  0  0  0  0  0  0  0  0
   13.0413   12.3834   -6.0298 C   0  0  1  0  0  0  0  0  0  0  0  0
   13.4381   12.4936   -4.6618 O   0  0  0  0  0  0  0  0  0  0  0  0
   11.4285    9.4502   -9.7799 C   0  0  2  0  0  0  0  0  0  0  0  0
   10.3543   10.0562   -8.9478 N   0  0  0  0  0  0  0  0  0  0  0  0
   12.7906   12.9118  -13.3931 C   0  0  2  0  0  0  0  0  0  0  0  0
   13.1715   14.2764  -13.7586 O   0  0  0  0  0  0  0  0  0  0  0  0
   10.0994   16.4783  -12.8045 C   0  0  1  0  0  0  0  0  0  0  0  0
   10.0694   16.3062  -11.3698 O   0  0  0  0  0  0  0  0  0  0  0  0
   12.3403   13.6710   -6.5195 C   0  0  2  0  0  0  0  0  0  0  0  0
   11.2288   13.9599   -5.7036 O   0  0  0  0  0  0  0  0  0  0  0  0
   12.6226   10.4734   -9.9314 C   0  0  2  0  0  0  0  0  0  0  0  0
   11.9868   12.8898  -12.0821 C   0  0  2  0  0  0  0  0  0  0  0  0
   12.9971   12.7324  -11.0887 O   0  0  0  0  0  0  0  0  0  0  0  0
   10.8015   17.8735  -13.1623 C   0  0  2  0  0  0  0  0  0  0  0  0
   10.5864   18.1205  -14.5512 O   0  0  0  0  0  0  0  0  0  0  0  0
   11.8980   13.4769   -8.0082 C   0  0  2  0  0  0  0  0  0  0  0  0
   13.0666   13.1689   -8.8324 O   0  0  0  0  0  0  0  0  0  0  0  0
   13.7763    9.9233  -10.7985 C   0  0  2  0  0  0  0  0  0  0  0  0
   14.6844   11.0441  -10.9816 O   0  0  0  0  0  0  0  0  0  0  0  0
   10.9204   11.7553  -11.9828 C   0  0  0  0  0  0  0  0  0  0  0  0
   10.1891   11.6889  -13.2033 O   0  0  0  0  0  0  0  0  0  0  0  0
   12.3450   17.8149  -12.8515 C   0  0  1  0  0  0  0  0  0  0  0  0
   12.8775   16.6866  -13.6349 O   0  0  0  0  0  0  0  0  0  0  0  0
   11.2062   14.6959   -8.5730 C   0  0  0  0  0  0  0  0  0  0  0  0
   11.0020   14.5403   -9.9562 O   0  0  0  0  0  0  0  0  0  0  0  0
   13.2201    9.4164  -12.1947 C   0  0  1  0  0  0  0  0  0  0  0  0
   14.2597    8.7705  -12.9348 O   0  0  0  0  0  0  0  0  0  0  0  0
   13.1289   19.1512  -13.2097 C   0  0  0  0  0  0  0  0  0  0  0  0
   12.5669   20.4011  -12.6280 N   0  0  0  0  0  0  0  0  0  0  0  0
  1  2  1  1  0  0  0
  1  7  1  0  0  0  0
  1 30  1  0  0  0  0
  3  4  1  6  0  0  0
  3  9  1  0  0  0  0
  3 39  1  0  0  0  0
  5 10  1  0  0  0  0
  5 26  1  0  0  0  0
  5 32  1  1  0  0  0
  6 12  1  0  0  0  0
  6 36  1  0  0  0  0
  6 19  1  6  0  0  0
  7  8  1  1  0  0  0
  7 14  1  0  0  0  0
  9 16  1  0  0  0  0
 10 11  1  6  0  0  0
 10 18  1  0  0  0  0
 12 13  1  6  0  0  0
 12 20  1  0  0  0  0
 14 15  1  1  0  0  0
 14 22  1  0  0  0  0
 16 17  1  1  0  0  0
 16 24  1  0  0  0  0
 18 19  1  1  0  0  0
 18 25  1  0  0  0  0
 20 21  1  1  0  0  0
 20 27  1  0  0  0  0
 22 23  1  1  0  0  0
 22 29  1  0  0  0  0
 24  2  1  1  0  0  0
 24 31  1  0  0  0  0
 25 26  1  0  0  0  0
 25 33  1  6  0  0  0
 27 28  1  6  0  0  0
 27 35  1  0  0  0  0
 29 30  1  0  0  0  0
 29 37  1  6  0  0  0
 31 32  1  6  0  0  0
 31 39  1  0  0  0  0
 33 34  1  0  0  0  0
 35 36  1  0  0  0  0
 35 41  1  6  0  0  0
 37 38  1  0  0  0  0
 39 40  1  1  0  0  0
 41 42  1  0  0  0  0
M  END
>  <CHROM.1>
178.22199949,-158.73099609,-139.63602600,-55.83679532,-45.41350591,171.67827641
-60.33963871,-70.43562107,52.66928003,12.38318715,13.11610694,-10.97598930
0.15306806,-1.41256702,1.12398823

>  <Name>
ligand

>  <RI>
0

>  <Rbt.Current_Directory>
/home/itssahil/PROJECTS/Mol_Feturizer/Test_systems_manuscript/rnas/2o3w

>  <Rbt.Executable>
rbdock ($Id: //depot/dev/client3/rdock/2013.1/src/exe/rbdock.cxx#4 $)

>  <Rbt.Library>
libRbt.so (2013.1, Build901 2013/11/27)

>  <Rbt.Parameter_File>
/export/apps/rDock/src/rDock_2013.1_src/data/scripts/dock_solv.prm

>  <Rbt.Receptor>
prm/blind_docking_80.prm

>  <SCORE>
30.4519

>  <SCORE.INTER>
14.3771

>  <SCORE.INTER.CONST>
1

>  <SCORE.INTER.POLAR>
0

>  <SCORE.INTER.ROT>
9

>  <SCORE.INTER.SOLV>
29.8035

>  <SCORE.INTER.VDW>
-9.94979

>  <SCORE.INTER.norm>
0.342312

>  <SCORE.INTRA>
2.90313

>  <SCORE.INTRA.DIHEDRAL>
-18.5517

>  <SCORE.INTRA.DIHEDRAL.0>
27.8999

>  <SCORE.INTRA.POLAR>
0

>  <SCORE.INTRA.POLAR.0>
0

>  <SCORE.INTRA.REPUL>
0.441032

>  <SCORE.INTRA.REPUL.0>
0

>  <SCORE.INTRA.SOLV>
1.14552

>  <SCORE.INTRA.SOLV.lig_0>
-104.479

>  <SCORE.INTRA.VDW>
9.40105

>  <SCORE.INTRA.VDW.0>
-6.17816

>  <SCORE.INTRA.norm>
0.0691222

>  <SCORE.RESTR>
13.1717

>  <SCORE.RESTR.CAVITY>
13.1717

>  <SCORE.RESTR.norm>
0.313612

>  <SCORE.SYSTEM>
0

>  <SCORE.SYSTEM.CONST>
0

>  <SCORE.SYSTEM.DIHEDRAL>
0

>  <SCORE.SYSTEM.SOLV>
0

>  <SCORE.SYSTEM.norm>
0

>  <SCORE.heavy>
42

>  <SCORE.norm>
0.725045

>  <RMSD>
18.865

$$$$
ligand
 OpenBabel02271912133D
libRbt.so/2013.1/901 2013/11/27
 42 45  0  0  0  0  0  0  0  0999 V2000
   12.4627   12.5324   -9.5011 C   0  0  2  0  0  0  0  0  0  0  0  0
   11.5474   11.4818   -9.8555 O   0  0  0  0  0  0  0  0  0  0  0  0
   12.9968    8.9478  -13.0609 C   0  0  2  0  0  0  0  0  0  0  0  0
   13.1876    8.3001  -14.3930 N   0  0  0  0  0  0  0  0  0  0  0  0
   11.7029   13.3683  -12.2619 C   0  0  1  0  0  0  0  0  0  0  0  0
    9.3651   16.4130  -11.5965 C   0  0  1  0  0  0  0  0  0  0  0  0
   13.6453   11.8665   -8.7355 C   0  0  2  0  0  0  0  0  0  0  0  0
   14.1969   10.7033   -9.4518 N   0  0  0  0  0  0  0  0  0  0  0  0
   11.5598    8.6422  -12.4747 C   0  0  0  0  0  0  0  0  0  0  0  0
   11.8319   14.9125  -12.0893 C   0  0  2  0  0  0  0  0  0  0  0  0
   11.5042   15.3863  -10.7600 O   0  0  0  0  0  0  0  0  0  0  0  0
    7.8819   16.5096  -11.0870 C   0  0  2  0  0  0  0  0  0  0  0  0
    6.9727   16.9750  -12.1768 N   0  0  0  0  0  0  0  0  0  0  0  0
   13.2317   11.3725   -7.3370 C   0  0  1  0  0  0  0  0  0  0  0  0
   14.3537   10.8065   -6.6575 O   0  0  0  0  0  0  0  0  0  0  0  0
   11.4273    9.3308  -11.0637 C   0  0  2  0  0  0  0  0  0  0  0  0
   10.0897    9.0513  -10.4752 N   0  0  0  0  0  0  0  0  0  0  0  0
   10.9241   15.4138  -13.2135 C   0  0  2  0  0  0  0  0  0  0  0  0
    9.5458   15.5886  -12.7546 O   0  0  0  0  0  0  0  0  0  0  0  0
    7.8194   17.4952   -9.8253 C   0  0  1  0  0  0  0  0  0  0  0  0
    8.3955   16.8262   -8.6810 O   0  0  0  0  0  0  0  0  0  0  0  0
   12.6194   12.5444   -6.5364 C   0  0  2  0  0  0  0  0  0  0  0  0
   12.2508   12.1124   -5.2472 O   0  0  0  0  0  0  0  0  0  0  0  0
   11.6380   10.8919  -11.1838 C   0  0  2  0  0  0  0  0  0  0  0  0
   11.0102   14.3601  -14.3305 C   0  0  2  0  0  0  0  0  0  0  0  0
   11.2357   13.1491  -13.6127 O   0  0  0  0  0  0  0  0  0  0  0  0
    8.5857   18.8794  -10.0788 C   0  0  2  0  0  0  0  0  0  0  0  0
    7.8351   19.6172  -11.0425 O   0  0  0  0  0  0  0  0  0  0  0  0
   11.3768   13.0975   -7.3107 C   0  0  2  0  0  0  0  0  0  0  0  0
   11.7829   13.5302   -8.6477 O   0  0  0  0  0  0  0  0  0  0  0  0
   13.0024   11.2661  -11.8031 C   0  0  2  0  0  0  0  0  0  0  0  0
   12.9478   12.7049  -12.0065 O   0  0  0  0  0  0  0  0  0  0  0  0
   12.1354   14.6067  -15.3827 C   0  0  0  0  0  0  0  0  0  0  0  0
   13.3512   14.9151  -14.7078 O   0  0  0  0  0  0  0  0  0  0  0  0
   10.0459   18.6174  -10.6092 C   0  0  1  0  0  0  0  0  0  0  0  0
    9.8981   17.8105  -11.8329 O   0  0  0  0  0  0  0  0  0  0  0  0
   10.7166   14.2558   -6.5992 C   0  0  0  0  0  0  0  0  0  0  0  0
   11.4359   15.4420   -6.8330 O   0  0  0  0  0  0  0  0  0  0  0  0
   13.2048   10.5106  -13.1829 C   0  0  1  0  0  0  0  0  0  0  0  0
   14.5263   10.7376  -13.6806 O   0  0  0  0  0  0  0  0  0  0  0  0
   10.8693   19.9417  -10.9203 C   0  0  0  0  0  0  0  0  0  0  0  0
   11.3835   20.6729   -9.7296 N   0  0  0  0  0  0  0  0  0  0  0  0
  1  2  1  1  0  0  0
  1  7  1  0  0  0  0
  1 30  1  0  0  0  0
  3  4  1  6  0  0  0
  3  9  1  0  0  0  0
  3 39  1  0  0  0  0
  5 10  1  0  0  0  0
  5 26  1  0  0  0  0
  5 32  1  6  0  0  0
  6 12  1  0  0  0  0
  6 36  1  0  0  0  0
  6 19  1  6  0  0  0
  7  8  1  6  0  0  0
  7 14  1  0  0  0  0
  9 16  1  0  0  0  0
 10 11  1  1  0  0  0
 10 18  1  0  0  0  0
 12 13  1  6  0  0  0
 12 20  1  0  0  0  0
 14 15  1  1  0  0  0
 14 22  1  0  0  0  0
 16 17  1  6  0  0  0
 16 24  1  0  0  0  0
 18 19  1  1  0  0  0
 18 25  1  0  0  0  0
 20 21  1  1  0  0  0
 20 27  1  0  0  0  0
 22 23  1  1  0  0  0
 22 29  1  0  0  0  0
 24  2  1  1  0  0  0
 24 31  1  0  0  0  0
 25 26  1  0  0  0  0
 25 33  1  6  0  0  0
 27 28  1  6  0  0  0
 27 35  1  0  0  0  0
 29 30  1  0  0  0  0
 29 37  1  1  0  0  0
 31 32  1  6  0  0  0
 31 39  1  0  0  0  0
 33 34  1  0  0  0  0
 35 36  1  0  0  0  0
 35 41  1  6  0  0  0
 37 38  1  0  0  0  0
 39 40  1  1  0  0  0
 41 42  1  0  0  0  0
M  END
>  <CHROM.1>
-95.97481564,139.71800344,53.81770853,-176.68234841,46.96498746,79.47016435
-29.59323068,165.64769163,75.48641270,11.35232946,13.87610809,-10.76404596
-0.08850959,-1.14257696,1.50302094

>  <Name>
ligand

>  <RI>
0

>  <Rbt.Current_Directory>
/home/itssahil/PROJECTS/Mol_Feturizer/Test_systems_manuscript/rnas/2o3w

>  <Rbt.Executable>
rbdock ($Id: //depot/dev/client3/rdock/2013.1/src/exe/rbdock.cxx#4 $)

>  <Rbt.Library>
libRbt.so (2013.1, Build901 2013/11/27)

>  <Rbt.Parameter_File>
/export/apps/rDock/src/rDock_2013.1_src/data/scripts/dock_solv.prm

>  <Rbt.Receptor>
prm/blind_docking_60.prm

>  <SCORE>
21.6262

>  <SCORE.INTER>
2.22315

>  <SCORE.INTER.CONST>
1

>  <SCORE.INTER.POLAR>
0

>  <SCORE.INTER.ROT>
9

>  <SCORE.INTER.SOLV>
25.5945

>  <SCORE.INTER.VDW>
-16.6494

>  <SCORE.INTER.norm>
0.0529322

>  <SCORE.INTRA>
3.74193

>  <SCORE.INTRA.DIHEDRAL>
-10.0815

>  <SCORE.INTRA.DIHEDRAL.0>
27.8999

>  <SCORE.INTRA.POLAR>
0

>  <SCORE.INTRA.POLAR.0>
0

>  <SCORE.INTRA.REPUL>
0

>  <SCORE.INTRA.REPUL.0>
0

>  <SCORE.INTRA.SOLV>
-0.992688

>  <SCORE.INTRA.SOLV.lig_0>
-104.479

>  <SCORE.INTRA.VDW>
9.27903

>  <SCORE.INTRA.VDW.0>
-6.17816

>  <SCORE.INTRA.norm>
0.0890935

>  <SCORE.RESTR>
15.6611

>  <SCORE.RESTR.CAVITY>
15.6611

>  <SCORE.RESTR.norm>
0.372884

>  <SCORE.SYSTEM>
0

>  <SCORE.SYSTEM.CONST>
0

>  <SCORE.SYSTEM.DIHEDRAL>
0

>  <SCORE.SYSTEM.SOLV>
0

>  <SCORE.SYSTEM.norm>
0

>  <SCORE.heavy>
42

>  <SCORE.norm>
0.51491

>  <RMSD>
18.871

$$$$
ligand
 OpenBabel02271912133D
libRbt.so/2013.1/901 2013/11/27
 42 45  0  0  0  0  0  0  0  0999 V2000
   11.9810   11.3873  -12.1044 C   0  0  2  0  0  0  0  0  0  0  0  0
   11.6681   11.0027  -10.7547 O   0  0  0  0  0  0  0  0  0  0  0  0
   12.0463   13.0265   -6.9393 C   0  0  2  0  0  0  0  0  0  0  0  0
   12.5910   13.7858   -5.7744 N   0  0  0  0  0  0  0  0  0  0  0  0
   11.2006   14.8148  -11.3486 C   0  0  1  0  0  0  0  0  0  0  0  0
    9.7300   17.3074  -11.9850 C   0  0  1  0  0  0  0  0  0  0  0  0
   11.8879   10.0999  -12.9775 C   0  0  2  0  0  0  0  0  0  0  0  0
   10.6324    9.3605  -12.7596 N   0  0  0  0  0  0  0  0  0  0  0  0
   12.7757   11.6332   -7.1080 C   0  0  0  0  0  0  0  0  0  0  0  0
   11.8282   15.4062  -12.6475 C   0  0  2  0  0  0  0  0  0  0  0  0
   12.6222   16.5981  -12.4286 O   0  0  0  0  0  0  0  0  0  0  0  0
    8.4269   16.6889  -11.3618 C   0  0  2  0  0  0  0  0  0  0  0  0
    7.2343   16.9939  -12.2078 N   0  0  0  0  0  0  0  0  0  0  0  0
   13.0382    9.1167  -12.6932 C   0  0  1  0  0  0  0  0  0  0  0  0
   12.9354    7.9721  -13.5419 O   0  0  0  0  0  0  0  0  0  0  0  0
   12.1446   10.8720   -8.3347 C   0  0  2  0  0  0  0  0  0  0  0  0
   12.7986    9.5477   -8.5141 N   0  0  0  0  0  0  0  0  0  0  0  0
   10.5860   15.5892  -13.5209 C   0  0  2  0  0  0  0  0  0  0  0  0
    9.9900   16.9129  -13.3379 O   0  0  0  0  0  0  0  0  0  0  0  0
    8.2351   17.2496   -9.8733 C   0  0  1  0  0  0  0  0  0  0  0  0
    9.2061   16.6193   -9.0079 O   0  0  0  0  0  0  0  0  0  0  0  0
   14.3920    9.8387  -12.8810 C   0  0  2  0  0  0  0  0  0  0  0  0
   15.4559    8.9473  -12.6406 O   0  0  0  0  0  0  0  0  0  0  0  0
   12.2983   11.7226   -9.6570 C   0  0  2  0  0  0  0  0  0  0  0  0
    9.6086   14.4761  -13.1074 C   0  0  2  0  0  0  0  0  0  0  0  0
    9.9133   14.2769  -11.7290 O   0  0  0  0  0  0  0  0  0  0  0  0
    8.3909   18.8418   -9.7835 C   0  0  2  0  0  0  0  0  0  0  0  0
    7.2672   19.4227  -10.4439 O   0  0  0  0  0  0  0  0  0  0  0  0
   14.4603   11.0581  -11.9022 C   0  0  2  0  0  0  0  0  0  0  0  0
   13.3413   11.9630  -12.1649 O   0  0  0  0  0  0  0  0  0  0  0  0
   11.6566   13.1231   -9.5462 C   0  0  2  0  0  0  0  0  0  0  0  0
   12.0492   13.8203  -10.7604 O   0  0  0  0  0  0  0  0  0  0  0  0
    9.7480   13.1460  -13.9109 C   0  0  0  0  0  0  0  0  0  0  0  0
    9.5319   13.4072  -15.2943 O   0  0  0  0  0  0  0  0  0  0  0  0
    9.7291   19.3091  -10.4713 C   0  0  1  0  0  0  0  0  0  0  0  0
    9.6705   18.8152  -11.8580 O   0  0  0  0  0  0  0  0  0  0  0  0
   15.7543   11.8292  -12.0234 C   0  0  0  0  0  0  0  0  0  0  0  0
   16.8470   10.9432  -12.0404 O   0  0  0  0  0  0  0  0  0  0  0  0
   12.2036   13.8776   -8.2628 C   0  0  1  0  0  0  0  0  0  0  0  0
   11.4995   15.1085   -8.0765 O   0  0  0  0  0  0  0  0  0  0  0  0
    9.9488   20.8839  -10.4576 C   0  0  0  0  0  0  0  0  0  0  0  0
    9.0237   21.6689  -11.3205 N   0  0  0  0  0  0  0  0  0  0  0  0
  1  2  1  1  0  0  0
  1  7  1  0  0  0  0
  1 30  1  0  0  0  0
  3  4  1  1  0  0  0
  3  9  1  0  0  0  0
  3 39  1  0  0  0  0
  5 10  1  0  0  0  0
  5 26  1  0  0  0  0
  5 32  1  6  0  0  0
  6 12  1  0  0  0  0
  6 36  1  0  0  0  0
  6 19  1  6  0  0  0
  7  8  1  1  0  0  0
  7 14  1  0  0  0  0
  9 16  1  0  0  0  0
 10 11  1  1  0  0  0
 10 18  1  0  0  0  0
 12 13  1  6  0  0  0
 12 20  1  0  0  0  0
 14 15  1  6  0  0  0
 14 22  1  0  0  0  0
 16 17  1  6  0  0  0
 16 24  1  0  0  0  0
 18 19  1  1  0  0  0
 18 25  1  0  0  0  0
 20 21  1  1  0  0  0
 20 27  1  0  0  0  0
 22 23  1  1  0  0  0
 22 29  1  0  0  0  0
 24  2  1  6  0  0  0
 24 31  1  0  0  0  0
 25 26  1  0  0  0  0
 25 33  1  6  0  0  0
 27 28  1  6  0  0  0
 27 35  1  0  0  0  0
 29 30  1  0  0  0  0
 29 37  1  6  0  0  0
 31 32  1  6  0  0  0
 31 39  1  0  0  0  0
 33 34  1  0  0  0  0
 35 36  1  0  0  0  0
 35 41  1  6  0  0  0
 37 38  1  0  0  0  0
 39 40  1  1  0  0  0
 41 42  1  0  0  0  0
M  END
>  <CHROM.1>
148.67129229,-163.51477463,-51.38152976,-79.23391593,-59.31025924,-46.44958110
149.18950605,-179.35237888,-69.09337637,11.35517379,14.01392046,-11.16312130
0.36230132,1.03619958,-1.91851001

>  <Name>
ligand

>  <RI>
0

>  <Rbt.Current_Directory>
/home/itssahil/PROJECTS/Mol_Feturizer/Test_systems_manuscript/rnas/2o3w

>  <Rbt.Executable>
rbdock ($Id: //depot/dev/client3/rdock/2013.1/src/exe/rbdock.cxx#4 $)

>  <Rbt.Library>
libRbt.so (2013.1, Build901 2013/11/27)

>  <Rbt.Parameter_File>
/export/apps/rDock/src/rDock_2013.1_src/data/scripts/dock_solv.prm

>  <Rbt.Receptor>
prm/blind_docking_80.prm

>  <SCORE>
19.8932

>  <SCORE.INTER>
8.82326

>  <SCORE.INTER.CONST>
1

>  <SCORE.INTER.POLAR>
0

>  <SCORE.INTER.ROT>
9

>  <SCORE.INTER.SOLV>
27.7416

>  <SCORE.INTER.VDW>
-12.965

>  <SCORE.INTER.norm>
0.210078

>  <SCORE.INTRA>
-2.26811

>  <SCORE.INTRA.DIHEDRAL>
-15.9558

>  <SCORE.INTRA.DIHEDRAL.0>
27.8999

>  <SCORE.INTRA.POLAR>
0

>  <SCORE.INTRA.POLAR.0>
0

>  <SCORE.INTRA.REPUL>
0.757879

>  <SCORE.INTRA.REPUL.0>
0

>  <SCORE.INTRA.SOLV>
-1.08079

>  <SCORE.INTRA.SOLV.lig_0>
-104.479

>  <SCORE.INTRA.VDW>
2.46079

>  <SCORE.INTRA.VDW.0>
-6.17816

>  <SCORE.INTRA.norm>
-0.0540027

>  <SCORE.RESTR>
13.3381

>  <SCORE.RESTR.CAVITY>
13.3381

>  <SCORE.RESTR.norm>
0.317573

>  <SCORE.SYSTEM>
0

>  <SCORE.SYSTEM.CONST>
0

>  <SCORE.SYSTEM.DIHEDRAL>
0

>  <SCORE.SYSTEM.SOLV>
0

>  <SCORE.SYSTEM.norm>
0

>  <SCORE.heavy>
42

>  <SCORE.norm>
0.473648

>  <RMSD>
18.872

$$$$
ligand
 OpenBabel02271912133D
libRbt.so/2013.1/901 2013/11/27
 42 45  0  0  0  0  0  0  0  0999 V2000
   12.3098   10.6971  -12.6767 C   0  0  2  0  0  0  0  0  0  0  0  0
   11.7732   10.5558  -11.3503 O   0  0  0  0  0  0  0  0  0  0  0  0
   12.5036   12.1010   -7.3660 C   0  0  2  0  0  0  0  0  0  0  0  0
   13.1558   12.7129   -6.1699 N   0  0  0  0  0  0  0  0  0  0  0  0
   11.1485   14.0991  -11.7019 C   0  0  1  0  0  0  0  0  0  0  0  0
    8.4582   17.6038  -12.2103 C   0  0  1  0  0  0  0  0  0  0  0  0
   12.5824    9.2597  -13.2129 C   0  0  2  0  0  0  0  0  0  0  0  0
   11.4232    8.3660  -13.0449 N   0  0  0  0  0  0  0  0  0  0  0  0
   13.2001   10.7381   -7.7651 C   0  0  0  0  0  0  0  0  0  0  0  0
   10.8593   15.4422  -10.9649 C   0  0  2  0  0  0  0  0  0  0  0  0
    9.8037   15.3565   -9.9763 O   0  0  0  0  0  0  0  0  0  0  0  0
    8.8692   18.2952  -10.8606 C   0  0  2  0  0  0  0  0  0  0  0  0
    8.7321   17.3489   -9.7131 N   0  0  0  0  0  0  0  0  0  0  0  0
   13.7701    8.5860  -12.5011 C   0  0  1  0  0  0  0  0  0  0  0  0
   14.0084    7.2889  -13.0504 O   0  0  0  0  0  0  0  0  0  0  0  0
   12.4564   10.1318   -9.0148 C   0  0  2  0  0  0  0  0  0  0  0  0
   13.0777    8.8389   -9.4096 N   0  0  0  0  0  0  0  0  0  0  0  0
   10.5871   16.3760  -12.1452 C   0  0  2  0  0  0  0  0  0  0  0  0
    9.1680   16.3934  -12.5013 O   0  0  0  0  0  0  0  0  0  0  0  0
    7.9684   19.6016  -10.6400 C   0  0  1  0  0  0  0  0  0  0  0  0
    8.4097   20.6328  -11.5515 O   0  0  0  0  0  0  0  0  0  0  0  0
   15.0203    9.4872  -12.6189 C   0  0  2  0  0  0  0  0  0  0  0  0
   16.1211    8.8767  -11.9865 O   0  0  0  0  0  0  0  0  0  0  0  0
   12.5042   11.1367  -10.2329 C   0  0  2  0  0  0  0  0  0  0  0  0
   11.4470   15.8524  -13.3079 C   0  0  2  0  0  0  0  0  0  0  0  0
   11.5034   14.4498  -13.0592 O   0  0  0  0  0  0  0  0  0  0  0  0
    6.4057   19.3242  -10.8606 C   0  0  2  0  0  0  0  0  0  0  0  0
    5.9592   18.4968   -9.7871 O   0  0  0  0  0  0  0  0  0  0  0  0
   14.7106   10.8773  -11.9697 C   0  0  2  0  0  0  0  0  0  0  0  0
   13.5595   11.4860  -12.6363 O   0  0  0  0  0  0  0  0  0  0  0  0
   11.8901   12.5136   -9.8978 C   0  0  2  0  0  0  0  0  0  0  0  0
   12.1835   13.3530  -11.0484 O   0  0  0  0  0  0  0  0  0  0  0  0
   12.8792   16.4650  -13.3951 C   0  0  0  0  0  0  0  0  0  0  0  0
   12.7786   17.8596  -13.6669 O   0  0  0  0  0  0  0  0  0  0  0  0
    6.1581   18.6069  -12.2413 C   0  0  1  0  0  0  0  0  0  0  0  0
    6.9617   17.3726  -12.2111 O   0  0  0  0  0  0  0  0  0  0  0  0
   15.8822   11.8288  -12.0464 C   0  0  0  0  0  0  0  0  0  0  0  0
   16.1809   12.1230  -13.3893 O   0  0  0  0  0  0  0  0  0  0  0  0
   12.5548   13.1064   -8.5854 C   0  0  1  0  0  0  0  0  0  0  0  0
   11.8833   14.3059   -8.1908 O   0  0  0  0  0  0  0  0  0  0  0  0
    4.6323   18.2624  -12.5276 C   0  0  0  0  0  0  0  0  0  0  0  0
    4.0674   17.1381  -11.7318 N   0  0  0  0  0  0  0  0  0  0  0  0
  1  2  1  1  0  0  0
  1  7  1  0  0  0  0
  1 30  1  0  0  0  0
  3  4  1  1  0  0  0
  3  9  1  0  0  0  0
  3 39  1  0  0  0  0
  5 10  1  0  0  0  0
  5 26  1  0  0  0  0
  5 32  1  1  0  0  0
  6 12  1  0  0  0  0
  6 36  1  0  0  0  0
  6 19  1  1  0  0  0
  7  8  1  1  0  0  0
  7 14  1  0  0  0  0
  9 16  1  0  0  0  0
 10 11  1  1  0  0  0
 10 18  1  0  0  0  0
 12 13  1  1  0  0  0
 12 20  1  0  0  0  0
 14 15  1  6  0  0  0
 14 22  1  0  0  0  0
 16 17  1  6  0  0  0
 16 24  1  0  0  0  0
 18 19  1  6  0  0  0
 18 25  1  0  0  0  0
 20 21  1  6  0  0  0
 20 27  1  0  0  0  0
 22 23  1  1  0  0  0
 22 29  1  0  0  0  0
 24  2  1  6  0  0  0
 24 31  1  0  0  0  0
 25 26  1  0  0  0  0
 25 33  1  1  0  0  0
 27 28  1  1  0  0  0
 27 35  1  0  0  0  0
 29 30  1  0  0  0  0
 29 37  1  6  0  0  0
 31 32  1  6  0  0  0
 31 39  1  0  0  0  0
 33 34  1  0  0  0  0
 35 36  1  0  0  0  0
 35 41  1  1  0  0  0
 37 38  1  0  0  0  0
 39 40  1  1  0  0  0
 41 42  1  0  0  0  0
M  END
>  <CHROM.1>
118.78695427,-139.38508458,109.96728576,-38.19838534,-64.53847703,63.63067298
128.68231449,82.55878467,-73.01853485,11.19273872,13.90430329,-11.29110895
-0.34499746,0.85658876,-1.12701793

>  <Name>
ligand

>  <RI>
0

>  <Rbt.Current_Directory>
/home/itssahil/PROJECTS/Mol_Feturizer/Test_systems_manuscript/rnas/2o3w

>  <Rbt.Executable>
rbdock ($Id: //depot/dev/client3/rdock/2013.1/src/exe/rbdock.cxx#4 $)

>  <Rbt.Library>
libRbt.so (2013.1, Build901 2013/11/27)

>  <Rbt.Parameter_File>
/export/apps/rDock/src/rDock_2013.1_src/data/scripts/dock_solv.prm

>  <Rbt.Receptor>
prm/blind_docking_80.prm

>  <SCORE>
24.5215

>  <SCORE.INTER>
6.47476

>  <SCORE.INTER.CONST>
1

>  <SCORE.INTER.POLAR>
0

>  <SCORE.INTER.ROT>
9

>  <SCORE.INTER.SOLV>
26.8611

>  <SCORE.INTER.VDW>
-14.2372

>  <SCORE.INTER.norm>
0.154161

>  <SCORE.INTRA>
7.97803

>  <SCORE.INTRA.DIHEDRAL>
3.42537

>  <SCORE.INTRA.DIHEDRAL.0>
27.8999

>  <SCORE.INTRA.POLAR>
0

>  <SCORE.INTRA.POLAR.0>
0

>  <SCORE.INTRA.REPUL>
0.141758

>  <SCORE.INTRA.REPUL.0>
0

>  <SCORE.INTRA.SOLV>
2.30174

>  <SCORE.INTRA.SOLV.lig_0>
-104.479

>  <SCORE.INTRA.VDW>
4.40568

>  <SCORE.INTRA.VDW.0>
-6.17816

>  <SCORE.INTRA.norm>
0.189953

>  <SCORE.RESTR>
10.0687

>  <SCORE.RESTR.CAVITY>
10.0687

>  <SCORE.RESTR.norm>
0.239732

>  <SCORE.SYSTEM>
0

>  <SCORE.SYSTEM.CONST>
0

>  <SCORE.SYSTEM.DIHEDRAL>
0

>  <SCORE.SYSTEM.SOLV>
0

>  <SCORE.SYSTEM.norm>
0

>  <SCORE.heavy>
42

>  <SCORE.norm>
0.583846

>  <RMSD>
18.880

$$$$
ligand
 OpenBabel02271912133D
libRbt.so/2013.1/901 2013/11/27
 42 45  0  0  0  0  0  0  0  0999 V2000
   11.3617   12.9792   -6.4648 C   0  0  2  0  0  0  0  0  0  0  0  0
   11.3789   12.8443   -7.8962 O   0  0  0  0  0  0  0  0  0  0  0  0
    9.4407   15.4706  -10.7496 C   0  0  2  0  0  0  0  0  0  0  0  0
    9.1304   16.6252  -11.6446 N   0  0  0  0  0  0  0  0  0  0  0  0
   13.0164   12.3431  -11.4440 C   0  0  1  0  0  0  0  0  0  0  0  0
   14.7842    8.6851  -13.4173 C   0  0  1  0  0  0  0  0  0  0  0  0
   12.2932   14.1768   -6.1094 C   0  0  2  0  0  0  0  0  0  0  0  0
   11.9931   15.3799   -6.9050 N   0  0  0  0  0  0  0  0  0  0  0  0
    9.4360   15.9056   -9.2289 C   0  0  0  0  0  0  0  0  0  0  0  0
   14.2322   11.4662  -11.0154 C   0  0  2  0  0  0  0  0  0  0  0  0
   15.5175   12.0115  -11.4023 O   0  0  0  0  0  0  0  0  0  0  0  0
   15.9239    8.0350  -12.5528 C   0  0  2  0  0  0  0  0  0  0  0  0
   17.1290    8.9164  -12.5093 N   0  0  0  0  0  0  0  0  0  0  0  0
   13.7798   13.8496   -6.3415 C   0  0  1  0  0  0  0  0  0  0  0  0
   14.5978   14.9590   -5.9661 O   0  0  0  0  0  0  0  0  0  0  0  0
    9.7464   14.6448   -8.3364 C   0  0  2  0  0  0  0  0  0  0  0  0
    9.7355   15.0154   -6.8956 N   0  0  0  0  0  0  0  0  0  0  0  0
   13.8660   10.1220  -11.6464 C   0  0  2  0  0  0  0  0  0  0  0  0
   14.3987   10.0019  -13.0038 O   0  0  0  0  0  0  0  0  0  0  0  0
   16.2861    6.5942  -13.1528 C   0  0  1  0  0  0  0  0  0  0  0  0
   15.2206    5.6725  -12.8300 O   0  0  0  0  0  0  0  0  0  0  0  0
   14.1573   12.5767   -5.5501 C   0  0  2  0  0  0  0  0  0  0  0  0
   15.5199   12.2730   -5.7387 O   0  0  0  0  0  0  0  0  0  0  0  0
   11.1504   14.0270   -8.7143 C   0  0  2  0  0  0  0  0  0  0  0  0
   12.3294   10.0559  -11.6430 C   0  0  2  0  0  0  0  0  0  0  0  0
   11.9490   11.4239  -11.7711 O   0  0  0  0  0  0  0  0  0  0  0  0
   16.5106    6.6196  -14.7391 C   0  0  2  0  0  0  0  0  0  0  0  0
   17.7190    7.3352  -14.9919 O   0  0  0  0  0  0  0  0  0  0  0  0
   13.2550   11.3911   -6.0295 C   0  0  2  0  0  0  0  0  0  0  0  0
   11.8466   11.7339   -5.8325 O   0  0  0  0  0  0  0  0  0  0  0  0
   11.2484   13.6292  -10.2034 C   0  0  2  0  0  0  0  0  0  0  0  0
   12.6402   13.2618  -10.4098 O   0  0  0  0  0  0  0  0  0  0  0  0
   11.7011    9.4158  -10.3664 C   0  0  0  0  0  0  0  0  0  0  0  0
   10.2992    9.2562  -10.5616 O   0  0  0  0  0  0  0  0  0  0  0  0
   15.2994    7.3226  -15.4608 C   0  0  1  0  0  0  0  0  0  0  0  0
   15.1992    8.6699  -14.8735 O   0  0  0  0  0  0  0  0  0  0  0  0
   13.5532   10.1016   -5.3002 C   0  0  0  0  0  0  0  0  0  0  0  0
   14.9127    9.7682   -5.4408 O   0  0  0  0  0  0  0  0  0  0  0  0
   10.8476   14.8550  -11.1266 C   0  0  1  0  0  0  0  0  0  0  0  0
   10.7918   14.4442  -12.4955 O   0  0  0  0  0  0  0  0  0  0  0  0
   15.4555    7.4216  -17.0402 C   0  0  0  0  0  0  0  0  0  0  0  0
   14.4802    8.3122  -17.7274 N   0  0  0  0  0  0  0  0  0  0  0  0
  1  2  1  6  0  0  0
  1  7  1  0  0  0  0
  1 30  1  0  0  0  0
  3  4  1  6  0  0  0
  3  9  1  0  0  0  0
  3 39  1  0  0  0  0
  5 10  1  0  0  0  0
  5 26  1  0  0  0  0
  5 32  1  1  0  0  0
  6 12  1  0  0  0  0
  6 36  1  0  0  0  0
  6 19  1  1  0  0  0
  7  8  1  6  0  0  0
  7 14  1  0  0  0  0
  9 16  1  0  0  0  0
 10 11  1  6  0  0  0
 10 18  1  0  0  0  0
 12 13  1  6  0  0  0
 12 20  1  0  0  0  0
 14 15  1  1  0  0  0
 14 22  1  0  0  0  0
 16 17  1  1  0  0  0
 16 24  1  0  0  0  0
 18 19  1  6  0  0  0
 18 25  1  0  0  0  0
 20 21  1  6  0  0  0
 20 27  1  0  0  0  0
 22 23  1  6  0  0  0
 22 29  1  0  0  0  0
 24  2  1  1  0  0  0
 24 31  1  0  0  0  0
 25 26  1  0  0  0  0
 25 33  1  1  0  0  0
 27 28  1  1  0  0  0
 27 35  1  0  0  0  0
 29 30  1  0  0  0  0
 29 37  1  1  0  0  0
 31 32  1  6  0  0  0
 31 39  1  0  0  0  0
 33 34  1  0  0  0  0
 35 36  1  0  0  0  0
 35 41  1  6  0  0  0
 37 38  1  0  0  0  0
 39 40  1  6  0  0  0
 41 42  1  0  0  0  0
M  END
>  <CHROM.1>
-49.65082686,-57.91363209,147.01760506,-60.96041782,-172.50554213,-56.39066238
153.80050564,-145.92942568,-168.11690655,13.21975839,11.39495937,-10.36704655
-2.17550075,0.83269264,-1.82253748

>  <Name>
ligand

>  <RI>
0

>  <Rbt.Current_Directory>
/home/itssahil/PROJECTS/Mol_Feturizer/Test_systems_manuscript/rnas/2o3w

>  <Rbt.Executable>
rbdock ($Id: //depot/dev/client3/rdock/2013.1/src/exe/rbdock.cxx#4 $)

>  <Rbt.Library>
libRbt.so (2013.1, Build901 2013/11/27)

>  <Rbt.Parameter_File>
/export/apps/rDock/src/rDock_2013.1_src/data/scripts/dock_solv.prm

>  <Rbt.Receptor>
prm/blind_docking_80.prm

>  <SCORE>
19.5551

>  <SCORE.INTER>
-1.5028

>  <SCORE.INTER.CONST>
1

>  <SCORE.INTER.POLAR>
0

>  <SCORE.INTER.ROT>
9

>  <SCORE.INTER.SOLV>
30.5043

>  <SCORE.INTER.VDW>
-20.77

>  <SCORE.INTER.norm>
-0.0357809

>  <SCORE.INTRA>
4.78169

>  <SCORE.INTRA.DIHEDRAL>
-15.0802

>  <SCORE.INTRA.DIHEDRAL.0>
27.8999

>  <SCORE.INTRA.POLAR>
0

>  <SCORE.INTRA.POLAR.0>
0

>  <SCORE.INTRA.REPUL>
0

>  <SCORE.INTRA.REPUL.0>
0

>  <SCORE.INTRA.SOLV>
2.36023

>  <SCORE.INTRA.SOLV.lig_0>
-104.479

>  <SCORE.INTRA.VDW>
11.1417

>  <SCORE.INTRA.VDW.0>
-6.17816

>  <SCORE.INTRA.norm>
0.11385

>  <SCORE.RESTR>
16.2762

>  <SCORE.RESTR.CAVITY>
16.2762

>  <SCORE.RESTR.norm>
0.387529

>  <SCORE.SYSTEM>
0

>  <SCORE.SYSTEM.CONST>
0

>  <SCORE.SYSTEM.DIHEDRAL>
0

>  <SCORE.SYSTEM.SOLV>
0

>  <SCORE.SYSTEM.norm>
0

>  <SCORE.heavy>
42

>  <SCORE.norm>
0.465598

>  <RMSD>
18.897

$$$$
ligand
 OpenBabel02271912133D
libRbt.so/2013.1/901 2013/11/27
 42 45  0  0  0  0  0  0  0  0999 V2000
   11.1961   15.7458  -10.6823 C   0  0  2  0  0  0  0  0  0  0  0  0
   10.7167   14.4625  -11.1187 O   0  0  0  0  0  0  0  0  0  0  0  0
   12.4698   10.7329  -12.4653 C   0  0  2  0  0  0  0  0  0  0  0  0
   13.3572    9.5391  -12.5986 N   0  0  0  0  0  0  0  0  0  0  0  0
   11.5695   12.6843   -8.4458 C   0  0  1  0  0  0  0  0  0  0  0  0
   14.0179   13.3037   -4.8891 C   0  0  1  0  0  0  0  0  0  0  0  0
   10.0232   16.4355   -9.9228 C   0  0  2  0  0  0  0  0  0  0  0  0
    9.4175   15.5589   -8.9053 N   0  0  0  0  0  0  0  0  0  0  0  0
   13.2553   12.0697  -12.7781 C   0  0  0  0  0  0  0  0  0  0  0  0
   10.9242   13.0286   -7.0689 C   0  0  2  0  0  0  0  0  0  0  0  0
   10.5230   14.4144   -6.9362 O   0  0  0  0  0  0  0  0  0  0  0  0
   14.8816   14.5294   -4.4195 C   0  0  2  0  0  0  0  0  0  0  0  0
   15.4479   15.2629   -5.5909 N   0  0  0  0  0  0  0  0  0  0  0  0
    8.8884   16.8681  -10.8695 C   0  0  1  0  0  0  0  0  0  0  0  0
    7.8552   17.5297  -10.1376 O   0  0  0  0  0  0  0  0  0  0  0  0
   12.2643   13.2873  -12.6434 C   0  0  2  0  0  0  0  0  0  0  0  0
   12.9678   14.5629  -12.9457 N   0  0  0  0  0  0  0  0  0  0  0  0
   12.0146   12.5595   -6.1044 C   0  0  2  0  0  0  0  0  0  0  0  0
   12.9640   13.6314   -5.8032 O   0  0  0  0  0  0  0  0  0  0  0  0
   16.0450   14.0144   -3.4458 C   0  0  1  0  0  0  0  0  0  0  0  0
   15.4643   13.6608   -2.1704 O   0  0  0  0  0  0  0  0  0  0  0  0
    9.4623   17.7757  -11.9813 C   0  0  2  0  0  0  0  0  0  0  0  0
    8.4328   18.1942  -12.8470 O   0  0  0  0  0  0  0  0  0  0  0  0
   11.6543   13.3505  -11.1875 C   0  0  2  0  0  0  0  0  0  0  0  0
   12.7118   11.3755   -6.7952 C   0  0  2  0  0  0  0  0  0  0  0  0
   12.5885   11.6936   -8.1795 O   0  0  0  0  0  0  0  0  0  0  0  0
   16.8415   12.7569   -4.0391 C   0  0  2  0  0  0  0  0  0  0  0  0
   17.6005   13.2160   -5.1569 O   0  0  0  0  0  0  0  0  0  0  0  0
   10.5604   16.9861  -12.7688 C   0  0  2  0  0  0  0  0  0  0  0  0
   11.6118   16.5547  -11.8479 O   0  0  0  0  0  0  0  0  0  0  0  0
   10.9178   12.0525  -10.7899 C   0  0  2  0  0  0  0  0  0  0  0  0
   10.5909   12.2146   -9.3823 O   0  0  0  0  0  0  0  0  0  0  0  0
   12.0958    9.9762   -6.4839 C   0  0  0  0  0  0  0  0  0  0  0  0
   10.8423    9.8554   -7.1494 O   0  0  0  0  0  0  0  0  0  0  0  0
   15.8403   11.6260   -4.4873 C   0  0  1  0  0  0  0  0  0  0  0  0
   14.9344   12.2470   -5.4691 O   0  0  0  0  0  0  0  0  0  0  0  0
   11.1830   17.8041  -13.8765 C   0  0  0  0  0  0  0  0  0  0  0  0
   11.9740   18.8330  -13.3335 O   0  0  0  0  0  0  0  0  0  0  0  0
   11.8624   10.7969  -11.0067 C   0  0  1  0  0  0  0  0  0  0  0  0
   11.1334    9.5867  -10.7839 O   0  0  0  0  0  0  0  0  0  0  0  0
   16.5465   10.3500   -5.1213 C   0  0  0  0  0  0  0  0  0  0  0  0
   17.4816   10.6262   -6.2464 N   0  0  0  0  0  0  0  0  0  0  0  0
  1  2  1  6  0  0  0
  1  7  1  0  0  0  0
  1 30  1  0  0  0  0
  3  4  1  1  0  0  0
  3  9  1  0  0  0  0
  3 39  1  0  0  0  0
  5 10  1  0  0  0  0
  5 26  1  0  0  0  0
  5 32  1  6  0  0  0
  6 12  1  0  0  0  0
  6 36  1  0  0  0  0
  6 19  1  6  0  0  0
  7  8  1  1  0  0  0
  7 14  1  0  0  0  0
  9 16  1  0  0  0  0
 10 11  1  6  0  0  0
 10 18  1  0  0  0  0
 12 13  1  6  0  0  0
 12 20  1  0  0  0  0
 14 15  1  1  0  0  0
 14 22  1  0  0  0  0
 16 17  1  1  0  0  0
 16 24  1  0  0  0  0
 18 19  1  6  0  0  0
 18 25  1  0  0  0  0
 20 21  1  1  0  0  0
 20 27  1  0  0  0  0
 22 23  1  6  0  0  0
 22 29  1  0  0  0  0
 24  2  1  6  0  0  0
 24 31  1  0  0  0  0
 25 26  1  0  0  0  0
 25 33  1  6  0  0  0
 27 28  1  6  0  0  0
 27 35  1  0  0  0  0
 29 30  1  0  0  0  0
 29 37  1  6  0  0  0
 31 32  1  1  0  0  0
 31 39  1  0  0  0  0
 33 34  1  0  0  0  0
 35 36  1  0  0  0  0
 35 41  1  6  0  0  0
 37 38  1  0  0  0  0
 39 40  1  6  0  0  0
 41 42  1  0  0  0  0
M  END
>  <CHROM.1>
-147.25424328,-92.17079751,179.04983970,-171.02054984,72.09952033,69.65033066
-46.59928240,169.36043843,-53.25562815,12.43589290,13.62933493,-8.77875249
-3.13493382,1.03018774,-2.65746479

>  <Name>
ligand

>  <RI>
0

>  <Rbt.Current_Directory>
/home/itssahil/PROJECTS/Mol_Feturizer/Test_systems_manuscript/rnas/2o3w

>  <Rbt.Executable>
rbdock ($Id: //depot/dev/client3/rdock/2013.1/src/exe/rbdock.cxx#4 $)

>  <Rbt.Library>
libRbt.so (2013.1, Build901 2013/11/27)

>  <Rbt.Parameter_File>
/export/apps/rDock/src/rDock_2013.1_src/data/scripts/dock_solv.prm

>  <Rbt.Receptor>
prm/blind_docking_40.prm

>  <SCORE>
9.56605

>  <SCORE.INTER>
-4.39597

>  <SCORE.INTER.CONST>
1

>  <SCORE.INTER.POLAR>
0

>  <SCORE.INTER.ROT>
9

>  <SCORE.INTER.SOLV>
27.1455

>  <SCORE.INTER.VDW>
-21.5791

>  <SCORE.INTER.norm>
-0.104666

>  <SCORE.INTRA>
-5.11421

>  <SCORE.INTRA.DIHEDRAL>
-16.8905

>  <SCORE.INTRA.DIHEDRAL.0>
27.8999

>  <SCORE.INTRA.POLAR>
0

>  <SCORE.INTRA.POLAR.0>
0

>  <SCORE.INTRA.REPUL>
0

>  <SCORE.INTRA.REPUL.0>
0

>  <SCORE.INTRA.SOLV>
2.28409

>  <SCORE.INTRA.SOLV.lig_0>
-104.479

>  <SCORE.INTRA.VDW>
2.189

>  <SCORE.INTRA.VDW.0>
-6.17816

>  <SCORE.INTRA.norm>
-0.121767

>  <SCORE.RESTR>
19.0762

>  <SCORE.RESTR.CAVITY>
19.0762

>  <SCORE.RESTR.norm>
0.454196

>  <SCORE.SYSTEM>
0

>  <SCORE.SYSTEM.CONST>
0

>  <SCORE.SYSTEM.DIHEDRAL>
0

>  <SCORE.SYSTEM.SOLV>
0

>  <SCORE.SYSTEM.norm>
0

>  <SCORE.heavy>
42

>  <SCORE.norm>
0.227763

>  <RMSD>
18.954

$$$$
ligand
 OpenBabel02271912133D
libRbt.so/2013.1/901 2013/11/27
 42 45  0  0  0  0  0  0  0  0999 V2000
   10.7163   14.6425  -12.9554 C   0  0  2  0  0  0  0  0  0  0  0  0
   11.3757   13.8638  -11.9425 O   0  0  0  0  0  0  0  0  0  0  0  0
   13.2999   10.1019  -12.9130 C   0  0  2  0  0  0  0  0  0  0  0  0
   14.3156    9.0736  -13.2891 N   0  0  0  0  0  0  0  0  0  0  0  0
   13.1746   12.5124   -8.7431 C   0  0  1  0  0  0  0  0  0  0  0  0
   13.3906   12.1195   -5.7329 C   0  0  1  0  0  0  0  0  0  0  0  0
   11.6393   15.8586  -13.2673 C   0  0  2  0  0  0  0  0  0  0  0  0
   13.0332   15.4570  -13.5247 N   0  0  0  0  0  0  0  0  0  0  0  0
   13.0619   11.1311  -14.0902 C   0  0  0  0  0  0  0  0  0  0  0  0
   11.7778   12.9340   -8.1936 C   0  0  2  0  0  0  0  0  0  0  0  0
   11.7502   14.2592   -7.6085 O   0  0  0  0  0  0  0  0  0  0  0  0
   14.0591   10.7694   -5.2867 C   0  0  2  0  0  0  0  0  0  0  0  0
   13.4431   10.2607   -4.0246 N   0  0  0  0  0  0  0  0  0  0  0  0
   11.6757   16.8760  -12.1120 C   0  0  1  0  0  0  0  0  0  0  0  0
   12.5003   17.9905  -12.4565 O   0  0  0  0  0  0  0  0  0  0  0  0
   11.9681   12.1735  -13.6433 C   0  0  2  0  0  0  0  0  0  0  0  0
   11.7081   13.1506  -14.7348 N   0  0  0  0  0  0  0  0  0  0  0  0
   11.4749   11.7807   -7.2358 C   0  0  2  0  0  0  0  0  0  0  0  0
   11.9671   12.0588   -5.8863 O   0  0  0  0  0  0  0  0  0  0  0  0
   15.6354   10.9935   -5.1080 C   0  0  1  0  0  0  0  0  0  0  0  0
   16.2416   11.1107   -6.4148 O   0  0  0  0  0  0  0  0  0  0  0  0
   10.2354   17.3230  -11.7731 C   0  0  2  0  0  0  0  0  0  0  0  0
   10.2527   18.2675  -10.7281 O   0  0  0  0  0  0  0  0  0  0  0  0
   12.4297   12.9421  -12.3425 C   0  0  2  0  0  0  0  0  0  0  0  0
   12.1600   10.5407   -7.8344 C   0  0  2  0  0  0  0  0  0  0  0  0
   13.2920   11.0911   -8.5038 O   0  0  0  0  0  0  0  0  0  0  0  0
   15.9842   12.2924   -4.2369 C   0  0  2  0  0  0  0  0  0  0  0  0
   15.5890   12.0278   -2.8915 O   0  0  0  0  0  0  0  0  0  0  0  0
    9.3927   16.0673  -11.3698 C   0  0  2  0  0  0  0  0  0  0  0  0
    9.3979   15.0986  -12.4658 O   0  0  0  0  0  0  0  0  0  0  0  0
   12.7358   11.9931  -11.1631 C   0  0  2  0  0  0  0  0  0  0  0  0
   13.3139   12.8397  -10.1318 O   0  0  0  0  0  0  0  0  0  0  0  0
   11.2765    9.7102   -8.8162 C   0  0  0  0  0  0  0  0  0  0  0  0
   10.9529   10.5102   -9.9494 O   0  0  0  0  0  0  0  0  0  0  0  0
   15.2213   13.5546   -4.7911 C   0  0  1  0  0  0  0  0  0  0  0  0
   13.7888   13.2120   -4.7628 O   0  0  0  0  0  0  0  0  0  0  0  0
    7.9621   16.4128  -11.0266 C   0  0  0  0  0  0  0  0  0  0  0  0
    7.3138   16.9626  -12.1476 O   0  0  0  0  0  0  0  0  0  0  0  0
   13.7644   10.8727  -11.6127 C   0  0  1  0  0  0  0  0  0  0  0  0
   13.9309    9.9084  -10.5696 O   0  0  0  0  0  0  0  0  0  0  0  0
   15.4845   14.8859   -3.9622 C   0  0  0  0  0  0  0  0  0  0  0  0
   15.0752   14.8431   -2.5314 N   0  0  0  0  0  0  0  0  0  0  0  0
  1  2  1  1  0  0  0
  1  7  1  0  0  0  0
  1 30  1  0  0  0  0
  3  4  1  6  0  0  0
  3  9  1  0  0  0  0
  3 39  1  0  0  0  0
  5 10  1  0  0  0  0
  5 26  1  0  0  0  0
  5 32  1  6  0  0  0
  6 12  1  0  0  0  0
  6 36  1  0  0  0  0
  6 19  1  1  0  0  0
  7  8  1  1  0  0  0
  7 14  1  0  0  0  0
  9 16  1  0  0  0  0
 10 11  1  1  0  0  0
 10 18  1  0  0  0  0
 12 13  1  1  0  0  0
 12 20  1  0  0  0  0
 14 15  1  6  0  0  0
 14 22  1  0  0  0  0
 16 17  1  6  0  0  0
 16 24  1  0  0  0  0
 18 19  1  1  0  0  0
 18 25  1  0  0  0  0
 20 21  1  6  0  0  0
 20 27  1  0  0  0  0
 22 23  1  1  0  0  0
 22 29  1  0  0  0  0
 24  2  1  1  0  0  0
 24 31  1  0  0  0  0
 25 26  1  0  0  0  0
 25 33  1  6  0  0  0
 27 28  1  1  0  0  0
 27 35  1  0  0  0  0
 29 30  1  0  0  0  0
 29 37  1  6  0  0  0
 31 32  1  1  0  0  0
 31 39  1  0  0  0  0
 33 34  1  0  0  0  0
 35 36  1  0  0  0  0
 35 41  1  1  0  0  0
 37 38  1  0  0  0  0
 39 40  1  1  0  0  0
 41 42  1  0  0  0  0
M  END
>  <CHROM.1>
-81.06155732,-43.09705795,-67.17246032,-94.08049606,63.36097669,62.25365456
151.32254546,-80.04417899,-60.67246959,12.54821219,13.12998082,-9.33252432
2.57500924,1.06814138,-2.14919402

>  <Name>
ligand

>  <RI>
0

>  <Rbt.Current_Directory>
/home/itssahil/PROJECTS/Mol_Feturizer/Test_systems_manuscript/rnas/2o3w

>  <Rbt.Executable>
rbdock ($Id: //depot/dev/client3/rdock/2013.1/src/exe/rbdock.cxx#4 $)

>  <Rbt.Library>
libRbt.so (2013.1, Build901 2013/11/27)

>  <Rbt.Parameter_File>
/export/apps/rDock/src/rDock_2013.1_src/data/scripts/dock_solv.prm

>  <Rbt.Receptor>
prm/blind_docking_100.prm

>  <SCORE>
2.22059

>  <SCORE.INTER>
-6.58221

>  <SCORE.INTER.CONST>
1

>  <SCORE.INTER.POLAR>
0

>  <SCORE.INTER.ROT>
9

>  <SCORE.INTER.SOLV>
27.593

>  <SCORE.INTER.VDW>
-23.1858

>  <SCORE.INTER.norm>
-0.156719

>  <SCORE.INTRA>
0.0928733

>  <SCORE.INTRA.DIHEDRAL>
-14.7099

>  <SCORE.INTRA.DIHEDRAL.0>
27.8999

>  <SCORE.INTRA.POLAR>
0

>  <SCORE.INTRA.POLAR.0>
0

>  <SCORE.INTRA.REPUL>
0

>  <SCORE.INTRA.REPUL.0>
0

>  <SCORE.INTRA.SOLV>
4.04991

>  <SCORE.INTRA.SOLV.lig_0>
-104.479

>  <SCORE.INTRA.VDW>
5.42288

>  <SCORE.INTRA.VDW.0>
-6.17816

>  <SCORE.INTRA.norm>
0.00221127

>  <SCORE.RESTR>
8.70993

>  <SCORE.RESTR.CAVITY>
8.70993

>  <SCORE.RESTR.norm>
0.207379

>  <SCORE.SYSTEM>
0

>  <SCORE.SYSTEM.CONST>
0

>  <SCORE.SYSTEM.DIHEDRAL>
0

>  <SCORE.SYSTEM.SOLV>
0

>  <SCORE.SYSTEM.norm>
0

>  <SCORE.heavy>
42

>  <SCORE.norm>
0.0528712

>  <RMSD>
19.034

$$$$
ligand
 OpenBabel02271912133D
libRbt.so/2013.1/901 2013/11/27
 42 45  0  0  0  0  0  0  0  0999 V2000
   11.6336   15.4079  -11.3820 C   0  0  2  0  0  0  0  0  0  0  0  0
   11.0796   14.2062  -11.9445 O   0  0  0  0  0  0  0  0  0  0  0  0
   12.0601   10.0106  -12.4261 C   0  0  2  0  0  0  0  0  0  0  0  0
   12.7250    8.6782  -12.3126 N   0  0  0  0  0  0  0  0  0  0  0  0
   11.8824   12.5251   -8.7895 C   0  0  1  0  0  0  0  0  0  0  0  0
   14.5495   12.0624   -5.6288 C   0  0  1  0  0  0  0  0  0  0  0  0
   10.5802   15.9689  -10.3801 C   0  0  2  0  0  0  0  0  0  0  0  0
   10.0951   14.9441   -9.4394 N   0  0  0  0  0  0  0  0  0  0  0  0
   13.0136   11.0716  -13.1094 C   0  0  0  0  0  0  0  0  0  0  0  0
   11.5344   13.3234   -7.4963 C   0  0  2  0  0  0  0  0  0  0  0  0
   11.8849   14.7278   -7.5583 O   0  0  0  0  0  0  0  0  0  0  0  0
   14.6504   12.1691   -4.0644 C   0  0  2  0  0  0  0  0  0  0  0  0
   14.9988   13.5600   -3.6460 N   0  0  0  0  0  0  0  0  0  0  0  0
    9.3410   16.5398  -11.0938 C   0  0  1  0  0  0  0  0  0  0  0  0
    8.4222   17.0776  -10.1413 O   0  0  0  0  0  0  0  0  0  0  0  0
   12.2509   12.4458  -13.2212 C   0  0  2  0  0  0  0  0  0  0  0  0
   13.1153   13.4657  -13.8741 N   0  0  0  0  0  0  0  0  0  0  0  0
   12.2692   12.5037   -6.4345 C   0  0  2  0  0  0  0  0  0  0  0  0
   13.6356   12.9864   -6.2324 O   0  0  0  0  0  0  0  0  0  0  0  0
   15.7366   11.1187   -3.5317 C   0  0  1  0  0  0  0  0  0  0  0  0
   15.1814    9.7873   -3.6199 O   0  0  0  0  0  0  0  0  0  0  0  0
    9.7831   17.6097  -12.1180 C   0  0  2  0  0  0  0  0  0  0  0  0
    8.6584   18.1543  -12.7683 O   0  0  0  0  0  0  0  0  0  0  0  0
   11.8137   12.9579  -11.7920 C   0  0  2  0  0  0  0  0  0  0  0  0
   12.2605   11.0507   -6.9387 C   0  0  2  0  0  0  0  0  0  0  0  0
   12.2751   11.2026   -8.3561 O   0  0  0  0  0  0  0  0  0  0  0  0
   17.1139   11.1802   -4.3483 C   0  0  2  0  0  0  0  0  0  0  0  0
   17.7485   12.4183   -4.0303 O   0  0  0  0  0  0  0  0  0  0  0  0
   10.7568   16.9541  -13.1531 C   0  0  2  0  0  0  0  0  0  0  0  0
   11.9101   16.3882  -12.4536 O   0  0  0  0  0  0  0  0  0  0  0  0
   10.9233   11.9450  -11.0394 C   0  0  2  0  0  0  0  0  0  0  0  0
   10.7749   12.4889   -9.6991 O   0  0  0  0  0  0  0  0  0  0  0  0
   11.0354   10.2015   -6.4779 C   0  0  0  0  0  0  0  0  0  0  0  0
    9.9521   10.4111   -7.3787 O   0  0  0  0  0  0  0  0  0  0  0  0
   16.8460   11.0870   -5.8980 C   0  0  1  0  0  0  0  0  0  0  0  0
   15.9355   12.1985   -6.2234 O   0  0  0  0  0  0  0  0  0  0  0  0
   11.2462   17.9350  -14.1933 C   0  0  0  0  0  0  0  0  0  0  0  0
   12.0013   17.2658  -15.1737 O   0  0  0  0  0  0  0  0  0  0  0  0
   11.6258   10.5237  -10.9948 C   0  0  1  0  0  0  0  0  0  0  0  0
   10.7387    9.5523  -10.4334 O   0  0  0  0  0  0  0  0  0  0  0  0
   18.1603   11.1744   -6.7888 C   0  0  0  0  0  0  0  0  0  0  0  0
   19.0118    9.9531   -6.7988 N   0  0  0  0  0  0  0  0  0  0  0  0
  1  2  1  6  0  0  0
  1  7  1  0  0  0  0
  1 30  1  0  0  0  0
  3  4  1  1  0  0  0
  3  9  1  0  0  0  0
  3 39  1  0  0  0  0
  5 10  1  0  0  0  0
  5 26  1  0  0  0  0
  5 32  1  6  0  0  0
  6 12  1  0  0  0  0
  6 36  1  0  0  0  0
  6 19  1  6  0  0  0
  7  8  1  1  0  0  0
  7 14  1  0  0  0  0
  9 16  1  0  0  0  0
 10 11  1  6  0  0  0
 10 18  1  0  0  0  0
 12 13  1  6  0  0  0
 12 20  1  0  0  0  0
 14 15  1  1  0  0  0
 14 22  1  0  0  0  0
 16 17  1  1  0  0  0
 16 24  1  0  0  0  0
 18 19  1  6  0  0  0
 18 25  1  0  0  0  0
 20 21  1  6  0  0  0
 20 27  1  0  0  0  0
 22 23  1  6  0  0  0
 22 29  1  0  0  0  0
 24  2  1  6  0  0  0
 24 31  1  0  0  0  0
 25 26  1  0  0  0  0
 25 33  1  6  0  0  0
 27 28  1  6  0  0  0
 27 35  1  0  0  0  0
 29 30  1  0  0  0  0
 29 37  1  6  0  0  0
 31 32  1  1  0  0  0
 31 39  1  0  0  0  0
 33 34  1  0  0  0  0
 35 36  1  0  0  0  0
 35 41  1  6  0  0  0
 37 38  1  0  0  0  0
 39 40  1  6  0  0  0
 41 42  1  0  0  0  0
M  END
>  <CHROM.1>
-121.78301681,-115.93673344,-159.60034483,-92.53989517,85.53241910,-173.86636813
-69.60026868,172.20528834,74.67259275,12.62952034,13.05111437,-9.12686101
3.03080603,1.03871309,-2.46467364

>  <Name>
ligand

>  <RI>
0

>  <Rbt.Current_Directory>
/home/itssahil/PROJECTS/Mol_Feturizer/Test_systems_manuscript/rnas/2o3w

>  <Rbt.Executable>
rbdock ($Id: //depot/dev/client3/rdock/2013.1/src/exe/rbdock.cxx#4 $)

>  <Rbt.Library>
libRbt.so (2013.1, Build901 2013/11/27)

>  <Rbt.Parameter_File>
/export/apps/rDock/src/rDock_2013.1_src/data/scripts/dock_solv.prm

>  <Rbt.Receptor>
prm/blind_docking_40.prm

>  <SCORE>
16.0613

>  <SCORE.INTER>
-3.28042

>  <SCORE.INTER.CONST>
1

>  <SCORE.INTER.POLAR>
0

>  <SCORE.INTER.ROT>
9

>  <SCORE.INTER.SOLV>
23.091

>  <SCORE.INTER.VDW>
-19.4839

>  <SCORE.INTER.norm>
-0.0781054

>  <SCORE.INTRA>
0.983478

>  <SCORE.INTRA.DIHEDRAL>
-4.03855

>  <SCORE.INTRA.DIHEDRAL.0>
27.8999

>  <SCORE.INTRA.POLAR>
0

>  <SCORE.INTRA.POLAR.0>
0

>  <SCORE.INTRA.REPUL>
0.0081186

>  <SCORE.INTRA.REPUL.0>
0

>  <SCORE.INTRA.SOLV>
0.661942

>  <SCORE.INTRA.SOLV.lig_0>
-104.479

>  <SCORE.INTRA.VDW>
2.63119

>  <SCORE.INTRA.VDW.0>
-6.17816

>  <SCORE.INTRA.norm>
0.0234161

>  <SCORE.RESTR>
18.3582

>  <SCORE.RESTR.CAVITY>
18.3582

>  <SCORE.RESTR.norm>
0.437101

>  <SCORE.SYSTEM>
0

>  <SCORE.SYSTEM.CONST>
0

>  <SCORE.SYSTEM.DIHEDRAL>
0

>  <SCORE.SYSTEM.SOLV>
0

>  <SCORE.SYSTEM.norm>
0

>  <SCORE.heavy>
42

>  <SCORE.norm>
0.382411

>  <RMSD>
19.035

$$$$
ligand
 OpenBabel02271912133D
libRbt.so/2013.1/901 2013/11/27
 42 45  0  0  0  0  0  0  0  0999 V2000
   10.8033   15.8682  -10.6357 C   0  0  2  0  0  0  0  0  0  0  0  0
   10.2375   14.6393  -11.1226 O   0  0  0  0  0  0  0  0  0  0  0  0
   11.5082   10.9673  -13.0454 C   0  0  2  0  0  0  0  0  0  0  0  0
   12.3155    9.9416  -13.7711 N   0  0  0  0  0  0  0  0  0  0  0  0
   12.4098   12.5556   -8.5982 C   0  0  1  0  0  0  0  0  0  0  0  0
   13.0917   11.7552   -5.7809 C   0  0  1  0  0  0  0  0  0  0  0  0
    9.6650   16.9321  -10.6542 C   0  0  2  0  0  0  0  0  0  0  0  0
    8.4333   16.4513  -10.0042 N   0  0  0  0  0  0  0  0  0  0  0  0
   11.1955   12.2115  -13.9705 C   0  0  0  0  0  0  0  0  0  0  0  0
   11.1105   12.8049   -7.7733 C   0  0  2  0  0  0  0  0  0  0  0  0
   11.1533   13.9981   -6.9526 O   0  0  0  0  0  0  0  0  0  0  0  0
   13.9639   10.5459   -5.2853 C   0  0  2  0  0  0  0  0  0  0  0  0
   13.5754   10.1398   -3.9015 N   0  0  0  0  0  0  0  0  0  0  0  0
    9.2788   17.3498  -12.0851 C   0  0  1  0  0  0  0  0  0  0  0  0
    8.2622   18.3530  -12.0531 O   0  0  0  0  0  0  0  0  0  0  0  0
   10.3255   13.2447  -13.1593 C   0  0  2  0  0  0  0  0  0  0  0  0
    9.9998   14.4241  -14.0058 N   0  0  0  0  0  0  0  0  0  0  0  0
   10.9825   11.4832   -7.0142 C   0  0  2  0  0  0  0  0  0  0  0  0
   11.6771   11.5324   -5.7274 O   0  0  0  0  0  0  0  0  0  0  0  0
   15.5132   10.9485   -5.3534 C   0  0  1  0  0  0  0  0  0  0  0  0
   15.9321   10.9617   -6.7365 O   0  0  0  0  0  0  0  0  0  0  0  0
   10.5365   17.8445  -12.8350 C   0  0  2  0  0  0  0  0  0  0  0  0
   10.1968   18.2466  -14.1417 O   0  0  0  0  0  0  0  0  0  0  0  0
   11.0908   13.7191  -11.8611 C   0  0  2  0  0  0  0  0  0  0  0  0
   11.5853   10.4064   -7.9321 C   0  0  2  0  0  0  0  0  0  0  0  0
   12.5878   11.1215   -8.6505 O   0  0  0  0  0  0  0  0  0  0  0  0
   15.8150   12.3748   -4.6883 C   0  0  2  0  0  0  0  0  0  0  0  0
   15.6261   12.2422   -3.2801 O   0  0  0  0  0  0  0  0  0  0  0  0
   11.5967   16.6936  -12.8685 C   0  0  2  0  0  0  0  0  0  0  0  0
   11.9254   16.2877  -11.5022 O   0  0  0  0  0  0  0  0  0  0  0  0
   11.4800   12.5472  -10.9335 C   0  0  2  0  0  0  0  0  0  0  0  0
   12.3223   13.1373   -9.9055 O   0  0  0  0  0  0  0  0  0  0  0  0
   10.5719    9.7294   -8.9062 C   0  0  0  0  0  0  0  0  0  0  0  0
   11.1979    8.6167   -9.5376 O   0  0  0  0  0  0  0  0  0  0  0  0
   14.8464   13.4742   -5.2673 C   0  0  1  0  0  0  0  0  0  0  0  0
   13.4787   12.9951   -5.0025 O   0  0  0  0  0  0  0  0  0  0  0  0
   12.8677   17.0944  -13.5810 C   0  0  0  0  0  0  0  0  0  0  0  0
   13.6228   15.9524  -13.9048 O   0  0  0  0  0  0  0  0  0  0  0  0
   12.2765   11.4436  -11.7480 C   0  0  1  0  0  0  0  0  0  0  0  0
   12.5040   10.2938  -10.9284 O   0  0  0  0  0  0  0  0  0  0  0  0
   15.0547   14.9185   -4.6355 C   0  0  0  0  0  0  0  0  0  0  0  0
   14.9129   14.9987   -3.1557 N   0  0  0  0  0  0  0  0  0  0  0  0
  1  2  1  6  0  0  0
  1  7  1  0  0  0  0
  1 30  1  0  0  0  0
  3  4  1  6  0  0  0
  3  9  1  0  0  0  0
  3 39  1  0  0  0  0
  5 10  1  0  0  0  0
  5 26  1  0  0  0  0
  5 32  1  6  0  0  0
  6 12  1  0  0  0  0
  6 36  1  0  0  0  0
  6 19  1  1  0  0  0
  7  8  1  6  0  0  0
  7 14  1  0  0  0  0
  9 16  1  0  0  0  0
 10 11  1  1  0  0  0
 10 18  1  0  0  0  0
 12 13  1  1  0  0  0
 12 20  1  0  0  0  0
 14 15  1  1  0  0  0
 14 22  1  0  0  0  0
 16 17  1  6  0  0  0
 16 24  1  0  0  0  0
 18 19  1  1  0  0  0
 18 25  1  0  0  0  0
 20 21  1  6  0  0  0
 20 27  1  0  0  0  0
 22 23  1  6  0  0  0
 22 29  1  0  0  0  0
 24  2  1  1  0  0  0
 24 31  1  0  0  0  0
 25 26  1  0  0  0  0
 25 33  1  6  0  0  0
 27 28  1  1  0  0  0
 27 35  1  0  0  0  0
 29 30  1  0  0  0  0
 29 37  1  1  0  0  0
 31 32  1  1  0  0  0
 31 39  1  0  0  0  0
 33 34  1  0  0  0  0
 35 36  1  0  0  0  0
 35 41  1  1  0  0  0
 37 38  1  0  0  0  0
 39 40  1  1  0  0  0
 41 42  1  0  0  0  0
M  END
>  <CHROM.1>
148.26268014,-133.41332214,-61.54501451,-113.96366472,-170.67143061,-163.97159393
152.82779691,-73.01640834,-57.32696730,12.09209648,13.36889411,-9.35008248
-2.95977283,1.17971390,-2.84926198

>  <Name>
ligand

>  <RI>
0

>  <Rbt.Current_Directory>
/home/itssahil/PROJECTS/Mol_Feturizer/Test_systems_manuscript/rnas/2o3w

>  <Rbt.Executable>
rbdock ($Id: //depot/dev/client3/rdock/2013.1/src/exe/rbdock.cxx#4 $)

>  <Rbt.Library>
libRbt.so (2013.1, Build901 2013/11/27)

>  <Rbt.Parameter_File>
/export/apps/rDock/src/rDock_2013.1_src/data/scripts/dock_solv.prm

>  <Rbt.Receptor>
prm/blind_docking_60.prm

>  <SCORE>
10.4731

>  <SCORE.INTER>
-1.5782

>  <SCORE.INTER.CONST>
1

>  <SCORE.INTER.POLAR>
0

>  <SCORE.INTER.ROT>
9

>  <SCORE.INTER.SOLV>
29.9686

>  <SCORE.INTER.VDW>
-20.6417

>  <SCORE.INTER.norm>
-0.0375762

>  <SCORE.INTRA>
-0.107931

>  <SCORE.INTRA.DIHEDRAL>
-5.54123

>  <SCORE.INTRA.DIHEDRAL.0>
27.8999

>  <SCORE.INTRA.POLAR>
0

>  <SCORE.INTRA.POLAR.0>
0

>  <SCORE.INTRA.REPUL>
0

>  <SCORE.INTRA.REPUL.0>
0

>  <SCORE.INTRA.SOLV>
1.12535

>  <SCORE.INTRA.SOLV.lig_0>
-104.479

>  <SCORE.INTRA.VDW>
2.10001

>  <SCORE.INTRA.VDW.0>
-6.17816

>  <SCORE.INTRA.norm>
-0.00256978

>  <SCORE.RESTR>
12.1592

>  <SCORE.RESTR.CAVITY>
12.1592

>  <SCORE.RESTR.norm>
0.289505

>  <SCORE.SYSTEM>
0

>  <SCORE.SYSTEM.CONST>
0

>  <SCORE.SYSTEM.DIHEDRAL>
0

>  <SCORE.SYSTEM.SOLV>
0

>  <SCORE.SYSTEM.norm>
0

>  <SCORE.heavy>
42

>  <SCORE.norm>
0.249359

>  <RMSD>
19.097

$$$$
ligand
 OpenBabel02271912133D
libRbt.so/2013.1/901 2013/11/27
 42 45  0  0  0  0  0  0  0  0999 V2000
   12.1154   12.3862   -6.3485 C   0  0  2  0  0  0  0  0  0  0  0  0
   12.3858   12.2120   -7.7498 O   0  0  0  0  0  0  0  0  0  0  0  0
   11.0225    9.1759  -10.5282 C   0  0  2  0  0  0  0  0  0  0  0  0
   10.1615    8.3247  -11.4026 N   0  0  0  0  0  0  0  0  0  0  0  0
   12.0690   13.8099  -11.3116 C   0  0  1  0  0  0  0  0  0  0  0  0
   12.9748   16.0908  -14.9092 C   0  0  1  0  0  0  0  0  0  0  0  0
   12.6302   13.8044   -5.9586 C   0  0  2  0  0  0  0  0  0  0  0  0
   12.1464   14.8514   -6.8752 N   0  0  0  0  0  0  0  0  0  0  0  0
   10.6422    9.0007   -9.0029 C   0  0  0  0  0  0  0  0  0  0  0  0
   11.7828   13.2240  -12.7278 C   0  0  2  0  0  0  0  0  0  0  0  0
   12.7706   12.2652  -13.1795 O   0  0  0  0  0  0  0  0  0  0  0  0
   14.1886   16.2046  -15.9005 C   0  0  2  0  0  0  0  0  0  0  0  0
   15.4864   16.0864  -15.1705 N   0  0  0  0  0  0  0  0  0  0  0  0
   14.1677   13.8885   -5.9592 C   0  0  1  0  0  0  0  0  0  0  0  0
   14.5947   15.1915   -5.5585 O   0  0  0  0  0  0  0  0  0  0  0  0
   11.5963    9.9031   -8.1323 C   0  0  2  0  0  0  0  0  0  0  0  0
   11.2755    9.7515   -6.6874 N   0  0  0  0  0  0  0  0  0  0  0  0
   11.6708   14.5018  -13.5608 C   0  0  2  0  0  0  0  0  0  0  0  0
   12.9669   14.9019  -14.1092 O   0  0  0  0  0  0  0  0  0  0  0  0
   14.0974   17.5953  -16.6906 C   0  0  1  0  0  0  0  0  0  0  0  0
   13.0330   17.5102  -17.6647 O   0  0  0  0  0  0  0  0  0  0  0  0
   14.7442   12.7953   -5.0308 C   0  0  2  0  0  0  0  0  0  0  0  0
   16.1508   12.8696   -5.0073 O   0  0  0  0  0  0  0  0  0  0  0  0
   11.4607   11.4209   -8.5490 C   0  0  2  0  0  0  0  0  0  0  0  0
   11.1099   15.5772  -12.6151 C   0  0  2  0  0  0  0  0  0  0  0  0
   11.6203   15.1842  -11.3433 O   0  0  0  0  0  0  0  0  0  0  0  0
   13.8388   18.8453  -15.7220 C   0  0  2  0  0  0  0  0  0  0  0  0
   15.0222   19.0441  -14.9497 O   0  0  0  0  0  0  0  0  0  0  0  0
   14.2730   11.3924   -5.5401 C   0  0  2  0  0  0  0  0  0  0  0  0
   12.8112   11.3435   -5.5646 O   0  0  0  0  0  0  0  0  0  0  0  0
   11.7633   11.6607  -10.0444 C   0  0  2  0  0  0  0  0  0  0  0  0
   11.4141   13.0513  -10.2866 O   0  0  0  0  0  0  0  0  0  0  0  0
    9.5534   15.6821  -12.5872 C   0  0  0  0  0  0  0  0  0  0  0  0
    9.1697   16.7607  -11.7397 O   0  0  0  0  0  0  0  0  0  0  0  0
   12.6097   18.5701  -14.7755 C   0  0  1  0  0  0  0  0  0  0  0  0
   12.9267   17.3319  -14.0429 O   0  0  0  0  0  0  0  0  0  0  0  0
   14.7879   10.2595   -4.6827 C   0  0  0  0  0  0  0  0  0  0  0  0
   16.1352    9.9937   -4.9884 O   0  0  0  0  0  0  0  0  0  0  0  0
   10.8836   10.6952  -10.9442 C   0  0  1  0  0  0  0  0  0  0  0  0
   11.2716   10.8095  -12.3160 O   0  0  0  0  0  0  0  0  0  0  0  0
   12.3020   19.7494  -13.7542 C   0  0  0  0  0  0  0  0  0  0  0  0
   11.3654   19.4123  -12.6471 N   0  0  0  0  0  0  0  0  0  0  0  0
  1  2  1  6  0  0  0
  1  7  1  0  0  0  0
  1 30  1  0  0  0  0
  3  4  1  6  0  0  0
  3  9  1  0  0  0  0
  3 39  1  0  0  0  0
  5 10  1  0  0  0  0
  5 26  1  0  0  0  0
  5 32  1  1  0  0  0
  6 12  1  0  0  0  0
  6 36  1  0  0  0  0
  6 19  1  1  0  0  0
  7  8  1  6  0  0  0
  7 14  1  0  0  0  0
  9 16  1  0  0  0  0
 10 11  1  6  0  0  0
 10 18  1  0  0  0  0
 12 13  1  1  0  0  0
 12 20  1  0  0  0  0
 14 15  1  1  0  0  0
 14 22  1  0  0  0  0
 16 17  1  1  0  0  0
 16 24  1  0  0  0  0
 18 19  1  1  0  0  0
 18 25  1  0  0  0  0
 20 21  1  6  0  0  0
 20 27  1  0  0  0  0
 22 23  1  6  0  0  0
 22 29  1  0  0  0  0
 24  2  1  1  0  0  0
 24 31  1  0  0  0  0
 25 26  1  0  0  0  0
 25 33  1  1  0  0  0
 27 28  1  1  0  0  0
 27 35  1  0  0  0  0
 29 30  1  0  0  0  0
 29 37  1  1  0  0  0
 31 32  1  6  0  0  0
 31 39  1  0  0  0  0
 33 34  1  0  0  0  0
 35 36  1  0  0  0  0
 35 41  1  1  0  0  0
 37 38  1  0  0  0  0
 39 40  1  6  0  0  0
 41 42  1  0  0  0  0
M  END
>  <CHROM.1>
-146.74761479,-70.28958955,179.97360222,-158.06685481,-176.55894447,-77.94632039
151.78597201,63.71243841,-166.55430003,12.61527593,13.90137701,-10.62573769
-1.51356514,-1.02951829,-0.89920493

>  <Name>
ligand

>  <RI>
0

>  <Rbt.Current_Directory>
/home/itssahil/PROJECTS/Mol_Feturizer/Test_systems_manuscript/rnas/2o3w

>  <Rbt.Executable>
rbdock ($Id: //depot/dev/client3/rdock/2013.1/src/exe/rbdock.cxx#4 $)

>  <Rbt.Library>
libRbt.so (2013.1, Build901 2013/11/27)

>  <Rbt.Parameter_File>
/export/apps/rDock/src/rDock_2013.1_src/data/scripts/dock_solv.prm

>  <Rbt.Receptor>
prm/blind_docking_100.prm

>  <SCORE>
4.39671

>  <SCORE.INTER>
-0.604091

>  <SCORE.INTER.CONST>
1

>  <SCORE.INTER.POLAR>
0

>  <SCORE.INTER.ROT>
9

>  <SCORE.INTER.SOLV>
30.745

>  <SCORE.INTER.VDW>
-20.2511

>  <SCORE.INTER.norm>
-0.0143831

>  <SCORE.INTRA>
-0.958633

>  <SCORE.INTRA.DIHEDRAL>
-15.8771

>  <SCORE.INTRA.DIHEDRAL.0>
27.8999

>  <SCORE.INTRA.POLAR>
0

>  <SCORE.INTRA.POLAR.0>
0

>  <SCORE.INTRA.REPUL>
0

>  <SCORE.INTRA.REPUL.0>
0

>  <SCORE.INTRA.SOLV>
-0.664645

>  <SCORE.INTRA.SOLV.lig_0>
-104.479

>  <SCORE.INTRA.VDW>
7.31222

>  <SCORE.INTRA.VDW.0>
-6.17816

>  <SCORE.INTRA.norm>
-0.0228246

>  <SCORE.RESTR>
5.95944

>  <SCORE.RESTR.CAVITY>
5.95944

>  <SCORE.RESTR.norm>
0.141891

>  <SCORE.SYSTEM>
0

>  <SCORE.SYSTEM.CONST>
0

>  <SCORE.SYSTEM.DIHEDRAL>
0

>  <SCORE.SYSTEM.SOLV>
0

>  <SCORE.SYSTEM.norm>
0

>  <SCORE.heavy>
42

>  <SCORE.norm>
0.104684

>  <RMSD>
19.147

$$$$
ligand
 OpenBabel02271912133D
libRbt.so/2013.1/901 2013/11/27
 42 45  0  0  0  0  0  0  0  0999 V2000
   11.3354   14.4416  -12.9068 C   0  0  2  0  0  0  0  0  0  0  0  0
   12.2686   13.9184  -11.9462 O   0  0  0  0  0  0  0  0  0  0  0  0
   12.0077    9.7459  -13.0944 C   0  0  2  0  0  0  0  0  0  0  0  0
   12.1473    8.2591  -13.1120 N   0  0  0  0  0  0  0  0  0  0  0  0
   11.2765   11.5779   -9.1702 C   0  0  1  0  0  0  0  0  0  0  0  0
   14.3805   10.7387   -5.9874 C   0  0  1  0  0  0  0  0  0  0  0  0
   11.8927   15.8178  -13.3797 C   0  0  2  0  0  0  0  0  0  0  0  0
   13.3078   15.7445  -13.7832 N   0  0  0  0  0  0  0  0  0  0  0  0
   13.4155   10.4561  -13.2191 C   0  0  0  0  0  0  0  0  0  0  0  0
   12.8225   11.7755   -9.1317 C   0  0  2  0  0  0  0  0  0  0  0  0
   13.5705   10.6897   -9.7323 O   0  0  0  0  0  0  0  0  0  0  0  0
   14.1128   11.6172   -4.7124 C   0  0  2  0  0  0  0  0  0  0  0  0
   13.7744   13.0211   -5.0935 N   0  0  0  0  0  0  0  0  0  0  0  0
   11.7982   16.8946  -12.2830 C   0  0  1  0  0  0  0  0  0  0  0  0
   12.2823   18.1465  -12.7721 O   0  0  0  0  0  0  0  0  0  0  0  0
   13.2015   12.0171  -13.2173 C   0  0  2  0  0  0  0  0  0  0  0  0
   14.5071   12.7185  -13.3481 N   0  0  0  0  0  0  0  0  0  0  0  0
   13.0569   11.9932   -7.6360 C   0  0  2  0  0  0  0  0  0  0  0  0
   13.3117   10.7307   -6.9419 O   0  0  0  0  0  0  0  0  0  0  0  0
   15.4008   11.5737   -3.7605 C   0  0  1  0  0  0  0  0  0  0  0  0
   15.4644   10.2800   -3.1193 O   0  0  0  0  0  0  0  0  0  0  0  0
   10.3358   17.0066  -11.7951 C   0  0  2  0  0  0  0  0  0  0  0  0
   10.2293   18.0002  -10.8022 O   0  0  0  0  0  0  0  0  0  0  0  0
   12.4822   12.4792  -11.8888 C   0  0  2  0  0  0  0  0  0  0  0  0
   11.7864   12.6761   -7.1022 C   0  0  2  0  0  0  0  0  0  0  0  0
   10.7633   12.1572   -7.9487 O   0  0  0  0  0  0  0  0  0  0  0  0
   16.7676   11.8483   -4.5504 C   0  0  2  0  0  0  0  0  0  0  0  0
   16.7664   13.2180   -4.9505 O   0  0  0  0  0  0  0  0  0  0  0  0
    9.8753   15.6178  -11.2393 C   0  0  2  0  0  0  0  0  0  0  0  0
   10.0041   14.6025  -12.2844 O   0  0  0  0  0  0  0  0  0  0  0  0
   11.1215   11.7819  -11.6708 C   0  0  2  0  0  0  0  0  0  0  0  0
   10.6987   12.1778  -10.3370 O   0  0  0  0  0  0  0  0  0  0  0  0
   11.8109   14.2356   -7.1426 C   0  0  0  0  0  0  0  0  0  0  0  0
   13.0604   14.6996   -6.6402 O   0  0  0  0  0  0  0  0  0  0  0  0
   16.8780   10.9117   -5.8125 C   0  0  1  0  0  0  0  0  0  0  0  0
   15.6802   11.1799   -6.6271 O   0  0  0  0  0  0  0  0  0  0  0  0
    8.4477   15.6342  -10.7438 C   0  0  0  0  0  0  0  0  0  0  0  0
    7.5887   16.1014  -11.7554 O   0  0  0  0  0  0  0  0  0  0  0  0
   11.2905   10.2075  -11.7628 C   0  0  1  0  0  0  0  0  0  0  0  0
   10.0111    9.5701  -11.7124 O   0  0  0  0  0  0  0  0  0  0  0  0
   18.1930   11.1414   -6.6764 C   0  0  0  0  0  0  0  0  0  0  0  0
   18.7503   12.5216   -6.6432 N   0  0  0  0  0  0  0  0  0  0  0  0
  1  2  1  1  0  0  0
  1  7  1  0  0  0  0
  1 30  1  0  0  0  0
  3  4  1  1  0  0  0
  3  9  1  0  0  0  0
  3 39  1  0  0  0  0
  5 10  1  0  0  0  0
  5 26  1  0  0  0  0
  5 32  1  6  0  0  0
  6 12  1  0  0  0  0
  6 36  1  0  0  0  0
  6 19  1  6  0  0  0
  7  8  1  1  0  0  0
  7 14  1  0  0  0  0
  9 16  1  0  0  0  0
 10 11  1  1  0  0  0
 10 18  1  0  0  0  0
 12 13  1  6  0  0  0
 12 20  1  0  0  0  0
 14 15  1  6  0  0  0
 14 22  1  0  0  0  0
 16 17  1  1  0  0  0
 16 24  1  0  0  0  0
 18 19  1  1  0  0  0
 18 25  1  0  0  0  0
 20 21  1  6  0  0  0
 20 27  1  0  0  0  0
 22 23  1  1  0  0  0
 22 29  1  0  0  0  0
 24  2  1  6  0  0  0
 24 31  1  0  0  0  0
 25 26  1  0  0  0  0
 25 33  1  6  0  0  0
 27 28  1  6  0  0  0
 27 35  1  0  0  0  0
 29 30  1  0  0  0  0
 29 37  1  6  0  0  0
 31 32  1  1  0  0  0
 31 39  1  0  0  0  0
 33 34  1  0  0  0  0
 35 36  1  0  0  0  0
 35 41  1  6  0  0  0
 37 38  1  0  0  0  0
 39 40  1  6  0  0  0
 41 42  1  0  0  0  0
M  END
>  <CHROM.1>
-145.61838907,67.67308990,136.38718891,67.60511702,-45.77113769,54.52097499
-76.95263610,58.19465086,-29.31228746,12.78376567,12.87956324,-9.46759326
-2.98451996,-1.00103083,0.61907469

>  <Name>
ligand

>  <RI>
0

>  <Rbt.Current_Directory>
/home/itssahil/PROJECTS/Mol_Feturizer/Test_systems_manuscript/rnas/2o3w

>  <Rbt.Executable>
rbdock ($Id: //depot/dev/client3/rdock/2013.1/src/exe/rbdock.cxx#4 $)

>  <Rbt.Library>
libRbt.so (2013.1, Build901 2013/11/27)

>  <Rbt.Parameter_File>
/export/apps/rDock/src/rDock_2013.1_src/data/scripts/dock_solv.prm

>  <Rbt.Receptor>
prm/blind_docking_40.prm

>  <SCORE>
12.2566

>  <SCORE.INTER>
-3.36452

>  <SCORE.INTER.CONST>
1

>  <SCORE.INTER.POLAR>
0

>  <SCORE.INTER.ROT>
9

>  <SCORE.INTER.SOLV>
26.3361

>  <SCORE.INTER.VDW>
-20.6217

>  <SCORE.INTER.norm>
-0.0801075

>  <SCORE.INTRA>
-0.139757

>  <SCORE.INTRA.DIHEDRAL>
-11.9726

>  <SCORE.INTRA.DIHEDRAL.0>
27.8999

>  <SCORE.INTRA.POLAR>
0

>  <SCORE.INTRA.POLAR.0>
0

>  <SCORE.INTRA.REPUL>
0

>  <SCORE.INTRA.REPUL.0>
0

>  <SCORE.INTRA.SOLV>
3.17215

>  <SCORE.INTRA.SOLV.lig_0>
-104.479

>  <SCORE.INTRA.VDW>
4.26048

>  <SCORE.INTRA.VDW.0>
-6.17816

>  <SCORE.INTRA.norm>
-0.00332755

>  <SCORE.RESTR>
15.7609

>  <SCORE.RESTR.CAVITY>
15.7609

>  <SCORE.RESTR.norm>
0.37526

>  <SCORE.SYSTEM>
0

>  <SCORE.SYSTEM.CONST>
0

>  <SCORE.SYSTEM.DIHEDRAL>
0

>  <SCORE.SYSTEM.SOLV>
0

>  <SCORE.SYSTEM.norm>
0

>  <SCORE.heavy>
42

>  <SCORE.norm>
0.291825

>  <RMSD>
19.153

$$$$
ligand
 OpenBabel02271912133D
libRbt.so/2013.1/901 2013/11/27
 42 45  0  0  0  0  0  0  0  0999 V2000
   11.0247   16.1716  -10.5867 C   0  0  2  0  0  0  0  0  0  0  0  0
   10.8484   14.8605  -11.1498 O   0  0  0  0  0  0  0  0  0  0  0  0
   12.9735   11.9949  -13.6133 C   0  0  2  0  0  0  0  0  0  0  0  0
   14.0382   11.2948  -14.3922 N   0  0  0  0  0  0  0  0  0  0  0  0
   12.9675   12.4049   -8.8525 C   0  0  1  0  0  0  0  0  0  0  0  0
   13.4198   10.9825   -6.2614 C   0  0  1  0  0  0  0  0  0  0  0  0
    9.7333   16.4967   -9.7775 C   0  0  2  0  0  0  0  0  0  0  0  0
    9.3572   15.4106   -8.8558 N   0  0  0  0  0  0  0  0  0  0  0  0
   12.6216   13.3974  -14.2544 C   0  0  0  0  0  0  0  0  0  0  0  0
   11.5520   12.1672   -8.2436 C   0  0  2  0  0  0  0  0  0  0  0  0
   11.2314   13.0458   -7.1371 O   0  0  0  0  0  0  0  0  0  0  0  0
   14.2165   10.1953   -5.1594 C   0  0  2  0  0  0  0  0  0  0  0  0
   13.4254   10.0981   -3.8963 N   0  0  0  0  0  0  0  0  0  0  0  0
    8.5187   16.7456  -10.6906 C   0  0  1  0  0  0  0  0  0  0  0  0
    7.3694   17.0781   -9.9100 O   0  0  0  0  0  0  0  0  0  0  0  0
   11.4810   14.0751  -13.4046 C   0  0  2  0  0  0  0  0  0  0  0  0
   11.1140   15.3932  -13.9891 N   0  0  0  0  0  0  0  0  0  0  0  0
   11.6198   10.6766   -7.9076 C   0  0  2  0  0  0  0  0  0  0  0  0
   12.1200   10.4532   -6.5509 O   0  0  0  0  0  0  0  0  0  0  0  0
   15.6221   10.9204   -4.9037 C   0  0  1  0  0  0  0  0  0  0  0  0
   16.4940   10.6584   -6.0262 O   0  0  0  0  0  0  0  0  0  0  0  0
    8.8556   17.8633  -11.7036 C   0  0  2  0  0  0  0  0  0  0  0  0
    7.7477   18.1149  -12.5365 O   0  0  0  0  0  0  0  0  0  0  0  0
   11.9433   14.2698  -11.9065 C   0  0  2  0  0  0  0  0  0  0  0  0
   12.5523   10.0471   -8.9561 C   0  0  2  0  0  0  0  0  0  0  0  0
   13.4577   11.1062   -9.2577 O   0  0  0  0  0  0  0  0  0  0  0  0
   15.4770   12.5026   -4.6957 C   0  0  2  0  0  0  0  0  0  0  0  0
   14.8255   12.7147   -3.4439 O   0  0  0  0  0  0  0  0  0  0  0  0
   10.0969   17.4270  -12.5513 C   0  0  2  0  0  0  0  0  0  0  0  0
   11.2298   17.1626  -11.6645 O   0  0  0  0  0  0  0  0  0  0  0  0
   12.3579   12.9444  -11.2308 C   0  0  2  0  0  0  0  0  0  0  0  0
   12.9206   13.3301   -9.9466 O   0  0  0  0  0  0  0  0  0  0  0  0
   11.8406    9.5327  -10.2457 C   0  0  0  0  0  0  0  0  0  0  0  0
   10.8538    8.5704   -9.8864 O   0  0  0  0  0  0  0  0  0  0  0  0
   14.6350   13.1419   -5.8638 C   0  0  1  0  0  0  0  0  0  0  0  0
   13.3389   12.4416   -5.8646 O   0  0  0  0  0  0  0  0  0  0  0  0
   10.5019   18.4689  -13.5682 C   0  0  0  0  0  0  0  0  0  0  0  0
   11.0969   19.5692  -12.9245 O   0  0  0  0  0  0  0  0  0  0  0  0
   13.4386   12.1920  -12.1149 C   0  0  1  0  0  0  0  0  0  0  0  0
   13.7096   10.8985  -11.5681 O   0  0  0  0  0  0  0  0  0  0  0  0
   14.4125   14.7097   -5.7188 C   0  0  0  0  0  0  0  0  0  0  0  0
   15.6441   15.5149   -5.4918 N   0  0  0  0  0  0  0  0  0  0  0  0
  1  2  1  6  0  0  0
  1  7  1  0  0  0  0
  1 30  1  0  0  0  0
  3  4  1  6  0  0  0
  3  9  1  0  0  0  0
  3 39  1  0  0  0  0
  5 10  1  0  0  0  0
  5 26  1  0  0  0  0
  5 32  1  6  0  0  0
  6 12  1  0  0  0  0
  6 36  1  0  0  0  0
  6 19  1  1  0  0  0
  7  8  1  1  0  0  0
  7 14  1  0  0  0  0
  9 16  1  0  0  0  0
 10 11  1  1  0  0  0
 10 18  1  0  0  0  0
 12 13  1  1  0  0  0
 12 20  1  0  0  0  0
 14 15  1  1  0  0  0
 14 22  1  0  0  0  0
 16 17  1  6  0  0  0
 16 24  1  0  0  0  0
 18 19  1  1  0  0  0
 18 25  1  0  0  0  0
 20 21  1  6  0  0  0
 20 27  1  0  0  0  0
 22 23  1  6  0  0  0
 22 29  1  0  0  0  0
 24  2  1  1  0  0  0
 24 31  1  0  0  0  0
 25 26  1  0  0  0  0
 25 33  1  6  0  0  0
 27 28  1  1  0  0  0
 27 35  1  0  0  0  0
 29 30  1  0  0  0  0
 29 37  1  6  0  0  0
 31 32  1  1  0  0  0
 31 39  1  0  0  0  0
 33 34  1  0  0  0  0
 35 36  1  0  0  0  0
 35 41  1  1  0  0  0
 37 38  1  0  0  0  0
 39 40  1  1  0  0  0
 41 42  1  0  0  0  0
M  END
>  <CHROM.1>
-176.84648040,-116.04546396,-58.37814693,-151.41617178,-57.90017459,72.32239668
157.01195133,-72.79072493,51.63754877,12.19369572,13.50986414,-9.43265384
2.78637872,1.09364368,-2.04913071

>  <Name>
ligand

>  <RI>
0

>  <Rbt.Current_Directory>
/home/itssahil/PROJECTS/Mol_Feturizer/Test_systems_manuscript/rnas/2o3w

>  <Rbt.Executable>
rbdock ($Id: //depot/dev/client3/rdock/2013.1/src/exe/rbdock.cxx#4 $)

>  <Rbt.Library>
libRbt.so (2013.1, Build901 2013/11/27)

>  <Rbt.Parameter_File>
/export/apps/rDock/src/rDock_2013.1_src/data/scripts/dock_solv.prm

>  <Rbt.Receptor>
prm/blind_docking_40.prm

>  <SCORE>
5.89073

>  <SCORE.INTER>
-5.26392

>  <SCORE.INTER.CONST>
1

>  <SCORE.INTER.POLAR>
0

>  <SCORE.INTER.ROT>
9

>  <SCORE.INTER.SOLV>
30.8496

>  <SCORE.INTER.VDW>
-23.3925

>  <SCORE.INTER.norm>
-0.125331

>  <SCORE.INTRA>
-1.77565

>  <SCORE.INTRA.DIHEDRAL>
-13.4749

>  <SCORE.INTRA.DIHEDRAL.0>
27.8999

>  <SCORE.INTRA.POLAR>
0

>  <SCORE.INTRA.POLAR.0>
0

>  <SCORE.INTRA.REPUL>
0

>  <SCORE.INTRA.REPUL.0>
0

>  <SCORE.INTRA.SOLV>
0.632804

>  <SCORE.INTRA.SOLV.lig_0>
-104.479

>  <SCORE.INTRA.VDW>
4.64538

>  <SCORE.INTRA.VDW.0>
-6.17816

>  <SCORE.INTRA.norm>
-0.0422774

>  <SCORE.RESTR>
12.9303

>  <SCORE.RESTR.CAVITY>
12.9303

>  <SCORE.RESTR.norm>
0.307864

>  <SCORE.SYSTEM>
0

>  <SCORE.SYSTEM.CONST>
0

>  <SCORE.SYSTEM.DIHEDRAL>
0

>  <SCORE.SYSTEM.SOLV>
0

>  <SCORE.SYSTEM.norm>
0

>  <SCORE.heavy>
42

>  <SCORE.norm>
0.140255

>  <RMSD>
19.269

$$$$
ligand
 OpenBabel02271912133D
libRbt.so/2013.1/901 2013/11/27
 42 45  0  0  0  0  0  0  0  0999 V2000
   11.1089   15.0263  -13.2337 C   0  0  2  0  0  0  0  0  0  0  0  0
   12.4506   15.0043  -12.7173 O   0  0  0  0  0  0  0  0  0  0  0  0
   12.7463   10.7530  -11.9204 C   0  0  2  0  0  0  0  0  0  0  0  0
   13.1850    9.4274  -11.3905 N   0  0  0  0  0  0  0  0  0  0  0  0
   11.6299   13.6107   -8.7608 C   0  0  1  0  0  0  0  0  0  0  0  0
   12.4591   12.6433   -6.0105 C   0  0  1  0  0  0  0  0  0  0  0  0
   11.0498   16.1621  -14.2988 C   0  0  2  0  0  0  0  0  0  0  0  0
   12.1485   16.0759  -15.2765 N   0  0  0  0  0  0  0  0  0  0  0  0
   13.8696   11.4127  -12.8175 C   0  0  0  0  0  0  0  0  0  0  0  0
   12.0178   14.6921   -7.7069 C   0  0  2  0  0  0  0  0  0  0  0  0
   13.3868   14.5980   -7.2423 O   0  0  0  0  0  0  0  0  0  0  0  0
   12.0435   11.1741   -6.3816 C   0  0  2  0  0  0  0  0  0  0  0  0
   11.2717   10.5413   -5.2704 N   0  0  0  0  0  0  0  0  0  0  0  0
   11.1281   17.5629  -13.6642 C   0  0  1  0  0  0  0  0  0  0  0  0
   11.0305   18.5713  -14.6714 O   0  0  0  0  0  0  0  0  0  0  0  0
   13.3413   12.7930  -13.3636 C   0  0  2  0  0  0  0  0  0  0  0  0
   14.3695   13.4362  -14.2255 N   0  0  0  0  0  0  0  0  0  0  0  0
   10.9409   14.4703   -6.6437 C   0  0  2  0  0  0  0  0  0  0  0  0
   11.3690   13.4963   -5.6393 O   0  0  0  0  0  0  0  0  0  0  0  0
   13.3572   10.3243   -6.7266 C   0  0  1  0  0  0  0  0  0  0  0  0
   13.8555   10.7383   -8.0185 O   0  0  0  0  0  0  0  0  0  0  0  0
   10.0117   17.7125  -12.6057 C   0  0  2  0  0  0  0  0  0  0  0  0
   10.0592   18.9960  -12.0271 O   0  0  0  0  0  0  0  0  0  0  0  0
   12.9705   13.7591  -12.1699 C   0  0  2  0  0  0  0  0  0  0  0  0
    9.6935   13.9808   -7.3985 C   0  0  2  0  0  0  0  0  0  0  0  0
   10.2457   13.2770   -8.5086 O   0  0  0  0  0  0  0  0  0  0  0  0
   14.5119   10.4907   -5.6282 C   0  0  2  0  0  0  0  0  0  0  0  0
   14.0695    9.8428   -4.4363 O   0  0  0  0  0  0  0  0  0  0  0  0
   10.1923   16.6063  -11.5134 C   0  0  2  0  0  0  0  0  0  0  0  0
   10.1490   15.2850  -12.1394 O   0  0  0  0  0  0  0  0  0  0  0  0
   11.9162   13.1555  -11.2163 C   0  0  2  0  0  0  0  0  0  0  0  0
   11.8369   14.0824  -10.0987 O   0  0  0  0  0  0  0  0  0  0  0  0
    8.7269   15.1094   -7.8740 C   0  0  0  0  0  0  0  0  0  0  0  0
    7.7538   14.5554   -8.7544 O   0  0  0  0  0  0  0  0  0  0  0  0
   14.7963   12.0146   -5.3472 C   0  0  1  0  0  0  0  0  0  0  0  0
   13.5121   12.5990   -4.9233 O   0  0  0  0  0  0  0  0  0  0  0  0
    9.1344   16.6744  -10.4364 C   0  0  0  0  0  0  0  0  0  0  0  0
    7.8536   16.5574  -11.0067 O   0  0  0  0  0  0  0  0  0  0  0  0
   12.3785   11.7202  -10.7247 C   0  0  1  0  0  0  0  0  0  0  0  0
   11.3372   11.0995   -9.9656 O   0  0  0  0  0  0  0  0  0  0  0  0
   15.9093   12.2725   -4.2411 C   0  0  0  0  0  0  0  0  0  0  0  0
   17.2866   11.8376   -4.6024 N   0  0  0  0  0  0  0  0  0  0  0  0
  1  2  1  1  0  0  0
  1  7  1  0  0  0  0
  1 30  1  0  0  0  0
  3  4  1  1  0  0  0
  3  9  1  0  0  0  0
  3 39  1  0  0  0  0
  5 10  1  0  0  0  0
  5 26  1  0  0  0  0
  5 32  1  6  0  0  0
  6 12  1  0  0  0  0
  6 36  1  0  0  0  0
  6 19  1  1  0  0  0
  7  8  1  6  0  0  0
  7 14  1  0  0  0  0
  9 16  1  0  0  0  0
 10 11  1  1  0  0  0
 10 18  1  0  0  0  0
 12 13  1  1  0  0  0
 12 20  1  0  0  0  0
 14 15  1  6  0  0  0
 14 22  1  0  0  0  0
 16 17  1  1  0  0  0
 16 24  1  0  0  0  0
 18 19  1  1  0  0  0
 18 25  1  0  0  0  0
 20 21  1  6  0  0  0
 20 27  1  0  0  0  0
 22 23  1  1  0  0  0
 22 29  1  0  0  0  0
 24  2  1  6  0  0  0
 24 31  1  0  0  0  0
 25 26  1  0  0  0  0
 25 33  1  6  0  0  0
 27 28  1  1  0  0  0
 27 35  1  0  0  0  0
 29 30  1  0  0  0  0
 29 37  1  1  0  0  0
 31 32  1  1  0  0  0
 31 39  1  0  0  0  0
 33 34  1  0  0  0  0
 35 36  1  0  0  0  0
 35 41  1  1  0  0  0
 37 38  1  0  0  0  0
 39 40  1  6  0  0  0
 41 42  1  0  0  0  0
M  END
>  <CHROM.1>
-153.96049718,76.17417333,-18.50078552,-104.13907465,169.66299270,57.79112602
-143.88597362,162.21248667,66.04337956,11.94818865,13.69627190,-9.54334843
-2.04484067,-0.80644619,1.80272831

>  <Name>
ligand

>  <RI>
0

>  <Rbt.Current_Directory>
/home/itssahil/PROJECTS/Mol_Feturizer/Test_systems_manuscript/rnas/2o3w

>  <Rbt.Executable>
rbdock ($Id: //depot/dev/client3/rdock/2013.1/src/exe/rbdock.cxx#4 $)

>  <Rbt.Library>
libRbt.so (2013.1, Build901 2013/11/27)

>  <Rbt.Parameter_File>
/export/apps/rDock/src/rDock_2013.1_src/data/scripts/dock_solv.prm

>  <Rbt.Receptor>
prm/blind_docking_40.prm

>  <SCORE>
24.8254

>  <SCORE.INTER>
5.83353

>  <SCORE.INTER.CONST>
1

>  <SCORE.INTER.POLAR>
0

>  <SCORE.INTER.ROT>
9

>  <SCORE.INTER.SOLV>
26.1228

>  <SCORE.INTER.VDW>
-14.4186

>  <SCORE.INTER.norm>
0.138894

>  <SCORE.INTRA>
3.06345

>  <SCORE.INTRA.DIHEDRAL>
-5.41926

>  <SCORE.INTRA.DIHEDRAL.0>
27.8999

>  <SCORE.INTRA.POLAR>
0

>  <SCORE.INTRA.POLAR.0>
0

>  <SCORE.INTRA.REPUL>
0

>  <SCORE.INTRA.REPUL.0>
0

>  <SCORE.INTRA.SOLV>
-0.599325

>  <SCORE.INTRA.SOLV.lig_0>
-104.479

>  <SCORE.INTRA.VDW>
6.07275

>  <SCORE.INTRA.VDW.0>
-6.17816

>  <SCORE.INTRA.norm>
0.0729394

>  <SCORE.RESTR>
15.9284

>  <SCORE.RESTR.CAVITY>
15.9284

>  <SCORE.RESTR.norm>
0.379248

>  <SCORE.SYSTEM>
0

>  <SCORE.SYSTEM.CONST>
0

>  <SCORE.SYSTEM.DIHEDRAL>
0

>  <SCORE.SYSTEM.SOLV>
0

>  <SCORE.SYSTEM.norm>
0

>  <SCORE.heavy>
42

>  <SCORE.norm>
0.591081

>  <RMSD>
19.292

$$$$
ligand
 OpenBabel02271912133D
libRbt.so/2013.1/901 2013/11/27
 42 45  0  0  0  0  0  0  0  0999 V2000
   12.4623   12.5110   -6.6549 C   0  0  2  0  0  0  0  0  0  0  0  0
   12.9682   12.6344   -7.9951 O   0  0  0  0  0  0  0  0  0  0  0  0
   12.6412   10.1627  -11.5420 C   0  0  2  0  0  0  0  0  0  0  0  0
   12.0950    9.3673  -12.6818 N   0  0  0  0  0  0  0  0  0  0  0  0
   11.8145   14.6565  -11.5073 C   0  0  1  0  0  0  0  0  0  0  0  0
   11.9916   16.8445  -14.0193 C   0  0  1  0  0  0  0  0  0  0  0  0
   12.8356   13.8249   -5.9049 C   0  0  2  0  0  0  0  0  0  0  0  0
   12.4587   15.0321   -6.6607 N   0  0  0  0  0  0  0  0  0  0  0  0
   12.2642    9.5081  -10.1523 C   0  0  0  0  0  0  0  0  0  0  0  0
   10.4831   14.4281  -12.2858 C   0  0  2  0  0  0  0  0  0  0  0  0
   10.5825   13.4487  -13.3487 O   0  0  0  0  0  0  0  0  0  0  0  0
   11.8926   18.4054  -14.1701 C   0  0  2  0  0  0  0  0  0  0  0  0
   11.1402   18.7751  -15.4063 N   0  0  0  0  0  0  0  0  0  0  0  0
   14.3462   13.9290   -5.6251 C   0  0  1  0  0  0  0  0  0  0  0  0
   14.6369   15.1268   -4.9029 O   0  0  0  0  0  0  0  0  0  0  0  0
   12.8852   10.3768   -8.9938 C   0  0  2  0  0  0  0  0  0  0  0  0
   12.5617    9.7805   -7.6696 N   0  0  0  0  0  0  0  0  0  0  0  0
   10.1492   15.8538  -12.7279 C   0  0  2  0  0  0  0  0  0  0  0  0
   10.7315   16.1622  -14.0342 O   0  0  0  0  0  0  0  0  0  0  0  0
   13.3680   19.0297  -14.1859 C   0  0  1  0  0  0  0  0  0  0  0  0
   13.9114   18.9782  -12.8476 O   0  0  0  0  0  0  0  0  0  0  0  0
   14.8148   12.6756   -4.8513 C   0  0  2  0  0  0  0  0  0  0  0  0
   16.1929   12.7633   -4.5726 O   0  0  0  0  0  0  0  0  0  0  0  0
   12.3403   11.8584   -9.0553 C   0  0  2  0  0  0  0  0  0  0  0  0
   10.7101   16.7794  -11.6352 C   0  0  2  0  0  0  0  0  0  0  0  0
   11.8416   16.0583  -11.1533 O   0  0  0  0  0  0  0  0  0  0  0  0
   14.3542   18.2697  -15.1944 C   0  0  2  0  0  0  0  0  0  0  0  0
   13.9185   18.5580  -16.5224 O   0  0  0  0  0  0  0  0  0  0  0  0
   14.5033   11.4020   -5.7059 C   0  0  2  0  0  0  0  0  0  0  0  0
   13.0697   11.3386   -5.9899 O   0  0  0  0  0  0  0  0  0  0  0  0
   12.6233   12.5448  -10.4096 C   0  0  2  0  0  0  0  0  0  0  0  0
   11.9028   13.8068  -10.3561 O   0  0  0  0  0  0  0  0  0  0  0  0
    9.7178   17.1064  -10.4765 C   0  0  0  0  0  0  0  0  0  0  0  0
    8.4905   17.5755  -11.0264 O   0  0  0  0  0  0  0  0  0  0  0  0
   14.3242   16.7158  -14.9360 C   0  0  1  0  0  0  0  0  0  0  0  0
   12.9182   16.3029  -15.0876 O   0  0  0  0  0  0  0  0  0  0  0  0
   14.9249   10.1235   -5.0192 C   0  0  0  0  0  0  0  0  0  0  0  0
   14.2419    9.9814   -3.7975 O   0  0  0  0  0  0  0  0  0  0  0  0
   12.0927   11.6446  -11.6028 C   0  0  1  0  0  0  0  0  0  0  0  0
   12.4882   12.2054  -12.8576 O   0  0  0  0  0  0  0  0  0  0  0  0
   15.2520   15.8778  -15.9186 C   0  0  0  0  0  0  0  0  0  0  0  0
   15.2574   14.4056  -15.6973 N   0  0  0  0  0  0  0  0  0  0  0  0
  1  2  1  6  0  0  0
  1  7  1  0  0  0  0
  1 30  1  0  0  0  0
  3  4  1  6  0  0  0
  3  9  1  0  0  0  0
  3 39  1  0  0  0  0
  5 10  1  0  0  0  0
  5 26  1  0  0  0  0
  5 32  1  1  0  0  0
  6 12  1  0  0  0  0
  6 36  1  0  0  0  0
  6 19  1  6  0  0  0
  7  8  1  6  0  0  0
  7 14  1  0  0  0  0
  9 16  1  0  0  0  0
 10 11  1  6  0  0  0
 10 18  1  0  0  0  0
 12 13  1  6  0  0  0
 12 20  1  0  0  0  0
 14 15  1  1  0  0  0
 14 22  1  0  0  0  0
 16 17  1  1  0  0  0
 16 24  1  0  0  0  0
 18 19  1  6  0  0  0
 18 25  1  0  0  0  0
 20 21  1  1  0  0  0
 20 27  1  0  0  0  0
 22 23  1  6  0  0  0
 22 29  1  0  0  0  0
 24  2  1  1  0  0  0
 24 31  1  0  0  0  0
 25 26  1  0  0  0  0
 25 33  1  1  0  0  0
 27 28  1  6  0  0  0
 27 35  1  0  0  0  0
 29 30  1  0  0  0  0
 29 37  1  1  0  0  0
 31 32  1  1  0  0  0
 31 39  1  0  0  0  0
 33 34  1  0  0  0  0
 35 36  1  0  0  0  0
 35 41  1  6  0  0  0
 37 38  1  0  0  0  0
 39 40  1  6  0  0  0
 41 42  1  0  0  0  0
M  END
>  <CHROM.1>
-155.43807967,-79.53369841,-95.96136459,-96.07191616,-51.76612147,60.39885934
-173.12842716,96.38011887,179.54573347,12.72019724,14.22692453,-10.58715490
-0.65270948,-1.40879278,-0.07883510

>  <Name>
ligand

>  <RI>
0

>  <Rbt.Current_Directory>
/home/itssahil/PROJECTS/Mol_Feturizer/Test_systems_manuscript/rnas/2o3w

>  <Rbt.Executable>
rbdock ($Id: //depot/dev/client3/rdock/2013.1/src/exe/rbdock.cxx#4 $)

>  <Rbt.Library>
libRbt.so (2013.1, Build901 2013/11/27)

>  <Rbt.Parameter_File>
/export/apps/rDock/src/rDock_2013.1_src/data/scripts/dock_solv.prm

>  <Rbt.Receptor>
prm/blind_docking_100.prm

>  <SCORE>
5.98194

>  <SCORE.INTER>
-1.39889

>  <SCORE.INTER.CONST>
1

>  <SCORE.INTER.POLAR>
0

>  <SCORE.INTER.ROT>
9

>  <SCORE.INTER.SOLV>
31.584

>  <SCORE.INTER.VDW>
-21.0606

>  <SCORE.INTER.norm>
-0.033307

>  <SCORE.INTRA>
1.92303

>  <SCORE.INTRA.DIHEDRAL>
-8.87384

>  <SCORE.INTRA.DIHEDRAL.0>
27.8999

>  <SCORE.INTRA.POLAR>
0

>  <SCORE.INTRA.POLAR.0>
0

>  <SCORE.INTRA.REPUL>
0

>  <SCORE.INTRA.REPUL.0>
0

>  <SCORE.INTRA.SOLV>
-1.1716

>  <SCORE.INTRA.SOLV.lig_0>
-104.479

>  <SCORE.INTRA.VDW>
6.94575

>  <SCORE.INTRA.VDW.0>
-6.17816

>  <SCORE.INTRA.norm>
0.0457863

>  <SCORE.RESTR>
5.4578

>  <SCORE.RESTR.CAVITY>
5.4578

>  <SCORE.RESTR.norm>
0.129948

>  <SCORE.SYSTEM>
0

>  <SCORE.SYSTEM.CONST>
0

>  <SCORE.SYSTEM.DIHEDRAL>
0

>  <SCORE.SYSTEM.SOLV>
0

>  <SCORE.SYSTEM.norm>
0

>  <SCORE.heavy>
42

>  <SCORE.norm>
0.142427

>  <RMSD>
19.340

$$$$
ligand
 OpenBabel02271912133D
libRbt.so/2013.1/901 2013/11/27
 42 45  0  0  0  0  0  0  0  0999 V2000
   10.8233   14.2547  -11.0069 C   0  0  2  0  0  0  0  0  0  0  0  0
   11.6911   14.3594   -9.8653 O   0  0  0  0  0  0  0  0  0  0  0  0
   12.6832   11.8071   -6.5041 C   0  0  2  0  0  0  0  0  0  0  0  0
   12.5861   10.8556   -5.3570 N   0  0  0  0  0  0  0  0  0  0  0  0
   11.9387   10.5066  -11.0046 C   0  0  1  0  0  0  0  0  0  0  0  0
   13.5053    8.4950  -12.9188 C   0  0  1  0  0  0  0  0  0  0  0  0
   11.7065   14.4756  -12.2716 C   0  0  2  0  0  0  0  0  0  0  0  0
   12.9190   13.6388  -12.2657 N   0  0  0  0  0  0  0  0  0  0  0  0
   11.9059   13.1512   -6.2023 C   0  0  0  0  0  0  0  0  0  0  0  0
   11.3298    9.1181  -10.6412 C   0  0  2  0  0  0  0  0  0  0  0  0
   12.0985    8.3752   -9.6633 O   0  0  0  0  0  0  0  0  0  0  0  0
   14.6225    7.6434  -13.6227 C   0  0  2  0  0  0  0  0  0  0  0  0
   15.1685    6.6083  -12.6945 N   0  0  0  0  0  0  0  0  0  0  0  0
   12.1747   15.9360  -12.4094 C   0  0  1  0  0  0  0  0  0  0  0  0
   12.9461   16.1007  -13.6005 O   0  0  0  0  0  0  0  0  0  0  0  0
   12.0633   14.1195   -7.4353 C   0  0  2  0  0  0  0  0  0  0  0  0
   11.3549   15.4025   -7.1793 N   0  0  0  0  0  0  0  0  0  0  0  0
   11.2160    8.4727  -12.0232 C   0  0  2  0  0  0  0  0  0  0  0  0
   12.4264    7.7277  -12.3704 O   0  0  0  0  0  0  0  0  0  0  0  0
   15.7820    8.6190  -14.1429 C   0  0  1  0  0  0  0  0  0  0  0  0
   15.3019    9.3400  -15.2998 O   0  0  0  0  0  0  0  0  0  0  0  0
   10.9466   16.8745  -12.3981 C   0  0  2  0  0  0  0  0  0  0  0  0
   11.3573   18.2145  -12.5403 O   0  0  0  0  0  0  0  0  0  0  0  0
   11.4899   13.4497   -8.7462 C   0  0  2  0  0  0  0  0  0  0  0  0
   10.9686    9.6254  -13.0109 C   0  0  2  0  0  0  0  0  0  0  0  0
   11.6555   10.7189  -12.4067 O   0  0  0  0  0  0  0  0  0  0  0  0
   16.2666    9.6603  -13.0255 C   0  0  2  0  0  0  0  0  0  0  0  0
   16.9584    8.9218  -12.0193 O   0  0  0  0  0  0  0  0  0  0  0  0
   10.1641   16.6752  -11.0573 C   0  0  2  0  0  0  0  0  0  0  0  0
    9.7573   15.2760  -10.9285 O   0  0  0  0  0  0  0  0  0  0  0  0
   12.1651   12.0999   -9.0737 C   0  0  2  0  0  0  0  0  0  0  0  0
   11.4002   11.5488  -10.1807 O   0  0  0  0  0  0  0  0  0  0  0  0
    9.4671    9.9719  -13.2553 C   0  0  0  0  0  0  0  0  0  0  0  0
    9.3797   11.1317  -14.0775 O   0  0  0  0  0  0  0  0  0  0  0  0
   15.0346   10.4153  -12.3977 C   0  0  1  0  0  0  0  0  0  0  0  0
   14.1444    9.3710  -11.8618 O   0  0  0  0  0  0  0  0  0  0  0  0
    8.9380   17.5537  -10.9635 C   0  0  0  0  0  0  0  0  0  0  0  0
    8.4122   17.5146   -9.6592 O   0  0  0  0  0  0  0  0  0  0  0  0
   12.1060   11.1368   -7.8149 C   0  0  1  0  0  0  0  0  0  0  0  0
   12.8615    9.9487   -8.0667 O   0  0  0  0  0  0  0  0  0  0  0  0
   15.4228   11.4476  -11.2522 C   0  0  0  0  0  0  0  0  0  0  0  0
   14.2905   12.2252  -10.6777 N   0  0  0  0  0  0  0  0  0  0  0  0
  1  2  1  1  0  0  0
  1  7  1  0  0  0  0
  1 30  1  0  0  0  0
  3  4  1  1  0  0  0
  3  9  1  0  0  0  0
  3 39  1  0  0  0  0
  5 10  1  0  0  0  0
  5 26  1  0  0  0  0
  5 32  1  1  0  0  0
  6 12  1  0  0  0  0
  6 36  1  0  0  0  0
  6 19  1  1  0  0  0
  7  8  1  1  0  0  0
  7 14  1  0  0  0  0
  9 16  1  0  0  0  0
 10 11  1  1  0  0  0
 10 18  1  0  0  0  0
 12 13  1  1  0  0  0
 12 20  1  0  0  0  0
 14 15  1  6  0  0  0
 14 22  1  0  0  0  0
 16 17  1  1  0  0  0
 16 24  1  0  0  0  0
 18 19  1  6  0  0  0
 18 25  1  0  0  0  0
 20 21  1  6  0  0  0
 20 27  1  0  0  0  0
 22 23  1  1  0  0  0
 22 29  1  0  0  0  0
 24  2  1  6  0  0  0
 24 31  1  0  0  0  0
 25 26  1  0  0  0  0
 25 33  1  1  0  0  0
 27 28  1  1  0  0  0
 27 35  1  0  0  0  0
 29 30  1  0  0  0  0
 29 37  1  6  0  0  0
 31 32  1  6  0  0  0
 31 39  1  0  0  0  0
 33 34  1  0  0  0  0
 35 36  1  0  0  0  0
 35 41  1  1  0  0  0
 37 38  1  0  0  0  0
 39 40  1  6  0  0  0
 41 42  1  0  0  0  0
M  END
>  <CHROM.1>
-140.84577725,-155.25408733,-83.23375599,-164.64697565,174.27127230,-169.51581745
161.95327272,102.79238239,177.34665197,12.35475356,11.98120335,-11.06863095
-3.13787045,-1.13652532,1.86946447

>  <Name>
ligand

>  <RI>
0

>  <Rbt.Current_Directory>
/home/itssahil/PROJECTS/Mol_Feturizer/Test_systems_manuscript/rnas/2o3w

>  <Rbt.Executable>
rbdock ($Id: //depot/dev/client3/rdock/2013.1/src/exe/rbdock.cxx#4 $)

>  <Rbt.Library>
libRbt.so (2013.1, Build901 2013/11/27)

>  <Rbt.Parameter_File>
/export/apps/rDock/src/rDock_2013.1_src/data/scripts/dock_solv.prm

>  <Rbt.Receptor>
prm/blind_docking_40.prm

>  <SCORE>
15.7955

>  <SCORE.INTER>
2.37586

>  <SCORE.INTER.CONST>
1

>  <SCORE.INTER.POLAR>
0

>  <SCORE.INTER.ROT>
9

>  <SCORE.INTER.SOLV>
36.0261

>  <SCORE.INTER.VDW>
-20.0248

>  <SCORE.INTER.norm>
0.0565681

>  <SCORE.INTRA>
2.65276

>  <SCORE.INTRA.DIHEDRAL>
-8.60422

>  <SCORE.INTRA.DIHEDRAL.0>
27.8999

>  <SCORE.INTRA.POLAR>
0

>  <SCORE.INTRA.POLAR.0>
0

>  <SCORE.INTRA.REPUL>
0

>  <SCORE.INTRA.REPUL.0>
0

>  <SCORE.INTRA.SOLV>
7.15827

>  <SCORE.INTRA.SOLV.lig_0>
-104.479

>  <SCORE.INTRA.VDW>
3.37573

>  <SCORE.INTRA.VDW.0>
-6.17816

>  <SCORE.INTRA.norm>
0.0631609

>  <SCORE.RESTR>
10.7669

>  <SCORE.RESTR.CAVITY>
10.7669

>  <SCORE.RESTR.norm>
0.256355

>  <SCORE.SYSTEM>
0

>  <SCORE.SYSTEM.CONST>
0

>  <SCORE.SYSTEM.DIHEDRAL>
0

>  <SCORE.SYSTEM.SOLV>
0

>  <SCORE.SYSTEM.norm>
0

>  <SCORE.heavy>
42

>  <SCORE.norm>
0.376084

>  <RMSD>
19.351

$$$$
ligand
 OpenBabel02271912133D
libRbt.so/2013.1/901 2013/11/27
 42 45  0  0  0  0  0  0  0  0999 V2000
   10.4094   14.4901  -10.2809 C   0  0  2  0  0  0  0  0  0  0  0  0
   11.2481   14.6196   -9.1203 O   0  0  0  0  0  0  0  0  0  0  0  0
   13.4335   11.5714   -6.9458 C   0  0  2  0  0  0  0  0  0  0  0  0
   13.7737   10.3729   -6.1222 N   0  0  0  0  0  0  0  0  0  0  0  0
   11.5504   11.0109  -11.1485 C   0  0  1  0  0  0  0  0  0  0  0  0
   12.8272    9.0355  -13.0647 C   0  0  1  0  0  0  0  0  0  0  0  0
   11.2645   14.9203  -11.5105 C   0  0  2  0  0  0  0  0  0  0  0  0
   12.5764   14.2507  -11.5469 N   0  0  0  0  0  0  0  0  0  0  0  0
   12.6196   12.6344   -6.1035 C   0  0  0  0  0  0  0  0  0  0  0  0
   10.6465    9.7431  -11.0689 C   0  0  2  0  0  0  0  0  0  0  0  0
   11.1999    8.6745  -10.2621 O   0  0  0  0  0  0  0  0  0  0  0  0
   13.4396    9.2124  -14.5008 C   0  0  2  0  0  0  0  0  0  0  0  0
   13.3933    7.9284  -15.2624 N   0  0  0  0  0  0  0  0  0  0  0  0
   11.5378   16.4355  -11.5308 C   0  0  1  0  0  0  0  0  0  0  0  0
   12.2890   16.7898  -12.6932 O   0  0  0  0  0  0  0  0  0  0  0  0
   12.3109   13.8808   -7.0166 C   0  0  2  0  0  0  0  0  0  0  0  0
   11.5569   14.9094   -6.2503 N   0  0  0  0  0  0  0  0  0  0  0  0
   10.4541    9.4218  -12.5518 C   0  0  2  0  0  0  0  0  0  0  0  0
   11.4919    8.5159  -13.0450 O   0  0  0  0  0  0  0  0  0  0  0  0
   14.9430    9.7511  -14.3718 C   0  0  1  0  0  0  0  0  0  0  0  0
   14.9089   11.1422  -13.9810 O   0  0  0  0  0  0  0  0  0  0  0  0
   10.1970   17.2021  -11.4700 C   0  0  2  0  0  0  0  0  0  0  0  0
   10.4291   18.5911  -11.5046 O   0  0  0  0  0  0  0  0  0  0  0  0
   11.4763   13.4480   -8.2862 C   0  0  2  0  0  0  0  0  0  0  0  0
   10.4971   10.7717  -13.2877 C   0  0  2  0  0  0  0  0  0  0  0  0
   11.3755   11.5505  -12.4787 O   0  0  0  0  0  0  0  0  0  0  0  0
   15.8135    8.9187  -13.3150 C   0  0  2  0  0  0  0  0  0  0  0  0
   16.0321    7.6200  -13.8647 O   0  0  0  0  0  0  0  0  0  0  0  0
    9.4383   16.8007  -10.1612 C   0  0  2  0  0  0  0  0  0  0  0  0
    9.2180   15.3547  -10.1442 O   0  0  0  0  0  0  0  0  0  0  0  0
   12.1865   12.3667   -9.1297 C   0  0  2  0  0  0  0  0  0  0  0  0
   11.2125   11.9623  -10.1309 O   0  0  0  0  0  0  0  0  0  0  0  0
    9.1145   11.4754  -13.4531 C   0  0  0  0  0  0  0  0  0  0  0  0
    9.3203   12.8383  -13.8121 O   0  0  0  0  0  0  0  0  0  0  0  0
   15.0576    8.8074  -11.9372 C   0  0  1  0  0  0  0  0  0  0  0  0
   13.7584    8.1789  -12.2328 O   0  0  0  0  0  0  0  0  0  0  0  0
    8.1069   17.5020  -10.0225 C   0  0  0  0  0  0  0  0  0  0  0  0
    7.2408   17.1074  -11.0586 O   0  0  0  0  0  0  0  0  0  0  0  0
   12.5955   11.1374   -8.2146 C   0  0  1  0  0  0  0  0  0  0  0  0
   13.3843   10.2071   -8.9615 O   0  0  0  0  0  0  0  0  0  0  0  0
   15.8377    7.9656  -10.8366 C   0  0  0  0  0  0  0  0  0  0  0  0
   17.1814    8.4865  -10.4626 N   0  0  0  0  0  0  0  0  0  0  0  0
  1  2  1  1  0  0  0
  1  7  1  0  0  0  0
  1 30  1  0  0  0  0
  3  4  1  1  0  0  0
  3  9  1  0  0  0  0
  3 39  1  0  0  0  0
  5 10  1  0  0  0  0
  5 26  1  0  0  0  0
  5 32  1  1  0  0  0
  6 12  1  0  0  0  0
  6 36  1  0  0  0  0
  6 19  1  6  0  0  0
  7  8  1  1  0  0  0
  7 14  1  0  0  0  0
  9 16  1  0  0  0  0
 10 11  1  1  0  0  0
 10 18  1  0  0  0  0
 12 13  1  1  0  0  0
 12 20  1  0  0  0  0
 14 15  1  6  0  0  0
 14 22  1  0  0  0  0
 16 17  1  1  0  0  0
 16 24  1  0  0  0  0
 18 19  1  6  0  0  0
 18 25  1  0  0  0  0
 20 21  1  1  0  0  0
 20 27  1  0  0  0  0
 22 23  1  1  0  0  0
 22 29  1  0  0  0  0
 24  2  1  6  0  0  0
 24 31  1  0  0  0  0
 25 26  1  0  0  0  0
 25 33  1  1  0  0  0
 27 28  1  6  0  0  0
 27 35  1  0  0  0  0
 29 30  1  0  0  0  0
 29 37  1  6  0  0  0
 31 32  1  6  0  0  0
 31 39  1  0  0  0  0
 33 34  1  0  0  0  0
 35 36  1  0  0  0  0
 35 41  1  1  0  0  0
 37 38  1  0  0  0  0
 39 40  1  6  0  0  0
 41 42  1  0  0  0  0
M  END
>  <CHROM.1>
-122.26877633,-174.81199405,-65.79267049,-113.94183413,164.61585418,64.12928364
176.62881909,119.30834771,59.86124855,12.05865501,12.10017509,-11.05633513
2.56065923,-0.96572635,1.20318860

>  <Name>
ligand

>  <RI>
0

>  <Rbt.Current_Directory>
/home/itssahil/PROJECTS/Mol_Feturizer/Test_systems_manuscript/rnas/2o3w

>  <Rbt.Executable>
rbdock ($Id: //depot/dev/client3/rdock/2013.1/src/exe/rbdock.cxx#4 $)

>  <Rbt.Library>
libRbt.so (2013.1, Build901 2013/11/27)

>  <Rbt.Parameter_File>
/export/apps/rDock/src/rDock_2013.1_src/data/scripts/dock_solv.prm

>  <Rbt.Receptor>
prm/blind_docking_80.prm

>  <SCORE>
14.6485

>  <SCORE.INTER>
3.39966

>  <SCORE.INTER.CONST>
1

>  <SCORE.INTER.POLAR>
0

>  <SCORE.INTER.ROT>
9

>  <SCORE.INTER.SOLV>
39.2885

>  <SCORE.INTER.VDW>
-20.4297

>  <SCORE.INTER.norm>
0.0809444

>  <SCORE.INTRA>
-1.59369

>  <SCORE.INTRA.DIHEDRAL>
-5.24229

>  <SCORE.INTRA.DIHEDRAL.0>
27.8999

>  <SCORE.INTRA.POLAR>
0

>  <SCORE.INTRA.POLAR.0>
0

>  <SCORE.INTRA.REPUL>
0

>  <SCORE.INTRA.REPUL.0>
0

>  <SCORE.INTRA.SOLV>
-1.0076

>  <SCORE.INTRA.SOLV.lig_0>
-104.479

>  <SCORE.INTRA.VDW>
1.53126

>  <SCORE.INTRA.VDW.0>
-6.17816

>  <SCORE.INTRA.norm>
-0.037945

>  <SCORE.RESTR>
12.8425

>  <SCORE.RESTR.CAVITY>
12.8425

>  <SCORE.RESTR.norm>
0.305775

>  <SCORE.SYSTEM>
0

>  <SCORE.SYSTEM.CONST>
0

>  <SCORE.SYSTEM.DIHEDRAL>
0

>  <SCORE.SYSTEM.SOLV>
0

>  <SCORE.SYSTEM.norm>
0

>  <SCORE.heavy>
42

>  <SCORE.norm>
0.348774

>  <RMSD>
19.359

$$$$
ligand
 OpenBabel02271912133D
libRbt.so/2013.1/901 2013/11/27
 42 45  0  0  0  0  0  0  0  0999 V2000
   11.4354   11.3875  -11.5070 C   0  0  2  0  0  0  0  0  0  0  0  0
   11.4258   11.2153  -10.0796 O   0  0  0  0  0  0  0  0  0  0  0  0
   12.6802   13.2875   -6.4840 C   0  0  2  0  0  0  0  0  0  0  0  0
   13.2875   14.2784   -5.5461 N   0  0  0  0  0  0  0  0  0  0  0  0
   10.7602   15.0145  -10.0034 C   0  0  1  0  0  0  0  0  0  0  0  0
   12.3504   17.2191  -13.0240 C   0  0  1  0  0  0  0  0  0  0  0  0
   10.9717   10.0372  -12.1314 C   0  0  2  0  0  0  0  0  0  0  0  0
    9.7305    9.5304  -11.5205 N   0  0  0  0  0  0  0  0  0  0  0  0
   13.7903   12.5397   -7.3268 C   0  0  0  0  0  0  0  0  0  0  0  0
   10.7411   15.0768  -11.5611 C   0  0  2  0  0  0  0  0  0  0  0  0
   11.9831   14.6644  -12.1826 O   0  0  0  0  0  0  0  0  0  0  0  0
   13.1774   18.4875  -13.4438 C   0  0  2  0  0  0  0  0  0  0  0  0
   12.2779   19.6561  -13.6811 N   0  0  0  0  0  0  0  0  0  0  0  0
   12.0286    8.9282  -11.9765 C   0  0  1  0  0  0  0  0  0  0  0  0
   11.5789    7.7224  -12.5966 O   0  0  0  0  0  0  0  0  0  0  0  0
   13.0919   11.4955   -8.2778 C   0  0  2  0  0  0  0  0  0  0  0  0
   14.1100   10.7618   -9.0770 N   0  0  0  0  0  0  0  0  0  0  0  0
   10.3349   16.5327  -11.7951 C   0  0  2  0  0  0  0  0  0  0  0  0
   11.5029   17.4094  -11.8843 O   0  0  0  0  0  0  0  0  0  0  0  0
   14.0379   18.1485  -14.7520 C   0  0  1  0  0  0  0  0  0  0  0  0
   15.1386   17.2899  -14.3777 O   0  0  0  0  0  0  0  0  0  0  0  0
   13.3696    9.4063  -12.5785 C   0  0  2  0  0  0  0  0  0  0  0  0
   14.3437    8.3957  -12.4596 O   0  0  0  0  0  0  0  0  0  0  0  0
   12.0763   12.2184   -9.2484 C   0  0  2  0  0  0  0  0  0  0  0  0
    9.4374   16.9191  -10.6075 C   0  0  2  0  0  0  0  0  0  0  0  0
    9.9519   16.1218   -9.5435 O   0  0  0  0  0  0  0  0  0  0  0  0
   13.1722   17.4407  -15.8997 C   0  0  2  0  0  0  0  0  0  0  0  0
   12.2610   18.4117  -16.4129 O   0  0  0  0  0  0  0  0  0  0  0  0
   13.8277   10.7061  -11.8367 C   0  0  2  0  0  0  0  0  0  0  0  0
   12.7968   11.7358  -11.9663 O   0  0  0  0  0  0  0  0  0  0  0  0
   10.9925   13.0185   -8.4931 C   0  0  2  0  0  0  0  0  0  0  0  0
   10.2749   13.7545   -9.5216 O   0  0  0  0  0  0  0  0  0  0  0  0
    7.9144   16.6558  -10.8205 C   0  0  0  0  0  0  0  0  0  0  0  0
    7.4666   17.3813  -11.9615 O   0  0  0  0  0  0  0  0  0  0  0  0
   12.3839   16.2061  -15.3197 C   0  0  1  0  0  0  0  0  0  0  0  0
   11.5580   16.7290  -14.2177 O   0  0  0  0  0  0  0  0  0  0  0  0
   15.1339   11.2493  -12.3682 C   0  0  0  0  0  0  0  0  0  0  0  0
   15.6426   12.2289  -11.4959 O   0  0  0  0  0  0  0  0  0  0  0  0
   11.6662   14.0126   -7.4570 C   0  0  1  0  0  0  0  0  0  0  0  0
   10.6640   14.6416   -6.6534 O   0  0  0  0  0  0  0  0  0  0  0  0
   11.4693   15.4623  -16.3869 C   0  0  0  0  0  0  0  0  0  0  0  0
   12.1759   14.9531  -17.5945 N   0  0  0  0  0  0  0  0  0  0  0  0
  1  2  1  1  0  0  0
  1  7  1  0  0  0  0
  1 30  1  0  0  0  0
  3  4  1  1  0  0  0
  3  9  1  0  0  0  0
  3 39  1  0  0  0  0
  5 10  1  0  0  0  0
  5 26  1  0  0  0  0
  5 32  1  6  0  0  0
  6 12  1  0  0  0  0
  6 36  1  0  0  0  0
  6 19  1  1  0  0  0
  7  8  1  1  0  0  0
  7 14  1  0  0  0  0
  9 16  1  0  0  0  0
 10 11  1  6  0  0  0
 10 18  1  0  0  0  0
 12 13  1  6  0  0  0
 12 20  1  0  0  0  0
 14 15  1  6  0  0  0
 14 22  1  0  0  0  0
 16 17  1  6  0  0  0
 16 24  1  0  0  0  0
 18 19  1  1  0  0  0
 18 25  1  0  0  0  0
 20 21  1  1  0  0  0
 20 27  1  0  0  0  0
 22 23  1  1  0  0  0
 22 29  1  0  0  0  0
 24  2  1  1  0  0  0
 24 31  1  0  0  0  0
 25 26  1  0  0  0  0
 25 33  1  6  0  0  0
 27 28  1  1  0  0  0
 27 35  1  0  0  0  0
 29 30  1  0  0  0  0
 29 37  1  6  0  0  0
 31 32  1  6  0  0  0
 31 39  1  0  0  0  0
 33 34  1  0  0  0  0
 35 36  1  0  0  0  0
 35 41  1  6  0  0  0
 37 38  1  0  0  0  0
 39 40  1  1  0  0  0
 41 42  1  0  0  0  0
M  END
>  <CHROM.1>
167.36834430,-127.50036487,67.16279292,154.49405348,-58.55852058,-167.32682282
-84.31007669,133.02129745,57.42062775,12.01818781,14.01418635,-11.59002912
-1.34819574,1.18834468,-0.78219529

>  <Name>
ligand

>  <RI>
0

>  <Rbt.Current_Directory>
/home/itssahil/PROJECTS/Mol_Feturizer/Test_systems_manuscript/rnas/2o3w

>  <Rbt.Executable>
rbdock ($Id: //depot/dev/client3/rdock/2013.1/src/exe/rbdock.cxx#4 $)

>  <Rbt.Library>
libRbt.so (2013.1, Build901 2013/11/27)

>  <Rbt.Parameter_File>
/export/apps/rDock/src/rDock_2013.1_src/data/scripts/dock_solv.prm

>  <Rbt.Receptor>
prm/blind_docking_100.prm

>  <SCORE>
2.98235

>  <SCORE.INTER>
-2.41071

>  <SCORE.INTER.CONST>
1

>  <SCORE.INTER.POLAR>
0

>  <SCORE.INTER.ROT>
9

>  <SCORE.INTER.SOLV>
31.0181

>  <SCORE.INTER.VDW>
-21.5465

>  <SCORE.INTER.norm>
-0.0573979

>  <SCORE.INTRA>
-1.90258

>  <SCORE.INTRA.DIHEDRAL>
-7.64019

>  <SCORE.INTRA.DIHEDRAL.0>
27.8999

>  <SCORE.INTRA.POLAR>
0

>  <SCORE.INTRA.POLAR.0>
0

>  <SCORE.INTRA.REPUL>
0

>  <SCORE.INTRA.REPUL.0>
0

>  <SCORE.INTRA.SOLV>
-0.765238

>  <SCORE.INTRA.SOLV.lig_0>
-104.479

>  <SCORE.INTRA.VDW>
2.30014

>  <SCORE.INTRA.VDW.0>
-6.17816

>  <SCORE.INTRA.norm>
-0.0452994

>  <SCORE.RESTR>
7.29564

>  <SCORE.RESTR.CAVITY>
7.29564

>  <SCORE.RESTR.norm>
0.173706

>  <SCORE.SYSTEM>
0

>  <SCORE.SYSTEM.CONST>
0

>  <SCORE.SYSTEM.DIHEDRAL>
0

>  <SCORE.SYSTEM.SOLV>
0

>  <SCORE.SYSTEM.norm>
0

>  <SCORE.heavy>
42

>  <SCORE.norm>
0.0710084

>  <RMSD>
19.372

$$$$
ligand
 OpenBabel02271912133D
libRbt.so/2013.1/901 2013/11/27
 42 45  0  0  0  0  0  0  0  0999 V2000
   10.3384   13.5371   -8.2237 C   0  0  2  0  0  0  0  0  0  0  0  0
   10.7182   14.2582   -9.4083 O   0  0  0  0  0  0  0  0  0  0  0  0
    8.0670   17.2111  -11.1540 C   0  0  2  0  0  0  0  0  0  0  0  0
    7.3981   18.5002  -11.5020 N   0  0  0  0  0  0  0  0  0  0  0  0
   12.6671   15.2385  -11.9059 C   0  0  1  0  0  0  0  0  0  0  0  0
   14.1572   11.3596  -12.4284 C   0  0  1  0  0  0  0  0  0  0  0  0
   11.1580   14.1383   -7.0426 C   0  0  2  0  0  0  0  0  0  0  0  0
   11.0794   15.6086   -6.9927 N   0  0  0  0  0  0  0  0  0  0  0  0
    7.8658   16.8542   -9.6263 C   0  0  0  0  0  0  0  0  0  0  0  0
   12.2829   13.7614  -11.5874 C   0  0  2  0  0  0  0  0  0  0  0  0
   13.0237   13.1846  -10.4840 O   0  0  0  0  0  0  0  0  0  0  0  0
   15.5805   10.7705  -12.7382 C   0  0  2  0  0  0  0  0  0  0  0  0
   15.7812   10.6064  -14.2092 N   0  0  0  0  0  0  0  0  0  0  0  0
   12.6522   13.7752   -7.1239 C   0  0  1  0  0  0  0  0  0  0  0  0
   13.3562   14.3125   -6.0029 O   0  0  0  0  0  0  0  0  0  0  0  0
    8.5720   15.4780   -9.3264 C   0  0  2  0  0  0  0  0  0  0  0  0
    8.3900   15.1034   -7.8981 N   0  0  0  0  0  0  0  0  0  0  0  0
   12.4989   13.0983  -12.9487 C   0  0  2  0  0  0  0  0  0  0  0  0
   13.8656   12.5960  -13.0917 O   0  0  0  0  0  0  0  0  0  0  0  0
   15.7518    9.3726  -11.9745 C   0  0  1  0  0  0  0  0  0  0  0  0
   15.9294    9.6298  -10.5634 O   0  0  0  0  0  0  0  0  0  0  0  0
   12.8060   12.2393   -7.2037 C   0  0  2  0  0  0  0  0  0  0  0  0
   14.1694   11.8896   -7.2617 O   0  0  0  0  0  0  0  0  0  0  0  0
   10.1139   15.5587   -9.6610 C   0  0  2  0  0  0  0  0  0  0  0  0
   12.1886   14.1768  -14.0003 C   0  0  2  0  0  0  0  0  0  0  0  0
   12.5603   15.3848  -13.3406 O   0  0  0  0  0  0  0  0  0  0  0  0
   14.5037    8.3905  -12.1873 C   0  0  2  0  0  0  0  0  0  0  0  0
   14.5181    7.9643  -13.5491 O   0  0  0  0  0  0  0  0  0  0  0  0
   12.0463   11.7151   -8.4677 C   0  0  2  0  0  0  0  0  0  0  0  0
   10.6369   12.0985   -8.3886 O   0  0  0  0  0  0  0  0  0  0  0  0
   10.3884   15.9592  -11.1271 C   0  0  2  0  0  0  0  0  0  0  0  0
   11.8260   16.1635  -11.2044 O   0  0  0  0  0  0  0  0  0  0  0  0
   10.7020   14.2289  -14.4709 C   0  0  0  0  0  0  0  0  0  0  0  0
   10.4237   15.5181  -15.0087 O   0  0  0  0  0  0  0  0  0  0  0  0
   13.1518    9.1312  -11.8620 C   0  0  1  0  0  0  0  0  0  0  0  0
   13.1100   10.3118  -12.7421 O   0  0  0  0  0  0  0  0  0  0  0  0
   12.1392   10.2146   -8.6212 C   0  0  0  0  0  0  0  0  0  0  0  0
   11.3032    9.7815   -9.6666 O   0  0  0  0  0  0  0  0  0  0  0  0
    9.6107   17.2940  -11.4863 C   0  0  1  0  0  0  0  0  0  0  0  0
    9.7422   17.5816  -12.8812 O   0  0  0  0  0  0  0  0  0  0  0  0
   11.8549    8.2372  -12.0797 C   0  0  0  0  0  0  0  0  0  0  0  0
   10.5620    8.9753  -12.0998 N   0  0  0  0  0  0  0  0  0  0  0  0
  1  2  1  6  0  0  0
  1  7  1  0  0  0  0
  1 30  1  0  0  0  0
  3  4  1  1  0  0  0
  3  9  1  0  0  0  0
  3 39  1  0  0  0  0
  5 10  1  0  0  0  0
  5 26  1  0  0  0  0
  5 32  1  1  0  0  0
  6 12  1  0  0  0  0
  6 36  1  0  0  0  0
  6 19  1  6  0  0  0
  7  8  1  6  0  0  0
  7 14  1  0  0  0  0
  9 16  1  0  0  0  0
 10 11  1  1  0  0  0
 10 18  1  0  0  0  0
 12 13  1  6  0  0  0
 12 20  1  0  0  0  0
 14 15  1  1  0  0  0
 14 22  1  0  0  0  0
 16 17  1  1  0  0  0
 16 24  1  0  0  0  0
 18 19  1  1  0  0  0
 18 25  1  0  0  0  0
 20 21  1  1  0  0  0
 20 27  1  0  0  0  0
 22 23  1  6  0  0  0
 22 29  1  0  0  0  0
 24  2  1  6  0  0  0
 24 31  1  0  0  0  0
 25 26  1  0  0  0  0
 25 33  1  1  0  0  0
 27 28  1  6  0  0  0
 27 35  1  0  0  0  0
 29 30  1  0  0  0  0
 29 37  1  1  0  0  0
 31 32  1  1  0  0  0
 31 39  1  0  0  0  0
 33 34  1  0  0  0  0
 35 36  1  0  0  0  0
 35 41  1  6  0  0  0
 37 38  1  0  0  0  0
 39 40  1  6  0  0  0
 41 42  1  0  0  0  0
M  END
>  <CHROM.1>
-80.71382964,-42.35159731,78.15750313,173.35497347,157.91521819,172.48784685
108.77196539,-43.66978154,-166.07235164,11.91718964,13.10900019,-10.81122982
-3.08402952,0.97793935,-1.39708121

>  <Name>
ligand

>  <RI>
0

>  <Rbt.Current_Directory>
/home/itssahil/PROJECTS/Mol_Feturizer/Test_systems_manuscript/rnas/2o3w

>  <Rbt.Executable>
rbdock ($Id: //depot/dev/client3/rdock/2013.1/src/exe/rbdock.cxx#4 $)

>  <Rbt.Library>
libRbt.so (2013.1, Build901 2013/11/27)

>  <Rbt.Parameter_File>
/export/apps/rDock/src/rDock_2013.1_src/data/scripts/dock_solv.prm

>  <Rbt.Receptor>
prm/blind_docking_80.prm

>  <SCORE>
10.4153

>  <SCORE.INTER>
-3.88185

>  <SCORE.INTER.CONST>
1

>  <SCORE.INTER.POLAR>
0

>  <SCORE.INTER.ROT>
9

>  <SCORE.INTER.SOLV>
25.5455

>  <SCORE.INTER.VDW>
-20.7031

>  <SCORE.INTER.norm>
-0.092425

>  <SCORE.INTRA>
-0.209087

>  <SCORE.INTRA.DIHEDRAL>
-12.4223

>  <SCORE.INTRA.DIHEDRAL.0>
27.8999

>  <SCORE.INTRA.POLAR>
0

>  <SCORE.INTRA.POLAR.0>
0

>  <SCORE.INTRA.REPUL>
0.00267177

>  <SCORE.INTRA.REPUL.0>
0

>  <SCORE.INTRA.SOLV>
4.1528

>  <SCORE.INTRA.SOLV.lig_0>
-104.479

>  <SCORE.INTRA.VDW>
3.9123

>  <SCORE.INTRA.VDW.0>
-6.17816

>  <SCORE.INTRA.norm>
-0.00497827

>  <SCORE.RESTR>
14.5062

>  <SCORE.RESTR.CAVITY>
14.5062

>  <SCORE.RESTR.norm>
0.345386

>  <SCORE.SYSTEM>
0

>  <SCORE.SYSTEM.CONST>
0

>  <SCORE.SYSTEM.DIHEDRAL>
0

>  <SCORE.SYSTEM.SOLV>
0

>  <SCORE.SYSTEM.norm>
0

>  <SCORE.heavy>
42

>  <SCORE.norm>
0.247983

>  <RMSD>
19.401

$$$$
ligand
 OpenBabel02271912133D
libRbt.so/2013.1/901 2013/11/27
 42 45  0  0  0  0  0  0  0  0999 V2000
   10.8737   14.0833  -10.8255 C   0  0  2  0  0  0  0  0  0  0  0  0
   11.6551   14.3421   -9.6466 O   0  0  0  0  0  0  0  0  0  0  0  0
   12.9525   11.7051   -6.4592 C   0  0  2  0  0  0  0  0  0  0  0  0
   12.9603   10.7370   -5.3220 N   0  0  0  0  0  0  0  0  0  0  0  0
   11.7117   10.6545  -10.9866 C   0  0  1  0  0  0  0  0  0  0  0  0
   13.1811    8.8941  -13.1777 C   0  0  1  0  0  0  0  0  0  0  0  0
   11.8137   14.2955  -12.0500 C   0  0  2  0  0  0  0  0  0  0  0  0
   13.0899   13.5721  -11.9132 N   0  0  0  0  0  0  0  0  0  0  0  0
   12.2556   13.0650   -6.0505 C   0  0  0  0  0  0  0  0  0  0  0  0
   10.8123    9.3852  -11.0905 C   0  0  2  0  0  0  0  0  0  0  0  0
   11.2691    8.2716  -10.2842 O   0  0  0  0  0  0  0  0  0  0  0  0
   14.0942    8.2348  -14.2734 C   0  0  2  0  0  0  0  0  0  0  0  0
   14.2786    6.7767  -14.0073 N   0  0  0  0  0  0  0  0  0  0  0  0
   12.1645   15.7790  -12.2673 C   0  0  1  0  0  0  0  0  0  0  0  0
   12.9934   15.9303  -13.4209 O   0  0  0  0  0  0  0  0  0  0  0  0
   12.2982   14.0497   -7.2798 C   0  0  2  0  0  0  0  0  0  0  0  0
   11.6626   15.3474   -6.9254 N   0  0  0  0  0  0  0  0  0  0  0  0
   10.8048    9.1495  -12.6017 C   0  0  2  0  0  0  0  0  0  0  0  0
   11.9004    8.2721  -13.0148 O   0  0  0  0  0  0  0  0  0  0  0  0
   15.5039    8.9951  -14.3142 C   0  0  1  0  0  0  0  0  0  0  0  0
   15.3205   10.2862  -14.9372 O   0  0  0  0  0  0  0  0  0  0  0  0
   10.8631   16.6031  -12.3953 C   0  0  2  0  0  0  0  0  0  0  0  0
   11.1671   17.9615  -12.6114 O   0  0  0  0  0  0  0  0  0  0  0  0
   11.5575   13.4191   -8.5246 C   0  0  2  0  0  0  0  0  0  0  0  0
   10.9296   10.5391  -13.2488 C   0  0  2  0  0  0  0  0  0  0  0  0
   11.6977   11.2694  -12.2953 O   0  0  0  0  0  0  0  0  0  0  0  0
   16.1487    9.1884  -12.8601 C   0  0  2  0  0  0  0  0  0  0  0  0
   16.5435    7.9005  -12.3890 O   0  0  0  0  0  0  0  0  0  0  0  0
   10.0165   16.4265  -11.0908 C   0  0  2  0  0  0  0  0  0  0  0  0
    9.7223   15.0087  -10.8834 O   0  0  0  0  0  0  0  0  0  0  0  0
   12.1500   12.0568   -8.9470 C   0  0  2  0  0  0  0  0  0  0  0  0
   11.2462   11.5465   -9.9655 O   0  0  0  0  0  0  0  0  0  0  0  0
    9.5735   11.2528  -13.5420 C   0  0  0  0  0  0  0  0  0  0  0  0
    9.8260   12.5950  -13.9464 O   0  0  0  0  0  0  0  0  0  0  0  0
   15.1062    9.8347  -11.8712 C   0  0  1  0  0  0  0  0  0  0  0  0
   13.9369    8.9386  -11.8663 O   0  0  0  0  0  0  0  0  0  0  0  0
    8.7170   17.1969  -11.1322 C   0  0  0  0  0  0  0  0  0  0  0  0
    8.9725   18.5701  -11.2999 O   0  0  0  0  0  0  0  0  0  0  0  0
   12.2081   11.0741   -7.7034 C   0  0  1  0  0  0  0  0  0  0  0  0
   12.8937    9.8699   -8.0578 O   0  0  0  0  0  0  0  0  0  0  0  0
   15.6536   10.0321  -10.3914 C   0  0  0  0  0  0  0  0  0  0  0  0
   17.1116   10.3112  -10.2778 N   0  0  0  0  0  0  0  0  0  0  0  0
  1  2  1  1  0  0  0
  1  7  1  0  0  0  0
  1 30  1  0  0  0  0
  3  4  1  1  0  0  0
  3  9  1  0  0  0  0
  3 39  1  0  0  0  0
  5 10  1  0  0  0  0
  5 26  1  0  0  0  0
  5 32  1  1  0  0  0
  6 12  1  0  0  0  0
  6 36  1  0  0  0  0
  6 19  1  1  0  0  0
  7  8  1  1  0  0  0
  7 14  1  0  0  0  0
  9 16  1  0  0  0  0
 10 11  1  1  0  0  0
 10 18  1  0  0  0  0
 12 13  1  1  0  0  0
 12 20  1  0  0  0  0
 14 15  1  6  0  0  0
 14 22  1  0  0  0  0
 16 17  1  1  0  0  0
 16 24  1  0  0  0  0
 18 19  1  1  0  0  0
 18 25  1  0  0  0  0
 20 21  1  1  0  0  0
 20 27  1  0  0  0  0
 22 23  1  1  0  0  0
 22 29  1  0  0  0  0
 24  2  1  6  0  0  0
 24 31  1  0  0  0  0
 25 26  1  0  0  0  0
 25 33  1  1  0  0  0
 27 28  1  1  0  0  0
 27 35  1  0  0  0  0
 29 30  1  0  0  0  0
 29 37  1  6  0  0  0
 31 32  1  6  0  0  0
 31 39  1  0  0  0  0
 33 34  1  0  0  0  0
 35 36  1  0  0  0  0
 35 41  1  1  0  0  0
 37 38  1  0  0  0  0
 39 40  1  6  0  0  0
 41 42  1  0  0  0  0
M  END
>  <CHROM.1>
-134.89899912,-170.12239324,-81.65550227,-149.07294644,171.29966052,-59.45830962
152.42103972,129.01886338,31.98131005,12.35844132,12.00177756,-11.12764423
2.84823761,-1.08995222,1.49621641

>  <Name>
ligand

>  <RI>
0

>  <Rbt.Current_Directory>
/home/itssahil/PROJECTS/Mol_Feturizer/Test_systems_manuscript/rnas/2o3w

>  <Rbt.Executable>
rbdock ($Id: //depot/dev/client3/rdock/2013.1/src/exe/rbdock.cxx#4 $)

>  <Rbt.Library>
libRbt.so (2013.1, Build901 2013/11/27)

>  <Rbt.Parameter_File>
/export/apps/rDock/src/rDock_2013.1_src/data/scripts/dock_solv.prm

>  <Rbt.Receptor>
prm/blind_docking_40.prm

>  <SCORE>
27.6768

>  <SCORE.INTER>
16.121

>  <SCORE.INTER.CONST>
1

>  <SCORE.INTER.POLAR>
0

>  <SCORE.INTER.ROT>
9

>  <SCORE.INTER.SOLV>
39.3349

>  <SCORE.INTER.VDW>
-11.9643

>  <SCORE.INTER.norm>
0.383834

>  <SCORE.INTRA>
-0.145025

>  <SCORE.INTRA.DIHEDRAL>
-2.75853

>  <SCORE.INTRA.DIHEDRAL.0>
27.8999

>  <SCORE.INTRA.POLAR>
0

>  <SCORE.INTRA.POLAR.0>
0

>  <SCORE.INTRA.REPUL>
0.0222049

>  <SCORE.INTRA.REPUL.0>
0

>  <SCORE.INTRA.SOLV>
0.0386806

>  <SCORE.INTRA.SOLV.lig_0>
-104.479

>  <SCORE.INTRA.VDW>
1.10388

>  <SCORE.INTRA.VDW.0>
-6.17816

>  <SCORE.INTRA.norm>
-0.00345299

>  <SCORE.RESTR>
11.7008

>  <SCORE.RESTR.CAVITY>
11.7008

>  <SCORE.RESTR.norm>
0.27859

>  <SCORE.SYSTEM>
0

>  <SCORE.SYSTEM.CONST>
0

>  <SCORE.SYSTEM.DIHEDRAL>
0

>  <SCORE.SYSTEM.SOLV>
0

>  <SCORE.SYSTEM.norm>
0

>  <SCORE.heavy>
42

>  <SCORE.norm>
0.658972

>  <RMSD>
19.417

$$$$
ligand
 OpenBabel02271912133D
libRbt.so/2013.1/901 2013/11/27
 42 45  0  0  0  0  0  0  0  0999 V2000
   12.0434   12.5720   -7.2133 C   0  0  2  0  0  0  0  0  0  0  0  0
   12.6357   12.7356   -8.5132 O   0  0  0  0  0  0  0  0  0  0  0  0
   12.5774   10.5715  -12.2695 C   0  0  2  0  0  0  0  0  0  0  0  0
   12.1235    9.8044  -13.4677 N   0  0  0  0  0  0  0  0  0  0  0  0
   11.2918   15.0222  -11.6589 C   0  0  1  0  0  0  0  0  0  0  0  0
   11.5690   16.4324  -14.2797 C   0  0  1  0  0  0  0  0  0  0  0  0
   12.4255   13.8304   -6.3775 C   0  0  2  0  0  0  0  0  0  0  0  0
   12.1479   15.0880   -7.0930 N   0  0  0  0  0  0  0  0  0  0  0  0
   12.3570    9.7431  -10.9402 C   0  0  0  0  0  0  0  0  0  0  0  0
   10.0263   14.9711  -12.5681 C   0  0  2  0  0  0  0  0  0  0  0  0
   10.2263   14.2653  -13.8174 O   0  0  0  0  0  0  0  0  0  0  0  0
   12.7952   16.6374  -13.3189 C   0  0  2  0  0  0  0  0  0  0  0  0
   13.0492   18.0898  -13.0806 N   0  0  0  0  0  0  0  0  0  0  0  0
   13.9190   13.8519   -6.0034 C   0  0  1  0  0  0  0  0  0  0  0  0
   14.2156   14.9996   -5.2060 O   0  0  0  0  0  0  0  0  0  0  0  0
   12.8738   10.5925   -9.7179 C   0  0  2  0  0  0  0  0  0  0  0  0
   12.6947    9.8359   -8.4494 N   0  0  0  0  0  0  0  0  0  0  0  0
    9.6906   16.4580  -12.6938 C   0  0  2  0  0  0  0  0  0  0  0  0
   10.3584   17.0647  -13.8457 O   0  0  0  0  0  0  0  0  0  0  0  0
   14.0844   15.9231  -13.9472 C   0  0  1  0  0  0  0  0  0  0  0  0
   13.9401   14.4919  -13.8075 O   0  0  0  0  0  0  0  0  0  0  0  0
   14.2850   12.5431   -5.2669 C   0  0  2  0  0  0  0  0  0  0  0  0
   15.6457   12.5544   -4.9026 O   0  0  0  0  0  0  0  0  0  0  0  0
   12.1009   11.9675   -9.6287 C   0  0  2  0  0  0  0  0  0  0  0  0
   10.1481   17.1092  -11.3778 C   0  0  2  0  0  0  0  0  0  0  0  0
   11.2590   16.3041  -10.9904 O   0  0  0  0  0  0  0  0  0  0  0  0
   14.3091   16.2911  -15.4905 C   0  0  2  0  0  0  0  0  0  0  0  0
   14.6954   17.6634  -15.5545 O   0  0  0  0  0  0  0  0  0  0  0  0
   13.9726   11.3270   -6.2013 C   0  0  2  0  0  0  0  0  0  0  0  0
   12.5579   11.3428   -6.5729 O   0  0  0  0  0  0  0  0  0  0  0  0
   12.2249   12.8089  -10.9178 C   0  0  2  0  0  0  0  0  0  0  0  0
   11.3172   13.9296  -10.7312 O   0  0  0  0  0  0  0  0  0  0  0  0
    9.0668   17.1519  -10.2539 C   0  0  0  0  0  0  0  0  0  0  0  0
    7.8325   17.6005  -10.8054 O   0  0  0  0  0  0  0  0  0  0  0  0
   12.9875   16.0577  -16.3157 C   0  0  1  0  0  0  0  0  0  0  0  0
   11.9521   16.8854  -15.6729 O   0  0  0  0  0  0  0  0  0  0  0  0
   14.2960    9.9995   -5.5557 C   0  0  0  0  0  0  0  0  0  0  0  0
   13.8678    9.9950   -4.2155 O   0  0  0  0  0  0  0  0  0  0  0  0
   11.8009   11.9461  -12.1794 C   0  0  1  0  0  0  0  0  0  0  0  0
   12.0591   12.6731  -13.3837 O   0  0  0  0  0  0  0  0  0  0  0  0
   13.1115   16.4311  -17.8564 C   0  0  0  0  0  0  0  0  0  0  0  0
   12.1801   15.7120  -18.7685 N   0  0  0  0  0  0  0  0  0  0  0  0
  1  2  1  6  0  0  0
  1  7  1  0  0  0  0
  1 30  1  0  0  0  0
  3  4  1  6  0  0  0
  3  9  1  0  0  0  0
  3 39  1  0  0  0  0
  5 10  1  0  0  0  0
  5 26  1  0  0  0  0
  5 32  1  1  0  0  0
  6 12  1  0  0  0  0
  6 36  1  0  0  0  0
  6 19  1  1  0  0  0
  7  8  1  6  0  0  0
  7 14  1  0  0  0  0
  9 16  1  0  0  0  0
 10 11  1  6  0  0  0
 10 18  1  0  0  0  0
 12 13  1  6  0  0  0
 12 20  1  0  0  0  0
 14 15  1  1  0  0  0
 14 22  1  0  0  0  0
 16 17  1  1  0  0  0
 16 24  1  0  0  0  0
 18 19  1  6  0  0  0
 18 25  1  0  0  0  0
 20 21  1  6  0  0  0
 20 27  1  0  0  0  0
 22 23  1  6  0  0  0
 22 29  1  0  0  0  0
 24  2  1  1  0  0  0
 24 31  1  0  0  0  0
 25 26  1  0  0  0  0
 25 33  1  1  0  0  0
 27 28  1  1  0  0  0
 27 35  1  0  0  0  0
 29 30  1  0  0  0  0
 29 37  1  1  0  0  0
 31 32  1  1  0  0  0
 31 39  1  0  0  0  0
 33 34  1  0  0  0  0
 35 36  1  0  0  0  0
 35 41  1  6  0  0  0
 37 38  1  0  0  0  0
 39 40  1  6  0  0  0
 41 42  1  0  0  0  0
M  END
>  <CHROM.1>
-159.72348979,-89.88537782,-25.78412307,-71.79776839,-45.94729995,42.56806405
171.89828549,105.83291330,154.15955771,12.34842389,14.09685639,-10.95713885
1.10786439,-1.24454919,1.60213590

>  <Name>
ligand

>  <RI>
0

>  <Rbt.Current_Directory>
/home/itssahil/PROJECTS/Mol_Feturizer/Test_systems_manuscript/rnas/2o3w

>  <Rbt.Executable>
rbdock ($Id: //depot/dev/client3/rdock/2013.1/src/exe/rbdock.cxx#4 $)

>  <Rbt.Library>
libRbt.so (2013.1, Build901 2013/11/27)

>  <Rbt.Parameter_File>
/export/apps/rDock/src/rDock_2013.1_src/data/scripts/dock_solv.prm

>  <Rbt.Receptor>
prm/blind_docking_100.prm

>  <SCORE>
16.8735

>  <SCORE.INTER>
4.58662

>  <SCORE.INTER.CONST>
1

>  <SCORE.INTER.POLAR>
0

>  <SCORE.INTER.ROT>
9

>  <SCORE.INTER.SOLV>
27.7582

>  <SCORE.INTER.VDW>
-15.795

>  <SCORE.INTER.norm>
0.109205

>  <SCORE.INTRA>
5.69629

>  <SCORE.INTRA.DIHEDRAL>
-7.02734

>  <SCORE.INTRA.DIHEDRAL.0>
27.8999

>  <SCORE.INTRA.POLAR>
0

>  <SCORE.INTRA.POLAR.0>
0

>  <SCORE.INTRA.REPUL>
0.252205

>  <SCORE.INTRA.REPUL.0>
0

>  <SCORE.INTRA.SOLV>
1.96852

>  <SCORE.INTRA.SOLV.lig_0>
-104.479

>  <SCORE.INTRA.VDW>
6.96467

>  <SCORE.INTRA.VDW.0>
-6.17816

>  <SCORE.INTRA.norm>
0.135626

>  <SCORE.RESTR>
6.59061

>  <SCORE.RESTR.CAVITY>
6.59061

>  <SCORE.RESTR.norm>
0.156919

>  <SCORE.SYSTEM>
0

>  <SCORE.SYSTEM.CONST>
0

>  <SCORE.SYSTEM.DIHEDRAL>
0

>  <SCORE.SYSTEM.SOLV>
0

>  <SCORE.SYSTEM.norm>
0

>  <SCORE.heavy>
42

>  <SCORE.norm>
0.40175

>  <RMSD>
19.448

$$$$
ligand
 OpenBabel02271912133D
libRbt.so/2013.1/901 2013/11/27
 42 45  0  0  0  0  0  0  0  0999 V2000
   14.1166    9.8649   -9.9370 C   0  0  2  0  0  0  0  0  0  0  0  0
   13.9132   11.2878   -9.9003 O   0  0  0  0  0  0  0  0  0  0  0  0
   10.7708   11.3375   -6.9139 C   0  0  2  0  0  0  0  0  0  0  0  0
    9.6810   11.7854   -5.9961 N   0  0  0  0  0  0  0  0  0  0  0  0
   12.0176   12.8984  -11.2649 C   0  0  1  0  0  0  0  0  0  0  0  0
   13.1001   16.5468  -13.6908 C   0  0  1  0  0  0  0  0  0  0  0  0
   15.1191    9.5783  -11.0950 C   0  0  2  0  0  0  0  0  0  0  0  0
   16.3189   10.4306  -11.0259 N   0  0  0  0  0  0  0  0  0  0  0  0
   12.1502   12.0157   -6.5410 C   0  0  0  0  0  0  0  0  0  0  0  0
   11.5575   13.3052  -12.6980 C   0  0  2  0  0  0  0  0  0  0  0  0
   12.2940   12.6521  -13.7610 O   0  0  0  0  0  0  0  0  0  0  0  0
   11.8587   16.9060  -14.5845 C   0  0  2  0  0  0  0  0  0  0  0  0
   11.6217   15.8526  -15.6165 N   0  0  0  0  0  0  0  0  0  0  0  0
   14.4905    9.8067  -12.4820 C   0  0  1  0  0  0  0  0  0  0  0  0
   15.4305    9.4946  -13.5115 O   0  0  0  0  0  0  0  0  0  0  0  0
   13.2608   11.4887   -7.5265 C   0  0  2  0  0  0  0  0  0  0  0  0
   14.5777   12.0964   -7.1946 N   0  0  0  0  0  0  0  0  0  0  0  0
   11.6969   14.8270  -12.6338 C   0  0  2  0  0  0  0  0  0  0  0  0
   13.0278   15.2637  -13.0566 O   0  0  0  0  0  0  0  0  0  0  0  0
   12.0941   18.3367  -15.2659 C   0  0  1  0  0  0  0  0  0  0  0  0
   11.9387   19.3640  -14.2612 O   0  0  0  0  0  0  0  0  0  0  0  0
   13.2068    8.9558  -12.6128 C   0  0  2  0  0  0  0  0  0  0  0  0
   12.6282    9.1409  -13.8837 O   0  0  0  0  0  0  0  0  0  0  0  0
   12.8832   11.8261   -9.0229 C   0  0  2  0  0  0  0  0  0  0  0  0
   11.4205   15.2173  -11.1721 C   0  0  2  0  0  0  0  0  0  0  0  0
   11.8797   14.0808  -10.4440 O   0  0  0  0  0  0  0  0  0  0  0  0
   13.5369   18.4700  -15.9501 C   0  0  2  0  0  0  0  0  0  0  0  0
   13.5530   17.6145  -17.0922 O   0  0  0  0  0  0  0  0  0  0  0  0
   12.2043    9.3672  -11.4835 C   0  0  2  0  0  0  0  0  0  0  0  0
   12.8308    9.1753  -10.1756 O   0  0  0  0  0  0  0  0  0  0  0  0
   11.5165   11.2417   -9.4421 C   0  0  2  0  0  0  0  0  0  0  0  0
   11.2513   11.7974  -10.7594 O   0  0  0  0  0  0  0  0  0  0  0  0
    9.9269   15.5276  -10.8448 C   0  0  0  0  0  0  0  0  0  0  0  0
    9.4879   16.6223  -11.6434 O   0  0  0  0  0  0  0  0  0  0  0  0
   14.6717   18.0524  -14.9401 C   0  0  1  0  0  0  0  0  0  0  0  0
   14.3599   16.6749  -14.5210 O   0  0  0  0  0  0  0  0  0  0  0  0
   10.9173    8.5767  -11.5322 C   0  0  0  0  0  0  0  0  0  0  0  0
   10.0490    9.1227  -12.4952 O   0  0  0  0  0  0  0  0  0  0  0  0
   10.3932   11.6787   -8.4111 C   0  0  1  0  0  0  0  0  0  0  0  0
    9.1620   11.0162   -8.7127 O   0  0  0  0  0  0  0  0  0  0  0  0
   16.1389   18.1229  -15.5491 C   0  0  0  0  0  0  0  0  0  0  0  0
   16.5632   19.4595  -16.0491 N   0  0  0  0  0  0  0  0  0  0  0  0
  1  2  1  6  0  0  0
  1  7  1  0  0  0  0
  1 30  1  0  0  0  0
  3  4  1  1  0  0  0
  3  9  1  0  0  0  0
  3 39  1  0  0  0  0
  5 10  1  0  0  0  0
  5 26  1  0  0  0  0
  5 32  1  1  0  0  0
  6 12  1  0  0  0  0
  6 36  1  0  0  0  0
  6 19  1  6  0  0  0
  7  8  1  1  0  0  0
  7 14  1  0  0  0  0
  9 16  1  0  0  0  0
 10 11  1  6  0  0  0
 10 18  1  0  0  0  0
 12 13  1  6  0  0  0
 12 20  1  0  0  0  0
 14 15  1  6  0  0  0
 14 22  1  0  0  0  0
 16 17  1  1  0  0  0
 16 24  1  0  0  0  0
 18 19  1  1  0  0  0
 18 25  1  0  0  0  0
 20 21  1  1  0  0  0
 20 27  1  0  0  0  0
 22 23  1  6  0  0  0
 22 29  1  0  0  0  0
 24  2  1  6  0  0  0
 24 31  1  0  0  0  0
 25 26  1  0  0  0  0
 25 33  1  6  0  0  0
 27 28  1  6  0  0  0
 27 35  1  0  0  0  0
 29 30  1  0  0  0  0
 29 37  1  1  0  0  0
 31 32  1  6  0  0  0
 31 39  1  0  0  0  0
 33 34  1  0  0  0  0
 35 36  1  0  0  0  0
 35 41  1  6  0  0  0
 37 38  1  0  0  0  0
 39 40  1  6  0  0  0
 41 42  1  0  0  0  0
M  END
>  <CHROM.1>
172.03418852,63.02960181,148.90392563,-34.83026790,-60.47192163,-81.42284702
-13.67607492,179.44289431,59.05841202,12.59357371,13.25501806,-11.83727429
-1.79816043,0.89715417,-0.47173713

>  <Name>
ligand

>  <RI>
0

>  <Rbt.Current_Directory>
/home/itssahil/PROJECTS/Mol_Feturizer/Test_systems_manuscript/rnas/2o3w

>  <Rbt.Executable>
rbdock ($Id: //depot/dev/client3/rdock/2013.1/src/exe/rbdock.cxx#4 $)

>  <Rbt.Library>
libRbt.so (2013.1, Build901 2013/11/27)

>  <Rbt.Parameter_File>
/export/apps/rDock/src/rDock_2013.1_src/data/scripts/dock_solv.prm

>  <Rbt.Receptor>
prm/blind_docking_100.prm

>  <SCORE>
13.3188

>  <SCORE.INTER>
4.4341

>  <SCORE.INTER.CONST>
1

>  <SCORE.INTER.POLAR>
0

>  <SCORE.INTER.ROT>
9

>  <SCORE.INTER.SOLV>
29.7841

>  <SCORE.INTER.VDW>
-16.572

>  <SCORE.INTER.norm>
0.105574

>  <SCORE.INTRA>
-1.12167

>  <SCORE.INTRA.DIHEDRAL>
-13.1492

>  <SCORE.INTRA.DIHEDRAL.0>
27.8999

>  <SCORE.INTRA.POLAR>
0

>  <SCORE.INTRA.POLAR.0>
0

>  <SCORE.INTRA.REPUL>
0

>  <SCORE.INTRA.REPUL.0>
0

>  <SCORE.INTRA.SOLV>
-2.85259

>  <SCORE.INTRA.SOLV.lig_0>
-104.479

>  <SCORE.INTRA.VDW>
6.87924

>  <SCORE.INTRA.VDW.0>
-6.17816

>  <SCORE.INTRA.norm>
-0.0267063

>  <SCORE.RESTR>
10.0064

>  <SCORE.RESTR.CAVITY>
10.0064

>  <SCORE.RESTR.norm>
0.238248

>  <SCORE.SYSTEM>
0

>  <SCORE.SYSTEM.CONST>
0

>  <SCORE.SYSTEM.DIHEDRAL>
0

>  <SCORE.SYSTEM.SOLV>
0

>  <SCORE.SYSTEM.norm>
0

>  <SCORE.heavy>
42

>  <SCORE.norm>
0.317115

>  <RMSD>
19.450

$$$$
ligand
 OpenBabel02271912133D
libRbt.so/2013.1/901 2013/11/27
 42 45  0  0  0  0  0  0  0  0999 V2000
   10.7098   14.3125  -10.8088 C   0  0  2  0  0  0  0  0  0  0  0  0
   11.4930   14.5741   -9.6317 O   0  0  0  0  0  0  0  0  0  0  0  0
   12.9817   11.8972   -6.5634 C   0  0  2  0  0  0  0  0  0  0  0  0
   13.0598   10.8921   -5.4616 N   0  0  0  0  0  0  0  0  0  0  0  0
   11.6639   10.7967  -10.9909 C   0  0  1  0  0  0  0  0  0  0  0  0
   13.1217    8.8173  -12.8904 C   0  0  1  0  0  0  0  0  0  0  0  0
   11.6949   14.2950  -12.0161 C   0  0  2  0  0  0  0  0  0  0  0  0
   12.8643   13.4313  -11.7770 N   0  0  0  0  0  0  0  0  0  0  0  0
   12.2263   13.2054   -6.0945 C   0  0  0  0  0  0  0  0  0  0  0  0
   10.7353    9.5443  -11.0018 C   0  0  2  0  0  0  0  0  0  0  0  0
   11.1644    8.4849  -10.1115 O   0  0  0  0  0  0  0  0  0  0  0  0
   13.7063    8.9635  -14.3415 C   0  0  2  0  0  0  0  0  0  0  0  0
   13.6825    7.6546  -15.0606 N   0  0  0  0  0  0  0  0  0  0  0  0
   12.2380   15.6972  -12.3475 C   0  0  1  0  0  0  0  0  0  0  0  0
   13.1037   15.6398  -13.4825 O   0  0  0  0  0  0  0  0  0  0  0  0
   12.1960   14.2329   -7.2885 C   0  0  2  0  0  0  0  0  0  0  0  0
   11.5038   15.4840   -6.8771 N   0  0  0  0  0  0  0  0  0  0  0  0
   10.7256    9.1948  -12.4907 C   0  0  2  0  0  0  0  0  0  0  0  0
   11.8013    8.2635  -12.8318 O   0  0  0  0  0  0  0  0  0  0  0  0
   15.1965    9.5456  -14.2549 C   0  0  1  0  0  0  0  0  0  0  0  0
   15.1312   10.9472  -13.9084 O   0  0  0  0  0  0  0  0  0  0  0  0
   11.0563   16.6644  -12.5872 C   0  0  2  0  0  0  0  0  0  0  0  0
   11.5370   17.9490  -12.9084 O   0  0  0  0  0  0  0  0  0  0  0  0
   11.4632   13.6092   -8.5415 C   0  0  2  0  0  0  0  0  0  0  0  0
   10.8841   10.5281  -13.2408 C   0  0  2  0  0  0  0  0  0  0  0  0
   11.6670   11.3107  -12.3425 O   0  0  0  0  0  0  0  0  0  0  0  0
   16.1057    8.7712  -13.1867 C   0  0  2  0  0  0  0  0  0  0  0  0
   16.3504    7.4616  -13.6980 O   0  0  0  0  0  0  0  0  0  0  0  0
   10.1668   16.7124  -11.3004 C   0  0  2  0  0  0  0  0  0  0  0  0
    9.6884   15.3671  -10.9825 O   0  0  0  0  0  0  0  0  0  0  0  0
   12.1142   12.2938   -9.0225 C   0  0  2  0  0  0  0  0  0  0  0  0
   11.2171   11.7742  -10.0422 O   0  0  0  0  0  0  0  0  0  0  0  0
    9.5456   11.2485  -13.5926 C   0  0  0  0  0  0  0  0  0  0  0  0
    9.8001   12.6324  -13.8136 O   0  0  0  0  0  0  0  0  0  0  0  0
   15.3750    8.6849  -11.7936 C   0  0  1  0  0  0  0  0  0  0  0  0
   14.0887    8.0130  -12.0471 O   0  0  0  0  0  0  0  0  0  0  0  0
    8.9783   17.6339  -11.4491 C   0  0  0  0  0  0  0  0  0  0  0  0
    8.3883   17.8708  -10.1941 O   0  0  0  0  0  0  0  0  0  0  0  0
   12.2453   11.2729   -7.8158 C   0  0  1  0  0  0  0  0  0  0  0  0
   12.9828   10.1177   -8.2248 O   0  0  0  0  0  0  0  0  0  0  0  0
   16.1948    7.9001  -10.6797 C   0  0  0  0  0  0  0  0  0  0  0  0
   16.7127    6.5645  -11.0851 N   0  0  0  0  0  0  0  0  0  0  0  0
  1  2  1  1  0  0  0
  1  7  1  0  0  0  0
  1 30  1  0  0  0  0
  3  4  1  1  0  0  0
  3  9  1  0  0  0  0
  3 39  1  0  0  0  0
  5 10  1  0  0  0  0
  5 26  1  0  0  0  0
  5 32  1  1  0  0  0
  6 12  1  0  0  0  0
  6 36  1  0  0  0  0
  6 19  1  6  0  0  0
  7  8  1  1  0  0  0
  7 14  1  0  0  0  0
  9 16  1  0  0  0  0
 10 11  1  1  0  0  0
 10 18  1  0  0  0  0
 12 13  1  1  0  0  0
 12 20  1  0  0  0  0
 14 15  1  6  0  0  0
 14 22  1  0  0  0  0
 16 17  1  1  0  0  0
 16 24  1  0  0  0  0
 18 19  1  1  0  0  0
 18 25  1  0  0  0  0
 20 21  1  1  0  0  0
 20 27  1  0  0  0  0
 22 23  1  1  0  0  0
 22 29  1  0  0  0  0
 24  2  1  6  0  0  0
 24 31  1  0  0  0  0
 25 26  1  0  0  0  0
 25 33  1  1  0  0  0
 27 28  1  6  0  0  0
 27 35  1  0  0  0  0
 29 30  1  0  0  0  0
 29 37  1  6  0  0  0
 31 32  1  6  0  0  0
 31 39  1  0  0  0  0
 33 34  1  0  0  0  0
 35 36  1  0  0  0  0
 35 41  1  1  0  0  0
 37 38  1  0  0  0  0
 39 40  1  6  0  0  0
 41 42  1  0  0  0  0
M  END
>  <CHROM.1>
-122.05435932,-170.55765324,-74.96000000,-107.54085653,158.64821722,-167.03266929
161.21339116,126.15591972,-50.08819197,12.30872199,11.92386152,-11.18717889
2.87810728,-1.09977102,1.54512142

>  <Name>
ligand

>  <RI>
0

>  <Rbt.Current_Directory>
/home/itssahil/PROJECTS/Mol_Feturizer/Test_systems_manuscript/rnas/2o3w

>  <Rbt.Executable>
rbdock ($Id: //depot/dev/client3/rdock/2013.1/src/exe/rbdock.cxx#4 $)

>  <Rbt.Library>
libRbt.so (2013.1, Build901 2013/11/27)

>  <Rbt.Parameter_File>
/export/apps/rDock/src/rDock_2013.1_src/data/scripts/dock_solv.prm

>  <Rbt.Receptor>
prm/blind_docking_40.prm

>  <SCORE>
16.6704

>  <SCORE.INTER>
1.7575

>  <SCORE.INTER.CONST>
1

>  <SCORE.INTER.POLAR>
0

>  <SCORE.INTER.ROT>
9

>  <SCORE.INTER.SOLV>
37.6873

>  <SCORE.INTER.VDW>
-20.9908

>  <SCORE.INTER.norm>
0.0418452

>  <SCORE.INTRA>
2.64284

>  <SCORE.INTRA.DIHEDRAL>
-1.69766

>  <SCORE.INTRA.DIHEDRAL.0>
27.8999

>  <SCORE.INTRA.POLAR>
0

>  <SCORE.INTRA.POLAR.0>
0

>  <SCORE.INTRA.REPUL>
0.201318

>  <SCORE.INTRA.REPUL.0>
0

>  <SCORE.INTRA.SOLV>
1.40368

>  <SCORE.INTRA.SOLV.lig_0>
-104.479

>  <SCORE.INTRA.VDW>
1.78325

>  <SCORE.INTRA.VDW.0>
-6.17816

>  <SCORE.INTRA.norm>
0.0629248

>  <SCORE.RESTR>
12.2701

>  <SCORE.RESTR.CAVITY>
12.2701

>  <SCORE.RESTR.norm>
0.292144

>  <SCORE.SYSTEM>
0

>  <SCORE.SYSTEM.CONST>
0

>  <SCORE.SYSTEM.DIHEDRAL>
0

>  <SCORE.SYSTEM.SOLV>
0

>  <SCORE.SYSTEM.norm>
0

>  <SCORE.heavy>
42

>  <SCORE.norm>
0.396914

>  <RMSD>
19.471

$$$$
ligand
 OpenBabel02271912133D
libRbt.so/2013.1/901 2013/11/27
 42 45  0  0  0  0  0  0  0  0999 V2000
   11.1170   15.6192  -13.4953 C   0  0  2  0  0  0  0  0  0  0  0  0
   12.2774   15.6336  -12.6465 O   0  0  0  0  0  0  0  0  0  0  0  0
   12.7964   11.3417  -12.3206 C   0  0  2  0  0  0  0  0  0  0  0  0
   13.3150    9.9908  -11.9512 N   0  0  0  0  0  0  0  0  0  0  0  0
   11.4964   13.8091   -8.8597 C   0  0  1  0  0  0  0  0  0  0  0  0
   12.1315   12.5897   -6.1429 C   0  0  1  0  0  0  0  0  0  0  0  0
   11.1007   16.9730  -14.2667 C   0  0  2  0  0  0  0  0  0  0  0  0
   12.3962   17.2774  -14.8988 N   0  0  0  0  0  0  0  0  0  0  0  0
   13.8527   12.1469  -13.1795 C   0  0  0  0  0  0  0  0  0  0  0  0
   11.8004   14.7754   -7.6745 C   0  0  2  0  0  0  0  0  0  0  0  0
   13.1284   14.6229   -7.1156 O   0  0  0  0  0  0  0  0  0  0  0  0
   11.8090   11.0886   -6.4764 C   0  0  2  0  0  0  0  0  0  0  0  0
   11.0739   10.4380   -5.3507 N   0  0  0  0  0  0  0  0  0  0  0  0
   10.7622   18.1635  -13.3507 C   0  0  1  0  0  0  0  0  0  0  0  0
   10.7194   19.3756  -14.1056 O   0  0  0  0  0  0  0  0  0  0  0  0
   13.2415   13.5494  -13.5561 C   0  0  2  0  0  0  0  0  0  0  0  0
   14.2051   14.3298  -14.3785 N   0  0  0  0  0  0  0  0  0  0  0  0
   10.6427   14.4568   -6.7271 C   0  0  2  0  0  0  0  0  0  0  0  0
   10.9894   13.3828   -5.7960 O   0  0  0  0  0  0  0  0  0  0  0  0
   13.1740   10.3132   -6.7968 C   0  0  1  0  0  0  0  0  0  0  0  0
   13.6502   10.7239   -8.0981 O   0  0  0  0  0  0  0  0  0  0  0  0
    9.4188   17.8971  -12.6341 C   0  0  2  0  0  0  0  0  0  0  0  0
    9.0863   18.9856  -11.8040 O   0  0  0  0  0  0  0  0  0  0  0  0
   12.8742   14.3648  -12.2538 C   0  0  2  0  0  0  0  0  0  0  0  0
    9.4586   14.0567   -7.6233 C   0  0  2  0  0  0  0  0  0  0  0  0
   10.0963   13.4637   -8.7521 O   0  0  0  0  0  0  0  0  0  0  0  0
   14.3123   10.5791   -5.7010 C   0  0  2  0  0  0  0  0  0  0  0  0
   13.9067    9.9360   -4.4934 O   0  0  0  0  0  0  0  0  0  0  0  0
    9.5390   16.5800  -11.7973 C   0  0  2  0  0  0  0  0  0  0  0  0
    9.8938   15.4678  -12.6788 O   0  0  0  0  0  0  0  0  0  0  0  0
   11.8863   13.6127  -11.3351 C   0  0  2  0  0  0  0  0  0  0  0  0
   11.8088   14.4115  -10.1225 O   0  0  0  0  0  0  0  0  0  0  0  0
    8.5334   15.2359   -8.0567 C   0  0  0  0  0  0  0  0  0  0  0  0
    7.2740   14.7170   -8.4733 O   0  0  0  0  0  0  0  0  0  0  0  0
   14.5008   12.1245   -5.4590 C   0  0  1  0  0  0  0  0  0  0  0  0
   13.1814   12.6389   -5.0528 O   0  0  0  0  0  0  0  0  0  0  0  0
    8.2622   16.2379  -11.0648 C   0  0  0  0  0  0  0  0  0  0  0  0
    7.2188   16.0226  -11.9837 O   0  0  0  0  0  0  0  0  0  0  0  0
   12.4321   12.1580  -11.0162 C   0  0  1  0  0  0  0  0  0  0  0  0
   11.4504   11.4103  -10.2932 O   0  0  0  0  0  0  0  0  0  0  0  0
   15.5918   12.4793   -4.3579 C   0  0  0  0  0  0  0  0  0  0  0  0
   15.6010   13.8945   -3.8956 N   0  0  0  0  0  0  0  0  0  0  0  0
  1  2  1  1  0  0  0
  1  7  1  0  0  0  0
  1 30  1  0  0  0  0
  3  4  1  1  0  0  0
  3  9  1  0  0  0  0
  3 39  1  0  0  0  0
  5 10  1  0  0  0  0
  5 26  1  0  0  0  0
  5 32  1  6  0  0  0
  6 12  1  0  0  0  0
  6 36  1  0  0  0  0
  6 19  1  1  0  0  0
  7  8  1  1  0  0  0
  7 14  1  0  0  0  0
  9 16  1  0  0  0  0
 10 11  1  1  0  0  0
 10 18  1  0  0  0  0
 12 13  1  1  0  0  0
 12 20  1  0  0  0  0
 14 15  1  6  0  0  0
 14 22  1  0  0  0  0
 16 17  1  1  0  0  0
 16 24  1  0  0  0  0
 18 19  1  1  0  0  0
 18 25  1  0  0  0  0
 20 21  1  6  0  0  0
 20 27  1  0  0  0  0
 22 23  1  1  0  0  0
 22 29  1  0  0  0  0
 24  2  1  6  0  0  0
 24 31  1  0  0  0  0
 25 26  1  0  0  0  0
 25 33  1  6  0  0  0
 27 28  1  1  0  0  0
 27 35  1  0  0  0  0
 29 30  1  0  0  0  0
 29 37  1  6  0  0  0
 31 32  1  1  0  0  0
 31 39  1  0  0  0  0
 33 34  1  0  0  0  0
 35 36  1  0  0  0  0
 35 41  1  1  0  0  0
 37 38  1  0  0  0  0
 39 40  1  6  0  0  0
 41 42  1  0  0  0  0
M  END
>  <CHROM.1>
-154.12412925,56.37440252,-16.53229935,-114.15718076,-160.48105442,61.76405374
-152.37006464,166.42128136,-167.72075992,11.68015835,13.99284215,-9.64805470
-1.98368311,-0.74170107,1.87564468

>  <Name>
ligand

>  <RI>
0

>  <Rbt.Current_Directory>
/home/itssahil/PROJECTS/Mol_Feturizer/Test_systems_manuscript/rnas/2o3w

>  <Rbt.Executable>
rbdock ($Id: //depot/dev/client3/rdock/2013.1/src/exe/rbdock.cxx#4 $)

>  <Rbt.Library>
libRbt.so (2013.1, Build901 2013/11/27)

>  <Rbt.Parameter_File>
/export/apps/rDock/src/rDock_2013.1_src/data/scripts/dock_solv.prm

>  <Rbt.Receptor>
prm/blind_docking_100.prm

>  <SCORE>
15.2785

>  <SCORE.INTER>
0.83843

>  <SCORE.INTER.CONST>
1

>  <SCORE.INTER.POLAR>
0

>  <SCORE.INTER.ROT>
9

>  <SCORE.INTER.SOLV>
27.5374

>  <SCORE.INTER.VDW>
-18.2202

>  <SCORE.INTER.norm>
0.0199626

>  <SCORE.INTRA>
2.25677

>  <SCORE.INTRA.DIHEDRAL>
-6.22494

>  <SCORE.INTRA.DIHEDRAL.0>
27.8999

>  <SCORE.INTRA.POLAR>
0

>  <SCORE.INTRA.POLAR.0>
0

>  <SCORE.INTRA.REPUL>
0

>  <SCORE.INTRA.REPUL.0>
0

>  <SCORE.INTRA.SOLV>
-1.28545

>  <SCORE.INTRA.SOLV.lig_0>
-104.479

>  <SCORE.INTRA.VDW>
6.01197

>  <SCORE.INTRA.VDW.0>
-6.17816

>  <SCORE.INTRA.norm>
0.0537327

>  <SCORE.RESTR>
12.1833

>  <SCORE.RESTR.CAVITY>
12.1833

>  <SCORE.RESTR.norm>
0.290077

>  <SCORE.SYSTEM>
0

>  <SCORE.SYSTEM.CONST>
0

>  <SCORE.SYSTEM.DIHEDRAL>
0

>  <SCORE.SYSTEM.SOLV>
0

>  <SCORE.SYSTEM.norm>
0

>  <SCORE.heavy>
42

>  <SCORE.norm>
0.363773

>  <RMSD>
19.486

$$$$
ligand
 OpenBabel02271912133D
libRbt.so/2013.1/901 2013/11/27
 42 45  0  0  0  0  0  0  0  0999 V2000
   11.2501   16.0204  -10.5612 C   0  0  2  0  0  0  0  0  0  0  0  0
   10.5335   14.7765  -10.4802 O   0  0  0  0  0  0  0  0  0  0  0  0
   11.8692   13.4843   -6.5633 C   0  0  2  0  0  0  0  0  0  0  0  0
   12.2193   12.6417   -5.3809 N   0  0  0  0  0  0  0  0  0  0  0  0
   12.7320   11.8081  -10.5550 C   0  0  1  0  0  0  0  0  0  0  0  0
   13.7351    8.9873  -11.4106 C   0  0  1  0  0  0  0  0  0  0  0  0
   10.2064   17.1253  -10.9046 C   0  0  2  0  0  0  0  0  0  0  0  0
    9.0276   17.0812  -10.0220 N   0  0  0  0  0  0  0  0  0  0  0  0
   10.3172   13.4346   -6.8642 C   0  0  0  0  0  0  0  0  0  0  0  0
   13.6340   10.9551   -9.6118 C   0  0  2  0  0  0  0  0  0  0  0  0
   14.9264   10.6217  -10.1753 O   0  0  0  0  0  0  0  0  0  0  0  0
   13.0693    9.9089  -12.4952 C   0  0  2  0  0  0  0  0  0  0  0  0
   11.7802    9.3250  -12.9728 N   0  0  0  0  0  0  0  0  0  0  0  0
    9.6853   17.0083  -12.3488 C   0  0  1  0  0  0  0  0  0  0  0  0
    8.7633   18.0622  -12.6318 O   0  0  0  0  0  0  0  0  0  0  0  0
   10.0079   14.3571   -8.1035 C   0  0  2  0  0  0  0  0  0  0  0  0
    8.5513   14.3456   -8.4064 N   0  0  0  0  0  0  0  0  0  0  0  0
   12.7151    9.7690   -9.3148 C   0  0  2  0  0  0  0  0  0  0  0  0
   12.8991    8.6897  -10.2854 O   0  0  0  0  0  0  0  0  0  0  0  0
   14.0917   10.1183  -13.7108 C   0  0  1  0  0  0  0  0  0  0  0  0
   15.1446   11.0131  -13.2869 O   0  0  0  0  0  0  0  0  0  0  0  0
   10.8790   17.0240  -13.3305 C   0  0  2  0  0  0  0  0  0  0  0  0
   10.4176   16.9345  -14.6585 O   0  0  0  0  0  0  0  0  0  0  0  0
   10.8170   13.8754   -9.3721 C   0  0  2  0  0  0  0  0  0  0  0  0
   11.2805   10.3214   -9.3610 C   0  0  2  0  0  0  0  0  0  0  0  0
   11.3729   11.3754  -10.3166 O   0  0  0  0  0  0  0  0  0  0  0  0
   14.7325    8.7439  -14.2284 C   0  0  2  0  0  0  0  0  0  0  0  0
   13.6958    7.9981  -14.8653 O   0  0  0  0  0  0  0  0  0  0  0  0
   11.8322   15.8290  -12.9945 C   0  0  2  0  0  0  0  0  0  0  0  0
   12.2896   15.9390  -11.6094 O   0  0  0  0  0  0  0  0  0  0  0  0
   12.3425   13.8441   -9.1331 C   0  0  2  0  0  0  0  0  0  0  0  0
   12.9017   13.2116  -10.3170 O   0  0  0  0  0  0  0  0  0  0  0  0
   10.7333   10.8465   -7.9975 C   0  0  0  0  0  0  0  0  0  0  0  0
   10.9205    9.8476   -6.9994 O   0  0  0  0  0  0  0  0  0  0  0  0
   15.3344    7.9235  -13.0256 C   0  0  1  0  0  0  0  0  0  0  0  0
   14.2276    7.7189  -12.0752 O   0  0  0  0  0  0  0  0  0  0  0  0
   13.0361   15.7713  -13.9061 C   0  0  0  0  0  0  0  0  0  0  0  0
   13.5830   17.0572  -14.0690 O   0  0  0  0  0  0  0  0  0  0  0  0
   12.6772   12.9992   -7.8331 C   0  0  1  0  0  0  0  0  0  0  0  0
   14.0710   13.0961   -7.5270 O   0  0  0  0  0  0  0  0  0  0  0  0
   15.9634    6.5249  -13.4461 C   0  0  0  0  0  0  0  0  0  0  0  0
   17.0268    6.5856  -14.4863 N   0  0  0  0  0  0  0  0  0  0  0  0
  1  2  1  6  0  0  0
  1  7  1  0  0  0  0
  1 30  1  0  0  0  0
  3  4  1  1  0  0  0
  3  9  1  0  0  0  0
  3 39  1  0  0  0  0
  5 10  1  0  0  0  0
  5 26  1  0  0  0  0
  5 32  1  1  0  0  0
  6 12  1  0  0  0  0
  6 36  1  0  0  0  0
  6 19  1  1  0  0  0
  7  8  1  1  0  0  0
  7 14  1  0  0  0  0
  9 16  1  0  0  0  0
 10 11  1  6  0  0  0
 10 18  1  0  0  0  0
 12 13  1  6  0  0  0
 12 20  1  0  0  0  0
 14 15  1  6  0  0  0
 14 22  1  0  0  0  0
 16 17  1  6  0  0  0
 16 24  1  0  0  0  0
 18 19  1  6  0  0  0
 18 25  1  0  0  0  0
 20 21  1  1  0  0  0
 20 27  1  0  0  0  0
 22 23  1  6  0  0  0
 22 29  1  0  0  0  0
 24  2  1  6  0  0  0
 24 31  1  0  0  0  0
 25 26  1  0  0  0  0
 25 33  1  1  0  0  0
 27 28  1  1  0  0  0
 27 35  1  0  0  0  0
 29 30  1  0  0  0  0
 29 37  1  6  0  0  0
 31 32  1  6  0  0  0
 31 39  1  0  0  0  0
 33 34  1  0  0  0  0
 35 36  1  0  0  0  0
 35 41  1  6  0  0  0
 37 38  1  0  0  0  0
 39 40  1  1  0  0  0
 41 42  1  0  0  0  0
M  END
>  <CHROM.1>
-135.34262208,81.78330613,-8.16198598,-74.95850951,-51.32150900,44.43608278
-71.80753386,-73.89786256,56.27704873,12.32944822,12.45319281,-10.92218995
-2.79825658,-1.06923804,2.17526066

>  <Name>
ligand

>  <RI>
0

>  <Rbt.Current_Directory>
/home/itssahil/PROJECTS/Mol_Feturizer/Test_systems_manuscript/rnas/2o3w

>  <Rbt.Executable>
rbdock ($Id: //depot/dev/client3/rdock/2013.1/src/exe/rbdock.cxx#4 $)

>  <Rbt.Library>
libRbt.so (2013.1, Build901 2013/11/27)

>  <Rbt.Parameter_File>
/export/apps/rDock/src/rDock_2013.1_src/data/scripts/dock_solv.prm

>  <Rbt.Receptor>
prm/blind_docking_80.prm

>  <SCORE>
24.0024

>  <SCORE.INTER>
3.09055

>  <SCORE.INTER.CONST>
1

>  <SCORE.INTER.POLAR>
0

>  <SCORE.INTER.ROT>
9

>  <SCORE.INTER.SOLV>
29.0524

>  <SCORE.INTER.VDW>
-17.2238

>  <SCORE.INTER.norm>
0.0735844

>  <SCORE.INTRA>
11.1771

>  <SCORE.INTRA.DIHEDRAL>
-8.98634

>  <SCORE.INTRA.DIHEDRAL.0>
27.8999

>  <SCORE.INTRA.POLAR>
0

>  <SCORE.INTRA.POLAR.0>
0

>  <SCORE.INTRA.REPUL>
0

>  <SCORE.INTRA.REPUL.0>
0

>  <SCORE.INTRA.SOLV>
3.7223

>  <SCORE.INTRA.SOLV.lig_0>
-104.479

>  <SCORE.INTRA.VDW>
13.8091

>  <SCORE.INTRA.VDW.0>
-6.17816

>  <SCORE.INTRA.norm>
0.266122

>  <SCORE.RESTR>
9.73473

>  <SCORE.RESTR.CAVITY>
9.73473

>  <SCORE.RESTR.norm>
0.231779

>  <SCORE.SYSTEM>
0

>  <SCORE.SYSTEM.CONST>
0

>  <SCORE.SYSTEM.DIHEDRAL>
0

>  <SCORE.SYSTEM.SOLV>
0

>  <SCORE.SYSTEM.norm>
0

>  <SCORE.heavy>
42

>  <SCORE.norm>
0.571486

>  <RMSD>
19.523

$$$$
ligand
 OpenBabel02271912133D
libRbt.so/2013.1/901 2013/11/27
 42 45  0  0  0  0  0  0  0  0999 V2000
   12.5134   10.5039   -8.7790 C   0  0  2  0  0  0  0  0  0  0  0  0
   11.7764   11.0158   -9.9024 O   0  0  0  0  0  0  0  0  0  0  0  0
   14.6081    9.9174  -12.9960 C   0  0  2  0  0  0  0  0  0  0  0  0
   15.3072    9.7846  -14.3091 N   0  0  0  0  0  0  0  0  0  0  0  0
   12.7962   13.8335  -12.0791 C   0  0  1  0  0  0  0  0  0  0  0  0
   11.8265   15.8329  -14.4963 C   0  0  1  0  0  0  0  0  0  0  0  0
   11.4672   10.0475   -7.7182 C   0  0  2  0  0  0  0  0  0  0  0  0
   10.4232    9.1811   -8.2925 N   0  0  0  0  0  0  0  0  0  0  0  0
   13.1768    9.2455  -13.0373 C   0  0  0  0  0  0  0  0  0  0  0  0
   11.3547   13.3352  -12.4024 C   0  0  2  0  0  0  0  0  0  0  0  0
   11.2963   12.3464  -13.4597 O   0  0  0  0  0  0  0  0  0  0  0  0
   11.7732   17.3040  -13.9470 C   0  0  2  0  0  0  0  0  0  0  0  0
   10.4962   17.9732  -14.3371 N   0  0  0  0  0  0  0  0  0  0  0  0
   10.7452   11.2376   -7.0599 C   0  0  1  0  0  0  0  0  0  0  0  0
    9.8263   10.7752   -6.0685 O   0  0  0  0  0  0  0  0  0  0  0  0
   12.5006    9.3978  -11.6223 C   0  0  2  0  0  0  0  0  0  0  0  0
   11.1552    8.7626  -11.6208 N   0  0  0  0  0  0  0  0  0  0  0  0
   10.6414   14.6569  -12.6917 C   0  0  2  0  0  0  0  0  0  0  0  0
   10.7183   15.0108  -14.1093 O   0  0  0  0  0  0  0  0  0  0  0  0
   13.0400   18.1186  -14.4935 C   0  0  1  0  0  0  0  0  0  0  0  0
   14.2215   17.6709  -13.7917 O   0  0  0  0  0  0  0  0  0  0  0  0
   11.7892   12.2036   -6.4550 C   0  0  2  0  0  0  0  0  0  0  0  0
   11.1434   13.2905   -5.8337 O   0  0  0  0  0  0  0  0  0  0  0  0
   12.3676   10.9223  -11.2298 C   0  0  2  0  0  0  0  0  0  0  0  0
   11.3342   15.7138  -11.8151 C   0  0  2  0  0  0  0  0  0  0  0  0
   12.6726   15.2306  -11.7270 O   0  0  0  0  0  0  0  0  0  0  0  0
   13.2566   17.9463  -16.0718 C   0  0  2  0  0  0  0  0  0  0  0  0
   12.1877   18.6247  -16.7301 O   0  0  0  0  0  0  0  0  0  0  0  0
   12.7419   12.7028   -7.5920 C   0  0  2  0  0  0  0  0  0  0  0  0
   13.3924   11.5569   -8.2273 O   0  0  0  0  0  0  0  0  0  0  0  0
   13.7245   11.6598  -11.2239 C   0  0  2  0  0  0  0  0  0  0  0  0
   13.3959   13.0629  -11.0296 O   0  0  0  0  0  0  0  0  0  0  0  0
   10.7116   15.9038  -10.3972 C   0  0  0  0  0  0  0  0  0  0  0  0
    9.3546   16.3157  -10.5306 O   0  0  0  0  0  0  0  0  0  0  0  0
   13.2615   16.4217  -16.4690 C   0  0  1  0  0  0  0  0  0  0  0  0
   11.9763   15.8732  -16.0026 O   0  0  0  0  0  0  0  0  0  0  0  0
   13.8035   13.6520   -7.0862 C   0  0  0  0  0  0  0  0  0  0  0  0
   13.2068   14.7268   -6.4021 O   0  0  0  0  0  0  0  0  0  0  0  0
   14.4727   11.4438  -12.6057 C   0  0  1  0  0  0  0  0  0  0  0  0
   15.7901   11.9975  -12.5453 O   0  0  0  0  0  0  0  0  0  0  0  0
   13.4381   16.1590  -18.0273 C   0  0  0  0  0  0  0  0  0  0  0  0
   14.7091   16.6559  -18.6224 N   0  0  0  0  0  0  0  0  0  0  0  0
  1  2  1  6  0  0  0
  1  7  1  0  0  0  0
  1 30  1  0  0  0  0
  3  4  1  6  0  0  0
  3  9  1  0  0  0  0
  3 39  1  0  0  0  0
  5 10  1  0  0  0  0
  5 26  1  0  0  0  0
  5 32  1  1  0  0  0
  6 12  1  0  0  0  0
  6 36  1  0  0  0  0
  6 19  1  6  0  0  0
  7  8  1  6  0  0  0
  7 14  1  0  0  0  0
  9 16  1  0  0  0  0
 10 11  1  6  0  0  0
 10 18  1  0  0  0  0
 12 13  1  6  0  0  0
 12 20  1  0  0  0  0
 14 15  1  1  0  0  0
 14 22  1  0  0  0  0
 16 17  1  6  0  0  0
 16 24  1  0  0  0  0
 18 19  1  6  0  0  0
 18 25  1  0  0  0  0
 20 21  1  1  0  0  0
 20 27  1  0  0  0  0
 22 23  1  6  0  0  0
 22 29  1  0  0  0  0
 24  2  1  1  0  0  0
 24 31  1  0  0  0  0
 25 26  1  0  0  0  0
 25 33  1  1  0  0  0
 27 28  1  6  0  0  0
 27 35  1  0  0  0  0
 29 30  1  0  0  0  0
 29 37  1  1  0  0  0
 31 32  1  6  0  0  0
 31 39  1  0  0  0  0
 33 34  1  0  0  0  0
 35 36  1  0  0  0  0
 35 41  1  6  0  0  0
 37 38  1  0  0  0  0
 39 40  1  1  0  0  0
 41 42  1  0  0  0  0
M  END
>  <CHROM.1>
-151.08120454,65.21220351,-91.64775301,-68.60077783,-60.36965807,-54.72831705
-72.47269870,66.63377783,61.33489043,12.38070408,13.55762992,-11.73329507
-1.80545241,1.18242141,-0.72154794

>  <Name>
ligand

>  <RI>
0

>  <Rbt.Current_Directory>
/home/itssahil/PROJECTS/Mol_Feturizer/Test_systems_manuscript/rnas/2o3w

>  <Rbt.Executable>
rbdock ($Id: //depot/dev/client3/rdock/2013.1/src/exe/rbdock.cxx#4 $)

>  <Rbt.Library>
libRbt.so (2013.1, Build901 2013/11/27)

>  <Rbt.Parameter_File>
/export/apps/rDock/src/rDock_2013.1_src/data/scripts/dock_solv.prm

>  <Rbt.Receptor>
prm/blind_docking_100.prm

>  <SCORE>
7.1996

>  <SCORE.INTER>
2.56442

>  <SCORE.INTER.CONST>
1

>  <SCORE.INTER.POLAR>
0

>  <SCORE.INTER.ROT>
9

>  <SCORE.INTER.SOLV>
28.4908

>  <SCORE.INTER.VDW>
-17.3873

>  <SCORE.INTER.norm>
0.0610577

>  <SCORE.INTRA>
-3.4668

>  <SCORE.INTRA.DIHEDRAL>
-18.9042

>  <SCORE.INTRA.DIHEDRAL.0>
27.8999

>  <SCORE.INTRA.POLAR>
0

>  <SCORE.INTRA.POLAR.0>
0

>  <SCORE.INTRA.REPUL>
0

>  <SCORE.INTRA.REPUL.0>
0

>  <SCORE.INTRA.SOLV>
-1.00456

>  <SCORE.INTRA.SOLV.lig_0>
-104.479

>  <SCORE.INTRA.VDW>
6.48761

>  <SCORE.INTRA.VDW.0>
-6.17816

>  <SCORE.INTRA.norm>
-0.0825428

>  <SCORE.RESTR>
8.10198

>  <SCORE.RESTR.CAVITY>
8.10198

>  <SCORE.RESTR.norm>
0.192904

>  <SCORE.SYSTEM>
0

>  <SCORE.SYSTEM.CONST>
0

>  <SCORE.SYSTEM.DIHEDRAL>
0

>  <SCORE.SYSTEM.SOLV>
0

>  <SCORE.SYSTEM.norm>
0

>  <SCORE.heavy>
42

>  <SCORE.norm>
0.171419

>  <RMSD>
19.592

$$$$
ligand
 OpenBabel02271912133D
libRbt.so/2013.1/901 2013/11/27
 42 45  0  0  0  0  0  0  0  0999 V2000
   10.4732   14.7518  -10.9871 C   0  0  2  0  0  0  0  0  0  0  0  0
   11.0924   15.1587   -9.7549 O   0  0  0  0  0  0  0  0  0  0  0  0
   12.9681   12.9927   -6.5013 C   0  0  2  0  0  0  0  0  0  0  0  0
   13.2384   12.0103   -5.4094 N   0  0  0  0  0  0  0  0  0  0  0  0
   12.5386   11.2488  -10.6248 C   0  0  1  0  0  0  0  0  0  0  0  0
   14.1445    8.5395  -11.9760 C   0  0  1  0  0  0  0  0  0  0  0  0
   11.5488   14.8944  -12.1057 C   0  0  2  0  0  0  0  0  0  0  0  0
   12.8246   14.2512  -11.7462 N   0  0  0  0  0  0  0  0  0  0  0  0
   11.7254   13.9079   -6.1552 C   0  0  0  0  0  0  0  0  0  0  0  0
   11.8625   10.0237   -9.9371 C   0  0  2  0  0  0  0  0  0  0  0  0
   12.4906    9.6249   -8.6939 O   0  0  0  0  0  0  0  0  0  0  0  0
   15.4372    7.6486  -11.9125 C   0  0  2  0  0  0  0  0  0  0  0  0
   16.0278    7.6627  -10.5407 N   0  0  0  0  0  0  0  0  0  0  0  0
   11.8674   16.3664  -12.4257 C   0  0  1  0  0  0  0  0  0  0  0  0
   12.8264   16.4496  -13.4813 O   0  0  0  0  0  0  0  0  0  0  0  0
   11.5048   14.9345   -7.3300 C   0  0  2  0  0  0  0  0  0  0  0  0
   10.3498   15.8232   -7.0305 N   0  0  0  0  0  0  0  0  0  0  0  0
   11.9067    8.9894  -11.0630 C   0  0  2  0  0  0  0  0  0  0  0  0
   13.1357    8.1968  -11.0175 O   0  0  0  0  0  0  0  0  0  0  0  0
   16.4928    8.1705  -12.9989 C   0  0  1  0  0  0  0  0  0  0  0  0
   16.0349    7.7894  -14.3158 O   0  0  0  0  0  0  0  0  0  0  0  0
   10.5617   17.1093  -12.7895 C   0  0  2  0  0  0  0  0  0  0  0  0
   10.8386   18.4548  -13.1016 O   0  0  0  0  0  0  0  0  0  0  0  0
   11.2508   14.1759   -8.6923 C   0  0  2  0  0  0  0  0  0  0  0  0
   11.8051    9.7855  -12.3750 C   0  0  2  0  0  0  0  0  0  0  0  0
   12.4339   11.0228  -12.0492 O   0  0  0  0  0  0  0  0  0  0  0  0
   16.7082    9.7573  -12.9448 C   0  0  2  0  0  0  0  0  0  0  0  0
   17.3922   10.0581  -11.7290 O   0  0  0  0  0  0  0  0  0  0  0  0
    9.5675   17.0144  -11.5844 C   0  0  2  0  0  0  0  0  0  0  0  0
    9.3036   15.6095  -11.2739 O   0  0  0  0  0  0  0  0  0  0  0  0
   12.4021   13.2174   -9.0677 C   0  0  2  0  0  0  0  0  0  0  0  0
   11.9235   12.4809  -10.2266 O   0  0  0  0  0  0  0  0  0  0  0  0
   10.3521   10.0142  -12.8952 C   0  0  0  0  0  0  0  0  0  0  0  0
   10.3741   10.9784  -13.9434 O   0  0  0  0  0  0  0  0  0  0  0  0
   15.3238   10.5081  -12.9917 C   0  0  1  0  0  0  0  0  0  0  0  0
   14.5416    9.9956  -11.8533 O   0  0  0  0  0  0  0  0  0  0  0  0
    8.2550   17.7120  -11.8571 C   0  0  0  0  0  0  0  0  0  0  0  0
    7.4938   17.7915  -10.6766 O   0  0  0  0  0  0  0  0  0  0  0  0
   12.7109   12.2321   -7.8636 C   0  0  1  0  0  0  0  0  0  0  0  0
   13.8722   11.4488   -8.1524 O   0  0  0  0  0  0  0  0  0  0  0  0
   15.4427   12.0916  -12.9084 C   0  0  0  0  0  0  0  0  0  0  0  0
   14.2139   12.8481  -13.2750 N   0  0  0  0  0  0  0  0  0  0  0  0
  1  2  1  1  0  0  0
  1  7  1  0  0  0  0
  1 30  1  0  0  0  0
  3  4  1  1  0  0  0
  3  9  1  0  0  0  0
  3 39  1  0  0  0  0
  5 10  1  0  0  0  0
  5 26  1  0  0  0  0
  5 32  1  6  0  0  0
  6 12  1  0  0  0  0
  6 36  1  0  0  0  0
  6 19  1  1  0  0  0
  7  8  1  1  0  0  0
  7 14  1  0  0  0  0
  9 16  1  0  0  0  0
 10 11  1  1  0  0  0
 10 18  1  0  0  0  0
 12 13  1  1  0  0  0
 12 20  1  0  0  0  0
 14 15  1  6  0  0  0
 14 22  1  0  0  0  0
 16 17  1  1  0  0  0
 16 24  1  0  0  0  0
 18 19  1  6  0  0  0
 18 25  1  0  0  0  0
 20 21  1  6  0  0  0
 20 27  1  0  0  0  0
 22 23  1  1  0  0  0
 22 29  1  0  0  0  0
 24  2  1  6  0  0  0
 24 31  1  0  0  0  0
 25 26  1  0  0  0  0
 25 33  1  1  0  0  0
 27 28  1  1  0  0  0
 27 35  1  0  0  0  0
 29 30  1  0  0  0  0
 29 37  1  6  0  0  0
 31 32  1  6  0  0  0
 31 39  1  0  0  0  0
 33 34  1  0  0  0  0
 35 36  1  0  0  0  0
 35 41  1  1  0  0  0
 37 38  1  0  0  0  0
 39 40  1  6  0  0  0
 41 42  1  0  0  0  0
M  END
>  <CHROM.1>
-116.18724164,-161.94468187,-103.07140328,-178.91531956,168.23142197,-170.15793787
-161.79108142,90.01123731,165.84877054,12.54272490,12.47931965,-10.93786697
-3.10553563,-1.00119957,1.77501263

>  <Name>
ligand

>  <RI>
0

>  <Rbt.Current_Directory>
/home/itssahil/PROJECTS/Mol_Feturizer/Test_systems_manuscript/rnas/2o3w

>  <Rbt.Executable>
rbdock ($Id: //depot/dev/client3/rdock/2013.1/src/exe/rbdock.cxx#4 $)

>  <Rbt.Library>
libRbt.so (2013.1, Build901 2013/11/27)

>  <Rbt.Parameter_File>
/export/apps/rDock/src/rDock_2013.1_src/data/scripts/dock_solv.prm

>  <Rbt.Receptor>
prm/blind_docking_40.prm

>  <SCORE>
18.0782

>  <SCORE.INTER>
-1.52668

>  <SCORE.INTER.CONST>
1

>  <SCORE.INTER.POLAR>
0

>  <SCORE.INTER.ROT>
9

>  <SCORE.INTER.SOLV>
36.1503

>  <SCORE.INTER.VDW>
-22.6679

>  <SCORE.INTER.norm>
-0.0363496

>  <SCORE.INTRA>
7.66624

>  <SCORE.INTRA.DIHEDRAL>
-6.63728

>  <SCORE.INTRA.DIHEDRAL.0>
27.8999

>  <SCORE.INTRA.POLAR>
0

>  <SCORE.INTRA.POLAR.0>
0

>  <SCORE.INTRA.REPUL>
0.0546505

>  <SCORE.INTRA.REPUL.0>
0

>  <SCORE.INTRA.SOLV>
4.85967

>  <SCORE.INTRA.SOLV.lig_0>
-104.479

>  <SCORE.INTRA.VDW>
8.28179

>  <SCORE.INTRA.VDW.0>
-6.17816

>  <SCORE.INTRA.norm>
0.18253

>  <SCORE.RESTR>
11.9386

>  <SCORE.RESTR.CAVITY>
11.9386

>  <SCORE.RESTR.norm>
0.284253

>  <SCORE.SYSTEM>
0

>  <SCORE.SYSTEM.CONST>
0

>  <SCORE.SYSTEM.DIHEDRAL>
0

>  <SCORE.SYSTEM.SOLV>
0

>  <SCORE.SYSTEM.norm>
0

>  <SCORE.heavy>
42

>  <SCORE.norm>
0.430433

>  <RMSD>
19.592

$$$$
ligand
 OpenBabel02271912133D
libRbt.so/2013.1/901 2013/11/27
 42 45  0  0  0  0  0  0  0  0999 V2000
   12.2812   13.4530   -7.3003 C   0  0  2  0  0  0  0  0  0  0  0  0
   12.9901   13.0921   -8.4980 O   0  0  0  0  0  0  0  0  0  0  0  0
   12.3744   10.9095  -12.1930 C   0  0  2  0  0  0  0  0  0  0  0  0
   11.7556   10.1097  -13.2920 N   0  0  0  0  0  0  0  0  0  0  0  0
   11.4136   15.5318  -10.8948 C   0  0  1  0  0  0  0  0  0  0  0  0
   12.6612   17.8891  -13.6858 C   0  0  1  0  0  0  0  0  0  0  0  0
   13.3533   13.7723   -6.2155 C   0  0  2  0  0  0  0  0  0  0  0  0
   14.3831   14.7085   -6.6990 N   0  0  0  0  0  0  0  0  0  0  0  0
   12.4541   10.0758  -10.8512 C   0  0  0  0  0  0  0  0  0  0  0  0
   11.3465   15.6111  -12.4504 C   0  0  2  0  0  0  0  0  0  0  0  0
   12.6330   15.4781  -13.1033 O   0  0  0  0  0  0  0  0  0  0  0  0
   13.4984   19.1893  -13.9637 C   0  0  2  0  0  0  0  0  0  0  0  0
   12.6141   20.3088  -14.4061 N   0  0  0  0  0  0  0  0  0  0  0  0
   14.0912   12.5095   -5.7338 C   0  0  1  0  0  0  0  0  0  0  0  0
   15.0344   12.8432   -4.7140 O   0  0  0  0  0  0  0  0  0  0  0  0
   13.1338   10.9617   -9.7396 C   0  0  2  0  0  0  0  0  0  0  0  0
   13.2384   10.2020   -8.4647 N   0  0  0  0  0  0  0  0  0  0  0  0
   10.6385   16.9522  -12.6491 C   0  0  2  0  0  0  0  0  0  0  0  0
   11.5941   18.0562  -12.7441 O   0  0  0  0  0  0  0  0  0  0  0  0
   14.6188   18.8717  -15.0641 C   0  0  1  0  0  0  0  0  0  0  0  0
   15.6587   18.0738  -14.4552 O   0  0  0  0  0  0  0  0  0  0  0  0
   13.0622   11.4706   -5.2329 C   0  0  2  0  0  0  0  0  0  0  0  0
   13.7230   10.3147   -4.7727 O   0  0  0  0  0  0  0  0  0  0  0  0
   12.3074   12.2868   -9.5008 C   0  0  2  0  0  0  0  0  0  0  0  0
    9.7071   17.1242  -11.4374 C   0  0  2  0  0  0  0  0  0  0  0  0
   10.4014   16.4376  -10.3987 O   0  0  0  0  0  0  0  0  0  0  0  0
   14.0341   18.1042  -16.3435 C   0  0  2  0  0  0  0  0  0  0  0  0
   13.2025   19.0212  -17.0533 O   0  0  0  0  0  0  0  0  0  0  0  0
   12.0817   11.1190   -6.4010 C   0  0  2  0  0  0  0  0  0  0  0  0
   11.4159   12.3351   -6.8673 O   0  0  0  0  0  0  0  0  0  0  0  0
   12.1396   13.1277  -10.7853 C   0  0  2  0  0  0  0  0  0  0  0  0
   11.2146   14.1911  -10.4276 O   0  0  0  0  0  0  0  0  0  0  0  0
    8.2689   16.5495  -11.6261 C   0  0  0  0  0  0  0  0  0  0  0  0
    7.4712   16.8985  -10.4988 O   0  0  0  0  0  0  0  0  0  0  0  0
   13.2009   16.8421  -15.9017 C   0  0  1  0  0  0  0  0  0  0  0  0
   12.1477   17.3418  -15.0010 O   0  0  0  0  0  0  0  0  0  0  0  0
   11.0327   10.1095   -5.9957 C   0  0  0  0  0  0  0  0  0  0  0  0
   10.3935    9.5899   -7.1362 O   0  0  0  0  0  0  0  0  0  0  0  0
   11.5446   12.2340  -11.9527 C   0  0  1  0  0  0  0  0  0  0  0  0
   11.5312   12.9694  -13.1793 O   0  0  0  0  0  0  0  0  0  0  0  0
   12.5538   16.0376  -17.1111 C   0  0  0  0  0  0  0  0  0  0  0  0
   13.5067   15.5730  -18.1564 N   0  0  0  0  0  0  0  0  0  0  0  0
  1  2  1  6  0  0  0
  1  7  1  0  0  0  0
  1 30  1  0  0  0  0
  3  4  1  6  0  0  0
  3  9  1  0  0  0  0
  3 39  1  0  0  0  0
  5 10  1  0  0  0  0
  5 26  1  0  0  0  0
  5 32  1  6  0  0  0
  6 12  1  0  0  0  0
  6 36  1  0  0  0  0
  6 19  1  1  0  0  0
  7  8  1  6  0  0  0
  7 14  1  0  0  0  0
  9 16  1  0  0  0  0
 10 11  1  6  0  0  0
 10 18  1  0  0  0  0
 12 13  1  6  0  0  0
 12 20  1  0  0  0  0
 14 15  1  1  0  0  0
 14 22  1  0  0  0  0
 16 17  1  1  0  0  0
 16 24  1  0  0  0  0
 18 19  1  1  0  0  0
 18 25  1  0  0  0  0
 20 21  1  1  0  0  0
 20 27  1  0  0  0  0
 22 23  1  6  0  0  0
 22 29  1  0  0  0  0
 24  2  1  1  0  0  0
 24 31  1  0  0  0  0
 25 26  1  0  0  0  0
 25 33  1  6  0  0  0
 27 28  1  1  0  0  0
 27 35  1  0  0  0  0
 29 30  1  0  0  0  0
 29 37  1  1  0  0  0
 31 32  1  1  0  0  0
 31 39  1  0  0  0  0
 33 34  1  0  0  0  0
 35 36  1  0  0  0  0
 35 41  1  6  0  0  0
 37 38  1  0  0  0  0
 39 40  1  6  0  0  0
 41 42  1  0  0  0  0
M  END
>  <CHROM.1>
157.54501055,-121.95242772,51.13568342,168.70622319,-173.78228910,-165.81347765
139.60699338,62.35694219,55.97301415,12.28678426,14.49095459,-11.00648326
1.80020172,-1.52246122,2.44465431

>  <Name>
ligand

>  <RI>
0

>  <Rbt.Current_Directory>
/home/itssahil/PROJECTS/Mol_Feturizer/Test_systems_manuscript/rnas/2o3w

>  <Rbt.Executable>
rbdock ($Id: //depot/dev/client3/rdock/2013.1/src/exe/rbdock.cxx#4 $)

>  <Rbt.Library>
libRbt.so (2013.1, Build901 2013/11/27)

>  <Rbt.Parameter_File>
/export/apps/rDock/src/rDock_2013.1_src/data/scripts/dock_solv.prm

>  <Rbt.Receptor>
prm/blind_docking_100.prm

>  <SCORE>
2.11321

>  <SCORE.INTER>
-6.40703

>  <SCORE.INTER.CONST>
1

>  <SCORE.INTER.POLAR>
0

>  <SCORE.INTER.ROT>
9

>  <SCORE.INTER.SOLV>
26.0468

>  <SCORE.INTER.VDW>
-22.5536

>  <SCORE.INTER.norm>
-0.152548

>  <SCORE.INTRA>
0.695311

>  <SCORE.INTRA.DIHEDRAL>
-11.0678

>  <SCORE.INTRA.DIHEDRAL.0>
27.8999

>  <SCORE.INTRA.POLAR>
0

>  <SCORE.INTRA.POLAR.0>
0

>  <SCORE.INTRA.REPUL>
0

>  <SCORE.INTRA.REPUL.0>
0

>  <SCORE.INTRA.SOLV>
0.407379

>  <SCORE.INTRA.SOLV.lig_0>
-104.479

>  <SCORE.INTRA.VDW>
6.02551

>  <SCORE.INTRA.VDW.0>
-6.17816

>  <SCORE.INTRA.norm>
0.016555

>  <SCORE.RESTR>
7.82493

>  <SCORE.RESTR.CAVITY>
7.82493

>  <SCORE.RESTR.norm>
0.186308

>  <SCORE.SYSTEM>
0

>  <SCORE.SYSTEM.CONST>
0

>  <SCORE.SYSTEM.DIHEDRAL>
0

>  <SCORE.SYSTEM.SOLV>
0

>  <SCORE.SYSTEM.norm>
0

>  <SCORE.heavy>
42

>  <SCORE.norm>
0.0503145

>  <RMSD>
19.596

$$$$
ligand
 OpenBabel02271912133D
libRbt.so/2013.1/901 2013/11/27
 42 45  0  0  0  0  0  0  0  0999 V2000
   11.5852   15.2424  -12.1284 C   0  0  2  0  0  0  0  0  0  0  0  0
   10.8466   14.1618  -12.7236 O   0  0  0  0  0  0  0  0  0  0  0  0
   11.5548   10.1535  -14.2162 C   0  0  2  0  0  0  0  0  0  0  0  0
   12.1377    8.7974  -14.4433 N   0  0  0  0  0  0  0  0  0  0  0  0
   11.6377   11.8672  -10.1021 C   0  0  1  0  0  0  0  0  0  0  0  0
   13.8400   11.9345   -7.9456 C   0  0  1  0  0  0  0  0  0  0  0  0
   10.7488   15.7519  -10.9163 C   0  0  2  0  0  0  0  0  0  0  0  0
   10.3188   14.6578  -10.0283 N   0  0  0  0  0  0  0  0  0  0  0  0
   12.5590   11.2918  -14.6609 C   0  0  0  0  0  0  0  0  0  0  0  0
   12.1973   10.4120  -10.0920 C   0  0  2  0  0  0  0  0  0  0  0  0
   11.6748    9.5871   -9.0218 O   0  0  0  0  0  0  0  0  0  0  0  0
   14.4988   12.0483   -6.5237 C   0  0  2  0  0  0  0  0  0  0  0  0
   14.1995   10.8396   -5.6988 N   0  0  0  0  0  0  0  0  0  0  0  0
    9.4738   16.4943  -11.3570 C   0  0  1  0  0  0  0  0  0  0  0  0
    8.7604   16.9771  -10.2174 O   0  0  0  0  0  0  0  0  0  0  0  0
   11.8813   12.6934  -14.4188 C   0  0  2  0  0  0  0  0  0  0  0  0
   12.7946   13.7895  -14.8407 N   0  0  0  0  0  0  0  0  0  0  0  0
   13.7038   10.6734  -10.0515 C   0  0  2  0  0  0  0  0  0  0  0  0
   14.1988   10.7556   -8.6771 O   0  0  0  0  0  0  0  0  0  0  0  0
   13.9756   13.3804   -5.8036 C   0  0  1  0  0  0  0  0  0  0  0  0
   14.6050   14.5245   -6.4232 O   0  0  0  0  0  0  0  0  0  0  0  0
    9.8530   17.6463  -12.3152 C   0  0  2  0  0  0  0  0  0  0  0  0
    8.6979   18.3466  -12.7148 O   0  0  0  0  0  0  0  0  0  0  0  0
   11.5045   12.8742  -12.8953 C   0  0  2  0  0  0  0  0  0  0  0  0
   13.9254   11.9965  -10.8037 C   0  0  2  0  0  0  0  0  0  0  0  0
   12.7195   12.7143  -10.5528 O   0  0  0  0  0  0  0  0  0  0  0  0
   12.3829   13.5413   -5.8746 C   0  0  2  0  0  0  0  0  0  0  0  0
   11.8105   12.5342   -5.0411 O   0  0  0  0  0  0  0  0  0  0  0  0
   10.5975   17.0529  -13.5575 C   0  0  2  0  0  0  0  0  0  0  0  0
   11.7863   16.3235  -13.1165 O   0  0  0  0  0  0  0  0  0  0  0  0
   10.5675   11.7626  -12.3741 C   0  0  2  0  0  0  0  0  0  0  0  0
   10.4792   11.9792  -10.9389 O   0  0  0  0  0  0  0  0  0  0  0  0
   14.1816   11.8477  -12.3355 C   0  0  0  0  0  0  0  0  0  0  0  0
   15.3294   11.0302  -12.5433 O   0  0  0  0  0  0  0  0  0  0  0  0
   11.8731   13.3773   -7.3563 C   0  0  1  0  0  0  0  0  0  0  0  0
   12.3370   12.0528   -7.8044 O   0  0  0  0  0  0  0  0  0  0  0  0
   11.0128   18.1154  -14.5487 C   0  0  0  0  0  0  0  0  0  0  0  0
   11.9814   18.9602  -13.9765 O   0  0  0  0  0  0  0  0  0  0  0  0
   11.1810   10.3345  -12.6904 C   0  0  1  0  0  0  0  0  0  0  0  0
   10.2462    9.3085  -12.3452 O   0  0  0  0  0  0  0  0  0  0  0  0
   10.2948   13.4893   -7.5142 C   0  0  0  0  0  0  0  0  0  0  0  0
    9.6863   14.7494   -7.0059 N   0  0  0  0  0  0  0  0  0  0  0  0
  1  2  1  6  0  0  0
  1  7  1  0  0  0  0
  1 30  1  0  0  0  0
  3  4  1  1  0  0  0
  3  9  1  0  0  0  0
  3 39  1  0  0  0  0
  5 10  1  0  0  0  0
  5 26  1  0  0  0  0
  5 32  1  6  0  0  0
  6 12  1  0  0  0  0
  6 36  1  0  0  0  0
  6 19  1  1  0  0  0
  7  8  1  1  0  0  0
  7 14  1  0  0  0  0
  9 16  1  0  0  0  0
 10 11  1  1  0  0  0
 10 18  1  0  0  0  0
 12 13  1  1  0  0  0
 12 20  1  0  0  0  0
 14 15  1  1  0  0  0
 14 22  1  0  0  0  0
 16 17  1  1  0  0  0
 16 24  1  0  0  0  0
 18 19  1  1  0  0  0
 18 25  1  0  0  0  0
 20 21  1  6  0  0  0
 20 27  1  0  0  0  0
 22 23  1  6  0  0  0
 22 29  1  0  0  0  0
 24  2  1  6  0  0  0
 24 31  1  0  0  0  0
 25 26  1  0  0  0  0
 25 33  1  6  0  0  0
 27 28  1  1  0  0  0
 27 35  1  0  0  0  0
 29 30  1  0  0  0  0
 29 37  1  6  0  0  0
 31 32  1  1  0  0  0
 31 39  1  0  0  0  0
 33 34  1  0  0  0  0
 35 36  1  0  0  0  0
 35 41  1  1  0  0  0
 37 38  1  0  0  0  0
 39 40  1  6  0  0  0
 41 42  1  0  0  0  0
M  END
>  <CHROM.1>
-125.16566394,-104.47600746,-72.23500045,-174.58953717,-58.62394172,65.76514667
-63.22790941,-64.47402936,56.68227195,11.89104554,13.25667638,-10.67209949
2.59061163,1.20228892,-1.90897895

>  <Name>
ligand

>  <RI>
0

>  <Rbt.Current_Directory>
/home/itssahil/PROJECTS/Mol_Feturizer/Test_systems_manuscript/rnas/2o3w

>  <Rbt.Executable>
rbdock ($Id: //depot/dev/client3/rdock/2013.1/src/exe/rbdock.cxx#4 $)

>  <Rbt.Library>
libRbt.so (2013.1, Build901 2013/11/27)

>  <Rbt.Parameter_File>
/export/apps/rDock/src/rDock_2013.1_src/data/scripts/dock_solv.prm

>  <Rbt.Receptor>
prm/blind_docking_40.prm

>  <SCORE>
29.0686

>  <SCORE.INTER>
8.84984

>  <SCORE.INTER.CONST>
1

>  <SCORE.INTER.POLAR>
0

>  <SCORE.INTER.ROT>
9

>  <SCORE.INTER.SOLV>
26.1761

>  <SCORE.INTER.VDW>
-12.4255

>  <SCORE.INTER.norm>
0.210711

>  <SCORE.INTRA>
4.6984

>  <SCORE.INTRA.DIHEDRAL>
-13.4974

>  <SCORE.INTRA.DIHEDRAL.0>
27.8999

>  <SCORE.INTRA.POLAR>
0

>  <SCORE.INTRA.POLAR.0>
0

>  <SCORE.INTRA.REPUL>
0

>  <SCORE.INTRA.REPUL.0>
0

>  <SCORE.INTRA.SOLV>
6.03533

>  <SCORE.INTRA.SOLV.lig_0>
-104.479

>  <SCORE.INTRA.VDW>
8.42945

>  <SCORE.INTRA.VDW.0>
-6.17816

>  <SCORE.INTRA.norm>
0.111867

>  <SCORE.RESTR>
15.5204

>  <SCORE.RESTR.CAVITY>
15.5204

>  <SCORE.RESTR.norm>
0.369533

>  <SCORE.SYSTEM>
0

>  <SCORE.SYSTEM.CONST>
0

>  <SCORE.SYSTEM.DIHEDRAL>
0

>  <SCORE.SYSTEM.SOLV>
0

>  <SCORE.SYSTEM.norm>
0

>  <SCORE.heavy>
42

>  <SCORE.norm>
0.692111

>  <RMSD>
19.610

$$$$
ligand
 OpenBabel02271912133D
libRbt.so/2013.1/901 2013/11/27
 42 45  0  0  0  0  0  0  0  0999 V2000
    8.0282   18.0149  -11.4414 C   0  0  2  0  0  0  0  0  0  0  0  0
    9.1816   17.8438  -10.6001 O   0  0  0  0  0  0  0  0  0  0  0  0
   11.6238   15.6421  -13.4258 C   0  0  2  0  0  0  0  0  0  0  0  0
   12.7342   14.8590  -14.0457 N   0  0  0  0  0  0  0  0  0  0  0  0
   10.5314   15.0884   -9.0798 C   0  0  1  0  0  0  0  0  0  0  0  0
   12.9321   13.8724   -5.5067 C   0  0  1  0  0  0  0  0  0  0  0  0
    7.1281   19.0926  -10.7658 C   0  0  2  0  0  0  0  0  0  0  0  0
    7.8803   20.3043  -10.3962 N   0  0  0  0  0  0  0  0  0  0  0  0
   12.1052   17.0903  -13.0101 C   0  0  0  0  0  0  0  0  0  0  0  0
    9.9972   14.3342   -7.8241 C   0  0  2  0  0  0  0  0  0  0  0  0
    9.3084   15.1846   -6.8747 O   0  0  0  0  0  0  0  0  0  0  0  0
   14.2689   14.6680   -5.2856 C   0  0  2  0  0  0  0  0  0  0  0  0
   14.9158   14.9973   -6.5909 N   0  0  0  0  0  0  0  0  0  0  0  0
    6.4609   18.5735   -9.4788 C   0  0  1  0  0  0  0  0  0  0  0  0
    5.6161   19.5788   -8.9162 O   0  0  0  0  0  0  0  0  0  0  0  0
   10.8887   17.8726  -12.3850 C   0  0  2  0  0  0  0  0  0  0  0  0
   11.3029   19.2473  -11.9950 N   0  0  0  0  0  0  0  0  0  0  0  0
   11.2752   13.6686   -7.3114 C   0  0  2  0  0  0  0  0  0  0  0  0
   11.9832   14.5250   -6.3595 O   0  0  0  0  0  0  0  0  0  0  0  0
   15.2502   13.8055   -4.3583 C   0  0  1  0  0  0  0  0  0  0  0  0
   14.7563   13.8356   -3.0003 O   0  0  0  0  0  0  0  0  0  0  0  0
    5.6705   17.2827   -9.7924 C   0  0  2  0  0  0  0  0  0  0  0  0
    5.0396   16.8038   -8.6275 O   0  0  0  0  0  0  0  0  0  0  0  0
   10.3262   17.1097  -11.1211 C   0  0  2  0  0  0  0  0  0  0  0  0
   12.1356   13.3874   -8.5548 C   0  0  2  0  0  0  0  0  0  0  0  0
   11.7750   14.4446   -9.4406 O   0  0  0  0  0  0  0  0  0  0  0  0
   15.3889   12.2850   -4.8445 C   0  0  2  0  0  0  0  0  0  0  0  0
   16.1082   12.2906   -6.0770 O   0  0  0  0  0  0  0  0  0  0  0  0
    6.6529   16.2101  -10.3702 C   0  0  2  0  0  0  0  0  0  0  0  0
    7.3017   16.7339  -11.5720 O   0  0  0  0  0  0  0  0  0  0  0  0
    9.8874   15.6638  -11.4405 C   0  0  2  0  0  0  0  0  0  0  0  0
    9.5798   15.0645  -10.1517 O   0  0  0  0  0  0  0  0  0  0  0  0
   11.8992   11.9948   -9.2174 C   0  0  0  0  0  0  0  0  0  0  0  0
   12.9773   11.7059  -10.1024 O   0  0  0  0  0  0  0  0  0  0  0  0
   13.9683   11.6339   -5.0452 C   0  0  1  0  0  0  0  0  0  0  0  0
   13.2615   12.4855   -6.0176 O   0  0  0  0  0  0  0  0  0  0  0  0
    5.9601   14.9114  -10.7125 C   0  0  0  0  0  0  0  0  0  0  0  0
    6.8583   14.0360  -11.3498 O   0  0  0  0  0  0  0  0  0  0  0  0
   11.0638   14.8792  -12.1589 C   0  0  1  0  0  0  0  0  0  0  0  0
   10.6085   13.5935  -12.5895 O   0  0  0  0  0  0  0  0  0  0  0  0
   14.0121   10.1304   -5.5612 C   0  0  0  0  0  0  0  0  0  0  0  0
   12.8121    9.6752   -6.3158 N   0  0  0  0  0  0  0  0  0  0  0  0
  1  2  1  1  0  0  0
  1  7  1  0  0  0  0
  1 30  1  0  0  0  0
  3  4  1  1  0  0  0
  3  9  1  0  0  0  0
  3 39  1  0  0  0  0
  5 10  1  0  0  0  0
  5 26  1  0  0  0  0
  5 32  1  6  0  0  0
  6 12  1  0  0  0  0
  6 36  1  0  0  0  0
  6 19  1  6  0  0  0
  7  8  1  1  0  0  0
  7 14  1  0  0  0  0
  9 16  1  0  0  0  0
 10 11  1  1  0  0  0
 10 18  1  0  0  0  0
 12 13  1  6  0  0  0
 12 20  1  0  0  0  0
 14 15  1  6  0  0  0
 14 22  1  0  0  0  0
 16 17  1  1  0  0  0
 16 24  1  0  0  0  0
 18 19  1  1  0  0  0
 18 25  1  0  0  0  0
 20 21  1  1  0  0  0
 20 27  1  0  0  0  0
 22 23  1  1  0  0  0
 22 29  1  0  0  0  0
 24  2  1  6  0  0  0
 24 31  1  0  0  0  0
 25 26  1  0  0  0  0
 25 33  1  6  0  0  0
 27 28  1  6  0  0  0
 27 35  1  0  0  0  0
 29 30  1  0  0  0  0
 29 37  1  6  0  0  0
 31 32  1  1  0  0  0
 31 39  1  0  0  0  0
 33 34  1  0  0  0  0
 35 36  1  0  0  0  0
 35 41  1  6  0  0  0
 37 38  1  0  0  0  0
 39 40  1  6  0  0  0
 41 42  1  0  0  0  0
M  END
>  <CHROM.1>
-167.12064942,61.54861228,160.93367826,139.01075916,-164.20688803,174.06949426
-53.29663534,-177.63222387,-154.21808165,10.72976847,15.08380921,-9.02718850
-2.48320813,-0.56890169,1.71946729

>  <Name>
ligand

>  <RI>
0

>  <Rbt.Current_Directory>
/home/itssahil/PROJECTS/Mol_Feturizer/Test_systems_manuscript/rnas/2o3w

>  <Rbt.Executable>
rbdock ($Id: //depot/dev/client3/rdock/2013.1/src/exe/rbdock.cxx#4 $)

>  <Rbt.Library>
libRbt.so (2013.1, Build901 2013/11/27)

>  <Rbt.Parameter_File>
/export/apps/rDock/src/rDock_2013.1_src/data/scripts/dock_solv.prm

>  <Rbt.Receptor>
prm/blind_docking_100.prm

>  <SCORE>
4.90637

>  <SCORE.INTER>
-0.503044

>  <SCORE.INTER.CONST>
1

>  <SCORE.INTER.POLAR>
0

>  <SCORE.INTER.ROT>
9

>  <SCORE.INTER.SOLV>
28.2547

>  <SCORE.INTER.VDW>
-19.3536

>  <SCORE.INTER.norm>
-0.0119772

>  <SCORE.INTRA>
-7.25053

>  <SCORE.INTRA.DIHEDRAL>
-16.5733

>  <SCORE.INTRA.DIHEDRAL.0>
27.8999

>  <SCORE.INTRA.POLAR>
0

>  <SCORE.INTRA.POLAR.0>
0

>  <SCORE.INTRA.REPUL>
0

>  <SCORE.INTRA.REPUL.0>
0

>  <SCORE.INTRA.SOLV>
-2.34683

>  <SCORE.INTRA.SOLV.lig_0>
-104.479

>  <SCORE.INTRA.VDW>
2.20951

>  <SCORE.INTRA.VDW.0>
-6.17816

>  <SCORE.INTRA.norm>
-0.172632

>  <SCORE.RESTR>
12.6599

>  <SCORE.RESTR.CAVITY>
12.6599

>  <SCORE.RESTR.norm>
0.301427

>  <SCORE.SYSTEM>
0

>  <SCORE.SYSTEM.CONST>
0

>  <SCORE.SYSTEM.DIHEDRAL>
0

>  <SCORE.SYSTEM.SOLV>
0

>  <SCORE.SYSTEM.norm>
0

>  <SCORE.heavy>
42

>  <SCORE.norm>
0.116818

>  <RMSD>
19.621

$$$$
ligand
 OpenBabel02271912133D
libRbt.so/2013.1/901 2013/11/27
 42 45  0  0  0  0  0  0  0  0999 V2000
   13.1115    9.8002   -9.8311 C   0  0  2  0  0  0  0  0  0  0  0  0
   13.6955   11.1045   -9.9897 O   0  0  0  0  0  0  0  0  0  0  0  0
   11.1778   13.2085   -7.1559 C   0  0  2  0  0  0  0  0  0  0  0  0
   10.5722   14.2722   -6.3003 N   0  0  0  0  0  0  0  0  0  0  0  0
   12.1261   14.5036  -11.1957 C   0  0  1  0  0  0  0  0  0  0  0  0
   12.8679   17.8628  -13.7727 C   0  0  1  0  0  0  0  0  0  0  0  0
   13.9417    8.8197  -10.7129 C   0  0  2  0  0  0  0  0  0  0  0  0
   15.3915    8.9433  -10.4816 N   0  0  0  0  0  0  0  0  0  0  0  0
   12.6734   12.9143   -6.7335 C   0  0  0  0  0  0  0  0  0  0  0  0
   12.1210   14.8591  -12.7137 C   0  0  2  0  0  0  0  0  0  0  0  0
   13.4350   14.8562  -13.3240 O   0  0  0  0  0  0  0  0  0  0  0  0
   11.8045   18.0757  -14.9097 C   0  0  2  0  0  0  0  0  0  0  0  0
   11.0781   16.8046  -15.2056 N   0  0  0  0  0  0  0  0  0  0  0  0
   13.7103    9.0485  -12.2179 C   0  0  1  0  0  0  0  0  0  0  0  0
   14.4585    8.1040  -12.9854 O   0  0  0  0  0  0  0  0  0  0  0  0
   13.2484   11.7722   -7.6541 C   0  0  2  0  0  0  0  0  0  0  0  0
   14.6524   11.4590   -7.2741 N   0  0  0  0  0  0  0  0  0  0  0  0
   11.3999   16.2078  -12.7005 C   0  0  2  0  0  0  0  0  0  0  0  0
   12.3403   17.3194  -12.5562 O   0  0  0  0  0  0  0  0  0  0  0  0
   12.5362   18.6386  -16.2192 C   0  0  1  0  0  0  0  0  0  0  0  0
   12.8921   20.0218  -15.9974 O   0  0  0  0  0  0  0  0  0  0  0  0
   12.1987    8.9558  -12.5270 C   0  0  2  0  0  0  0  0  0  0  0  0
   11.9715    9.1465  -13.9042 O   0  0  0  0  0  0  0  0  0  0  0  0
   13.1936   12.2010   -9.1736 C   0  0  2  0  0  0  0  0  0  0  0  0
   10.4172   16.1522  -11.5187 C   0  0  2  0  0  0  0  0  0  0  0  0
   11.0799   15.2973  -10.5901 O   0  0  0  0  0  0  0  0  0  0  0  0
   13.8476   17.8033  -16.6066 C   0  0  2  0  0  0  0  0  0  0  0  0
   13.4221   16.5186  -17.0591 O   0  0  0  0  0  0  0  0  0  0  0  0
   11.4386   10.0353  -11.6865 C   0  0  2  0  0  0  0  0  0  0  0  0
   11.6976    9.8222  -10.2626 O   0  0  0  0  0  0  0  0  0  0  0  0
   11.7667   12.5593   -9.6437 C   0  0  2  0  0  0  0  0  0  0  0  0
   11.9303   13.0994  -10.9838 O   0  0  0  0  0  0  0  0  0  0  0  0
    8.9975   15.6078  -11.8683 C   0  0  0  0  0  0  0  0  0  0  0  0
    9.1245   14.3507  -12.5260 O   0  0  0  0  0  0  0  0  0  0  0  0
   14.8001   17.6545  -15.3604 C   0  0  1  0  0  0  0  0  0  0  0  0
   13.9980   17.0083  -14.3072 O   0  0  0  0  0  0  0  0  0  0  0  0
    9.9462   10.0117  -11.9230 C   0  0  0  0  0  0  0  0  0  0  0  0
    9.4149    8.7651  -11.5448 O   0  0  0  0  0  0  0  0  0  0  0  0
   11.1252   13.6402   -8.6763 C   0  0  1  0  0  0  0  0  0  0  0  0
    9.7545   13.8591   -9.0208 O   0  0  0  0  0  0  0  0  0  0  0  0
   16.1148   16.8074  -15.6477 C   0  0  0  0  0  0  0  0  0  0  0  0
   15.8903   15.4146  -16.1231 N   0  0  0  0  0  0  0  0  0  0  0  0
  1  2  1  6  0  0  0
  1  7  1  0  0  0  0
  1 30  1  0  0  0  0
  3  4  1  1  0  0  0
  3  9  1  0  0  0  0
  3 39  1  0  0  0  0
  5 10  1  0  0  0  0
  5 26  1  0  0  0  0
  5 32  1  6  0  0  0
  6 12  1  0  0  0  0
  6 36  1  0  0  0  0
  6 19  1  1  0  0  0
  7  8  1  6  0  0  0
  7 14  1  0  0  0  0
  9 16  1  0  0  0  0
 10 11  1  1  0  0  0
 10 18  1  0  0  0  0
 12 13  1  6  0  0  0
 12 20  1  0  0  0  0
 14 15  1  6  0  0  0
 14 22  1  0  0  0  0
 16 17  1  1  0  0  0
 16 24  1  0  0  0  0
 18 19  1  1  0  0  0
 18 25  1  0  0  0  0
 20 21  1  1  0  0  0
 20 27  1  0  0  0  0
 22 23  1  6  0  0  0
 22 29  1  0  0  0  0
 24  2  1  6  0  0  0
 24 31  1  0  0  0  0
 25 26  1  0  0  0  0
 25 33  1  6  0  0  0
 27 28  1  1  0  0  0
 27 35  1  0  0  0  0
 29 30  1  0  0  0  0
 29 37  1  1  0  0  0
 31 32  1  6  0  0  0
 31 39  1  0  0  0  0
 33 34  1  0  0  0  0
 35 36  1  0  0  0  0
 35 41  1  6  0  0  0
 37 38  1  0  0  0  0
 39 40  1  6  0  0  0
 41 42  1  0  0  0  0
M  END
>  <CHROM.1>
-174.21964971,53.50109068,89.40640271,43.98387797,52.65363402,61.30567893
-90.73267268,-173.83683635,-58.45318448,12.39649795,13.64003529,-11.95658276
-1.74275128,1.08421251,-0.48683993

>  <Name>
ligand

>  <RI>
0

>  <Rbt.Current_Directory>
/home/itssahil/PROJECTS/Mol_Feturizer/Test_systems_manuscript/rnas/2o3w

>  <Rbt.Executable>
rbdock ($Id: //depot/dev/client3/rdock/2013.1/src/exe/rbdock.cxx#4 $)

>  <Rbt.Library>
libRbt.so (2013.1, Build901 2013/11/27)

>  <Rbt.Parameter_File>
/export/apps/rDock/src/rDock_2013.1_src/data/scripts/dock_solv.prm

>  <Rbt.Receptor>
prm/blind_docking_100.prm

>  <SCORE>
2.88206

>  <SCORE.INTER>
-1.64457

>  <SCORE.INTER.CONST>
1

>  <SCORE.INTER.POLAR>
0

>  <SCORE.INTER.ROT>
9

>  <SCORE.INTER.SOLV>
32.0718

>  <SCORE.INTER.VDW>
-21.387

>  <SCORE.INTER.norm>
-0.0391565

>  <SCORE.INTRA>
-2.31213

>  <SCORE.INTRA.DIHEDRAL>
-18.5932

>  <SCORE.INTRA.DIHEDRAL.0>
27.8999

>  <SCORE.INTRA.POLAR>
0

>  <SCORE.INTRA.POLAR.0>
0

>  <SCORE.INTRA.REPUL>
0

>  <SCORE.INTRA.REPUL.0>
0

>  <SCORE.INTRA.SOLV>
1.8685

>  <SCORE.INTRA.SOLV.lig_0>
-104.479

>  <SCORE.INTRA.VDW>
6.0502

>  <SCORE.INTRA.VDW.0>
-6.17816

>  <SCORE.INTRA.norm>
-0.0550507

>  <SCORE.RESTR>
6.83876

>  <SCORE.RESTR.CAVITY>
6.83876

>  <SCORE.RESTR.norm>
0.162828

>  <SCORE.SYSTEM>
0

>  <SCORE.SYSTEM.CONST>
0

>  <SCORE.SYSTEM.DIHEDRAL>
0

>  <SCORE.SYSTEM.SOLV>
0

>  <SCORE.SYSTEM.norm>
0

>  <SCORE.heavy>
42

>  <SCORE.norm>
0.0686205

>  <RMSD>
19.627

$$$$
ligand
 OpenBabel02271912133D
libRbt.so/2013.1/901 2013/11/27
 42 45  0  0  0  0  0  0  0  0999 V2000
   12.2899   11.8698   -7.6363 C   0  0  2  0  0  0  0  0  0  0  0  0
   13.0188   11.7581   -8.8706 O   0  0  0  0  0  0  0  0  0  0  0  0
   12.4672   10.3517  -12.9343 C   0  0  2  0  0  0  0  0  0  0  0  0
   11.8553    9.8381  -14.1961 N   0  0  0  0  0  0  0  0  0  0  0  0
   11.8488   14.7510  -10.9548 C   0  0  1  0  0  0  0  0  0  0  0  0
   12.8146   17.8798  -13.7248 C   0  0  1  0  0  0  0  0  0  0  0  0
   12.4354   13.3443   -7.1537 C   0  0  2  0  0  0  0  0  0  0  0  0
   12.1218   14.3181   -8.2139 N   0  0  0  0  0  0  0  0  0  0  0  0
   12.3515    9.2906  -11.7670 C   0  0  0  0  0  0  0  0  0  0  0  0
   11.8127   15.0335  -12.4877 C   0  0  2  0  0  0  0  0  0  0  0  0
   13.0930   14.8732  -13.1467 O   0  0  0  0  0  0  0  0  0  0  0  0
   11.7403   18.3034  -14.7903 C   0  0  2  0  0  0  0  0  0  0  0  0
   10.7467   17.2100  -15.0098 N   0  0  0  0  0  0  0  0  0  0  0  0
   13.8611   13.6615   -6.6661 C   0  0  1  0  0  0  0  0  0  0  0  0
   13.9382   15.0087   -6.1971 O   0  0  0  0  0  0  0  0  0  0  0  0
   13.0320    9.8788  -10.4734 C   0  0  2  0  0  0  0  0  0  0  0  0
   12.9542    8.8989   -9.3566 N   0  0  0  0  0  0  0  0  0  0  0  0
   11.2257   16.4455  -12.5157 C   0  0  2  0  0  0  0  0  0  0  0  0
   12.2738   17.4651  -12.4642 O   0  0  0  0  0  0  0  0  0  0  0  0
   12.4776   18.6941  -16.1580 C   0  0  1  0  0  0  0  0  0  0  0  0
   13.1276   19.9739  -15.9893 O   0  0  0  0  0  0  0  0  0  0  0  0
   14.2645   12.6561   -5.5635 C   0  0  2  0  0  0  0  0  0  0  0  0
   15.5614   12.9434   -5.0945 O   0  0  0  0  0  0  0  0  0  0  0  0
   12.3353   11.2298  -10.0428 C   0  0  2  0  0  0  0  0  0  0  0  0
   10.2938   16.5421  -11.2960 C   0  0  2  0  0  0  0  0  0  0  0  0
   10.9106   15.6709  -10.3510 O   0  0  0  0  0  0  0  0  0  0  0  0
   13.5561   17.6016  -16.6173 C   0  0  2  0  0  0  0  0  0  0  0  0
   12.8421   16.4313  -17.0135 O   0  0  0  0  0  0  0  0  0  0  0  0
   14.1958   11.2050   -6.1458 C   0  0  2  0  0  0  0  0  0  0  0  0
   12.8438   10.9345   -6.6342 O   0  0  0  0  0  0  0  0  0  0  0  0
   12.3600   12.2982  -11.1577 C   0  0  2  0  0  0  0  0  0  0  0  0
   11.5282   13.3842  -10.6644 O   0  0  0  0  0  0  0  0  0  0  0  0
    8.8147   16.1237  -11.5631 C   0  0  0  0  0  0  0  0  0  0  0  0
    8.7874   14.7982  -12.0837 O   0  0  0  0  0  0  0  0  0  0  0  0
   14.5433   17.2645  -15.4367 C   0  0  1  0  0  0  0  0  0  0  0  0
   13.7018   16.8056  -14.3180 O   0  0  0  0  0  0  0  0  0  0  0  0
   14.5703   10.1520   -5.1286 C   0  0  0  0  0  0  0  0  0  0  0  0
   15.9659   10.1218   -4.9532 O   0  0  0  0  0  0  0  0  0  0  0  0
   11.7669   11.7021  -12.5025 C   0  0  1  0  0  0  0  0  0  0  0  0
   11.9288   12.6389  -13.5711 O   0  0  0  0  0  0  0  0  0  0  0  0
   15.6298   16.1604  -15.7961 C   0  0  0  0  0  0  0  0  0  0  0  0
   16.3207   15.5370  -14.6340 N   0  0  0  0  0  0  0  0  0  0  0  0
  1  2  1  6  0  0  0
  1  7  1  0  0  0  0
  1 30  1  0  0  0  0
  3  4  1  6  0  0  0
  3  9  1  0  0  0  0
  3 39  1  0  0  0  0
  5 10  1  0  0  0  0
  5 26  1  0  0  0  0
  5 32  1  6  0  0  0
  6 12  1  0  0  0  0
  6 36  1  0  0  0  0
  6 19  1  1  0  0  0
  7  8  1  6  0  0  0
  7 14  1  0  0  0  0
  9 16  1  0  0  0  0
 10 11  1  1  0  0  0
 10 18  1  0  0  0  0
 12 13  1  6  0  0  0
 12 20  1  0  0  0  0
 14 15  1  1  0  0  0
 14 22  1  0  0  0  0
 16 17  1  1  0  0  0
 16 24  1  0  0  0  0
 18 19  1  1  0  0  0
 18 25  1  0  0  0  0
 20 21  1  1  0  0  0
 20 27  1  0  0  0  0
 22 23  1  6  0  0  0
 22 29  1  0  0  0  0
 24  2  1  1  0  0  0
 24 31  1  0  0  0  0
 25 26  1  0  0  0  0
 25 33  1  6  0  0  0
 27 28  1  1  0  0  0
 27 35  1  0  0  0  0
 29 30  1  0  0  0  0
 29 37  1  1  0  0  0
 31 32  1  1  0  0  0
 31 39  1  0  0  0  0
 33 34  1  0  0  0  0
 35 36  1  0  0  0  0
 35 41  1  6  0  0  0
 37 38  1  0  0  0  0
 39 40  1  6  0  0  0
 41 42  1  0  0  0  0
M  END
>  <CHROM.1>
-126.26834510,-116.38560408,88.37458657,51.35358250,56.20337147,-76.47121801
144.60335777,62.02135242,-163.40737091,12.72795873,14.08625452,-11.19988625
-0.88009353,-1.40283630,-0.26338196

>  <Name>
ligand

>  <RI>
0

>  <Rbt.Current_Directory>
/home/itssahil/PROJECTS/Mol_Feturizer/Test_systems_manuscript/rnas/2o3w

>  <Rbt.Executable>
rbdock ($Id: //depot/dev/client3/rdock/2013.1/src/exe/rbdock.cxx#4 $)

>  <Rbt.Library>
libRbt.so (2013.1, Build901 2013/11/27)

>  <Rbt.Parameter_File>
/export/apps/rDock/src/rDock_2013.1_src/data/scripts/dock_solv.prm

>  <Rbt.Receptor>
prm/blind_docking_100.prm

>  <SCORE>
6.86803

>  <SCORE.INTER>
-5.36179

>  <SCORE.INTER.CONST>
1

>  <SCORE.INTER.POLAR>
0

>  <SCORE.INTER.ROT>
9

>  <SCORE.INTER.SOLV>
31.8401

>  <SCORE.INTER.VDW>
-23.7879

>  <SCORE.INTER.norm>
-0.127662

>  <SCORE.INTRA>
6.2979

>  <SCORE.INTRA.DIHEDRAL>
-3.51124

>  <SCORE.INTRA.DIHEDRAL.0>
27.8999

>  <SCORE.INTRA.POLAR>
0

>  <SCORE.INTRA.POLAR.0>
0

>  <SCORE.INTRA.REPUL>
0.334396

>  <SCORE.INTRA.REPUL.0>
0

>  <SCORE.INTRA.SOLV>
3.93395

>  <SCORE.INTRA.SOLV.lig_0>
-104.479

>  <SCORE.INTRA.VDW>
4.41457

>  <SCORE.INTRA.VDW.0>
-6.17816

>  <SCORE.INTRA.norm>
0.14995

>  <SCORE.RESTR>
5.93192

>  <SCORE.RESTR.CAVITY>
5.93192

>  <SCORE.RESTR.norm>
0.141236

>  <SCORE.SYSTEM>
0

>  <SCORE.SYSTEM.CONST>
0

>  <SCORE.SYSTEM.DIHEDRAL>
0

>  <SCORE.SYSTEM.SOLV>
0

>  <SCORE.SYSTEM.norm>
0

>  <SCORE.heavy>
42

>  <SCORE.norm>
0.163525

>  <RMSD>
19.659

$$$$
ligand
 OpenBabel02271912133D
libRbt.so/2013.1/901 2013/11/27
 42 45  0  0  0  0  0  0  0  0999 V2000
   11.4006   10.9044  -11.4594 C   0  0  2  0  0  0  0  0  0  0  0  0
   11.2947   10.7399  -10.0350 O   0  0  0  0  0  0  0  0  0  0  0  0
   11.9845   13.4588   -6.7293 C   0  0  2  0  0  0  0  0  0  0  0  0
   12.6155   14.4373   -5.7940 N   0  0  0  0  0  0  0  0  0  0  0  0
   11.7083   14.9083  -10.8965 C   0  0  1  0  0  0  0  0  0  0  0  0
   12.4521   18.1364  -13.6394 C   0  0  1  0  0  0  0  0  0  0  0  0
   11.4256    9.4761  -12.0819 C   0  0  2  0  0  0  0  0  0  0  0  0
   10.3343    8.6231  -11.5797 N   0  0  0  0  0  0  0  0  0  0  0  0
   12.7510   12.0753   -6.7155 C   0  0  0  0  0  0  0  0  0  0  0  0
   11.7662   15.1713  -12.4322 C   0  0  2  0  0  0  0  0  0  0  0  0
   13.1082   15.1827  -12.9779 O   0  0  0  0  0  0  0  0  0  0  0  0
   11.4694   18.1222  -14.8653 C   0  0  2  0  0  0  0  0  0  0  0  0
   10.9149   16.7534  -15.0887 N   0  0  0  0  0  0  0  0  0  0  0  0
   12.7419    8.7334  -11.7877 C   0  0  1  0  0  0  0  0  0  0  0  0
   12.7369    7.4471  -12.4092 O   0  0  0  0  0  0  0  0  0  0  0  0
   12.0276   11.0814   -7.7011 C   0  0  2  0  0  0  0  0  0  0  0  0
   12.7152    9.7619   -7.7023 N   0  0  0  0  0  0  0  0  0  0  0  0
   10.9974   16.4894  -12.5370 C   0  0  2  0  0  0  0  0  0  0  0  0
   11.8891   17.6432  -12.4173 O   0  0  0  0  0  0  0  0  0  0  0  0
   12.2401   18.6504  -16.1668 C   0  0  1  0  0  0  0  0  0  0  0  0
   12.4213   20.0799  -16.0545 O   0  0  0  0  0  0  0  0  0  0  0  0
   13.9355    9.5888  -12.2702 C   0  0  2  0  0  0  0  0  0  0  0  0
   15.1478    8.9151  -12.0232 O   0  0  0  0  0  0  0  0  0  0  0  0
   12.0053   11.6688   -9.1675 C   0  0  2  0  0  0  0  0  0  0  0  0
    9.9597   16.4669  -11.4022 C   0  0  2  0  0  0  0  0  0  0  0  0
   10.6054   15.6958  -10.3918 O   0  0  0  0  0  0  0  0  0  0  0  0
   13.6633   17.9445  -16.3762 C   0  0  2  0  0  0  0  0  0  0  0  0
   13.4213   16.5840  -16.7322 O   0  0  0  0  0  0  0  0  0  0  0  0
   13.9081   10.9674  -11.5298 C   0  0  2  0  0  0  0  0  0  0  0  0
   12.6374   11.6423  -11.7937 O   0  0  0  0  0  0  0  0  0  0  0  0
   11.3196   13.0502   -9.2488 C   0  0  2  0  0  0  0  0  0  0  0  0
   11.5525   13.5129  -10.6076 O   0  0  0  0  0  0  0  0  0  0  0  0
    8.5795   15.8479  -11.7845 C   0  0  0  0  0  0  0  0  0  0  0  0
    7.5619   16.4324  -10.9773 O   0  0  0  0  0  0  0  0  0  0  0  0
   14.5201   18.0187  -15.0562 C   0  0  1  0  0  0  0  0  0  0  0  0
   13.7101   17.3773  -14.0060 O   0  0  0  0  0  0  0  0  0  0  0  0
   15.0421   11.8746  -11.9479 C   0  0  0  0  0  0  0  0  0  0  0  0
   16.2748   11.2163  -11.7855 O   0  0  0  0  0  0  0  0  0  0  0  0
   11.9656   14.0465   -8.1972 C   0  0  1  0  0  0  0  0  0  0  0  0
   11.2331   15.2745   -8.1665 O   0  0  0  0  0  0  0  0  0  0  0  0
   15.9396   17.3104  -15.1648 C   0  0  0  0  0  0  0  0  0  0  0  0
   15.9102   15.8624  -15.5100 N   0  0  0  0  0  0  0  0  0  0  0  0
  1  2  1  1  0  0  0
  1  7  1  0  0  0  0
  1 30  1  0  0  0  0
  3  4  1  1  0  0  0
  3  9  1  0  0  0  0
  3 39  1  0  0  0  0
  5 10  1  0  0  0  0
  5 26  1  0  0  0  0
  5 32  1  6  0  0  0
  6 12  1  0  0  0  0
  6 36  1  0  0  0  0
  6 19  1  1  0  0  0
  7  8  1  1  0  0  0
  7 14  1  0  0  0  0
  9 16  1  0  0  0  0
 10 11  1  1  0  0  0
 10 18  1  0  0  0  0
 12 13  1  6  0  0  0
 12 20  1  0  0  0  0
 14 15  1  6  0  0  0
 14 22  1  0  0  0  0
 16 17  1  6  0  0  0
 16 24  1  0  0  0  0
 18 19  1  1  0  0  0
 18 25  1  0  0  0  0
 20 21  1  1  0  0  0
 20 27  1  0  0  0  0
 22 23  1  1  0  0  0
 22 29  1  0  0  0  0
 24  2  1  6  0  0  0
 24 31  1  0  0  0  0
 25 26  1  0  0  0  0
 25 33  1  6  0  0  0
 27 28  1  1  0  0  0
 27 35  1  0  0  0  0
 29 30  1  0  0  0  0
 29 37  1  6  0  0  0
 31 32  1  6  0  0  0
 31 39  1  0  0  0  0
 33 34  1  0  0  0  0
 35 36  1  0  0  0  0
 35 41  1  6  0  0  0
 37 38  1  0  0  0  0
 39 40  1  1  0  0  0
 41 42  1  0  0  0  0
M  END
>  <CHROM.1>
143.55019739,-166.21215752,89.68063671,38.80948700,-151.90323994,-54.30461028
-147.54505217,-172.80866631,-58.82819636,12.38548578,13.98502234,-11.80915552
-1.60190181,0.96842223,-0.57535519

>  <Name>
ligand

>  <RI>
0

>  <Rbt.Current_Directory>
/home/itssahil/PROJECTS/Mol_Feturizer/Test_systems_manuscript/rnas/2o3w

>  <Rbt.Executable>
rbdock ($Id: //depot/dev/client3/rdock/2013.1/src/exe/rbdock.cxx#4 $)

>  <Rbt.Library>
libRbt.so (2013.1, Build901 2013/11/27)

>  <Rbt.Parameter_File>
/export/apps/rDock/src/rDock_2013.1_src/data/scripts/dock_solv.prm

>  <Rbt.Receptor>
prm/blind_docking_100.prm

>  <SCORE>
12.4437

>  <SCORE.INTER>
6.23829

>  <SCORE.INTER.CONST>
1

>  <SCORE.INTER.POLAR>
0

>  <SCORE.INTER.ROT>
9

>  <SCORE.INTER.SOLV>
34.5569

>  <SCORE.INTER.VDW>
-16.9601

>  <SCORE.INTER.norm>
0.148531

>  <SCORE.INTRA>
3.17259

>  <SCORE.INTRA.DIHEDRAL>
-9.80954

>  <SCORE.INTRA.DIHEDRAL.0>
27.8999

>  <SCORE.INTRA.POLAR>
0

>  <SCORE.INTRA.POLAR.0>
0

>  <SCORE.INTRA.REPUL>
0.0454871

>  <SCORE.INTRA.REPUL.0>
0

>  <SCORE.INTRA.SOLV>
0.565375

>  <SCORE.INTRA.SOLV.lig_0>
-104.479

>  <SCORE.INTRA.VDW>
7.56724

>  <SCORE.INTRA.VDW.0>
-6.17816

>  <SCORE.INTRA.norm>
0.075538

>  <SCORE.RESTR>
3.03283

>  <SCORE.RESTR.CAVITY>
3.03283

>  <SCORE.RESTR.norm>
0.0722103

>  <SCORE.SYSTEM>
0

>  <SCORE.SYSTEM.CONST>
0

>  <SCORE.SYSTEM.DIHEDRAL>
0

>  <SCORE.SYSTEM.SOLV>
0

>  <SCORE.SYSTEM.norm>
0

>  <SCORE.heavy>
42

>  <SCORE.norm>
0.296279

>  <RMSD>
19.660

$$$$
ligand
 OpenBabel02271912133D
libRbt.so/2013.1/901 2013/11/27
 42 45  0  0  0  0  0  0  0  0999 V2000
   12.4781   10.5184   -8.3501 C   0  0  2  0  0  0  0  0  0  0  0  0
   11.9317   10.9509   -9.6078 O   0  0  0  0  0  0  0  0  0  0  0  0
   15.2688   10.6916  -12.3633 C   0  0  2  0  0  0  0  0  0  0  0  0
   16.0998   10.4428  -13.5789 N   0  0  0  0  0  0  0  0  0  0  0  0
   11.9944   13.8558  -12.6658 C   0  0  1  0  0  0  0  0  0  0  0  0
   12.4182   17.0618  -14.2052 C   0  0  1  0  0  0  0  0  0  0  0  0
   11.2774   10.3170   -7.3775 C   0  0  2  0  0  0  0  0  0  0  0  0
   10.2061    9.4952   -7.9670 N   0  0  0  0  0  0  0  0  0  0  0  0
   14.6958    9.3405  -11.7732 C   0  0  0  0  0  0  0  0  0  0  0  0
   10.6040   14.2159  -13.2725 C   0  0  2  0  0  0  0  0  0  0  0  0
   10.3834   13.6791  -14.6000 O   0  0  0  0  0  0  0  0  0  0  0  0
   12.3662   18.5784  -14.6126 C   0  0  2  0  0  0  0  0  0  0  0  0
   11.8890   18.7369  -16.0191 N   0  0  0  0  0  0  0  0  0  0  0  0
   10.6344   11.6520   -6.9587 C   0  0  1  0  0  0  0  0  0  0  0  0
    9.5662   11.4224   -6.0383 O   0  0  0  0  0  0  0  0  0  0  0  0
   13.8496    9.6649  -10.4843 C   0  0  2  0  0  0  0  0  0  0  0  0
   13.3061    8.4122   -9.8934 N   0  0  0  0  0  0  0  0  0  0  0  0
   10.6213   15.7418  -13.1696 C   0  0  2  0  0  0  0  0  0  0  0  0
   11.1825   16.3559  -14.3732 O   0  0  0  0  0  0  0  0  0  0  0  0
   13.8185   19.2274  -14.4211 C   0  0  1  0  0  0  0  0  0  0  0  0
   14.0731   19.3941  -13.0082 O   0  0  0  0  0  0  0  0  0  0  0  0
   11.7142   12.5761   -6.3510 C   0  0  2  0  0  0  0  0  0  0  0  0
   11.1383   13.7965   -5.9469 O   0  0  0  0  0  0  0  0  0  0  0  0
   12.6614   10.6467  -10.8306 C   0  0  2  0  0  0  0  0  0  0  0  0
   11.4668   16.0740  -11.9285 C   0  0  2  0  0  0  0  0  0  0  0  0
   12.4023   14.9993  -11.8803 O   0  0  0  0  0  0  0  0  0  0  0  0
   14.9852   18.3453  -15.0755 C   0  0  2  0  0  0  0  0  0  0  0  0
   14.8360   18.4166  -16.4929 O   0  0  0  0  0  0  0  0  0  0  0  0
   12.8358   12.8193   -7.4151 C   0  0  2  0  0  0  0  0  0  0  0  0
   13.4108   11.5383   -7.8253 O   0  0  0  0  0  0  0  0  0  0  0  0
   13.1433   11.9696  -11.4654 C   0  0  2  0  0  0  0  0  0  0  0  0
   11.9315   12.6569  -11.8823 O   0  0  0  0  0  0  0  0  0  0  0  0
   10.6645   16.1800  -10.5947 C   0  0  0  0  0  0  0  0  0  0  0  0
    9.9907   14.9487  -10.3519 O   0  0  0  0  0  0  0  0  0  0  0  0
   14.8887   16.8490  -14.5917 C   0  0  1  0  0  0  0  0  0  0  0  0
   13.5408   16.3850  -14.9633 O   0  0  0  0  0  0  0  0  0  0  0  0
   13.9416   13.7118   -6.9009 C   0  0  0  0  0  0  0  0  0  0  0  0
   13.4027   14.9087   -6.3946 O   0  0  0  0  0  0  0  0  0  0  0  0
   14.0779   11.6719  -12.7118 C   0  0  1  0  0  0  0  0  0  0  0  0
   14.6445   12.8889  -13.2055 O   0  0  0  0  0  0  0  0  0  0  0  0
   15.9922   15.8925  -15.2209 C   0  0  0  0  0  0  0  0  0  0  0  0
   15.5473   14.5012  -15.5091 N   0  0  0  0  0  0  0  0  0  0  0  0
  1  2  1  6  0  0  0
  1  7  1  0  0  0  0
  1 30  1  0  0  0  0
  3  4  1  6  0  0  0
  3  9  1  0  0  0  0
  3 39  1  0  0  0  0
  5 10  1  0  0  0  0
  5 26  1  0  0  0  0
  5 32  1  1  0  0  0
  6 12  1  0  0  0  0
  6 36  1  0  0  0  0
  6 19  1  6  0  0  0
  7  8  1  6  0  0  0
  7 14  1  0  0  0  0
  9 16  1  0  0  0  0
 10 11  1  6  0  0  0
 10 18  1  0  0  0  0
 12 13  1  6  0  0  0
 12 20  1  0  0  0  0
 14 15  1  1  0  0  0
 14 22  1  0  0  0  0
 16 17  1  6  0  0  0
 16 24  1  0  0  0  0
 18 19  1  6  0  0  0
 18 25  1  0  0  0  0
 20 21  1  1  0  0  0
 20 27  1  0  0  0  0
 22 23  1  6  0  0  0
 22 29  1  0  0  0  0
 24  2  1  1  0  0  0
 24 31  1  0  0  0  0
 25 26  1  0  0  0  0
 25 33  1  1  0  0  0
 27 28  1  6  0  0  0
 27 35  1  0  0  0  0
 29 30  1  0  0  0  0
 29 37  1  1  0  0  0
 31 32  1  6  0  0  0
 31 39  1  0  0  0  0
 33 34  1  0  0  0  0
 35 36  1  0  0  0  0
 35 41  1  6  0  0  0
 37 38  1  0  0  0  0
 39 40  1  1  0  0  0
 41 42  1  0  0  0  0
M  END
>  <CHROM.1>
-152.36887981,8.85205390,-114.56059812,-121.14640817,58.39211779,-53.15406389
-172.23714771,166.38477699,-144.48126921,12.74073896,13.87530904,-11.46866035
-1.87437781,1.00437399,-0.58672865

>  <Name>
ligand

>  <RI>
0

>  <Rbt.Current_Directory>
/home/itssahil/PROJECTS/Mol_Feturizer/Test_systems_manuscript/rnas/2o3w

>  <Rbt.Executable>
rbdock ($Id: //depot/dev/client3/rdock/2013.1/src/exe/rbdock.cxx#4 $)

>  <Rbt.Library>
libRbt.so (2013.1, Build901 2013/11/27)

>  <Rbt.Parameter_File>
/export/apps/rDock/src/rDock_2013.1_src/data/scripts/dock_solv.prm

>  <Rbt.Receptor>
prm/blind_docking_100.prm

>  <SCORE>
15.3985

>  <SCORE.INTER>
-1.72174

>  <SCORE.INTER.CONST>
1

>  <SCORE.INTER.POLAR>
0

>  <SCORE.INTER.ROT>
9

>  <SCORE.INTER.SOLV>
27.6217

>  <SCORE.INTER.VDW>
-19.9551

>  <SCORE.INTER.norm>
-0.0409938

>  <SCORE.INTRA>
6.90134

>  <SCORE.INTRA.DIHEDRAL>
1.01753

>  <SCORE.INTRA.DIHEDRAL.0>
27.8999

>  <SCORE.INTRA.POLAR>
0

>  <SCORE.INTRA.POLAR.0>
0

>  <SCORE.INTRA.REPUL>
0

>  <SCORE.INTRA.REPUL.0>
0

>  <SCORE.INTRA.SOLV>
-0.981076

>  <SCORE.INTRA.SOLV.lig_0>
-104.479

>  <SCORE.INTRA.VDW>
6.88311

>  <SCORE.INTRA.VDW.0>
-6.17816

>  <SCORE.INTRA.norm>
0.164318

>  <SCORE.RESTR>
10.2189

>  <SCORE.RESTR.CAVITY>
10.2189

>  <SCORE.RESTR.norm>
0.243307

>  <SCORE.SYSTEM>
0

>  <SCORE.SYSTEM.CONST>
0

>  <SCORE.SYSTEM.DIHEDRAL>
0

>  <SCORE.SYSTEM.SOLV>
0

>  <SCORE.SYSTEM.norm>
0

>  <SCORE.heavy>
42

>  <SCORE.norm>
0.366631

>  <RMSD>
19.670

$$$$
ligand
 OpenBabel02271912133D
libRbt.so/2013.1/901 2013/11/27
 42 45  0  0  0  0  0  0  0  0999 V2000
   12.2812   13.9614   -7.4126 C   0  0  2  0  0  0  0  0  0  0  0  0
   13.0448   13.6024   -8.5768 O   0  0  0  0  0  0  0  0  0  0  0  0
   12.6921   11.2041  -12.1712 C   0  0  2  0  0  0  0  0  0  0  0  0
   12.1666   10.3023  -13.2393 N   0  0  0  0  0  0  0  0  0  0  0  0
   11.2683   15.7571  -11.1652 C   0  0  1  0  0  0  0  0  0  0  0  0
   11.9093   17.8696  -14.1830 C   0  0  1  0  0  0  0  0  0  0  0  0
   13.2882   14.0934   -6.2308 C   0  0  2  0  0  0  0  0  0  0  0  0
   14.4449   14.9413   -6.5678 N   0  0  0  0  0  0  0  0  0  0  0  0
   12.8198   10.4442  -10.7899 C   0  0  0  0  0  0  0  0  0  0  0  0
   10.8351   15.7338  -12.6628 C   0  0  2  0  0  0  0  0  0  0  0  0
   11.9345   15.5682  -13.5917 O   0  0  0  0  0  0  0  0  0  0  0  0
   13.3794   17.6672  -13.6666 C   0  0  2  0  0  0  0  0  0  0  0  0
   13.8343   18.8496  -12.8754 N   0  0  0  0  0  0  0  0  0  0  0  0
   13.8502   12.7303   -5.7870 C   0  0  1  0  0  0  0  0  0  0  0  0
   14.7362   12.8946   -4.6784 O   0  0  0  0  0  0  0  0  0  0  0  0
   13.3983   11.4377   -9.7125 C   0  0  2  0  0  0  0  0  0  0  0  0
   13.5457   10.7504   -8.4012 N   0  0  0  0  0  0  0  0  0  0  0  0
   10.0697   17.0536  -12.7711 C   0  0  2  0  0  0  0  0  0  0  0  0
   10.9504   18.1562  -13.1573 O   0  0  0  0  0  0  0  0  0  0  0  0
   14.3471   17.4039  -14.9161 C   0  0  1  0  0  0  0  0  0  0  0  0
   14.1107   16.0690  -15.4169 O   0  0  0  0  0  0  0  0  0  0  0  0
   12.6822   11.7793   -5.4399 C   0  0  2  0  0  0  0  0  0  0  0  0
   13.1806   10.5318   -5.0156 O   0  0  0  0  0  0  0  0  0  0  0  0
   12.4542   12.6939   -9.5495 C   0  0  2  0  0  0  0  0  0  0  0  0
    9.4459   17.2974  -11.3866 C   0  0  2  0  0  0  0  0  0  0  0  0
   10.3808   16.6857  -10.5010 O   0  0  0  0  0  0  0  0  0  0  0  0
   14.1387   18.4648  -16.0987 C   0  0  2  0  0  0  0  0  0  0  0  0
   14.6217   19.7256  -15.6367 O   0  0  0  0  0  0  0  0  0  0  0  0
   11.7695   11.6105   -6.7001 C   0  0  2  0  0  0  0  0  0  0  0  0
   11.2729   12.9187   -7.1265 O   0  0  0  0  0  0  0  0  0  0  0  0
   12.2371   13.4559  -10.8752 C   0  0  2  0  0  0  0  0  0  0  0  0
   11.2156   14.4485  -10.5823 O   0  0  0  0  0  0  0  0  0  0  0  0
    8.0172   16.7006  -11.1941 C   0  0  0  0  0  0  0  0  0  0  0  0
    7.5635   16.9829   -9.8738 O   0  0  0  0  0  0  0  0  0  0  0  0
   12.6154   18.5732  -16.4861 C   0  0  1  0  0  0  0  0  0  0  0  0
   11.9042   18.9438  -15.2503 O   0  0  0  0  0  0  0  0  0  0  0  0
   10.5925   10.6969   -6.4475 C   0  0  0  0  0  0  0  0  0  0  0  0
   11.0172    9.3560   -6.4175 O   0  0  0  0  0  0  0  0  0  0  0  0
   11.7447   12.4595  -12.0067 C   0  0  1  0  0  0  0  0  0  0  0  0
   11.6894   13.1329  -13.2673 O   0  0  0  0  0  0  0  0  0  0  0  0
   12.3126   19.6321  -17.6331 C   0  0  0  0  0  0  0  0  0  0  0  0
   12.7040   21.0363  -17.3305 N   0  0  0  0  0  0  0  0  0  0  0  0
  1  2  1  6  0  0  0
  1  7  1  0  0  0  0
  1 30  1  0  0  0  0
  3  4  1  6  0  0  0
  3  9  1  0  0  0  0
  3 39  1  0  0  0  0
  5 10  1  0  0  0  0
  5 26  1  0  0  0  0
  5 32  1  1  0  0  0
  6 12  1  0  0  0  0
  6 36  1  0  0  0  0
  6 19  1  1  0  0  0
  7  8  1  6  0  0  0
  7 14  1  0  0  0  0
  9 16  1  0  0  0  0
 10 11  1  6  0  0  0
 10 18  1  0  0  0  0
 12 13  1  6  0  0  0
 12 20  1  0  0  0  0
 14 15  1  1  0  0  0
 14 22  1  0  0  0  0
 16 17  1  1  0  0  0
 16 24  1  0  0  0  0
 18 19  1  1  0  0  0
 18 25  1  0  0  0  0
 20 21  1  6  0  0  0
 20 27  1  0  0  0  0
 22 23  1  6  0  0  0
 22 29  1  0  0  0  0
 24  2  1  1  0  0  0
 24 31  1  0  0  0  0
 25 26  1  0  0  0  0
 25 33  1  6  0  0  0
 27 28  1  1  0  0  0
 27 35  1  0  0  0  0
 29 30  1  0  0  0  0
 29 37  1  1  0  0  0
 31 32  1  1  0  0  0
 31 39  1  0  0  0  0
 33 34  1  0  0  0  0
 35 36  1  0  0  0  0
 35 41  1  6  0  0  0
 37 38  1  0  0  0  0
 39 40  1  6  0  0  0
 41 42  1  0  0  0  0
M  END
>  <CHROM.1>
144.32405734,-122.36691506,42.14025468,-103.87726302,179.39658355,-75.08091183
142.83209208,75.65382841,-59.75963447,12.18648638,14.85319748,-11.00191021
1.56210516,-1.04960694,2.24419286

>  <Name>
ligand

>  <RI>
0

>  <Rbt.Current_Directory>
/home/itssahil/PROJECTS/Mol_Feturizer/Test_systems_manuscript/rnas/2o3w

>  <Rbt.Executable>
rbdock ($Id: //depot/dev/client3/rdock/2013.1/src/exe/rbdock.cxx#4 $)

>  <Rbt.Library>
libRbt.so (2013.1, Build901 2013/11/27)

>  <Rbt.Parameter_File>
/export/apps/rDock/src/rDock_2013.1_src/data/scripts/dock_solv.prm

>  <Rbt.Receptor>
prm/blind_docking_100.prm

>  <SCORE>
14.6029

>  <SCORE.INTER>
-4.13022

>  <SCORE.INTER.CONST>
1

>  <SCORE.INTER.POLAR>
0

>  <SCORE.INTER.ROT>
9

>  <SCORE.INTER.SOLV>
30.0349

>  <SCORE.INTER.VDW>
-22.3651

>  <SCORE.INTER.norm>
-0.0983386

>  <SCORE.INTRA>
9.9198

>  <SCORE.INTRA.DIHEDRAL>
-1.80853

>  <SCORE.INTRA.DIHEDRAL.0>
27.8999

>  <SCORE.INTRA.POLAR>
0

>  <SCORE.INTRA.POLAR.0>
0

>  <SCORE.INTRA.REPUL>
0.00174479

>  <SCORE.INTRA.REPUL.0>
0

>  <SCORE.INTRA.SOLV>
2.84309

>  <SCORE.INTRA.SOLV.lig_0>
-104.479

>  <SCORE.INTRA.VDW>
9.3938

>  <SCORE.INTRA.VDW.0>
-6.17816

>  <SCORE.INTRA.norm>
0.236186

>  <SCORE.RESTR>
8.81337

>  <SCORE.RESTR.CAVITY>
8.81337

>  <SCORE.RESTR.norm>
0.209842

>  <SCORE.SYSTEM>
0

>  <SCORE.SYSTEM.CONST>
0

>  <SCORE.SYSTEM.DIHEDRAL>
0

>  <SCORE.SYSTEM.SOLV>
0

>  <SCORE.SYSTEM.norm>
0

>  <SCORE.heavy>
42

>  <SCORE.norm>
0.347689

>  <RMSD>
19.773

$$$$
ligand
 OpenBabel02271912133D
libRbt.so/2013.1/901 2013/11/27
 42 45  0  0  0  0  0  0  0  0999 V2000
   13.1261   11.1152  -11.3599 C   0  0  2  0  0  0  0  0  0  0  0  0
   13.1175   10.9788   -9.9286 O   0  0  0  0  0  0  0  0  0  0  0  0
   11.4274   13.5551   -6.8785 C   0  0  2  0  0  0  0  0  0  0  0  0
   11.1336   14.7308   -6.0058 N   0  0  0  0  0  0  0  0  0  0  0  0
   11.8389   14.5624  -11.0786 C   0  0  1  0  0  0  0  0  0  0  0  0
   13.1535   17.2751  -13.7341 C   0  0  1  0  0  0  0  0  0  0  0  0
   12.2732    9.9442  -11.9338 C   0  0  2  0  0  0  0  0  0  0  0  0
   10.9610    9.8266  -11.2744 N   0  0  0  0  0  0  0  0  0  0  0  0
   12.9080   13.0398   -6.6680 C   0  0  0  0  0  0  0  0  0  0  0  0
   11.8203   14.8105  -12.6177 C   0  0  2  0  0  0  0  0  0  0  0  0
   13.1138   14.6647  -13.2538 O   0  0  0  0  0  0  0  0  0  0  0  0
   13.8435   18.6656  -13.9776 C   0  0  2  0  0  0  0  0  0  0  0  0
   12.8243   19.7412  -14.1652 N   0  0  0  0  0  0  0  0  0  0  0  0
   12.9727    8.5812  -11.7786 C   0  0  1  0  0  0  0  0  0  0  0  0
   12.1748    7.5445  -12.3526 O   0  0  0  0  0  0  0  0  0  0  0  0
   13.1499   11.7894   -7.5956 C   0  0  2  0  0  0  0  0  0  0  0  0
   14.5314   11.2685   -7.4121 N   0  0  0  0  0  0  0  0  0  0  0  0
   11.2026   16.2080  -12.6857 C   0  0  2  0  0  0  0  0  0  0  0  0
   12.2270   17.2518  -12.6411 O   0  0  0  0  0  0  0  0  0  0  0  0
   14.8101   18.5603  -15.2510 C   0  0  1  0  0  0  0  0  0  0  0  0
   15.9838   17.8004  -14.8850 O   0  0  0  0  0  0  0  0  0  0  0  0
   14.3725    8.6428  -12.4312 C   0  0  2  0  0  0  0  0  0  0  0  0
   15.0196    7.3972  -12.3124 O   0  0  0  0  0  0  0  0  0  0  0  0
   12.9235   12.1690   -9.1123 C   0  0  2  0  0  0  0  0  0  0  0  0
   10.2501   16.3102  -11.4825 C   0  0  2  0  0  0  0  0  0  0  0  0
   10.8714   15.4739  -10.5093 O   0  0  0  0  0  0  0  0  0  0  0  0
   14.1015   17.8765  -16.5150 C   0  0  2  0  0  0  0  0  0  0  0  0
   13.1099   18.7831  -16.9958 O   0  0  0  0  0  0  0  0  0  0  0  0
   15.2097    9.7692  -11.7384 C   0  0  2  0  0  0  0  0  0  0  0  0
   14.5134   11.0492  -11.8668 O   0  0  0  0  0  0  0  0  0  0  0  0
   11.5123   12.7348   -9.3839 C   0  0  2  0  0  0  0  0  0  0  0  0
   11.5443   13.1954  -10.7628 O   0  0  0  0  0  0  0  0  0  0  0  0
    8.7849   15.8529  -11.7623 C   0  0  0  0  0  0  0  0  0  0  0  0
    7.8988   16.5591  -10.8991 O   0  0  0  0  0  0  0  0  0  0  0  0
   13.4368   16.5078  -16.1066 C   0  0  1  0  0  0  0  0  0  0  0  0
   12.4937   16.8195  -15.0186 O   0  0  0  0  0  0  0  0  0  0  0  0
   16.5974    9.9044  -12.3213 C   0  0  0  0  0  0  0  0  0  0  0  0
   16.8994   11.2601  -12.5448 O   0  0  0  0  0  0  0  0  0  0  0  0
   11.2036   13.9371   -8.3966 C   0  0  1  0  0  0  0  0  0  0  0  0
    9.8456   14.3608   -8.5445 O   0  0  0  0  0  0  0  0  0  0  0  0
   12.6795   15.7748  -17.2973 C   0  0  0  0  0  0  0  0  0  0  0  0
   13.5198   15.4297  -18.4769 N   0  0  0  0  0  0  0  0  0  0  0  0
  1  2  1  1  0  0  0
  1  7  1  0  0  0  0
  1 30  1  0  0  0  0
  3  4  1  1  0  0  0
  3  9  1  0  0  0  0
  3 39  1  0  0  0  0
  5 10  1  0  0  0  0
  5 26  1  0  0  0  0
  5 32  1  6  0  0  0
  6 12  1  0  0  0  0
  6 36  1  0  0  0  0
  6 19  1  1  0  0  0
  7  8  1  1  0  0  0
  7 14  1  0  0  0  0
  9 16  1  0  0  0  0
 10 11  1  1  0  0  0
 10 18  1  0  0  0  0
 12 13  1  6  0  0  0
 12 20  1  0  0  0  0
 14 15  1  6  0  0  0
 14 22  1  0  0  0  0
 16 17  1  6  0  0  0
 16 24  1  0  0  0  0
 18 19  1  1  0  0  0
 18 25  1  0  0  0  0
 20 21  1  1  0  0  0
 20 27  1  0  0  0  0
 22 23  1  1  0  0  0
 22 29  1  0  0  0  0
 24  2  1  6  0  0  0
 24 31  1  0  0  0  0
 25 26  1  0  0  0  0
 25 33  1  6  0  0  0
 27 28  1  1  0  0  0
 27 35  1  0  0  0  0
 29 30  1  0  0  0  0
 29 37  1  6  0  0  0
 31 32  1  6  0  0  0
 31 39  1  0  0  0  0
 33 34  1  0  0  0  0
 35 36  1  0  0  0  0
 35 41  1  6  0  0  0
 37 38  1  0  0  0  0
 39 40  1  1  0  0  0
 41 42  1  0  0  0  0
M  END
>  <CHROM.1>
-136.41251429,-172.37967544,63.34160278,156.86527377,-151.62516014,134.32833930
-94.50179204,179.76173313,59.52778587,12.74762722,13.84816972,-11.97365881
-1.54041033,0.98055657,-0.64860536

>  <Name>
ligand

>  <RI>
0

>  <Rbt.Current_Directory>
/home/itssahil/PROJECTS/Mol_Feturizer/Test_systems_manuscript/rnas/2o3w

>  <Rbt.Executable>
rbdock ($Id: //depot/dev/client3/rdock/2013.1/src/exe/rbdock.cxx#4 $)

>  <Rbt.Library>
libRbt.so (2013.1, Build901 2013/11/27)

>  <Rbt.Parameter_File>
/export/apps/rDock/src/rDock_2013.1_src/data/scripts/dock_solv.prm

>  <Rbt.Receptor>
prm/blind_docking_100.prm

>  <SCORE>
8.50161

>  <SCORE.INTER>
0.0404912

>  <SCORE.INTER.CONST>
1

>  <SCORE.INTER.POLAR>
0

>  <SCORE.INTER.ROT>
9

>  <SCORE.INTER.SOLV>
29.0501

>  <SCORE.INTER.VDW>
-19.2564

>  <SCORE.INTER.norm>
0.000964076

>  <SCORE.INTRA>
0.446997

>  <SCORE.INTRA.DIHEDRAL>
-7.81624

>  <SCORE.INTRA.DIHEDRAL.0>
27.8999

>  <SCORE.INTRA.POLAR>
0

>  <SCORE.INTRA.POLAR.0>
0

>  <SCORE.INTRA.REPUL>
0

>  <SCORE.INTRA.REPUL.0>
0

>  <SCORE.INTRA.SOLV>
-3.70832

>  <SCORE.INTRA.SOLV.lig_0>
-104.479

>  <SCORE.INTRA.VDW>
6.20928

>  <SCORE.INTRA.VDW.0>
-6.17816

>  <SCORE.INTRA.norm>
0.0106428

>  <SCORE.RESTR>
8.01412

>  <SCORE.RESTR.CAVITY>
8.01412

>  <SCORE.RESTR.norm>
0.190812

>  <SCORE.SYSTEM>
0

>  <SCORE.SYSTEM.CONST>
0

>  <SCORE.SYSTEM.DIHEDRAL>
0

>  <SCORE.SYSTEM.SOLV>
0

>  <SCORE.SYSTEM.norm>
0

>  <SCORE.heavy>
42

>  <SCORE.norm>
0.202419

>  <RMSD>
19.785

$$$$
ligand
 OpenBabel02271912133D
libRbt.so/2013.1/901 2013/11/27
 42 45  0  0  0  0  0  0  0  0999 V2000
   12.0836   11.3315   -7.7762 C   0  0  2  0  0  0  0  0  0  0  0  0
   12.5208   11.8182   -9.0566 O   0  0  0  0  0  0  0  0  0  0  0  0
   12.0557   10.0389  -12.9826 C   0  0  2  0  0  0  0  0  0  0  0  0
   11.4706    9.5347  -14.2608 N   0  0  0  0  0  0  0  0  0  0  0  0
   11.8859   14.5357  -12.2187 C   0  0  1  0  0  0  0  0  0  0  0  0
   12.4453   17.2129  -14.3241 C   0  0  1  0  0  0  0  0  0  0  0  0
   11.4036   12.5267   -7.0431 C   0  0  2  0  0  0  0  0  0  0  0  0
   10.4042   13.2087   -7.8837 N   0  0  0  0  0  0  0  0  0  0  0  0
   11.5001    9.2334  -11.7399 C   0  0  0  0  0  0  0  0  0  0  0  0
   10.5546   14.6835  -13.0166 C   0  0  2  0  0  0  0  0  0  0  0  0
   10.4999   13.8856  -14.2246 O   0  0  0  0  0  0  0  0  0  0  0  0
   12.5610   18.6436  -14.9632 C   0  0  2  0  0  0  0  0  0  0  0  0
   12.1745   18.6163  -16.4057 N   0  0  0  0  0  0  0  0  0  0  0  0
   12.4196   13.5968   -6.6034 C   0  0  1  0  0  0  0  0  0  0  0  0
   11.7588   14.6517   -5.9023 O   0  0  0  0  0  0  0  0  0  0  0  0
   12.1685    9.7943  -10.4280 C   0  0  2  0  0  0  0  0  0  0  0  0
   11.6784    9.0481   -9.2378 N   0  0  0  0  0  0  0  0  0  0  0  0
   10.4970   16.1983  -13.2202 C   0  0  2  0  0  0  0  0  0  0  0  0
   11.1575   16.5996  -14.4626 O   0  0  0  0  0  0  0  0  0  0  0  0
   14.0572   19.1858  -14.7784 C   0  0  1  0  0  0  0  0  0  0  0  0
   14.2534   19.5533  -13.3944 O   0  0  0  0  0  0  0  0  0  0  0  0
   13.5155   12.9406   -5.7330 C   0  0  2  0  0  0  0  0  0  0  0  0
   14.4447   13.9104   -5.3083 O   0  0  0  0  0  0  0  0  0  0  0  0
   11.8530   11.3327  -10.2561 C   0  0  2  0  0  0  0  0  0  0  0  0
   11.1903   16.8180  -11.9952 C   0  0  2  0  0  0  0  0  0  0  0  0
   12.1593   15.8336  -11.6426 O   0  0  0  0  0  0  0  0  0  0  0  0
   15.1656   18.1122  -15.2101 C   0  0  2  0  0  0  0  0  0  0  0  0
   15.0974   17.9689  -16.6283 O   0  0  0  0  0  0  0  0  0  0  0  0
   14.2258   11.8211   -6.5648 C   0  0  2  0  0  0  0  0  0  0  0  0
   13.2400   10.8327   -7.0019 O   0  0  0  0  0  0  0  0  0  0  0  0
   12.3183   12.1780  -11.4620 C   0  0  2  0  0  0  0  0  0  0  0  0
   11.7898   13.5110  -11.2208 O   0  0  0  0  0  0  0  0  0  0  0  0
   10.2461   17.1318  -10.7934 C   0  0  0  0  0  0  0  0  0  0  0  0
    9.3748   16.0257  -10.5783 O   0  0  0  0  0  0  0  0  0  0  0  0
   14.9003   16.7267  -14.5087 C   0  0  1  0  0  0  0  0  0  0  0  0
   13.5349   16.3284  -14.8927 O   0  0  0  0  0  0  0  0  0  0  0  0
   15.3131   11.1186   -5.7851 C   0  0  0  0  0  0  0  0  0  0  0  0
   14.7533   10.3962   -4.7155 O   0  0  0  0  0  0  0  0  0  0  0  0
   11.7365   11.5780  -12.8101 C   0  0  1  0  0  0  0  0  0  0  0  0
   12.2881   12.2672  -13.9354 O   0  0  0  0  0  0  0  0  0  0  0  0
   15.9374   15.5894  -14.9083 C   0  0  0  0  0  0  0  0  0  0  0  0
   16.0121   15.2698  -16.3605 N   0  0  0  0  0  0  0  0  0  0  0  0
  1  2  1  6  0  0  0
  1  7  1  0  0  0  0
  1 30  1  0  0  0  0
  3  4  1  6  0  0  0
  3  9  1  0  0  0  0
  3 39  1  0  0  0  0
  5 10  1  0  0  0  0
  5 26  1  0  0  0  0
  5 32  1  1  0  0  0
  6 12  1  0  0  0  0
  6 36  1  0  0  0  0
  6 19  1  6  0  0  0
  7  8  1  6  0  0  0
  7 14  1  0  0  0  0
  9 16  1  0  0  0  0
 10 11  1  6  0  0  0
 10 18  1  0  0  0  0
 12 13  1  6  0  0  0
 12 20  1  0  0  0  0
 14 15  1  1  0  0  0
 14 22  1  0  0  0  0
 16 17  1  1  0  0  0
 16 24  1  0  0  0  0
 18 19  1  6  0  0  0
 18 25  1  0  0  0  0
 20 21  1  1  0  0  0
 20 27  1  0  0  0  0
 22 23  1  6  0  0  0
 22 29  1  0  0  0  0
 24  2  1  1  0  0  0
 24 31  1  0  0  0  0
 25 26  1  0  0  0  0
 25 33  1  1  0  0  0
 27 28  1  6  0  0  0
 27 35  1  0  0  0  0
 29 30  1  0  0  0  0
 29 37  1  1  0  0  0
 31 32  1  1  0  0  0
 31 39  1  0  0  0  0
 33 34  1  0  0  0  0
 35 36  1  0  0  0  0
 35 41  1  6  0  0  0
 37 38  1  0  0  0  0
 39 40  1  6  0  0  0
 41 42  1  0  0  0  0
M  END
>  <CHROM.1>
-111.15381924,-66.77203227,-104.92453717,-123.02345067,44.76219270,66.18141054
-172.38710050,98.89829353,-58.57590585,12.59259942,14.10394149,-11.31879957
1.78780807,1.36136738,1.99623217

>  <Name>
ligand

>  <RI>
0

>  <Rbt.Current_Directory>
/home/itssahil/PROJECTS/Mol_Feturizer/Test_systems_manuscript/rnas/2o3w

>  <Rbt.Executable>
rbdock ($Id: //depot/dev/client3/rdock/2013.1/src/exe/rbdock.cxx#4 $)

>  <Rbt.Library>
libRbt.so (2013.1, Build901 2013/11/27)

>  <Rbt.Parameter_File>
/export/apps/rDock/src/rDock_2013.1_src/data/scripts/dock_solv.prm

>  <Rbt.Receptor>
prm/blind_docking_100.prm

>  <SCORE>
5.43593

>  <SCORE.INTER>
-8.00831

>  <SCORE.INTER.CONST>
1

>  <SCORE.INTER.POLAR>
0

>  <SCORE.INTER.ROT>
9

>  <SCORE.INTER.SOLV>
23.2672

>  <SCORE.INTER.VDW>
-22.6946

>  <SCORE.INTER.norm>
-0.190674

>  <SCORE.INTRA>
4.54207

>  <SCORE.INTRA.DIHEDRAL>
-1.10256

>  <SCORE.INTRA.DIHEDRAL.0>
27.8999

>  <SCORE.INTRA.POLAR>
0

>  <SCORE.INTRA.POLAR.0>
0

>  <SCORE.INTRA.REPUL>
0.011205

>  <SCORE.INTRA.REPUL.0>
0

>  <SCORE.INTRA.SOLV>
-0.23706

>  <SCORE.INTRA.SOLV.lig_0>
-104.479

>  <SCORE.INTRA.VDW>
5.15586

>  <SCORE.INTRA.VDW.0>
-6.17816

>  <SCORE.INTRA.norm>
0.108145

>  <SCORE.RESTR>
8.90216

>  <SCORE.RESTR.CAVITY>
8.90216

>  <SCORE.RESTR.norm>
0.211956

>  <SCORE.SYSTEM>
0

>  <SCORE.SYSTEM.CONST>
0

>  <SCORE.SYSTEM.DIHEDRAL>
0

>  <SCORE.SYSTEM.SOLV>
0

>  <SCORE.SYSTEM.norm>
0

>  <SCORE.heavy>
42

>  <SCORE.norm>
0.129427

>  <RMSD>
19.786

$$$$
ligand
 OpenBabel02271912133D
libRbt.so/2013.1/901 2013/11/27
 42 45  0  0  0  0  0  0  0  0999 V2000
   13.4474   11.1611  -11.3098 C   0  0  2  0  0  0  0  0  0  0  0  0
   13.2874   10.9964   -9.8905 O   0  0  0  0  0  0  0  0  0  0  0  0
   11.3865   13.4897   -6.8961 C   0  0  2  0  0  0  0  0  0  0  0  0
   11.0179   14.6476   -6.0279 N   0  0  0  0  0  0  0  0  0  0  0  0
   11.9526   14.5459  -11.0669 C   0  0  1  0  0  0  0  0  0  0  0  0
   13.2058   17.3321  -13.6842 C   0  0  1  0  0  0  0  0  0  0  0  0
   12.6673    9.9984  -11.9937 C   0  0  2  0  0  0  0  0  0  0  0  0
   11.2931    9.8628  -11.4801 N   0  0  0  0  0  0  0  0  0  0  0  0
   12.8726   13.0201   -6.6262 C   0  0  0  0  0  0  0  0  0  0  0  0
   11.9224   14.8213  -12.6012 C   0  0  2  0  0  0  0  0  0  0  0  0
   13.2148   14.7069  -13.2460 O   0  0  0  0  0  0  0  0  0  0  0  0
   13.8527   18.7449  -13.9173 C   0  0  2  0  0  0  0  0  0  0  0  0
   12.8009   19.7926  -14.0815 N   0  0  0  0  0  0  0  0  0  0  0  0
   13.3543    8.6353  -11.7912 C   0  0  1  0  0  0  0  0  0  0  0  0
   12.6280    7.6071  -12.4667 O   0  0  0  0  0  0  0  0  0  0  0  0
   13.1940   11.7864   -7.5521 C   0  0  2  0  0  0  0  0  0  0  0  0
   14.5826   11.3083   -7.3135 N   0  0  0  0  0  0  0  0  0  0  0  0
   11.2830   16.2101  -12.6411 C   0  0  2  0  0  0  0  0  0  0  0  0
   12.2915   17.2686  -12.5825 O   0  0  0  0  0  0  0  0  0  0  0  0
   14.8090   18.6832  -15.2012 C   0  0  1  0  0  0  0  0  0  0  0  0
   16.0078   17.9534  -14.8563 O   0  0  0  0  0  0  0  0  0  0  0  0
   14.8152    8.7150  -12.2898 C   0  0  2  0  0  0  0  0  0  0  0  0
   15.4532    7.4698  -12.1267 O   0  0  0  0  0  0  0  0  0  0  0  0
   13.0205   12.1723   -9.0742 C   0  0  2  0  0  0  0  0  0  0  0  0
   10.3352   16.2760  -11.4317 C   0  0  2  0  0  0  0  0  0  0  0  0
   10.9741   15.4320  -10.4768 O   0  0  0  0  0  0  0  0  0  0  0  0
   14.1076   17.9945  -16.4667 C   0  0  2  0  0  0  0  0  0  0  0  0
   13.0853   18.8776  -16.9264 O   0  0  0  0  0  0  0  0  0  0  0  0
   15.5673    9.8307  -11.4902 C   0  0  2  0  0  0  0  0  0  0  0  0
   14.8811   11.1104  -11.6674 O   0  0  0  0  0  0  0  0  0  0  0  0
   11.6046   12.6953   -9.4018 C   0  0  2  0  0  0  0  0  0  0  0  0
   11.6805   13.1691  -10.7745 O   0  0  0  0  0  0  0  0  0  0  0  0
    8.8757   15.8013  -11.7128 C   0  0  0  0  0  0  0  0  0  0  0  0
    8.9105   14.5445  -12.3821 O   0  0  0  0  0  0  0  0  0  0  0  0
   13.4870   16.6021  -16.0687 C   0  0  1  0  0  0  0  0  0  0  0  0
   12.5464   16.8730  -14.9678 O   0  0  0  0  0  0  0  0  0  0  0  0
   17.0083    9.9826  -11.9194 C   0  0  0  0  0  0  0  0  0  0  0  0
   17.0952   10.8405  -13.0311 O   0  0  0  0  0  0  0  0  0  0  0  0
   11.2154   13.8781   -8.4194 C   0  0  1  0  0  0  0  0  0  0  0  0
    9.8520   14.2596   -8.6223 O   0  0  0  0  0  0  0  0  0  0  0  0
   12.7392   15.8619  -17.2609 C   0  0  0  0  0  0  0  0  0  0  0  0
   13.5934   15.4895  -18.4221 N   0  0  0  0  0  0  0  0  0  0  0  0
  1  2  1  1  0  0  0
  1  7  1  0  0  0  0
  1 30  1  0  0  0  0
  3  4  1  1  0  0  0
  3  9  1  0  0  0  0
  3 39  1  0  0  0  0
  5 10  1  0  0  0  0
  5 26  1  0  0  0  0
  5 32  1  6  0  0  0
  6 12  1  0  0  0  0
  6 36  1  0  0  0  0
  6 19  1  1  0  0  0
  7  8  1  1  0  0  0
  7 14  1  0  0  0  0
  9 16  1  0  0  0  0
 10 11  1  1  0  0  0
 10 18  1  0  0  0  0
 12 13  1  6  0  0  0
 12 20  1  0  0  0  0
 14 15  1  6  0  0  0
 14 22  1  0  0  0  0
 16 17  1  6  0  0  0
 16 24  1  0  0  0  0
 18 19  1  1  0  0  0
 18 25  1  0  0  0  0
 20 21  1  1  0  0  0
 20 27  1  0  0  0  0
 22 23  1  1  0  0  0
 22 29  1  0  0  0  0
 24  2  1  6  0  0  0
 24 31  1  0  0  0  0
 25 26  1  0  0  0  0
 25 33  1  6  0  0  0
 27 28  1  1  0  0  0
 27 35  1  0  0  0  0
 29 30  1  0  0  0  0
 29 37  1  6  0  0  0
 31 32  1  6  0  0  0
 31 39  1  0  0  0  0
 33 34  1  0  0  0  0
 35 36  1  0  0  0  0
 35 41  1  6  0  0  0
 37 38  1  0  0  0  0
 39 40  1  1  0  0  0
 41 42  1  0  0  0  0
M  END
>  <CHROM.1>
-137.31542606,-167.99715234,63.79400818,155.86327273,48.97900747,85.23886948
-94.09797057,-177.51884194,62.72050000,12.90694065,13.81061431,-11.98466674
-1.50610993,0.96545889,-0.67890406

>  <Name>
ligand

>  <RI>
0

>  <Rbt.Current_Directory>
/home/itssahil/PROJECTS/Mol_Feturizer/Test_systems_manuscript/rnas/2o3w

>  <Rbt.Executable>
rbdock ($Id: //depot/dev/client3/rdock/2013.1/src/exe/rbdock.cxx#4 $)

>  <Rbt.Library>
libRbt.so (2013.1, Build901 2013/11/27)

>  <Rbt.Parameter_File>
/export/apps/rDock/src/rDock_2013.1_src/data/scripts/dock_solv.prm

>  <Rbt.Receptor>
prm/blind_docking_100.prm

>  <SCORE>
4.14762

>  <SCORE.INTER>
-3.22312

>  <SCORE.INTER.CONST>
1

>  <SCORE.INTER.POLAR>
0

>  <SCORE.INTER.ROT>
9

>  <SCORE.INTER.SOLV>
28.5359

>  <SCORE.INTER.VDW>
-21.2607

>  <SCORE.INTER.norm>
-0.0767411

>  <SCORE.INTRA>
-1.60313

>  <SCORE.INTRA.DIHEDRAL>
-11.8576

>  <SCORE.INTRA.DIHEDRAL.0>
27.8999

>  <SCORE.INTRA.POLAR>
0

>  <SCORE.INTRA.POLAR.0>
0

>  <SCORE.INTRA.REPUL>
0

>  <SCORE.INTRA.REPUL.0>
0

>  <SCORE.INTRA.SOLV>
-2.85748

>  <SCORE.INTRA.SOLV.lig_0>
-104.479

>  <SCORE.INTRA.VDW>
5.75438

>  <SCORE.INTRA.VDW.0>
-6.17816

>  <SCORE.INTRA.norm>
-0.0381699

>  <SCORE.RESTR>
8.97388

>  <SCORE.RESTR.CAVITY>
8.97388

>  <SCORE.RESTR.norm>
0.213664

>  <SCORE.SYSTEM>
0

>  <SCORE.SYSTEM.CONST>
0

>  <SCORE.SYSTEM.DIHEDRAL>
0

>  <SCORE.SYSTEM.SOLV>
0

>  <SCORE.SYSTEM.norm>
0

>  <SCORE.heavy>
42

>  <SCORE.norm>
0.0987528

>  <RMSD>
19.808

$$$$
ligand
 OpenBabel02271912133D
libRbt.so/2013.1/901 2013/11/27
 42 45  0  0  0  0  0  0  0  0999 V2000
   11.8836   11.5953   -7.5969 C   0  0  2  0  0  0  0  0  0  0  0  0
   12.3741   11.9068   -8.9121 O   0  0  0  0  0  0  0  0  0  0  0  0
   11.8422    9.8339  -12.6825 C   0  0  2  0  0  0  0  0  0  0  0  0
   11.2375    9.2456  -13.9148 N   0  0  0  0  0  0  0  0  0  0  0  0
   11.8734   14.4047  -12.2456 C   0  0  1  0  0  0  0  0  0  0  0  0
   12.6246   17.0355  -14.4616 C   0  0  1  0  0  0  0  0  0  0  0  0
   11.1024   12.8464   -7.0944 C   0  0  2  0  0  0  0  0  0  0  0  0
   10.1243   13.3345   -8.0821 N   0  0  0  0  0  0  0  0  0  0  0  0
   11.2714    9.1453  -11.3780 C   0  0  0  0  0  0  0  0  0  0  0  0
   10.5842   14.5886  -13.1029 C   0  0  2  0  0  0  0  0  0  0  0  0
   10.5260   13.7330  -14.2706 O   0  0  0  0  0  0  0  0  0  0  0  0
   12.6688   18.5197  -14.9755 C   0  0  2  0  0  0  0  0  0  0  0  0
   12.2390   18.6027  -16.4036 N   0  0  0  0  0  0  0  0  0  0  0  0
   12.0361   14.0276   -6.7719 C   0  0  1  0  0  0  0  0  0  0  0  0
   11.2829   15.1366   -6.2783 O   0  0  0  0  0  0  0  0  0  0  0  0
   11.9611    9.7905  -10.1168 C   0  0  2  0  0  0  0  0  0  0  0  0
   11.4571    9.1549   -8.8696 N   0  0  0  0  0  0  0  0  0  0  0  0
   10.6266   16.0913  -13.3844 C   0  0  2  0  0  0  0  0  0  0  0  0
   11.3561   16.3873  -14.6177 O   0  0  0  0  0  0  0  0  0  0  0  0
   14.1495   19.1012  -14.7854 C   0  0  1  0  0  0  0  0  0  0  0  0
   14.3750   19.3545  -13.3804 O   0  0  0  0  0  0  0  0  0  0  0  0
   13.1074   13.5750   -5.7538 C   0  0  2  0  0  0  0  0  0  0  0  0
   13.9603   14.6499   -5.4352 O   0  0  0  0  0  0  0  0  0  0  0  0
   11.6876   11.3457  -10.0672 C   0  0  2  0  0  0  0  0  0  0  0  0
   11.3103   16.7325  -12.1651 C   0  0  2  0  0  0  0  0  0  0  0  0
   12.2038   15.7126  -11.7248 O   0  0  0  0  0  0  0  0  0  0  0  0
   15.2820   18.1127  -15.3403 C   0  0  2  0  0  0  0  0  0  0  0  0
   15.1750   18.0905  -16.7631 O   0  0  0  0  0  0  0  0  0  0  0  0
   13.9211   12.3853   -6.3638 C   0  0  2  0  0  0  0  0  0  0  0  0
   13.0134   11.2869   -6.6946 O   0  0  0  0  0  0  0  0  0  0  0  0
   12.1695   12.0794  -11.3379 C   0  0  2  0  0  0  0  0  0  0  0  0
   11.6780   13.4412  -11.2022 O   0  0  0  0  0  0  0  0  0  0  0  0
   10.3429   17.1641  -11.0196 C   0  0  0  0  0  0  0  0  0  0  0  0
    9.3998   16.1232  -10.7831 O   0  0  0  0  0  0  0  0  0  0  0  0
   15.0886   16.6623  -14.7562 C   0  0  1  0  0  0  0  0  0  0  0  0
   13.7273   16.2464  -15.1357 O   0  0  0  0  0  0  0  0  0  0  0  0
   14.9916   11.8729   -5.4283 C   0  0  0  0  0  0  0  0  0  0  0  0
   15.7578   10.8799   -6.0657 O   0  0  0  0  0  0  0  0  0  0  0  0
   11.5652   11.3900  -12.6322 C   0  0  1  0  0  0  0  0  0  0  0  0
   12.1295   11.9722  -13.8105 O   0  0  0  0  0  0  0  0  0  0  0  0
   16.1532   15.6049  -15.2828 C   0  0  0  0  0  0  0  0  0  0  0  0
   15.8431   14.1792  -14.9863 N   0  0  0  0  0  0  0  0  0  0  0  0
  1  2  1  6  0  0  0
  1  7  1  0  0  0  0
  1 30  1  0  0  0  0
  3  4  1  6  0  0  0
  3  9  1  0  0  0  0
  3 39  1  0  0  0  0
  5 10  1  0  0  0  0
  5 26  1  0  0  0  0
  5 32  1  1  0  0  0
  6 12  1  0  0  0  0
  6 36  1  0  0  0  0
  6 19  1  6  0  0  0
  7  8  1  6  0  0  0
  7 14  1  0  0  0  0
  9 16  1  0  0  0  0
 10 11  1  6  0  0  0
 10 18  1  0  0  0  0
 12 13  1  6  0  0  0
 12 20  1  0  0  0  0
 14 15  1  1  0  0  0
 14 22  1  0  0  0  0
 16 17  1  1  0  0  0
 16 24  1  0  0  0  0
 18 19  1  6  0  0  0
 18 25  1  0  0  0  0
 20 21  1  1  0  0  0
 20 27  1  0  0  0  0
 22 23  1  6  0  0  0
 22 29  1  0  0  0  0
 24  2  1  1  0  0  0
 24 31  1  0  0  0  0
 25 26  1  0  0  0  0
 25 33  1  1  0  0  0
 27 28  1  6  0  0  0
 27 35  1  0  0  0  0
 29 30  1  0  0  0  0
 29 37  1  1  0  0  0
 31 32  1  1  0  0  0
 31 39  1  0  0  0  0
 33 34  1  0  0  0  0
 35 36  1  0  0  0  0
 35 41  1  6  0  0  0
 37 38  1  0  0  0  0
 39 40  1  6  0  0  0
 41 42  1  0  0  0  0
M  END
>  <CHROM.1>
-102.98187848,-70.21799645,-110.09455879,-111.35085291,44.85271196,-175.34861878
-176.45671810,100.81376428,-167.76647547,12.53582301,14.14813252,-11.32249746
-1.93021395,-1.32106332,-1.29628531

>  <Name>
ligand

>  <RI>
0

>  <Rbt.Current_Directory>
/home/itssahil/PROJECTS/Mol_Feturizer/Test_systems_manuscript/rnas/2o3w

>  <Rbt.Executable>
rbdock ($Id: //depot/dev/client3/rdock/2013.1/src/exe/rbdock.cxx#4 $)

>  <Rbt.Library>
libRbt.so (2013.1, Build901 2013/11/27)

>  <Rbt.Parameter_File>
/export/apps/rDock/src/rDock_2013.1_src/data/scripts/dock_solv.prm

>  <Rbt.Receptor>
prm/blind_docking_100.prm

>  <SCORE>
7.31767

>  <SCORE.INTER>
-6.25732

>  <SCORE.INTER.CONST>
1

>  <SCORE.INTER.POLAR>
0

>  <SCORE.INTER.ROT>
9

>  <SCORE.INTER.SOLV>
24.5795

>  <SCORE.INTER.VDW>
-21.9647

>  <SCORE.INTER.norm>
-0.148984

>  <SCORE.INTRA>
3.74001

>  <SCORE.INTRA.DIHEDRAL>
-0.964717

>  <SCORE.INTRA.DIHEDRAL.0>
27.8999

>  <SCORE.INTRA.POLAR>
0

>  <SCORE.INTRA.POLAR.0>
0

>  <SCORE.INTRA.REPUL>
0.00862102

>  <SCORE.INTRA.REPUL.0>
0

>  <SCORE.INTRA.SOLV>
-1.96621

>  <SCORE.INTRA.SOLV.lig_0>
-104.479

>  <SCORE.INTRA.VDW>
5.16237

>  <SCORE.INTRA.VDW.0>
-6.17816

>  <SCORE.INTRA.norm>
0.0890479

>  <SCORE.RESTR>
9.83498

>  <SCORE.RESTR.CAVITY>
9.83498

>  <SCORE.RESTR.norm>
0.234166

>  <SCORE.SYSTEM>
0

>  <SCORE.SYSTEM.CONST>
0

>  <SCORE.SYSTEM.DIHEDRAL>
0

>  <SCORE.SYSTEM.SOLV>
0

>  <SCORE.SYSTEM.norm>
0

>  <SCORE.heavy>
42

>  <SCORE.norm>
0.17423

>  <RMSD>
19.819

$$$$
ligand
 OpenBabel02271912133D
libRbt.so/2013.1/901 2013/11/27
 42 45  0  0  0  0  0  0  0  0999 V2000
   11.6803   11.3769  -11.5928 C   0  0  2  0  0  0  0  0  0  0  0  0
   11.4057   11.3285  -10.1823 O   0  0  0  0  0  0  0  0  0  0  0  0
   12.4422   13.4097   -6.5230 C   0  0  2  0  0  0  0  0  0  0  0  0
   13.0325   14.3752   -5.5484 N   0  0  0  0  0  0  0  0  0  0  0  0
   11.3240   14.6074  -10.7713 C   0  0  1  0  0  0  0  0  0  0  0  0
   12.5591   16.4318  -14.7135 C   0  0  1  0  0  0  0  0  0  0  0  0
   11.2903    9.9873  -12.1802 C   0  0  2  0  0  0  0  0  0  0  0  0
    9.9418    9.5597  -11.7688 N   0  0  0  0  0  0  0  0  0  0  0  0
   13.5635   12.5330   -7.2131 C   0  0  0  0  0  0  0  0  0  0  0  0
   10.7234   14.5899  -12.2100 C   0  0  2  0  0  0  0  0  0  0  0  0
   11.1243   13.4449  -13.0020 O   0  0  0  0  0  0  0  0  0  0  0  0
   13.8005   15.9617  -15.5543 C   0  0  2  0  0  0  0  0  0  0  0  0
   15.0736   16.2264  -14.8195 N   0  0  0  0  0  0  0  0  0  0  0  0
   12.2619    8.8751  -11.7442 C   0  0  1  0  0  0  0  0  0  0  0  0
   11.8899    7.6294  -12.3365 O   0  0  0  0  0  0  0  0  0  0  0  0
   12.8796   11.5223   -8.2098 C   0  0  2  0  0  0  0  0  0  0  0  0
   13.9063   10.6697   -8.8675 N   0  0  0  0  0  0  0  0  0  0  0  0
   11.1771   15.9518  -12.7378 C   0  0  2  0  0  0  0  0  0  0  0  0
   12.4793   15.8658  -13.3994 O   0  0  0  0  0  0  0  0  0  0  0  0
   13.7899   16.7049  -16.9735 C   0  0  1  0  0  0  0  0  0  0  0  0
   12.7468   16.1316  -17.7934 O   0  0  0  0  0  0  0  0  0  0  0  0
   13.7058    9.2728  -12.1262 C   0  0  2  0  0  0  0  0  0  0  0  0
   14.6060    8.2571  -11.7487 O   0  0  0  0  0  0  0  0  0  0  0  0
   12.0516   12.2983   -9.3090 C   0  0  2  0  0  0  0  0  0  0  0  0
   11.2335   16.8835  -11.5155 C   0  0  2  0  0  0  0  0  0  0  0  0
   11.5676   15.9963  -10.4507 O   0  0  0  0  0  0  0  0  0  0  0  0
   13.5633   18.2861  -16.8460 C   0  0  2  0  0  0  0  0  0  0  0  0
   14.7352   18.8428  -16.2518 O   0  0  0  0  0  0  0  0  0  0  0  0
   14.0672   10.6224  -11.4207 C   0  0  2  0  0  0  0  0  0  0  0  0
   13.1139   11.6573  -11.8206 O   0  0  0  0  0  0  0  0  0  0  0  0
   10.9712   13.2214   -8.7042 C   0  0  2  0  0  0  0  0  0  0  0  0
   10.4457   13.9811   -9.8272 O   0  0  0  0  0  0  0  0  0  0  0  0
    9.9098   17.6515  -11.2117 C   0  0  0  0  0  0  0  0  0  0  0  0
    8.8717   16.7130  -10.9462 O   0  0  0  0  0  0  0  0  0  0  0  0
   12.3007   18.5966  -15.9563 C   0  0  1  0  0  0  0  0  0  0  0  0
   12.5448   17.9449  -14.6578 O   0  0  0  0  0  0  0  0  0  0  0  0
   15.4665   11.0917  -11.7453 C   0  0  0  0  0  0  0  0  0  0  0  0
   15.5159   11.5988  -13.0567 O   0  0  0  0  0  0  0  0  0  0  0  0
   11.6164   14.1876   -7.6245 C   0  0  1  0  0  0  0  0  0  0  0  0
   10.5951   14.9347   -6.9579 O   0  0  0  0  0  0  0  0  0  0  0  0
   12.0206   20.1481  -15.7485 C   0  0  0  0  0  0  0  0  0  0  0  0
   11.5814   20.8896  -16.9626 N   0  0  0  0  0  0  0  0  0  0  0  0
  1  2  1  1  0  0  0
  1  7  1  0  0  0  0
  1 30  1  0  0  0  0
  3  4  1  1  0  0  0
  3  9  1  0  0  0  0
  3 39  1  0  0  0  0
  5 10  1  0  0  0  0
  5 26  1  0  0  0  0
  5 32  1  1  0  0  0
  6 12  1  0  0  0  0
  6 36  1  0  0  0  0
  6 19  1  1  0  0  0
  7  8  1  1  0  0  0
  7 14  1  0  0  0  0
  9 16  1  0  0  0  0
 10 11  1  6  0  0  0
 10 18  1  0  0  0  0
 12 13  1  1  0  0  0
 12 20  1  0  0  0  0
 14 15  1  6  0  0  0
 14 22  1  0  0  0  0
 16 17  1  6  0  0  0
 16 24  1  0  0  0  0
 18 19  1  1  0  0  0
 18 25  1  0  0  0  0
 20 21  1  6  0  0  0
 20 27  1  0  0  0  0
 22 23  1  1  0  0  0
 22 29  1  0  0  0  0
 24  2  1  6  0  0  0
 24 31  1  0  0  0  0
 25 26  1  0  0  0  0
 25 33  1  1  0  0  0
 27 28  1  1  0  0  0
 27 35  1  0  0  0  0
 29 30  1  0  0  0  0
 29 37  1  6  0  0  0
 31 32  1  6  0  0  0
 31 39  1  0  0  0  0
 33 34  1  0  0  0  0
 35 36  1  0  0  0  0
 35 41  1  1  0  0  0
 37 38  1  0  0  0  0
 39 40  1  1  0  0  0
 41 42  1  0  0  0  0
M  END
>  <CHROM.1>
160.53759581,-122.32687764,128.76051537,-162.68667520,60.83300505,74.33716740
-47.29655497,145.49234870,68.52901818,12.36839632,14.05285610,-11.99407963
-1.60423889,1.18218372,-0.66202636

>  <Name>
ligand

>  <RI>
0

>  <Rbt.Current_Directory>
/home/itssahil/PROJECTS/Mol_Feturizer/Test_systems_manuscript/rnas/2o3w

>  <Rbt.Executable>
rbdock ($Id: //depot/dev/client3/rdock/2013.1/src/exe/rbdock.cxx#4 $)

>  <Rbt.Library>
libRbt.so (2013.1, Build901 2013/11/27)

>  <Rbt.Parameter_File>
/export/apps/rDock/src/rDock_2013.1_src/data/scripts/dock_solv.prm

>  <Rbt.Receptor>
prm/blind_docking_100.prm

>  <SCORE>
10.871

>  <SCORE.INTER>
-0.00884279

>  <SCORE.INTER.CONST>
1

>  <SCORE.INTER.POLAR>
0

>  <SCORE.INTER.ROT>
9

>  <SCORE.INTER.SOLV>
33.2755

>  <SCORE.INTER.VDW>
-20.6977

>  <SCORE.INTER.norm>
-0.000210543

>  <SCORE.INTRA>
1.44319

>  <SCORE.INTRA.DIHEDRAL>
-4.58565

>  <SCORE.INTRA.DIHEDRAL.0>
27.8999

>  <SCORE.INTRA.POLAR>
0

>  <SCORE.INTRA.POLAR.0>
0

>  <SCORE.INTRA.REPUL>
0

>  <SCORE.INTRA.REPUL.0>
0

>  <SCORE.INTRA.SOLV>
-0.36338

>  <SCORE.INTRA.SOLV.lig_0>
-104.479

>  <SCORE.INTRA.VDW>
3.91771

>  <SCORE.INTRA.VDW.0>
-6.17816

>  <SCORE.INTRA.norm>
0.0343617

>  <SCORE.RESTR>
9.43666

>  <SCORE.RESTR.CAVITY>
9.43666

>  <SCORE.RESTR.norm>
0.224682

>  <SCORE.SYSTEM>
0

>  <SCORE.SYSTEM.CONST>
0

>  <SCORE.SYSTEM.DIHEDRAL>
0

>  <SCORE.SYSTEM.SOLV>
0

>  <SCORE.SYSTEM.norm>
0

>  <SCORE.heavy>
42

>  <SCORE.norm>
0.258834

>  <RMSD>
19.827

$$$$
ligand
 OpenBabel02271912133D
libRbt.so/2013.1/901 2013/11/27
 42 45  0  0  0  0  0  0  0  0999 V2000
   10.0823   15.1083  -11.0374 C   0  0  2  0  0  0  0  0  0  0  0  0
   10.7724   15.5185   -9.8447 O   0  0  0  0  0  0  0  0  0  0  0  0
   12.6904   13.5774   -6.4758 C   0  0  2  0  0  0  0  0  0  0  0  0
   13.0259   12.6134   -5.3855 N   0  0  0  0  0  0  0  0  0  0  0  0
   12.9359   11.9383  -10.6525 C   0  0  1  0  0  0  0  0  0  0  0  0
   14.4682    8.1178  -12.0430 C   0  0  1  0  0  0  0  0  0  0  0  0
   10.8503   15.7278  -12.2434 C   0  0  2  0  0  0  0  0  0  0  0  0
   12.2999   15.4723  -12.1800 N   0  0  0  0  0  0  0  0  0  0  0  0
   11.2822   14.2543   -6.2301 C   0  0  0  0  0  0  0  0  0  0  0  0
   12.4259   10.6028  -10.0303 C   0  0  2  0  0  0  0  0  0  0  0  0
   13.0148   10.2891   -8.7443 O   0  0  0  0  0  0  0  0  0  0  0  0
   15.9820    7.6998  -11.9926 C   0  0  2  0  0  0  0  0  0  0  0  0
   16.8687    8.9011  -12.0304 N   0  0  0  0  0  0  0  0  0  0  0  0
   10.6712   17.2548  -12.3280 C   0  0  1  0  0  0  0  0  0  0  0  0
   11.3579   17.7738  -13.4682 O   0  0  0  0  0  0  0  0  0  0  0  0
   10.9954   15.2735   -7.3970 C   0  0  2  0  0  0  0  0  0  0  0  0
    9.6819   15.9410   -7.1899 N   0  0  0  0  0  0  0  0  0  0  0  0
   12.7308    9.6146  -11.1571 C   0  0  2  0  0  0  0  0  0  0  0  0
   14.0690    9.0390  -11.0204 O   0  0  0  0  0  0  0  0  0  0  0  0
   16.2987    6.7121  -13.2138 C   0  0  1  0  0  0  0  0  0  0  0  0
   15.7110    5.4214  -12.9352 O   0  0  0  0  0  0  0  0  0  0  0  0
    9.1642   17.5954  -12.3735 C   0  0  2  0  0  0  0  0  0  0  0  0
    8.9834   18.9893  -12.4680 O   0  0  0  0  0  0  0  0  0  0  0  0
   11.0009   14.5363   -8.7943 C   0  0  2  0  0  0  0  0  0  0  0  0
   12.5974   10.4098  -12.4668 C   0  0  2  0  0  0  0  0  0  0  0  0
   12.9809   11.7280  -12.0825 O   0  0  0  0  0  0  0  0  0  0  0  0
   15.7489    7.2601  -14.6156 C   0  0  2  0  0  0  0  0  0  0  0  0
   16.5331    8.3982  -14.9708 O   0  0  0  0  0  0  0  0  0  0  0  0
    8.4748   17.0344  -11.0852 C   0  0  2  0  0  0  0  0  0  0  0  0
    8.6846   15.5889  -11.0049 O   0  0  0  0  0  0  0  0  0  0  0  0
   12.3296   13.8023   -9.0789 C   0  0  2  0  0  0  0  0  0  0  0  0
   12.0925   13.0409  -10.2949 O   0  0  0  0  0  0  0  0  0  0  0  0
   11.1710   10.4020  -13.0990 C   0  0  0  0  0  0  0  0  0  0  0  0
   10.4258    9.3118  -12.5652 O   0  0  0  0  0  0  0  0  0  0  0  0
   14.2295    7.6598  -14.4988 C   0  0  1  0  0  0  0  0  0  0  0  0
   14.1514    8.6607  -13.4206 O   0  0  0  0  0  0  0  0  0  0  0  0
    6.9909   17.3180  -11.0493 C   0  0  0  0  0  0  0  0  0  0  0  0
    6.4339   16.8352   -9.8510 O   0  0  0  0  0  0  0  0  0  0  0  0
   12.6931   12.8377   -7.8734 C   0  0  1  0  0  0  0  0  0  0  0  0
   13.9935   12.2746   -8.0669 O   0  0  0  0  0  0  0  0  0  0  0  0
   13.6094    8.2473  -15.8400 C   0  0  0  0  0  0  0  0  0  0  0  0
   12.2136    8.7544  -15.7341 N   0  0  0  0  0  0  0  0  0  0  0  0
  1  2  1  1  0  0  0
  1  7  1  0  0  0  0
  1 30  1  0  0  0  0
  3  4  1  1  0  0  0
  3  9  1  0  0  0  0
  3 39  1  0  0  0  0
  5 10  1  0  0  0  0
  5 26  1  0  0  0  0
  5 32  1  6  0  0  0
  6 12  1  0  0  0  0
  6 36  1  0  0  0  0
  6 19  1  1  0  0  0
  7  8  1  1  0  0  0
  7 14  1  0  0  0  0
  9 16  1  0  0  0  0
 10 11  1  1  0  0  0
 10 18  1  0  0  0  0
 12 13  1  6  0  0  0
 12 20  1  0  0  0  0
 14 15  1  6  0  0  0
 14 22  1  0  0  0  0
 16 17  1  1  0  0  0
 16 24  1  0  0  0  0
 18 19  1  1  0  0  0
 18 25  1  0  0  0  0
 20 21  1  1  0  0  0
 20 27  1  0  0  0  0
 22 23  1  1  0  0  0
 22 29  1  0  0  0  0
 24  2  1  6  0  0  0
 24 31  1  0  0  0  0
 25 26  1  0  0  0  0
 25 33  1  1  0  0  0
 27 28  1  1  0  0  0
 27 35  1  0  0  0  0
 29 30  1  0  0  0  0
 29 37  1  6  0  0  0
 31 32  1  6  0  0  0
 31 39  1  0  0  0  0
 33 34  1  0  0  0  0
 35 36  1  0  0  0  0
 35 41  1  6  0  0  0
 37 38  1  0  0  0  0
 39 40  1  6  0  0  0
 41 42  1  0  0  0  0
M  END
>  <CHROM.1>
-136.55072578,-148.82792579,-178.75600328,170.65921210,-19.08695638,-177.89140788
-161.11045030,88.49688907,-174.50673514,12.19436575,12.32576775,-11.18214469
2.66211029,-0.96854348,1.34917381

>  <Name>
ligand

>  <RI>
0

>  <Rbt.Current_Directory>
/home/itssahil/PROJECTS/Mol_Feturizer/Test_systems_manuscript/rnas/2o3w

>  <Rbt.Executable>
rbdock ($Id: //depot/dev/client3/rdock/2013.1/src/exe/rbdock.cxx#4 $)

>  <Rbt.Library>
libRbt.so (2013.1, Build901 2013/11/27)

>  <Rbt.Parameter_File>
/export/apps/rDock/src/rDock_2013.1_src/data/scripts/dock_solv.prm

>  <Rbt.Receptor>
prm/blind_docking_80.prm

>  <SCORE>
13.0494

>  <SCORE.INTER>
-1.49784

>  <SCORE.INTER.CONST>
1

>  <SCORE.INTER.POLAR>
0

>  <SCORE.INTER.ROT>
9

>  <SCORE.INTER.SOLV>
33.9955

>  <SCORE.INTER.VDW>
-21.9304

>  <SCORE.INTER.norm>
-0.0356628

>  <SCORE.INTRA>
2.21607

>  <SCORE.INTRA.DIHEDRAL>
-8.54956

>  <SCORE.INTRA.DIHEDRAL.0>
27.8999

>  <SCORE.INTRA.POLAR>
0

>  <SCORE.INTRA.POLAR.0>
0

>  <SCORE.INTRA.REPUL>
0

>  <SCORE.INTRA.REPUL.0>
0

>  <SCORE.INTRA.SOLV>
-0.129828

>  <SCORE.INTRA.SOLV.lig_0>
-104.479

>  <SCORE.INTRA.VDW>
6.55577

>  <SCORE.INTRA.VDW.0>
-6.17816

>  <SCORE.INTRA.norm>
0.0527636

>  <SCORE.RESTR>
12.3311

>  <SCORE.RESTR.CAVITY>
12.3311

>  <SCORE.RESTR.norm>
0.293599

>  <SCORE.SYSTEM>
0

>  <SCORE.SYSTEM.CONST>
0

>  <SCORE.SYSTEM.DIHEDRAL>
0

>  <SCORE.SYSTEM.SOLV>
0

>  <SCORE.SYSTEM.norm>
0

>  <SCORE.heavy>
42

>  <SCORE.norm>
0.310699

>  <RMSD>
19.828

$$$$
ligand
 OpenBabel02271912133D
libRbt.so/2013.1/901 2013/11/27
 42 45  0  0  0  0  0  0  0  0999 V2000
   11.4796   11.3933  -12.1005 C   0  0  2  0  0  0  0  0  0  0  0  0
   11.0709   10.9702  -10.7886 O   0  0  0  0  0  0  0  0  0  0  0  0
   11.2339   13.1633   -7.0523 C   0  0  2  0  0  0  0  0  0  0  0  0
   11.7270   13.8852   -5.8415 N   0  0  0  0  0  0  0  0  0  0  0  0
   12.0242   15.0436  -11.1602 C   0  0  1  0  0  0  0  0  0  0  0  0
   12.4789   18.2046  -13.9530 C   0  0  1  0  0  0  0  0  0  0  0  0
   11.0529   10.2712  -13.0940 C   0  0  2  0  0  0  0  0  0  0  0  0
    9.6457    9.8704  -12.9213 N   0  0  0  0  0  0  0  0  0  0  0  0
   11.6718   11.6435   -7.0324 C   0  0  0  0  0  0  0  0  0  0  0  0
   12.0318   15.2793  -12.7014 C   0  0  2  0  0  0  0  0  0  0  0  0
   13.3567   15.4306  -13.2679 O   0  0  0  0  0  0  0  0  0  0  0  0
   11.5580   18.0965  -15.2215 C   0  0  2  0  0  0  0  0  0  0  0  0
   11.0628   16.6992  -15.4036 N   0  0  0  0  0  0  0  0  0  0  0  0
   11.9012    8.9960  -12.9346 C   0  0  1  0  0  0  0  0  0  0  0  0
   11.5027    8.0110  -13.8894 O   0  0  0  0  0  0  0  0  0  0  0  0
   11.1051   10.9323   -8.3191 C   0  0  2  0  0  0  0  0  0  0  0  0
   11.4867    9.4943   -8.3259 N   0  0  0  0  0  0  0  0  0  0  0  0
   11.1176   16.4997  -12.8198 C   0  0  2  0  0  0  0  0  0  0  0  0
   11.8746   17.7491  -12.7361 O   0  0  0  0  0  0  0  0  0  0  0  0
   12.3723   18.5909  -16.5097 C   0  0  1  0  0  0  0  0  0  0  0  0
   12.4983   20.0298  -16.4588 O   0  0  0  0  0  0  0  0  0  0  0  0
   13.3984    9.3511  -13.0813 C   0  0  2  0  0  0  0  0  0  0  0  0
   14.1878    8.1913  -12.9545 O   0  0  0  0  0  0  0  0  0  0  0  0
   11.6491   11.6314   -9.6272 C   0  0  2  0  0  0  0  0  0  0  0  0
   10.1041   16.3841  -11.6688 C   0  0  2  0  0  0  0  0  0  0  0  0
   10.8461   15.7120  -10.6538 O   0  0  0  0  0  0  0  0  0  0  0  0
   13.8276   17.9290  -16.6174 C   0  0  2  0  0  0  0  0  0  0  0  0
   13.6504   16.5452  -16.9176 O   0  0  0  0  0  0  0  0  0  0  0  0
   13.7828   10.4039  -11.9888 C   0  0  2  0  0  0  0  0  0  0  0  0
   12.9440   11.5933  -12.1352 O   0  0  0  0  0  0  0  0  0  0  0  0
   11.3067   13.1361   -9.6887 C   0  0  2  0  0  0  0  0  0  0  0  0
   12.0310   13.6458  -10.8420 O   0  0  0  0  0  0  0  0  0  0  0  0
    8.7979   15.6054  -12.0178 C   0  0  0  0  0  0  0  0  0  0  0  0
    9.1391   14.3284  -12.5484 O   0  0  0  0  0  0  0  0  0  0  0  0
   14.6162   18.0967  -15.2638 C   0  0  1  0  0  0  0  0  0  0  0  0
   13.7787   17.4760  -14.2228 O   0  0  0  0  0  0  0  0  0  0  0  0
   15.2351   10.8150  -12.0630 C   0  0  0  0  0  0  0  0  0  0  0  0
   16.0657    9.7125  -11.7914 O   0  0  0  0  0  0  0  0  0  0  0  0
   11.7816   13.8619   -8.3608 C   0  0  1  0  0  0  0  0  0  0  0  0
   11.3311   15.2193   -8.3523 O   0  0  0  0  0  0  0  0  0  0  0  0
   16.0630   17.4369  -15.2711 C   0  0  0  0  0  0  0  0  0  0  0  0
   16.0940   15.9591  -15.4492 N   0  0  0  0  0  0  0  0  0  0  0  0
  1  2  1  1  0  0  0
  1  7  1  0  0  0  0
  1 30  1  0  0  0  0
  3  4  1  1  0  0  0
  3  9  1  0  0  0  0
  3 39  1  0  0  0  0
  5 10  1  0  0  0  0
  5 26  1  0  0  0  0
  5 32  1  6  0  0  0
  6 12  1  0  0  0  0
  6 36  1  0  0  0  0
  6 19  1  1  0  0  0
  7  8  1  1  0  0  0
  7 14  1  0  0  0  0
  9 16  1  0  0  0  0
 10 11  1  1  0  0  0
 10 18  1  0  0  0  0
 12 13  1  6  0  0  0
 12 20  1  0  0  0  0
 14 15  1  6  0  0  0
 14 22  1  0  0  0  0
 16 17  1  6  0  0  0
 16 24  1  0  0  0  0
 18 19  1  1  0  0  0
 18 25  1  0  0  0  0
 20 21  1  1  0  0  0
 20 27  1  0  0  0  0
 22 23  1  1  0  0  0
 22 29  1  0  0  0  0
 24  2  1  6  0  0  0
 24 31  1  0  0  0  0
 25 26  1  0  0  0  0
 25 33  1  6  0  0  0
 27 28  1  1  0  0  0
 27 35  1  0  0  0  0
 29 30  1  0  0  0  0
 29 37  1  6  0  0  0
 31 32  1  6  0  0  0
 31 39  1  0  0  0  0
 33 34  1  0  0  0  0
 35 36  1  0  0  0  0
 35 41  1  6  0  0  0
 37 38  1  0  0  0  0
 39 40  1  6  0  0  0
 41 42  1  0  0  0  0
M  END
>  <CHROM.1>
163.45913714,-176.73484298,83.47265600,43.50499041,53.54088731,-63.98736010
-175.68451924,-144.66601383,-63.03010427,12.27482794,13.88282046,-12.26049050
-1.81258041,1.10129827,-0.37707042

>  <Name>
ligand

>  <RI>
0

>  <Rbt.Current_Directory>
/home/itssahil/PROJECTS/Mol_Feturizer/Test_systems_manuscript/rnas/2o3w

>  <Rbt.Executable>
rbdock ($Id: //depot/dev/client3/rdock/2013.1/src/exe/rbdock.cxx#4 $)

>  <Rbt.Library>
libRbt.so (2013.1, Build901 2013/11/27)

>  <Rbt.Parameter_File>
/export/apps/rDock/src/rDock_2013.1_src/data/scripts/dock_solv.prm

>  <Rbt.Receptor>
prm/blind_docking_100.prm

>  <SCORE>
12.5625

>  <SCORE.INTER>
8.03679

>  <SCORE.INTER.CONST>
1

>  <SCORE.INTER.POLAR>
0

>  <SCORE.INTER.ROT>
9

>  <SCORE.INTER.SOLV>
30.0205

>  <SCORE.INTER.VDW>
-14.249

>  <SCORE.INTER.norm>
0.191352

>  <SCORE.INTRA>
-1.26743

>  <SCORE.INTRA.DIHEDRAL>
-17.8798

>  <SCORE.INTRA.DIHEDRAL.0>
27.8999

>  <SCORE.INTRA.POLAR>
0

>  <SCORE.INTRA.POLAR.0>
0

>  <SCORE.INTRA.REPUL>
0.0322966

>  <SCORE.INTRA.REPUL.0>
0

>  <SCORE.INTRA.SOLV>
1.12897

>  <SCORE.INTRA.SOLV.lig_0>
-104.479

>  <SCORE.INTRA.VDW>
6.94653

>  <SCORE.INTRA.VDW.0>
-6.17816

>  <SCORE.INTRA.norm>
-0.0301768

>  <SCORE.RESTR>
5.7931

>  <SCORE.RESTR.CAVITY>
5.7931

>  <SCORE.RESTR.norm>
0.137931

>  <SCORE.SYSTEM>
0

>  <SCORE.SYSTEM.CONST>
0

>  <SCORE.SYSTEM.DIHEDRAL>
0

>  <SCORE.SYSTEM.SOLV>
0

>  <SCORE.SYSTEM.norm>
0

>  <SCORE.heavy>
42

>  <SCORE.norm>
0.299106

>  <RMSD>
19.913

$$$$
ligand
 OpenBabel02271912133D
libRbt.so/2013.1/901 2013/11/27
 42 45  0  0  0  0  0  0  0  0999 V2000
   10.2526   15.1529  -10.7187 C   0  0  2  0  0  0  0  0  0  0  0  0
   11.2841   15.2573   -9.7226 O   0  0  0  0  0  0  0  0  0  0  0  0
   12.8275   13.0745   -6.3094 C   0  0  2  0  0  0  0  0  0  0  0  0
   13.0059   12.0670   -5.2216 N   0  0  0  0  0  0  0  0  0  0  0  0
   13.1499   11.5455  -10.5650 C   0  0  1  0  0  0  0  0  0  0  0  0
   14.5854    7.7782  -12.2547 C   0  0  1  0  0  0  0  0  0  0  0  0
   10.9643   15.0250  -12.0990 C   0  0  2  0  0  0  0  0  0  0  0  0
   12.0114   13.9885  -12.0996 N   0  0  0  0  0  0  0  0  0  0  0  0
   11.4959   13.9046   -6.1103 C   0  0  0  0  0  0  0  0  0  0  0  0
   12.4918   10.1812  -10.1959 C   0  0  2  0  0  0  0  0  0  0  0  0
   12.8987    9.6602   -8.9067 O   0  0  0  0  0  0  0  0  0  0  0  0
   16.1122    7.4094  -12.2151 C   0  0  2  0  0  0  0  0  0  0  0  0
   16.9582    8.6403  -12.2014 N   0  0  0  0  0  0  0  0  0  0  0  0
   11.6393   16.3393  -12.5324 C   0  0  1  0  0  0  0  0  0  0  0  0
   12.2436   16.1878  -13.8180 O   0  0  0  0  0  0  0  0  0  0  0  0
   11.3753   14.9622   -7.2720 C   0  0  2  0  0  0  0  0  0  0  0  0
   10.1383   15.7724   -7.1077 N   0  0  0  0  0  0  0  0  0  0  0  0
   12.8767    9.3287  -11.4061 C   0  0  2  0  0  0  0  0  0  0  0  0
   14.1529    8.6440  -11.1978 O   0  0  0  0  0  0  0  0  0  0  0  0
   16.4650    6.4825  -13.4734 C   0  0  1  0  0  0  0  0  0  0  0  0
   15.9203    5.1628  -13.2489 O   0  0  0  0  0  0  0  0  0  0  0  0
   10.5961   17.4799  -12.5300 C   0  0  2  0  0  0  0  0  0  0  0  0
   11.1947   18.6871  -12.9408 O   0  0  0  0  0  0  0  0  0  0  0  0
   11.3558   14.2442   -8.6791 C   0  0  2  0  0  0  0  0  0  0  0  0
   12.9514   10.2955  -12.5998 C   0  0  2  0  0  0  0  0  0  0  0  0
   13.3590   11.5208  -11.9956 O   0  0  0  0  0  0  0  0  0  0  0  0
   15.9008    7.0674  -14.8544 C   0  0  2  0  0  0  0  0  0  0  0  0
   16.6473    8.2443  -15.1609 O   0  0  0  0  0  0  0  0  0  0  0  0
    9.9973   17.6212  -11.0909 C   0  0  2  0  0  0  0  0  0  0  0  0
    9.3909   16.3537  -10.6839 O   0  0  0  0  0  0  0  0  0  0  0  0
   12.6036   13.3671   -8.9212 C   0  0  2  0  0  0  0  0  0  0  0  0
   12.3330   12.6507  -10.1573 O   0  0  0  0  0  0  0  0  0  0  0  0
   11.6159   10.4745  -13.3863 C   0  0  0  0  0  0  0  0  0  0  0  0
   10.9236    9.2304  -13.4273 O   0  0  0  0  0  0  0  0  0  0  0  0
   14.3685    7.4111  -14.7277 C   0  0  1  0  0  0  0  0  0  0  0  0
   14.2541    8.3649  -13.6108 O   0  0  0  0  0  0  0  0  0  0  0  0
    8.9585   18.7148  -10.9981 C   0  0  0  0  0  0  0  0  0  0  0  0
    7.8245   18.3720  -11.7570 O   0  0  0  0  0  0  0  0  0  0  0  0
   12.8049   12.3545   -7.7171 C   0  0  1  0  0  0  0  0  0  0  0  0
   14.0402   11.6493   -7.8667 O   0  0  0  0  0  0  0  0  0  0  0  0
   13.7325    8.0307  -16.0469 C   0  0  0  0  0  0  0  0  0  0  0  0
   13.7528    7.1478  -17.2455 N   0  0  0  0  0  0  0  0  0  0  0  0
  1  2  1  1  0  0  0
  1  7  1  0  0  0  0
  1 30  1  0  0  0  0
  3  4  1  1  0  0  0
  3  9  1  0  0  0  0
  3 39  1  0  0  0  0
  5 10  1  0  0  0  0
  5 26  1  0  0  0  0
  5 32  1  6  0  0  0
  6 12  1  0  0  0  0
  6 36  1  0  0  0  0
  6 19  1  1  0  0  0
  7  8  1  1  0  0  0
  7 14  1  0  0  0  0
  9 16  1  0  0  0  0
 10 11  1  1  0  0  0
 10 18  1  0  0  0  0
 12 13  1  6  0  0  0
 12 20  1  0  0  0  0
 14 15  1  6  0  0  0
 14 22  1  0  0  0  0
 16 17  1  1  0  0  0
 16 24  1  0  0  0  0
 18 19  1  1  0  0  0
 18 25  1  0  0  0  0
 20 21  1  1  0  0  0
 20 27  1  0  0  0  0
 22 23  1  1  0  0  0
 22 29  1  0  0  0  0
 24  2  1  6  0  0  0
 24 31  1  0  0  0  0
 25 26  1  0  0  0  0
 25 33  1  1  0  0  0
 27 28  1  1  0  0  0
 27 35  1  0  0  0  0
 29 30  1  0  0  0  0
 29 37  1  6  0  0  0
 31 32  1  6  0  0  0
 31 39  1  0  0  0  0
 33 34  1  0  0  0  0
 35 36  1  0  0  0  0
 35 41  1  6  0  0  0
 37 38  1  0  0  0  0
 39 40  1  6  0  0  0
 41 42  1  0  0  0  0
M  END
>  <CHROM.1>
-119.64298094,-127.38028934,177.85797765,162.29456288,-36.30292155,66.73692071
-167.59325474,98.61489045,62.29866171,12.64644156,12.05145720,-11.33964538
2.74143050,-1.08747235,1.50728113

>  <Name>
ligand

>  <RI>
0

>  <Rbt.Current_Directory>
/home/itssahil/PROJECTS/Mol_Feturizer/Test_systems_manuscript/rnas/2o3w

>  <Rbt.Executable>
rbdock ($Id: //depot/dev/client3/rdock/2013.1/src/exe/rbdock.cxx#4 $)

>  <Rbt.Library>
libRbt.so (2013.1, Build901 2013/11/27)

>  <Rbt.Parameter_File>
/export/apps/rDock/src/rDock_2013.1_src/data/scripts/dock_solv.prm

>  <Rbt.Receptor>
prm/blind_docking_80.prm

>  <SCORE>
15.3383

>  <SCORE.INTER>
-1.24491

>  <SCORE.INTER.CONST>
1

>  <SCORE.INTER.POLAR>
0

>  <SCORE.INTER.ROT>
9

>  <SCORE.INTER.SOLV>
30.6386

>  <SCORE.INTER.VDW>
-20.6428

>  <SCORE.INTER.norm>
-0.0296407

>  <SCORE.INTRA>
3.3073

>  <SCORE.INTRA.DIHEDRAL>
-4.41941

>  <SCORE.INTRA.DIHEDRAL.0>
27.8999

>  <SCORE.INTRA.POLAR>
0

>  <SCORE.INTRA.POLAR.0>
0

>  <SCORE.INTRA.REPUL>
0

>  <SCORE.INTRA.REPUL.0>
0

>  <SCORE.INTRA.SOLV>
0.901244

>  <SCORE.INTRA.SOLV.lig_0>
-104.479

>  <SCORE.INTRA.VDW>
5.06638

>  <SCORE.INTRA.VDW.0>
-6.17816

>  <SCORE.INTRA.norm>
0.0787452

>  <SCORE.RESTR>
13.2759

>  <SCORE.RESTR.CAVITY>
13.2759

>  <SCORE.RESTR.norm>
0.316094

>  <SCORE.SYSTEM>
0

>  <SCORE.SYSTEM.CONST>
0

>  <SCORE.SYSTEM.DIHEDRAL>
0

>  <SCORE.SYSTEM.SOLV>
0

>  <SCORE.SYSTEM.norm>
0

>  <SCORE.heavy>
42

>  <SCORE.norm>
0.365198

>  <RMSD>
19.959

$$$$
ligand
 OpenBabel02271912133D
libRbt.so/2013.1/901 2013/11/27
 42 45  0  0  0  0  0  0  0  0999 V2000
   11.7901   11.7972   -7.8360 C   0  0  2  0  0  0  0  0  0  0  0  0
   12.2711   12.2497   -9.1131 O   0  0  0  0  0  0  0  0  0  0  0  0
   14.0546    9.7753  -12.1941 C   0  0  2  0  0  0  0  0  0  0  0  0
   14.2414    8.8294  -13.3347 N   0  0  0  0  0  0  0  0  0  0  0  0
   11.9525   13.7780  -13.0058 C   0  0  1  0  0  0  0  0  0  0  0  0
   11.9430   16.8873  -15.8559 C   0  0  1  0  0  0  0  0  0  0  0  0
   11.0118   12.9857   -7.1957 C   0  0  2  0  0  0  0  0  0  0  0  0
   10.0265   13.5765   -8.1180 N   0  0  0  0  0  0  0  0  0  0  0  0
   13.4190    9.0467  -10.9424 C   0  0  0  0  0  0  0  0  0  0  0  0
   10.5605   14.2897  -13.4865 C   0  0  2  0  0  0  0  0  0  0  0  0
    9.9239   13.4331  -14.4664 O   0  0  0  0  0  0  0  0  0  0  0  0
   13.2618   16.6174  -16.6663 C   0  0  2  0  0  0  0  0  0  0  0  0
   14.2194   15.7946  -15.8681 N   0  0  0  0  0  0  0  0  0  0  0  0
   11.9472   14.1263   -6.7540 C   0  0  1  0  0  0  0  0  0  0  0  0
   11.1970   15.1745   -6.1382 O   0  0  0  0  0  0  0  0  0  0  0  0
   13.2680   10.0870   -9.7687 C   0  0  2  0  0  0  0  0  0  0  0  0
   12.6851    9.4308   -8.5674 N   0  0  0  0  0  0  0  0  0  0  0  0
   10.9117   15.6986  -13.9672 C   0  0  2  0  0  0  0  0  0  0  0  0
   11.2810   15.7076  -15.3830 O   0  0  0  0  0  0  0  0  0  0  0  0
   13.9184   18.0164  -17.0888 C   0  0  1  0  0  0  0  0  0  0  0  0
   13.1307   18.6003  -18.1507 O   0  0  0  0  0  0  0  0  0  0  0  0
   13.0259   13.5677   -5.7982 C   0  0  2  0  0  0  0  0  0  0  0  0
   13.8805   14.6029   -5.3713 O   0  0  0  0  0  0  0  0  0  0  0  0
   12.3510   11.2954  -10.2101 C   0  0  2  0  0  0  0  0  0  0  0  0
   12.0792   16.1697  -13.0838 C   0  0  2  0  0  0  0  0  0  0  0  0
   12.7604   14.9554  -12.7776 O   0  0  0  0  0  0  0  0  0  0  0  0
   14.0216   19.0490  -15.8680 C   0  0  2  0  0  0  0  0  0  0  0  0
   15.0021   18.5470  -14.9608 O   0  0  0  0  0  0  0  0  0  0  0  0
   13.8359   12.4519   -6.5389 C   0  0  2  0  0  0  0  0  0  0  0  0
   12.9264   11.3946   -6.9801 O   0  0  0  0  0  0  0  0  0  0  0  0
   12.8815   12.0224  -11.4652 C   0  0  2  0  0  0  0  0  0  0  0  0
   11.8369   12.9659  -11.8302 O   0  0  0  0  0  0  0  0  0  0  0  0
   11.6585   16.9209  -11.7826 C   0  0  0  0  0  0  0  0  0  0  0  0
   10.4504   17.6363  -12.0221 O   0  0  0  0  0  0  0  0  0  0  0  0
   12.6305   19.1929  -15.1426 C   0  0  1  0  0  0  0  0  0  0  0  0
   12.2492   17.8355  -14.7157 O   0  0  0  0  0  0  0  0  0  0  0  0
   14.9132   11.8427   -5.6718 C   0  0  0  0  0  0  0  0  0  0  0  0
   15.7980   11.0836   -6.4593 O   0  0  0  0  0  0  0  0  0  0  0  0
   13.1341   10.9827  -12.6361 C   0  0  1  0  0  0  0  0  0  0  0  0
   13.7659   11.6308  -13.7436 O   0  0  0  0  0  0  0  0  0  0  0  0
   12.6503   20.1767  -13.8933 C   0  0  0  0  0  0  0  0  0  0  0  0
   11.5466   19.9904  -12.9117 N   0  0  0  0  0  0  0  0  0  0  0  0
  1  2  1  6  0  0  0
  1  7  1  0  0  0  0
  1 30  1  0  0  0  0
  3  4  1  6  0  0  0
  3  9  1  0  0  0  0
  3 39  1  0  0  0  0
  5 10  1  0  0  0  0
  5 26  1  0  0  0  0
  5 32  1  1  0  0  0
  6 12  1  0  0  0  0
  6 36  1  0  0  0  0
  6 19  1  1  0  0  0
  7  8  1  6  0  0  0
  7 14  1  0  0  0  0
  9 16  1  0  0  0  0
 10 11  1  6  0  0  0
 10 18  1  0  0  0  0
 12 13  1  1  0  0  0
 12 20  1  0  0  0  0
 14 15  1  1  0  0  0
 14 22  1  0  0  0  0
 16 17  1  1  0  0  0
 16 24  1  0  0  0  0
 18 19  1  6  0  0  0
 18 25  1  0  0  0  0
 20 21  1  6  0  0  0
 20 27  1  0  0  0  0
 22 23  1  6  0  0  0
 22 29  1  0  0  0  0
 24  2  1  1  0  0  0
 24 31  1  0  0  0  0
 25 26  1  0  0  0  0
 25 33  1  1  0  0  0
 27 28  1  1  0  0  0
 27 35  1  0  0  0  0
 29 30  1  0  0  0  0
 29 37  1  1  0  0  0
 31 32  1  6  0  0  0
 31 39  1  0  0  0  0
 33 34  1  0  0  0  0
 35 36  1  0  0  0  0
 35 41  1  1  0  0  0
 37 38  1  0  0  0  0
 39 40  1  6  0  0  0
 41 42  1  0  0  0  0
M  END
>  <CHROM.1>
-146.14934315,-57.15540194,-164.93249298,130.14779629,-31.98331005,-166.47185223
-176.70790755,158.68699331,-159.36021599,12.63010728,14.31458698,-11.60523906
1.30048892,-1.41482173,1.95990060

>  <Name>
ligand

>  <RI>
0

>  <Rbt.Current_Directory>
/home/itssahil/PROJECTS/Mol_Feturizer/Test_systems_manuscript/rnas/2o3w

>  <Rbt.Executable>
rbdock ($Id: //depot/dev/client3/rdock/2013.1/src/exe/rbdock.cxx#4 $)

>  <Rbt.Library>
libRbt.so (2013.1, Build901 2013/11/27)

>  <Rbt.Parameter_File>
/export/apps/rDock/src/rDock_2013.1_src/data/scripts/dock_solv.prm

>  <Rbt.Receptor>
prm/blind_docking_100.prm

>  <SCORE>
13.8464

>  <SCORE.INTER>
-3.28052

>  <SCORE.INTER.CONST>
1

>  <SCORE.INTER.POLAR>
0

>  <SCORE.INTER.ROT>
9

>  <SCORE.INTER.SOLV>
19.609

>  <SCORE.INTER.VDW>
-18.3233

>  <SCORE.INTER.norm>
-0.0781077

>  <SCORE.INTRA>
6.35876

>  <SCORE.INTRA.DIHEDRAL>
-9.30317

>  <SCORE.INTRA.DIHEDRAL.0>
27.8999

>  <SCORE.INTRA.POLAR>
0

>  <SCORE.INTRA.POLAR.0>
0

>  <SCORE.INTRA.REPUL>
0

>  <SCORE.INTRA.REPUL.0>
0

>  <SCORE.INTRA.SOLV>
1.98236

>  <SCORE.INTRA.SOLV.lig_0>
-104.479

>  <SCORE.INTRA.VDW>
10.0192

>  <SCORE.INTRA.VDW.0>
-6.17816

>  <SCORE.INTRA.norm>
0.151399

>  <SCORE.RESTR>
10.7681

>  <SCORE.RESTR.CAVITY>
10.7681

>  <SCORE.RESTR.norm>
0.256384

>  <SCORE.SYSTEM>
0

>  <SCORE.SYSTEM.CONST>
0

>  <SCORE.SYSTEM.DIHEDRAL>
0

>  <SCORE.SYSTEM.SOLV>
0

>  <SCORE.SYSTEM.norm>
0

>  <SCORE.heavy>
42

>  <SCORE.norm>
0.329675

>  <RMSD>
20.000

$$$$
ligand
 OpenBabel02271912133D
libRbt.so/2013.1/901 2013/11/27
 42 45  0  0  0  0  0  0  0  0999 V2000
   10.4109   14.8227  -11.2618 C   0  0  2  0  0  0  0  0  0  0  0  0
   11.0664   15.1600  -10.0273 O   0  0  0  0  0  0  0  0  0  0  0  0
   12.4401   12.8136   -6.6504 C   0  0  2  0  0  0  0  0  0  0  0  0
   12.4998   11.8438   -5.5163 N   0  0  0  0  0  0  0  0  0  0  0  0
   12.1942   11.6430  -11.3171 C   0  0  1  0  0  0  0  0  0  0  0  0
   14.6014    8.2991  -13.1563 C   0  0  1  0  0  0  0  0  0  0  0  0
   11.0554   15.7028  -12.3745 C   0  0  2  0  0  0  0  0  0  0  0  0
   12.5276   15.6481  -12.3545 N   0  0  0  0  0  0  0  0  0  0  0  0
   11.3893   13.9619   -6.3690 C   0  0  0  0  0  0  0  0  0  0  0  0
   13.0329   10.5305  -10.6172 C   0  0  2  0  0  0  0  0  0  0  0  0
   14.3534   10.9600  -10.2041 O   0  0  0  0  0  0  0  0  0  0  0  0
   15.9331    7.7691  -12.5123 C   0  0  2  0  0  0  0  0  0  0  0  0
   17.0089    8.8028  -12.5848 N   0  0  0  0  0  0  0  0  0  0  0  0
   10.6637   17.1864  -12.2463 C   0  0  1  0  0  0  0  0  0  0  0  0
   11.2433   17.9473  -13.3074 O   0  0  0  0  0  0  0  0  0  0  0  0
   11.3882   14.9621   -7.5864 C   0  0  2  0  0  0  0  0  0  0  0  0
   10.4192   16.0657   -7.3484 N   0  0  0  0  0  0  0  0  0  0  0  0
   12.9964    9.4233  -11.6718 C   0  0  2  0  0  0  0  0  0  0  0  0
   14.1196    9.5302  -12.6032 O   0  0  0  0  0  0  0  0  0  0  0  0
   16.3793    6.4211  -13.2544 C   0  0  1  0  0  0  0  0  0  0  0  0
   15.5015    5.3490  -12.8433 O   0  0  0  0  0  0  0  0  0  0  0  0
    9.1233   17.3139  -12.2365 C   0  0  2  0  0  0  0  0  0  0  0  0
    8.7481   18.6680  -12.1365 O   0  0  0  0  0  0  0  0  0  0  0  0
   11.0166   14.2099   -8.9250 C   0  0  2  0  0  0  0  0  0  0  0  0
   11.6511    9.5761  -12.4013 C   0  0  2  0  0  0  0  0  0  0  0  0
   11.4047   10.9785  -12.3302 O   0  0  0  0  0  0  0  0  0  0  0  0
   16.3537    6.5523  -14.8512 C   0  0  2  0  0  0  0  0  0  0  0  0
   17.4085    7.4366  -15.2278 O   0  0  0  0  0  0  0  0  0  0  0  0
    8.5505   16.4911  -11.0346 C   0  0  2  0  0  0  0  0  0  0  0  0
    8.9611   15.0924  -11.1559 O   0  0  0  0  0  0  0  0  0  0  0  0
   11.9699   13.0353   -9.2363 C   0  0  2  0  0  0  0  0  0  0  0  0
   11.3788   12.3559  -10.3780 O   0  0  0  0  0  0  0  0  0  0  0  0
   10.4703    8.7667  -11.7809 C   0  0  0  0  0  0  0  0  0  0  0  0
   10.9642    7.5337  -11.2664 O   0  0  0  0  0  0  0  0  0  0  0  0
   14.9670    7.1182  -15.3402 C   0  0  1  0  0  0  0  0  0  0  0  0
   14.7875    8.4099  -14.6550 O   0  0  0  0  0  0  0  0  0  0  0  0
    7.0429   16.5549  -10.9521 C   0  0  0  0  0  0  0  0  0  0  0  0
    6.6119   17.8938  -10.9826 O   0  0  0  0  0  0  0  0  0  0  0  0
   12.0650   12.0601   -7.9891 C   0  0  1  0  0  0  0  0  0  0  0  0
   13.0601   11.0591   -8.2202 O   0  0  0  0  0  0  0  0  0  0  0  0
   14.8660    7.3128  -16.9152 C   0  0  0  0  0  0  0  0  0  0  0  0
   16.0771    7.8779  -17.5714 N   0  0  0  0  0  0  0  0  0  0  0  0
  1  2  1  1  0  0  0
  1  7  1  0  0  0  0
  1 30  1  0  0  0  0
  3  4  1  1  0  0  0
  3  9  1  0  0  0  0
  3 39  1  0  0  0  0
  5 10  1  0  0  0  0
  5 26  1  0  0  0  0
  5 32  1  1  0  0  0
  6 12  1  0  0  0  0
  6 36  1  0  0  0  0
  6 19  1  1  0  0  0
  7  8  1  1  0  0  0
  7 14  1  0  0  0  0
  9 16  1  0  0  0  0
 10 11  1  6  0  0  0
 10 18  1  0  0  0  0
 12 13  1  6  0  0  0
 12 20  1  0  0  0  0
 14 15  1  6  0  0  0
 14 22  1  0  0  0  0
 16 17  1  1  0  0  0
 16 24  1  0  0  0  0
 18 19  1  6  0  0  0
 18 25  1  0  0  0  0
 20 21  1  6  0  0  0
 20 27  1  0  0  0  0
 22 23  1  1  0  0  0
 22 29  1  0  0  0  0
 24  2  1  6  0  0  0
 24 31  1  0  0  0  0
 25 26  1  0  0  0  0
 25 33  1  1  0  0  0
 27 28  1  1  0  0  0
 27 35  1  0  0  0  0
 29 30  1  0  0  0  0
 29 37  1  6  0  0  0
 31 32  1  6  0  0  0
 31 39  1  0  0  0  0
 33 34  1  0  0  0  0
 35 36  1  0  0  0  0
 35 41  1  6  0  0  0
 37 38  1  0  0  0  0
 39 40  1  6  0  0  0
 41 42  1  0  0  0  0
M  END
>  <CHROM.1>
-159.00149830,-162.46077136,149.31825396,-102.84758044,-35.12097173,-51.66478215
151.40178576,57.63544456,-41.35374489,12.33535772,11.93756720,-11.48315063
2.90475915,-1.01518557,1.69703262

>  <Name>
ligand

>  <RI>
0

>  <Rbt.Current_Directory>
/home/itssahil/PROJECTS/Mol_Feturizer/Test_systems_manuscript/rnas/2o3w

>  <Rbt.Executable>
rbdock ($Id: //depot/dev/client3/rdock/2013.1/src/exe/rbdock.cxx#4 $)

>  <Rbt.Library>
libRbt.so (2013.1, Build901 2013/11/27)

>  <Rbt.Parameter_File>
/export/apps/rDock/src/rDock_2013.1_src/data/scripts/dock_solv.prm

>  <Rbt.Receptor>
prm/blind_docking_80.prm

>  <SCORE>
37.7223

>  <SCORE.INTER>
22.0618

>  <SCORE.INTER.CONST>
1

>  <SCORE.INTER.POLAR>
0

>  <SCORE.INTER.ROT>
9

>  <SCORE.INTER.SOLV>
31.7379

>  <SCORE.INTER.VDW>
-5.47141

>  <SCORE.INTER.norm>
0.525282

>  <SCORE.INTRA>
1.56144

>  <SCORE.INTRA.DIHEDRAL>
-8.24163

>  <SCORE.INTRA.DIHEDRAL.0>
27.8999

>  <SCORE.INTRA.POLAR>
0

>  <SCORE.INTRA.POLAR.0>
0

>  <SCORE.INTRA.REPUL>
0

>  <SCORE.INTRA.REPUL.0>
0

>  <SCORE.INTRA.SOLV>
-2.42856

>  <SCORE.INTRA.SOLV.lig_0>
-104.479

>  <SCORE.INTRA.VDW>
6.89653

>  <SCORE.INTRA.VDW.0>
-6.17816

>  <SCORE.INTRA.norm>
0.0371771

>  <SCORE.RESTR>
14.0991

>  <SCORE.RESTR.CAVITY>
14.0991

>  <SCORE.RESTR.norm>
0.335692

>  <SCORE.SYSTEM>
0

>  <SCORE.SYSTEM.CONST>
0

>  <SCORE.SYSTEM.DIHEDRAL>
0

>  <SCORE.SYSTEM.SOLV>
0

>  <SCORE.SYSTEM.norm>
0

>  <SCORE.heavy>
42

>  <SCORE.norm>
0.898151

>  <RMSD>
20.010

$$$$
ligand
 OpenBabel02271912133D
libRbt.so/2013.1/901 2013/11/27
 42 45  0  0  0  0  0  0  0  0999 V2000
   12.4540   11.2352  -11.5100 C   0  0  2  0  0  0  0  0  0  0  0  0
   12.5207   11.1505  -10.0762 O   0  0  0  0  0  0  0  0  0  0  0  0
   11.1922   13.8945   -6.9938 C   0  0  2  0  0  0  0  0  0  0  0  0
   11.0116   15.1123   -6.1483 N   0  0  0  0  0  0  0  0  0  0  0  0
   11.6000   14.5523  -11.3251 C   0  0  1  0  0  0  0  0  0  0  0  0
   12.6142   17.1782  -14.4560 C   0  0  1  0  0  0  0  0  0  0  0  0
   11.8575    9.8883  -12.0181 C   0  0  2  0  0  0  0  0  0  0  0  0
   10.6236    9.5137  -11.3054 N   0  0  0  0  0  0  0  0  0  0  0  0
   12.6729   13.3460   -6.9014 C   0  0  0  0  0  0  0  0  0  0  0  0
   11.1033   14.9617  -12.7451 C   0  0  2  0  0  0  0  0  0  0  0  0
   11.8893   14.4053  -13.8275 O   0  0  0  0  0  0  0  0  0  0  0  0
   13.5413   16.0758  -15.0837 C   0  0  2  0  0  0  0  0  0  0  0  0
   14.8600   16.0262  -14.3840 N   0  0  0  0  0  0  0  0  0  0  0  0
   12.8403    8.7146  -11.8528 C   0  0  1  0  0  0  0  0  0  0  0  0
   12.2683    7.5107  -12.3668 O   0  0  0  0  0  0  0  0  0  0  0  0
   12.7946   12.0529   -7.7933 C   0  0  2  0  0  0  0  0  0  0  0  0
   14.1741   11.5006   -7.7183 N   0  0  0  0  0  0  0  0  0  0  0  0
   11.1140   16.4872  -12.6351 C   0  0  2  0  0  0  0  0  0  0  0  0
   12.4022   17.0471  -13.0448 O   0  0  0  0  0  0  0  0  0  0  0  0
   13.7300   16.3711  -16.6470 C   0  0  1  0  0  0  0  0  0  0  0  0
   12.5043   16.0378  -17.3367 O   0  0  0  0  0  0  0  0  0  0  0  0
   14.1720    9.0537  -12.5605 C   0  0  2  0  0  0  0  0  0  0  0  0
   15.0772    7.9819  -12.4328 O   0  0  0  0  0  0  0  0  0  0  0  0
   12.4346   12.3776   -9.2969 C   0  0  2  0  0  0  0  0  0  0  0  0
   10.8098   16.8087  -11.1622 C   0  0  2  0  0  0  0  0  0  0  0  0
   11.3651   15.6937  -10.4688 O   0  0  0  0  0  0  0  0  0  0  0  0
   14.1176   17.8961  -16.9496 C   0  0  2  0  0  0  0  0  0  0  0  0
   15.4438   18.1076  -16.4670 O   0  0  0  0  0  0  0  0  0  0  0  0
   14.7667   10.3578  -11.9318 C   0  0  2  0  0  0  0  0  0  0  0  0
   13.8057   11.4522  -12.0682 O   0  0  0  0  0  0  0  0  0  0  0  0
   11.0184   12.9721   -9.4587 C   0  0  2  0  0  0  0  0  0  0  0  0
   10.9306   13.3758  -10.8529 O   0  0  0  0  0  0  0  0  0  0  0  0
    9.2962   16.9819  -10.8254 C   0  0  0  0  0  0  0  0  0  0  0  0
    8.5705   15.8669  -11.3342 O   0  0  0  0  0  0  0  0  0  0  0  0
   13.1140   18.8773  -16.2339 C   0  0  1  0  0  0  0  0  0  0  0  0
   13.1691   18.5446  -14.7999 O   0  0  0  0  0  0  0  0  0  0  0  0
   16.0728   10.7685  -12.5715 C   0  0  0  0  0  0  0  0  0  0  0  0
   16.2311   12.1645  -12.4974 O   0  0  0  0  0  0  0  0  0  0  0  0
   10.8346   14.2215   -8.4990 C   0  0  1  0  0  0  0  0  0  0  0  0
    9.4796   14.6775   -8.5367 O   0  0  0  0  0  0  0  0  0  0  0  0
   13.4455   20.4168  -16.4541 C   0  0  0  0  0  0  0  0  0  0  0  0
   13.4430   20.8783  -17.8696 N   0  0  0  0  0  0  0  0  0  0  0  0
  1  2  1  1  0  0  0
  1  7  1  0  0  0  0
  1 30  1  0  0  0  0
  3  4  1  1  0  0  0
  3  9  1  0  0  0  0
  3 39  1  0  0  0  0
  5 10  1  0  0  0  0
  5 26  1  0  0  0  0
  5 32  1  1  0  0  0
  6 12  1  0  0  0  0
  6 36  1  0  0  0  0
  6 19  1  1  0  0  0
  7  8  1  1  0  0  0
  7 14  1  0  0  0  0
  9 16  1  0  0  0  0
 10 11  1  6  0  0  0
 10 18  1  0  0  0  0
 12 13  1  1  0  0  0
 12 20  1  0  0  0  0
 14 15  1  6  0  0  0
 14 22  1  0  0  0  0
 16 17  1  6  0  0  0
 16 24  1  0  0  0  0
 18 19  1  1  0  0  0
 18 25  1  0  0  0  0
 20 21  1  6  0  0  0
 20 27  1  0  0  0  0
 22 23  1  1  0  0  0
 22 29  1  0  0  0  0
 24  2  1  6  0  0  0
 24 31  1  0  0  0  0
 25 26  1  0  0  0  0
 25 33  1  6  0  0  0
 27 28  1  1  0  0  0
 27 35  1  0  0  0  0
 29 30  1  0  0  0  0
 29 37  1  6  0  0  0
 31 32  1  6  0  0  0
 31 39  1  0  0  0  0
 33 34  1  0  0  0  0
 35 36  1  0  0  0  0
 35 41  1  1  0  0  0
 37 38  1  0  0  0  0
 39 40  1  1  0  0  0
 41 42  1  0  0  0  0
M  END
>  <CHROM.1>
-151.92119389,-169.75573417,80.29146300,-102.68310031,50.50574491,151.03225059
-75.06147870,-166.86706339,59.87614781,12.56001245,14.10327066,-12.15264113
-1.69110105,1.00059996,-0.57108955

>  <Name>
ligand

>  <RI>
0

>  <Rbt.Current_Directory>
/home/itssahil/PROJECTS/Mol_Feturizer/Test_systems_manuscript/rnas/2o3w

>  <Rbt.Executable>
rbdock ($Id: //depot/dev/client3/rdock/2013.1/src/exe/rbdock.cxx#4 $)

>  <Rbt.Library>
libRbt.so (2013.1, Build901 2013/11/27)

>  <Rbt.Parameter_File>
/export/apps/rDock/src/rDock_2013.1_src/data/scripts/dock_solv.prm

>  <Rbt.Receptor>
prm/blind_docking_100.prm

>  <SCORE>
10.4667

>  <SCORE.INTER>
2.56718

>  <SCORE.INTER.CONST>
1

>  <SCORE.INTER.POLAR>
0

>  <SCORE.INTER.ROT>
9

>  <SCORE.INTER.SOLV>
31.3741

>  <SCORE.INTER.VDW>
-18.3466

>  <SCORE.INTER.norm>
0.0611233

>  <SCORE.INTRA>
-2.37809

>  <SCORE.INTRA.DIHEDRAL>
-11.7588

>  <SCORE.INTRA.DIHEDRAL.0>
27.8999

>  <SCORE.INTRA.POLAR>
0

>  <SCORE.INTRA.POLAR.0>
0

>  <SCORE.INTRA.REPUL>
0

>  <SCORE.INTRA.REPUL.0>
0

>  <SCORE.INTRA.SOLV>
-2.63058

>  <SCORE.INTRA.SOLV.lig_0>
-104.479

>  <SCORE.INTRA.VDW>
4.81662

>  <SCORE.INTRA.VDW.0>
-6.17816

>  <SCORE.INTRA.norm>
-0.0566211

>  <SCORE.RESTR>
10.2777

>  <SCORE.RESTR.CAVITY>
10.2777

>  <SCORE.RESTR.norm>
0.244706

>  <SCORE.SYSTEM>
0

>  <SCORE.SYSTEM.CONST>
0

>  <SCORE.SYSTEM.DIHEDRAL>
0

>  <SCORE.SYSTEM.SOLV>
0

>  <SCORE.SYSTEM.norm>
0

>  <SCORE.heavy>
42

>  <SCORE.norm>
0.249208

>  <RMSD>
20.085

$$$$
ligand
 OpenBabel02271912133D
libRbt.so/2013.1/901 2013/11/27
 42 45  0  0  0  0  0  0  0  0999 V2000
   10.2879   17.0644  -13.3716 C   0  0  2  0  0  0  0  0  0  0  0  0
   10.3814   16.8515  -11.9528 O   0  0  0  0  0  0  0  0  0  0  0  0
    7.3319   17.4098   -8.9221 C   0  0  2  0  0  0  0  0  0  0  0  0
    6.1174   17.2361   -8.0705 N   0  0  0  0  0  0  0  0  0  0  0  0
   11.4468   14.6774   -9.2214 C   0  0  1  0  0  0  0  0  0  0  0  0
   14.4787   12.9223   -6.3839 C   0  0  1  0  0  0  0  0  0  0  0  0
   11.2134   16.0113  -14.0517 C   0  0  2  0  0  0  0  0  0  0  0  0
   10.9720   14.6449  -13.5563 N   0  0  0  0  0  0  0  0  0  0  0  0
    6.9408   17.7162  -10.4238 C   0  0  0  0  0  0  0  0  0  0  0  0
   11.2474   14.1971   -7.7516 C   0  0  2  0  0  0  0  0  0  0  0  0
   11.2635   15.2669   -6.7747 O   0  0  0  0  0  0  0  0  0  0  0  0
   14.3269   11.3899   -6.6965 C   0  0  2  0  0  0  0  0  0  0  0  0
   12.9129   10.9455   -6.5124 N   0  0  0  0  0  0  0  0  0  0  0  0
   12.7063   16.3103  -13.8219 C   0  0  1  0  0  0  0  0  0  0  0  0
   13.5163   15.3447  -14.4946 O   0  0  0  0  0  0  0  0  0  0  0  0
    8.2589   17.9110  -11.2648 C   0  0  2  0  0  0  0  0  0  0  0  0
    7.9276   18.2159  -12.6828 N   0  0  0  0  0  0  0  0  0  0  0  0
   12.3686   13.1649   -7.6217 C   0  0  2  0  0  0  0  0  0  0  0  0
   13.6077   13.7744   -7.1380 O   0  0  0  0  0  0  0  0  0  0  0  0
   15.3193   10.5572   -5.7537 C   0  0  1  0  0  0  0  0  0  0  0  0
   16.6735   10.7385   -6.2251 O   0  0  0  0  0  0  0  0  0  0  0  0
   13.0243   17.7453  -14.3004 C   0  0  2  0  0  0  0  0  0  0  0  0
   14.3913   18.0288  -14.1122 O   0  0  0  0  0  0  0  0  0  0  0  0
    9.1591   16.6145  -11.1977 C   0  0  2  0  0  0  0  0  0  0  0  0
   12.5548   12.5617   -9.0242 C   0  0  2  0  0  0  0  0  0  0  0  0
   12.2048   13.6413   -9.8870 O   0  0  0  0  0  0  0  0  0  0  0  0
   15.2251   10.9912   -4.2141 C   0  0  2  0  0  0  0  0  0  0  0  0
   13.9551   10.5643   -3.7230 O   0  0  0  0  0  0  0  0  0  0  0  0
   12.1349   18.7577  -13.5044 C   0  0  2  0  0  0  0  0  0  0  0  0
   10.7222   18.4370  -13.7078 O   0  0  0  0  0  0  0  0  0  0  0  0
    9.5348   16.2205   -9.7524 C   0  0  2  0  0  0  0  0  0  0  0  0
   10.1918   14.9283   -9.8673 O   0  0  0  0  0  0  0  0  0  0  0  0
   11.6833   11.3018   -9.3197 C   0  0  0  0  0  0  0  0  0  0  0  0
   12.0023   10.8025  -10.6150 O   0  0  0  0  0  0  0  0  0  0  0  0
   15.3696   12.5531   -4.0671 C   0  0  1  0  0  0  0  0  0  0  0  0
   14.3039   13.1425   -4.8960 O   0  0  0  0  0  0  0  0  0  0  0  0
   12.3769   20.1918  -13.9147 C   0  0  0  0  0  0  0  0  0  0  0  0
   11.5855   21.0583  -13.1388 O   0  0  0  0  0  0  0  0  0  0  0  0
    8.2305   16.1103   -8.8567 C   0  0  1  0  0  0  0  0  0  0  0  0
    8.5881   15.8952   -7.4887 O   0  0  0  0  0  0  0  0  0  0  0  0
   15.2540   13.0761   -2.5698 C   0  0  0  0  0  0  0  0  0  0  0  0
   15.2934   14.5548   -2.4012 N   0  0  0  0  0  0  0  0  0  0  0  0
  1  2  1  1  0  0  0
  1  7  1  0  0  0  0
  1 30  1  0  0  0  0
  3  4  1  1  0  0  0
  3  9  1  0  0  0  0
  3 39  1  0  0  0  0
  5 10  1  0  0  0  0
  5 26  1  0  0  0  0
  5 32  1  6  0  0  0
  6 12  1  0  0  0  0
  6 36  1  0  0  0  0
  6 19  1  6  0  0  0
  7  8  1  1  0  0  0
  7 14  1  0  0  0  0
  9 16  1  0  0  0  0
 10 11  1  1  0  0  0
 10 18  1  0  0  0  0
 12 13  1  1  0  0  0
 12 20  1  0  0  0  0
 14 15  1  6  0  0  0
 14 22  1  0  0  0  0
 16 17  1  6  0  0  0
 16 24  1  0  0  0  0
 18 19  1  6  0  0  0
 18 25  1  0  0  0  0
 20 21  1  6  0  0  0
 20 27  1  0  0  0  0
 22 23  1  1  0  0  0
 22 29  1  0  0  0  0
 24  2  1  6  0  0  0
 24 31  1  0  0  0  0
 25 26  1  0  0  0  0
 25 33  1  1  0  0  0
 27 28  1  6  0  0  0
 27 35  1  0  0  0  0
 29 30  1  0  0  0  0
 29 37  1  6  0  0  0
 31 32  1  6  0  0  0
 31 39  1  0  0  0  0
 33 34  1  0  0  0  0
 35 36  1  0  0  0  0
 35 41  1  1  0  0  0
 37 38  1  0  0  0  0
 39 40  1  1  0  0  0
 41 42  1  0  0  0  0
M  END
>  <CHROM.1>
-124.45681130,-64.60895213,150.91675958,25.32332497,-176.86886438,-178.07126756
131.13123040,86.57969239,-176.03162924,11.86205095,14.98693068,-9.36975487
-2.00925328,-0.46492122,2.01748059

>  <Name>
ligand

>  <RI>
0

>  <Rbt.Current_Directory>
/home/itssahil/PROJECTS/Mol_Feturizer/Test_systems_manuscript/rnas/2o3w

>  <Rbt.Executable>
rbdock ($Id: //depot/dev/client3/rdock/2013.1/src/exe/rbdock.cxx#4 $)

>  <Rbt.Library>
libRbt.so (2013.1, Build901 2013/11/27)

>  <Rbt.Parameter_File>
/export/apps/rDock/src/rDock_2013.1_src/data/scripts/dock_solv.prm

>  <Rbt.Receptor>
prm/blind_docking_100.prm

>  <SCORE>
9.1396

>  <SCORE.INTER>
-5.00632

>  <SCORE.INTER.CONST>
1

>  <SCORE.INTER.POLAR>
0

>  <SCORE.INTER.ROT>
9

>  <SCORE.INTER.SOLV>
28.9832

>  <SCORE.INTER.VDW>
-22.5986

>  <SCORE.INTER.norm>
-0.119198

>  <SCORE.INTRA>
3.22423

>  <SCORE.INTRA.DIHEDRAL>
-3.06428

>  <SCORE.INTRA.DIHEDRAL.0>
27.8999

>  <SCORE.INTRA.POLAR>
0

>  <SCORE.INTRA.POLAR.0>
0

>  <SCORE.INTRA.REPUL>
0

>  <SCORE.INTRA.REPUL.0>
0

>  <SCORE.INTRA.SOLV>
-0.200071

>  <SCORE.INTRA.SOLV.lig_0>
-104.479

>  <SCORE.INTRA.VDW>
4.85641

>  <SCORE.INTRA.VDW.0>
-6.17816

>  <SCORE.INTRA.norm>
0.0767675

>  <SCORE.RESTR>
10.9217

>  <SCORE.RESTR.CAVITY>
10.9217

>  <SCORE.RESTR.norm>
0.26004

>  <SCORE.SYSTEM>
0

>  <SCORE.SYSTEM.CONST>
0

>  <SCORE.SYSTEM.DIHEDRAL>
0

>  <SCORE.SYSTEM.SOLV>
0

>  <SCORE.SYSTEM.norm>
0

>  <SCORE.heavy>
42

>  <SCORE.norm>
0.21761

>  <RMSD>
20.342

$$$$
ligand
 OpenBabel02271912133D
libRbt.so/2013.1/901 2013/11/27
 42 45  0  0  0  0  0  0  0  0999 V2000
    9.0113   15.9237  -10.9946 C   0  0  2  0  0  0  0  0  0  0  0  0
    9.4638   16.4518  -12.2530 O   0  0  0  0  0  0  0  0  0  0  0  0
   13.1148   17.8157  -14.1520 C   0  0  2  0  0  0  0  0  0  0  0  0
   14.5524   18.0900  -14.4493 N   0  0  0  0  0  0  0  0  0  0  0  0
   12.0698   13.9401  -12.2531 C   0  0  1  0  0  0  0  0  0  0  0  0
   12.8982   12.0375   -8.2646 C   0  0  1  0  0  0  0  0  0  0  0  0
    7.6055   15.2988  -11.2424 C   0  0  2  0  0  0  0  0  0  0  0  0
    7.5890   14.3897  -12.4017 N   0  0  0  0  0  0  0  0  0  0  0  0
   12.6492   18.5583  -12.8353 C   0  0  0  0  0  0  0  0  0  0  0  0
   11.2432   13.6516  -10.9630 C   0  0  2  0  0  0  0  0  0  0  0  0
   11.2432   14.7406  -10.0074 O   0  0  0  0  0  0  0  0  0  0  0  0
   11.8179   12.7138   -7.3457 C   0  0  2  0  0  0  0  0  0  0  0  0
   12.0566   14.1841   -7.2350 N   0  0  0  0  0  0  0  0  0  0  0  0
    6.5280   16.3681  -11.5005 C   0  0  1  0  0  0  0  0  0  0  0  0
    5.2512   15.7537  -11.6825 O   0  0  0  0  0  0  0  0  0  0  0  0
   11.1241   18.2497  -12.5876 C   0  0  2  0  0  0  0  0  0  0  0  0
   10.6478   18.9458  -11.3620 N   0  0  0  0  0  0  0  0  0  0  0  0
   11.8863   12.3495  -10.4832 C   0  0  2  0  0  0  0  0  0  0  0  0
   13.0057   12.6046   -9.5763 O   0  0  0  0  0  0  0  0  0  0  0  0
   11.8396   12.0171   -5.9032 C   0  0  1  0  0  0  0  0  0  0  0  0
   11.2404   10.7061   -6.0085 O   0  0  0  0  0  0  0  0  0  0  0  0
    6.5082   17.3739  -10.3269 C   0  0  2  0  0  0  0  0  0  0  0  0
    5.5153   18.3501  -10.5400 O   0  0  0  0  0  0  0  0  0  0  0  0
   10.8873   16.6947  -12.4400 C   0  0  2  0  0  0  0  0  0  0  0  0
   12.3526   11.6141  -11.7509 C   0  0  2  0  0  0  0  0  0  0  0  0
   12.6618   12.6804  -12.6453 O   0  0  0  0  0  0  0  0  0  0  0  0
   13.3177   11.8838   -5.2990 C   0  0  2  0  0  0  0  0  0  0  0  0
   13.7720   13.1978   -4.9775 O   0  0  0  0  0  0  0  0  0  0  0  0
    7.9194   18.0388  -10.2006 C   0  0  2  0  0  0  0  0  0  0  0  0
    8.9330   17.0054   -9.9898 O   0  0  0  0  0  0  0  0  0  0  0  0
   11.3717   15.8957  -13.6697 C   0  0  2  0  0  0  0  0  0  0  0  0
   11.2504   14.4976  -13.2889 O   0  0  0  0  0  0  0  0  0  0  0  0
   11.3003   10.6456  -12.3747 C   0  0  0  0  0  0  0  0  0  0  0  0
   11.9716    9.6596  -13.1531 O   0  0  0  0  0  0  0  0  0  0  0  0
   14.2869   11.2124   -6.3441 C   0  0  1  0  0  0  0  0  0  0  0  0
   14.2339   12.0549   -7.5514 O   0  0  0  0  0  0  0  0  0  0  0  0
    7.9927   19.0368   -9.0682 C   0  0  0  0  0  0  0  0  0  0  0  0
    6.8810   19.8980   -9.1081 O   0  0  0  0  0  0  0  0  0  0  0  0
   12.8796   16.2592  -14.0013 C   0  0  1  0  0  0  0  0  0  0  0  0
   13.2795   15.6367  -15.2253 O   0  0  0  0  0  0  0  0  0  0  0  0
   15.7877   11.0711   -5.8378 C   0  0  0  0  0  0  0  0  0  0  0  0
   16.4069   12.3174   -5.3086 N   0  0  0  0  0  0  0  0  0  0  0  0
  1  2  1  6  0  0  0
  1  7  1  0  0  0  0
  1 30  1  0  0  0  0
  3  4  1  1  0  0  0
  3  9  1  0  0  0  0
  3 39  1  0  0  0  0
  5 10  1  0  0  0  0
  5 26  1  0  0  0  0
  5 32  1  6  0  0  0
  6 12  1  0  0  0  0
  6 36  1  0  0  0  0
  6 19  1  6  0  0  0
  7  8  1  6  0  0  0
  7 14  1  0  0  0  0
  9 16  1  0  0  0  0
 10 11  1  1  0  0  0
 10 18  1  0  0  0  0
 12 13  1  1  0  0  0
 12 20  1  0  0  0  0
 14 15  1  1  0  0  0
 14 22  1  0  0  0  0
 16 17  1  1  0  0  0
 16 24  1  0  0  0  0
 18 19  1  1  0  0  0
 18 25  1  0  0  0  0
 20 21  1  6  0  0  0
 20 27  1  0  0  0  0
 22 23  1  6  0  0  0
 22 29  1  0  0  0  0
 24  2  1  6  0  0  0
 24 31  1  0  0  0  0
 25 26  1  0  0  0  0
 25 33  1  6  0  0  0
 27 28  1  6  0  0  0
 27 35  1  0  0  0  0
 29 30  1  0  0  0  0
 29 37  1  1  0  0  0
 31 32  1  1  0  0  0
 31 39  1  0  0  0  0
 33 34  1  0  0  0  0
 35 36  1  0  0  0  0
 35 41  1  1  0  0  0
 37 38  1  0  0  0  0
 39 40  1  6  0  0  0
 41 42  1  0  0  0  0
M  END
>  <CHROM.1>
-160.01492529,-113.82942967,121.03549750,-70.51113457,-156.54120960,-47.31943062
-66.46316084,108.26086734,-51.55278059,11.08493189,14.74799220,-10.39315149
2.32704343,0.62927190,-1.18976941

>  <Name>
ligand

>  <RI>
0

>  <Rbt.Current_Directory>
/home/itssahil/PROJECTS/Mol_Feturizer/Test_systems_manuscript/rnas/2o3w

>  <Rbt.Executable>
rbdock ($Id: //depot/dev/client3/rdock/2013.1/src/exe/rbdock.cxx#4 $)

>  <Rbt.Library>
libRbt.so (2013.1, Build901 2013/11/27)

>  <Rbt.Parameter_File>
/export/apps/rDock/src/rDock_2013.1_src/data/scripts/dock_solv.prm

>  <Rbt.Receptor>
prm/blind_docking_100.prm

>  <SCORE>
4.48141

>  <SCORE.INTER>
-4.23096

>  <SCORE.INTER.CONST>
1

>  <SCORE.INTER.POLAR>
0

>  <SCORE.INTER.ROT>
9

>  <SCORE.INTER.SOLV>
26.5514

>  <SCORE.INTER.VDW>
-21.2711

>  <SCORE.INTER.norm>
-0.100737

>  <SCORE.INTRA>
1.60622

>  <SCORE.INTRA.DIHEDRAL>
-2.03763

>  <SCORE.INTRA.DIHEDRAL.0>
27.8999

>  <SCORE.INTRA.POLAR>
0

>  <SCORE.INTRA.POLAR.0>
0

>  <SCORE.INTRA.REPUL>
0

>  <SCORE.INTRA.REPUL.0>
0

>  <SCORE.INTRA.SOLV>
1.46058

>  <SCORE.INTRA.SOLV.lig_0>
-104.479

>  <SCORE.INTRA.VDW>
1.89474

>  <SCORE.INTRA.VDW.0>
-6.17816

>  <SCORE.INTRA.norm>
0.0382432

>  <SCORE.RESTR>
7.10615

>  <SCORE.RESTR.CAVITY>
7.10615

>  <SCORE.RESTR.norm>
0.169194

>  <SCORE.SYSTEM>
0

>  <SCORE.SYSTEM.CONST>
0

>  <SCORE.SYSTEM.DIHEDRAL>
0

>  <SCORE.SYSTEM.SOLV>
0

>  <SCORE.SYSTEM.norm>
0

>  <SCORE.heavy>
42

>  <SCORE.norm>
0.1067

>  <RMSD>
20.359

$$$$
ligand
 OpenBabel02271912133D
libRbt.so/2013.1/901 2013/11/27
 42 45  0  0  0  0  0  0  0  0999 V2000
    8.0014   18.0113  -10.1960 C   0  0  2  0  0  0  0  0  0  0  0  0
    8.9527   16.9667  -10.4624 O   0  0  0  0  0  0  0  0  0  0  0  0
   11.8146   17.0852  -13.7169 C   0  0  2  0  0  0  0  0  0  0  0  0
   13.0369   17.3483  -14.5337 N   0  0  0  0  0  0  0  0  0  0  0  0
   11.4058   14.0987   -9.8912 C   0  0  1  0  0  0  0  0  0  0  0  0
   12.8086   10.5577  -10.7527 C   0  0  1  0  0  0  0  0  0  0  0  0
    7.1925   17.5797   -8.9360 C   0  0  2  0  0  0  0  0  0  0  0  0
    8.0629   17.1592   -7.8241 N   0  0  0  0  0  0  0  0  0  0  0  0
   11.0775   18.4320  -13.3366 C   0  0  0  0  0  0  0  0  0  0  0  0
   12.7631   13.4599  -10.3160 C   0  0  2  0  0  0  0  0  0  0  0  0
   12.7633   12.9146  -11.6583 O   0  0  0  0  0  0  0  0  0  0  0  0
   12.2857    9.0950  -10.9888 C   0  0  2  0  0  0  0  0  0  0  0  0
   12.6722    8.2010   -9.8564 N   0  0  0  0  0  0  0  0  0  0  0  0
    6.2422   16.4035   -9.2263 C   0  0  1  0  0  0  0  0  0  0  0  0
    5.4940   16.0682   -8.0564 O   0  0  0  0  0  0  0  0  0  0  0  0
    9.7887   18.0891  -12.4976 C   0  0  2  0  0  0  0  0  0  0  0  0
    9.0612   19.3350  -12.1343 N   0  0  0  0  0  0  0  0  0  0  0  0
   12.9804   12.4478   -9.1901 C   0  0  2  0  0  0  0  0  0  0  0  0
   12.3930   11.1476   -9.5146 O   0  0  0  0  0  0  0  0  0  0  0  0
   12.8626    8.5452  -12.3788 C   0  0  1  0  0  0  0  0  0  0  0  0
   12.1673    9.1987  -13.4643 O   0  0  0  0  0  0  0  0  0  0  0  0
    5.3122   16.7708  -10.4050 C   0  0  2  0  0  0  0  0  0  0  0  0
    4.4243   15.7104  -10.6726 O   0  0  0  0  0  0  0  0  0  0  0  0
   10.1726   17.2975  -11.1854 C   0  0  2  0  0  0  0  0  0  0  0  0
   12.3265   13.0579   -7.9388 C   0  0  2  0  0  0  0  0  0  0  0  0
   11.2538   13.8259   -8.4793 O   0  0  0  0  0  0  0  0  0  0  0  0
   14.4400    8.7802  -12.5341 C   0  0  2  0  0  0  0  0  0  0  0  0
   15.0973    7.9210  -11.6035 O   0  0  0  0  0  0  0  0  0  0  0  0
    6.1855   17.0919  -11.6635 C   0  0  2  0  0  0  0  0  0  0  0  0
    7.1044   18.1882  -11.3579 O   0  0  0  0  0  0  0  0  0  0  0  0
   10.9477   15.9940  -11.4775 C   0  0  2  0  0  0  0  0  0  0  0  0
   11.3735   15.5031  -10.1766 O   0  0  0  0  0  0  0  0  0  0  0  0
   13.2702   13.9458   -7.0697 C   0  0  0  0  0  0  0  0  0  0  0  0
   14.2419   13.1193   -6.4360 O   0  0  0  0  0  0  0  0  0  0  0  0
   14.8093   10.2838  -12.2427 C   0  0  1  0  0  0  0  0  0  0  0  0
   14.3171   10.5702  -10.8840 O   0  0  0  0  0  0  0  0  0  0  0  0
    5.3538   17.4693  -12.8675 C   0  0  0  0  0  0  0  0  0  0  0  0
    4.8670   18.7819  -12.7283 O   0  0  0  0  0  0  0  0  0  0  0  0
   12.2005   16.2957  -12.4022 C   0  0  1  0  0  0  0  0  0  0  0  0
   12.8291   15.0728  -12.7960 O   0  0  0  0  0  0  0  0  0  0  0  0
   16.3646   10.5996  -12.3418 C   0  0  0  0  0  0  0  0  0  0  0  0
   17.2129    9.9881  -11.2820 N   0  0  0  0  0  0  0  0  0  0  0  0
  1  2  1  6  0  0  0
  1  7  1  0  0  0  0
  1 30  1  0  0  0  0
  3  4  1  1  0  0  0
  3  9  1  0  0  0  0
  3 39  1  0  0  0  0
  5 10  1  0  0  0  0
  5 26  1  0  0  0  0
  5 32  1  1  0  0  0
  6 12  1  0  0  0  0
  6 36  1  0  0  0  0
  6 19  1  1  0  0  0
  7  8  1  1  0  0  0
  7 14  1  0  0  0  0
  9 16  1  0  0  0  0
 10 11  1  6  0  0  0
 10 18  1  0  0  0  0
 12 13  1  1  0  0  0
 12 20  1  0  0  0  0
 14 15  1  1  0  0  0
 14 22  1  0  0  0  0
 16 17  1  1  0  0  0
 16 24  1  0  0  0  0
 18 19  1  6  0  0  0
 18 25  1  0  0  0  0
 20 21  1  6  0  0  0
 20 27  1  0  0  0  0
 22 23  1  6  0  0  0
 22 29  1  0  0  0  0
 24  2  1  6  0  0  0
 24 31  1  0  0  0  0
 25 26  1  0  0  0  0
 25 33  1  6  0  0  0
 27 28  1  1  0  0  0
 27 35  1  0  0  0  0
 29 30  1  0  0  0  0
 29 37  1  6  0  0  0
 31 32  1  1  0  0  0
 31 39  1  0  0  0  0
 33 34  1  0  0  0  0
 35 36  1  0  0  0  0
 35 41  1  1  0  0  0
 37 38  1  0  0  0  0
 39 40  1  6  0  0  0
 41 42  1  0  0  0  0
M  END
>  <CHROM.1>
-154.82698041,-50.63421008,54.50313824,173.37680146,-69.65174796,75.71051559
143.55904374,87.15518852,-68.46231123,10.88963391,14.23268067,-10.87670511
2.57451556,0.60859490,-0.71997631

>  <Name>
ligand

>  <RI>
0

>  <Rbt.Current_Directory>
/home/itssahil/PROJECTS/Mol_Feturizer/Test_systems_manuscript/rnas/2o3w

>  <Rbt.Executable>
rbdock ($Id: //depot/dev/client3/rdock/2013.1/src/exe/rbdock.cxx#4 $)

>  <Rbt.Library>
libRbt.so (2013.1, Build901 2013/11/27)

>  <Rbt.Parameter_File>
/export/apps/rDock/src/rDock_2013.1_src/data/scripts/dock_solv.prm

>  <Rbt.Receptor>
prm/blind_docking_100.prm

>  <SCORE>
-1.17266

>  <SCORE.INTER>
-6.62607

>  <SCORE.INTER.CONST>
1

>  <SCORE.INTER.POLAR>
0

>  <SCORE.INTER.ROT>
9

>  <SCORE.INTER.SOLV>
32.7745

>  <SCORE.INTER.VDW>
-24.9422

>  <SCORE.INTER.norm>
-0.157764

>  <SCORE.INTRA>
-0.280965

>  <SCORE.INTRA.DIHEDRAL>
-14.9806

>  <SCORE.INTRA.DIHEDRAL.0>
27.8999

>  <SCORE.INTRA.POLAR>
0

>  <SCORE.INTRA.POLAR.0>
0

>  <SCORE.INTRA.REPUL>
0

>  <SCORE.INTRA.REPUL.0>
0

>  <SCORE.INTRA.SOLV>
-0.514597

>  <SCORE.INTRA.SOLV.lig_0>
-104.479

>  <SCORE.INTRA.VDW>
7.46663

>  <SCORE.INTRA.VDW.0>
-6.17816

>  <SCORE.INTRA.norm>
-0.00668964

>  <SCORE.RESTR>
5.73438

>  <SCORE.RESTR.CAVITY>
5.73438

>  <SCORE.RESTR.norm>
0.136533

>  <SCORE.SYSTEM>
0

>  <SCORE.SYSTEM.CONST>
0

>  <SCORE.SYSTEM.DIHEDRAL>
0

>  <SCORE.SYSTEM.SOLV>
0

>  <SCORE.SYSTEM.norm>
0

>  <SCORE.heavy>
42

>  <SCORE.norm>
-0.0279204

>  <RMSD>
20.559

$$$$
ligand
 OpenBabel02271912133D
libRbt.so/2013.1/901 2013/11/27
 42 45  0  0  0  0  0  0  0  0999 V2000
    8.0976   16.2820  -11.0211 C   0  0  2  0  0  0  0  0  0  0  0  0
    9.0894   17.2602  -10.6649 O   0  0  0  0  0  0  0  0  0  0  0  0
   11.5263   17.0048  -14.2415 C   0  0  2  0  0  0  0  0  0  0  0  0
   12.6599   17.1181  -15.2073 N   0  0  0  0  0  0  0  0  0  0  0  0
   12.0845   14.3133  -10.5742 C   0  0  1  0  0  0  0  0  0  0  0  0
   13.5163   10.7169  -10.8385 C   0  0  1  0  0  0  0  0  0  0  0  0
    6.8671   17.0621  -11.5738 C   0  0  2  0  0  0  0  0  0  0  0  0
    7.2408   18.0501  -12.6009 N   0  0  0  0  0  0  0  0  0  0  0  0
   10.9871   18.4306  -13.8196 C   0  0  0  0  0  0  0  0  0  0  0  0
   11.7893   13.5303   -9.2587 C   0  0  2  0  0  0  0  0  0  0  0  0
   12.7205   13.8103   -8.1846 O   0  0  0  0  0  0  0  0  0  0  0  0
   12.8021    9.3244  -10.9787 C   0  0  2  0  0  0  0  0  0  0  0  0
   12.9779    8.5077   -9.7405 N   0  0  0  0  0  0  0  0  0  0  0  0
    6.1181   17.8304  -10.4694 C   0  0  1  0  0  0  0  0  0  0  0  0
    4.9774   18.4968  -11.0132 O   0  0  0  0  0  0  0  0  0  0  0  0
    9.7822   18.2456  -12.8213 C   0  0  2  0  0  0  0  0  0  0  0  0
    9.2397   19.5697  -12.4140 N   0  0  0  0  0  0  0  0  0  0  0  0
   11.7795   12.0879   -9.7674 C   0  0  2  0  0  0  0  0  0  0  0  0
   13.1103   11.4839   -9.6982 O   0  0  0  0  0  0  0  0  0  0  0  0
   13.3832    8.5587  -12.2604 C   0  0  1  0  0  0  0  0  0  0  0  0
   12.8644    9.1863  -13.4545 O   0  0  0  0  0  0  0  0  0  0  0  0
    5.7160   16.8519   -9.3425 C   0  0  2  0  0  0  0  0  0  0  0  0
    5.0144   17.5369   -8.3311 O   0  0  0  0  0  0  0  0  0  0  0  0
   10.2392   17.4429  -11.5396 C   0  0  2  0  0  0  0  0  0  0  0  0
   11.2717   12.1528  -11.2177 C   0  0  2  0  0  0  0  0  0  0  0  0
   11.7287   13.4283  -11.6611 O   0  0  0  0  0  0  0  0  0  0  0  0
   14.9848    8.5550  -12.3096 C   0  0  2  0  0  0  0  0  0  0  0  0
   15.4464    7.7140  -11.2532 O   0  0  0  0  0  0  0  0  0  0  0  0
    7.0066   16.1818   -8.7637 C   0  0  2  0  0  0  0  0  0  0  0  0
    7.7216   15.4859   -9.8334 O   0  0  0  0  0  0  0  0  0  0  0  0
   10.8313   16.0577  -11.8800 C   0  0  2  0  0  0  0  0  0  0  0  0
   11.3597   15.5491  -10.6244 O   0  0  0  0  0  0  0  0  0  0  0  0
    9.7254   12.0230  -11.3801 C   0  0  0  0  0  0  0  0  0  0  0  0
    9.2061   13.2334  -11.9223 O   0  0  0  0  0  0  0  0  0  0  0  0
   15.5498   10.0148  -12.1308 C   0  0  1  0  0  0  0  0  0  0  0  0
   15.0158   10.5060  -10.8486 O   0  0  0  0  0  0  0  0  0  0  0  0
    6.7048   15.2000   -7.6552 C   0  0  0  0  0  0  0  0  0  0  0  0
    5.4780   15.5195   -7.0451 O   0  0  0  0  0  0  0  0  0  0  0  0
   11.9857   16.2040  -12.9577 C   0  0  1  0  0  0  0  0  0  0  0  0
   12.4292   14.9128  -13.3840 O   0  0  0  0  0  0  0  0  0  0  0  0
   17.1377   10.0995  -12.1334 C   0  0  0  0  0  0  0  0  0  0  0  0
   17.7235   11.1472  -13.0143 N   0  0  0  0  0  0  0  0  0  0  0  0
  1  2  1  1  0  0  0
  1  7  1  0  0  0  0
  1 30  1  0  0  0  0
  3  4  1  6  0  0  0
  3  9  1  0  0  0  0
  3 39  1  0  0  0  0
  5 10  1  0  0  0  0
  5 26  1  0  0  0  0
  5 32  1  1  0  0  0
  6 12  1  0  0  0  0
  6 36  1  0  0  0  0
  6 19  1  1  0  0  0
  7  8  1  6  0  0  0
  7 14  1  0  0  0  0
  9 16  1  0  0  0  0
 10 11  1  1  0  0  0
 10 18  1  0  0  0  0
 12 13  1  1  0  0  0
 12 20  1  0  0  0  0
 14 15  1  6  0  0  0
 14 22  1  0  0  0  0
 16 17  1  1  0  0  0
 16 24  1  0  0  0  0
 18 19  1  6  0  0  0
 18 25  1  0  0  0  0
 20 21  1  6  0  0  0
 20 27  1  0  0  0  0
 22 23  1  1  0  0  0
 22 29  1  0  0  0  0
 24  2  1  1  0  0  0
 24 31  1  0  0  0  0
 25 26  1  0  0  0  0
 25 33  1  1  0  0  0
 27 28  1  1  0  0  0
 27 35  1  0  0  0  0
 29 30  1  0  0  0  0
 29 37  1  1  0  0  0
 31 32  1  1  0  0  0
 31 39  1  0  0  0  0
 33 34  1  0  0  0  0
 35 36  1  0  0  0  0
 35 41  1  1  0  0  0
 37 38  1  0  0  0  0
 39 40  1  6  0  0  0
 41 42  1  0  0  0  0
M  END
>  <CHROM.1>
-104.30218884,75.33074984,-136.50381911,-73.22243460,116.05091651,-24.49165617
-175.18782489,-144.17300104,131.89723336,10.83670415,14.09959668,-11.15513282
2.57575907,0.58892937,-0.56694303

>  <Name>
ligand

>  <RI>
0

>  <Rbt.Current_Directory>
/home/itssahil/PROJECTS/Mol_Feturizer/Test_systems_manuscript/rnas/2o3w

>  <Rbt.Executable>
rbdock ($Id: //depot/dev/client3/rdock/2013.1/src/exe/rbdock.cxx#4 $)

>  <Rbt.Library>
libRbt.so (2013.1, Build901 2013/11/27)

>  <Rbt.Parameter_File>
/export/apps/rDock/src/rDock_2013.1_src/data/scripts/dock_solv.prm

>  <Rbt.Receptor>
prm/blind_docking_100.prm

>  <SCORE>
20.0421

>  <SCORE.INTER>
-2.89524

>  <SCORE.INTER.CONST>
1

>  <SCORE.INTER.POLAR>
0

>  <SCORE.INTER.ROT>
9

>  <SCORE.INTER.SOLV>
23.2802

>  <SCORE.INTER.VDW>
-19.2902

>  <SCORE.INTER.norm>
-0.0689343

>  <SCORE.INTRA>
11.838

>  <SCORE.INTRA.DIHEDRAL>
4.24301

>  <SCORE.INTRA.DIHEDRAL.0>
27.8999

>  <SCORE.INTRA.POLAR>
0

>  <SCORE.INTRA.POLAR.0>
0

>  <SCORE.INTRA.REPUL>
0

>  <SCORE.INTRA.REPUL.0>
0

>  <SCORE.INTRA.SOLV>
0.921355

>  <SCORE.INTRA.SOLV.lig_0>
-104.479

>  <SCORE.INTRA.VDW>
9.25582

>  <SCORE.INTRA.VDW.0>
-6.17816

>  <SCORE.INTRA.norm>
0.281857

>  <SCORE.RESTR>
11.0993

>  <SCORE.RESTR.CAVITY>
11.0993

>  <SCORE.RESTR.norm>
0.264269

>  <SCORE.SYSTEM>
0

>  <SCORE.SYSTEM.CONST>
0

>  <SCORE.SYSTEM.DIHEDRAL>
0

>  <SCORE.SYSTEM.SOLV>
0

>  <SCORE.SYSTEM.norm>
0

>  <SCORE.heavy>
42

>  <SCORE.norm>
0.477192

>  <RMSD>
20.608

$$$$
ligand
 OpenBabel02271912133D
libRbt.so/2013.1/901 2013/11/27
 42 45  0  0  0  0  0  0  0  0999 V2000
    7.0579   18.1964  -10.9090 C   0  0  2  0  0  0  0  0  0  0  0  0
    8.2890   17.7666  -10.3032 O   0  0  0  0  0  0  0  0  0  0  0  0
   10.9314   18.7530  -13.5957 C   0  0  2  0  0  0  0  0  0  0  0  0
   12.1292   18.8619  -14.4811 N   0  0  0  0  0  0  0  0  0  0  0  0
   10.3114   14.9480  -11.4075 C   0  0  1  0  0  0  0  0  0  0  0  0
   12.4508   11.4209  -10.9062 C   0  0  1  0  0  0  0  0  0  0  0  0
    6.5284   19.3935  -10.0635 C   0  0  2  0  0  0  0  0  0  0  0  0
    7.5602   20.4187   -9.8296 N   0  0  0  0  0  0  0  0  0  0  0  0
   11.1680   19.4907  -12.2167 C   0  0  0  0  0  0  0  0  0  0  0  0
   10.5569   13.5906  -12.1342 C   0  0  2  0  0  0  0  0  0  0  0  0
    9.8764   12.4652  -11.5264 O   0  0  0  0  0  0  0  0  0  0  0  0
   12.6131   10.7732   -9.4839 C   0  0  2  0  0  0  0  0  0  0  0  0
   13.9179   11.1590   -8.8678 N   0  0  0  0  0  0  0  0  0  0  0  0
    6.0192   18.9511   -8.6792 C   0  0  1  0  0  0  0  0  0  0  0  0
    5.5079   20.0719   -7.9559 O   0  0  0  0  0  0  0  0  0  0  0  0
    9.8664   19.3606  -11.3385 C   0  0  2  0  0  0  0  0  0  0  0  0
   10.0488   20.0574  -10.0366 N   0  0  0  0  0  0  0  0  0  0  0  0
   12.0849   13.5225  -12.1281 C   0  0  2  0  0  0  0  0  0  0  0  0
   12.5885   12.8470  -10.9319 O   0  0  0  0  0  0  0  0  0  0  0  0
   12.4848    9.1811   -9.6102 C   0  0  1  0  0  0  0  0  0  0  0  0
   11.0995    8.8412   -9.8432 O   0  0  0  0  0  0  0  0  0  0  0  0
    4.9452   17.8530   -8.8516 C   0  0  2  0  0  0  0  0  0  0  0  0
    4.4567   17.4489   -7.5936 O   0  0  0  0  0  0  0  0  0  0  0  0
    9.5169   17.8414  -11.0822 C   0  0  2  0  0  0  0  0  0  0  0  0
   12.5750   14.9788  -12.1937 C   0  0  2  0  0  0  0  0  0  0  0  0
   11.5447   15.6951  -11.5168 O   0  0  0  0  0  0  0  0  0  0  0  0
   13.3903    8.5754  -10.7852 C   0  0  2  0  0  0  0  0  0  0  0  0
   14.7551    8.7116  -10.3913 O   0  0  0  0  0  0  0  0  0  0  0  0
    5.5731   16.6404   -9.6166 C   0  0  2  0  0  0  0  0  0  0  0  0
    6.0810   17.0868  -10.9137 O   0  0  0  0  0  0  0  0  0  0  0  0
    9.3268   17.0418  -12.3898 C   0  0  2  0  0  0  0  0  0  0  0  0
    9.1999   15.6542  -11.9740 O   0  0  0  0  0  0  0  0  0  0  0  0
   12.7921   15.5358  -13.6348 C   0  0  0  0  0  0  0  0  0  0  0  0
   13.4142   16.8148  -13.5560 O   0  0  0  0  0  0  0  0  0  0  0  0
   13.1336    9.3431  -12.1368 C   0  0  1  0  0  0  0  0  0  0  0  0
   13.4220   10.7615  -11.8629 O   0  0  0  0  0  0  0  0  0  0  0  0
    4.5862   15.5171   -9.8358 C   0  0  0  0  0  0  0  0  0  0  0  0
    5.2492   14.3785  -10.3289 O   0  0  0  0  0  0  0  0  0  0  0  0
   10.5845   17.2320  -13.3373 C   0  0  1  0  0  0  0  0  0  0  0  0
   10.3437   16.6175  -14.6062 O   0  0  0  0  0  0  0  0  0  0  0  0
   14.0188    8.8271  -13.3528 C   0  0  0  0  0  0  0  0  0  0  0  0
   15.4426    8.5338  -13.0317 N   0  0  0  0  0  0  0  0  0  0  0  0
  1  2  1  1  0  0  0
  1  7  1  0  0  0  0
  1 30  1  0  0  0  0
  3  4  1  6  0  0  0
  3  9  1  0  0  0  0
  3 39  1  0  0  0  0
  5 10  1  0  0  0  0
  5 26  1  0  0  0  0
  5 32  1  6  0  0  0
  6 12  1  0  0  0  0
  6 36  1  0  0  0  0
  6 19  1  1  0  0  0
  7  8  1  1  0  0  0
  7 14  1  0  0  0  0
  9 16  1  0  0  0  0
 10 11  1  1  0  0  0
 10 18  1  0  0  0  0
 12 13  1  6  0  0  0
 12 20  1  0  0  0  0
 14 15  1  6  0  0  0
 14 22  1  0  0  0  0
 16 17  1  1  0  0  0
 16 24  1  0  0  0  0
 18 19  1  1  0  0  0
 18 25  1  0  0  0  0
 20 21  1  6  0  0  0
 20 27  1  0  0  0  0
 22 23  1  1  0  0  0
 22 29  1  0  0  0  0
 24  2  1  1  0  0  0
 24 31  1  0  0  0  0
 25 26  1  0  0  0  0
 25 33  1  6  0  0  0
 27 28  1  1  0  0  0
 27 35  1  0  0  0  0
 29 30  1  0  0  0  0
 29 37  1  6  0  0  0
 31 32  1  1  0  0  0
 31 39  1  0  0  0  0
 33 34  1  0  0  0  0
 35 36  1  0  0  0  0
 35 41  1  6  0  0  0
 37 38  1  0  0  0  0
 39 40  1  6  0  0  0
 41 42  1  0  0  0  0
M  END
>  <CHROM.1>
-118.25582120,67.18244308,75.16038912,-163.47028522,-172.11497381,-170.57757818
-67.95271969,-128.35789851,-41.97508627,10.16071698,15.00671546,-11.16483927
2.35468001,0.54605066,-0.32745272

>  <Name>
ligand

>  <RI>
0

>  <Rbt.Current_Directory>
/home/itssahil/PROJECTS/Mol_Feturizer/Test_systems_manuscript/rnas/2o3w

>  <Rbt.Executable>
rbdock ($Id: //depot/dev/client3/rdock/2013.1/src/exe/rbdock.cxx#4 $)

>  <Rbt.Library>
libRbt.so (2013.1, Build901 2013/11/27)

>  <Rbt.Parameter_File>
/export/apps/rDock/src/rDock_2013.1_src/data/scripts/dock_solv.prm

>  <Rbt.Receptor>
prm/blind_docking_100.prm

>  <SCORE>
17.744

>  <SCORE.INTER>
2.89188

>  <SCORE.INTER.CONST>
1

>  <SCORE.INTER.POLAR>
0

>  <SCORE.INTER.ROT>
9

>  <SCORE.INTER.SOLV>
21.4014

>  <SCORE.INTER.VDW>
-14.8059

>  <SCORE.INTER.norm>
0.0688543

>  <SCORE.INTRA>
3.73312

>  <SCORE.INTRA.DIHEDRAL>
-9.21045

>  <SCORE.INTRA.DIHEDRAL.0>
27.8999

>  <SCORE.INTRA.POLAR>
0

>  <SCORE.INTRA.POLAR.0>
0

>  <SCORE.INTRA.REPUL>
0

>  <SCORE.INTRA.REPUL.0>
0

>  <SCORE.INTRA.SOLV>
3.55876

>  <SCORE.INTRA.SOLV.lig_0>
-104.479

>  <SCORE.INTRA.VDW>
6.55896

>  <SCORE.INTRA.VDW.0>
-6.17816

>  <SCORE.INTRA.norm>
0.0888838

>  <SCORE.RESTR>
11.119

>  <SCORE.RESTR.CAVITY>
11.119

>  <SCORE.RESTR.norm>
0.264737

>  <SCORE.SYSTEM>
0

>  <SCORE.SYSTEM.CONST>
0

>  <SCORE.SYSTEM.DIHEDRAL>
0

>  <SCORE.SYSTEM.SOLV>
0

>  <SCORE.SYSTEM.norm>
0

>  <SCORE.heavy>
42

>  <SCORE.norm>
0.422475

>  <RMSD>
21.059

$$$$
ligand
 OpenBabel02271912133D
libRbt.so/2013.1/901 2013/11/27
 42 45  0  0  0  0  0  0  0  0999 V2000
    8.5747   17.9030  -10.3106 C   0  0  2  0  0  0  0  0  0  0  0  0
    9.2973   16.6839  -10.5536 O   0  0  0  0  0  0  0  0  0  0  0  0
   11.3985   16.6968  -14.3458 C   0  0  2  0  0  0  0  0  0  0  0  0
   12.4749   16.6920  -15.3811 N   0  0  0  0  0  0  0  0  0  0  0  0
   11.2242   13.0635  -11.6973 C   0  0  1  0  0  0  0  0  0  0  0  0
   13.9709    9.4939  -12.0702 C   0  0  1  0  0  0  0  0  0  0  0  0
    7.6474   17.6457   -9.0851 C   0  0  2  0  0  0  0  0  0  0  0  0
    8.3691   17.0500   -7.9472 N   0  0  0  0  0  0  0  0  0  0  0  0
   11.4462   18.0160  -13.4743 C   0  0  0  0  0  0  0  0  0  0  0  0
   12.7793   12.9769  -11.6279 C   0  0  2  0  0  0  0  0  0  0  0  0
   13.4443   13.3142  -12.8701 O   0  0  0  0  0  0  0  0  0  0  0  0
   15.2897    9.8369  -11.2878 C   0  0  2  0  0  0  0  0  0  0  0  0
   16.0250   10.9573  -11.9471 N   0  0  0  0  0  0  0  0  0  0  0  0
    6.4847   16.6940   -9.4217 C   0  0  1  0  0  0  0  0  0  0  0  0
    5.6400   16.5185   -8.2830 O   0  0  0  0  0  0  0  0  0  0  0  0
   10.2771   17.9728  -12.4189 C   0  0  2  0  0  0  0  0  0  0  0  0
   10.2831   19.2080  -11.5894 N   0  0  0  0  0  0  0  0  0  0  0  0
   12.9754   11.5405  -11.1405 C   0  0  2  0  0  0  0  0  0  0  0  0
   13.0832   10.6030  -12.2587 O   0  0  0  0  0  0  0  0  0  0  0  0
   16.2046    8.5250  -11.1932 C   0  0  1  0  0  0  0  0  0  0  0  0
   15.6184    7.6148  -10.2357 O   0  0  0  0  0  0  0  0  0  0  0  0
    5.6961   17.2502  -10.6291 C   0  0  2  0  0  0  0  0  0  0  0  0
    4.6177   16.3986  -10.9395 O   0  0  0  0  0  0  0  0  0  0  0  0
   10.4165   16.7063  -11.4849 C   0  0  2  0  0  0  0  0  0  0  0  0
   11.7552   11.2205  -10.2607 C   0  0  2  0  0  0  0  0  0  0  0  0
   10.7211   12.0072  -10.8474 O   0  0  0  0  0  0  0  0  0  0  0  0
   16.3756    7.7829  -12.6030 C   0  0  2  0  0  0  0  0  0  0  0  0
   17.1780    8.6192  -13.4356 O   0  0  0  0  0  0  0  0  0  0  0  0
    6.6634   17.3859  -11.8520 C   0  0  2  0  0  0  0  0  0  0  0  0
    7.7782   18.2660  -11.5021 O   0  0  0  0  0  0  0  0  0  0  0  0
   10.4344   15.3790  -12.2744 C   0  0  2  0  0  0  0  0  0  0  0  0
   10.7509   14.3546  -11.2921 O   0  0  0  0  0  0  0  0  0  0  0  0
   11.9280   11.5591   -8.7475 C   0  0  0  0  0  0  0  0  0  0  0  0
   13.0707   10.8765   -8.2402 O   0  0  0  0  0  0  0  0  0  0  0  0
   14.9719    7.5321  -13.2730 C   0  0  1  0  0  0  0  0  0  0  0  0
   14.3341    8.8545  -13.3939 O   0  0  0  0  0  0  0  0  0  0  0  0
    5.9740   17.9316  -13.0810 C   0  0  0  0  0  0  0  0  0  0  0  0
    5.3385   19.1500  -12.7797 O   0  0  0  0  0  0  0  0  0  0  0  0
   11.5408   15.4304  -13.4096 C   0  0  1  0  0  0  0  0  0  0  0  0
   11.4554   14.2655  -14.2349 O   0  0  0  0  0  0  0  0  0  0  0  0
   15.0504    6.8275  -14.6964 C   0  0  0  0  0  0  0  0  0  0  0  0
   13.8216    6.9273  -15.5310 N   0  0  0  0  0  0  0  0  0  0  0  0
  1  2  1  6  0  0  0
  1  7  1  0  0  0  0
  1 30  1  0  0  0  0
  3  4  1  6  0  0  0
  3  9  1  0  0  0  0
  3 39  1  0  0  0  0
  5 10  1  0  0  0  0
  5 26  1  0  0  0  0
  5 32  1  1  0  0  0
  6 12  1  0  0  0  0
  6 36  1  0  0  0  0
  6 19  1  6  0  0  0
  7  8  1  1  0  0  0
  7 14  1  0  0  0  0
  9 16  1  0  0  0  0
 10 11  1  6  0  0  0
 10 18  1  0  0  0  0
 12 13  1  6  0  0  0
 12 20  1  0  0  0  0
 14 15  1  1  0  0  0
 14 22  1  0  0  0  0
 16 17  1  1  0  0  0
 16 24  1  0  0  0  0
 18 19  1  6  0  0  0
 18 25  1  0  0  0  0
 20 21  1  1  0  0  0
 20 27  1  0  0  0  0
 22 23  1  6  0  0  0
 22 29  1  0  0  0  0
 24  2  1  1  0  0  0
 24 31  1  0  0  0  0
 25 26  1  0  0  0  0
 25 33  1  1  0  0  0
 27 28  1  6  0  0  0
 27 35  1  0  0  0  0
 29 30  1  0  0  0  0
 29 37  1  6  0  0  0
 31 32  1  1  0  0  0
 31 39  1  0  0  0  0
 33 34  1  0  0  0  0
 35 36  1  0  0  0  0
 35 41  1  6  0  0  0
 37 38  1  0  0  0  0
 39 40  1  6  0  0  0
 41 42  1  0  0  0  0
M  END
>  <CHROM.1>
-168.80725805,-20.04315790,145.27619215,-38.08558289,-56.49877234,54.42382541
-162.11836506,97.00775636,-162.87144192,11.22839297,13.64539947,-11.74616131
2.70212477,0.77089210,-0.82630256

>  <Name>
ligand

>  <RI>
0

>  <Rbt.Current_Directory>
/home/itssahil/PROJECTS/Mol_Feturizer/Test_systems_manuscript/rnas/2o3w

>  <Rbt.Executable>
rbdock ($Id: //depot/dev/client3/rdock/2013.1/src/exe/rbdock.cxx#4 $)

>  <Rbt.Library>
libRbt.so (2013.1, Build901 2013/11/27)

>  <Rbt.Parameter_File>
/export/apps/rDock/src/rDock_2013.1_src/data/scripts/dock_solv.prm

>  <Rbt.Receptor>
prm/blind_docking_80.prm

>  <SCORE>
17.7366

>  <SCORE.INTER>
-0.535303

>  <SCORE.INTER.CONST>
1

>  <SCORE.INTER.POLAR>
0

>  <SCORE.INTER.ROT>
9

>  <SCORE.INTER.SOLV>
24.2928

>  <SCORE.INTER.VDW>
-18.0545

>  <SCORE.INTER.norm>
-0.0127453

>  <SCORE.INTRA>
3.62264

>  <SCORE.INTRA.DIHEDRAL>
-7.75822

>  <SCORE.INTRA.DIHEDRAL.0>
27.8999

>  <SCORE.INTRA.POLAR>
0

>  <SCORE.INTRA.POLAR.0>
0

>  <SCORE.INTRA.REPUL>
0

>  <SCORE.INTRA.REPUL.0>
0

>  <SCORE.INTRA.SOLV>
-1.20152

>  <SCORE.INTRA.SOLV.lig_0>
-104.479

>  <SCORE.INTRA.VDW>
8.10251

>  <SCORE.INTRA.VDW.0>
-6.17816

>  <SCORE.INTRA.norm>
0.0862534

>  <SCORE.RESTR>
14.6492

>  <SCORE.RESTR.CAVITY>
14.6492

>  <SCORE.RESTR.norm>
0.348791

>  <SCORE.SYSTEM>
0

>  <SCORE.SYSTEM.CONST>
0

>  <SCORE.SYSTEM.DIHEDRAL>
0

>  <SCORE.SYSTEM.SOLV>
0

>  <SCORE.SYSTEM.norm>
0

>  <SCORE.heavy>
42

>  <SCORE.norm>
0.422299

>  <RMSD>
21.062

$$$$
