@<TRIPOS>MOLECULE
2o3w_rdock.pdb
 918 1024 0 0 0
SMALL
GASTEIGER

@<TRIPOS>ATOM
      1  P          8.2250   22.8030  -18.6370 P.3     2  U2          0.1280
      2  C5'        8.0850   20.3790  -17.4900 C.3     2  U2          0.1795
      3  O5'        7.5440   21.3290  -18.4370 O.3     2  U2         -0.3259
      4  C4'        8.5230   19.1170  -18.2000 C.3     2  U2          0.1772
      5  O4'        9.2140   19.4810  -19.4110 O.3     2  U2         -0.3307
      6  C3'        9.5120   18.2410  -17.4410 C.3     2  U2          0.1860
      7  O3'        8.8570   17.1900  -16.7390 O.3     2  U2         -0.3112
      8  C2'       10.2840   17.5240  -18.5490 C.3     2  U2          0.2309
      9  O2'        9.7570   16.2460  -18.8380 O.3     2  U2         -0.2156
     10  C1'       10.0810   18.4320  -19.7630 C.3     2  U2          0.2420
     11  N1        11.2860   18.9640  -20.4140 N.ar    2  U2         -0.2534
     12  C2        12.1900   18.0440  -20.9030 C.ar    2  U2          0.3546
     13  O2        12.0600   16.8430  -20.7470 O.2     2  U2         -0.2443
     14  N3        13.2520   18.5800  -21.5790 N.ar    2  U2         -0.1530
     15  C4        13.5060   19.9130  -21.8010 C.ar    2  U2          0.2846
     16  O4        14.4710   20.2300  -22.4960 O.2     2  U2         -0.2650
     17  C5        12.5460   20.8090  -21.2280 C.ar    2  U2          0.0814
     18  C6        11.4960   20.3140  -20.5660 C.ar    2  U2          0.0870
     19  OP1        9.5630   22.5570  -19.3110 O.3     2  U2         -0.1955
     20  OP2        7.2810   23.6040  -19.5250 O.co2   2  U2         -0.7863
     21  P          7.8130   17.5150  -15.5630 P.3     3  G3          0.2141
     22  C5'        6.2850   16.8800  -17.5980 C.3     3  G3          0.1812
     23  O5'        6.3910   17.3980  -16.2780 O.3     3  G3         -0.3114
     24  C4'        5.0020   16.1060  -17.7590 C.3     3  G3          0.1773
     25  O4'        5.0210   15.4760  -19.0700 O.3     3  G3         -0.3307
     26  C3'        4.8190   14.9680  -16.7610 C.3     3  G3          0.1860
     27  O3'        4.1070   15.4230  -15.6050 O.3     3  G3         -0.3112
     28  C2'        4.0290   13.9530  -17.5760 C.3     3  G3          0.2309
     29  O2'        2.6570   14.2840  -17.6650 O.3     3  G3         -0.2156
     30  C1'        4.6910   14.1050  -18.9480 C.3     3  G3          0.2408
     31  N1         6.8670    9.5210  -19.4790 N.ar    3  G3         -0.1709
     32  C2         5.5320    9.8450  -19.3730 C.ar    3  G3          0.2606
     33  N2         4.6660    8.8220  -19.4110 N.pl3   3  G3         -0.0859
     34  N3         5.0770   11.0840  -19.2380 N.ar    3  G3         -0.1918
     35  C4         6.0790   11.9900  -19.2180 C.ar    3  G3          0.1723
     36  C5         7.4380   11.7700  -19.3180 C.ar    3  G3          0.1748
     37  C6         7.9140   10.4370  -19.4600 C.ar    3  G3          0.3023
     38  O6         9.0800   10.0420  -19.5600 O.2     3  G3         -0.2633
     39  N7         8.1350   12.9720  -19.2600 N.ar    3  G3         -0.2173
     40  C8         7.2060   13.8780  -19.1260 C.ar    3  G3          0.1817
     41  N9         5.9340   13.3530  -19.0910 N.ar    3  G3         -0.2693
     42  OP1        7.9950   18.9270  -15.1240 O.2     3  G3         -0.5172
     43  OP2        7.9240   16.4180  -14.5680 O.co2   3  G3         -0.4373
     44  P          4.1260   14.5530  -14.2450 P.3     4  C4          0.2141
     45  C5'        2.1350   13.0220  -15.0310 C.3     4  C4          0.1812
     46  O5'        3.5120   13.1500  -14.6850 O.3     4  C4         -0.3114
     47  C4'        1.7970   11.5710  -15.2620 C.3     4  C4          0.1773
     48  O4'        2.5370   11.0930  -16.4160 O.3     4  C4         -0.3307
     49  C3'        2.2370   10.6460  -14.1410 C.3     4  C4          0.1860
     50  O3'        1.2880   10.5750  -13.0930 O.3     4  C4         -0.3112
     51  C2'        2.3870    9.3120  -14.8490 C.3     4  C4          0.2309
     52  O2'        1.1590    8.6410  -15.0160 O.3     4  C4         -0.2156
     53  C1'        2.9640    9.7580  -16.1910 C.3     4  C4          0.2420
     54  N1         4.4320    9.7390  -16.1720 N.ar    4  C4         -0.2535
     55  C2         5.0820    8.5300  -16.3770 C.ar    4  C4          0.3532
     56  O2         4.4030    7.5200  -16.5610 O.2     4  C4         -0.2443
     57  N3         6.4310    8.4890  -16.3690 N.ar    4  C4         -0.1739
     58  C4         7.1280    9.6050  -16.1650 C.ar    4  C4          0.1759
     59  N4         8.4620    9.5160  -16.1740 N.pl3   4  C4         -0.1070
     60  C5         6.4910   10.8600  -15.9450 C.ar    4  C4          0.0566
     61  C6         5.1510   10.8810  -15.9560 C.ar    4  C4          0.0850
     62  OP1        3.1650   15.1870  -13.3020 O.3     4  C4         -0.4373
     63  OP2        5.5310   14.3300  -13.8130 O.co2   4  C4         -0.5172
     64  P          1.7870   10.2100  -11.6130 P.3     5  G5          0.2141
     65  C5'        1.0160    7.7470  -12.0760 C.3     5  G5          0.1812
     66  O5'        2.0520    8.6390  -11.6780 O.3     5  G5         -0.3114
     67  C4'        1.5900    6.3950  -12.4210 C.3     5  G5          0.1773
     68  O4'        2.5510    6.5340  -13.5010 O.3     5  G5         -0.3307
     69  C3'        2.3920    5.7200  -11.3250 C.3     5  G5          0.1860
     70  O3'        1.5480    5.0640  -10.3950 O.3     5  G5         -0.3112
     71  C2'        3.2340    4.7270  -12.1140 C.3     5  G5          0.2309
     72  O2'        2.5290    3.5580  -12.4770 O.3     5  G5         -0.2156
     73  C1'        3.5540    5.5390  -13.3680 C.3     5  G5          0.2408
     74  N1         8.5450    4.7960  -13.3690 N.ar    5  G5         -0.1709
     75  C2         7.5200    3.8880  -13.4370 C.ar    5  G5          0.2606
     76  N2         7.8660    2.6000  -13.5180 N.pl3   5  G5         -0.0859
     77  N3         6.2460    4.2140  -13.4220 N.ar    5  G5         -0.1918
     78  C4         6.0690    5.5430  -13.3210 C.ar    5  G5          0.1723
     79  C5         7.0190    6.5360  -13.2370 C.ar    5  G5          0.1748
     80  C6         8.3880    6.1720  -13.2650 C.ar    5  G5          0.3023
     81  O6         9.3840    6.9020  -13.2110 O.2     5  G5         -0.2633
     82  N7         6.4180    7.7850  -13.1320 N.ar    5  G5         -0.2173
     83  C8         5.1350    7.5280  -13.1610 C.ar    5  G5          0.1817
     84  N9         4.8590    6.1860  -13.2830 N.ar    5  G5         -0.2693
     85  OP1        0.6620   10.4590  -10.6760 O.3     5  G5         -0.4373
     86  OP2        3.0860   10.9070  -11.4050 O.co2   5  G5         -0.5172
     87  P          2.0890    4.7650   -8.9130 P.3     6  U6          0.2141
     88  C5'        3.1370    2.4170   -9.3950 C.3     6  U6          0.1812
     89  O5'        3.3350    3.7980   -9.1400 O.3     6  U6         -0.3114
     90  C4'        4.4430    1.6720   -9.2970 C.3     6  U6          0.1773
     91  O4'        5.3420    2.1370  -10.3360 O.3     6  U6         -0.3307
     92  C3'        5.2250    1.8780   -8.0140 C.3     6  U6          0.1860
     93  O3'        4.7490    1.0300   -6.9800 O.3     6  U6         -0.3112
     94  C2'        6.6350    1.5150   -8.4550 C.3     6  U6          0.2309
     95  O2'        6.8160    0.1150   -8.5440 O.3     6  U6         -0.2156
     96  C1'        6.6790    2.1440   -9.8510 C.3     6  U6          0.2420
     97  N1         7.1550    3.5390   -9.8670 N.ar    6  U6         -0.2534
     98  C2         8.5210    3.7840   -9.9350 C.ar    6  U6          0.3546
     99  O2         9.3650    2.9030   -9.9700 O.2     6  U6         -0.2443
    100  N3         8.8640    5.1110   -9.9550 N.ar    6  U6         -0.1530
    101  C4         8.0190    6.1950   -9.9030 C.ar    6  U6          0.2846
    102  O4         8.4940    7.3330   -9.8900 O.2     6  U6         -0.2650
    103  C5         6.6330    5.8640   -9.8300 C.ar    6  U6          0.0814
    104  C6         6.2570    4.5820   -9.8160 C.ar    6  U6          0.0870
    105  OP1        1.0420    4.0030   -8.1890 O.3     6  U6         -0.4373
    106  OP2        2.5740    6.0530   -8.3520 O.co2   6  U6         -0.5172
    107  P          4.8340    1.5190   -5.4500 P.3     7  C7          0.2141
    108  C5'        6.6610   -0.2540   -4.8910 C.3     7  C7          0.1812
    109  O5'        6.3130    1.1200   -5.0190 O.3     7  C7         -0.3114
    110  C4'        8.1490   -0.4410   -5.0220 C.3     7  C7          0.1773
    111  O4'        8.5770    0.1410   -6.2760 O.3     7  C7         -0.3307
    112  C3'        9.0030    0.2640   -3.9840 C.3     7  C7          0.1860
    113  O3'        9.0910   -0.4860   -2.7790 O.3     7  C7         -0.3112
    114  C2'       10.3380    0.3730   -4.7070 C.3     7  C7          0.2309
    115  O2'       11.0680   -0.8360   -4.7360 O.3     7  C7         -0.2156
    116  C1'        9.8680    0.7040   -6.1210 C.3     7  C7          0.2420
    117  N1         9.7720    2.1520   -6.3420 N.ar    7  C7         -0.2535
    118  C2        10.9170    2.8320   -6.7300 C.ar    7  C7          0.3532
    119  O2        11.9650    2.1850   -6.8830 O.2     7  C7         -0.2443
    120  N3        10.8570    4.1720   -6.9290 N.ar    7  C7         -0.1739
    121  C4         9.7050    4.8230   -6.7470 C.ar    7  C7          0.1759
    122  N4         9.6900    6.1400   -6.9500 N.pl3   7  C7         -0.1070
    123  C5         8.5170    4.1480   -6.3510 C.ar    7  C7          0.0566
    124  C6         8.5930    2.8230   -6.1630 C.ar    7  C7          0.0850
    125  OP1        3.9140    0.6650   -4.6560 O.3     7  C7         -0.4373
    126  OP2        4.6680    2.9980   -5.4190 O.co2   7  C7         -0.5172
    127  P          9.1370    0.2860   -1.3700 P.3     8  G8          0.2141
    128  C5'       11.7580    0.1230   -1.3750 C.3     8  G8          0.1812
    129  O5'       10.5920    0.9440   -1.3470 O.3     8  G8         -0.3114
    130  C4'       12.9970    0.9520   -1.6670 C.3     8  G8          0.1773
    131  O4'       12.9330    1.5180   -3.0050 O.3     8  G8         -0.3307
    132  C3'       13.2370    2.1710   -0.7940 C.3     8  G8          0.1860
    133  O3'       13.7750    1.8210    0.4730 O.3     8  G8         -0.3112
    134  C2'       14.2230    2.9680   -1.6380 C.3     8  G8          0.2309
    135  O2'       15.5510    2.4960   -1.5630 O.3     8  G8         -0.2156
    136  C1'       13.6570    2.7420   -3.0410 C.3     8  G8          0.2408
    137  N1        13.2440    7.6040   -4.3850 N.ar    8  G8         -0.1709
    138  C2        14.3660    6.8340   -4.2390 C.ar    8  G8          0.2606
    139  N2        15.5380    7.4580   -4.4080 N.pl3   8  G8         -0.0859
    140  N3        14.3430    5.5470   -3.9370 N.ar    8  G8         -0.1918
    141  C4        13.0840    5.0910   -3.7620 C.ar    8  G8          0.1723
    142  C5        11.8970    5.7770   -3.8790 C.ar    8  G8          0.1748
    143  C6        11.9390    7.1540   -4.2230 C.ar    8  G8          0.3023
    144  O6        11.0000    7.9360   -4.3740 O.2     8  G8         -0.2633
    145  N7        10.8160    4.9420   -3.6140 N.ar    8  G8         -0.2173
    146  C8        11.3590    3.7890   -3.3330 C.ar    8  G8          0.1817
    147  N9        12.7330    3.8180   -3.3790 N.ar    8  G8         -0.2693
    148  OP1        9.0740   -0.7420   -0.2990 O.3     8  G8         -0.4373
    149  OP2        8.1200    1.3750   -1.3990 O.co2   8  G8         -0.5172
    150  P         13.4690    2.7550    1.7350 P.3     9  C9          0.2141
    151  C5'       15.9370    3.5490    1.4220 C.3     9  C9          0.1812
    152  O5'       14.5730    3.8920    1.6030 O.3     9  C9         -0.3114
    153  C4'       16.7340    4.7700    1.0620 C.3     9  C9          0.1773
    154  O4'       16.3950    5.2020   -0.2800 O.3     9  C9         -0.3307
    155  C3'       16.4820    6.0060    1.9060 C.3     9  C9          0.1860
    156  O3'       17.1930    5.9390    3.1310 O.3     9  C9         -0.3112
    157  C2'       17.0400    7.0920    1.0010 C.3     9  C9          0.2309
    158  O2'       18.4560    7.1240    1.0010 O.3     9  C9         -0.2156
    159  C1'       16.5450    6.6100   -0.3650 C.3     9  C9          0.2420
    160  N1        15.2430    7.1990   -0.6830 N.ar    9  C9         -0.2535
    161  C2        15.2050    8.5240   -1.1050 C.ar    9  C9          0.3532
    162  O2        16.2780    9.1480   -1.2150 O.2     9  C9         -0.2443
    163  N3        14.0080    9.0980   -1.3810 N.ar    9  C9         -0.1739
    164  C4        12.8860    8.3920   -1.2500 C.ar    9  C9          0.1759
    165  N4        11.7350    9.0000   -1.5210 N.pl3   9  C9         -0.1070
    166  C5        12.8990    7.0350   -0.8320 C.ar    9  C9          0.0566
    167  C6        14.0900    6.4810   -0.5610 C.ar    9  C9          0.0850
    168  OP1       13.7270    1.9640    2.9620 O.3     9  C9         -0.4373
    169  OP2       12.1350    3.3650    1.5160 O.co2   9  C9         -0.5172
    170  P         16.6130    6.6850    4.4350 P.3    10  U10         0.2141
    171  C5'       17.9140    8.8800    3.8280 C.3    10  U10         0.1812
    172  O5'       16.6760    8.2310    4.0570 O.3    10  U10        -0.3114
    173  C4'       17.6730   10.3030    3.3990 C.3    10  U10         0.1773
    174  O4'       17.0290   10.3110    2.0980 O.3    10  U10        -0.3307
    175  C3'       16.7130   11.0910    4.2760 C.3    10  U10         0.1860
    176  O3'       17.3610   11.6260    5.4230 O.3    10  U10        -0.3112
    177  C2'       16.2500   12.1900    3.3280 C.3    10  U10         0.2309
    178  O2'       17.2020   13.2230    3.2090 O.3    10  U10        -0.2156
    179  C1'       16.1410   11.4210    2.0100 C.3    10  U10         0.2420
    180  N1        14.7800   10.9140    1.7960 N.ar   10  U10        -0.2534
    181  C2        13.8250   11.8150    1.3910 C.ar   10  U10         0.3546
    182  O2        14.0730   12.9780    1.1870 O.2    10  U10        -0.2443
    183  N3        12.5650   11.3000    1.2390 N.ar   10  U10        -0.1530
    184  C4        12.1820    9.9960    1.4490 C.ar   10  U10         0.2846
    185  O4        10.9950    9.6830    1.3290 O.2    10  U10        -0.2650
    186  C5        13.2400    9.1240    1.8510 C.ar   10  U10         0.0814
    187  C6        14.4680    9.6000    2.0040 C.ar   10  U10         0.0870
    188  OP1       17.5930    6.4150    5.5080 O.3    10  U10        -0.4373
    189  OP2       15.1820    6.3240    4.6510 O.co2  10  U10        -0.5172
    190  P         16.5390   11.7860    6.7940 P.3    11  C11         0.2141
    191  C5'       16.3610   14.3120    6.1470 C.3    11  C11         0.1812
    192  O5'       15.7200   13.1330    6.5870 O.3    11  C11        -0.3114
    193  C4'       15.3350   15.2990    5.6550 C.3    11  C11         0.1773
    194  O4'       14.7530   14.8340    4.4100 O.3    11  C11        -0.3307
    195  C3'       14.1280   15.4760    6.5540 C.3    11  C11         0.1860
    196  O3'       14.4360   16.3320    7.6320 O.3    11  C11        -0.3112
    197  C2'       13.1130   16.0790    5.5940 C.3    11  C11         0.2309
    198  O2'       13.2770   17.4600    5.3460 O.3    11  C11        -0.2156
    199  C1'       13.4080   15.2800    4.3240 C.3    11  C11         0.2420
    200  N1        12.5420   14.1060    4.2430 N.ar   11  C11        -0.2535
    201  C2        11.2420   14.2740    3.7880 C.ar   11  C11         0.3532
    202  O2        10.8730   15.4160    3.4310 O.2    11  C11        -0.2443
    203  N3        10.4210   13.2010    3.7390 N.ar   11  C11        -0.1739
    204  C4        10.8710   12.0050    4.1120 C.ar   11  C11         0.1759
    205  N4        10.0380   10.9740    4.0410 N.pl3  11  C11        -0.1070
    206  C5        12.1960   11.8110    4.5720 C.ar   11  C11         0.0566
    207  C6        12.9920   12.8760    4.6200 C.ar   11  C11         0.0850
    208  OP1       17.5190   11.9660    7.8970 O.3    11  C11        -0.4373
    209  OP2       15.5560   10.6760    6.8650 O.co2  11  C11        -0.5172
    210  P         13.6450   16.1800    9.0170 P.3    12  C12         0.2141
    211  C5'       12.0050   18.0810    8.2940 C.3    12  C12         0.1812
    212  O5'       12.1860   16.7180    8.6540 O.3    12  C12        -0.3114
    213  C4'       10.5820   18.3480    7.8790 C.3    12  C12         0.1773
    214  O4'       10.2900   17.5870    6.6830 O.3    12  C12        -0.3307
    215  C3'        9.4780   17.9310    8.8300 C.3    12  C12         0.1860
    216  O3'        9.2780   18.8590    9.8860 O.3    12  C12        -0.3112
    217  C2'        8.2820   17.9000    7.8910 C.3    12  C12         0.2309
    218  O2'        7.8190   19.2040    7.5820 O.3    12  C12        -0.2156
    219  C1'        8.9060   17.2550    6.6510 C.3    12  C12         0.2420
    220  N1         8.7720   15.7820    6.6240 N.ar   12  C12        -0.2535
    221  C2         7.5630   15.2230    6.2020 C.ar   12  C12         0.3532
    222  O2         6.6470   15.9710    5.8460 O.2    12  C12        -0.2443
    223  N3         7.4250   13.8800    6.1920 N.ar   12  C12        -0.1739
    224  C4         8.4360   13.1050    6.5860 C.ar   12  C12         0.1759
    225  N4         8.2460   11.7860    6.5790 N.pl3  12  C12        -0.1070
    226  C5         9.6830   13.6450    7.0080 C.ar   12  C12         0.0566
    227  C6         9.8060   14.9740    7.0080 C.ar   12  C12         0.0850
    228  OP1       14.2730   17.1560    9.9500 O.3    12  C12        -0.4373
    229  OP2       13.5970   14.7410    9.3860 O.co2  12  C12        -0.5172
    230  P          8.5590   18.3710   11.2410 P.3    13  G13         0.2141
    231  C5'        6.2010   19.2100   10.5060 C.3    13  G13         0.1812
    232  O5'        7.0540   18.1160   10.8010 O.3    13  G13        -0.3114
    233  C4'        4.7870   18.7280   10.2960 C.3    13  G13         0.1773
    234  O4'        4.6920   17.9860    9.0520 O.3    13  G13        -0.3307
    235  C3'        4.2510   17.7710   11.3410 C.3    13  G13         0.1860
    236  O3'        3.7390   18.4840   12.4500 O.3    13  G13        -0.3112
    237  C2'        3.1220   17.1020   10.5780 C.3    13  G13         0.2309
    238  O2'        1.9750   17.9230   10.4880 O.3    13  G13        -0.2156
    239  C1'        3.7580   16.9320    9.1990 C.3    13  G13         0.2408
    240  N1         3.3310   11.9340    8.6110 N.ar   13  G13        -0.1709
    241  C2         2.3690   12.9030    8.5760 C.ar   13  G13         0.2606
    242  N2         1.1060   12.4770    8.4170 N.pl3  13  G13        -0.0859
    243  N3         2.6160   14.1970    8.7040 N.ar   13  G13        -0.1918
    244  C4         3.9180   14.4390    8.9110 C.ar   13  G13         0.1723
    245  C5         4.9590   13.5430    8.9790 C.ar   13  G13         0.1748
    246  C6         4.6840   12.1650    8.8050 C.ar   13  G13         0.3023
    247  O6         5.4730   11.2170    8.8050 O.2    13  G13        -0.2633
    248  N7         6.1590   14.2000    9.2140 N.ar   13  G13        -0.2173
    249  C8         5.8260   15.4600    9.2850 C.ar   13  G13         0.1817
    250  N9         4.4780   15.6680    9.1250 N.ar   13  G13        -0.2693
    251  OP1        8.5290   19.5170   12.1780 O.3    13  G13        -0.4373
    252  OP2        9.1700   17.0840   11.6730 O.co2  13  G13        -0.5172
    253  P          3.7450   17.8070   13.9060 P.3    14  G14         0.2141
    254  C5'        1.3950   16.7460   13.4080 C.3    14  G14         0.1812
    255  O5'        2.7620   16.5520   13.7640 O.3    14  G14        -0.3114
    256  C4'        0.7090   15.4290   13.1150 C.3    14  G14         0.1773
    257  O4'        1.3410   14.7600   11.9950 O.3    14  G14        -0.3307
    258  C3'        0.7200   14.3430   14.1770 C.3    14  G14         0.1860
    259  O3'       -0.2140   14.6110   15.2160 O.3    14  G14        -0.3112
    260  C2'        0.2660   13.1430   13.3520 C.3    14  G14         0.2309
    261  O2'       -1.1190   13.1870   13.0730 O.3    14  G14        -0.2156
    262  C1'        1.0360   13.3720   12.0520 C.3    14  G14         0.2408
    263  N1         3.0750    8.7860   11.3690 N.ar   14  G14        -0.1709
    264  C2         1.7600    9.1710   11.3880 C.ar   14  G14         0.2606
    265  N2         0.8660    8.2100   11.1810 N.pl3  14  G14        -0.0859
    266  N3         1.3510   10.4090   11.5940 N.ar   14  G14        -0.1918
    267  C4         2.3760   11.2520   11.7920 C.ar   14  G14         0.1723
    268  C5         3.7250   10.9760   11.8090 C.ar   14  G14         0.1748
    269  C6         4.1560    9.6410   11.5650 C.ar   14  G14         0.3023
    270  O6         5.3180    9.2020   11.5000 O.2    14  G14        -0.2633
    271  N7         4.4570   12.1270   12.0540 N.ar   14  G14        -0.2173
    272  C8         3.5550   13.0650   12.1620 C.ar   14  G14         0.1817
    273  N9         2.2740   12.6010   12.0060 N.ar   14  G14        -0.2693
    274  OP1        3.1130   18.8120   14.7990 O.3    14  G14        -0.4373
    275  OP2        5.1120   17.3100   14.2090 O.co2  14  G14        -0.5172
    276  P         -0.0760   13.8580   16.6330 P.3    15  A15         0.2141
    277  C5'       -2.0230   12.1420   16.2620 C.3    15  A15         0.1812
    278  O5'       -0.6260   12.3760   16.3840 O.3    15  A15        -0.3114
    279  C4'       -2.3010   10.6850   15.9820 C.3    15  A15         0.1773
    280  O4'       -1.5320   10.2810   14.8260 O.3    15  A15        -0.3307
    281  C3'       -1.9330    9.6870   17.0700 C.3    15  A15         0.1860
    282  O3'       -3.0260    9.4790   17.9630 O.3    15  A15        -0.3112
    283  C2'       -1.7290    8.4060   16.2790 C.3    15  A15         0.2309
    284  O2'       -2.9690    7.7840   16.0390 O.3    15  A15        -0.2156
    285  C1'       -1.1300    8.9320   14.9720 C.3    15  A15         0.2408
    286  N1         3.0400    6.0680   14.0450 N.ar   15  A15        -0.2040
    287  C2         1.7330    5.7930   14.0040 C.ar   15  A15         0.2016
    288  N3         0.6910    6.5880   14.2660 N.ar   15  A15        -0.2048
    289  C4         1.1080    7.8130   14.6120 C.ar   15  A15         0.1692
    290  C5         2.4190    8.2470   14.7030 C.ar   15  A15         0.1518
    291  C6         3.4210    7.3160   14.3990 C.ar   15  A15         0.1919
    292  N6         4.7200    7.6090   14.4400 N.pl3  15  A15        -0.1054
    293  N7         2.4750    9.5810   15.0880 N.ar   15  A15        -0.2193
    294  C8         1.2120    9.9180   15.2200 C.ar   15  A15         0.1816
    295  N9         0.3310    8.8930   14.9410 N.ar   15  A15        -0.2693
    296  OP1       -1.0430   14.5930   17.4890 O.3    15  A15        -0.4373
    297  OP2        1.3570   13.7840   17.0350 O.co2  15  A15        -0.5172
    298  P         -2.7460    9.0270   19.4880 P.3    16  A16         0.2141
    299  C5'       -2.4500    6.6010   20.4390 C.3    16  A16         0.1812
    300  O5'       -2.2310    7.5260   19.3770 O.3    16  A16        -0.3114
    301  C4'       -2.9180    5.2810   19.8830 C.3    16  A16         0.1773
    302  O4'       -4.2890    5.3980   19.4560 O.3    16  A16        -0.3307
    303  C3'       -2.1580    4.8420   18.6380 C.3    16  A16         0.1860
    304  O3'       -1.0290    4.0280   18.9410 O.3    16  A16        -0.3112
    305  C2'       -3.1620    3.9700   17.8780 C.3    16  A16         0.2309
    306  O2'       -3.0420    2.5680   18.1100 O.3    16  A16        -0.2156
    307  C1'       -4.5050    4.4920   18.3960 C.3    16  A16         0.2408
    308  N1        -7.8000    3.5150   14.6790 N.ar   16  A16        -0.2040
    309  C2        -7.0100    2.7360   15.4130 C.ar   16  A16         0.2016
    310  N3        -6.1240    3.0770   16.3380 N.ar   16  A16        -0.2048
    311  C4        -6.0820    4.4110   16.4810 C.ar   16  A16         0.1692
    312  C5        -6.8210    5.3430   15.7930 C.ar   16  A16         0.1518
    313  C6        -7.7360    4.8530   14.8600 C.ar   16  A16         0.1919
    314  N6        -8.5570    5.6350   14.1620 N.pl3  16  A16        -0.1054
    315  N7        -6.5060    6.6300   16.2140 N.ar   16  A16        -0.2193
    316  C8        -5.6120    6.4430   17.1510 C.ar   16  A16         0.1816
    317  N9        -5.3390    5.1220   17.3860 N.ar   16  A16        -0.2693
    318  OP1       -4.0190    8.9500   20.2410 O.3    16  A16        -0.4373
    319  OP2       -1.6500    9.9100   19.9750 O.co2  16  A16        -0.5172
    320  P         -0.8700    3.3410   20.3920 P.3    17  A17         0.2141
    321  C5'        0.5830    1.6000   19.0520 C.3    17  A17         0.1812
    322  O5'        0.4430    2.4660   20.1880 O.3    17  A17        -0.3114
    323  C4'        1.7220    2.0690   18.1660 C.3    17  A17         0.1773
    324  O4'        1.3260    3.2040   17.3330 O.3    17  A17        -0.3307
    325  C3'        2.9540    2.5750   18.8970 C.3    17  A17         0.1860
    326  O3'        3.7530    1.5070   19.4010 O.3    17  A17        -0.3112
    327  C2'        3.6560    3.3680   17.7960 C.3    17  A17         0.2309
    328  O2'        4.3550    2.5110   16.9020 O.3    17  A17        -0.2156
    329  C1'        2.4630    4.0240   17.0850 C.3    17  A17         0.2408
    330  N1         4.3520    8.7420   18.0010 N.ar   17  A17        -0.2040
    331  C2         4.9320    7.5880   17.6230 C.ar   17  A17         0.2016
    332  N3         4.3770    6.3860   17.4130 N.ar   17  A17        -0.2048
    333  C4         3.0570    6.4300   17.6390 C.ar   17  A17         0.1692
    334  C5         2.3170    7.5330   18.0300 C.ar   17  A17         0.1518
    335  C6         3.0200    8.7520   18.2060 C.ar   17  A17         0.1919
    336  N6         2.4450    9.9130   18.5440 N.pl3  17  A17        -0.1054
    337  N7         0.9770    7.2040   18.1450 N.ar   17  A17        -0.2193
    338  C8         0.9370    5.9310   17.8270 C.ar   17  A17         0.1816
    339  N9         2.1610    5.3990   17.5060 N.ar   17  A17        -0.2693
    340  OP1       -1.9820    2.3960   20.6090 O.2    17  A17        -0.5172
    341  OP2       -0.5800    4.3870   21.4010 O.co2  17  A17        -0.4373
    342  P          4.6510    1.7410   20.7230 P.3    18  A18         0.2141
    343  C5'        4.4080   -0.7360   21.4680 C.3    18  A18         0.1812
    344  O5'        5.2630    0.3050   21.0330 O.3    18  A18        -0.3114
    345  C4'        5.1150   -2.0570   21.4120 C.3    18  A18         0.1773
    346  O4'        5.7150   -2.2150   20.1010 O.3    18  A18        -0.3307
    347  C3'        6.2780   -2.2370   22.3680 C.3    18  A18         0.1860
    348  O3'        5.7800   -2.6360   23.6460 O.3    18  A18        -0.3112
    349  C2'        7.0580   -3.3600   21.6830 C.3    18  A18         0.2309
    350  O2'        6.4940   -4.6420   21.8730 O.3    18  A18        -0.2156
    351  C1'        6.8930   -2.9950   20.2090 C.3    18  A18         0.2408
    352  N1        11.1340   -2.9610   17.3040 N.ar   18  A18        -0.2040
    353  C2        10.2530   -3.9290   17.5890 C.ar   18  A18         0.2016
    354  N3         9.1650   -3.8780   18.3470 N.ar   18  A18        -0.2048
    355  C4         9.0060   -2.6460   18.8590 C.ar   18  A18         0.1692
    356  C5         9.8250   -1.5530   18.6560 C.ar   18  A18         0.1518
    357  C6        10.9380   -1.7320   17.8360 C.ar   18  A18         0.1919
    358  N6        11.8070   -0.7520   17.5560 N.pl3  18  A18        -0.1054
    359  N7         9.3460   -0.4450   19.3360 N.ar   18  A18        -0.2193
    360  C8         8.2640   -0.8860   19.9270 C.ar   18  A18         0.1816
    361  N9         8.0030   -2.2080   19.6880 N.ar   18  A18        -0.2693
    362  OP1        3.7090    2.0480   21.8280 O.3    18  A18        -0.4373
    363  OP2        5.7420    2.7000   20.4080 O.co2  18  A18        -0.5172
    364  P          6.0700   -1.7290   24.9440 P.3    19  G19         0.2141
    365  C5'        8.5650   -2.5150   24.8670 C.3    19  G19         0.1812
    366  O5'        7.6320   -1.4480   24.8690 O.3    19  G19        -0.3114
    367  C4'        9.7980   -2.1030   24.1120 C.3    19  G19         0.1773
    368  O4'        9.3320   -1.4080   22.9240 O.3    19  G19        -0.3307
    369  C3'       10.6960   -1.0730   24.7800 C.3    19  G19         0.1860
    370  O3'       11.6650   -1.6730   25.6250 O.3    19  G19        -0.3112
    371  C2'       11.3820   -0.4470   23.5820 C.3    19  G19         0.2309
    372  O2'       12.3510   -1.3150   23.0320 O.3    19  G19        -0.2156
    373  C1'       10.2030   -0.3290   22.6240 C.3    19  G19         0.2408
    374  N1        10.4680    4.6370   22.0040 N.ar   19  G19        -0.1709
    375  C2        11.3610    3.6460   21.6800 C.ar   19  G19         0.2606
    376  N2        12.5100    4.0270   21.1050 N.pl3  19  G19        -0.0859
    377  N3        11.1510    2.3680   21.9040 N.ar   19  G19        -0.1918
    378  C4         9.9690    2.1460   22.4880 C.ar   19  G19         0.1723
    379  C5         9.0040    3.0500   22.8670 C.ar   19  G19         0.1748
    380  C6         9.2380    4.4340   22.6220 C.ar   19  G19         0.3023
    381  O6         8.5120    5.4040   22.8920 O.2    19  G19        -0.2633
    382  N7         7.9200    2.3980   23.4490 N.ar   19  G19        -0.2173
    383  C8         8.2520    1.1360   23.4040 C.ar   19  G19         0.1817
    384  N9         9.4900    0.9260   22.8320 N.ar   19  G19        -0.2693
    385  OP1        5.7970   -2.5640   26.1340 O.3    19  G19        -0.4373
    386  OP2        5.3670   -0.4380   24.8080 O.co2  19  G19        -0.5172
    387  P         12.3000   -0.8210   26.8310 P.3    20  U20         0.2141
    388  C5'       14.2930    0.0120   25.3540 C.3    20  U20         0.1812
    389  O5'       13.1310    0.3250   26.1030 O.3    20  U20        -0.3114
    390  C4'       15.0470    1.2720   25.0070 C.3    20  U20         0.1773
    391  O4'       14.2160    2.1250   24.1770 O.3    20  U20        -0.3307
    392  C3'       15.4240    2.1860   26.1610 C.3    20  U20         0.1860
    393  O3'       16.5710    1.6780   26.8520 O.3    20  U20        -0.3112
    394  C2'       15.7070    3.4920   25.4170 C.3    20  U20         0.2309
    395  O2'       16.9570    3.5080   24.7580 O.3    20  U20        -0.2156
    396  C1'       14.6270    3.4700   24.3330 C.3    20  U20         0.2420
    397  N1        13.4570    4.3050   24.6350 N.ar   20  U20        -0.2534
    398  C2        13.6370    5.6760   24.5760 C.ar   20  U20         0.3546
    399  O2        14.7100    6.1820   24.2910 O.2    20  U20        -0.2443
    400  N3        12.5280    6.4320   24.8600 N.ar   20  U20        -0.1530
    401  C4        11.2800    5.9620   25.1840 C.ar   20  U20         0.2846
    402  O4        10.3670    6.7630   25.3840 O.2    20  U20        -0.2650
    403  C5        11.1720    4.5280   25.2280 C.ar   20  U20         0.0814
    404  C6        12.2400    3.7690   24.9590 C.ar   20  U20         0.0870
    405  OP1       13.2480   -1.7280   27.5230 O.2    20  U20        -0.5172
    406  OP2       11.1880   -0.1870   27.5910 O.co2  20  U20        -0.4373
    407  P         16.6590    1.7680   28.4670 P.3    21  C21         0.2141
    408  C5'       18.2270    3.8590   28.3260 C.3    21  C21         0.1812
    409  O5'       17.0000    3.2930   28.7600 O.3    21  C21        -0.3114
    410  C4'       18.1290    5.3600   28.3430 C.3    21  C21         0.1773
    411  O4'       17.1440    5.7810   27.3610 O.3    21  C21        -0.3307
    412  C3'       17.6030    5.9500   29.6410 C.3    21  C21         0.1860
    413  O3'       18.6120    6.0570   30.6340 O.3    21  C21        -0.3112
    414  C2'       17.0910    7.3060   29.1820 C.3    21  C21         0.2309
    415  O2'       18.1160    8.2640   29.0000 O.3    21  C21        -0.2156
    416  C1'       16.4660    6.9360   27.8350 C.3    21  C21         0.2420
    417  N1        15.0360    6.6230   27.9770 N.ar   21  C21        -0.2535
    418  C2        14.1210    7.6690   27.8910 C.ar   21  C21         0.3532
    419  O2        14.5450    8.8140   27.6740 O.2    21  C21        -0.2443
    420  N3        12.8060    7.4130   28.0480 N.ar   21  C21        -0.1739
    421  C4        12.3950    6.1700   28.2870 C.ar   21  C21         0.1759
    422  N4        11.0950    5.9730   28.4540 N.pl3  21  C21        -0.1070
    423  C5        13.3040    5.0770   28.3680 C.ar   21  C21         0.0566
    424  C6        14.6060    5.3450   28.2050 C.ar   21  C21         0.0850
    425  OP1       17.8380    0.9580   28.8650 O.2    21  C21        -0.5172
    426  OP2       15.3350    1.4910   29.0940 O.co2  21  C21        -0.4373
    427  P         18.2100    5.9270   32.1890 P.3    22  G22         0.2141
    428  C5'       18.2910    8.5360   32.3580 C.3    22  G22         0.1812
    429  O5'       17.5530    7.3370   32.5410 O.3    22  G22        -0.3114
    430  C4'       17.3670    9.7280   32.3280 C.3    22  G22         0.1773
    431  O4'       16.4440    9.6150   31.2130 O.3    22  G22        -0.3307
    432  C3'       16.4400    9.8860   33.5170 C.3    22  G22         0.1860
    433  O3'       17.1060   10.4570   34.6310 O.3    22  G22        -0.3112
    434  C2'       15.3760   10.8230   32.9620 C.3    22  G22         0.2309
    435  O2'       15.7790   12.1760   32.9540 O.3    22  G22        -0.2156
    436  C1'       15.2430   10.3070   31.5290 C.3    22  G22         0.2408
    437  N1        10.2060   10.0150   31.3860 N.ar   22  G22        -0.1709
    438  C2        11.0190   11.1060   31.5570 C.ar   22  G22         0.2606
    439  N2        10.4080   12.2890   31.7280 N.pl3  22  G22        -0.0859
    440  N3        12.3370   11.0460   31.5650 N.ar   22  G22        -0.1918
    441  C4        12.7870    9.7860   31.3960 C.ar   22  G22         0.1723
    442  C5        12.0650    8.6270   31.2230 C.ar   22  G22         0.1748
    443  C6        10.6470    8.7070   31.2090 C.ar   22  G22         0.3023
    444  O6         9.8240    7.7960   31.0670 O.2    22  G22        -0.2633
    445  N7        12.9120    7.5350   31.0910 N.ar   22  G22        -0.2173
    446  C8        14.1110    8.0440   31.1840 C.ar   22  G22         0.1817
    447  N9        14.1040    9.4050   31.3720 N.ar   22  G22        -0.2693
    448  OP1       19.4810    5.8000   32.9460 O.3    22  G22        -0.4373
    449  OP2       17.1670    4.8730   32.3240 O.co2  22  G22        -0.5172
    450  P         16.5130   10.2290   36.1060 P.3    23  C23         0.2141
    451  C5'       15.1840   12.4850   35.9290 C.3    23  C23         0.1813
    452  O5'       15.1580   11.0710   36.1000 O.3    23  C23        -0.3114
    453  C4'       13.7910   13.0480   36.0320 C.3    23  C23         0.1801
    454  O4'       12.9860   12.5290   34.9450 O.3    23  C23        -0.3306
    455  C3'       13.0190   12.6450   37.2750 C.3    23  C23         0.2161
    456  O3'       13.4090   13.4010   38.4270 O.3    23  C23        -0.2175
    457  C2'       11.5710   12.8470   36.8420 C.3    23  C23         0.2338
    458  O2'       11.1450   14.1910   36.9700 O.3    23  C23        -0.2155
    459  C1'       11.6300   12.4470   35.3610 C.3    23  C23         0.2421
    460  N1        11.1290   11.0870   35.0820 N.ar   23  C23        -0.2535
    461  C2         9.7500   10.8980   34.9350 C.ar   23  C23         0.3532
    462  O2         8.9980   11.8820   35.0210 O.2    23  C23        -0.2443
    463  N3         9.2760    9.6530   34.6980 N.ar   23  C23        -0.1739
    464  C4        10.1240    8.6250   34.5960 C.ar   23  C23         0.1759
    465  N4         9.6160    7.4140   34.3630 N.pl3  23  C23        -0.1070
    466  C5        11.5330    8.7940   34.7280 C.ar   23  C23         0.0566
    467  C6        11.9870   10.0290   34.9710 C.ar   23  C23         0.0850
    468  OP1       17.4530   10.8700   37.0570 O.3    23  C23        -0.4373
    469  OP2       16.1900    8.7860   36.2640 O.co2  23  C23        -0.5172
    470  P         -2.1080    6.0770   33.4850 P.3    26  G26         0.1280
    471  C5'       -1.0660    7.8980   31.8030 C.3    26  G26         0.1795
    472  O5'       -0.8720    6.7390   32.6440 O.3    26  G26        -0.3259
    473  C4'       -0.5480    9.1450   32.4910 C.3    26  G26         0.1772
    474  O4'        0.1360    8.7770   33.7200 O.3    26  G26        -0.3307
    475  C3'        0.4900    9.9310   31.7060 C.3    26  G26         0.1860
    476  O3'       -0.1250   10.8400   30.8120 O.3    26  G26        -0.3112
    477  C2'        1.2430   10.6700   32.8010 C.3    26  G26         0.2309
    478  O2'        0.5610   11.8340   33.2260 O.3    26  G26        -0.2156
    479  C1'        1.2650    9.6190   33.9140 C.3    26  G26         0.2408
    480  N1         6.3380    9.3840   34.4230 N.ar   26  G26        -0.1709
    481  C2         5.5170   10.4820   34.4740 C.ar   26  G26         0.2606
    482  N2         6.1230   11.6570   34.6820 N.pl3  26  G26        -0.0859
    483  N3         4.2020   10.4300   34.3280 N.ar   26  G26        -0.1918
    484  C4         3.7690    9.1680   34.1120 C.ar   26  G26         0.1723
    485  C5         4.5100    8.0080   34.0360 C.ar   26  G26         0.1748
    486  C6         5.9140    8.0790   34.2050 C.ar   26  G26         0.3023
    487  O6         6.7370    7.1570   34.1820 O.2    26  G26        -0.2633
    488  N7         3.6920    6.9140   33.7940 N.ar   26  G26        -0.2173
    489  C8         2.4890    7.4140   33.7320 C.ar   26  G26         0.1817
    490  N9         2.4590    8.7730   33.9170 N.ar   26  G26        -0.2693
    491  OP1       -3.3620    6.8620   33.1190 O.3    26  G26        -0.1955
    492  OP2       -2.1690    4.6210   33.0400 O.co2  26  G26        -0.7863
    493  P          0.6870   11.3550   29.5310 P.3    27  C27         0.2141
    494  C5'        1.6120   13.4770   30.7830 C.3    27  C27         0.1812
    495  O5'        1.8670   12.2330   30.1380 O.3    27  C27        -0.3114
    496  C4'        2.9140   14.2040   31.0210 C.3    27  C27         0.1773
    497  O4'        3.6930   13.4970   32.0260 O.3    27  C27        -0.3307
    498  C3'        3.8260   14.2440   29.8060 C.3    27  C27         0.1860
    499  O3'        3.4990   15.3210   28.9420 O.3    27  C27        -0.3112
    500  C2'        5.1980   14.4270   30.4360 C.3    27  C27         0.2309
    501  O2'        5.4460   15.7750   30.7910 O.3    27  C27        -0.2156
    502  C1'        5.0710   13.5470   31.6830 C.3    27  C27         0.2420
    503  N1         5.5390   12.1710   31.4560 N.ar   27  C27        -0.2535
    504  C2         6.9100   11.9200   31.4230 C.ar   27  C27         0.3532
    505  O2         7.6960   12.8630   31.5660 O.2    27  C27        -0.2443
    506  N3         7.3460   10.6560   31.2320 N.ar   27  C27        -0.1739
    507  C4         6.4710    9.6680   31.0660 C.ar   27  C27         0.1759
    508  N4         6.9510    8.4370   30.8880 N.pl3  27  C27        -0.1070
    509  C5         5.0680    9.8970   31.0790 C.ar   27  C27         0.0566
    510  C6         4.6500   11.1510   31.2790 C.ar   27  C27         0.0850
    511  OP1       -0.2130   12.2490   28.7700 O.2    27  C27        -0.5172
    512  OP2        1.2910   10.1750   28.8670 O.co2  27  C27        -0.4373
    513  P          3.6110   15.1190   27.3580 P.3    28  G28         0.2141
    514  C5'        5.9630   16.3010   27.2280 C.3    28  G28         0.1812
    515  O5'        5.1830   15.1130   27.0660 O.3    28  G28        -0.3114
    516  C4'        7.4430   15.9730   27.3120 C.3    28  G28         0.1773
    517  O4'        7.6350   14.9150   28.2850 O.3    28  G28        -0.3307
    518  C3'        8.1250   15.4180   26.0680 C.3    28  G28         0.1860
    519  O3'        8.5350   16.4480   25.1760 O.3    28  G28        -0.3112
    520  C2'        9.3560   14.7260   26.6470 C.3    28  G28         0.2309
    521  O2'       10.4660   15.5730   26.8540 O.3    28  G28        -0.2156
    522  C1'        8.8320   14.2220   27.9880 C.3    28  G28         0.2408
    523  N1        10.9990    9.6820   28.1110 N.ar   28  G28        -0.1709
    524  C2        11.5630   10.9330   28.1700 C.ar   28  G28         0.2606
    525  N2        12.8930   10.9910   28.2830 N.pl3  28  G28        -0.0859
    526  N3        10.8710   12.0510   28.1260 N.ar   28  G28        -0.1918
    527  C4         9.5460   11.8250   28.0180 C.ar   28  G28         0.1723
    528  C5         8.8760   10.6250   27.9500 C.ar   28  G28         0.1748
    529  C6         9.6340    9.4200   27.9990 C.ar   28  G28         0.3023
    530  O6         9.2300    8.2480   27.9560 O.2    28  G28        -0.2633
    531  N7         7.5060   10.8310   27.8390 N.ar   28  G28        -0.2173
    532  C8         7.3760   12.1310   27.8450 C.ar   28  G28         0.1817
    533  N9         8.5770   12.7880   27.9530 N.ar   28  G28        -0.2693
    534  OP1        3.0090   16.3240   26.7260 O.2    28  G28        -0.5172
    535  OP2        3.0580   13.7700   27.0550 O.co2  28  G28        -0.4373
    536  P          8.9690   16.0730   23.6680 P.3    29  U29         0.2141
    537  C5'       11.5580   15.6600   23.8400 C.3    29  U29         0.1812
    538  O5'       10.2410   15.1160   23.8140 O.3    29  U29        -0.3114
    539  C4'       12.6000   14.5620   23.8010 C.3    29  U29         0.1773
    540  O4'       12.4020   13.6720   24.9350 O.3    29  U29        -0.3307
    541  C3'       12.6160   13.6380   22.5880 C.3    29  U29         0.1860
    542  O3'       13.3500   14.2040   21.4950 O.3    29  U29        -0.3112
    543  C2'       13.3370   12.4180   23.1520 C.3    29  U29         0.2309
    544  O2'       14.7350   12.6060   23.2130 O.3    29  U29        -0.2156
    545  C1'       12.7590   12.3460   24.5700 C.3    29  U29         0.2420
    546  N1        11.5480   11.5110   24.6440 N.ar   29  U29        -0.2534
    547  C2        11.6970   10.1300   24.7370 C.ar   29  U29         0.3546
    548  O2        12.7800    9.5690   24.8110 O.2    29  U29        -0.2443
    549  N3        10.5200    9.4250   24.7470 N.ar   29  U29        -0.1530
    550  C4         9.2400    9.9310   24.6890 C.ar   29  U29         0.2846
    551  O4         8.2820    9.1520   24.6750 O.2    29  U29        -0.2650
    552  C5         9.1670   11.3610   24.6220 C.ar   29  U29         0.0814
    553  C6        10.2950   12.0840   24.6020 C.ar   29  U29         0.0870
    554  OP1        9.4230   17.3380   23.0280 O.2    29  U29        -0.5172
    555  OP2        7.8570   15.2970   23.0570 O.co2  29  U29        -0.4373
    556  P         13.0020   13.7770   19.9700 P.3    30  C30         0.2141
    557  C5'       14.9890   12.1700   19.3930 C.3    30  C30         0.1812
    558  O5'       13.6290   12.3230   19.7820 O.3    30  C30        -0.3114
    559  C4'       15.4520   10.7580   19.6470 C.3    30  C30         0.1773
    560  O4'       14.9690   10.3480   20.9560 O.3    30  C30        -0.3307
    561  C3'       14.9110    9.6870   18.7110 C.3    30  C30         0.1860
    562  O3'       15.7190    9.5590   17.5480 O.3    30  C30        -0.3112
    563  C2'       15.0450    8.4290   19.5560 C.3    30  C30         0.2309
    564  O2'       16.3610    7.9090   19.5440 O.3    30  C30        -0.2156
    565  C1'       14.6860    8.9570   20.9470 C.3    30  C30         0.2420
    566  N1        13.2590    8.7660   21.2440 N.ar   30  C30        -0.2535
    567  C2        12.7720    7.4620   21.3580 C.ar   30  C30         0.3532
    568  O2        13.5640    6.5190   21.2440 O.2    30  C30        -0.2443
    569  N3        11.4570    7.2640   21.5920 N.ar   30  C30        -0.1739
    570  C4        10.6390    8.3060   21.7220 C.ar   30  C30         0.1759
    571  N4         9.3460    8.0560   21.9420 N.pl3  30  C30        -0.1070
    572  C5        11.1090    9.6500   21.6290 C.ar   30  C30         0.0566
    573  C6        12.4170    9.8320   21.3920 C.ar   30  C30         0.0850
    574  OP1       13.7670   14.6560   19.0560 O.2    30  C30        -0.5172
    575  OP2       11.5280   13.6940   19.8300 O.co2  30  C30        -0.4373
    576  P         15.0820    8.9620   16.1970 P.3    31  G31         0.2141
    577  C5'       15.4640    6.3900   16.5940 C.3    31  G31         0.1812
    578  O5'       14.5670    7.5010   16.5970 O.3    31  G31        -0.3114
    579  C4'       14.7240    5.0820   16.8130 C.3    31  G31         0.1773
    580  O4'       13.9810    5.1350   18.0590 O.3    31  G31        -0.3307
    581  C3'       13.6570    4.6970   15.8050 C.3    31  G31         0.1860
    582  O3'       14.1820    4.0980   14.6360 O.3    31  G31        -0.3112
    583  C2'       12.8420    3.6710   16.5760 C.3    31  G31         0.2309
    584  O2'       13.4520    2.3940   16.5930 O.3    31  G31        -0.2156
    585  C1'       12.8490    4.2830   17.9730 C.3    31  G31         0.2408
    586  N1         8.0000    4.2350   19.4730 N.ar   31  G31        -0.1709
    587  C2         8.8360    3.1800   19.2080 C.ar   31  G31         0.2606
    588  N2         8.3200    1.9580   19.4030 N.pl3  31  G31        -0.0859
    589  N3        10.0830    3.3130   18.7800 N.ar   31  G31        -0.1918
    590  C4        10.4280    4.6110   18.6230 C.ar   31  G31         0.1723
    591  C5         9.6640    5.7340   18.8410 C.ar   31  G31         0.1748
    592  C6         8.3310    5.5770   19.3240 C.ar   31  G31         0.3023
    593  O6         7.5010    6.4550   19.6190 O.2    31  G31        -0.2633
    594  N7        10.3890    6.8840   18.5530 N.ar   31  G31        -0.2173
    595  C8        11.5630    6.4450   18.1960 C.ar   31  G31         0.1817
    596  N9        11.6610    5.0800   18.2400 N.ar   31  G31        -0.2693
    597  OP1       16.1970    8.8070   15.2220 O.2    31  G31        -0.5172
    598  OP2       13.9090    9.8150   15.8500 O.co2  31  G31        -0.4373
    599  P         13.2190    3.9080   13.3680 P.3    32  C32         0.2141
    600  C5'       12.8310    1.3490   13.8190 C.3    32  C32         0.1812
    601  O5'       12.2970    2.6640   13.7500 O.3    32  C32        -0.3114
    602  C4'       11.7320    0.3590   14.1080 C.3    32  C32         0.1773
    603  O4'       11.1280    0.6710   15.3900 O.3    32  C32        -0.3307
    604  C3'       10.5690    0.4000   13.1440 C.3    32  C32         0.1860
    605  O3'       10.8450   -0.3780   11.9930 O.3    32  C32        -0.3112
    606  C2'        9.4370   -0.1910   13.9750 C.3    32  C32         0.2309
    607  O2'        9.4450   -1.6060   14.0330 O.3    32  C32        -0.2156
    608  C1'        9.7380    0.4020   15.3490 C.3    32  C32         0.2420
    609  N1         9.0250    1.6610   15.6120 N.ar   32  C32        -0.2535
    610  C2         7.6890    1.6110   16.0210 C.ar   32  C32         0.3532
    611  O2         7.1210    0.5020   16.1000 O.2    32  C32        -0.2443
    612  N3         7.0460    2.7670   16.3180 N.ar   32  C32        -0.1739
    613  C4         7.6870    3.9340   16.2110 C.ar   32  C32         0.1759
    614  N4         7.0270    5.0520   16.5580 N.pl3  32  C32        -0.1070
    615  C5         9.0350    4.0100   15.7570 C.ar   32  C32         0.0566
    616  C6         9.6600    2.8620   15.4750 C.ar   32  C32         0.0850
    617  OP1       14.0650    3.5600   12.1930 O.2    32  C32        -0.5172
    618  OP2       12.3710    5.1310   13.3330 O.co2  32  C32        -0.4373
    619  P         10.2120    0.0490   10.5850 P.3    33  U33         0.2141
    620  C5'        8.0210   -1.2370   11.1610 C.3    33  U33         0.1812
    621  O5'        8.6480   -0.0030   10.8560 O.3    33  U33        -0.3114
    622  C4'        6.5870   -1.0020   11.5500 C.3    33  U33         0.1773
    623  O4'        6.5480   -0.1760   12.7430 O.3    33  U33        -0.3307
    624  C3'        5.7790   -0.1910   10.5580 C.3    33  U33         0.1860
    625  O3'        5.3010   -0.9990    9.4970 O.3    33  U33        -0.3112
    626  C2'        4.6400    0.2990   11.4290 C.3    33  U33         0.2309
    627  O2'        3.7280   -0.7520   11.6550 O.3    33  U33        -0.2156
    628  C1'        5.3790    0.6190   12.7300 C.3    33  U33         0.2420
    629  N1         5.7690    2.0300   12.8780 N.ar   33  U33        -0.2534
    630  C2         4.7860    2.9210   13.2510 C.ar   33  U33         0.3546
    631  O2         3.6390    2.5850   13.4310 O.2    33  U33        -0.2443
    632  N3         5.1900    4.2190   13.3980 N.ar   33  U33        -0.1530
    633  C4         6.4530    4.7150   13.2030 C.ar   33  U33         0.2846
    634  O4         6.6510    5.9390   13.2850 O.2    33  U33        -0.2650
    635  C5         7.4200    3.7260   12.8170 C.ar   33  U33         0.0814
    636  C6         7.0500    2.4500   12.6690 C.ar   33  U33         0.0870
    637  OP1       10.5100   -1.0300    9.6140 O.2    33  U33        -0.5172
    638  OP2       10.6270    1.4550   10.2950 O.co2  33  U33        -0.4373
    639  P          5.0720   -0.3340    8.0630 P.3    34  C34         0.2141
    640  C5'        2.5130    0.0170    8.4870 C.3    34  C34         0.1812
    641  O5'        3.7970    0.5820    8.2820 O.3    34  C34        -0.3114
    642  C4'        1.5810    1.0700    9.0280 C.3    34  C34         0.1773
    643  O4'        2.2000    1.6770   10.1990 O.3    34  C34        -0.3307
    644  C3'        1.3720    2.2750    8.1290 C.3    34  C34         0.1860
    645  O3'        0.4430    2.0100    7.0900 O.3    34  C34        -0.3112
    646  C2'        0.8470    3.2940    9.1250 C.3    34  C34         0.2309
    647  O2'       -0.4800    3.0150    9.5020 O.3    34  C34        -0.2156
    648  C1'        1.7600    3.0200   10.3170 C.3    34  C34         0.2420
    649  N1         2.9250    3.9040   10.3010 N.ar   34  C34        -0.2535
    650  C2         2.7550    5.2010   10.7360 C.ar   34  C34         0.3532
    651  O2         1.6520    5.5320   11.1130 O.2    34  C34        -0.2443
    652  N3         3.7980    6.0530   10.7270 N.ar   34  C34        -0.1739
    653  C4         4.9910    5.6300   10.2920 C.ar   34  C34         0.1759
    654  N4         5.9980    6.4840   10.3040 N.pl3  34  C34        -0.1070
    655  C5         5.1980    4.3080    9.8350 C.ar   34  C34         0.0566
    656  C6         4.1480    3.4790    9.8600 C.ar   34  C34         0.0850
    657  OP1        4.7150   -1.3850    7.0750 O.2    34  C34        -0.5172
    658  OP2        6.2160    0.5910    7.8030 O.co2  34  C34        -0.4373
    659  P          0.5440    2.8310    5.7110 P.3    35  C35         0.2141
    660  C5'       -1.5100    4.3210    6.2470 C.3    35  C35         0.1812
    661  O5'       -0.1130    4.2280    6.0700 O.3    35  C35        -0.3114
    662  C4'       -1.8990    5.7480    6.4870 C.3    35  C35         0.1773
    663  O4'       -1.2930    6.1970    7.7280 O.3    35  C35        -0.3307
    664  C3'       -1.3720    6.7480    5.4780 C.3    35  C35         0.1860
    665  O3'       -2.1500    6.7540    4.2890 O.3    35  C35        -0.3112
    666  C2'       -1.5230    8.0270    6.2730 C.3    35  C35         0.2309
    667  O2'       -2.8920    8.3630    6.4050 O.3    35  C35        -0.2156
    668  C1'       -0.9760    7.5740    7.6280 C.3    35  C35         0.2420
    669  N1         0.4880    7.7380    7.7270 N.ar   35  C35        -0.2535
    670  C2         0.9780    9.0010    8.0240 C.ar   35  C35         0.3532
    671  O2         0.1670    9.9140    8.2300 O.2    35  C35        -0.2443
    672  N3         2.3090    9.2050    8.0880 N.ar   35  C35        -0.1739
    673  C4         3.1450    8.1960    7.8790 C.ar   35  C35         0.1759
    674  N4         4.4500    8.4530    7.9530 N.pl3  35  C35        -0.1070
    675  C5         2.6780    6.8820    7.5870 C.ar   35  C35         0.0566
    676  C6         1.3490    6.6980    7.5200 C.ar   35  C35         0.0850
    677  OP1       -0.3560    2.2080    4.7140 O.2    35  C35        -0.5172
    678  OP2        1.9760    3.0360    5.3870 O.co2  35  C35        -0.4373
    679  P         -1.4290    6.9870    2.8660 P.3    36  G36         0.2141
    680  C5'       -2.2300    9.4820    2.8860 C.3    36  G36         0.1812
    681  O5'       -1.1560    8.5530    2.8220 O.3    36  G36        -0.3114
    682  C4'       -1.7150   10.8430    3.2830 C.3    36  G36         0.1773
    683  O4'       -1.0000   10.7480    4.5560 O.3    36  G36        -0.3307
    684  C3'       -0.6600   11.4730    2.3820 C.3    36  G36         0.1860
    685  O3'       -1.2280   12.0390    1.2160 O.3    36  G36        -0.3112
    686  C2'       -0.1290   12.5570    3.2980 C.3    36  G36         0.2309
    687  O2'       -1.1000   13.5810    3.4120 O.3    36  G36        -0.2156
    688  C1'       -0.0260   11.7830    4.6180 C.3    36  G36         0.2408
    689  N1         4.8600   12.6870    5.5040 N.ar   36  G36        -0.1709
    690  C2         3.7960   13.5520    5.4590 C.ar   36  G36         0.2606
    691  N2         4.0660   14.8510    5.6690 N.pl3  36  G36        -0.0859
    692  N3         2.5550   13.1810    5.2290 N.ar   36  G36        -0.1918
    693  C4         2.4510   11.8570    5.0450 C.ar   36  G36         0.1723
    694  C5         3.4420   10.9020    5.0690 C.ar   36  G36         0.1748
    695  C6         4.7790   11.3120    5.3180 C.ar   36  G36         0.3023
    696  O6         5.8130   10.6080    5.3840 O.2    36  G36        -0.2633
    697  N7         2.9150    9.6420    4.8260 N.ar   36  G36        -0.2173
    698  C8         1.6330    9.8550    4.6620 C.ar   36  G36         0.1817
    699  N9         1.2920   11.1780    4.7730 N.ar   36  G36        -0.2693
    700  OP1       -2.4420    6.6740    1.8490 O.2    36  G36        -0.5172
    701  OP2       -0.1120    6.3140    2.8280 O.co2  36  G36        -0.4373
    702  P         -0.4200   11.9890   -0.1680 P.3    37  G37         0.2141
    703  C5'       -0.0480   14.5310    0.3740 C.3    37  G37         0.1812
    704  O5'        0.4680   13.3120   -0.1460 O.3    37  G37        -0.3114
    705  C4'        1.0770   15.4850    0.7190 C.3    37  G37         0.1773
    706  O4'        1.7690   15.0750    1.9300 O.3    37  G37        -0.3307
    707  C3'        2.1880   15.6290   -0.2990 C.3    37  G37         0.1860
    708  O3'        1.7960   16.5020   -1.3490 O.3    37  G37        -0.3112
    709  C2'        3.2880   16.2560    0.5460 C.3    37  G37         0.2309
    710  O2'        3.0740   17.6390    0.7560 O.3    37  G37        -0.2156
    711  C1'        3.1170   15.5130    1.8720 C.3    37  G37         0.2408
    712  N1         7.8150   13.8460    2.8400 N.ar   37  G37        -0.1709
    713  C2         7.3460   15.1360    2.7830 C.ar   37  G37         0.2606
    714  N2         8.2640   16.1000    3.0070 N.pl3  37  G37        -0.0859
    715  N3         6.0810   15.4540    2.5190 N.ar   37  G37        -0.1918
    716  C4         5.3260   14.3580    2.2890 C.ar   37  G37         0.1723
    717  C5         5.7050   13.0330    2.3070 C.ar   37  G37         0.1748
    718  C6         7.0490   12.7070    2.6160 C.ar   37  G37         0.3023
    719  O6         7.5640   11.5910    2.7080 O.2    37  G37        -0.2633
    720  N7         4.6300   12.2090    2.0160 N.ar   37  G37        -0.2173
    721  C8         3.6370   13.0310    1.8340 C.ar   37  G37         0.1817
    722  N9         3.9890   14.3480    1.9910 N.ar   37  G37        -0.2693
    723  OP1       -1.4750   12.0640   -1.1950 O.2    37  G37        -0.5172
    724  OP2        0.5300   10.8560   -0.1870 O.co2  37  G37        -0.4373
    725  P          2.5140   16.3950   -2.7830 P.3    38  A38         0.2141
    726  C5'        4.2900   18.1530   -1.9760 C.3    38  A38         0.1812
    727  O5'        4.0190   16.8480   -2.4790 O.3    38  A38        -0.3114
    728  C4'        5.7500   18.3010   -1.6200 C.3    38  A38         0.1773
    729  O4'        6.0940   17.3830   -0.5490 O.3    38  A38        -0.3307
    730  C3'        6.7590   17.9690   -2.7040 C.3    38  A38         0.1860
    731  O3'        6.9270   19.0400   -3.6240 O.3    38  A38        -0.3112
    732  C2'        8.0290   17.7340   -1.8920 C.3    38  A38         0.2309
    733  O2'        8.6840   18.9270   -1.5270 O.3    38  A38        -0.2156
    734  C1'        7.4730   17.0440   -0.6440 C.3    38  A38         0.2408
    735  N1        10.5760   13.0600    0.3030 N.ar   38  A38        -0.2040
    736  C2        10.7450   14.3790    0.4020 C.ar   38  A38         0.2016
    737  N3         9.8880   15.3660    0.1270 N.ar   38  A38        -0.2048
    738  C4         8.7230   14.8730   -0.3140 C.ar   38  A38         0.1692
    739  C5         8.3980   13.5410   -0.4750 C.ar   38  A38         0.1518
    740  C6         9.3850   12.5980   -0.1340 C.ar   38  A38         0.1919
    741  N6         9.2050   11.2800   -0.2100 N.pl3  38  A38        -0.1054
    742  N7         7.1070   13.4050   -0.9670 N.ar   38  A38        -0.2193
    743  C8         6.6820   14.6430   -1.0790 C.ar   38  A38         0.1816
    744  N9         7.6070   15.5830   -0.6870 N.ar   38  A38        -0.2693
    745  OP1        1.8220   17.3870   -3.6520 O.2    38  A38        -0.5172
    746  OP2        2.5290   14.9690   -3.1840 O.co2  38  A38        -0.4373
    747  P          7.3100   18.7240   -5.1620 P.3    39  A39         0.2141
    748  C5'        9.8040   19.2780   -4.5930 C.3    39  A39         0.1812
    749  O5'        8.8590   18.3530   -5.0940 O.3    39  A39        -0.3114
    750  C4'       11.1110   18.5840   -4.3070 C.3    39  A39         0.1773
    751  O4'       10.9560   17.6940   -3.1710 O.3    39  A39        -0.3307
    752  C3'       11.6550   17.7000   -5.4180 C.3    39  A39         0.1860
    753  O3'       12.4110   18.4660   -6.3490 O.3    39  A39        -0.3112
    754  C2'       12.5640   16.7620   -4.6410 C.3    39  A39         0.2309
    755  O2'       13.7930   17.3730   -4.3130 O.3    39  A39        -0.2156
    756  C1'       11.7470   16.5330   -3.3660 C.3    39  A39         0.2408
    757  N1        11.2640   11.4460   -2.8500 N.ar   39  A39        -0.2040
    758  C2        12.2720   12.2860   -2.5840 C.ar   39  A39         0.2016
    759  N3        12.3270   13.6080   -2.7230 N.ar   39  A39        -0.2048
    760  C4        11.1640   14.0760   -3.2050 C.ar   39  A39         0.1692
    761  C5        10.0400   13.3380   -3.5230 C.ar   39  A39         0.1518
    762  C6        10.1140   11.9550   -3.3310 C.ar   39  A39         0.1919
    763  N6         9.1160   11.1230   -3.5960 N.pl3  39  A39        -0.1054
    764  N7         9.0250   14.1640   -3.9820 N.ar   39  A39        -0.2193
    765  C8         9.5510   15.3600   -3.9410 C.ar   39  A39         0.1816
    766  N9        10.8500   15.3800   -3.4930 N.ar   39  A39        -0.2693
    767  OP1        7.1480   20.0040   -5.9010 O.2    39  A39        -0.5172
    768  OP2        6.5730   17.5230   -5.6390 O.co2  39  A39        -0.4373
    769  P         11.8640   18.6650   -7.8520 P.3    40  A40         0.2141
    770  C5'       13.6140   16.8370   -8.4740 C.3    40  A40         0.1812
    771  O5'       12.3050   17.3460   -8.6200 O.3    40  A40        -0.3114
    772  C4'       14.0800   16.2700   -9.7790 C.3    40  A40         0.1773
    773  O4'       14.2100   17.3380  -10.7480 O.3    40  A40        -0.3307
    774  C3'       15.4490   15.6240   -9.7320 C.3    40  A40         0.1860
    775  O3'       15.3080   14.2690   -9.3480 O.3    40  A40        -0.3112
    776  C2'       15.9150   15.7240  -11.1760 C.3    40  A40         0.2309
    777  O2'       15.4250   14.6620  -11.9670 O.3    40  A40        -0.2156
    778  C1'       15.2810   17.0460  -11.6190 C.3    40  A40         0.2408
    779  N1        19.6770   18.8410  -13.5360 N.ar   40  A40        -0.2040
    780  C2        19.0600   17.6740  -13.6490 C.ar   40  A40         0.2016
    781  N3        17.9250   17.2680  -13.1020 N.ar   40  A40        -0.2048
    782  C4        17.3850   18.2350  -12.3380 C.ar   40  A40         0.1692
    783  C5        17.9020   19.4910  -12.1170 C.ar   40  A40         0.1518
    784  C6        19.1180   19.7960  -12.7630 C.ar   40  A40         0.1919
    785  N6        19.7440   20.9750  -12.6510 N.pl3  40  A40        -0.1054
    786  N7        17.0760   20.2220  -11.2670 N.ar   40  A40        -0.2193
    787  C8        16.0860   19.4010  -11.0050 C.ar   40  A40         0.1816
    788  N9        16.2020   18.1840  -11.6330 N.ar   40  A40        -0.2693
    789  OP1       12.6130   19.8180   -8.4240 O.2    40  A40        -0.5172
    790  OP2       10.3780   18.6980   -7.8350 O.co2  40  A40        -0.4373
    791  P         16.5610   13.4820   -8.7330 P.3    41  A41         0.2141
    792  C5'       18.3170   12.7790  -10.5590 C.3    41  A41         0.1812
    793  O5'       17.7600   13.8010   -9.7370 O.3    41  A41        -0.3114
    794  C4'       19.6950   13.1850  -11.0370 C.3    41  A41         0.1773
    795  O4'       19.5960   14.5020  -11.6150 O.3    41  A41        -0.3307
    796  C3'       20.7760   13.2810   -9.9710 C.3    41  A41         0.1860
    797  O3'       21.5130   12.0640   -9.9700 O.3    41  A41        -0.3112
    798  C2'       21.6940   14.3720  -10.5060 C.3    41  A41         0.2309
    799  O2'       22.6460   13.8810  -11.4270 O.3    41  A41        -0.2156
    800  C1'       20.7170   15.2700  -11.2550 C.3    41  A41         0.2408
    801  N1        21.5310   20.2160  -10.2170 N.ar   41  A41        -0.2040
    802  C2        22.1740   19.3410  -10.9980 C.ar   41  A41         0.2016
    803  N3        21.9120   18.0620  -11.2190 N.ar   41  A41        -0.2048
    804  C4        20.8240   17.6780  -10.5270 C.ar   41  A41         0.1692
    805  C5        20.0510   18.4590   -9.6920 C.ar   41  A41         0.1518
    806  C6        20.4490   19.7960   -9.5270 C.ar   41  A41         0.1919
    807  N6        19.8270   20.6620   -8.7190 N.pl3  41  A41        -0.1054
    808  N7        18.9970   17.7230   -9.1660 N.ar   41  A41        -0.2193
    809  C8        19.1620   16.5290   -9.6750 C.ar   41  A41         0.1816
    810  N9        20.2470   16.4300  -10.5080 N.ar   41  A41        -0.2693
    811  OP1       16.2600   12.0320   -8.8320 O.2    41  A41        -0.5172
    812  OP2       16.8490   14.0820   -7.4050 O.co2  41  A41        -0.4373
    813  P         21.4040   11.0540   -8.7360 P.3    42  G42         0.2141
    814  C5'       19.5970    9.4140   -9.6530 C.3    42  G42         0.1812
    815  O5'       19.9170   10.5130   -8.8240 O.3    42  G42        -0.3114
    816  C4'       19.7140    8.1320   -8.8750 C.3    42  G42         0.1773
    817  O4'       18.9830    8.2430   -7.6260 O.3    42  G42        -0.3307
    818  C3'       19.0970    6.9510   -9.5880 C.3    42  G42         0.1860
    819  O3'       20.0420    6.3940  -10.4880 O.3    42  G42        -0.3112
    820  C2'       18.7020    6.0430   -8.4300 C.3    42  G42         0.2309
    821  O2'       19.7980    5.3520   -7.8750 O.3    42  G42        -0.2156
    822  C1'       18.2220    7.0710   -7.4100 C.3    42  G42         0.2408
    823  N1        13.4220    5.4960   -7.1950 N.ar   42  G42        -0.1709
    824  C2        14.5770    4.7760   -7.0550 C.ar   42  G42         0.2606
    825  N2        14.4370    3.4680   -6.7900 N.pl3  42  G42        -0.0859
    826  N3        15.7820    5.2930   -7.1670 N.ar   42  G42        -0.1918
    827  C4        15.7400    6.6100   -7.4300 C.ar   42  G42         0.1723
    828  C5        14.6420    7.4160   -7.6000 C.ar   42  G42         0.1748
    829  C6        13.3560    6.8540   -7.4820 C.ar   42  G42         0.3023
    830  O6        12.2470    7.4180   -7.6020 O.2    42  G42        -0.2633
    831  N7        15.0270    8.7200   -7.8710 N.ar   42  G42        -0.2173
    832  C8        16.3280    8.6810   -7.8460 C.ar   42  G42         0.1817
    833  N9        16.8230    7.4350   -7.5630 N.ar   42  G42        -0.2693
    834  OP1       21.4970   11.7730   -7.4280 O.3    42  G42        -0.4373
    835  OP2       22.3400    9.9360   -9.0420 O.co2  42  G42        -0.5172
    836  P         19.5520    5.9160  -11.9410 P.3    43  U43         0.2141
    837  C5'       18.9560    3.6650  -10.7840 C.3    43  U43         0.1812
    838  O5'       18.5330    4.7440  -11.5950 O.3    43  U43        -0.3114
    839  C4'       17.8470    2.6730  -10.6150 C.3    43  U43         0.1773
    840  O4'       16.8000    3.2230   -9.7900 O.3    43  U43        -0.3307
    841  C3'       17.0960    2.3000  -11.8710 C.3    43  U43         0.1860
    842  O3'       17.8550    1.4100  -12.6640 O.3    43  U43        -0.3112
    843  C2'       15.8420    1.6550  -11.2960 C.3    43  U43         0.2309
    844  O2'       16.0320    0.3140  -10.8970 O.3    43  U43        -0.2156
    845  C1'       15.5980    2.5240  -10.0610 C.3    43  U43         0.2420
    846  N1        14.5070    3.4910  -10.2250 N.ar   43  U43        -0.2534
    847  C2        13.2250    3.0180  -10.0390 C.ar   43  U43         0.3546
    848  O2        12.9860    1.8490   -9.7960 O.2    43  U43        -0.2443
    849  N3        12.2340    3.9560  -10.1530 N.ar   43  U43        -0.1530
    850  C4        12.3950    5.2940  -10.4410 C.ar   43  U43         0.2846
    851  O4        11.4010    6.0220  -10.4780 O.2    43  U43        -0.2650
    852  C5        13.7600    5.7070  -10.6480 C.ar   43  U43         0.0814
    853  C6        14.7430    4.8070  -10.5350 C.ar   43  U43         0.0870
    854  OP1       20.7450    5.3520  -12.6290 O.2    43  U43        -0.5172
    855  OP2       18.7770    7.0060  -12.5880 O.co2  43  U43        -0.4373
    856  P         17.7190    1.4640  -14.2610 P.3    44  C44         0.2141
    857  C5'       16.0840   -0.5790  -14.2530 C.3    44  C44         0.1812
    858  O5'       16.2970    0.7950  -14.5360 O.3    44  C44        -0.3114
    859  C4'       14.6090   -0.8710  -14.1580 C.3    44  C44         0.1773
    860  O4'       14.0300   -0.0910  -13.0760 O.3    44  C44        -0.3307
    861  C3'       13.7820   -0.4580  -15.3580 C.3    44  C44         0.1860
    862  O3'       13.8850   -1.3860  -16.4280 O.3    44  C44        -0.3112
    863  C2'       12.3850   -0.3710  -14.7510 C.3    44  C44         0.2309
    864  O2'       11.7600   -1.6190  -14.5370 O.3    44  C44        -0.2156
    865  C1'       12.6970    0.2770  -13.4040 C.3    44  C44         0.2420
    866  N1        12.6220    1.7440  -13.5030 N.ar   44  C44        -0.2535
    867  C2        11.3760    2.3440  -13.3820 C.ar   44  C44         0.3532
    868  O2        10.3970    1.6250  -13.1690 O.2    44  C44        -0.2443
    869  N3        11.2680    3.6850  -13.5060 N.ar   44  C44        -0.1739
    870  C4        12.3560    4.4190  -13.7480 C.ar   44  C44         0.1759
    871  N4        12.2000    5.7350  -13.8950 N.pl3  44  C44        -0.1070
    872  C5        13.6530    3.8340  -13.8590 C.ar   44  C44         0.0566
    873  C6        13.7400    2.5050  -13.7280 C.ar   44  C44         0.0850
    874  OP1       18.8000    0.5750  -14.7620 O.2    44  C44        -0.5172
    875  OP2       17.6600    2.8800  -14.7180 O.co2  44  C44        -0.4373
    876  P         13.7320   -0.8630  -17.9390 P.3    45  G45         0.2141
    877  C5'       11.2180   -1.5310  -17.8020 C.3    45  G45         0.1812
    878  O5'       12.1820   -0.5240  -18.0430 O.3    45  G45        -0.3114
    879  C4'        9.8340   -0.9460  -17.8540 C.3    45  G45         0.1773
    880  O4'        9.6360   -0.0530  -16.7260 O.3    45  G45        -0.3307
    881  C3'        9.5270   -0.0560  -19.0460 C.3    45  G45         0.1860
    882  O3'        9.2230   -0.8070  -20.2120 O.3    45  G45        -0.3112
    883  C2'        8.3070    0.7000  -18.5450 C.3    45  G45         0.2309
    884  O2'        7.1210   -0.0680  -18.6280 O.3    45  G45        -0.2156
    885  C1'        8.6880    0.9420  -17.0810 C.3    45  G45         0.2408
    886  N1         7.7130    5.8460  -16.4290 N.ar   45  G45        -0.1709
    887  C2         6.8550    4.7790  -16.5180 C.ar   45  G45         0.2606
    888  N2         5.5460    5.0570  -16.4610 N.pl3  45  G45        -0.0859
    889  N3         7.2490    3.5270  -16.6620 N.ar   45  G45        -0.1918
    890  C4         8.5890    3.4230  -16.7340 C.ar   45  G45         0.1723
    891  C5         9.5370    4.4190  -16.6710 C.ar   45  G45         0.1748
    892  C6         9.0990    5.7660  -16.4940 C.ar   45  G45         0.3023
    893  O6         9.7770    6.7980  -16.3970 O.2    45  G45        -0.2633
    894  N7        10.8150    3.8880  -16.7940 N.ar   45  G45        -0.2173
    895  C8        10.6180    2.6040  -16.9240 C.ar   45  G45         0.1817
    896  N9         9.2870    2.2620  -16.9100 N.ar   45  G45        -0.2693
    897  OP1       14.0380   -2.0140  -18.8250 O.2    45  G45        -0.5172
    898  OP2       14.4980    0.3990  -18.0940 O.co2  45  G45        -0.4373
    899  P          9.4790   -0.1600  -21.6610 P.3    46  C46         0.2141
    900  C5'        6.9390    0.4250  -21.7590 C.3    46  C46         0.1813
    901  O5'        8.2830    0.8770  -21.8320 O.3    46  C46        -0.3114
    902  C4'        5.9950    1.5850  -21.5530 C.3    46  C46         0.1801
    903  O4'        6.3350    2.3040  -20.3380 O.3    46  C46        -0.3306
    904  C3'        6.0120    2.6800  -22.6020 C.3    46  C46         0.2161
    905  O3'        5.4640    2.2790  -23.8610 O.3    46  C46        -0.2175
    906  C2'        5.3160    3.8220  -21.8620 C.3    46  C46         0.2338
    907  O2'        3.9030    3.7280  -21.8120 O.3    46  C46        -0.2155
    908  C1'        5.8760    3.6440  -20.4480 C.3    46  C46         0.2421
    909  N1         6.9920    4.5660  -20.1910 N.ar   46  C46        -0.2535
    910  C2         6.6860    5.8770  -19.8430 C.ar   46  C46         0.3532
    911  O2         5.4940    6.1930  -19.7210 O.2    46  C46        -0.2443
    912  N3         7.6860    6.7620  -19.6450 N.ar   46  C46        -0.1739
    913  C4         8.9530    6.3700  -19.7740 C.ar   46  C46         0.1759
    914  N4         9.9090    7.2760  -19.5760 N.pl3  46  C46        -0.1070
    915  C5         9.2970    5.0290  -20.1110 C.ar   46  C46         0.0566
    916  C6         8.2940    4.1670  -20.3070 C.ar   46  C46         0.0850
    917  OP1        9.2630   -1.2570  -22.6350 O.2    46  C46        -0.5172
    918  OP2       10.7750    0.5720  -21.6530 O.co2  46  C46        -0.4373
@<TRIPOS>BOND
     1   905   904    1
     2   917   899    2
     3   904   906    1
     4   904   902    1
     5    16    15    2
     6   906   907    1
     7   906   908    1
     8   901   900    1
     9   901   899    1
    10    15    14   ar
    11    15    17   ar
    12   900   902    1
    13   899   918    1
    14   899   882    1
    15    14    12   ar
    16   902   903    1
    17    17    18   ar
    18    12    13    2
    19    12    11   ar
    20    18    11   ar
    21   908   903    1
    22   908   909    1
    23    11    10    1
    24   916   909   ar
    25   916   915   ar
    26   882   881    1
    27   909   910   ar
    28   915   913   ar
    29   910   911    2
    30   910   912   ar
    31   913   912   ar
    32   913   914    1
    33    10     5    1
    34    10     8    1
    35    38    37    2
    36    20     1    1
    37    31    37   ar
    38    31    32   ar
    39    37    36   ar
    40    33    32    1
    41     5     4    1
    42    32    34   ar
    43    36    39   ar
    44    36    35   ar
    45    19     1    1
    46    39    40   ar
    47    34    35   ar
    48    35    41   ar
    49    40    41   ar
    50    41    30    1
    51    25    30    1
    52    25    24    1
    53   881   883    1
    54   881   879    1
    55    30    28    1
    56     9     8    1
    57   897   876    2
    58     1     3    1
    59   884   883    1
    60     8     6    1
    61   883   885    1
    62     3     2    1
    63     4     2    1
    64     4     6    1
    65   898   876    1
    66   878   876    1
    67   878   877    1
    68   876   862    1
    69   879   877    1
    70   879   880    1
    71    24    22    1
    72    24    26    1
    73    29    28    1
    74    22    23    1
    75    28    26    1
    76     6     7    1
    77   885   896    1
    78   885   880    1
    79   895   896   ar
    80   895   894   ar
    81   896   890   ar
    82   894   891   ar
    83    26    27    1
    84     7    21    1
    85   890   891   ar
    86   890   889   ar
    87   891   892   ar
    88   889   887   ar
    89    56    55    2
    90   887   888    1
    91   887   886   ar
    92   892   886   ar
    93   892   893    2
    94   862   861    1
    95    48    53    1
    96    48    47    1
    97    55    57   ar
    98    55    54   ar
    99    57    58   ar
   100    23    21    1
   101    53    54    1
   102    53    51    1
   103    59    58    1
   104    54    61   ar
   105    58    60   ar
   106    61    60   ar
   107    27    44    1
   108    21    42    2
   109    21    43    1
   110   861   863    1
   111   861   859    1
   112    47    45    1
   113    47    49    1
   114    45    46    1
   115    52    51    1
   116    51    49    1
   117   874   856    2
   118   863   864    1
   119   863   865    1
   120   875   856    1
   121    46    44    1
   122   858   856    1
   123   858   857    1
   124   856   842    1
   125   857   859    1
   126    44    63    2
   127    44    62    1
   128   859   860    1
   129    49    50    1
   130   871   870    1
   131   872   870   ar
   132   872   873   ar
   133   870   869   ar
   134   873   866   ar
   135   780   779   ar
   136   780   781   ar
   137   779   784   ar
   138    76    75    1
   139   869   867   ar
   140   866   865    1
   141   866   867   ar
   142    68    73    1
   143    68    67    1
   144    75    77   ar
   145    75    74   ar
   146    77    78   ar
   147   865   860    1
   148   867   868    2
   149    74    80   ar
   150    73    84    1
   151    73    71    1
   152    78    84   ar
   153    78    79   ar
   154    84    83   ar
   155    80    79   ar
   156    80    81    2
   157    79    82   ar
   158    83    82   ar
   159   781   782   ar
   160    50    64    1
   161   784   785    1
   162   784   783   ar
   163   842   841    1
   164   854   836    2
   165   855   836    1
   166    72    71    1
   167    67    65    1
   168    67    69    1
   169   782   783   ar
   170   782   788   ar
   171   783   786   ar
   172    71    69    1
   173    65    66    1
   174   777   776    1
   175   836   838    1
   176   836   819    1
   177   841   843    1
   178   841   839    1
   179    66    64    1
   180   788   778    1
   181   788   787   ar
   182   778   776    1
   183   778   773    1
   184   795   800    1
   185   795   794    1
   186    64    86    2
   187    64    85    1
   188   838   837    1
   189   799   798    1
   190    69    70    1
   191   843   844    1
   192   843   845    1
   193   786   787   ar
   194   800   810    1
   195   800   798    1
   196   803   802   ar
   197   803   804   ar
   198   776   774    1
   199   794   792    1
   200   794   796    1
   201   802   801   ar
   202   837   839    1
   203   773   772    1
   204   852   853   ar
   205   852   850   ar
   206   839   840    1
   207   792   793    1
   208   853   846   ar
   209   804   810   ar
   210   804   805   ar
   211   810   809   ar
   212   798   796    1
   213   819   818    1
   214   851   850    2
   215   850   849   ar
   216    70    87    1
   217    91    96    1
   218    91    90    1
   219   846   845    1
   220   846   847   ar
   221   801   806   ar
   222   849   847   ar
   223   845   840    1
   224   847   848    2
   225   796   797    1
   226   797   813    1
   227    99    98    2
   228   100    98   ar
   229   100   101   ar
   230    98    97   ar
   231   101   102    2
   232   101   103   ar
   233    97    96    1
   234    97   104   ar
   235    96    94    1
   236   103   104   ar
   237   772   774    1
   238   772   770    1
   239   793   791    1
   240   774   775    1
   241   805   806   ar
   242   805   808   ar
   243   809   808   ar
   244   814   816    1
   245   814   815    1
   246   818   816    1
   247   818   820    1
   248   806   807    1
   249    88    90    1
   250    88    89    1
   251   775   791    1
   252    90    92    1
   253    89    87    1
   254   835   813    2
   255    87   106    2
   256    87   105    1
   257   816   817    1
   258   811   791    2
   259   815   813    1
   260   813   834    1
   261   791   812    1
   262   771   770    1
   263   771   769    1
   264    95    94    1
   265    94    92    1
   266   820   821    1
   267   820   822    1
   268   789   769    2
   269    92    93    1
   270   831   832   ar
   271   831   828   ar
   272   769   790    1
   273   769   753    1
   274   832   833   ar
   275   817   822    1
   276   830   829    2
   277   828   829   ar
   278   828   827   ar
   279   833   827   ar
   280   833   822    1
   281   829   823   ar
   282   827   826   ar
   283   823   824   ar
   284   826   824   ar
   285   824   825    1
   286    93   107    1
   287   122   121    1
   288   120   121   ar
   289   120   118   ar
   290   119   118    2
   291   121   123   ar
   292   118   117   ar
   293   123   124   ar
   294   753   752    1
   295   117   124   ar
   296   117   116    1
   297   111   116    1
   298   111   110    1
   299   116   114    1
   300   767   747    2
   301   768   747    1
   302   107   126    2
   303   107   109    1
   304   107   125    1
   305   752   754    1
   306   752   750    1
   307   747   749    1
   308   747   731    1
   309   749   748    1
   310   110   108    1
   311   110   112    1
   312   109   108    1
   313   115   114    1
   314   114   112    1
   315   754   755    1
   316   754   756    1
   317   748   750    1
   318   139   138    1
   319   137   138   ar
   320   137   143   ar
   321   144   143    2
   322   750   751    1
   323   138   140   ar
   324   143   142   ar
   325   112   113    1
   326   764   765   ar
   327   764   761   ar
   328   765   766   ar
   329   140   141   ar
   330   142   141   ar
   331   142   145   ar
   332   141   147   ar
   333   745   725    2
   334   731   730    1
   335   145   146   ar
   336   763   762    1
   337   761   762   ar
   338   761   760   ar
   339   766   756    1
   340   766   760   ar
   341   147   146   ar
   342   147   136    1
   343   756   751    1
   344   762   757   ar
   345   760   759   ar
   346   746   725    1
   347   136   131    1
   348   136   134    1
   349   131   130    1
   350   757   758   ar
   351   725   727    1
   352   725   708    1
   353   113   127    1
   354   759   758   ar
   355   730   732    1
   356   730   728    1
   357   727   726    1
   358   726   728    1
   359   732   733    1
   360   732   734    1
   361   130   128    1
   362   130   132    1
   363   134   135    1
   364   134   132    1
   365   728   729    1
   366   165   164    1
   367   149   127    2
   368   163   164   ar
   369   163   161   ar
   370   128   129    1
   371   127   129    1
   372   127   148    1
   373   708   707    1
   374   164   166   ar
   375   162   161    2
   376   723   702    2
   377   161   160   ar
   378   743   742   ar
   379   743   744   ar
   380   742   739   ar
   381   166   167   ar
   382   132   133    1
   383   744   734    1
   384   744   738   ar
   385   160   167   ar
   386   160   159    1
   387   734   729    1
   388   739   738   ar
   389   739   740   ar
   390   159   154    1
   391   159   157    1
   392   738   737   ar
   393   707   709    1
   394   707   705    1
   395   154   153    1
   396   741   740    1
   397   724   702    1
   398   702   704    1
   399   702   685    1
   400   704   703    1
   401   740   735   ar
   402   737   736   ar
   403   735   736   ar
   404   703   705    1
   405   133   150    1
   406   709   710    1
   407   709   711    1
   408   705   706    1
   409   158   157    1
   410   157   155    1
   411   153   151    1
   412   153   155    1
   413   182   181    2
   414   685   684    1
   415   183   181   ar
   416   183   184   ar
   417   185   184    2
   418   181   180   ar
   419   151   152    1
   420   184   186   ar
   421   169   150    2
   422   152   150    1
   423   150   168    1
   424   180   187   ar
   425   180   179    1
   426   721   722   ar
   427   721   720   ar
   428   700   679    2
   429   186   187   ar
   430   711   706    1
   431   711   722    1
   432   155   156    1
   433   722   716   ar
   434   179   174    1
   435   179   177    1
   436   720   717   ar
   437   174   173    1
   438   716   717   ar
   439   716   715   ar
   440   717   718   ar
   441   684   682    1
   442   684   686    1
   443   715   713   ar
   444   718   719    2
   445   718   712   ar
   446   713   712   ar
   447   713   714    1
   448   681   679    1
   449   681   680    1
   450   701   679    1
   451   679   665    1
   452   680   682    1
   453   156   170    1
   454   178   177    1
   455   682   683    1
   456   686   687    1
   457   686   688    1
   458   177   175    1
   459   173   171    1
   460   173   175    1
   461   202   201    2
   462   203   201   ar
   463   203   204   ar
   464   201   200   ar
   465   171   172    1
   466   205   204    1
   467   172   170    1
   468   204   206   ar
   469   200   199    1
   470   200   207   ar
   471   175   176    1
   472   665   664    1
   473   199   194    1
   474   199   197    1
   475   194   193    1
   476   170   189    2
   477   170   188    1
   478   683   688    1
   479   206   207   ar
   480   688   699    1
   481   698   699   ar
   482   698   697   ar
   483   677   659    2
   484   699   693   ar
   485   697   694   ar
   486   693   694   ar
   487   693   692   ar
   488   694   695   ar
   489   692   690   ar
   490   695   696    2
   491   695   689   ar
   492   198   197    1
   493   678   659    1
   494   176   190    1
   495   690   689   ar
   496   690   691    1
   497   664   666    1
   498   664   662    1
   499   197   195    1
   500   193   191    1
   501   193   195    1
   502   659   661    1
   503   659   645    1
   504   222   221    2
   505   661   660    1
   506   191   192    1
   507   223   221   ar
   508   223   224   ar
   509   221   220   ar
   510   660   662    1
   511   666   667    1
   512   666   668    1
   513   662   663    1
   514   195   196    1
   515   225   224    1
   516   224   226   ar
   517   192   190    1
   518   220   219    1
   519   220   227   ar
   520   219   214    1
   521   219   217    1
   522   214   213    1
   523   190   209    2
   524   190   208    1
   525   226   227   ar
   526   657   639    2
   527   645   644    1
   528   676   675   ar
   529   676   669   ar
   530   218   217    1
   531   675   673   ar
   532   668   669    1
   533   668   663    1
   534   196   210    1
   535   669   670   ar
   536   658   639    1
   537   673   674    1
   538   673   672   ar
   539   213   211    1
   540   213   215    1
   541   217   215    1
   542   670   672   ar
   543   670   671    2
   544   639   641    1
   545   639   625    1
   546   644   642    1
   547   644   646    1
   548   641   640    1
   549   211   212    1
   550   242   241    1
   551   640   642    1
   552   241   240   ar
   553   241   243   ar
   554   240   246   ar
   555   212   210    1
   556   243   244   ar
   557   247   246    2
   558   246   245   ar
   559   215   216    1
   560   244   245   ar
   561   244   250   ar
   562   245   248   ar
   563   210   229    2
   564   210   228    1
   565   642   643    1
   566   234   239    1
   567   234   233    1
   568   250   239    1
   569   250   249   ar
   570   646   647    1
   571   646   648    1
   572   239   237    1
   573   248   249   ar
   574   625   624    1
   575   637   619    2
   576   655   656   ar
   577   655   653   ar
   578   656   649   ar
   579   216   230    1
   580   643   648    1
   581   653   654    1
   582   653   652   ar
   583   638   619    1
   584   233   231    1
   585   233   235    1
   586   649   648    1
   587   649   650   ar
   588   238   237    1
   589   231   232    1
   590   624   626    1
   591   624   622    1
   592   237   235    1
   593   619   621    1
   594   619   605    1
   595   652   650   ar
   596   650   651    2
   597   232   230    1
   598   621   620    1
   599   620   622    1
   600   265   264    1
   601   230   252    2
   602   230   251    1
   603   235   236    1
   604   263   264   ar
   605   263   269   ar
   606   264   266   ar
   607   626   627    1
   608   626   628    1
   609   270   269    2
   610   622   623    1
   611   269   268   ar
   612   266   267   ar
   613   267   268   ar
   614   267   273   ar
   615   268   271   ar
   616   605   604    1
   617   257   262    1
   618   257   256    1
   619   273   262    1
   620   273   272   ar
   621   262   260    1
   622   271   272   ar
   623   617   599    2
   624   236   253    1
   625   636   635   ar
   626   636   629   ar
   627   628   623    1
   628   628   629    1
   629   635   633   ar
   630   629   630   ar
   631   261   260    1
   632   256   254    1
   633   256   258    1
   634   604   606    1
   635   604   602    1
   636   633   634    2
   637   633   632   ar
   638   630   632   ar
   639   630   631    2
   640   618   599    1
   641   260   258    1
   642   599   601    1
   643   599   582    1
   644   254   255    1
   645   601   600    1
   646   255   253    1
   647   600   602    1
   648   253   275    2
   649   253   274    1
   650   606   607    1
   651   606   608    1
   652   287   286   ar
   653   287   288   ar
   654   286   291   ar
   655   602   603    1
   656   314   313    1
   657   258   259    1
   658   288   289   ar
   659   291   292    1
   660   291   290   ar
   661   289   290   ar
   662   289   295   ar
   663   582   581    1
   664   308   313   ar
   665   308   309   ar
   666   290   293   ar
   667   280   285    1
   668   280   279    1
   669   313   312   ar
   670   295   285    1
   671   295   294   ar
   672   285   283    1
   673   293   294   ar
   674   259   276    1
   675   597   576    2
   676   608   603    1
   677   608   609    1
   678   309   310   ar
   679   616   609   ar
   680   616   615   ar
   681   609   610   ar
   682   615   613   ar
   683   312   315   ar
   684   312   311   ar
   685   581   583    1
   686   581   579    1
   687   598   576    1
   688   279   277    1
   689   279   281    1
   690   610   611    2
   691   610   612   ar
   692   284   283    1
   693   576   578    1
   694   576   562    1
   695   613   612   ar
   696   613   614    1
   697   315   316   ar
   698   277   278    1
   699   283   281    1
   700   310   311   ar
   701   278   276    1
   702   311   317   ar
   703   583   584    1
   704   583   585    1
   705   577   578    1
   706   577   579    1
   707   276   297    2
   708   276   296    1
   709   579   580    1
   710   328   327    1
   711   281   282    1
   712   329   324    1
   713   329   339    1
   714   329   327    1
   715   316   317   ar
   716   352   353   ar
   717   352   357   ar
   718   324   323    1
   719   317   307    1
   720   332   331   ar
   721   332   333   ar
   722   339   333   ar
   723   339   338   ar
   724   562   561    1
   725   358   357    1
   726   353   354   ar
   727   331   330   ar
   728   333   334   ar
   729   327   325    1
   730   338   337   ar
   731   357   356   ar
   732   305   306    1
   733   305   307    1
   734   305   303    1
   735   282   298    1
   736   585   580    1
   737   585   596    1
   738   330   335   ar
   739   334   337   ar
   740   334   335   ar
   741   323   325    1
   742   323   321    1
   743   595   596   ar
   744   595   594   ar
   745   335   336    1
   746   596   590   ar
   747   354   355   ar
   748   307   302    1
   749   594   591   ar
   750   590   589   ar
   751   590   591   ar
   752   303   304    1
   753   303   301    1
   754   356   355   ar
   755   356   359   ar
   756   561   563    1
   757   561   559    1
   758   589   587   ar
   759   591   592   ar
   760   355   361   ar
   761   325   326    1
   762   304   320    1
   763   321   322    1
   764   574   556    2
   765   587   588    1
   766   587   586   ar
   767   592   586   ar
   768   592   593    2
   769   359   360   ar
   770   300   298    1
   771   300   299    1
   772   557   559    1
   773   557   558    1
   774   326   342    1
   775   302   301    1
   776   298   319    2
   777   298   318    1
   778   564   563    1
   779   563   565    1
   780   559   560    1
   781   361   360   ar
   782   361   351    1
   783   558   556    1
   784   575   556    1
   785   301   299    1
   786   556   542    1
   787   346   351    1
   788   346   345    1
   789   322   320    1
   790   351   349    1
   791   320   340    2
   792   320   341    1
   793   363   342    2
   794   342   344    1
   795   342   362    1
   796   565   560    1
   797   565   566    1
   798   344   343    1
   799   376   375    1
   800   568   567    2
   801   566   567   ar
   802   566   573   ar
   803   567   569   ar
   804   573   572   ar
   805   345   343    1
   806   345   347    1
   807   542   541    1
   808   569   570   ar
   809   572   570   ar
   810   375   377   ar
   811   375   374   ar
   812   349   350    1
   813   349   347    1
   814   570   571    1
   815   377   378   ar
   816   374   380   ar
   817   347   348    1
   818   378   384   ar
   819   378   379   ar
   820   541   543    1
   821   541   539    1
   822   380   379   ar
   823   380   381    2
   824   373   384    1
   825   373   368    1
   826   373   371    1
   827   384   383   ar
   828   379   382   ar
   829   368   367    1
   830   554   536    2
   831   372   371    1
   832   555   536    1
   833   543   544    1
   834   543   545    1
   835   383   382   ar
   836   371   369    1
   837   348   364    1
   838   536   538    1
   839   536   519    1
   840   539   537    1
   841   539   540    1
   842   538   537    1
   843   367   369    1
   844   367   365    1
   845   391   396    1
   846   391   390    1
   847   399   398    2
   848   396   397    1
   849   396   394    1
   850   545   546    1
   851   545   540    1
   852   398   397   ar
   853   398   400   ar
   854   553   552   ar
   855   553   546   ar
   856   552   550   ar
   857   397   404   ar
   858   546   547   ar
   859   551   550    2
   860   550   549   ar
   861   547   549   ar
   862   547   548    2
   863   395   394    1
   864   369   370    1
   865   386   364    2
   866   400   401   ar
   867   365   366    1
   868   366   364    1
   869   364   385    1
   870   404   403   ar
   871   390   388    1
   872   390   392    1
   873   519   518    1
   874   401   403   ar
   875   401   402    2
   876   388   389    1
   877   394   392    1
   878   370   387    1
   879   518   520    1
   880   518   516    1
   881   389   387    1
   882   392   393    1
   883   520   521    1
   884   520   522    1
   885   534   513    2
   886   387   405    2
   887   387   406    1
   888   393   407    1
   889   535   513    1
   890   515   514    1
   891   515   513    1
   892   514   516    1
   893   516   517    1
   894   513   499    1
   895   411   416    1
   896   411   410    1
   897   419   418    2
   898   416   417    1
   899   416   414    1
   900   531   532   ar
   901   531   528   ar
   902   532   533   ar
   903   418   417   ar
   904   418   420   ar
   905   528   529   ar
   906   528   527   ar
   907   533   522    1
   908   533   527   ar
   909   530   529    2
   910   417   424   ar
   911   522   517    1
   912   529   523   ar
   913   527   526   ar
   914   420   421   ar
   915   523   524   ar
   916   526   524   ar
   917   524   525    1
   918   424   423   ar
   919   421   423   ar
   920   421   422    1
   921   408   410    1
   922   408   409    1
   923   410   412    1
   924   407   409    1
   925   407   425    2
   926   407   426    1
   927   511   493    2
   928   512   493    1
   929   499   498    1
   930   415   414    1
   931   414   412    1
   932   493   495    1
   933   493   476    1
   934   412   413    1
   935   498   500    1
   936   498   496    1
   937   495   494    1
   938   500   501    1
   939   500   502    1
   940   413   427    1
   941   494   496    1
   942   476   475    1
   943   508   507    1
   944   496   497    1
   945   507   509   ar
   946   507   506   ar
   947   444   443    2
   948   509   510   ar
   949   445   446   ar
   950   445   442   ar
   951   446   447   ar
   952   443   442   ar
   953   443   437   ar
   954   431   436    1
   955   431   430    1
   956   442   441   ar
   957   506   504   ar
   958   510   503   ar
   959   447   441   ar
   960   447   436    1
   961   437   438   ar
   962   441   440   ar
   963   504   503   ar
   964   504   505    2
   965   503   502    1
   966   436   434    1
   967   438   440   ar
   968   438   439    1
   969   502   497    1
   970   475   473    1
   971   475   477    1
   972   471   473    1
   973   471   472    1
   974   427   449    2
   975   427   429    1
   976   427   448    1
   977   430   428    1
   978   430   432    1
   979   428   429    1
   980   473   474    1
   981   472   470    1
   982   477   478    1
   983   477   479    1
   984   435   434    1
   985   434   432    1
   986   492   470    1
   987   491   470    1
   988   432   433    1
   989   474   479    1
   990   489   488   ar
   991   489   490   ar
   992   488   485   ar
   993   479   490    1
   994   490   484   ar
   995   485   484   ar
   996   485   486   ar
   997   484   483   ar
   998   487   486    2
   999   486   480   ar
  1000   483   481   ar
  1001   465   464    1
  1002   480   481   ar
  1003   481   482    1
  1004   464   463   ar
  1005   464   466   ar
  1006   433   450    1
  1007   463   461   ar
  1008   466   467   ar
  1009   461   462    2
  1010   461   460   ar
  1011   454   459    1
  1012   454   453    1
  1013   467   460   ar
  1014   460   459    1
  1015   459   457    1
  1016   451   453    1
  1017   451   452    1
  1018   453   455    1
  1019   452   450    1
  1020   450   469    2
  1021   450   468    1
  1022   457   458    1
  1023   457   455    1
  1024   455   456    1
