ligand
  PyMOL2.3          3D                             0

 10 11  0  0  0  0  0  0  0  0999 V2000
   -0.5040  -13.0840   12.9590 N   0  0  0  0  0  0  0  0  0  0  0  0
    0.3480  -13.7730   12.2310 C   0  0  0  0  0  0  0  0  0  0  0  0
    1.4270  -13.1100   11.6410 N   0  0  0  0  0  0  0  0  0  0  0  0
    1.5890  -11.8000   11.8110 C   0  0  0  0  0  0  0  0  0  0  0  0
    0.7310  -11.1110   12.5400 C   0  0  0  0  0  0  0  0  0  0  0  0
   -0.2990  -11.7140   13.1040 C   0  0  0  0  0  0  0  0  0  0  0  0
   -1.0860  -11.0550   13.7690 O   0  0  0  0  0  0  0  0  0  0  0  0
    1.1120   -9.8350   12.5620 N   0  0  0  0  0  0  0  0  0  0  0  0
    2.2240   -9.7450   11.8410 C   0  0  0  0  0  0  0  0  0  0  0  0
    2.5160  -10.9620   11.3750 N   0  0  0  0  0  0  0  0  0  0  0  0
  1  2  4  0  0  0  0
  1  6  4  0  0  0  0
  2  3  4  0  0  0  0
  3  4  4  0  0  0  0
  4  5  4  0  0  0  0
  4 10  4  0  0  0  0
  5  6  4  0  0  0  0
  5  8  4  0  0  0  0
  6  7  2  0  0  0  0
  8  9  4  0  0  0  0
  9 10  4  0  0  0  0
M  END
$$$$
