ligand
 OpenBabel02271912153D
libRbt.so/2013.1/901 2013/11/27
 10 11  0  0  0  0  0  0  0  0999 V2000
    0.7528  -13.4422   12.2255 N   0  0  0  0  0  0  0  0  0  0  0  0
    1.6588  -13.5840   11.2822 C   0  0  0  0  0  0  0  0  0  0  0  0
    2.4092  -12.4727   10.8903 N   0  0  0  0  0  0  0  0  0  0  0  0
    2.2086  -11.2873   11.4612 C   0  0  0  0  0  0  0  0  0  0  0  0
    1.2971  -11.1477   12.4056 C   0  0  0  0  0  0  0  0  0  0  0  0
    0.5722  -12.1818   12.7900 C   0  0  0  0  0  0  0  0  0  0  0  0
   -0.2721  -12.0283   13.6614 O   0  0  0  0  0  0  0  0  0  0  0  0
    1.2935   -9.8809   12.8166 N   0  0  0  0  0  0  0  0  0  0  0  0
    2.2224   -9.2387   12.1171 C   0  0  0  0  0  0  0  0  0  0  0  0
    2.7858  -10.1106   11.2769 N   0  0  0  0  0  0  0  0  0  0  0  0
  1  2  1  0  0  0  0
  1  6  1  0  0  0  0
  2  3  2  0  0  0  0
  3  4  1  0  0  0  0
  4  5  2  0  0  0  0
  4 10  1  0  0  0  0
  5  6  1  0  0  0  0
  5  8  1  0  0  0  0
  6  7  2  0  0  0  0
  8  9  1  0  0  0  0
  9 10  2  0  0  0  0
M  END
>  <CHROM.1>
1.45873101,-11.54856791,12.12249032,-2.20405524,0.75182716,0.30773764

>  <Name>
ligand

>  <RI>
0

>  <Rbt.Current_Directory>
/home/itssahil/PROJECTS/Mol_Feturizer/Test_systems_manuscript/rnas/5c7w

>  <Rbt.Executable>
rbdock ($Id: //depot/dev/client3/rdock/2013.1/src/exe/rbdock.cxx#4 $)

>  <Rbt.Library>
libRbt.so (2013.1, Build901 2013/11/27)

>  <Rbt.Parameter_File>
/export/apps/rDock/src/rDock_2013.1_src/data/scripts/dock_solv.prm

>  <Rbt.Receptor>
prm/pocket_docking_3.prm

>  <SCORE>
-15.1879

>  <SCORE.INTER>
-15.1879

>  <SCORE.INTER.CONST>
1

>  <SCORE.INTER.POLAR>
0

>  <SCORE.INTER.ROT>
0

>  <SCORE.INTER.SOLV>
3.26014

>  <SCORE.INTER.VDW>
-14.812

>  <SCORE.INTER.norm>
-1.51879

>  <SCORE.INTRA>
0

>  <SCORE.INTRA.DIHEDRAL>
0

>  <SCORE.INTRA.DIHEDRAL.0>
0

>  <SCORE.INTRA.POLAR>
0

>  <SCORE.INTRA.POLAR.0>
0

>  <SCORE.INTRA.REPUL>
0

>  <SCORE.INTRA.REPUL.0>
0

>  <SCORE.INTRA.SOLV>
0

>  <SCORE.INTRA.SOLV.lig_0>
-4.15853

>  <SCORE.INTRA.VDW>
0

>  <SCORE.INTRA.VDW.0>
0

>  <SCORE.INTRA.norm>
0

>  <SCORE.RESTR>
0

>  <SCORE.RESTR.CAVITY>
0

>  <SCORE.RESTR.norm>
0

>  <SCORE.SYSTEM>
0

>  <SCORE.SYSTEM.CONST>
0

>  <SCORE.SYSTEM.DIHEDRAL>
0

>  <SCORE.SYSTEM.SOLV>
0

>  <SCORE.SYSTEM.norm>
0

>  <SCORE.heavy>
10

>  <SCORE.norm>
-1.51879

>  <RMSD>
1.090

$$$$
ligand
 OpenBabel02271912153D
libRbt.so/2013.1/901 2013/11/27
 10 11  0  0  0  0  0  0  0  0999 V2000
    0.7271  -13.4495   12.1788 N   0  0  0  0  0  0  0  0  0  0  0  0
    1.6796  -13.5569   11.2778 C   0  0  0  0  0  0  0  0  0  0  0  0
    2.4431  -12.4306   10.9607 N   0  0  0  0  0  0  0  0  0  0  0  0
    2.2084  -11.2655   11.5596 C   0  0  0  0  0  0  0  0  0  0  0  0
    1.2503  -11.1604   12.4614 C   0  0  0  0  0  0  0  0  0  0  0  0
    0.5123  -12.2091   12.7748 C   0  0  0  0  0  0  0  0  0  0  0  0
   -0.3752  -12.0875   13.6075 O   0  0  0  0  0  0  0  0  0  0  0  0
    1.2198   -9.9079   12.9133 N   0  0  0  0  0  0  0  0  0  0  0  0
    2.1792   -9.2398   12.2826 C   0  0  0  0  0  0  0  0  0  0  0  0
    2.7881  -10.0815   11.4433 N   0  0  0  0  0  0  0  0  0  0  0  0
  1  2  1  0  0  0  0
  1  6  1  0  0  0  0
  2  3  2  0  0  0  0
  3  4  1  0  0  0  0
  4  5  2  0  0  0  0
  4 10  1  0  0  0  0
  5  6  1  0  0  0  0
  5  8  1  0  0  0  0
  6  7  2  0  0  0  0
  8  9  1  0  0  0  0
  9 10  2  0  0  0  0
M  END
>  <CHROM.1>
1.42777091,-11.55112337,12.17367491,-2.17794864,0.70566014,0.32345170

>  <Name>
ligand

>  <RI>
0

>  <Rbt.Current_Directory>
/home/itssahil/PROJECTS/Mol_Feturizer/Test_systems_manuscript/rnas/5c7w

>  <Rbt.Executable>
rbdock ($Id: //depot/dev/client3/rdock/2013.1/src/exe/rbdock.cxx#4 $)

>  <Rbt.Library>
libRbt.so (2013.1, Build901 2013/11/27)

>  <Rbt.Parameter_File>
/export/apps/rDock/src/rDock_2013.1_src/data/scripts/dock_solv.prm

>  <Rbt.Receptor>
prm/pocket_docking_6.prm

>  <SCORE>
-15.2325

>  <SCORE.INTER>
-15.2325

>  <SCORE.INTER.CONST>
1

>  <SCORE.INTER.POLAR>
0

>  <SCORE.INTER.ROT>
0

>  <SCORE.INTER.SOLV>
3.18456

>  <SCORE.INTER.VDW>
-14.8165

>  <SCORE.INTER.norm>
-1.52325

>  <SCORE.INTRA>
0

>  <SCORE.INTRA.DIHEDRAL>
0

>  <SCORE.INTRA.DIHEDRAL.0>
0

>  <SCORE.INTRA.POLAR>
0

>  <SCORE.INTRA.POLAR.0>
0

>  <SCORE.INTRA.REPUL>
0

>  <SCORE.INTRA.REPUL.0>
0

>  <SCORE.INTRA.SOLV>
0

>  <SCORE.INTRA.SOLV.lig_0>
-4.15853

>  <SCORE.INTRA.VDW>
0

>  <SCORE.INTRA.VDW.0>
0

>  <SCORE.INTRA.norm>
0

>  <SCORE.RESTR>
0

>  <SCORE.RESTR.CAVITY>
0

>  <SCORE.RESTR.norm>
0

>  <SCORE.SYSTEM>
0

>  <SCORE.SYSTEM.CONST>
0

>  <SCORE.SYSTEM.DIHEDRAL>
0

>  <SCORE.SYSTEM.SOLV>
0

>  <SCORE.SYSTEM.norm>
0

>  <SCORE.heavy>
10

>  <SCORE.norm>
-1.52325

>  <RMSD>
1.096

$$$$
ligand
 OpenBabel02271912153D
libRbt.so/2013.1/901 2013/11/27
 10 11  0  0  0  0  0  0  0  0999 V2000
    0.7585  -13.4527   12.2253 N   0  0  0  0  0  0  0  0  0  0  0  0
    1.6726  -13.5623   11.2856 C   0  0  0  0  0  0  0  0  0  0  0  0
    2.4145  -12.4343   10.9265 N   0  0  0  0  0  0  0  0  0  0  0  0
    2.1979  -11.2653   11.5247 C   0  0  0  0  0  0  0  0  0  0  0  0
    1.2783  -11.1580   12.4655 C   0  0  0  0  0  0  0  0  0  0  0  0
    0.5612  -12.2083   12.8192 C   0  0  0  0  0  0  0  0  0  0  0  0
   -0.2909  -12.0846   13.6878 O   0  0  0  0  0  0  0  0  0  0  0  0
    1.2589   -9.9017   12.9073 N   0  0  0  0  0  0  0  0  0  0  0  0
    2.1862   -9.2334   12.2306 C   0  0  0  0  0  0  0  0  0  0  0  0
    2.7644  -10.0788   11.3735 N   0  0  0  0  0  0  0  0  0  0  0  0
  1  2  1  0  0  0  0
  1  6  1  0  0  0  0
  2  3  2  0  0  0  0
  3  4  1  0  0  0  0
  4  5  2  0  0  0  0
  4 10  1  0  0  0  0
  5  6  1  0  0  0  0
  5  8  1  0  0  0  0
  6  7  2  0  0  0  0
  8  9  1  0  0  0  0
  9 10  2  0  0  0  0
M  END
>  <CHROM.1>
1.44594805,-11.55013681,12.17390112,-2.18794774,0.74801206,0.32124889

>  <Name>
ligand

>  <RI>
0

>  <Rbt.Current_Directory>
/home/itssahil/PROJECTS/Mol_Feturizer/Test_systems_manuscript/rnas/5c7w

>  <Rbt.Executable>
rbdock ($Id: //depot/dev/client3/rdock/2013.1/src/exe/rbdock.cxx#4 $)

>  <Rbt.Library>
libRbt.so (2013.1, Build901 2013/11/27)

>  <Rbt.Parameter_File>
/export/apps/rDock/src/rDock_2013.1_src/data/scripts/dock_solv.prm

>  <Rbt.Receptor>
prm/pocket_docking_4.prm

>  <SCORE>
-15.266

>  <SCORE.INTER>
-15.266

>  <SCORE.INTER.CONST>
1

>  <SCORE.INTER.POLAR>
0

>  <SCORE.INTER.ROT>
0

>  <SCORE.INTER.SOLV>
3.29359

>  <SCORE.INTER.VDW>
-14.8752

>  <SCORE.INTER.norm>
-1.5266

>  <SCORE.INTRA>
0

>  <SCORE.INTRA.DIHEDRAL>
0

>  <SCORE.INTRA.DIHEDRAL.0>
0

>  <SCORE.INTRA.POLAR>
0

>  <SCORE.INTRA.POLAR.0>
0

>  <SCORE.INTRA.REPUL>
0

>  <SCORE.INTRA.REPUL.0>
0

>  <SCORE.INTRA.SOLV>
0

>  <SCORE.INTRA.SOLV.lig_0>
-4.15853

>  <SCORE.INTRA.VDW>
0

>  <SCORE.INTRA.VDW.0>
0

>  <SCORE.INTRA.norm>
0

>  <SCORE.RESTR>
0

>  <SCORE.RESTR.CAVITY>
0

>  <SCORE.RESTR.norm>
0

>  <SCORE.SYSTEM>
0

>  <SCORE.SYSTEM.CONST>
0

>  <SCORE.SYSTEM.DIHEDRAL>
0

>  <SCORE.SYSTEM.SOLV>
0

>  <SCORE.SYSTEM.norm>
0

>  <SCORE.heavy>
10

>  <SCORE.norm>
-1.5266

>  <RMSD>
1.101

$$$$
ligand
 OpenBabel02271912153D
libRbt.so/2013.1/901 2013/11/27
 10 11  0  0  0  0  0  0  0  0999 V2000
    0.7645  -13.4493   12.2302 N   0  0  0  0  0  0  0  0  0  0  0  0
    1.6784  -13.5612   11.2907 C   0  0  0  0  0  0  0  0  0  0  0  0
    2.4222  -12.4346   10.9307 N   0  0  0  0  0  0  0  0  0  0  0  0
    2.2073  -11.2648   11.5279 C   0  0  0  0  0  0  0  0  0  0  0  0
    1.2878  -11.1553   12.4685 C   0  0  0  0  0  0  0  0  0  0  0  0
    0.5690  -12.2042   12.8230 C   0  0  0  0  0  0  0  0  0  0  0  0
   -0.2829  -12.0784   13.6915 O   0  0  0  0  0  0  0  0  0  0  0  0
    1.2704   -9.8986   12.9093 N   0  0  0  0  0  0  0  0  0  0  0  0
    2.1988   -9.2323   12.2320 C   0  0  0  0  0  0  0  0  0  0  0  0
    2.7757  -10.0793   11.3757 N   0  0  0  0  0  0  0  0  0  0  0  0
  1  2  1  0  0  0  0
  1  6  1  0  0  0  0
  2  3  2  0  0  0  0
  3  4  1  0  0  0  0
  4  5  2  0  0  0  0
  4 10  1  0  0  0  0
  5  6  1  0  0  0  0
  5  8  1  0  0  0  0
  6  7  2  0  0  0  0
  8  9  1  0  0  0  0
  9 10  2  0  0  0  0
M  END
>  <CHROM.1>
1.45487061,-11.54794273,12.17723371,-2.18994113,0.74744893,0.32175318

>  <Name>
ligand

>  <RI>
0

>  <Rbt.Current_Directory>
/home/itssahil/PROJECTS/Mol_Feturizer/Test_systems_manuscript/rnas/5c7w

>  <Rbt.Executable>
rbdock ($Id: //depot/dev/client3/rdock/2013.1/src/exe/rbdock.cxx#4 $)

>  <Rbt.Library>
libRbt.so (2013.1, Build901 2013/11/27)

>  <Rbt.Parameter_File>
/export/apps/rDock/src/rDock_2013.1_src/data/scripts/dock_solv.prm

>  <Rbt.Receptor>
prm/pocket_docking_5.prm

>  <SCORE>
-15.2665

>  <SCORE.INTER>
-15.2665

>  <SCORE.INTER.CONST>
1

>  <SCORE.INTER.POLAR>
0

>  <SCORE.INTER.ROT>
0

>  <SCORE.INTER.SOLV>
3.29056

>  <SCORE.INTER.VDW>
-14.8745

>  <SCORE.INTER.norm>
-1.52665

>  <SCORE.INTRA>
0

>  <SCORE.INTRA.DIHEDRAL>
0

>  <SCORE.INTRA.DIHEDRAL.0>
0

>  <SCORE.INTRA.POLAR>
0

>  <SCORE.INTRA.POLAR.0>
0

>  <SCORE.INTRA.REPUL>
0

>  <SCORE.INTRA.REPUL.0>
0

>  <SCORE.INTRA.SOLV>
0

>  <SCORE.INTRA.SOLV.lig_0>
-4.15853

>  <SCORE.INTRA.VDW>
0

>  <SCORE.INTRA.VDW.0>
0

>  <SCORE.INTRA.norm>
0

>  <SCORE.RESTR>
0

>  <SCORE.RESTR.CAVITY>
0

>  <SCORE.RESTR.norm>
0

>  <SCORE.SYSTEM>
0

>  <SCORE.SYSTEM.CONST>
0

>  <SCORE.SYSTEM.DIHEDRAL>
0

>  <SCORE.SYSTEM.SOLV>
0

>  <SCORE.SYSTEM.norm>
0

>  <SCORE.heavy>
10

>  <SCORE.norm>
-1.52665

>  <RMSD>
1.103

$$$$
ligand
 OpenBabel02271912153D
libRbt.so/2013.1/901 2013/11/27
 10 11  0  0  0  0  0  0  0  0999 V2000
    0.7514  -13.4480   12.2054 N   0  0  0  0  0  0  0  0  0  0  0  0
    1.6746  -13.5565   11.2745 C   0  0  0  0  0  0  0  0  0  0  0  0
    2.4235  -12.4292   10.9276 N   0  0  0  0  0  0  0  0  0  0  0  0
    2.2041  -11.2620   11.5284 C   0  0  0  0  0  0  0  0  0  0  0  0
    1.2753  -11.1559   12.4603 C   0  0  0  0  0  0  0  0  0  0  0  0
    0.5516  -12.2056   12.8023 C   0  0  0  0  0  0  0  0  0  0  0  0
   -0.3089  -12.0829   13.6628 O   0  0  0  0  0  0  0  0  0  0  0  0
    1.2551   -9.9014   12.9070 N   0  0  0  0  0  0  0  0  0  0  0  0
    2.1911   -9.2330   12.2425 C   0  0  0  0  0  0  0  0  0  0  0  0
    2.7755  -10.0766   11.3878 N   0  0  0  0  0  0  0  0  0  0  0  0
  1  2  1  0  0  0  0
  1  6  1  0  0  0  0
  2  3  2  0  0  0  0
  3  4  1  0  0  0  0
  4  5  2  0  0  0  0
  4 10  1  0  0  0  0
  5  6  1  0  0  0  0
  5  8  1  0  0  0  0
  6  7  2  0  0  0  0
  8  9  1  0  0  0  0
  9 10  2  0  0  0  0
M  END
>  <CHROM.1>
1.44480791,-11.54733632,12.16873914,-2.18731296,0.73748476,0.32492396

>  <Name>
ligand

>  <RI>
0

>  <Rbt.Current_Directory>
/home/itssahil/PROJECTS/Mol_Feturizer/Test_systems_manuscript/rnas/5c7w

>  <Rbt.Executable>
rbdock ($Id: //depot/dev/client3/rdock/2013.1/src/exe/rbdock.cxx#4 $)

>  <Rbt.Library>
libRbt.so (2013.1, Build901 2013/11/27)

>  <Rbt.Parameter_File>
/export/apps/rDock/src/rDock_2013.1_src/data/scripts/dock_solv.prm

>  <Rbt.Receptor>
prm/pocket_docking_6.prm

>  <SCORE>
-15.259

>  <SCORE.INTER>
-15.259

>  <SCORE.INTER.CONST>
1

>  <SCORE.INTER.POLAR>
0

>  <SCORE.INTER.ROT>
0

>  <SCORE.INTER.SOLV>
3.26025

>  <SCORE.INTER.VDW>
-14.8594

>  <SCORE.INTER.norm>
-1.5259

>  <SCORE.INTRA>
0

>  <SCORE.INTRA.DIHEDRAL>
0

>  <SCORE.INTRA.DIHEDRAL.0>
0

>  <SCORE.INTRA.POLAR>
0

>  <SCORE.INTRA.POLAR.0>
0

>  <SCORE.INTRA.REPUL>
0

>  <SCORE.INTRA.REPUL.0>
0

>  <SCORE.INTRA.SOLV>
0

>  <SCORE.INTRA.SOLV.lig_0>
-4.15853

>  <SCORE.INTRA.VDW>
0

>  <SCORE.INTRA.VDW.0>
0

>  <SCORE.INTRA.norm>
0

>  <SCORE.RESTR>
0

>  <SCORE.RESTR.CAVITY>
0

>  <SCORE.RESTR.norm>
0

>  <SCORE.SYSTEM>
0

>  <SCORE.SYSTEM.CONST>
0

>  <SCORE.SYSTEM.DIHEDRAL>
0

>  <SCORE.SYSTEM.SOLV>
0

>  <SCORE.SYSTEM.norm>
0

>  <SCORE.heavy>
10

>  <SCORE.norm>
-1.5259

>  <RMSD>
1.103

$$$$
ligand
 OpenBabel02271912153D
libRbt.so/2013.1/901 2013/11/27
 10 11  0  0  0  0  0  0  0  0999 V2000
    0.7612  -13.4542   12.2247 N   0  0  0  0  0  0  0  0  0  0  0  0
    1.6695  -13.5624   11.2792 C   0  0  0  0  0  0  0  0  0  0  0  0
    2.4100  -12.4341   10.9179 N   0  0  0  0  0  0  0  0  0  0  0  0
    2.1977  -11.2663   11.5200 C   0  0  0  0  0  0  0  0  0  0  0  0
    1.2840  -11.1603   12.4666 C   0  0  0  0  0  0  0  0  0  0  0  0
    0.5683  -12.2110   12.8224 C   0  0  0  0  0  0  0  0  0  0  0  0
   -0.2783  -12.0886   13.6965 O   0  0  0  0  0  0  0  0  0  0  0  0
    1.2681   -9.9050   12.9112 N   0  0  0  0  0  0  0  0  0  0  0  0
    2.1917   -9.2358   12.2302 C   0  0  0  0  0  0  0  0  0  0  0  0
    2.7641  -10.0798   11.3679 N   0  0  0  0  0  0  0  0  0  0  0  0
  1  2  1  0  0  0  0
  1  6  1  0  0  0  0
  2  3  2  0  0  0  0
  3  4  1  0  0  0  0
  4  5  2  0  0  0  0
  4 10  1  0  0  0  0
  5  6  1  0  0  0  0
  5  8  1  0  0  0  0
  6  7  2  0  0  0  0
  8  9  1  0  0  0  0
  9 10  2  0  0  0  0
M  END
>  <CHROM.1>
1.44958909,-11.55199996,12.17314158,-2.19144379,0.75361958,0.32577051

>  <Name>
ligand

>  <RI>
0

>  <Rbt.Current_Directory>
/home/itssahil/PROJECTS/Mol_Feturizer/Test_systems_manuscript/rnas/5c7w

>  <Rbt.Executable>
rbdock ($Id: //depot/dev/client3/rdock/2013.1/src/exe/rbdock.cxx#4 $)

>  <Rbt.Library>
libRbt.so (2013.1, Build901 2013/11/27)

>  <Rbt.Parameter_File>
/export/apps/rDock/src/rDock_2013.1_src/data/scripts/dock_solv.prm

>  <Rbt.Receptor>
prm/pocket_docking_4.prm

>  <SCORE>
-15.2678

>  <SCORE.INTER>
-15.2678

>  <SCORE.INTER.CONST>
1

>  <SCORE.INTER.POLAR>
0

>  <SCORE.INTER.ROT>
0

>  <SCORE.INTER.SOLV>
3.30684

>  <SCORE.INTER.VDW>
-14.8808

>  <SCORE.INTER.norm>
-1.52678

>  <SCORE.INTRA>
0

>  <SCORE.INTRA.DIHEDRAL>
0

>  <SCORE.INTRA.DIHEDRAL.0>
0

>  <SCORE.INTRA.POLAR>
0

>  <SCORE.INTRA.POLAR.0>
0

>  <SCORE.INTRA.REPUL>
0

>  <SCORE.INTRA.REPUL.0>
0

>  <SCORE.INTRA.SOLV>
0

>  <SCORE.INTRA.SOLV.lig_0>
-4.15853

>  <SCORE.INTRA.VDW>
0

>  <SCORE.INTRA.VDW.0>
0

>  <SCORE.INTRA.norm>
0

>  <SCORE.RESTR>
0

>  <SCORE.RESTR.CAVITY>
0

>  <SCORE.RESTR.norm>
0

>  <SCORE.SYSTEM>
0

>  <SCORE.SYSTEM.CONST>
0

>  <SCORE.SYSTEM.DIHEDRAL>
0

>  <SCORE.SYSTEM.SOLV>
0

>  <SCORE.SYSTEM.norm>
0

>  <SCORE.heavy>
10

>  <SCORE.norm>
-1.52678

>  <RMSD>
1.104

$$$$
ligand
 OpenBabel02271912153D
libRbt.so/2013.1/901 2013/11/27
 10 11  0  0  0  0  0  0  0  0999 V2000
    0.7659  -13.4467   12.2269 N   0  0  0  0  0  0  0  0  0  0  0  0
    1.6793  -13.5561   11.2865 C   0  0  0  0  0  0  0  0  0  0  0  0
    2.4200  -12.4276   10.9261 N   0  0  0  0  0  0  0  0  0  0  0  0
    2.2028  -11.2585   11.5239 C   0  0  0  0  0  0  0  0  0  0  0  0
    1.2839  -11.1515   12.4654 C   0  0  0  0  0  0  0  0  0  0  0  0
    0.5680  -12.2023   12.8202 C   0  0  0  0  0  0  0  0  0  0  0  0
   -0.2835  -12.0788   13.6894 O   0  0  0  0  0  0  0  0  0  0  0  0
    1.2638   -9.8949   12.9065 N   0  0  0  0  0  0  0  0  0  0  0  0
    2.1900   -9.2262   12.2287 C   0  0  0  0  0  0  0  0  0  0  0  0
    2.7682  -10.0715   11.3716 N   0  0  0  0  0  0  0  0  0  0  0  0
  1  2  1  0  0  0  0
  1  6  1  0  0  0  0
  2  3  2  0  0  0  0
  3  4  1  0  0  0  0
  4  5  2  0  0  0  0
  4 10  1  0  0  0  0
  5  6  1  0  0  0  0
  5  8  1  0  0  0  0
  6  7  2  0  0  0  0
  8  9  1  0  0  0  0
  9 10  2  0  0  0  0
M  END
>  <CHROM.1>
1.45165423,-11.54363775,12.17384157,-2.18717282,0.74906229,0.32017724

>  <Name>
ligand

>  <RI>
0

>  <Rbt.Current_Directory>
/home/itssahil/PROJECTS/Mol_Feturizer/Test_systems_manuscript/rnas/5c7w

>  <Rbt.Executable>
rbdock ($Id: //depot/dev/client3/rdock/2013.1/src/exe/rbdock.cxx#4 $)

>  <Rbt.Library>
libRbt.so (2013.1, Build901 2013/11/27)

>  <Rbt.Parameter_File>
/export/apps/rDock/src/rDock_2013.1_src/data/scripts/dock_solv.prm

>  <Rbt.Receptor>
prm/pocket_docking_7.prm

>  <SCORE>
-15.2668

>  <SCORE.INTER>
-15.2668

>  <SCORE.INTER.CONST>
1

>  <SCORE.INTER.POLAR>
0

>  <SCORE.INTER.ROT>
0

>  <SCORE.INTER.SOLV>
3.29205

>  <SCORE.INTER.VDW>
-14.8752

>  <SCORE.INTER.norm>
-1.52668

>  <SCORE.INTRA>
0

>  <SCORE.INTRA.DIHEDRAL>
0

>  <SCORE.INTRA.DIHEDRAL.0>
0

>  <SCORE.INTRA.POLAR>
0

>  <SCORE.INTRA.POLAR.0>
0

>  <SCORE.INTRA.REPUL>
0

>  <SCORE.INTRA.REPUL.0>
0

>  <SCORE.INTRA.SOLV>
0

>  <SCORE.INTRA.SOLV.lig_0>
-4.15853

>  <SCORE.INTRA.VDW>
0

>  <SCORE.INTRA.VDW.0>
0

>  <SCORE.INTRA.norm>
0

>  <SCORE.RESTR>
0

>  <SCORE.RESTR.CAVITY>
0

>  <SCORE.RESTR.norm>
0

>  <SCORE.SYSTEM>
0

>  <SCORE.SYSTEM.CONST>
0

>  <SCORE.SYSTEM.DIHEDRAL>
0

>  <SCORE.SYSTEM.SOLV>
0

>  <SCORE.SYSTEM.norm>
0

>  <SCORE.heavy>
10

>  <SCORE.norm>
-1.52668

>  <RMSD>
1.105

$$$$
ligand
 OpenBabel02271912153D
libRbt.so/2013.1/901 2013/11/27
 10 11  0  0  0  0  0  0  0  0999 V2000
    0.7555  -13.4491   12.2072 N   0  0  0  0  0  0  0  0  0  0  0  0
    1.6762  -13.5595   11.2741 C   0  0  0  0  0  0  0  0  0  0  0  0
    2.4281  -12.4343   10.9269 N   0  0  0  0  0  0  0  0  0  0  0  0
    2.2141  -11.2672   11.5297 C   0  0  0  0  0  0  0  0  0  0  0  0
    1.2878  -11.1590   12.4638 C   0  0  0  0  0  0  0  0  0  0  0  0
    0.5613  -12.2067   12.8062 C   0  0  0  0  0  0  0  0  0  0  0  0
   -0.2968  -12.0822   13.6687 O   0  0  0  0  0  0  0  0  0  0  0  0
    1.2729   -9.9050   12.9122 N   0  0  0  0  0  0  0  0  0  0  0  0
    2.2097   -9.2390   12.2463 C   0  0  0  0  0  0  0  0  0  0  0  0
    2.7892  -10.0835   11.3893 N   0  0  0  0  0  0  0  0  0  0  0  0
  1  2  1  0  0  0  0
  1  6  1  0  0  0  0
  2  3  2  0  0  0  0
  3  4  1  0  0  0  0
  4  5  2  0  0  0  0
  4 10  1  0  0  0  0
  5  6  1  0  0  0  0
  5  8  1  0  0  0  0
  6  7  2  0  0  0  0
  8  9  1  0  0  0  0
  9 10  2  0  0  0  0
M  END
>  <CHROM.1>
1.45529695,-11.55068737,12.17139561,-2.19267623,0.73855587,0.32979814

>  <Name>
ligand

>  <RI>
0

>  <Rbt.Current_Directory>
/home/itssahil/PROJECTS/Mol_Feturizer/Test_systems_manuscript/rnas/5c7w

>  <Rbt.Executable>
rbdock ($Id: //depot/dev/client3/rdock/2013.1/src/exe/rbdock.cxx#4 $)

>  <Rbt.Library>
libRbt.so (2013.1, Build901 2013/11/27)

>  <Rbt.Parameter_File>
/export/apps/rDock/src/rDock_2013.1_src/data/scripts/dock_solv.prm

>  <Rbt.Receptor>
prm/pocket_docking_3.prm

>  <SCORE>
-15.2605

>  <SCORE.INTER>
-15.2605

>  <SCORE.INTER.CONST>
1

>  <SCORE.INTER.POLAR>
0

>  <SCORE.INTER.ROT>
0

>  <SCORE.INTER.SOLV>
3.26292

>  <SCORE.INTER.VDW>
-14.8613

>  <SCORE.INTER.norm>
-1.52605

>  <SCORE.INTRA>
0

>  <SCORE.INTRA.DIHEDRAL>
0

>  <SCORE.INTRA.DIHEDRAL.0>
0

>  <SCORE.INTRA.POLAR>
0

>  <SCORE.INTRA.POLAR.0>
0

>  <SCORE.INTRA.REPUL>
0

>  <SCORE.INTRA.REPUL.0>
0

>  <SCORE.INTRA.SOLV>
0

>  <SCORE.INTRA.SOLV.lig_0>
-4.15853

>  <SCORE.INTRA.VDW>
0

>  <SCORE.INTRA.VDW.0>
0

>  <SCORE.INTRA.norm>
0

>  <SCORE.RESTR>
0

>  <SCORE.RESTR.CAVITY>
0

>  <SCORE.RESTR.norm>
0

>  <SCORE.SYSTEM>
0

>  <SCORE.SYSTEM.CONST>
0

>  <SCORE.SYSTEM.DIHEDRAL>
0

>  <SCORE.SYSTEM.SOLV>
0

>  <SCORE.SYSTEM.norm>
0

>  <SCORE.heavy>
10

>  <SCORE.norm>
-1.52605

>  <RMSD>
1.106

$$$$
ligand
 OpenBabel02271912153D
libRbt.so/2013.1/901 2013/11/27
 10 11  0  0  0  0  0  0  0  0999 V2000
    0.7530  -13.4518   12.2006 N   0  0  0  0  0  0  0  0  0  0  0  0
    1.6758  -13.5600   11.2693 C   0  0  0  0  0  0  0  0  0  0  0  0
    2.4279  -12.4338   10.9259 N   0  0  0  0  0  0  0  0  0  0  0  0
    2.2120  -11.2679   11.5303 C   0  0  0  0  0  0  0  0  0  0  0  0
    1.2836  -11.1619   12.4626 C   0  0  0  0  0  0  0  0  0  0  0  0
    0.5569  -12.2106   12.8015 C   0  0  0  0  0  0  0  0  0  0  0  0
   -0.3031  -12.0882   13.6624 O   0  0  0  0  0  0  0  0  0  0  0  0
    1.2671   -9.9088   12.9133 N   0  0  0  0  0  0  0  0  0  0  0  0
    2.2050   -9.2411   12.2508 C   0  0  0  0  0  0  0  0  0  0  0  0
    2.7869  -10.0837   11.3934 N   0  0  0  0  0  0  0  0  0  0  0  0
  1  2  1  0  0  0  0
  1  6  1  0  0  0  0
  2  3  2  0  0  0  0
  3  4  1  0  0  0  0
  4  5  2  0  0  0  0
  4 10  1  0  0  0  0
  5  6  1  0  0  0  0
  5  8  1  0  0  0  0
  6  7  2  0  0  0  0
  8  9  1  0  0  0  0
  9 10  2  0  0  0  0
M  END
>  <CHROM.1>
1.45195129,-11.55298830,12.16988243,-2.19108170,0.73664776,0.33058107

>  <Name>
ligand

>  <RI>
0

>  <Rbt.Current_Directory>
/home/itssahil/PROJECTS/Mol_Feturizer/Test_systems_manuscript/rnas/5c7w

>  <Rbt.Executable>
rbdock ($Id: //depot/dev/client3/rdock/2013.1/src/exe/rbdock.cxx#4 $)

>  <Rbt.Library>
libRbt.so (2013.1, Build901 2013/11/27)

>  <Rbt.Parameter_File>
/export/apps/rDock/src/rDock_2013.1_src/data/scripts/dock_solv.prm

>  <Rbt.Receptor>
prm/pocket_docking_4.prm

>  <SCORE>
-15.2575

>  <SCORE.INTER>
-15.2575

>  <SCORE.INTER.CONST>
1

>  <SCORE.INTER.POLAR>
0

>  <SCORE.INTER.ROT>
0

>  <SCORE.INTER.SOLV>
3.25883

>  <SCORE.INTER.VDW>
-14.8579

>  <SCORE.INTER.norm>
-1.52575

>  <SCORE.INTRA>
0

>  <SCORE.INTRA.DIHEDRAL>
0

>  <SCORE.INTRA.DIHEDRAL.0>
0

>  <SCORE.INTRA.POLAR>
0

>  <SCORE.INTRA.POLAR.0>
0

>  <SCORE.INTRA.REPUL>
0

>  <SCORE.INTRA.REPUL.0>
0

>  <SCORE.INTRA.SOLV>
0

>  <SCORE.INTRA.SOLV.lig_0>
-4.15853

>  <SCORE.INTRA.VDW>
0

>  <SCORE.INTRA.VDW.0>
0

>  <SCORE.INTRA.norm>
0

>  <SCORE.RESTR>
0

>  <SCORE.RESTR.CAVITY>
0

>  <SCORE.RESTR.norm>
0

>  <SCORE.SYSTEM>
0

>  <SCORE.SYSTEM.CONST>
0

>  <SCORE.SYSTEM.DIHEDRAL>
0

>  <SCORE.SYSTEM.SOLV>
0

>  <SCORE.SYSTEM.norm>
0

>  <SCORE.heavy>
10

>  <SCORE.norm>
-1.52575

>  <RMSD>
1.106

$$$$
ligand
 OpenBabel02271912153D
libRbt.so/2013.1/901 2013/11/27
 10 11  0  0  0  0  0  0  0  0999 V2000
    0.7619  -13.4548   12.2135 N   0  0  0  0  0  0  0  0  0  0  0  0
    1.6687  -13.5642   11.2667 C   0  0  0  0  0  0  0  0  0  0  0  0
    2.4092  -12.4366   10.9034 N   0  0  0  0  0  0  0  0  0  0  0  0
    2.1985  -11.2681   11.5047 C   0  0  0  0  0  0  0  0  0  0  0  0
    1.2862  -11.1610   12.4527 C   0  0  0  0  0  0  0  0  0  0  0  0
    0.5706  -12.2110   12.8104 C   0  0  0  0  0  0  0  0  0  0  0  0
   -0.2747  -12.0874   13.6857 O   0  0  0  0  0  0  0  0  0  0  0  0
    1.2717   -9.9052   12.8962 N   0  0  0  0  0  0  0  0  0  0  0  0
    2.1945   -9.2371   12.2133 C   0  0  0  0  0  0  0  0  0  0  0  0
    2.7652  -10.0820   11.3508 N   0  0  0  0  0  0  0  0  0  0  0  0
  1  2  1  0  0  0  0
  1  6  1  0  0  0  0
  2  3  2  0  0  0  0
  3  4  1  0  0  0  0
  4  5  2  0  0  0  0
  4 10  1  0  0  0  0
  5  6  1  0  0  0  0
  5  8  1  0  0  0  0
  6  7  2  0  0  0  0
  8  9  1  0  0  0  0
  9 10  2  0  0  0  0
M  END
>  <CHROM.1>
1.45116835,-11.55295006,12.15927093,-2.19275999,0.75487784,0.32582755

>  <Name>
ligand

>  <RI>
0

>  <Rbt.Current_Directory>
/home/itssahil/PROJECTS/Mol_Feturizer/Test_systems_manuscript/rnas/5c7w

>  <Rbt.Executable>
rbdock ($Id: //depot/dev/client3/rdock/2013.1/src/exe/rbdock.cxx#4 $)

>  <Rbt.Library>
libRbt.so (2013.1, Build901 2013/11/27)

>  <Rbt.Parameter_File>
/export/apps/rDock/src/rDock_2013.1_src/data/scripts/dock_solv.prm

>  <Rbt.Receptor>
prm/pocket_docking_8.prm

>  <SCORE>
-15.2357

>  <SCORE.INTER>
-15.2357

>  <SCORE.INTER.CONST>
1

>  <SCORE.INTER.POLAR>
0

>  <SCORE.INTER.ROT>
0

>  <SCORE.INTER.SOLV>
3.30003

>  <SCORE.INTER.VDW>
-14.8571

>  <SCORE.INTER.norm>
-1.52357

>  <SCORE.INTRA>
0

>  <SCORE.INTRA.DIHEDRAL>
0

>  <SCORE.INTRA.DIHEDRAL.0>
0

>  <SCORE.INTRA.POLAR>
0

>  <SCORE.INTRA.POLAR.0>
0

>  <SCORE.INTRA.REPUL>
0

>  <SCORE.INTRA.REPUL.0>
0

>  <SCORE.INTRA.SOLV>
0

>  <SCORE.INTRA.SOLV.lig_0>
-4.15853

>  <SCORE.INTRA.VDW>
0

>  <SCORE.INTRA.VDW.0>
0

>  <SCORE.INTRA.norm>
0

>  <SCORE.RESTR>
0

>  <SCORE.RESTR.CAVITY>
0

>  <SCORE.RESTR.norm>
0

>  <SCORE.SYSTEM>
0

>  <SCORE.SYSTEM.CONST>
0

>  <SCORE.SYSTEM.DIHEDRAL>
0

>  <SCORE.SYSTEM.SOLV>
0

>  <SCORE.SYSTEM.norm>
0

>  <SCORE.heavy>
10

>  <SCORE.norm>
-1.52357

>  <RMSD>
1.106

$$$$
ligand
 OpenBabel02271912153D
libRbt.so/2013.1/901 2013/11/27
 10 11  0  0  0  0  0  0  0  0999 V2000
    0.7677  -13.4515   12.2270 N   0  0  0  0  0  0  0  0  0  0  0  0
    1.6778  -13.5586   11.2831 C   0  0  0  0  0  0  0  0  0  0  0  0
    2.4157  -12.4287   10.9214 N   0  0  0  0  0  0  0  0  0  0  0  0
    2.1991  -11.2605   11.5212 C   0  0  0  0  0  0  0  0  0  0  0  0
    1.2834  -11.1558   12.4661 C   0  0  0  0  0  0  0  0  0  0  0  0
    0.5702  -12.2079   12.8224 C   0  0  0  0  0  0  0  0  0  0  0  0
   -0.2783  -12.0866   13.6949 O   0  0  0  0  0  0  0  0  0  0  0  0
    1.2632   -9.8998   12.9087 N   0  0  0  0  0  0  0  0  0  0  0  0
    2.1860   -9.2290   12.2282 C   0  0  0  0  0  0  0  0  0  0  0  0
    2.7623  -10.0727   11.3681 N   0  0  0  0  0  0  0  0  0  0  0  0
  1  2  1  0  0  0  0
  1  6  1  0  0  0  0
  2  3  2  0  0  0  0
  3  4  1  0  0  0  0
  4  5  2  0  0  0  0
  4 10  1  0  0  0  0
  5  6  1  0  0  0  0
  5  8  1  0  0  0  0
  6  7  2  0  0  0  0
  8  9  1  0  0  0  0
  9 10  2  0  0  0  0
M  END
>  <CHROM.1>
1.45066940,-11.54740110,12.17354662,-2.18697718,0.75293853,0.32113184

>  <Name>
ligand

>  <RI>
0

>  <Rbt.Current_Directory>
/home/itssahil/PROJECTS/Mol_Feturizer/Test_systems_manuscript/rnas/5c7w

>  <Rbt.Executable>
rbdock ($Id: //depot/dev/client3/rdock/2013.1/src/exe/rbdock.cxx#4 $)

>  <Rbt.Library>
libRbt.so (2013.1, Build901 2013/11/27)

>  <Rbt.Parameter_File>
/export/apps/rDock/src/rDock_2013.1_src/data/scripts/dock_solv.prm

>  <Rbt.Receptor>
prm/pocket_docking_8.prm

>  <SCORE>
-15.2676

>  <SCORE.INTER>
-15.2676

>  <SCORE.INTER.CONST>
1

>  <SCORE.INTER.POLAR>
0

>  <SCORE.INTER.ROT>
0

>  <SCORE.INTER.SOLV>
3.30406

>  <SCORE.INTER.VDW>
-14.8798

>  <SCORE.INTER.norm>
-1.52676

>  <SCORE.INTRA>
0

>  <SCORE.INTRA.DIHEDRAL>
0

>  <SCORE.INTRA.DIHEDRAL.0>
0

>  <SCORE.INTRA.POLAR>
0

>  <SCORE.INTRA.POLAR.0>
0

>  <SCORE.INTRA.REPUL>
0

>  <SCORE.INTRA.REPUL.0>
0

>  <SCORE.INTRA.SOLV>
0

>  <SCORE.INTRA.SOLV.lig_0>
-4.15853

>  <SCORE.INTRA.VDW>
0

>  <SCORE.INTRA.VDW.0>
0

>  <SCORE.INTRA.norm>
0

>  <SCORE.RESTR>
0

>  <SCORE.RESTR.CAVITY>
0

>  <SCORE.RESTR.norm>
0

>  <SCORE.SYSTEM>
0

>  <SCORE.SYSTEM.CONST>
0

>  <SCORE.SYSTEM.DIHEDRAL>
0

>  <SCORE.SYSTEM.SOLV>
0

>  <SCORE.SYSTEM.norm>
0

>  <SCORE.heavy>
10

>  <SCORE.norm>
-1.52676

>  <RMSD>
1.106

$$$$
ligand
 OpenBabel02271912153D
libRbt.so/2013.1/901 2013/11/27
 10 11  0  0  0  0  0  0  0  0999 V2000
    0.7615  -13.4524   12.2149 N   0  0  0  0  0  0  0  0  0  0  0  0
    1.6742  -13.5596   11.2736 C   0  0  0  0  0  0  0  0  0  0  0  0
    2.4176  -12.4313   10.9183 N   0  0  0  0  0  0  0  0  0  0  0  0
    2.2037  -11.2645   11.5217 C   0  0  0  0  0  0  0  0  0  0  0  0
    1.2855  -11.1596   12.4641 C   0  0  0  0  0  0  0  0  0  0  0  0
    0.5670  -12.2102   12.8142 C   0  0  0  0  0  0  0  0  0  0  0  0
   -0.2838  -12.0887   13.6845 O   0  0  0  0  0  0  0  0  0  0  0  0
    1.2689   -9.9052   12.9113 N   0  0  0  0  0  0  0  0  0  0  0  0
    2.1964   -9.2356   12.2362 C   0  0  0  0  0  0  0  0  0  0  0  0
    2.7721  -10.0783   11.3749 N   0  0  0  0  0  0  0  0  0  0  0  0
  1  2  1  0  0  0  0
  1  6  1  0  0  0  0
  2  3  2  0  0  0  0
  3  4  1  0  0  0  0
  4  5  2  0  0  0  0
  4 10  1  0  0  0  0
  5  6  1  0  0  0  0
  5  8  1  0  0  0  0
  6  7  2  0  0  0  0
  8  9  1  0  0  0  0
  9 10  2  0  0  0  0
M  END
>  <CHROM.1>
1.45211821,-11.55081421,12.17065577,-2.19071776,0.74865197,0.32735816

>  <Name>
ligand

>  <RI>
0

>  <Rbt.Current_Directory>
/home/itssahil/PROJECTS/Mol_Feturizer/Test_systems_manuscript/rnas/5c7w

>  <Rbt.Executable>
rbdock ($Id: //depot/dev/client3/rdock/2013.1/src/exe/rbdock.cxx#4 $)

>  <Rbt.Library>
libRbt.so (2013.1, Build901 2013/11/27)

>  <Rbt.Parameter_File>
/export/apps/rDock/src/rDock_2013.1_src/data/scripts/dock_solv.prm

>  <Rbt.Receptor>
prm/blind_docking_20.prm

>  <SCORE>
-15.2679

>  <SCORE.INTER>
-15.2679

>  <SCORE.INTER.CONST>
1

>  <SCORE.INTER.POLAR>
0

>  <SCORE.INTER.ROT>
0

>  <SCORE.INTER.SOLV>
3.2907

>  <SCORE.INTER.VDW>
-14.8755

>  <SCORE.INTER.norm>
-1.52679

>  <SCORE.INTRA>
0

>  <SCORE.INTRA.DIHEDRAL>
0

>  <SCORE.INTRA.DIHEDRAL.0>
0

>  <SCORE.INTRA.POLAR>
0

>  <SCORE.INTRA.POLAR.0>
0

>  <SCORE.INTRA.REPUL>
0

>  <SCORE.INTRA.REPUL.0>
0

>  <SCORE.INTRA.SOLV>
0

>  <SCORE.INTRA.SOLV.lig_0>
-4.15853

>  <SCORE.INTRA.VDW>
0

>  <SCORE.INTRA.VDW.0>
0

>  <SCORE.INTRA.norm>
0

>  <SCORE.RESTR>
0

>  <SCORE.RESTR.CAVITY>
0

>  <SCORE.RESTR.norm>
0

>  <SCORE.SYSTEM>
0

>  <SCORE.SYSTEM.CONST>
0

>  <SCORE.SYSTEM.DIHEDRAL>
0

>  <SCORE.SYSTEM.SOLV>
0

>  <SCORE.SYSTEM.norm>
0

>  <SCORE.heavy>
10

>  <SCORE.norm>
-1.52679

>  <RMSD>
1.107

$$$$
ligand
 OpenBabel02271912153D
libRbt.so/2013.1/901 2013/11/27
 10 11  0  0  0  0  0  0  0  0999 V2000
    0.7637  -13.4476   12.2203 N   0  0  0  0  0  0  0  0  0  0  0  0
    1.6754  -13.5558   11.2781 C   0  0  0  0  0  0  0  0  0  0  0  0
    2.4172  -12.4275   10.9196 N   0  0  0  0  0  0  0  0  0  0  0  0
    2.2028  -11.2597   11.5208 C   0  0  0  0  0  0  0  0  0  0  0  0
    1.2856  -11.1538   12.4642 C   0  0  0  0  0  0  0  0  0  0  0  0
    0.5687  -12.2045   12.8173 C   0  0  0  0  0  0  0  0  0  0  0  0
   -0.2812  -12.0821   13.6884 O   0  0  0  0  0  0  0  0  0  0  0  0
    1.2682   -9.8985   12.9087 N   0  0  0  0  0  0  0  0  0  0  0  0
    2.1942   -9.2293   12.2311 C   0  0  0  0  0  0  0  0  0  0  0  0
    2.7697  -10.0732   11.3708 N   0  0  0  0  0  0  0  0  0  0  0  0
  1  2  1  0  0  0  0
  1  6  1  0  0  0  0
  2  3  2  0  0  0  0
  3  4  1  0  0  0  0
  4  5  2  0  0  0  0
  4 10  1  0  0  0  0
  5  6  1  0  0  0  0
  5  8  1  0  0  0  0
  6  7  2  0  0  0  0
  8  9  1  0  0  0  0
  9 10  2  0  0  0  0
M  END
>  <CHROM.1>
1.45228176,-11.54545400,12.17129316,-2.18988043,0.75016876,0.32471432

>  <Name>
ligand

>  <RI>
0

>  <Rbt.Current_Directory>
/home/itssahil/PROJECTS/Mol_Feturizer/Test_systems_manuscript/rnas/5c7w

>  <Rbt.Executable>
rbdock ($Id: //depot/dev/client3/rdock/2013.1/src/exe/rbdock.cxx#4 $)

>  <Rbt.Library>
libRbt.so (2013.1, Build901 2013/11/27)

>  <Rbt.Parameter_File>
/export/apps/rDock/src/rDock_2013.1_src/data/scripts/dock_solv.prm

>  <Rbt.Receptor>
prm/pocket_docking_3.prm

>  <SCORE>
-15.2683

>  <SCORE.INTER>
-15.2683

>  <SCORE.INTER.CONST>
1

>  <SCORE.INTER.POLAR>
0

>  <SCORE.INTER.ROT>
0

>  <SCORE.INTER.SOLV>
3.29303

>  <SCORE.INTER.VDW>
-14.8765

>  <SCORE.INTER.norm>
-1.52683

>  <SCORE.INTRA>
0

>  <SCORE.INTRA.DIHEDRAL>
0

>  <SCORE.INTRA.DIHEDRAL.0>
0

>  <SCORE.INTRA.POLAR>
0

>  <SCORE.INTRA.POLAR.0>
0

>  <SCORE.INTRA.REPUL>
0

>  <SCORE.INTRA.REPUL.0>
0

>  <SCORE.INTRA.SOLV>
0

>  <SCORE.INTRA.SOLV.lig_0>
-4.15853

>  <SCORE.INTRA.VDW>
0

>  <SCORE.INTRA.VDW.0>
0

>  <SCORE.INTRA.norm>
0

>  <SCORE.RESTR>
0

>  <SCORE.RESTR.CAVITY>
0

>  <SCORE.RESTR.norm>
0

>  <SCORE.SYSTEM>
0

>  <SCORE.SYSTEM.CONST>
0

>  <SCORE.SYSTEM.DIHEDRAL>
0

>  <SCORE.SYSTEM.SOLV>
0

>  <SCORE.SYSTEM.norm>
0

>  <SCORE.heavy>
10

>  <SCORE.norm>
-1.52683

>  <RMSD>
1.107

$$$$
ligand
 OpenBabel02271912153D
libRbt.so/2013.1/901 2013/11/27
 10 11  0  0  0  0  0  0  0  0999 V2000
    0.7670  -13.4446   12.2248 N   0  0  0  0  0  0  0  0  0  0  0  0
    1.6846  -13.5560   11.2887 C   0  0  0  0  0  0  0  0  0  0  0  0
    2.4300  -12.4294   10.9323 N   0  0  0  0  0  0  0  0  0  0  0  0
    2.2131  -11.2599   11.5294 C   0  0  0  0  0  0  0  0  0  0  0  0
    1.2899  -11.1507   12.4665 C   0  0  0  0  0  0  0  0  0  0  0  0
    0.5695  -12.1997   12.8176 C   0  0  0  0  0  0  0  0  0  0  0  0
   -0.2858  -12.0743   13.6828 O   0  0  0  0  0  0  0  0  0  0  0  0
    1.2711   -9.8943   12.9080 N   0  0  0  0  0  0  0  0  0  0  0  0
    2.2023   -9.2278   12.2348 C   0  0  0  0  0  0  0  0  0  0  0  0
    2.7823  -10.0745   11.3802 N   0  0  0  0  0  0  0  0  0  0  0  0
  1  2  1  0  0  0  0
  1  6  1  0  0  0  0
  2  3  2  0  0  0  0
  3  4  1  0  0  0  0
  4  5  2  0  0  0  0
  4 10  1  0  0  0  0
  5  6  1  0  0  0  0
  5  8  1  0  0  0  0
  6  7  2  0  0  0  0
  8  9  1  0  0  0  0
  9 10  2  0  0  0  0
M  END
>  <CHROM.1>
1.45805115,-11.54327993,12.17567418,-2.18857835,0.74369097,0.32145752

>  <Name>
ligand

>  <RI>
0

>  <Rbt.Current_Directory>
/home/itssahil/PROJECTS/Mol_Feturizer/Test_systems_manuscript/rnas/5c7w

>  <Rbt.Executable>
rbdock ($Id: //depot/dev/client3/rdock/2013.1/src/exe/rbdock.cxx#4 $)

>  <Rbt.Library>
libRbt.so (2013.1, Build901 2013/11/27)

>  <Rbt.Parameter_File>
/export/apps/rDock/src/rDock_2013.1_src/data/scripts/dock_solv.prm

>  <Rbt.Receptor>
prm/pocket_docking_6.prm

>  <SCORE>
-15.2655

>  <SCORE.INTER>
-15.2655

>  <SCORE.INTER.CONST>
1

>  <SCORE.INTER.POLAR>
0

>  <SCORE.INTER.ROT>
0

>  <SCORE.INTER.SOLV>
3.27685

>  <SCORE.INTER.VDW>
-14.8693

>  <SCORE.INTER.norm>
-1.52655

>  <SCORE.INTRA>
0

>  <SCORE.INTRA.DIHEDRAL>
0

>  <SCORE.INTRA.DIHEDRAL.0>
0

>  <SCORE.INTRA.POLAR>
0

>  <SCORE.INTRA.POLAR.0>
0

>  <SCORE.INTRA.REPUL>
0

>  <SCORE.INTRA.REPUL.0>
0

>  <SCORE.INTRA.SOLV>
0

>  <SCORE.INTRA.SOLV.lig_0>
-4.15853

>  <SCORE.INTRA.VDW>
0

>  <SCORE.INTRA.VDW.0>
0

>  <SCORE.INTRA.norm>
0

>  <SCORE.RESTR>
0

>  <SCORE.RESTR.CAVITY>
0

>  <SCORE.RESTR.norm>
0

>  <SCORE.SYSTEM>
0

>  <SCORE.SYSTEM.CONST>
0

>  <SCORE.SYSTEM.DIHEDRAL>
0

>  <SCORE.SYSTEM.SOLV>
0

>  <SCORE.SYSTEM.norm>
0

>  <SCORE.heavy>
10

>  <SCORE.norm>
-1.52655

>  <RMSD>
1.107

$$$$
ligand
 OpenBabel02271912153D
libRbt.so/2013.1/901 2013/11/27
 10 11  0  0  0  0  0  0  0  0999 V2000
    0.7619  -13.4504   12.2135 N   0  0  0  0  0  0  0  0  0  0  0  0
    1.6754  -13.5571   11.2729 C   0  0  0  0  0  0  0  0  0  0  0  0
    2.4180  -12.4282   10.9178 N   0  0  0  0  0  0  0  0  0  0  0  0
    2.2026  -11.2615   11.5208 C   0  0  0  0  0  0  0  0  0  0  0  0
    1.2836  -11.1571   12.4625 C   0  0  0  0  0  0  0  0  0  0  0  0
    0.5659  -12.2083   12.8124 C   0  0  0  0  0  0  0  0  0  0  0  0
   -0.2856  -12.0874   13.6820 O   0  0  0  0  0  0  0  0  0  0  0  0
    1.2655   -9.9026   12.9093 N   0  0  0  0  0  0  0  0  0  0  0  0
    2.1930   -9.2323   12.2347 C   0  0  0  0  0  0  0  0  0  0  0  0
    2.7700  -10.0748   11.3740 N   0  0  0  0  0  0  0  0  0  0  0  0
  1  2  1  0  0  0  0
  1  6  1  0  0  0  0
  2  3  2  0  0  0  0
  3  4  1  0  0  0  0
  4  5  2  0  0  0  0
  4 10  1  0  0  0  0
  5  6  1  0  0  0  0
  5  8  1  0  0  0  0
  6  7  2  0  0  0  0
  8  9  1  0  0  0  0
  9 10  2  0  0  0  0
M  END
>  <CHROM.1>
1.45083137,-11.54827368,12.16924504,-2.18921865,0.74828467,0.32605593

>  <Name>
ligand

>  <RI>
0

>  <Rbt.Current_Directory>
/home/itssahil/PROJECTS/Mol_Feturizer/Test_systems_manuscript/rnas/5c7w

>  <Rbt.Executable>
rbdock ($Id: //depot/dev/client3/rdock/2013.1/src/exe/rbdock.cxx#4 $)

>  <Rbt.Library>
libRbt.so (2013.1, Build901 2013/11/27)

>  <Rbt.Parameter_File>
/export/apps/rDock/src/rDock_2013.1_src/data/scripts/dock_solv.prm

>  <Rbt.Receptor>
prm/pocket_docking_7.prm

>  <SCORE>
-15.2678

>  <SCORE.INTER>
-15.2678

>  <SCORE.INTER.CONST>
1

>  <SCORE.INTER.POLAR>
0

>  <SCORE.INTER.ROT>
0

>  <SCORE.INTER.SOLV>
3.28829

>  <SCORE.INTER.VDW>
-14.8746

>  <SCORE.INTER.norm>
-1.52678

>  <SCORE.INTRA>
0

>  <SCORE.INTRA.DIHEDRAL>
0

>  <SCORE.INTRA.DIHEDRAL.0>
0

>  <SCORE.INTRA.POLAR>
0

>  <SCORE.INTRA.POLAR.0>
0

>  <SCORE.INTRA.REPUL>
0

>  <SCORE.INTRA.REPUL.0>
0

>  <SCORE.INTRA.SOLV>
0

>  <SCORE.INTRA.SOLV.lig_0>
-4.15853

>  <SCORE.INTRA.VDW>
0

>  <SCORE.INTRA.VDW.0>
0

>  <SCORE.INTRA.norm>
0

>  <SCORE.RESTR>
0

>  <SCORE.RESTR.CAVITY>
0

>  <SCORE.RESTR.norm>
0

>  <SCORE.SYSTEM>
0

>  <SCORE.SYSTEM.CONST>
0

>  <SCORE.SYSTEM.DIHEDRAL>
0

>  <SCORE.SYSTEM.SOLV>
0

>  <SCORE.SYSTEM.norm>
0

>  <SCORE.heavy>
10

>  <SCORE.norm>
-1.52678

>  <RMSD>
1.107

$$$$
ligand
 OpenBabel02271912153D
libRbt.so/2013.1/901 2013/11/27
 10 11  0  0  0  0  0  0  0  0999 V2000
    0.7649  -13.4515   12.2162 N   0  0  0  0  0  0  0  0  0  0  0  0
    1.6721  -13.5610   11.2699 C   0  0  0  0  0  0  0  0  0  0  0  0
    2.4119  -12.4331   10.9060 N   0  0  0  0  0  0  0  0  0  0  0  0
    2.2001  -11.2644   11.5064 C   0  0  0  0  0  0  0  0  0  0  0  0
    1.2873  -11.1571   12.4538 C   0  0  0  0  0  0  0  0  0  0  0  0
    0.5723  -12.2074   12.8121 C   0  0  0  0  0  0  0  0  0  0  0  0
   -0.2734  -12.0838   13.6869 O   0  0  0  0  0  0  0  0  0  0  0  0
    1.2717   -9.9011   12.8964 N   0  0  0  0  0  0  0  0  0  0  0  0
    2.1944   -9.2328   12.2134 C   0  0  0  0  0  0  0  0  0  0  0  0
    2.7660  -10.0780   11.3517 N   0  0  0  0  0  0  0  0  0  0  0  0
  1  2  1  0  0  0  0
  1  6  1  0  0  0  0
  2  3  2  0  0  0  0
  3  4  1  0  0  0  0
  4  5  2  0  0  0  0
  4 10  1  0  0  0  0
  5  6  1  0  0  0  0
  5  8  1  0  0  0  0
  6  7  2  0  0  0  0
  8  9  1  0  0  0  0
  9 10  2  0  0  0  0
M  END
>  <CHROM.1>
1.45272794,-11.54924137,12.16081968,-2.19163147,0.75471047,0.32427363

>  <Name>
ligand

>  <RI>
0

>  <Rbt.Current_Directory>
/home/itssahil/PROJECTS/Mol_Feturizer/Test_systems_manuscript/rnas/5c7w

>  <Rbt.Executable>
rbdock ($Id: //depot/dev/client3/rdock/2013.1/src/exe/rbdock.cxx#4 $)

>  <Rbt.Library>
libRbt.so (2013.1, Build901 2013/11/27)

>  <Rbt.Parameter_File>
/export/apps/rDock/src/rDock_2013.1_src/data/scripts/dock_solv.prm

>  <Rbt.Receptor>
prm/pocket_docking_7.prm

>  <SCORE>
-15.236

>  <SCORE.INTER>
-15.236

>  <SCORE.INTER.CONST>
1

>  <SCORE.INTER.POLAR>
0

>  <SCORE.INTER.ROT>
0

>  <SCORE.INTER.SOLV>
3.29895

>  <SCORE.INTER.VDW>
-14.857

>  <SCORE.INTER.norm>
-1.5236

>  <SCORE.INTRA>
0

>  <SCORE.INTRA.DIHEDRAL>
0

>  <SCORE.INTRA.DIHEDRAL.0>
0

>  <SCORE.INTRA.POLAR>
0

>  <SCORE.INTRA.POLAR.0>
0

>  <SCORE.INTRA.REPUL>
0

>  <SCORE.INTRA.REPUL.0>
0

>  <SCORE.INTRA.SOLV>
0

>  <SCORE.INTRA.SOLV.lig_0>
-4.15853

>  <SCORE.INTRA.VDW>
0

>  <SCORE.INTRA.VDW.0>
0

>  <SCORE.INTRA.norm>
0

>  <SCORE.RESTR>
0

>  <SCORE.RESTR.CAVITY>
0

>  <SCORE.RESTR.norm>
0

>  <SCORE.SYSTEM>
0

>  <SCORE.SYSTEM.CONST>
0

>  <SCORE.SYSTEM.DIHEDRAL>
0

>  <SCORE.SYSTEM.SOLV>
0

>  <SCORE.SYSTEM.norm>
0

>  <SCORE.heavy>
10

>  <SCORE.norm>
-1.5236

>  <RMSD>
1.107

$$$$
ligand
 OpenBabel02271912153D
libRbt.so/2013.1/901 2013/11/27
 10 11  0  0  0  0  0  0  0  0999 V2000
    0.7690  -13.4525   12.2217 N   0  0  0  0  0  0  0  0  0  0  0  0
    1.6861  -13.5592   11.2846 C   0  0  0  0  0  0  0  0  0  0  0  0
    2.4269  -12.4292   10.9291 N   0  0  0  0  0  0  0  0  0  0  0  0
    2.2061  -11.2615   11.5281 C   0  0  0  0  0  0  0  0  0  0  0  0
    1.2834  -11.1571   12.4663 C   0  0  0  0  0  0  0  0  0  0  0  0
    0.5673  -12.2093   12.8164 C   0  0  0  0  0  0  0  0  0  0  0  0
   -0.2876  -12.0884   13.6826 O   0  0  0  0  0  0  0  0  0  0  0  0
    1.2602   -9.9014   12.9096 N   0  0  0  0  0  0  0  0  0  0  0  0
    2.1882   -9.2304   12.2365 C   0  0  0  0  0  0  0  0  0  0  0  0
    2.7707  -10.0736   11.3801 N   0  0  0  0  0  0  0  0  0  0  0  0
  1  2  1  0  0  0  0
  1  6  1  0  0  0  0
  2  3  2  0  0  0  0
  3  4  1  0  0  0  0
  4  5  2  0  0  0  0
  4 10  1  0  0  0  0
  5  6  1  0  0  0  0
  5  8  1  0  0  0  0
  6  7  2  0  0  0  0
  8  9  1  0  0  0  0
  9 10  2  0  0  0  0
M  END
>  <CHROM.1>
1.45276006,-11.54859523,12.17467550,-2.18407591,0.74575860,0.31985340

>  <Name>
ligand

>  <RI>
0

>  <Rbt.Current_Directory>
/home/itssahil/PROJECTS/Mol_Feturizer/Test_systems_manuscript/rnas/5c7w

>  <Rbt.Executable>
rbdock ($Id: //depot/dev/client3/rdock/2013.1/src/exe/rbdock.cxx#4 $)

>  <Rbt.Library>
libRbt.so (2013.1, Build901 2013/11/27)

>  <Rbt.Parameter_File>
/export/apps/rDock/src/rDock_2013.1_src/data/scripts/dock_solv.prm

>  <Rbt.Receptor>
prm/blind_docking_20.prm

>  <SCORE>
-15.2661

>  <SCORE.INTER>
-15.2661

>  <SCORE.INTER.CONST>
1

>  <SCORE.INTER.POLAR>
0

>  <SCORE.INTER.ROT>
0

>  <SCORE.INTER.SOLV>
3.28631

>  <SCORE.INTER.VDW>
-14.8729

>  <SCORE.INTER.norm>
-1.52661

>  <SCORE.INTRA>
0

>  <SCORE.INTRA.DIHEDRAL>
0

>  <SCORE.INTRA.DIHEDRAL.0>
0

>  <SCORE.INTRA.POLAR>
0

>  <SCORE.INTRA.POLAR.0>
0

>  <SCORE.INTRA.REPUL>
0

>  <SCORE.INTRA.REPUL.0>
0

>  <SCORE.INTRA.SOLV>
0

>  <SCORE.INTRA.SOLV.lig_0>
-4.15853

>  <SCORE.INTRA.VDW>
0

>  <SCORE.INTRA.VDW.0>
0

>  <SCORE.INTRA.norm>
0

>  <SCORE.RESTR>
0

>  <SCORE.RESTR.CAVITY>
0

>  <SCORE.RESTR.norm>
0

>  <SCORE.SYSTEM>
0

>  <SCORE.SYSTEM.CONST>
0

>  <SCORE.SYSTEM.DIHEDRAL>
0

>  <SCORE.SYSTEM.SOLV>
0

>  <SCORE.SYSTEM.norm>
0

>  <SCORE.heavy>
10

>  <SCORE.norm>
-1.52661

>  <RMSD>
1.108

$$$$
ligand
 OpenBabel02271912153D
libRbt.so/2013.1/901 2013/11/27
 10 11  0  0  0  0  0  0  0  0999 V2000
    0.7676  -13.4512   12.2238 N   0  0  0  0  0  0  0  0  0  0  0  0
    1.6785  -13.5602   11.2808 C   0  0  0  0  0  0  0  0  0  0  0  0
    2.4213  -12.4326   10.9221 N   0  0  0  0  0  0  0  0  0  0  0  0
    2.2087  -11.2647   11.5238 C   0  0  0  0  0  0  0  0  0  0  0  0
    1.2923  -11.1580   12.4678 C   0  0  0  0  0  0  0  0  0  0  0  0
    0.5744  -12.2079   12.8213 C   0  0  0  0  0  0  0  0  0  0  0  0
   -0.2746  -12.0848   13.6929 O   0  0  0  0  0  0  0  0  0  0  0  0
    1.2766   -9.9028   12.9127 N   0  0  0  0  0  0  0  0  0  0  0  0
    2.2029   -9.2345   12.2346 C   0  0  0  0  0  0  0  0  0  0  0  0
    2.7768  -10.0788   11.3737 N   0  0  0  0  0  0  0  0  0  0  0  0
  1  2  1  0  0  0  0
  1  6  1  0  0  0  0
  2  3  2  0  0  0  0
  3  4  1  0  0  0  0
  4  5  2  0  0  0  0
  4 10  1  0  0  0  0
  5  6  1  0  0  0  0
  5  8  1  0  0  0  0
  6  7  2  0  0  0  0
  8  9  1  0  0  0  0
  9 10  2  0  0  0  0
M  END
>  <CHROM.1>
1.45831451,-11.54976888,12.17472302,-2.19167743,0.75049848,0.32620587

>  <Name>
ligand

>  <RI>
0

>  <Rbt.Current_Directory>
/home/itssahil/PROJECTS/Mol_Feturizer/Test_systems_manuscript/rnas/5c7w

>  <Rbt.Executable>
rbdock ($Id: //depot/dev/client3/rdock/2013.1/src/exe/rbdock.cxx#4 $)

>  <Rbt.Library>
libRbt.so (2013.1, Build901 2013/11/27)

>  <Rbt.Parameter_File>
/export/apps/rDock/src/rDock_2013.1_src/data/scripts/dock_solv.prm

>  <Rbt.Receptor>
prm/pocket_docking_3.prm

>  <SCORE>
-15.2682

>  <SCORE.INTER>
-15.2682

>  <SCORE.INTER.CONST>
1

>  <SCORE.INTER.POLAR>
0

>  <SCORE.INTER.ROT>
0

>  <SCORE.INTER.SOLV>
3.2961

>  <SCORE.INTER.VDW>
-14.8775

>  <SCORE.INTER.norm>
-1.52682

>  <SCORE.INTRA>
0

>  <SCORE.INTRA.DIHEDRAL>
0

>  <SCORE.INTRA.DIHEDRAL.0>
0

>  <SCORE.INTRA.POLAR>
0

>  <SCORE.INTRA.POLAR.0>
0

>  <SCORE.INTRA.REPUL>
0

>  <SCORE.INTRA.REPUL.0>
0

>  <SCORE.INTRA.SOLV>
0

>  <SCORE.INTRA.SOLV.lig_0>
-4.15853

>  <SCORE.INTRA.VDW>
0

>  <SCORE.INTRA.VDW.0>
0

>  <SCORE.INTRA.norm>
0

>  <SCORE.RESTR>
0

>  <SCORE.RESTR.CAVITY>
0

>  <SCORE.RESTR.norm>
0

>  <SCORE.SYSTEM>
0

>  <SCORE.SYSTEM.CONST>
0

>  <SCORE.SYSTEM.DIHEDRAL>
0

>  <SCORE.SYSTEM.SOLV>
0

>  <SCORE.SYSTEM.norm>
0

>  <SCORE.heavy>
10

>  <SCORE.norm>
-1.52682

>  <RMSD>
1.108

$$$$
ligand
 OpenBabel02271912153D
libRbt.so/2013.1/901 2013/11/27
 10 11  0  0  0  0  0  0  0  0999 V2000
    0.7633  -13.4462   12.2142 N   0  0  0  0  0  0  0  0  0  0  0  0
    1.6780  -13.5541   11.2748 C   0  0  0  0  0  0  0  0  0  0  0  0
    2.4220  -12.4260   10.9202 N   0  0  0  0  0  0  0  0  0  0  0  0
    2.2067  -11.2588   11.5222 C   0  0  0  0  0  0  0  0  0  0  0  0
    1.2866  -11.1532   12.4627 C   0  0  0  0  0  0  0  0  0  0  0  0
    0.5675  -12.2036   12.8121 C   0  0  0  0  0  0  0  0  0  0  0  0
   -0.2851  -12.0815   13.6805 O   0  0  0  0  0  0  0  0  0  0  0  0
    1.2689   -9.8984   12.9088 N   0  0  0  0  0  0  0  0  0  0  0  0
    2.1978   -9.2292   12.2351 C   0  0  0  0  0  0  0  0  0  0  0  0
    2.7753  -10.0726   11.3756 N   0  0  0  0  0  0  0  0  0  0  0  0
  1  2  1  0  0  0  0
  1  6  1  0  0  0  0
  2  3  2  0  0  0  0
  3  4  1  0  0  0  0
  4  5  2  0  0  0  0
  4 10  1  0  0  0  0
  5  6  1  0  0  0  0
  5  8  1  0  0  0  0
  6  7  2  0  0  0  0
  8  9  1  0  0  0  0
  9 10  2  0  0  0  0
M  END
>  <CHROM.1>
1.45383633,-11.54461881,12.16981976,-2.18966816,0.74675162,0.32585539

>  <Name>
ligand

>  <RI>
0

>  <Rbt.Current_Directory>
/home/itssahil/PROJECTS/Mol_Feturizer/Test_systems_manuscript/rnas/5c7w

>  <Rbt.Executable>
rbdock ($Id: //depot/dev/client3/rdock/2013.1/src/exe/rbdock.cxx#4 $)

>  <Rbt.Library>
libRbt.so (2013.1, Build901 2013/11/27)

>  <Rbt.Parameter_File>
/export/apps/rDock/src/rDock_2013.1_src/data/scripts/dock_solv.prm

>  <Rbt.Receptor>
prm/pocket_docking_7.prm

>  <SCORE>
-15.2677

>  <SCORE.INTER>
-15.2677

>  <SCORE.INTER.CONST>
1

>  <SCORE.INTER.POLAR>
0

>  <SCORE.INTER.ROT>
0

>  <SCORE.INTER.SOLV>
3.28205

>  <SCORE.INTER.VDW>
-14.8725

>  <SCORE.INTER.norm>
-1.52677

>  <SCORE.INTRA>
0

>  <SCORE.INTRA.DIHEDRAL>
0

>  <SCORE.INTRA.DIHEDRAL.0>
0

>  <SCORE.INTRA.POLAR>
0

>  <SCORE.INTRA.POLAR.0>
0

>  <SCORE.INTRA.REPUL>
0

>  <SCORE.INTRA.REPUL.0>
0

>  <SCORE.INTRA.SOLV>
0

>  <SCORE.INTRA.SOLV.lig_0>
-4.15853

>  <SCORE.INTRA.VDW>
0

>  <SCORE.INTRA.VDW.0>
0

>  <SCORE.INTRA.norm>
0

>  <SCORE.RESTR>
0

>  <SCORE.RESTR.CAVITY>
0

>  <SCORE.RESTR.norm>
0

>  <SCORE.SYSTEM>
0

>  <SCORE.SYSTEM.CONST>
0

>  <SCORE.SYSTEM.DIHEDRAL>
0

>  <SCORE.SYSTEM.SOLV>
0

>  <SCORE.SYSTEM.norm>
0

>  <SCORE.heavy>
10

>  <SCORE.norm>
-1.52677

>  <RMSD>
1.108

$$$$
ligand
 OpenBabel02271912153D
libRbt.so/2013.1/901 2013/11/27
 10 11  0  0  0  0  0  0  0  0999 V2000
    0.7668  -13.4528   12.2194 N   0  0  0  0  0  0  0  0  0  0  0  0
    1.6785  -13.5590   11.2770 C   0  0  0  0  0  0  0  0  0  0  0  0
    2.4187  -12.4295   10.9192 N   0  0  0  0  0  0  0  0  0  0  0  0
    2.2028  -11.2624   11.5213 C   0  0  0  0  0  0  0  0  0  0  0  0
    1.2856  -11.1584   12.4648 C   0  0  0  0  0  0  0  0  0  0  0  0
    0.5701  -12.2103   12.8173 C   0  0  0  0  0  0  0  0  0  0  0  0
   -0.2798  -12.0896   13.6884 O   0  0  0  0  0  0  0  0  0  0  0  0
    1.2665   -9.9034   12.9102 N   0  0  0  0  0  0  0  0  0  0  0  0
    2.1916   -9.2325   12.2330 C   0  0  0  0  0  0  0  0  0  0  0  0
    2.7681  -10.0750   11.3721 N   0  0  0  0  0  0  0  0  0  0  0  0
  1  2  1  0  0  0  0
  1  6  1  0  0  0  0
  2  3  2  0  0  0  0
  3  4  1  0  0  0  0
  4  5  2  0  0  0  0
  4 10  1  0  0  0  0
  5  6  1  0  0  0  0
  5  8  1  0  0  0  0
  6  7  2  0  0  0  0
  8  9  1  0  0  0  0
  9 10  2  0  0  0  0
M  END
>  <CHROM.1>
1.45274983,-11.54960862,12.17161092,-2.18816811,0.75068008,0.32425712

>  <Name>
ligand

>  <RI>
0

>  <Rbt.Current_Directory>
/home/itssahil/PROJECTS/Mol_Feturizer/Test_systems_manuscript/rnas/5c7w

>  <Rbt.Executable>
rbdock ($Id: //depot/dev/client3/rdock/2013.1/src/exe/rbdock.cxx#4 $)

>  <Rbt.Library>
libRbt.so (2013.1, Build901 2013/11/27)

>  <Rbt.Parameter_File>
/export/apps/rDock/src/rDock_2013.1_src/data/scripts/dock_solv.prm

>  <Rbt.Receptor>
prm/pocket_docking_8.prm

>  <SCORE>
-15.2688

>  <SCORE.INTER>
-15.2688

>  <SCORE.INTER.CONST>
1

>  <SCORE.INTER.POLAR>
0

>  <SCORE.INTER.ROT>
0

>  <SCORE.INTER.SOLV>
3.29672

>  <SCORE.INTER.VDW>
-14.8781

>  <SCORE.INTER.norm>
-1.52688

>  <SCORE.INTRA>
0

>  <SCORE.INTRA.DIHEDRAL>
0

>  <SCORE.INTRA.DIHEDRAL.0>
0

>  <SCORE.INTRA.POLAR>
0

>  <SCORE.INTRA.POLAR.0>
0

>  <SCORE.INTRA.REPUL>
0

>  <SCORE.INTRA.REPUL.0>
0

>  <SCORE.INTRA.SOLV>
0

>  <SCORE.INTRA.SOLV.lig_0>
-4.15853

>  <SCORE.INTRA.VDW>
0

>  <SCORE.INTRA.VDW.0>
0

>  <SCORE.INTRA.norm>
0

>  <SCORE.RESTR>
0

>  <SCORE.RESTR.CAVITY>
0

>  <SCORE.RESTR.norm>
0

>  <SCORE.SYSTEM>
0

>  <SCORE.SYSTEM.CONST>
0

>  <SCORE.SYSTEM.DIHEDRAL>
0

>  <SCORE.SYSTEM.SOLV>
0

>  <SCORE.SYSTEM.norm>
0

>  <SCORE.heavy>
10

>  <SCORE.norm>
-1.52688

>  <RMSD>
1.108

$$$$
ligand
 OpenBabel02271912153D
libRbt.so/2013.1/901 2013/11/27
 10 11  0  0  0  0  0  0  0  0999 V2000
    0.7706  -13.4528   12.2278 N   0  0  0  0  0  0  0  0  0  0  0  0
    1.6807  -13.5598   11.2840 C   0  0  0  0  0  0  0  0  0  0  0  0
    2.4191  -12.4300   10.9229 N   0  0  0  0  0  0  0  0  0  0  0  0
    2.2030  -11.2621   11.5233 C   0  0  0  0  0  0  0  0  0  0  0  0
    1.2873  -11.1575   12.4683 C   0  0  0  0  0  0  0  0  0  0  0  0
    0.5736  -12.2095   12.8239 C   0  0  0  0  0  0  0  0  0  0  0  0
   -0.2749  -12.0883   13.6964 O   0  0  0  0  0  0  0  0  0  0  0  0
    1.2677   -9.9017   12.9116 N   0  0  0  0  0  0  0  0  0  0  0  0
    2.1908   -9.2310   12.2315 C   0  0  0  0  0  0  0  0  0  0  0  0
    2.7667  -10.0744   11.3710 N   0  0  0  0  0  0  0  0  0  0  0  0
  1  2  1  0  0  0  0
  1  6  1  0  0  0  0
  2  3  2  0  0  0  0
  3  4  1  0  0  0  0
  4  5  2  0  0  0  0
  4 10  1  0  0  0  0
  5  6  1  0  0  0  0
  5  8  1  0  0  0  0
  6  7  2  0  0  0  0
  8  9  1  0  0  0  0
  9 10  2  0  0  0  0
M  END
>  <CHROM.1>
1.45439258,-11.54902793,12.17551672,-2.18755434,0.75274618,0.32208837

>  <Name>
ligand

>  <RI>
0

>  <Rbt.Current_Directory>
/home/itssahil/PROJECTS/Mol_Feturizer/Test_systems_manuscript/rnas/5c7w

>  <Rbt.Executable>
rbdock ($Id: //depot/dev/client3/rdock/2013.1/src/exe/rbdock.cxx#4 $)

>  <Rbt.Library>
libRbt.so (2013.1, Build901 2013/11/27)

>  <Rbt.Parameter_File>
/export/apps/rDock/src/rDock_2013.1_src/data/scripts/dock_solv.prm

>  <Rbt.Receptor>
prm/pocket_docking_8.prm

>  <SCORE>
-15.2681

>  <SCORE.INTER>
-15.2681

>  <SCORE.INTER.CONST>
1

>  <SCORE.INTER.POLAR>
0

>  <SCORE.INTER.ROT>
0

>  <SCORE.INTER.SOLV>
3.30443

>  <SCORE.INTER.VDW>
-14.8802

>  <SCORE.INTER.norm>
-1.52681

>  <SCORE.INTRA>
0

>  <SCORE.INTRA.DIHEDRAL>
0

>  <SCORE.INTRA.DIHEDRAL.0>
0

>  <SCORE.INTRA.POLAR>
0

>  <SCORE.INTRA.POLAR.0>
0

>  <SCORE.INTRA.REPUL>
0

>  <SCORE.INTRA.REPUL.0>
0

>  <SCORE.INTRA.SOLV>
0

>  <SCORE.INTRA.SOLV.lig_0>
-4.15853

>  <SCORE.INTRA.VDW>
0

>  <SCORE.INTRA.VDW.0>
0

>  <SCORE.INTRA.norm>
0

>  <SCORE.RESTR>
0

>  <SCORE.RESTR.CAVITY>
0

>  <SCORE.RESTR.norm>
0

>  <SCORE.SYSTEM>
0

>  <SCORE.SYSTEM.CONST>
0

>  <SCORE.SYSTEM.DIHEDRAL>
0

>  <SCORE.SYSTEM.SOLV>
0

>  <SCORE.SYSTEM.norm>
0

>  <SCORE.heavy>
10

>  <SCORE.norm>
-1.52681

>  <RMSD>
1.108

$$$$
ligand
 OpenBabel02271912153D
libRbt.so/2013.1/901 2013/11/27
 10 11  0  0  0  0  0  0  0  0999 V2000
    0.7679  -13.4484   12.2191 N   0  0  0  0  0  0  0  0  0  0  0  0
    1.6826  -13.5564   11.2798 C   0  0  0  0  0  0  0  0  0  0  0  0
    2.4256  -12.4280   10.9239 N   0  0  0  0  0  0  0  0  0  0  0  0
    2.2093  -11.2603   11.5247 C   0  0  0  0  0  0  0  0  0  0  0  0
    1.2890  -11.1546   12.4651 C   0  0  0  0  0  0  0  0  0  0  0  0
    0.5709  -12.2053   12.8157 C   0  0  0  0  0  0  0  0  0  0  0  0
   -0.2818  -12.0831   13.6839 O   0  0  0  0  0  0  0  0  0  0  0  0
    1.2701   -9.8994   12.9098 N   0  0  0  0  0  0  0  0  0  0  0  0
    2.1984   -9.2301   12.2354 C   0  0  0  0  0  0  0  0  0  0  0  0
    2.7767  -10.0738   11.3768 N   0  0  0  0  0  0  0  0  0  0  0  0
  1  2  1  0  0  0  0
  1  6  1  0  0  0  0
  2  3  2  0  0  0  0
  3  4  1  0  0  0  0
  4  5  2  0  0  0  0
  4 10  1  0  0  0  0
  5  6  1  0  0  0  0
  5  8  1  0  0  0  0
  6  7  2  0  0  0  0
  8  9  1  0  0  0  0
  9 10  2  0  0  0  0
M  END
>  <CHROM.1>
1.45662940,-11.54621109,12.17265821,-2.18846658,0.74706630,0.32396393

>  <Name>
ligand

>  <RI>
0

>  <Rbt.Current_Directory>
/home/itssahil/PROJECTS/Mol_Feturizer/Test_systems_manuscript/rnas/5c7w

>  <Rbt.Executable>
rbdock ($Id: //depot/dev/client3/rdock/2013.1/src/exe/rbdock.cxx#4 $)

>  <Rbt.Library>
libRbt.so (2013.1, Build901 2013/11/27)

>  <Rbt.Parameter_File>
/export/apps/rDock/src/rDock_2013.1_src/data/scripts/dock_solv.prm

>  <Rbt.Receptor>
prm/blind_docking_20.prm

>  <SCORE>
-15.268

>  <SCORE.INTER>
-15.268

>  <SCORE.INTER.CONST>
1

>  <SCORE.INTER.POLAR>
0

>  <SCORE.INTER.ROT>
0

>  <SCORE.INTER.SOLV>
3.28519

>  <SCORE.INTER.VDW>
-14.8737

>  <SCORE.INTER.norm>
-1.5268

>  <SCORE.INTRA>
0

>  <SCORE.INTRA.DIHEDRAL>
0

>  <SCORE.INTRA.DIHEDRAL.0>
0

>  <SCORE.INTRA.POLAR>
0

>  <SCORE.INTRA.POLAR.0>
0

>  <SCORE.INTRA.REPUL>
0

>  <SCORE.INTRA.REPUL.0>
0

>  <SCORE.INTRA.SOLV>
0

>  <SCORE.INTRA.SOLV.lig_0>
-4.15853

>  <SCORE.INTRA.VDW>
0

>  <SCORE.INTRA.VDW.0>
0

>  <SCORE.INTRA.norm>
0

>  <SCORE.RESTR>
0

>  <SCORE.RESTR.CAVITY>
0

>  <SCORE.RESTR.norm>
0

>  <SCORE.SYSTEM>
0

>  <SCORE.SYSTEM.CONST>
0

>  <SCORE.SYSTEM.DIHEDRAL>
0

>  <SCORE.SYSTEM.SOLV>
0

>  <SCORE.SYSTEM.norm>
0

>  <SCORE.heavy>
10

>  <SCORE.norm>
-1.5268

>  <RMSD>
1.109

$$$$
ligand
 OpenBabel02271912153D
libRbt.so/2013.1/901 2013/11/27
 10 11  0  0  0  0  0  0  0  0999 V2000
    0.7692  -13.4458   12.2215 N   0  0  0  0  0  0  0  0  0  0  0  0
    1.6822  -13.5527   11.2805 C   0  0  0  0  0  0  0  0  0  0  0  0
    2.4219  -12.4230   10.9219 N   0  0  0  0  0  0  0  0  0  0  0  0
    2.2040  -11.2551   11.5218 C   0  0  0  0  0  0  0  0  0  0  0  0
    1.2855  -11.1505   12.4639 C   0  0  0  0  0  0  0  0  0  0  0  0
    0.5706  -12.2025   12.8172 C   0  0  0  0  0  0  0  0  0  0  0  0
   -0.2806  -12.0813   13.6871 O   0  0  0  0  0  0  0  0  0  0  0  0
    1.2646   -9.8948   12.9074 N   0  0  0  0  0  0  0  0  0  0  0  0
    2.1899   -9.2241   12.2302 C   0  0  0  0  0  0  0  0  0  0  0  0
    2.7684  -10.0675   11.3714 N   0  0  0  0  0  0  0  0  0  0  0  0
  1  2  1  0  0  0  0
  1  6  1  0  0  0  0
  2  3  2  0  0  0  0
  3  4  1  0  0  0  0
  4  5  2  0  0  0  0
  4 10  1  0  0  0  0
  5  6  1  0  0  0  0
  5  8  1  0  0  0  0
  6  7  2  0  0  0  0
  8  9  1  0  0  0  0
  9 10  2  0  0  0  0
M  END
>  <CHROM.1>
1.45341391,-11.54204440,12.17161087,-2.18634958,0.74976185,0.32141028

>  <Name>
ligand

>  <RI>
0

>  <Rbt.Current_Directory>
/home/itssahil/PROJECTS/Mol_Feturizer/Test_systems_manuscript/rnas/5c7w

>  <Rbt.Executable>
rbdock ($Id: //depot/dev/client3/rdock/2013.1/src/exe/rbdock.cxx#4 $)

>  <Rbt.Library>
libRbt.so (2013.1, Build901 2013/11/27)

>  <Rbt.Parameter_File>
/export/apps/rDock/src/rDock_2013.1_src/data/scripts/dock_solv.prm

>  <Rbt.Receptor>
prm/blind_docking_20.prm

>  <SCORE>
-15.2677

>  <SCORE.INTER>
-15.2677

>  <SCORE.INTER.CONST>
1

>  <SCORE.INTER.POLAR>
0

>  <SCORE.INTER.ROT>
0

>  <SCORE.INTER.SOLV>
3.29129

>  <SCORE.INTER.VDW>
-14.8756

>  <SCORE.INTER.norm>
-1.52677

>  <SCORE.INTRA>
0

>  <SCORE.INTRA.DIHEDRAL>
0

>  <SCORE.INTRA.DIHEDRAL.0>
0

>  <SCORE.INTRA.POLAR>
0

>  <SCORE.INTRA.POLAR.0>
0

>  <SCORE.INTRA.REPUL>
0

>  <SCORE.INTRA.REPUL.0>
0

>  <SCORE.INTRA.SOLV>
0

>  <SCORE.INTRA.SOLV.lig_0>
-4.15853

>  <SCORE.INTRA.VDW>
0

>  <SCORE.INTRA.VDW.0>
0

>  <SCORE.INTRA.norm>
0

>  <SCORE.RESTR>
0

>  <SCORE.RESTR.CAVITY>
0

>  <SCORE.RESTR.norm>
0

>  <SCORE.SYSTEM>
0

>  <SCORE.SYSTEM.CONST>
0

>  <SCORE.SYSTEM.DIHEDRAL>
0

>  <SCORE.SYSTEM.SOLV>
0

>  <SCORE.SYSTEM.norm>
0

>  <SCORE.heavy>
10

>  <SCORE.norm>
-1.52677

>  <RMSD>
1.109

$$$$
ligand
 OpenBabel02271912153D
libRbt.so/2013.1/901 2013/11/27
 10 11  0  0  0  0  0  0  0  0999 V2000
    0.7776  -13.4523   12.2316 N   0  0  0  0  0  0  0  0  0  0  0  0
    1.6961  -13.5602   11.2960 C   0  0  0  0  0  0  0  0  0  0  0  0
    2.4343  -12.4297   10.9369 N   0  0  0  0  0  0  0  0  0  0  0  0
    2.2096  -11.2601   11.5309 C   0  0  0  0  0  0  0  0  0  0  0  0
    1.2856  -11.1545   12.4675 C   0  0  0  0  0  0  0  0  0  0  0  0
    0.5719  -12.2072   12.8211 C   0  0  0  0  0  0  0  0  0  0  0  0
   -0.2844  -12.0851   13.6858 O   0  0  0  0  0  0  0  0  0  0  0  0
    1.2585   -9.8971   12.9057 N   0  0  0  0  0  0  0  0  0  0  0  0
    2.1855   -9.2263   12.2310 C   0  0  0  0  0  0  0  0  0  0  0  0
    2.7712  -10.0714   11.3788 N   0  0  0  0  0  0  0  0  0  0  0  0
  1  2  1  0  0  0  0
  1  6  1  0  0  0  0
  2  3  2  0  0  0  0
  3  4  1  0  0  0  0
  4  5  2  0  0  0  0
  4 10  1  0  0  0  0
  5  6  1  0  0  0  0
  5  8  1  0  0  0  0
  6  7  2  0  0  0  0
  8  9  1  0  0  0  0
  9 10  2  0  0  0  0
M  END
>  <CHROM.1>
1.45629507,-11.54669299,12.17772586,-2.18009047,0.74548869,0.31311329

>  <Name>
ligand

>  <RI>
0

>  <Rbt.Current_Directory>
/home/itssahil/PROJECTS/Mol_Feturizer/Test_systems_manuscript/rnas/5c7w

>  <Rbt.Executable>
rbdock ($Id: //depot/dev/client3/rdock/2013.1/src/exe/rbdock.cxx#4 $)

>  <Rbt.Library>
libRbt.so (2013.1, Build901 2013/11/27)

>  <Rbt.Parameter_File>
/export/apps/rDock/src/rDock_2013.1_src/data/scripts/dock_solv.prm

>  <Rbt.Receptor>
prm/blind_docking_60.prm

>  <SCORE>
-15.2632

>  <SCORE.INTER>
-15.2632

>  <SCORE.INTER.CONST>
1

>  <SCORE.INTER.POLAR>
0

>  <SCORE.INTER.ROT>
0

>  <SCORE.INTER.SOLV>
3.28707

>  <SCORE.INTER.VDW>
-14.8711

>  <SCORE.INTER.norm>
-1.52632

>  <SCORE.INTRA>
0

>  <SCORE.INTRA.DIHEDRAL>
0

>  <SCORE.INTRA.DIHEDRAL.0>
0

>  <SCORE.INTRA.POLAR>
0

>  <SCORE.INTRA.POLAR.0>
0

>  <SCORE.INTRA.REPUL>
0

>  <SCORE.INTRA.REPUL.0>
0

>  <SCORE.INTRA.SOLV>
0

>  <SCORE.INTRA.SOLV.lig_0>
-4.15853

>  <SCORE.INTRA.VDW>
0

>  <SCORE.INTRA.VDW.0>
0

>  <SCORE.INTRA.norm>
0

>  <SCORE.RESTR>
0

>  <SCORE.RESTR.CAVITY>
0

>  <SCORE.RESTR.norm>
0

>  <SCORE.SYSTEM>
0

>  <SCORE.SYSTEM.CONST>
0

>  <SCORE.SYSTEM.DIHEDRAL>
0

>  <SCORE.SYSTEM.SOLV>
0

>  <SCORE.SYSTEM.norm>
0

>  <SCORE.heavy>
10

>  <SCORE.norm>
-1.52632

>  <RMSD>
1.109

$$$$
ligand
 OpenBabel02271912153D
libRbt.so/2013.1/901 2013/11/27
 10 11  0  0  0  0  0  0  0  0999 V2000
    0.7658  -13.4504   12.2162 N   0  0  0  0  0  0  0  0  0  0  0  0
    1.6748  -13.5559   11.2711 C   0  0  0  0  0  0  0  0  0  0  0  0
    2.4145  -12.4261   10.9127 N   0  0  0  0  0  0  0  0  0  0  0  0
    2.2008  -11.2597   11.5169 C   0  0  0  0  0  0  0  0  0  0  0  0
    1.2862  -11.1565   12.4631 C   0  0  0  0  0  0  0  0  0  0  0  0
    0.5713  -12.2086   12.8162 C   0  0  0  0  0  0  0  0  0  0  0  0
   -0.2762  -12.0887   13.6899 O   0  0  0  0  0  0  0  0  0  0  0  0
    1.2689   -9.9021   12.9101 N   0  0  0  0  0  0  0  0  0  0  0  0
    2.1924   -9.2307   12.2312 C   0  0  0  0  0  0  0  0  0  0  0  0
    2.7662  -10.0724   11.3676 N   0  0  0  0  0  0  0  0  0  0  0  0
  1  2  1  0  0  0  0
  1  6  1  0  0  0  0
  2  3  2  0  0  0  0
  3  4  1  0  0  0  0
  4  5  2  0  0  0  0
  4 10  1  0  0  0  0
  5  6  1  0  0  0  0
  5  8  1  0  0  0  0
  6  7  2  0  0  0  0
  8  9  1  0  0  0  0
  9 10  2  0  0  0  0
M  END
>  <CHROM.1>
1.45243120,-11.54745712,12.16891476,-2.18994381,0.75318521,0.32673768

>  <Name>
ligand

>  <RI>
0

>  <Rbt.Current_Directory>
/home/itssahil/PROJECTS/Mol_Feturizer/Test_systems_manuscript/rnas/5c7w

>  <Rbt.Executable>
rbdock ($Id: //depot/dev/client3/rdock/2013.1/src/exe/rbdock.cxx#4 $)

>  <Rbt.Library>
libRbt.so (2013.1, Build901 2013/11/27)

>  <Rbt.Parameter_File>
/export/apps/rDock/src/rDock_2013.1_src/data/scripts/dock_solv.prm

>  <Rbt.Receptor>
prm/pocket_docking_3.prm

>  <SCORE>
-15.269

>  <SCORE.INTER>
-15.269

>  <SCORE.INTER.CONST>
1

>  <SCORE.INTER.POLAR>
0

>  <SCORE.INTER.ROT>
0

>  <SCORE.INTER.SOLV>
3.30008

>  <SCORE.INTER.VDW>
-14.8793

>  <SCORE.INTER.norm>
-1.5269

>  <SCORE.INTRA>
0

>  <SCORE.INTRA.DIHEDRAL>
0

>  <SCORE.INTRA.DIHEDRAL.0>
0

>  <SCORE.INTRA.POLAR>
0

>  <SCORE.INTRA.POLAR.0>
0

>  <SCORE.INTRA.REPUL>
0

>  <SCORE.INTRA.REPUL.0>
0

>  <SCORE.INTRA.SOLV>
0

>  <SCORE.INTRA.SOLV.lig_0>
-4.15853

>  <SCORE.INTRA.VDW>
0

>  <SCORE.INTRA.VDW.0>
0

>  <SCORE.INTRA.norm>
0

>  <SCORE.RESTR>
0

>  <SCORE.RESTR.CAVITY>
0

>  <SCORE.RESTR.norm>
0

>  <SCORE.SYSTEM>
0

>  <SCORE.SYSTEM.CONST>
0

>  <SCORE.SYSTEM.DIHEDRAL>
0

>  <SCORE.SYSTEM.SOLV>
0

>  <SCORE.SYSTEM.norm>
0

>  <SCORE.heavy>
10

>  <SCORE.norm>
-1.5269

>  <RMSD>
1.109

$$$$
ligand
 OpenBabel02271912153D
libRbt.so/2013.1/901 2013/11/27
 10 11  0  0  0  0  0  0  0  0999 V2000
    0.7650  -13.4511   12.2163 N   0  0  0  0  0  0  0  0  0  0  0  0
    1.6747  -13.5568   11.2719 C   0  0  0  0  0  0  0  0  0  0  0  0
    2.4148  -12.4272   10.9140 N   0  0  0  0  0  0  0  0  0  0  0  0
    2.2008  -11.2607   11.5179 C   0  0  0  0  0  0  0  0  0  0  0  0
    1.2856  -11.1573   12.4634 C   0  0  0  0  0  0  0  0  0  0  0  0
    0.5702  -12.2092   12.8161 C   0  0  0  0  0  0  0  0  0  0  0  0
   -0.2778  -12.0892   13.6892 O   0  0  0  0  0  0  0  0  0  0  0  0
    1.2681   -9.9029   12.9104 N   0  0  0  0  0  0  0  0  0  0  0  0
    2.1922   -9.2317   12.2321 C   0  0  0  0  0  0  0  0  0  0  0  0
    2.7664  -10.0735   11.3689 N   0  0  0  0  0  0  0  0  0  0  0  0
  1  2  1  0  0  0  0
  1  6  1  0  0  0  0
  2  3  2  0  0  0  0
  3  4  1  0  0  0  0
  4  5  2  0  0  0  0
  4 10  1  0  0  0  0
  5  6  1  0  0  0  0
  5  8  1  0  0  0  0
  6  7  2  0  0  0  0
  8  9  1  0  0  0  0
  9 10  2  0  0  0  0
M  END
>  <CHROM.1>
1.45191561,-11.54829954,12.16943791,-2.18979965,0.75246869,0.32658173

>  <Name>
ligand

>  <RI>
0

>  <Rbt.Current_Directory>
/home/itssahil/PROJECTS/Mol_Feturizer/Test_systems_manuscript/rnas/5c7w

>  <Rbt.Executable>
rbdock ($Id: //depot/dev/client3/rdock/2013.1/src/exe/rbdock.cxx#4 $)

>  <Rbt.Library>
libRbt.so (2013.1, Build901 2013/11/27)

>  <Rbt.Parameter_File>
/export/apps/rDock/src/rDock_2013.1_src/data/scripts/dock_solv.prm

>  <Rbt.Receptor>
prm/pocket_docking_3.prm

>  <SCORE>
-15.2688

>  <SCORE.INTER>
-15.2688

>  <SCORE.INTER.CONST>
1

>  <SCORE.INTER.POLAR>
0

>  <SCORE.INTER.ROT>
0

>  <SCORE.INTER.SOLV>
3.29912

>  <SCORE.INTER.VDW>
-14.8789

>  <SCORE.INTER.norm>
-1.52688

>  <SCORE.INTRA>
0

>  <SCORE.INTRA.DIHEDRAL>
0

>  <SCORE.INTRA.DIHEDRAL.0>
0

>  <SCORE.INTRA.POLAR>
0

>  <SCORE.INTRA.POLAR.0>
0

>  <SCORE.INTRA.REPUL>
0

>  <SCORE.INTRA.REPUL.0>
0

>  <SCORE.INTRA.SOLV>
0

>  <SCORE.INTRA.SOLV.lig_0>
-4.15853

>  <SCORE.INTRA.VDW>
0

>  <SCORE.INTRA.VDW.0>
0

>  <SCORE.INTRA.norm>
0

>  <SCORE.RESTR>
0

>  <SCORE.RESTR.CAVITY>
0

>  <SCORE.RESTR.norm>
0

>  <SCORE.SYSTEM>
0

>  <SCORE.SYSTEM.CONST>
0

>  <SCORE.SYSTEM.DIHEDRAL>
0

>  <SCORE.SYSTEM.SOLV>
0

>  <SCORE.SYSTEM.norm>
0

>  <SCORE.heavy>
10

>  <SCORE.norm>
-1.52688

>  <RMSD>
1.109

$$$$
ligand
 OpenBabel02271912153D
libRbt.so/2013.1/901 2013/11/27
 10 11  0  0  0  0  0  0  0  0999 V2000
    0.7712  -13.4518   12.2250 N   0  0  0  0  0  0  0  0  0  0  0  0
    1.6888  -13.5602   11.2886 C   0  0  0  0  0  0  0  0  0  0  0  0
    2.4309  -12.4313   10.9325 N   0  0  0  0  0  0  0  0  0  0  0  0
    2.2108  -11.2627   11.5301 C   0  0  0  0  0  0  0  0  0  0  0  0
    1.2877  -11.1566   12.4676 C   0  0  0  0  0  0  0  0  0  0  0  0
    0.5704  -12.2078   12.8184 C   0  0  0  0  0  0  0  0  0  0  0  0
   -0.2850  -12.0852   13.6839 O   0  0  0  0  0  0  0  0  0  0  0  0
    1.2654   -9.9004   12.9096 N   0  0  0  0  0  0  0  0  0  0  0  0
    2.1944   -9.2310   12.2364 C   0  0  0  0  0  0  0  0  0  0  0  0
    2.7766  -10.0756   11.3813 N   0  0  0  0  0  0  0  0  0  0  0  0
  1  2  1  0  0  0  0
  1  6  1  0  0  0  0
  2  3  2  0  0  0  0
  3  4  1  0  0  0  0
  4  5  2  0  0  0  0
  4 10  1  0  0  0  0
  5  6  1  0  0  0  0
  5  8  1  0  0  0  0
  6  7  2  0  0  0  0
  8  9  1  0  0  0  0
  9 10  2  0  0  0  0
M  END
>  <CHROM.1>
1.45680774,-11.54851412,12.17652018,-2.18500475,0.74487987,0.31947419

>  <Name>
ligand

>  <RI>
0

>  <Rbt.Current_Directory>
/home/itssahil/PROJECTS/Mol_Feturizer/Test_systems_manuscript/rnas/5c7w

>  <Rbt.Executable>
rbdock ($Id: //depot/dev/client3/rdock/2013.1/src/exe/rbdock.cxx#4 $)

>  <Rbt.Library>
libRbt.so (2013.1, Build901 2013/11/27)

>  <Rbt.Parameter_File>
/export/apps/rDock/src/rDock_2013.1_src/data/scripts/dock_solv.prm

>  <Rbt.Receptor>
prm/pocket_docking_4.prm

>  <SCORE>
-15.2656

>  <SCORE.INTER>
-15.2656

>  <SCORE.INTER.CONST>
1

>  <SCORE.INTER.POLAR>
0

>  <SCORE.INTER.ROT>
0

>  <SCORE.INTER.SOLV>
3.28392

>  <SCORE.INTER.VDW>
-14.8717

>  <SCORE.INTER.norm>
-1.52656

>  <SCORE.INTRA>
0

>  <SCORE.INTRA.DIHEDRAL>
0

>  <SCORE.INTRA.DIHEDRAL.0>
0

>  <SCORE.INTRA.POLAR>
0

>  <SCORE.INTRA.POLAR.0>
0

>  <SCORE.INTRA.REPUL>
0

>  <SCORE.INTRA.REPUL.0>
0

>  <SCORE.INTRA.SOLV>
0

>  <SCORE.INTRA.SOLV.lig_0>
-4.15853

>  <SCORE.INTRA.VDW>
0

>  <SCORE.INTRA.VDW.0>
0

>  <SCORE.INTRA.norm>
0

>  <SCORE.RESTR>
0

>  <SCORE.RESTR.CAVITY>
0

>  <SCORE.RESTR.norm>
0

>  <SCORE.SYSTEM>
0

>  <SCORE.SYSTEM.CONST>
0

>  <SCORE.SYSTEM.DIHEDRAL>
0

>  <SCORE.SYSTEM.SOLV>
0

>  <SCORE.SYSTEM.norm>
0

>  <SCORE.heavy>
10

>  <SCORE.norm>
-1.52656

>  <RMSD>
1.109

$$$$
ligand
 OpenBabel02271912153D
libRbt.so/2013.1/901 2013/11/27
 10 11  0  0  0  0  0  0  0  0999 V2000
    0.7674  -13.4460   12.2195 N   0  0  0  0  0  0  0  0  0  0  0  0
    1.6805  -13.5523   11.2784 C   0  0  0  0  0  0  0  0  0  0  0  0
    2.4208  -12.4226   10.9212 N   0  0  0  0  0  0  0  0  0  0  0  0
    2.2037  -11.2554   11.5226 C   0  0  0  0  0  0  0  0  0  0  0  0
    1.2851  -11.1513   12.4648 C   0  0  0  0  0  0  0  0  0  0  0  0
    0.5695  -12.2033   12.8167 C   0  0  0  0  0  0  0  0  0  0  0  0
   -0.2816  -12.0827   13.6867 O   0  0  0  0  0  0  0  0  0  0  0  0
    1.2650   -9.8962   12.9098 N   0  0  0  0  0  0  0  0  0  0  0  0
    2.1908   -9.2252   12.2336 C   0  0  0  0  0  0  0  0  0  0  0  0
    2.7688  -10.0679   11.3738 N   0  0  0  0  0  0  0  0  0  0  0  0
  1  2  1  0  0  0  0
  1  6  1  0  0  0  0
  2  3  2  0  0  0  0
  3  4  1  0  0  0  0
  4  5  2  0  0  0  0
  4 10  1  0  0  0  0
  5  6  1  0  0  0  0
  5  8  1  0  0  0  0
  6  7  2  0  0  0  0
  8  9  1  0  0  0  0
  9 10  2  0  0  0  0
M  END
>  <CHROM.1>
1.45283125,-11.54260920,12.17201326,-2.18712876,0.74949347,0.32320521

>  <Name>
ligand

>  <RI>
0

>  <Rbt.Current_Directory>
/home/itssahil/PROJECTS/Mol_Feturizer/Test_systems_manuscript/rnas/5c7w

>  <Rbt.Executable>
rbdock ($Id: //depot/dev/client3/rdock/2013.1/src/exe/rbdock.cxx#4 $)

>  <Rbt.Library>
libRbt.so (2013.1, Build901 2013/11/27)

>  <Rbt.Parameter_File>
/export/apps/rDock/src/rDock_2013.1_src/data/scripts/dock_solv.prm

>  <Rbt.Receptor>
prm/pocket_docking_4.prm

>  <SCORE>
-15.2676

>  <SCORE.INTER>
-15.2676

>  <SCORE.INTER.CONST>
1

>  <SCORE.INTER.POLAR>
0

>  <SCORE.INTER.ROT>
0

>  <SCORE.INTER.SOLV>
3.29099

>  <SCORE.INTER.VDW>
-14.8754

>  <SCORE.INTER.norm>
-1.52676

>  <SCORE.INTRA>
0

>  <SCORE.INTRA.DIHEDRAL>
0

>  <SCORE.INTRA.DIHEDRAL.0>
0

>  <SCORE.INTRA.POLAR>
0

>  <SCORE.INTRA.POLAR.0>
0

>  <SCORE.INTRA.REPUL>
0

>  <SCORE.INTRA.REPUL.0>
0

>  <SCORE.INTRA.SOLV>
0

>  <SCORE.INTRA.SOLV.lig_0>
-4.15853

>  <SCORE.INTRA.VDW>
0

>  <SCORE.INTRA.VDW.0>
0

>  <SCORE.INTRA.norm>
0

>  <SCORE.RESTR>
0

>  <SCORE.RESTR.CAVITY>
0

>  <SCORE.RESTR.norm>
0

>  <SCORE.SYSTEM>
0

>  <SCORE.SYSTEM.CONST>
0

>  <SCORE.SYSTEM.DIHEDRAL>
0

>  <SCORE.SYSTEM.SOLV>
0

>  <SCORE.SYSTEM.norm>
0

>  <SCORE.heavy>
10

>  <SCORE.norm>
-1.52676

>  <RMSD>
1.109

$$$$
ligand
 OpenBabel02271912153D
libRbt.so/2013.1/901 2013/11/27
 10 11  0  0  0  0  0  0  0  0999 V2000
    0.7660  -13.4435   12.2173 N   0  0  0  0  0  0  0  0  0  0  0  0
    1.6862  -13.5543   11.2838 C   0  0  0  0  0  0  0  0  0  0  0  0
    2.4341  -12.4280   10.9318 N   0  0  0  0  0  0  0  0  0  0  0  0
    2.2168  -11.2594   11.5304 C   0  0  0  0  0  0  0  0  0  0  0  0
    1.2910  -11.1508   12.4650 C   0  0  0  0  0  0  0  0  0  0  0  0
    0.5683  -12.1996   12.8119 C   0  0  0  0  0  0  0  0  0  0  0  0
   -0.2895  -12.0747   13.6747 O   0  0  0  0  0  0  0  0  0  0  0  0
    1.2724   -9.8952   12.9088 N   0  0  0  0  0  0  0  0  0  0  0  0
    2.2065   -9.2286   12.2396 C   0  0  0  0  0  0  0  0  0  0  0  0
    2.7880  -10.0743   11.3852 N   0  0  0  0  0  0  0  0  0  0  0  0
  1  2  1  0  0  0  0
  1  6  1  0  0  0  0
  2  3  2  0  0  0  0
  3  4  1  0  0  0  0
  4  5  2  0  0  0  0
  4 10  1  0  0  0  0
  5  6  1  0  0  0  0
  5  8  1  0  0  0  0
  6  7  2  0  0  0  0
  8  9  1  0  0  0  0
  9 10  2  0  0  0  0
M  END
>  <CHROM.1>
1.45953246,-11.54298830,12.17388424,-2.18888849,0.74043991,0.32356720

>  <Name>
ligand

>  <RI>
0

>  <Rbt.Current_Directory>
/home/itssahil/PROJECTS/Mol_Feturizer/Test_systems_manuscript/rnas/5c7w

>  <Rbt.Executable>
rbdock ($Id: //depot/dev/client3/rdock/2013.1/src/exe/rbdock.cxx#4 $)

>  <Rbt.Library>
libRbt.so (2013.1, Build901 2013/11/27)

>  <Rbt.Parameter_File>
/export/apps/rDock/src/rDock_2013.1_src/data/scripts/dock_solv.prm

>  <Rbt.Receptor>
prm/pocket_docking_5.prm

>  <SCORE>
-15.264

>  <SCORE.INTER>
-15.264

>  <SCORE.INTER.CONST>
1

>  <SCORE.INTER.POLAR>
0

>  <SCORE.INTER.ROT>
0

>  <SCORE.INTER.SOLV>
3.26602

>  <SCORE.INTER.VDW>
-14.8647

>  <SCORE.INTER.norm>
-1.5264

>  <SCORE.INTRA>
0

>  <SCORE.INTRA.DIHEDRAL>
0

>  <SCORE.INTRA.DIHEDRAL.0>
0

>  <SCORE.INTRA.POLAR>
0

>  <SCORE.INTRA.POLAR.0>
0

>  <SCORE.INTRA.REPUL>
0

>  <SCORE.INTRA.REPUL.0>
0

>  <SCORE.INTRA.SOLV>
0

>  <SCORE.INTRA.SOLV.lig_0>
-4.15853

>  <SCORE.INTRA.VDW>
0

>  <SCORE.INTRA.VDW.0>
0

>  <SCORE.INTRA.norm>
0

>  <SCORE.RESTR>
0

>  <SCORE.RESTR.CAVITY>
0

>  <SCORE.RESTR.norm>
0

>  <SCORE.SYSTEM>
0

>  <SCORE.SYSTEM.CONST>
0

>  <SCORE.SYSTEM.DIHEDRAL>
0

>  <SCORE.SYSTEM.SOLV>
0

>  <SCORE.SYSTEM.norm>
0

>  <SCORE.heavy>
10

>  <SCORE.norm>
-1.5264

>  <RMSD>
1.109

$$$$
ligand
 OpenBabel02271912153D
libRbt.so/2013.1/901 2013/11/27
 10 11  0  0  0  0  0  0  0  0999 V2000
    0.7706  -13.4548   12.2227 N   0  0  0  0  0  0  0  0  0  0  0  0
    1.6812  -13.5606   11.2792 C   0  0  0  0  0  0  0  0  0  0  0  0
    2.4194  -12.4302   10.9195 N   0  0  0  0  0  0  0  0  0  0  0  0
    2.2025  -11.2629   11.5209 C   0  0  0  0  0  0  0  0  0  0  0  0
    1.2864  -11.1595   12.4655 C   0  0  0  0  0  0  0  0  0  0  0  0
    0.5729  -12.2121   12.8198 C   0  0  0  0  0  0  0  0  0  0  0  0
   -0.2761  -12.0920   13.6920 O   0  0  0  0  0  0  0  0  0  0  0  0
    1.2660   -9.9041   12.9100 N   0  0  0  0  0  0  0  0  0  0  0  0
    2.1892   -9.2325   12.2310 C   0  0  0  0  0  0  0  0  0  0  0  0
    2.7659  -10.0749   11.3700 N   0  0  0  0  0  0  0  0  0  0  0  0
  1  2  1  0  0  0  0
  1  6  1  0  0  0  0
  2  3  2  0  0  0  0
  3  4  1  0  0  0  0
  4  5  2  0  0  0  0
  4 10  1  0  0  0  0
  5  6  1  0  0  0  0
  5  8  1  0  0  0  0
  6  7  2  0  0  0  0
  8  9  1  0  0  0  0
  9 10  2  0  0  0  0
M  END
>  <CHROM.1>
1.45373585,-11.55070646,12.17245314,-2.18684040,0.75237911,0.32252112

>  <Name>
ligand

>  <RI>
0

>  <Rbt.Current_Directory>
/home/itssahil/PROJECTS/Mol_Feturizer/Test_systems_manuscript/rnas/5c7w

>  <Rbt.Executable>
rbdock ($Id: //depot/dev/client3/rdock/2013.1/src/exe/rbdock.cxx#4 $)

>  <Rbt.Library>
libRbt.so (2013.1, Build901 2013/11/27)

>  <Rbt.Parameter_File>
/export/apps/rDock/src/rDock_2013.1_src/data/scripts/dock_solv.prm

>  <Rbt.Receptor>
prm/pocket_docking_6.prm

>  <SCORE>
-15.2691

>  <SCORE.INTER>
-15.2691

>  <SCORE.INTER.CONST>
1

>  <SCORE.INTER.POLAR>
0

>  <SCORE.INTER.ROT>
0

>  <SCORE.INTER.SOLV>
3.30237

>  <SCORE.INTER.VDW>
-14.8802

>  <SCORE.INTER.norm>
-1.52691

>  <SCORE.INTRA>
0

>  <SCORE.INTRA.DIHEDRAL>
0

>  <SCORE.INTRA.DIHEDRAL.0>
0

>  <SCORE.INTRA.POLAR>
0

>  <SCORE.INTRA.POLAR.0>
0

>  <SCORE.INTRA.REPUL>
0

>  <SCORE.INTRA.REPUL.0>
0

>  <SCORE.INTRA.SOLV>
0

>  <SCORE.INTRA.SOLV.lig_0>
-4.15853

>  <SCORE.INTRA.VDW>
0

>  <SCORE.INTRA.VDW.0>
0

>  <SCORE.INTRA.norm>
0

>  <SCORE.RESTR>
0

>  <SCORE.RESTR.CAVITY>
0

>  <SCORE.RESTR.norm>
0

>  <SCORE.SYSTEM>
0

>  <SCORE.SYSTEM.CONST>
0

>  <SCORE.SYSTEM.DIHEDRAL>
0

>  <SCORE.SYSTEM.SOLV>
0

>  <SCORE.SYSTEM.norm>
0

>  <SCORE.heavy>
10

>  <SCORE.norm>
-1.52691

>  <RMSD>
1.109

$$$$
ligand
 OpenBabel02271912153D
libRbt.so/2013.1/901 2013/11/27
 10 11  0  0  0  0  0  0  0  0999 V2000
    0.7709  -13.4499   12.2236 N   0  0  0  0  0  0  0  0  0  0  0  0
    1.6835  -13.5569   11.2822 C   0  0  0  0  0  0  0  0  0  0  0  0
    2.4233  -12.4273   10.9234 N   0  0  0  0  0  0  0  0  0  0  0  0
    2.2060  -11.2595   11.5236 C   0  0  0  0  0  0  0  0  0  0  0  0
    1.2878  -11.1548   12.4661 C   0  0  0  0  0  0  0  0  0  0  0  0
    0.5728  -12.2067   12.8195 C   0  0  0  0  0  0  0  0  0  0  0  0
   -0.2780  -12.0854   13.6897 O   0  0  0  0  0  0  0  0  0  0  0  0
    1.2674   -9.8992   12.9097 N   0  0  0  0  0  0  0  0  0  0  0  0
    2.1926   -9.2286   12.2323 C   0  0  0  0  0  0  0  0  0  0  0  0
    2.7705  -10.0720   11.3731 N   0  0  0  0  0  0  0  0  0  0  0  0
  1  2  1  0  0  0  0
  1  6  1  0  0  0  0
  2  3  2  0  0  0  0
  3  4  1  0  0  0  0
  4  5  2  0  0  0  0
  4 10  1  0  0  0  0
  5  6  1  0  0  0  0
  5  8  1  0  0  0  0
  6  7  2  0  0  0  0
  8  9  1  0  0  0  0
  9 10  2  0  0  0  0
M  END
>  <CHROM.1>
1.45552226,-11.54633195,12.17365348,-2.18682426,0.75006378,0.32186052

>  <Name>
ligand

>  <RI>
0

>  <Rbt.Current_Directory>
/home/itssahil/PROJECTS/Mol_Feturizer/Test_systems_manuscript/rnas/5c7w

>  <Rbt.Executable>
rbdock ($Id: //depot/dev/client3/rdock/2013.1/src/exe/rbdock.cxx#4 $)

>  <Rbt.Library>
libRbt.so (2013.1, Build901 2013/11/27)

>  <Rbt.Parameter_File>
/export/apps/rDock/src/rDock_2013.1_src/data/scripts/dock_solv.prm

>  <Rbt.Receptor>
prm/pocket_docking_6.prm

>  <SCORE>
-15.2684

>  <SCORE.INTER>
-15.2684

>  <SCORE.INTER.CONST>
1

>  <SCORE.INTER.POLAR>
0

>  <SCORE.INTER.ROT>
0

>  <SCORE.INTER.SOLV>
3.29465

>  <SCORE.INTER.VDW>
-14.8771

>  <SCORE.INTER.norm>
-1.52684

>  <SCORE.INTRA>
0

>  <SCORE.INTRA.DIHEDRAL>
0

>  <SCORE.INTRA.DIHEDRAL.0>
0

>  <SCORE.INTRA.POLAR>
0

>  <SCORE.INTRA.POLAR.0>
0

>  <SCORE.INTRA.REPUL>
0

>  <SCORE.INTRA.REPUL.0>
0

>  <SCORE.INTRA.SOLV>
0

>  <SCORE.INTRA.SOLV.lig_0>
-4.15853

>  <SCORE.INTRA.VDW>
0

>  <SCORE.INTRA.VDW.0>
0

>  <SCORE.INTRA.norm>
0

>  <SCORE.RESTR>
0

>  <SCORE.RESTR.CAVITY>
0

>  <SCORE.RESTR.norm>
0

>  <SCORE.SYSTEM>
0

>  <SCORE.SYSTEM.CONST>
0

>  <SCORE.SYSTEM.DIHEDRAL>
0

>  <SCORE.SYSTEM.SOLV>
0

>  <SCORE.SYSTEM.norm>
0

>  <SCORE.heavy>
10

>  <SCORE.norm>
-1.52684

>  <RMSD>
1.109

$$$$
ligand
 OpenBabel02271912153D
libRbt.so/2013.1/901 2013/11/27
 10 11  0  0  0  0  0  0  0  0999 V2000
    0.7733  -13.4532   12.2279 N   0  0  0  0  0  0  0  0  0  0  0  0
    1.6843  -13.5594   11.2849 C   0  0  0  0  0  0  0  0  0  0  0  0
    2.4218  -12.4290   10.9242 N   0  0  0  0  0  0  0  0  0  0  0  0
    2.2040  -11.2612   11.5241 C   0  0  0  0  0  0  0  0  0  0  0  0
    1.2874  -11.1572   12.4682 C   0  0  0  0  0  0  0  0  0  0  0  0
    0.5745  -12.2099   12.8235 C   0  0  0  0  0  0  0  0  0  0  0  0
   -0.2749  -12.0894   13.6952 O   0  0  0  0  0  0  0  0  0  0  0  0
    1.2660   -9.9014   12.9112 N   0  0  0  0  0  0  0  0  0  0  0  0
    2.1890   -9.2299   12.2317 C   0  0  0  0  0  0  0  0  0  0  0  0
    2.7666  -10.0729   11.3720 N   0  0  0  0  0  0  0  0  0  0  0  0
  1  2  1  0  0  0  0
  1  6  1  0  0  0  0
  2  3  2  0  0  0  0
  3  4  1  0  0  0  0
  4  5  2  0  0  0  0
  4 10  1  0  0  0  0
  5  6  1  0  0  0  0
  5  8  1  0  0  0  0
  6  7  2  0  0  0  0
  8  9  1  0  0  0  0
  9 10  2  0  0  0  0
M  END
>  <CHROM.1>
1.45513013,-11.54868810,12.17570008,-2.18578747,0.75223874,0.32061108

>  <Name>
ligand

>  <RI>
0

>  <Rbt.Current_Directory>
/home/itssahil/PROJECTS/Mol_Feturizer/Test_systems_manuscript/rnas/5c7w

>  <Rbt.Executable>
rbdock ($Id: //depot/dev/client3/rdock/2013.1/src/exe/rbdock.cxx#4 $)

>  <Rbt.Library>
libRbt.so (2013.1, Build901 2013/11/27)

>  <Rbt.Parameter_File>
/export/apps/rDock/src/rDock_2013.1_src/data/scripts/dock_solv.prm

>  <Rbt.Receptor>
prm/pocket_docking_6.prm

>  <SCORE>
-15.2679

>  <SCORE.INTER>
-15.2679

>  <SCORE.INTER.CONST>
1

>  <SCORE.INTER.POLAR>
0

>  <SCORE.INTER.ROT>
0

>  <SCORE.INTER.SOLV>
3.30328

>  <SCORE.INTER.VDW>
-14.8797

>  <SCORE.INTER.norm>
-1.52679

>  <SCORE.INTRA>
0

>  <SCORE.INTRA.DIHEDRAL>
0

>  <SCORE.INTRA.DIHEDRAL.0>
0

>  <SCORE.INTRA.POLAR>
0

>  <SCORE.INTRA.POLAR.0>
0

>  <SCORE.INTRA.REPUL>
0

>  <SCORE.INTRA.REPUL.0>
0

>  <SCORE.INTRA.SOLV>
0

>  <SCORE.INTRA.SOLV.lig_0>
-4.15853

>  <SCORE.INTRA.VDW>
0

>  <SCORE.INTRA.VDW.0>
0

>  <SCORE.INTRA.norm>
0

>  <SCORE.RESTR>
0

>  <SCORE.RESTR.CAVITY>
0

>  <SCORE.RESTR.norm>
0

>  <SCORE.SYSTEM>
0

>  <SCORE.SYSTEM.CONST>
0

>  <SCORE.SYSTEM.DIHEDRAL>
0

>  <SCORE.SYSTEM.SOLV>
0

>  <SCORE.SYSTEM.norm>
0

>  <SCORE.heavy>
10

>  <SCORE.norm>
-1.52679

>  <RMSD>
1.109

$$$$
ligand
 OpenBabel02271912153D
libRbt.so/2013.1/901 2013/11/27
 10 11  0  0  0  0  0  0  0  0999 V2000
    0.7690  -13.4523   12.2190 N   0  0  0  0  0  0  0  0  0  0  0  0
    1.6826  -13.5578   11.2784 C   0  0  0  0  0  0  0  0  0  0  0  0
    2.4219  -12.4273   10.9214 N   0  0  0  0  0  0  0  0  0  0  0  0
    2.2031  -11.2603   11.5225 C   0  0  0  0  0  0  0  0  0  0  0  0
    1.2840  -11.1571   12.4642 C   0  0  0  0  0  0  0  0  0  0  0  0
    0.5694  -12.2098   12.8159 C   0  0  0  0  0  0  0  0  0  0  0  0
   -0.2824  -12.0899   13.6854 O   0  0  0  0  0  0  0  0  0  0  0  0
    1.2622   -9.9019   12.9089 N   0  0  0  0  0  0  0  0  0  0  0  0
    2.1876   -9.2300   12.2331 C   0  0  0  0  0  0  0  0  0  0  0  0
    2.7670  -10.0721   11.3737 N   0  0  0  0  0  0  0  0  0  0  0  0
  1  2  1  0  0  0  0
  1  6  1  0  0  0  0
  2  3  2  0  0  0  0
  3  4  1  0  0  0  0
  4  5  2  0  0  0  0
  4 10  1  0  0  0  0
  5  6  1  0  0  0  0
  5  8  1  0  0  0  0
  6  7  2  0  0  0  0
  8  9  1  0  0  0  0
  9 10  2  0  0  0  0
M  END
>  <CHROM.1>
1.45227027,-11.54820841,12.17152385,-2.18546654,0.74936212,0.32187873

>  <Name>
ligand

>  <RI>
0

>  <Rbt.Current_Directory>
/home/itssahil/PROJECTS/Mol_Feturizer/Test_systems_manuscript/rnas/5c7w

>  <Rbt.Executable>
rbdock ($Id: //depot/dev/client3/rdock/2013.1/src/exe/rbdock.cxx#4 $)

>  <Rbt.Library>
libRbt.so (2013.1, Build901 2013/11/27)

>  <Rbt.Parameter_File>
/export/apps/rDock/src/rDock_2013.1_src/data/scripts/dock_solv.prm

>  <Rbt.Receptor>
prm/pocket_docking_6.prm

>  <SCORE>
-15.2682

>  <SCORE.INTER>
-15.2682

>  <SCORE.INTER.CONST>
1

>  <SCORE.INTER.POLAR>
0

>  <SCORE.INTER.ROT>
0

>  <SCORE.INTER.SOLV>
3.29333

>  <SCORE.INTER.VDW>
-14.8766

>  <SCORE.INTER.norm>
-1.52682

>  <SCORE.INTRA>
0

>  <SCORE.INTRA.DIHEDRAL>
0

>  <SCORE.INTRA.DIHEDRAL.0>
0

>  <SCORE.INTRA.POLAR>
0

>  <SCORE.INTRA.POLAR.0>
0

>  <SCORE.INTRA.REPUL>
0

>  <SCORE.INTRA.REPUL.0>
0

>  <SCORE.INTRA.SOLV>
0

>  <SCORE.INTRA.SOLV.lig_0>
-4.15853

>  <SCORE.INTRA.VDW>
0

>  <SCORE.INTRA.VDW.0>
0

>  <SCORE.INTRA.norm>
0

>  <SCORE.RESTR>
0

>  <SCORE.RESTR.CAVITY>
0

>  <SCORE.RESTR.norm>
0

>  <SCORE.SYSTEM>
0

>  <SCORE.SYSTEM.CONST>
0

>  <SCORE.SYSTEM.DIHEDRAL>
0

>  <SCORE.SYSTEM.SOLV>
0

>  <SCORE.SYSTEM.norm>
0

>  <SCORE.heavy>
10

>  <SCORE.norm>
-1.52682

>  <RMSD>
1.109

$$$$
ligand
 OpenBabel02271912153D
libRbt.so/2013.1/901 2013/11/27
 10 11  0  0  0  0  0  0  0  0999 V2000
    0.7706  -13.4413   12.2219 N   0  0  0  0  0  0  0  0  0  0  0  0
    1.6836  -13.5536   11.2815 C   0  0  0  0  0  0  0  0  0  0  0  0
    2.4264  -12.4271   10.9194 N   0  0  0  0  0  0  0  0  0  0  0  0
    2.2115  -11.2567   11.5156 C   0  0  0  0  0  0  0  0  0  0  0  0
    1.2929  -11.1466   12.4571 C   0  0  0  0  0  0  0  0  0  0  0  0
    0.5751  -12.1956   12.8135 C   0  0  0  0  0  0  0  0  0  0  0  0
   -0.2760  -12.0693   13.6827 O   0  0  0  0  0  0  0  0  0  0  0  0
    1.2752   -9.8895   12.8964 N   0  0  0  0  0  0  0  0  0  0  0  0
    2.2025   -9.2234   12.2174 C   0  0  0  0  0  0  0  0  0  0  0  0
    2.7790  -10.0710   11.3615 N   0  0  0  0  0  0  0  0  0  0  0  0
  1  2  1  0  0  0  0
  1  6  1  0  0  0  0
  2  3  2  0  0  0  0
  3  4  1  0  0  0  0
  4  5  2  0  0  0  0
  4 10  1  0  0  0  0
  5  6  1  0  0  0  0
  5  8  1  0  0  0  0
  6  7  2  0  0  0  0
  8  9  1  0  0  0  0
  9 10  2  0  0  0  0
M  END
>  <CHROM.1>
1.45988605,-11.53953286,12.16604205,-2.18966147,0.74863763,0.32044752

>  <Name>
ligand

>  <RI>
0

>  <Rbt.Current_Directory>
/home/itssahil/PROJECTS/Mol_Feturizer/Test_systems_manuscript/rnas/5c7w

>  <Rbt.Executable>
rbdock ($Id: //depot/dev/client3/rdock/2013.1/src/exe/rbdock.cxx#4 $)

>  <Rbt.Library>
libRbt.so (2013.1, Build901 2013/11/27)

>  <Rbt.Parameter_File>
/export/apps/rDock/src/rDock_2013.1_src/data/scripts/dock_solv.prm

>  <Rbt.Receptor>
prm/pocket_docking_7.prm

>  <SCORE>
-15.2346

>  <SCORE.INTER>
-15.2346

>  <SCORE.INTER.CONST>
1

>  <SCORE.INTER.POLAR>
0

>  <SCORE.INTER.ROT>
0

>  <SCORE.INTER.SOLV>
3.28208

>  <SCORE.INTER.VDW>
-14.8505

>  <SCORE.INTER.norm>
-1.52346

>  <SCORE.INTRA>
0

>  <SCORE.INTRA.DIHEDRAL>
0

>  <SCORE.INTRA.DIHEDRAL.0>
0

>  <SCORE.INTRA.POLAR>
0

>  <SCORE.INTRA.POLAR.0>
0

>  <SCORE.INTRA.REPUL>
0

>  <SCORE.INTRA.REPUL.0>
0

>  <SCORE.INTRA.SOLV>
0

>  <SCORE.INTRA.SOLV.lig_0>
-4.15853

>  <SCORE.INTRA.VDW>
0

>  <SCORE.INTRA.VDW.0>
0

>  <SCORE.INTRA.norm>
0

>  <SCORE.RESTR>
0

>  <SCORE.RESTR.CAVITY>
0

>  <SCORE.RESTR.norm>
0

>  <SCORE.SYSTEM>
0

>  <SCORE.SYSTEM.CONST>
0

>  <SCORE.SYSTEM.DIHEDRAL>
0

>  <SCORE.SYSTEM.SOLV>
0

>  <SCORE.SYSTEM.norm>
0

>  <SCORE.heavy>
10

>  <SCORE.norm>
-1.52346

>  <RMSD>
1.109

$$$$
ligand
 OpenBabel02271912153D
libRbt.so/2013.1/901 2013/11/27
 10 11  0  0  0  0  0  0  0  0999 V2000
    0.7679  -13.4497   12.2189 N   0  0  0  0  0  0  0  0  0  0  0  0
    1.6818  -13.5560   11.2786 C   0  0  0  0  0  0  0  0  0  0  0  0
    2.4222  -12.4263   10.9218 N   0  0  0  0  0  0  0  0  0  0  0  0
    2.2043  -11.2589   11.5226 C   0  0  0  0  0  0  0  0  0  0  0  0
    1.2848  -11.1549   12.4640 C   0  0  0  0  0  0  0  0  0  0  0  0
    0.5691  -12.2069   12.8155 C   0  0  0  0  0  0  0  0  0  0  0  0
   -0.2828  -12.0862   13.6847 O   0  0  0  0  0  0  0  0  0  0  0  0
    1.2640   -9.8996   12.9086 N   0  0  0  0  0  0  0  0  0  0  0  0
    2.1903   -9.2286   12.2330 C   0  0  0  0  0  0  0  0  0  0  0  0
    2.7692  -10.0714   11.3739 N   0  0  0  0  0  0  0  0  0  0  0  0
  1  2  1  0  0  0  0
  1  6  1  0  0  0  0
  2  3  2  0  0  0  0
  3  4  1  0  0  0  0
  4  5  2  0  0  0  0
  4 10  1  0  0  0  0
  5  6  1  0  0  0  0
  5  8  1  0  0  0  0
  6  7  2  0  0  0  0
  8  9  1  0  0  0  0
  9 10  2  0  0  0  0
M  END
>  <CHROM.1>
1.45288557,-11.54616994,12.17143598,-2.18645218,0.74871013,0.32244964

>  <Name>
ligand

>  <RI>
0

>  <Rbt.Current_Directory>
/home/itssahil/PROJECTS/Mol_Feturizer/Test_systems_manuscript/rnas/5c7w

>  <Rbt.Executable>
rbdock ($Id: //depot/dev/client3/rdock/2013.1/src/exe/rbdock.cxx#4 $)

>  <Rbt.Library>
libRbt.so (2013.1, Build901 2013/11/27)

>  <Rbt.Parameter_File>
/export/apps/rDock/src/rDock_2013.1_src/data/scripts/dock_solv.prm

>  <Rbt.Receptor>
prm/pocket_docking_8.prm

>  <SCORE>
-15.2681

>  <SCORE.INTER>
-15.2681

>  <SCORE.INTER.CONST>
1

>  <SCORE.INTER.POLAR>
0

>  <SCORE.INTER.ROT>
0

>  <SCORE.INTER.SOLV>
3.29023

>  <SCORE.INTER.VDW>
-14.8755

>  <SCORE.INTER.norm>
-1.52681

>  <SCORE.INTRA>
0

>  <SCORE.INTRA.DIHEDRAL>
0

>  <SCORE.INTRA.DIHEDRAL.0>
0

>  <SCORE.INTRA.POLAR>
0

>  <SCORE.INTRA.POLAR.0>
0

>  <SCORE.INTRA.REPUL>
0

>  <SCORE.INTRA.REPUL.0>
0

>  <SCORE.INTRA.SOLV>
0

>  <SCORE.INTRA.SOLV.lig_0>
-4.15853

>  <SCORE.INTRA.VDW>
0

>  <SCORE.INTRA.VDW.0>
0

>  <SCORE.INTRA.norm>
0

>  <SCORE.RESTR>
0

>  <SCORE.RESTR.CAVITY>
0

>  <SCORE.RESTR.norm>
0

>  <SCORE.SYSTEM>
0

>  <SCORE.SYSTEM.CONST>
0

>  <SCORE.SYSTEM.DIHEDRAL>
0

>  <SCORE.SYSTEM.SOLV>
0

>  <SCORE.SYSTEM.norm>
0

>  <SCORE.heavy>
10

>  <SCORE.norm>
-1.52681

>  <RMSD>
1.109

$$$$
ligand
 OpenBabel02271912153D
libRbt.so/2013.1/901 2013/11/27
 10 11  0  0  0  0  0  0  0  0999 V2000
    0.7707  -13.4524   12.2205 N   0  0  0  0  0  0  0  0  0  0  0  0
    1.6842  -13.5577   11.2798 C   0  0  0  0  0  0  0  0  0  0  0  0
    2.4231  -12.4271   10.9226 N   0  0  0  0  0  0  0  0  0  0  0  0
    2.2042  -11.2600   11.5236 C   0  0  0  0  0  0  0  0  0  0  0  0
    1.2852  -11.1570   12.4655 C   0  0  0  0  0  0  0  0  0  0  0  0
    0.5709  -12.2099   12.8174 C   0  0  0  0  0  0  0  0  0  0  0  0
   -0.2808  -12.0902   13.6870 O   0  0  0  0  0  0  0  0  0  0  0  0
    1.2632   -9.9018   12.9102 N   0  0  0  0  0  0  0  0  0  0  0  0
    2.1883   -9.2297   12.2341 C   0  0  0  0  0  0  0  0  0  0  0  0
    2.7677  -10.0718   11.3747 N   0  0  0  0  0  0  0  0  0  0  0  0
  1  2  1  0  0  0  0
  1  6  1  0  0  0  0
  2  3  2  0  0  0  0
  3  4  1  0  0  0  0
  4  5  2  0  0  0  0
  4 10  1  0  0  0  0
  5  6  1  0  0  0  0
  5  8  1  0  0  0  0
  6  7  2  0  0  0  0
  8  9  1  0  0  0  0
  9 10  2  0  0  0  0
M  END
>  <CHROM.1>
1.45351552,-11.54809677,12.17282522,-2.18522542,0.74959769,0.32166550

>  <Name>
ligand

>  <RI>
0

>  <Rbt.Current_Directory>
/home/itssahil/PROJECTS/Mol_Feturizer/Test_systems_manuscript/rnas/5c7w

>  <Rbt.Executable>
rbdock ($Id: //depot/dev/client3/rdock/2013.1/src/exe/rbdock.cxx#4 $)

>  <Rbt.Library>
libRbt.so (2013.1, Build901 2013/11/27)

>  <Rbt.Parameter_File>
/export/apps/rDock/src/rDock_2013.1_src/data/scripts/dock_solv.prm

>  <Rbt.Receptor>
prm/blind_docking_20.prm

>  <SCORE>
-15.2681

>  <SCORE.INTER>
-15.2681

>  <SCORE.INTER.CONST>
1

>  <SCORE.INTER.POLAR>
0

>  <SCORE.INTER.ROT>
0

>  <SCORE.INTER.SOLV>
3.29458

>  <SCORE.INTER.VDW>
-14.877

>  <SCORE.INTER.norm>
-1.52681

>  <SCORE.INTRA>
0

>  <SCORE.INTRA.DIHEDRAL>
0

>  <SCORE.INTRA.DIHEDRAL.0>
0

>  <SCORE.INTRA.POLAR>
0

>  <SCORE.INTRA.POLAR.0>
0

>  <SCORE.INTRA.REPUL>
0

>  <SCORE.INTRA.REPUL.0>
0

>  <SCORE.INTRA.SOLV>
0

>  <SCORE.INTRA.SOLV.lig_0>
-4.15853

>  <SCORE.INTRA.VDW>
0

>  <SCORE.INTRA.VDW.0>
0

>  <SCORE.INTRA.norm>
0

>  <SCORE.RESTR>
0

>  <SCORE.RESTR.CAVITY>
0

>  <SCORE.RESTR.norm>
0

>  <SCORE.SYSTEM>
0

>  <SCORE.SYSTEM.CONST>
0

>  <SCORE.SYSTEM.DIHEDRAL>
0

>  <SCORE.SYSTEM.SOLV>
0

>  <SCORE.SYSTEM.norm>
0

>  <SCORE.heavy>
10

>  <SCORE.norm>
-1.52681

>  <RMSD>
1.110

$$$$
ligand
 OpenBabel02271912153D
libRbt.so/2013.1/901 2013/11/27
 10 11  0  0  0  0  0  0  0  0999 V2000
    0.7716  -13.4452   12.2227 N   0  0  0  0  0  0  0  0  0  0  0  0
    1.6845  -13.5530   11.2816 C   0  0  0  0  0  0  0  0  0  0  0  0
    2.4251  -12.4239   10.9229 N   0  0  0  0  0  0  0  0  0  0  0  0
    2.2083  -11.2559   11.5229 C   0  0  0  0  0  0  0  0  0  0  0  0
    1.2899  -11.1504   12.4651 C   0  0  0  0  0  0  0  0  0  0  0  0
    0.5741  -12.2018   12.8183 C   0  0  0  0  0  0  0  0  0  0  0  0
   -0.2770  -12.0799   13.6882 O   0  0  0  0  0  0  0  0  0  0  0  0
    1.2701   -9.8947   12.9085 N   0  0  0  0  0  0  0  0  0  0  0  0
    2.1960   -9.2248   12.2313 C   0  0  0  0  0  0  0  0  0  0  0  0
    2.7737  -10.0687   11.3725 N   0  0  0  0  0  0  0  0  0  0  0  0
  1  2  1  0  0  0  0
  1  6  1  0  0  0  0
  2  3  2  0  0  0  0
  3  4  1  0  0  0  0
  4  5  2  0  0  0  0
  4 10  1  0  0  0  0
  5  6  1  0  0  0  0
  5  8  1  0  0  0  0
  6  7  2  0  0  0  0
  8  9  1  0  0  0  0
  9 10  2  0  0  0  0
M  END
>  <CHROM.1>
1.45749094,-11.54210255,12.17272794,-2.18748773,0.74951921,0.32218137

>  <Name>
ligand

>  <RI>
0

>  <Rbt.Current_Directory>
/home/itssahil/PROJECTS/Mol_Feturizer/Test_systems_manuscript/rnas/5c7w

>  <Rbt.Executable>
rbdock ($Id: //depot/dev/client3/rdock/2013.1/src/exe/rbdock.cxx#4 $)

>  <Rbt.Library>
libRbt.so (2013.1, Build901 2013/11/27)

>  <Rbt.Parameter_File>
/export/apps/rDock/src/rDock_2013.1_src/data/scripts/dock_solv.prm

>  <Rbt.Receptor>
prm/blind_docking_20.prm

>  <SCORE>
-15.2682

>  <SCORE.INTER>
-15.2682

>  <SCORE.INTER.CONST>
1

>  <SCORE.INTER.POLAR>
0

>  <SCORE.INTER.ROT>
0

>  <SCORE.INTER.SOLV>
3.2904

>  <SCORE.INTER.VDW>
-14.8756

>  <SCORE.INTER.norm>
-1.52682

>  <SCORE.INTRA>
0

>  <SCORE.INTRA.DIHEDRAL>
0

>  <SCORE.INTRA.DIHEDRAL.0>
0

>  <SCORE.INTRA.POLAR>
0

>  <SCORE.INTRA.POLAR.0>
0

>  <SCORE.INTRA.REPUL>
0

>  <SCORE.INTRA.REPUL.0>
0

>  <SCORE.INTRA.SOLV>
0

>  <SCORE.INTRA.SOLV.lig_0>
-4.15853

>  <SCORE.INTRA.VDW>
0

>  <SCORE.INTRA.VDW.0>
0

>  <SCORE.INTRA.norm>
0

>  <SCORE.RESTR>
0

>  <SCORE.RESTR.CAVITY>
0

>  <SCORE.RESTR.norm>
0

>  <SCORE.SYSTEM>
0

>  <SCORE.SYSTEM.CONST>
0

>  <SCORE.SYSTEM.DIHEDRAL>
0

>  <SCORE.SYSTEM.SOLV>
0

>  <SCORE.SYSTEM.norm>
0

>  <SCORE.heavy>
10

>  <SCORE.norm>
-1.52682

>  <RMSD>
1.110

$$$$
ligand
 OpenBabel02271912153D
libRbt.so/2013.1/901 2013/11/27
 10 11  0  0  0  0  0  0  0  0999 V2000
    0.7712  -13.4488   12.2245 N   0  0  0  0  0  0  0  0  0  0  0  0
    1.6820  -13.5561   11.2813 C   0  0  0  0  0  0  0  0  0  0  0  0
    2.4215  -12.4267   10.9213 N   0  0  0  0  0  0  0  0  0  0  0  0
    2.2058  -11.2589   11.5222 C   0  0  0  0  0  0  0  0  0  0  0  0
    1.2895  -11.1540   12.4665 C   0  0  0  0  0  0  0  0  0  0  0  0
    0.5747  -12.2057   12.8210 C   0  0  0  0  0  0  0  0  0  0  0  0
   -0.2743  -12.0842   13.6929 O   0  0  0  0  0  0  0  0  0  0  0  0
    1.2705   -9.8984   12.9103 N   0  0  0  0  0  0  0  0  0  0  0  0
    2.1947   -9.2281   12.2313 C   0  0  0  0  0  0  0  0  0  0  0  0
    2.7706  -10.0716   11.3708 N   0  0  0  0  0  0  0  0  0  0  0  0
  1  2  1  0  0  0  0
  1  6  1  0  0  0  0
  2  3  2  0  0  0  0
  3  4  1  0  0  0  0
  4  5  2  0  0  0  0
  4 10  1  0  0  0  0
  5  6  1  0  0  0  0
  5  8  1  0  0  0  0
  6  7  2  0  0  0  0
  8  9  1  0  0  0  0
  9 10  2  0  0  0  0
M  END
>  <CHROM.1>
1.45652836,-11.54554344,12.17361506,-2.18819919,0.75174723,0.32299779

>  <Name>
ligand

>  <RI>
0

>  <Rbt.Current_Directory>
/home/itssahil/PROJECTS/Mol_Feturizer/Test_systems_manuscript/rnas/5c7w

>  <Rbt.Executable>
rbdock ($Id: //depot/dev/client3/rdock/2013.1/src/exe/rbdock.cxx#4 $)

>  <Rbt.Library>
libRbt.so (2013.1, Build901 2013/11/27)

>  <Rbt.Parameter_File>
/export/apps/rDock/src/rDock_2013.1_src/data/scripts/dock_solv.prm

>  <Rbt.Receptor>
prm/blind_docking_40.prm

>  <SCORE>
-15.2687

>  <SCORE.INTER>
-15.2687

>  <SCORE.INTER.CONST>
1

>  <SCORE.INTER.POLAR>
0

>  <SCORE.INTER.ROT>
0

>  <SCORE.INTER.SOLV>
3.29812

>  <SCORE.INTER.VDW>
-14.8785

>  <SCORE.INTER.norm>
-1.52687

>  <SCORE.INTRA>
0

>  <SCORE.INTRA.DIHEDRAL>
0

>  <SCORE.INTRA.DIHEDRAL.0>
0

>  <SCORE.INTRA.POLAR>
0

>  <SCORE.INTRA.POLAR.0>
0

>  <SCORE.INTRA.REPUL>
0

>  <SCORE.INTRA.REPUL.0>
0

>  <SCORE.INTRA.SOLV>
0

>  <SCORE.INTRA.SOLV.lig_0>
-4.15853

>  <SCORE.INTRA.VDW>
0

>  <SCORE.INTRA.VDW.0>
0

>  <SCORE.INTRA.norm>
0

>  <SCORE.RESTR>
0

>  <SCORE.RESTR.CAVITY>
0

>  <SCORE.RESTR.norm>
0

>  <SCORE.SYSTEM>
0

>  <SCORE.SYSTEM.CONST>
0

>  <SCORE.SYSTEM.DIHEDRAL>
0

>  <SCORE.SYSTEM.SOLV>
0

>  <SCORE.SYSTEM.norm>
0

>  <SCORE.heavy>
10

>  <SCORE.norm>
-1.52687

>  <RMSD>
1.110

$$$$
ligand
 OpenBabel02271912153D
libRbt.so/2013.1/901 2013/11/27
 10 11  0  0  0  0  0  0  0  0999 V2000
    0.7665  -13.4528   12.2156 N   0  0  0  0  0  0  0  0  0  0  0  0
    1.6796  -13.5594   11.2747 C   0  0  0  0  0  0  0  0  0  0  0  0
    2.4223  -12.4306   10.9196 N   0  0  0  0  0  0  0  0  0  0  0  0
    2.2072  -11.2639   11.5227 C   0  0  0  0  0  0  0  0  0  0  0  0
    1.2885  -11.1596   12.4647 C   0  0  0  0  0  0  0  0  0  0  0  0
    0.5707  -12.2108   12.8147 C   0  0  0  0  0  0  0  0  0  0  0  0
   -0.2805  -12.0898   13.6846 O   0  0  0  0  0  0  0  0  0  0  0  0
    1.2706   -9.9051   12.9117 N   0  0  0  0  0  0  0  0  0  0  0  0
    2.1979   -9.2349   12.2369 C   0  0  0  0  0  0  0  0  0  0  0  0
    2.7746  -10.0773   11.3759 N   0  0  0  0  0  0  0  0  0  0  0  0
  1  2  1  0  0  0  0
  1  6  1  0  0  0  0
  2  3  2  0  0  0  0
  3  4  1  0  0  0  0
  4  5  2  0  0  0  0
  4 10  1  0  0  0  0
  5  6  1  0  0  0  0
  5  8  1  0  0  0  0
  6  7  2  0  0  0  0
  8  9  1  0  0  0  0
  9 10  2  0  0  0  0
M  END
>  <CHROM.1>
1.45554443,-11.55072241,12.17138906,-2.18945715,0.74853133,0.32634589

>  <Name>
ligand

>  <RI>
0

>  <Rbt.Current_Directory>
/home/itssahil/PROJECTS/Mol_Feturizer/Test_systems_manuscript/rnas/5c7w

>  <Rbt.Executable>
rbdock ($Id: //depot/dev/client3/rdock/2013.1/src/exe/rbdock.cxx#4 $)

>  <Rbt.Library>
libRbt.so (2013.1, Build901 2013/11/27)

>  <Rbt.Parameter_File>
/export/apps/rDock/src/rDock_2013.1_src/data/scripts/dock_solv.prm

>  <Rbt.Receptor>
prm/blind_docking_40.prm

>  <SCORE>
-15.2684

>  <SCORE.INTER>
-15.2684

>  <SCORE.INTER.CONST>
1

>  <SCORE.INTER.POLAR>
0

>  <SCORE.INTER.ROT>
0

>  <SCORE.INTER.SOLV>
3.29016

>  <SCORE.INTER.VDW>
-14.8757

>  <SCORE.INTER.norm>
-1.52684

>  <SCORE.INTRA>
0

>  <SCORE.INTRA.DIHEDRAL>
0

>  <SCORE.INTRA.DIHEDRAL.0>
0

>  <SCORE.INTRA.POLAR>
0

>  <SCORE.INTRA.POLAR.0>
0

>  <SCORE.INTRA.REPUL>
0

>  <SCORE.INTRA.REPUL.0>
0

>  <SCORE.INTRA.SOLV>
0

>  <SCORE.INTRA.SOLV.lig_0>
-4.15853

>  <SCORE.INTRA.VDW>
0

>  <SCORE.INTRA.VDW.0>
0

>  <SCORE.INTRA.norm>
0

>  <SCORE.RESTR>
0

>  <SCORE.RESTR.CAVITY>
0

>  <SCORE.RESTR.norm>
0

>  <SCORE.SYSTEM>
0

>  <SCORE.SYSTEM.CONST>
0

>  <SCORE.SYSTEM.DIHEDRAL>
0

>  <SCORE.SYSTEM.SOLV>
0

>  <SCORE.SYSTEM.norm>
0

>  <SCORE.heavy>
10

>  <SCORE.norm>
-1.52684

>  <RMSD>
1.110

$$$$
ligand
 OpenBabel02271912153D
libRbt.so/2013.1/901 2013/11/27
 10 11  0  0  0  0  0  0  0  0999 V2000
    0.7705  -13.4470   12.2207 N   0  0  0  0  0  0  0  0  0  0  0  0
    1.6824  -13.5540   11.2786 C   0  0  0  0  0  0  0  0  0  0  0  0
    2.4227  -12.4247   10.9201 N   0  0  0  0  0  0  0  0  0  0  0  0
    2.2067  -11.2572   11.5213 C   0  0  0  0  0  0  0  0  0  0  0  0
    1.2893  -11.1525   12.4645 C   0  0  0  0  0  0  0  0  0  0  0  0
    0.5737  -12.2041   12.8177 C   0  0  0  0  0  0  0  0  0  0  0  0
   -0.2763  -12.0828   13.6886 O   0  0  0  0  0  0  0  0  0  0  0  0
    1.2701   -9.8971   12.9090 N   0  0  0  0  0  0  0  0  0  0  0  0
    2.1953   -9.2268   12.2314 C   0  0  0  0  0  0  0  0  0  0  0  0
    2.7720  -10.0699   11.3712 N   0  0  0  0  0  0  0  0  0  0  0  0
  1  2  1  0  0  0  0
  1  6  1  0  0  0  0
  2  3  2  0  0  0  0
  3  4  1  0  0  0  0
  4  5  2  0  0  0  0
  4 10  1  0  0  0  0
  5  6  1  0  0  0  0
  5  8  1  0  0  0  0
  6  7  2  0  0  0  0
  8  9  1  0  0  0  0
  9 10  2  0  0  0  0
M  END
>  <CHROM.1>
1.45651281,-11.54392883,12.17165965,-2.18807037,0.75052134,0.32342800

>  <Name>
ligand

>  <RI>
0

>  <Rbt.Current_Directory>
/home/itssahil/PROJECTS/Mol_Feturizer/Test_systems_manuscript/rnas/5c7w

>  <Rbt.Executable>
rbdock ($Id: //depot/dev/client3/rdock/2013.1/src/exe/rbdock.cxx#4 $)

>  <Rbt.Library>
libRbt.so (2013.1, Build901 2013/11/27)

>  <Rbt.Parameter_File>
/export/apps/rDock/src/rDock_2013.1_src/data/scripts/dock_solv.prm

>  <Rbt.Receptor>
prm/blind_docking_40.prm

>  <SCORE>
-15.2689

>  <SCORE.INTER>
-15.2689

>  <SCORE.INTER.CONST>
1

>  <SCORE.INTER.POLAR>
0

>  <SCORE.INTER.ROT>
0

>  <SCORE.INTER.SOLV>
3.29298

>  <SCORE.INTER.VDW>
-14.8769

>  <SCORE.INTER.norm>
-1.52689

>  <SCORE.INTRA>
0

>  <SCORE.INTRA.DIHEDRAL>
0

>  <SCORE.INTRA.DIHEDRAL.0>
0

>  <SCORE.INTRA.POLAR>
0

>  <SCORE.INTRA.POLAR.0>
0

>  <SCORE.INTRA.REPUL>
0

>  <SCORE.INTRA.REPUL.0>
0

>  <SCORE.INTRA.SOLV>
0

>  <SCORE.INTRA.SOLV.lig_0>
-4.15853

>  <SCORE.INTRA.VDW>
0

>  <SCORE.INTRA.VDW.0>
0

>  <SCORE.INTRA.norm>
0

>  <SCORE.RESTR>
0

>  <SCORE.RESTR.CAVITY>
0

>  <SCORE.RESTR.norm>
0

>  <SCORE.SYSTEM>
0

>  <SCORE.SYSTEM.CONST>
0

>  <SCORE.SYSTEM.DIHEDRAL>
0

>  <SCORE.SYSTEM.SOLV>
0

>  <SCORE.SYSTEM.norm>
0

>  <SCORE.heavy>
10

>  <SCORE.norm>
-1.52689

>  <RMSD>
1.110

$$$$
ligand
 OpenBabel02271912153D
libRbt.so/2013.1/901 2013/11/27
 10 11  0  0  0  0  0  0  0  0999 V2000
    0.7663  -13.4456   12.2183 N   0  0  0  0  0  0  0  0  0  0  0  0
    1.6765  -13.5539   11.2746 C   0  0  0  0  0  0  0  0  0  0  0  0
    2.4201  -12.4264   10.9172 N   0  0  0  0  0  0  0  0  0  0  0  0
    2.2089  -11.2593   11.5209 C   0  0  0  0  0  0  0  0  0  0  0  0
    1.2932  -11.1532   12.4656 C   0  0  0  0  0  0  0  0  0  0  0  0
    0.5746  -12.2031   12.8178 C   0  0  0  0  0  0  0  0  0  0  0  0
   -0.2738  -12.0806   13.6902 O   0  0  0  0  0  0  0  0  0  0  0  0
    1.2789   -9.8987   12.9125 N   0  0  0  0  0  0  0  0  0  0  0  0
    2.2054   -9.2301   12.2348 C   0  0  0  0  0  0  0  0  0  0  0  0
    2.7780  -10.0737   11.3722 N   0  0  0  0  0  0  0  0  0  0  0  0
  1  2  1  0  0  0  0
  1  6  1  0  0  0  0
  2  3  2  0  0  0  0
  3  4  1  0  0  0  0
  4  5  2  0  0  0  0
  4 10  1  0  0  0  0
  5  6  1  0  0  0  0
  5  8  1  0  0  0  0
  6  7  2  0  0  0  0
  8  9  1  0  0  0  0
  9 10  2  0  0  0  0
M  END
>  <CHROM.1>
1.45868295,-11.54468194,12.17178244,-2.19308125,0.75076880,0.32872085

>  <Name>
ligand

>  <RI>
0

>  <Rbt.Current_Directory>
/home/itssahil/PROJECTS/Mol_Feturizer/Test_systems_manuscript/rnas/5c7w

>  <Rbt.Executable>
rbdock ($Id: //depot/dev/client3/rdock/2013.1/src/exe/rbdock.cxx#4 $)

>  <Rbt.Library>
libRbt.so (2013.1, Build901 2013/11/27)

>  <Rbt.Parameter_File>
/export/apps/rDock/src/rDock_2013.1_src/data/scripts/dock_solv.prm

>  <Rbt.Receptor>
prm/blind_docking_60.prm

>  <SCORE>
-15.2684

>  <SCORE.INTER>
-15.2684

>  <SCORE.INTER.CONST>
1

>  <SCORE.INTER.POLAR>
0

>  <SCORE.INTER.ROT>
0

>  <SCORE.INTER.SOLV>
3.29234

>  <SCORE.INTER.VDW>
-14.8764

>  <SCORE.INTER.norm>
-1.52684

>  <SCORE.INTRA>
0

>  <SCORE.INTRA.DIHEDRAL>
0

>  <SCORE.INTRA.DIHEDRAL.0>
0

>  <SCORE.INTRA.POLAR>
0

>  <SCORE.INTRA.POLAR.0>
0

>  <SCORE.INTRA.REPUL>
0

>  <SCORE.INTRA.REPUL.0>
0

>  <SCORE.INTRA.SOLV>
0

>  <SCORE.INTRA.SOLV.lig_0>
-4.15853

>  <SCORE.INTRA.VDW>
0

>  <SCORE.INTRA.VDW.0>
0

>  <SCORE.INTRA.norm>
0

>  <SCORE.RESTR>
0

>  <SCORE.RESTR.CAVITY>
0

>  <SCORE.RESTR.norm>
0

>  <SCORE.SYSTEM>
0

>  <SCORE.SYSTEM.CONST>
0

>  <SCORE.SYSTEM.DIHEDRAL>
0

>  <SCORE.SYSTEM.SOLV>
0

>  <SCORE.SYSTEM.norm>
0

>  <SCORE.heavy>
10

>  <SCORE.norm>
-1.52684

>  <RMSD>
1.110

$$$$
ligand
 OpenBabel02271912153D
libRbt.so/2013.1/901 2013/11/27
 10 11  0  0  0  0  0  0  0  0999 V2000
    0.7762  -13.4420   12.2338 N   0  0  0  0  0  0  0  0  0  0  0  0
    1.6859  -13.5490   11.2895 C   0  0  0  0  0  0  0  0  0  0  0  0
    2.4210  -12.4182   10.9250 N   0  0  0  0  0  0  0  0  0  0  0  0
    2.2023  -11.2494   11.5227 C   0  0  0  0  0  0  0  0  0  0  0  0
    1.2871  -11.1447   12.4681 C   0  0  0  0  0  0  0  0  0  0  0  0
    0.5765  -12.1977   12.8269 C   0  0  0  0  0  0  0  0  0  0  0  0
   -0.2716  -12.0765   13.6997 O   0  0  0  0  0  0  0  0  0  0  0  0
    1.2646   -9.8879   12.9082 N   0  0  0  0  0  0  0  0  0  0  0  0
    2.1854   -9.2165   12.2257 C   0  0  0  0  0  0  0  0  0  0  0  0
    2.7629  -10.0606   11.3669 N   0  0  0  0  0  0  0  0  0  0  0  0
  1  2  1  0  0  0  0
  1  6  1  0  0  0  0
  2  3  2  0  0  0  0
  3  4  1  0  0  0  0
  4  5  2  0  0  0  0
  4 10  1  0  0  0  0
  5  6  1  0  0  0  0
  5  8  1  0  0  0  0
  6  7  2  0  0  0  0
  8  9  1  0  0  0  0
  9 10  2  0  0  0  0
M  END
>  <CHROM.1>
1.45502547,-11.53660295,12.17614016,-2.18447374,0.75429519,0.31745937

>  <Name>
ligand

>  <RI>
0

>  <Rbt.Current_Directory>
/home/itssahil/PROJECTS/Mol_Feturizer/Test_systems_manuscript/rnas/5c7w

>  <Rbt.Executable>
rbdock ($Id: //depot/dev/client3/rdock/2013.1/src/exe/rbdock.cxx#4 $)

>  <Rbt.Library>
libRbt.so (2013.1, Build901 2013/11/27)

>  <Rbt.Parameter_File>
/export/apps/rDock/src/rDock_2013.1_src/data/scripts/dock_solv.prm

>  <Rbt.Receptor>
prm/blind_docking_60.prm

>  <SCORE>
-15.2637

>  <SCORE.INTER>
-15.2637

>  <SCORE.INTER.CONST>
1

>  <SCORE.INTER.POLAR>
0

>  <SCORE.INTER.ROT>
0

>  <SCORE.INTER.SOLV>
3.30481

>  <SCORE.INTER.VDW>
-14.8774

>  <SCORE.INTER.norm>
-1.52637

>  <SCORE.INTRA>
0

>  <SCORE.INTRA.DIHEDRAL>
0

>  <SCORE.INTRA.DIHEDRAL.0>
0

>  <SCORE.INTRA.POLAR>
0

>  <SCORE.INTRA.POLAR.0>
0

>  <SCORE.INTRA.REPUL>
0

>  <SCORE.INTRA.REPUL.0>
0

>  <SCORE.INTRA.SOLV>
0

>  <SCORE.INTRA.SOLV.lig_0>
-4.15853

>  <SCORE.INTRA.VDW>
0

>  <SCORE.INTRA.VDW.0>
0

>  <SCORE.INTRA.norm>
0

>  <SCORE.RESTR>
0

>  <SCORE.RESTR.CAVITY>
0

>  <SCORE.RESTR.norm>
0

>  <SCORE.SYSTEM>
0

>  <SCORE.SYSTEM.CONST>
0

>  <SCORE.SYSTEM.DIHEDRAL>
0

>  <SCORE.SYSTEM.SOLV>
0

>  <SCORE.SYSTEM.norm>
0

>  <SCORE.heavy>
10

>  <SCORE.norm>
-1.52637

>  <RMSD>
1.110

$$$$
ligand
 OpenBabel02271912153D
libRbt.so/2013.1/901 2013/11/27
 10 11  0  0  0  0  0  0  0  0999 V2000
    0.7741  -13.4496   12.2294 N   0  0  0  0  0  0  0  0  0  0  0  0
    1.6853  -13.5576   11.2868 C   0  0  0  0  0  0  0  0  0  0  0  0
    2.4241  -12.4283   10.9253 N   0  0  0  0  0  0  0  0  0  0  0  0
    2.2074  -11.2598   11.5243 C   0  0  0  0  0  0  0  0  0  0  0  0
    1.2907  -11.1540   12.4681 C   0  0  0  0  0  0  0  0  0  0  0  0
    0.5765  -12.2056   12.8240 C   0  0  0  0  0  0  0  0  0  0  0  0
   -0.2730  -12.0834   13.6954 O   0  0  0  0  0  0  0  0  0  0  0  0
    1.2707   -9.8978   12.9100 N   0  0  0  0  0  0  0  0  0  0  0  0
    2.1946   -9.2279   12.2303 C   0  0  0  0  0  0  0  0  0  0  0  0
    2.7714  -10.0723   11.3713 N   0  0  0  0  0  0  0  0  0  0  0  0
  1  2  1  0  0  0  0
  1  6  1  0  0  0  0
  2  3  2  0  0  0  0
  3  4  1  0  0  0  0
  4  5  2  0  0  0  0
  4 10  1  0  0  0  0
  5  6  1  0  0  0  0
  5  8  1  0  0  0  0
  6  7  2  0  0  0  0
  8  9  1  0  0  0  0
  9 10  2  0  0  0  0
M  END
>  <CHROM.1>
1.45808943,-11.54592118,12.17587422,-2.18714475,0.75162400,0.32074455

>  <Name>
ligand

>  <RI>
0

>  <Rbt.Current_Directory>
/home/itssahil/PROJECTS/Mol_Feturizer/Test_systems_manuscript/rnas/5c7w

>  <Rbt.Executable>
rbdock ($Id: //depot/dev/client3/rdock/2013.1/src/exe/rbdock.cxx#4 $)

>  <Rbt.Library>
libRbt.so (2013.1, Build901 2013/11/27)

>  <Rbt.Parameter_File>
/export/apps/rDock/src/rDock_2013.1_src/data/scripts/dock_solv.prm

>  <Rbt.Receptor>
prm/blind_docking_60.prm

>  <SCORE>
-15.2679

>  <SCORE.INTER>
-15.2679

>  <SCORE.INTER.CONST>
1

>  <SCORE.INTER.POLAR>
0

>  <SCORE.INTER.ROT>
0

>  <SCORE.INTER.SOLV>
3.29949

>  <SCORE.INTER.VDW>
-14.8784

>  <SCORE.INTER.norm>
-1.52679

>  <SCORE.INTRA>
0

>  <SCORE.INTRA.DIHEDRAL>
0

>  <SCORE.INTRA.DIHEDRAL.0>
0

>  <SCORE.INTRA.POLAR>
0

>  <SCORE.INTRA.POLAR.0>
0

>  <SCORE.INTRA.REPUL>
0

>  <SCORE.INTRA.REPUL.0>
0

>  <SCORE.INTRA.SOLV>
0

>  <SCORE.INTRA.SOLV.lig_0>
-4.15853

>  <SCORE.INTRA.VDW>
0

>  <SCORE.INTRA.VDW.0>
0

>  <SCORE.INTRA.norm>
0

>  <SCORE.RESTR>
0

>  <SCORE.RESTR.CAVITY>
0

>  <SCORE.RESTR.norm>
0

>  <SCORE.SYSTEM>
0

>  <SCORE.SYSTEM.CONST>
0

>  <SCORE.SYSTEM.DIHEDRAL>
0

>  <SCORE.SYSTEM.SOLV>
0

>  <SCORE.SYSTEM.norm>
0

>  <SCORE.heavy>
10

>  <SCORE.norm>
-1.52679

>  <RMSD>
1.110

$$$$
ligand
 OpenBabel02271912153D
libRbt.so/2013.1/901 2013/11/27
 10 11  0  0  0  0  0  0  0  0999 V2000
    0.7718  -13.4478   12.2240 N   0  0  0  0  0  0  0  0  0  0  0  0
    1.6868  -13.5561   11.2850 C   0  0  0  0  0  0  0  0  0  0  0  0
    2.4283  -12.4273   10.9275 N   0  0  0  0  0  0  0  0  0  0  0  0
    2.2104  -11.2589   11.5265 C   0  0  0  0  0  0  0  0  0  0  0  0
    1.2899  -11.1530   12.4666 C   0  0  0  0  0  0  0  0  0  0  0  0
    0.5731  -12.2041   12.8187 C   0  0  0  0  0  0  0  0  0  0  0  0
   -0.2798  -12.0817   13.6867 O   0  0  0  0  0  0  0  0  0  0  0  0
    1.2693   -9.8971   12.9094 N   0  0  0  0  0  0  0  0  0  0  0  0
    2.1968   -9.2276   12.2340 C   0  0  0  0  0  0  0  0  0  0  0  0
    2.7763  -10.0719   11.3768 N   0  0  0  0  0  0  0  0  0  0  0  0
  1  2  1  0  0  0  0
  1  6  1  0  0  0  0
  2  3  2  0  0  0  0
  3  4  1  0  0  0  0
  4  5  2  0  0  0  0
  4 10  1  0  0  0  0
  5  6  1  0  0  0  0
  5  8  1  0  0  0  0
  6  7  2  0  0  0  0
  8  9  1  0  0  0  0
  9 10  2  0  0  0  0
M  END
>  <CHROM.1>
1.45805321,-11.54480350,12.17476842,-2.18671649,0.74736769,0.32122504

>  <Name>
ligand

>  <RI>
0

>  <Rbt.Current_Directory>
/home/itssahil/PROJECTS/Mol_Feturizer/Test_systems_manuscript/rnas/5c7w

>  <Rbt.Executable>
rbdock ($Id: //depot/dev/client3/rdock/2013.1/src/exe/rbdock.cxx#4 $)

>  <Rbt.Library>
libRbt.so (2013.1, Build901 2013/11/27)

>  <Rbt.Parameter_File>
/export/apps/rDock/src/rDock_2013.1_src/data/scripts/dock_solv.prm

>  <Rbt.Receptor>
prm/blind_docking_80.prm

>  <SCORE>
-15.2674

>  <SCORE.INTER>
-15.2674

>  <SCORE.INTER.CONST>
1

>  <SCORE.INTER.POLAR>
0

>  <SCORE.INTER.ROT>
0

>  <SCORE.INTER.SOLV>
3.28699

>  <SCORE.INTER.VDW>
-14.874

>  <SCORE.INTER.norm>
-1.52674

>  <SCORE.INTRA>
0

>  <SCORE.INTRA.DIHEDRAL>
0

>  <SCORE.INTRA.DIHEDRAL.0>
0

>  <SCORE.INTRA.POLAR>
0

>  <SCORE.INTRA.POLAR.0>
0

>  <SCORE.INTRA.REPUL>
0

>  <SCORE.INTRA.REPUL.0>
0

>  <SCORE.INTRA.SOLV>
0

>  <SCORE.INTRA.SOLV.lig_0>
-4.15853

>  <SCORE.INTRA.VDW>
0

>  <SCORE.INTRA.VDW.0>
0

>  <SCORE.INTRA.norm>
0

>  <SCORE.RESTR>
0

>  <SCORE.RESTR.CAVITY>
0

>  <SCORE.RESTR.norm>
0

>  <SCORE.SYSTEM>
0

>  <SCORE.SYSTEM.CONST>
0

>  <SCORE.SYSTEM.DIHEDRAL>
0

>  <SCORE.SYSTEM.SOLV>
0

>  <SCORE.SYSTEM.norm>
0

>  <SCORE.heavy>
10

>  <SCORE.norm>
-1.52674

>  <RMSD>
1.110

$$$$
ligand
 OpenBabel02271912153D
libRbt.so/2013.1/901 2013/11/27
 10 11  0  0  0  0  0  0  0  0999 V2000
    0.7705  -13.4494   12.2176 N   0  0  0  0  0  0  0  0  0  0  0  0
    1.6805  -13.5626   11.2743 C   0  0  0  0  0  0  0  0  0  0  0  0
    2.4241  -12.4370   10.9109 N   0  0  0  0  0  0  0  0  0  0  0  0
    2.2130  -11.2668   11.5087 C   0  0  0  0  0  0  0  0  0  0  0  0
    1.2976  -11.1558   12.4531 C   0  0  0  0  0  0  0  0  0  0  0  0
    0.5790  -12.2038   12.8108 C   0  0  0  0  0  0  0  0  0  0  0  0
   -0.2692  -12.0768   13.6828 O   0  0  0  0  0  0  0  0  0  0  0  0
    1.2835   -9.8990   12.8935 N   0  0  0  0  0  0  0  0  0  0  0  0
    2.2098   -9.2340   12.2123 C   0  0  0  0  0  0  0  0  0  0  0  0
    2.7822  -10.0820   11.3539 N   0  0  0  0  0  0  0  0  0  0  0  0
  1  2  1  0  0  0  0
  1  6  1  0  0  0  0
  2  3  2  0  0  0  0
  3  4  1  0  0  0  0
  4  5  2  0  0  0  0
  4 10  1  0  0  0  0
  5  6  1  0  0  0  0
  5  8  1  0  0  0  0
  6  7  2  0  0  0  0
  8  9  1  0  0  0  0
  9 10  2  0  0  0  0
M  END
>  <CHROM.1>
1.46296723,-11.54881378,12.16124286,-2.19326061,0.75099437,0.32372836

>  <Name>
ligand

>  <RI>
0

>  <Rbt.Current_Directory>
/home/itssahil/PROJECTS/Mol_Feturizer/Test_systems_manuscript/rnas/5c7w

>  <Rbt.Executable>
rbdock ($Id: //depot/dev/client3/rdock/2013.1/src/exe/rbdock.cxx#4 $)

>  <Rbt.Library>
libRbt.so (2013.1, Build901 2013/11/27)

>  <Rbt.Parameter_File>
/export/apps/rDock/src/rDock_2013.1_src/data/scripts/dock_solv.prm

>  <Rbt.Receptor>
prm/blind_docking_80.prm

>  <SCORE>
-15.2372

>  <SCORE.INTER>
-15.2372

>  <SCORE.INTER.CONST>
1

>  <SCORE.INTER.POLAR>
0

>  <SCORE.INTER.ROT>
0

>  <SCORE.INTER.SOLV>
3.28697

>  <SCORE.INTER.VDW>
-14.8538

>  <SCORE.INTER.norm>
-1.52372

>  <SCORE.INTRA>
0

>  <SCORE.INTRA.DIHEDRAL>
0

>  <SCORE.INTRA.DIHEDRAL.0>
0

>  <SCORE.INTRA.POLAR>
0

>  <SCORE.INTRA.POLAR.0>
0

>  <SCORE.INTRA.REPUL>
0

>  <SCORE.INTRA.REPUL.0>
0

>  <SCORE.INTRA.SOLV>
0

>  <SCORE.INTRA.SOLV.lig_0>
-4.15853

>  <SCORE.INTRA.VDW>
0

>  <SCORE.INTRA.VDW.0>
0

>  <SCORE.INTRA.norm>
0

>  <SCORE.RESTR>
0

>  <SCORE.RESTR.CAVITY>
0

>  <SCORE.RESTR.norm>
0

>  <SCORE.SYSTEM>
0

>  <SCORE.SYSTEM.CONST>
0

>  <SCORE.SYSTEM.DIHEDRAL>
0

>  <SCORE.SYSTEM.SOLV>
0

>  <SCORE.SYSTEM.norm>
0

>  <SCORE.heavy>
10

>  <SCORE.norm>
-1.52372

>  <RMSD>
1.110

$$$$
ligand
 OpenBabel02271912153D
libRbt.so/2013.1/901 2013/11/27
 10 11  0  0  0  0  0  0  0  0999 V2000
    0.7676  -13.4436   12.2186 N   0  0  0  0  0  0  0  0  0  0  0  0
    1.6803  -13.5515   11.2773 C   0  0  0  0  0  0  0  0  0  0  0  0
    2.4223  -12.4231   10.9197 N   0  0  0  0  0  0  0  0  0  0  0  0
    2.2071  -11.2554   11.5209 C   0  0  0  0  0  0  0  0  0  0  0  0
    1.2888  -11.1497   12.4632 C   0  0  0  0  0  0  0  0  0  0  0  0
    0.5717  -12.2006   12.8155 C   0  0  0  0  0  0  0  0  0  0  0  0
   -0.2791  -12.0784   13.6856 O   0  0  0  0  0  0  0  0  0  0  0  0
    1.2707   -9.8944   12.9079 N   0  0  0  0  0  0  0  0  0  0  0  0
    2.1974   -9.2250   12.2314 C   0  0  0  0  0  0  0  0  0  0  0  0
    2.7739  -10.0687   11.3716 N   0  0  0  0  0  0  0  0  0  0  0  0
  1  2  1  0  0  0  0
  1  6  1  0  0  0  0
  2  3  2  0  0  0  0
  3  4  1  0  0  0  0
  4  5  2  0  0  0  0
  4 10  1  0  0  0  0
  5  6  1  0  0  0  0
  5  8  1  0  0  0  0
  6  7  2  0  0  0  0
  8  9  1  0  0  0  0
  9 10  2  0  0  0  0
M  END
>  <CHROM.1>
1.45591716,-11.54131402,12.17048162,-2.18917743,0.74919910,0.32435858

>  <Name>
ligand

>  <RI>
0

>  <Rbt.Current_Directory>
/home/itssahil/PROJECTS/Mol_Feturizer/Test_systems_manuscript/rnas/5c7w

>  <Rbt.Executable>
rbdock ($Id: //depot/dev/client3/rdock/2013.1/src/exe/rbdock.cxx#4 $)

>  <Rbt.Library>
libRbt.so (2013.1, Build901 2013/11/27)

>  <Rbt.Parameter_File>
/export/apps/rDock/src/rDock_2013.1_src/data/scripts/dock_solv.prm

>  <Rbt.Receptor>
prm/pocket_docking_3.prm

>  <SCORE>
-15.2684

>  <SCORE.INTER>
-15.2684

>  <SCORE.INTER.CONST>
1

>  <SCORE.INTER.POLAR>
0

>  <SCORE.INTER.ROT>
0

>  <SCORE.INTER.SOLV>
3.2876

>  <SCORE.INTER.VDW>
-14.8748

>  <SCORE.INTER.norm>
-1.52684

>  <SCORE.INTRA>
0

>  <SCORE.INTRA.DIHEDRAL>
0

>  <SCORE.INTRA.DIHEDRAL.0>
0

>  <SCORE.INTRA.POLAR>
0

>  <SCORE.INTRA.POLAR.0>
0

>  <SCORE.INTRA.REPUL>
0

>  <SCORE.INTRA.REPUL.0>
0

>  <SCORE.INTRA.SOLV>
0

>  <SCORE.INTRA.SOLV.lig_0>
-4.15853

>  <SCORE.INTRA.VDW>
0

>  <SCORE.INTRA.VDW.0>
0

>  <SCORE.INTRA.norm>
0

>  <SCORE.RESTR>
0

>  <SCORE.RESTR.CAVITY>
0

>  <SCORE.RESTR.norm>
0

>  <SCORE.SYSTEM>
0

>  <SCORE.SYSTEM.CONST>
0

>  <SCORE.SYSTEM.DIHEDRAL>
0

>  <SCORE.SYSTEM.SOLV>
0

>  <SCORE.SYSTEM.norm>
0

>  <SCORE.heavy>
10

>  <SCORE.norm>
-1.52684

>  <RMSD>
1.110

$$$$
ligand
 OpenBabel02271912153D
libRbt.so/2013.1/901 2013/11/27
 10 11  0  0  0  0  0  0  0  0999 V2000
    0.7685  -13.4536   12.2172 N   0  0  0  0  0  0  0  0  0  0  0  0
    1.6851  -13.5602   11.2796 C   0  0  0  0  0  0  0  0  0  0  0  0
    2.4285  -12.4313   10.9265 N   0  0  0  0  0  0  0  0  0  0  0  0
    2.2107  -11.2644   11.5283 C   0  0  0  0  0  0  0  0  0  0  0  0
    1.2886  -11.1600   12.4670 C   0  0  0  0  0  0  0  0  0  0  0  0
    0.5701  -12.2113   12.8149 C   0  0  0  0  0  0  0  0  0  0  0  0
   -0.2844  -12.0903   13.6816 O   0  0  0  0  0  0  0  0  0  0  0  0
    1.2686   -9.9053   12.9132 N   0  0  0  0  0  0  0  0  0  0  0  0
    2.1980   -9.2350   12.2414 C   0  0  0  0  0  0  0  0  0  0  0  0
    2.7782  -10.0775   11.3829 N   0  0  0  0  0  0  0  0  0  0  0  0
  1  2  1  0  0  0  0
  1  6  1  0  0  0  0
  2  3  2  0  0  0  0
  3  4  1  0  0  0  0
  4  5  2  0  0  0  0
  4 10  1  0  0  0  0
  5  6  1  0  0  0  0
  5  8  1  0  0  0  0
  6  7  2  0  0  0  0
  8  9  1  0  0  0  0
  9 10  2  0  0  0  0
M  END
>  <CHROM.1>
1.45688812,-11.55118899,12.17441779,-2.18733040,0.74527751,0.32440334

>  <Name>
ligand

>  <RI>
0

>  <Rbt.Current_Directory>
/home/itssahil/PROJECTS/Mol_Feturizer/Test_systems_manuscript/rnas/5c7w

>  <Rbt.Executable>
rbdock ($Id: //depot/dev/client3/rdock/2013.1/src/exe/rbdock.cxx#4 $)

>  <Rbt.Library>
libRbt.so (2013.1, Build901 2013/11/27)

>  <Rbt.Parameter_File>
/export/apps/rDock/src/rDock_2013.1_src/data/scripts/dock_solv.prm

>  <Rbt.Receptor>
prm/pocket_docking_4.prm

>  <SCORE>
-15.2664

>  <SCORE.INTER>
-15.2664

>  <SCORE.INTER.CONST>
1

>  <SCORE.INTER.POLAR>
0

>  <SCORE.INTER.ROT>
0

>  <SCORE.INTER.SOLV>
3.28398

>  <SCORE.INTER.VDW>
-14.8723

>  <SCORE.INTER.norm>
-1.52664

>  <SCORE.INTRA>
0

>  <SCORE.INTRA.DIHEDRAL>
0

>  <SCORE.INTRA.DIHEDRAL.0>
0

>  <SCORE.INTRA.POLAR>
0

>  <SCORE.INTRA.POLAR.0>
0

>  <SCORE.INTRA.REPUL>
0

>  <SCORE.INTRA.REPUL.0>
0

>  <SCORE.INTRA.SOLV>
0

>  <SCORE.INTRA.SOLV.lig_0>
-4.15853

>  <SCORE.INTRA.VDW>
0

>  <SCORE.INTRA.VDW.0>
0

>  <SCORE.INTRA.norm>
0

>  <SCORE.RESTR>
0

>  <SCORE.RESTR.CAVITY>
0

>  <SCORE.RESTR.norm>
0

>  <SCORE.SYSTEM>
0

>  <SCORE.SYSTEM.CONST>
0

>  <SCORE.SYSTEM.DIHEDRAL>
0

>  <SCORE.SYSTEM.SOLV>
0

>  <SCORE.SYSTEM.norm>
0

>  <SCORE.heavy>
10

>  <SCORE.norm>
-1.52664

>  <RMSD>
1.110

$$$$
ligand
 OpenBabel02271912153D
libRbt.so/2013.1/901 2013/11/27
 10 11  0  0  0  0  0  0  0  0999 V2000
    0.7699  -13.4530   12.2192 N   0  0  0  0  0  0  0  0  0  0  0  0
    1.6825  -13.5580   11.2775 C   0  0  0  0  0  0  0  0  0  0  0  0
    2.4207  -12.4271   10.9196 N   0  0  0  0  0  0  0  0  0  0  0  0
    2.2019  -11.2601   11.5208 C   0  0  0  0  0  0  0  0  0  0  0  0
    1.2837  -11.1574   12.4635 C   0  0  0  0  0  0  0  0  0  0  0  0
    0.5701  -12.2106   12.8161 C   0  0  0  0  0  0  0  0  0  0  0  0
   -0.2807  -12.0912   13.6866 O   0  0  0  0  0  0  0  0  0  0  0  0
    1.2617   -9.9022   12.9082 N   0  0  0  0  0  0  0  0  0  0  0  0
    2.1858   -9.2298   12.2312 C   0  0  0  0  0  0  0  0  0  0  0  0
    2.7648  -10.0717   11.3712 N   0  0  0  0  0  0  0  0  0  0  0  0
  1  2  1  0  0  0  0
  1  6  1  0  0  0  0
  2  3  2  0  0  0  0
  3  4  1  0  0  0  0
  4  5  2  0  0  0  0
  4 10  1  0  0  0  0
  5  6  1  0  0  0  0
  5  8  1  0  0  0  0
  6  7  2  0  0  0  0
  8  9  1  0  0  0  0
  9 10  2  0  0  0  0
M  END
>  <CHROM.1>
1.45190660,-11.54849233,12.17072499,-2.18513740,0.75062893,0.32155449

>  <Name>
ligand

>  <RI>
0

>  <Rbt.Current_Directory>
/home/itssahil/PROJECTS/Mol_Feturizer/Test_systems_manuscript/rnas/5c7w

>  <Rbt.Executable>
rbdock ($Id: //depot/dev/client3/rdock/2013.1/src/exe/rbdock.cxx#4 $)

>  <Rbt.Library>
libRbt.so (2013.1, Build901 2013/11/27)

>  <Rbt.Parameter_File>
/export/apps/rDock/src/rDock_2013.1_src/data/scripts/dock_solv.prm

>  <Rbt.Receptor>
prm/pocket_docking_4.prm

>  <SCORE>
-15.2685

>  <SCORE.INTER>
-15.2685

>  <SCORE.INTER.CONST>
1

>  <SCORE.INTER.POLAR>
0

>  <SCORE.INTER.ROT>
0

>  <SCORE.INTER.SOLV>
3.29649

>  <SCORE.INTER.VDW>
-14.8778

>  <SCORE.INTER.norm>
-1.52685

>  <SCORE.INTRA>
0

>  <SCORE.INTRA.DIHEDRAL>
0

>  <SCORE.INTRA.DIHEDRAL.0>
0

>  <SCORE.INTRA.POLAR>
0

>  <SCORE.INTRA.POLAR.0>
0

>  <SCORE.INTRA.REPUL>
0

>  <SCORE.INTRA.REPUL.0>
0

>  <SCORE.INTRA.SOLV>
0

>  <SCORE.INTRA.SOLV.lig_0>
-4.15853

>  <SCORE.INTRA.VDW>
0

>  <SCORE.INTRA.VDW.0>
0

>  <SCORE.INTRA.norm>
0

>  <SCORE.RESTR>
0

>  <SCORE.RESTR.CAVITY>
0

>  <SCORE.RESTR.norm>
0

>  <SCORE.SYSTEM>
0

>  <SCORE.SYSTEM.CONST>
0

>  <SCORE.SYSTEM.DIHEDRAL>
0

>  <SCORE.SYSTEM.SOLV>
0

>  <SCORE.SYSTEM.norm>
0

>  <SCORE.heavy>
10

>  <SCORE.norm>
-1.52685

>  <RMSD>
1.110

$$$$
ligand
 OpenBabel02271912153D
libRbt.so/2013.1/901 2013/11/27
 10 11  0  0  0  0  0  0  0  0999 V2000
    0.7708  -13.4463   12.2200 N   0  0  0  0  0  0  0  0  0  0  0  0
    1.6852  -13.5523   11.2801 C   0  0  0  0  0  0  0  0  0  0  0  0
    2.4243  -12.4220   10.9225 N   0  0  0  0  0  0  0  0  0  0  0  0
    2.2047  -11.2544   11.5223 C   0  0  0  0  0  0  0  0  0  0  0  0
    1.2848  -11.1506   12.4633 C   0  0  0  0  0  0  0  0  0  0  0  0
    0.5703  -12.2033   12.8155 C   0  0  0  0  0  0  0  0  0  0  0  0
   -0.2820  -12.0829   13.6843 O   0  0  0  0  0  0  0  0  0  0  0  0
    1.2623   -9.8950   12.9068 N   0  0  0  0  0  0  0  0  0  0  0  0
    2.1879   -9.2234   12.2309 C   0  0  0  0  0  0  0  0  0  0  0  0
    2.7682  -10.0662   11.3727 N   0  0  0  0  0  0  0  0  0  0  0  0
  1  2  1  0  0  0  0
  1  6  1  0  0  0  0
  2  3  2  0  0  0  0
  3  4  1  0  0  0  0
  4  5  2  0  0  0  0
  4 10  1  0  0  0  0
  5  6  1  0  0  0  0
  5  8  1  0  0  0  0
  6  7  2  0  0  0  0
  8  9  1  0  0  0  0
  9 10  2  0  0  0  0
M  END
>  <CHROM.1>
1.45347980,-11.54197479,12.17110563,-2.18470284,0.74880474,0.32039441

>  <Name>
ligand

>  <RI>
0

>  <Rbt.Current_Directory>
/home/itssahil/PROJECTS/Mol_Feturizer/Test_systems_manuscript/rnas/5c7w

>  <Rbt.Executable>
rbdock ($Id: //depot/dev/client3/rdock/2013.1/src/exe/rbdock.cxx#4 $)

>  <Rbt.Library>
libRbt.so (2013.1, Build901 2013/11/27)

>  <Rbt.Parameter_File>
/export/apps/rDock/src/rDock_2013.1_src/data/scripts/dock_solv.prm

>  <Rbt.Receptor>
prm/pocket_docking_4.prm

>  <SCORE>
-15.2673

>  <SCORE.INTER>
-15.2673

>  <SCORE.INTER.CONST>
1

>  <SCORE.INTER.POLAR>
0

>  <SCORE.INTER.ROT>
0

>  <SCORE.INTER.SOLV>
3.28889

>  <SCORE.INTER.VDW>
-14.8745

>  <SCORE.INTER.norm>
-1.52673

>  <SCORE.INTRA>
0

>  <SCORE.INTRA.DIHEDRAL>
0

>  <SCORE.INTRA.DIHEDRAL.0>
0

>  <SCORE.INTRA.POLAR>
0

>  <SCORE.INTRA.POLAR.0>
0

>  <SCORE.INTRA.REPUL>
0

>  <SCORE.INTRA.REPUL.0>
0

>  <SCORE.INTRA.SOLV>
0

>  <SCORE.INTRA.SOLV.lig_0>
-4.15853

>  <SCORE.INTRA.VDW>
0

>  <SCORE.INTRA.VDW.0>
0

>  <SCORE.INTRA.norm>
0

>  <SCORE.RESTR>
0

>  <SCORE.RESTR.CAVITY>
0

>  <SCORE.RESTR.norm>
0

>  <SCORE.SYSTEM>
0

>  <SCORE.SYSTEM.CONST>
0

>  <SCORE.SYSTEM.DIHEDRAL>
0

>  <SCORE.SYSTEM.SOLV>
0

>  <SCORE.SYSTEM.norm>
0

>  <SCORE.heavy>
10

>  <SCORE.norm>
-1.52673

>  <RMSD>
1.110

$$$$
ligand
 OpenBabel02271912153D
libRbt.so/2013.1/901 2013/11/27
 10 11  0  0  0  0  0  0  0  0999 V2000
    0.7668  -13.4427   12.2135 N   0  0  0  0  0  0  0  0  0  0  0  0
    1.6903  -13.5508   11.2829 C   0  0  0  0  0  0  0  0  0  0  0  0
    2.4358  -12.4222   10.9330 N   0  0  0  0  0  0  0  0  0  0  0  0
    2.2130  -11.2542   11.5308 C   0  0  0  0  0  0  0  0  0  0  0  0
    1.2839  -11.1483   12.4625 C   0  0  0  0  0  0  0  0  0  0  0  0
    0.5634  -12.1993   12.8072 C   0  0  0  0  0  0  0  0  0  0  0  0
   -0.2974  -12.0770   13.6674 O   0  0  0  0  0  0  0  0  0  0  0  0
    1.2600   -9.8927   12.9060 N   0  0  0  0  0  0  0  0  0  0  0  0
    2.1941   -9.2233   12.2397 C   0  0  0  0  0  0  0  0  0  0  0  0
    2.7809  -10.0674   11.3872 N   0  0  0  0  0  0  0  0  0  0  0  0
  1  2  1  0  0  0  0
  1  6  1  0  0  0  0
  2  3  2  0  0  0  0
  3  4  1  0  0  0  0
  4  5  2  0  0  0  0
  4 10  1  0  0  0  0
  5  6  1  0  0  0  0
  5  8  1  0  0  0  0
  6  7  2  0  0  0  0
  8  9  1  0  0  0  0
  9 10  2  0  0  0  0
M  END
>  <CHROM.1>
1.45458059,-11.54004739,12.17193889,-2.18354253,0.73845586,0.31981904

>  <Name>
ligand

>  <RI>
0

>  <Rbt.Current_Directory>
/home/itssahil/PROJECTS/Mol_Feturizer/Test_systems_manuscript/rnas/5c7w

>  <Rbt.Executable>
rbdock ($Id: //depot/dev/client3/rdock/2013.1/src/exe/rbdock.cxx#4 $)

>  <Rbt.Library>
libRbt.so (2013.1, Build901 2013/11/27)

>  <Rbt.Parameter_File>
/export/apps/rDock/src/rDock_2013.1_src/data/scripts/dock_solv.prm

>  <Rbt.Receptor>
prm/pocket_docking_4.prm

>  <SCORE>
-15.2614

>  <SCORE.INTER>
-15.2614

>  <SCORE.INTER.CONST>
1

>  <SCORE.INTER.POLAR>
0

>  <SCORE.INTER.ROT>
0

>  <SCORE.INTER.SOLV>
3.26066

>  <SCORE.INTER.VDW>
-14.8612

>  <SCORE.INTER.norm>
-1.52614

>  <SCORE.INTRA>
0

>  <SCORE.INTRA.DIHEDRAL>
0

>  <SCORE.INTRA.DIHEDRAL.0>
0

>  <SCORE.INTRA.POLAR>
0

>  <SCORE.INTRA.POLAR.0>
0

>  <SCORE.INTRA.REPUL>
0

>  <SCORE.INTRA.REPUL.0>
0

>  <SCORE.INTRA.SOLV>
0

>  <SCORE.INTRA.SOLV.lig_0>
-4.15853

>  <SCORE.INTRA.VDW>
0

>  <SCORE.INTRA.VDW.0>
0

>  <SCORE.INTRA.norm>
0

>  <SCORE.RESTR>
0

>  <SCORE.RESTR.CAVITY>
0

>  <SCORE.RESTR.norm>
0

>  <SCORE.SYSTEM>
0

>  <SCORE.SYSTEM.CONST>
0

>  <SCORE.SYSTEM.DIHEDRAL>
0

>  <SCORE.SYSTEM.SOLV>
0

>  <SCORE.SYSTEM.norm>
0

>  <SCORE.heavy>
10

>  <SCORE.norm>
-1.52614

>  <RMSD>
1.110

$$$$
ligand
 OpenBabel02271912153D
libRbt.so/2013.1/901 2013/11/27
 10 11  0  0  0  0  0  0  0  0999 V2000
    0.7689  -13.4490   12.2167 N   0  0  0  0  0  0  0  0  0  0  0  0
    1.6864  -13.5568   11.2801 C   0  0  0  0  0  0  0  0  0  0  0  0
    2.4303  -12.4284   10.9266 N   0  0  0  0  0  0  0  0  0  0  0  0
    2.2121  -11.2608   11.5269 C   0  0  0  0  0  0  0  0  0  0  0  0
    1.2891  -11.1552   12.4645 C   0  0  0  0  0  0  0  0  0  0  0  0
    0.5700  -12.2060   12.8129 C   0  0  0  0  0  0  0  0  0  0  0  0
   -0.2852  -12.0840   13.6786 O   0  0  0  0  0  0  0  0  0  0  0  0
    1.2688   -9.9000   12.9094 N   0  0  0  0  0  0  0  0  0  0  0  0
    2.1990   -9.2306   12.2377 C   0  0  0  0  0  0  0  0  0  0  0  0
    2.7799  -10.0742   11.3808 N   0  0  0  0  0  0  0  0  0  0  0  0
  1  2  1  0  0  0  0
  1  6  1  0  0  0  0
  2  3  2  0  0  0  0
  3  4  1  0  0  0  0
  4  5  2  0  0  0  0
  4 10  1  0  0  0  0
  5  6  1  0  0  0  0
  5  8  1  0  0  0  0
  6  7  2  0  0  0  0
  8  9  1  0  0  0  0
  9 10  2  0  0  0  0
M  END
>  <CHROM.1>
1.45761161,-11.54677510,12.17253280,-2.18710359,0.74427939,0.32315826

>  <Name>
ligand

>  <RI>
0

>  <Rbt.Current_Directory>
/home/itssahil/PROJECTS/Mol_Feturizer/Test_systems_manuscript/rnas/5c7w

>  <Rbt.Executable>
rbdock ($Id: //depot/dev/client3/rdock/2013.1/src/exe/rbdock.cxx#4 $)

>  <Rbt.Library>
libRbt.so (2013.1, Build901 2013/11/27)

>  <Rbt.Parameter_File>
/export/apps/rDock/src/rDock_2013.1_src/data/scripts/dock_solv.prm

>  <Rbt.Receptor>
prm/pocket_docking_5.prm

>  <SCORE>
-15.2667

>  <SCORE.INTER>
-15.2667

>  <SCORE.INTER.CONST>
1

>  <SCORE.INTER.POLAR>
0

>  <SCORE.INTER.ROT>
0

>  <SCORE.INTER.SOLV>
3.27806

>  <SCORE.INTER.VDW>
-14.8705

>  <SCORE.INTER.norm>
-1.52667

>  <SCORE.INTRA>
0

>  <SCORE.INTRA.DIHEDRAL>
0

>  <SCORE.INTRA.DIHEDRAL.0>
0

>  <SCORE.INTRA.POLAR>
0

>  <SCORE.INTRA.POLAR.0>
0

>  <SCORE.INTRA.REPUL>
0

>  <SCORE.INTRA.REPUL.0>
0

>  <SCORE.INTRA.SOLV>
0

>  <SCORE.INTRA.SOLV.lig_0>
-4.15853

>  <SCORE.INTRA.VDW>
0

>  <SCORE.INTRA.VDW.0>
0

>  <SCORE.INTRA.norm>
0

>  <SCORE.RESTR>
0

>  <SCORE.RESTR.CAVITY>
0

>  <SCORE.RESTR.norm>
0

>  <SCORE.SYSTEM>
0

>  <SCORE.SYSTEM.CONST>
0

>  <SCORE.SYSTEM.DIHEDRAL>
0

>  <SCORE.SYSTEM.SOLV>
0

>  <SCORE.SYSTEM.norm>
0

>  <SCORE.heavy>
10

>  <SCORE.norm>
-1.52667

>  <RMSD>
1.110

$$$$
ligand
 OpenBabel02271912153D
libRbt.so/2013.1/901 2013/11/27
 10 11  0  0  0  0  0  0  0  0999 V2000
    0.7672  -13.4529   12.2175 N   0  0  0  0  0  0  0  0  0  0  0  0
    1.6757  -13.5564   11.2717 C   0  0  0  0  0  0  0  0  0  0  0  0
    2.4138  -12.4255   10.9138 N   0  0  0  0  0  0  0  0  0  0  0  0
    2.1992  -11.2599   11.5192 C   0  0  0  0  0  0  0  0  0  0  0  0
    1.2852  -11.1587   12.4662 C   0  0  0  0  0  0  0  0  0  0  0  0
    0.5718  -12.2119   12.8189 C   0  0  0  0  0  0  0  0  0  0  0  0
   -0.2752  -12.0938   13.6933 O   0  0  0  0  0  0  0  0  0  0  0  0
    1.2668   -9.9047   12.9145 N   0  0  0  0  0  0  0  0  0  0  0  0
    2.1890   -9.2316   12.2355 C   0  0  0  0  0  0  0  0  0  0  0  0
    2.7631  -10.0718   11.3706 N   0  0  0  0  0  0  0  0  0  0  0  0
  1  2  1  0  0  0  0
  1  6  1  0  0  0  0
  2  3  2  0  0  0  0
  3  4  1  0  0  0  0
  4  5  2  0  0  0  0
  4 10  1  0  0  0  0
  5  6  1  0  0  0  0
  5  8  1  0  0  0  0
  6  7  2  0  0  0  0
  8  9  1  0  0  0  0
  9 10  2  0  0  0  0
M  END
>  <CHROM.1>
1.45164414,-11.54913404,12.17157070,-2.18875697,0.75427974,0.32687403

>  <Name>
ligand

>  <RI>
0

>  <Rbt.Current_Directory>
/home/itssahil/PROJECTS/Mol_Feturizer/Test_systems_manuscript/rnas/5c7w

>  <Rbt.Executable>
rbdock ($Id: //depot/dev/client3/rdock/2013.1/src/exe/rbdock.cxx#4 $)

>  <Rbt.Library>
libRbt.so (2013.1, Build901 2013/11/27)

>  <Rbt.Parameter_File>
/export/apps/rDock/src/rDock_2013.1_src/data/scripts/dock_solv.prm

>  <Rbt.Receptor>
prm/pocket_docking_6.prm

>  <SCORE>
-15.2683

>  <SCORE.INTER>
-15.2683

>  <SCORE.INTER.CONST>
1

>  <SCORE.INTER.POLAR>
0

>  <SCORE.INTER.ROT>
0

>  <SCORE.INTER.SOLV>
3.30601

>  <SCORE.INTER.VDW>
-14.8809

>  <SCORE.INTER.norm>
-1.52683

>  <SCORE.INTRA>
0

>  <SCORE.INTRA.DIHEDRAL>
0

>  <SCORE.INTRA.DIHEDRAL.0>
0

>  <SCORE.INTRA.POLAR>
0

>  <SCORE.INTRA.POLAR.0>
0

>  <SCORE.INTRA.REPUL>
0

>  <SCORE.INTRA.REPUL.0>
0

>  <SCORE.INTRA.SOLV>
0

>  <SCORE.INTRA.SOLV.lig_0>
-4.15853

>  <SCORE.INTRA.VDW>
0

>  <SCORE.INTRA.VDW.0>
0

>  <SCORE.INTRA.norm>
0

>  <SCORE.RESTR>
0

>  <SCORE.RESTR.CAVITY>
0

>  <SCORE.RESTR.norm>
0

>  <SCORE.SYSTEM>
0

>  <SCORE.SYSTEM.CONST>
0

>  <SCORE.SYSTEM.DIHEDRAL>
0

>  <SCORE.SYSTEM.SOLV>
0

>  <SCORE.SYSTEM.norm>
0

>  <SCORE.heavy>
10

>  <SCORE.norm>
-1.52683

>  <RMSD>
1.110

$$$$
ligand
 OpenBabel02271912153D
libRbt.so/2013.1/901 2013/11/27
 10 11  0  0  0  0  0  0  0  0999 V2000
    0.7563  -13.4400   12.2054 N   0  0  0  0  0  0  0  0  0  0  0  0
    1.6845  -13.5471   11.2794 C   0  0  0  0  0  0  0  0  0  0  0  0
    2.4404  -12.4212   10.9435 N   0  0  0  0  0  0  0  0  0  0  0  0
    2.2228  -11.2567   11.5499 C   0  0  0  0  0  0  0  0  0  0  0  0
    1.2890  -11.1518   12.4769 C   0  0  0  0  0  0  0  0  0  0  0  0
    0.5586  -12.2002   12.8085 C   0  0  0  0  0  0  0  0  0  0  0  0
   -0.3064  -12.0787   13.6646 O   0  0  0  0  0  0  0  0  0  0  0  0
    1.2718   -9.8998   12.9310 N   0  0  0  0  0  0  0  0  0  0  0  0
    2.2147   -9.2318   12.2759 C   0  0  0  0  0  0  0  0  0  0  0  0
    2.8003  -10.0730   11.4197 N   0  0  0  0  0  0  0  0  0  0  0  0
  1  2  1  0  0  0  0
  1  6  1  0  0  0  0
  2  3  2  0  0  0  0
  3  4  1  0  0  0  0
  4  5  2  0  0  0  0
  4 10  1  0  0  0  0
  5  6  1  0  0  0  0
  5  8  1  0  0  0  0
  6  7  2  0  0  0  0
  8  9  1  0  0  0  0
  9 10  2  0  0  0  0
M  END
>  <CHROM.1>
1.45844307,-11.54226474,12.18410783,-2.19050600,0.73046598,0.33295356

>  <Name>
ligand

>  <RI>
0

>  <Rbt.Current_Directory>
/home/itssahil/PROJECTS/Mol_Feturizer/Test_systems_manuscript/rnas/5c7w

>  <Rbt.Executable>
rbdock ($Id: //depot/dev/client3/rdock/2013.1/src/exe/rbdock.cxx#4 $)

>  <Rbt.Library>
libRbt.so (2013.1, Build901 2013/11/27)

>  <Rbt.Parameter_File>
/export/apps/rDock/src/rDock_2013.1_src/data/scripts/dock_solv.prm

>  <Rbt.Receptor>
prm/pocket_docking_7.prm

>  <SCORE>
-15.2094

>  <SCORE.INTER>
-15.2094

>  <SCORE.INTER.CONST>
1

>  <SCORE.INTER.POLAR>
0

>  <SCORE.INTER.ROT>
0

>  <SCORE.INTER.SOLV>
3.24651

>  <SCORE.INTER.VDW>
-14.8218

>  <SCORE.INTER.norm>
-1.52094

>  <SCORE.INTRA>
0

>  <SCORE.INTRA.DIHEDRAL>
0

>  <SCORE.INTRA.DIHEDRAL.0>
0

>  <SCORE.INTRA.POLAR>
0

>  <SCORE.INTRA.POLAR.0>
0

>  <SCORE.INTRA.REPUL>
0

>  <SCORE.INTRA.REPUL.0>
0

>  <SCORE.INTRA.SOLV>
0

>  <SCORE.INTRA.SOLV.lig_0>
-4.15853

>  <SCORE.INTRA.VDW>
0

>  <SCORE.INTRA.VDW.0>
0

>  <SCORE.INTRA.norm>
0

>  <SCORE.RESTR>
0

>  <SCORE.RESTR.CAVITY>
0

>  <SCORE.RESTR.norm>
0

>  <SCORE.SYSTEM>
0

>  <SCORE.SYSTEM.CONST>
0

>  <SCORE.SYSTEM.DIHEDRAL>
0

>  <SCORE.SYSTEM.SOLV>
0

>  <SCORE.SYSTEM.norm>
0

>  <SCORE.heavy>
10

>  <SCORE.norm>
-1.52094

>  <RMSD>
1.110

$$$$
ligand
 OpenBabel02271912153D
libRbt.so/2013.1/901 2013/11/27
 10 11  0  0  0  0  0  0  0  0999 V2000
    0.7711  -13.4562   12.2188 N   0  0  0  0  0  0  0  0  0  0  0  0
    1.6858  -13.5611   11.2792 C   0  0  0  0  0  0  0  0  0  0  0  0
    2.4249  -12.4302   10.9231 N   0  0  0  0  0  0  0  0  0  0  0  0
    2.2049  -11.2633   11.5241 C   0  0  0  0  0  0  0  0  0  0  0  0
    1.2847  -11.1607   12.4648 C   0  0  0  0  0  0  0  0  0  0  0  0
    0.5702  -12.2139   12.8156 C   0  0  0  0  0  0  0  0  0  0  0  0
   -0.2825  -12.0946   13.6843 O   0  0  0  0  0  0  0  0  0  0  0  0
    1.2618   -9.9056   12.9097 N   0  0  0  0  0  0  0  0  0  0  0  0
    2.1875   -9.2331   12.2350 C   0  0  0  0  0  0  0  0  0  0  0  0
    2.7683  -10.0749   11.3761 N   0  0  0  0  0  0  0  0  0  0  0  0
  1  2  1  0  0  0  0
  1  6  1  0  0  0  0
  2  3  2  0  0  0  0
  3  4  1  0  0  0  0
  4  5  2  0  0  0  0
  4 10  1  0  0  0  0
  5  6  1  0  0  0  0
  5  8  1  0  0  0  0
  6  7  2  0  0  0  0
  8  9  1  0  0  0  0
  9 10  2  0  0  0  0
M  END
>  <CHROM.1>
1.45347589,-11.55173007,12.17231752,-2.18434330,0.74851242,0.32125202

>  <Name>
ligand

>  <RI>
0

>  <Rbt.Current_Directory>
/home/itssahil/PROJECTS/Mol_Feturizer/Test_systems_manuscript/rnas/5c7w

>  <Rbt.Executable>
rbdock ($Id: //depot/dev/client3/rdock/2013.1/src/exe/rbdock.cxx#4 $)

>  <Rbt.Library>
libRbt.so (2013.1, Build901 2013/11/27)

>  <Rbt.Parameter_File>
/export/apps/rDock/src/rDock_2013.1_src/data/scripts/dock_solv.prm

>  <Rbt.Receptor>
prm/pocket_docking_7.prm

>  <SCORE>
-15.2681

>  <SCORE.INTER>
-15.2681

>  <SCORE.INTER.CONST>
1

>  <SCORE.INTER.POLAR>
0

>  <SCORE.INTER.ROT>
0

>  <SCORE.INTER.SOLV>
3.29315

>  <SCORE.INTER.VDW>
-14.8764

>  <SCORE.INTER.norm>
-1.52681

>  <SCORE.INTRA>
0

>  <SCORE.INTRA.DIHEDRAL>
0

>  <SCORE.INTRA.DIHEDRAL.0>
0

>  <SCORE.INTRA.POLAR>
0

>  <SCORE.INTRA.POLAR.0>
0

>  <SCORE.INTRA.REPUL>
0

>  <SCORE.INTRA.REPUL.0>
0

>  <SCORE.INTRA.SOLV>
0

>  <SCORE.INTRA.SOLV.lig_0>
-4.15853

>  <SCORE.INTRA.VDW>
0

>  <SCORE.INTRA.VDW.0>
0

>  <SCORE.INTRA.norm>
0

>  <SCORE.RESTR>
0

>  <SCORE.RESTR.CAVITY>
0

>  <SCORE.RESTR.norm>
0

>  <SCORE.SYSTEM>
0

>  <SCORE.SYSTEM.CONST>
0

>  <SCORE.SYSTEM.DIHEDRAL>
0

>  <SCORE.SYSTEM.SOLV>
0

>  <SCORE.SYSTEM.norm>
0

>  <SCORE.heavy>
10

>  <SCORE.norm>
-1.52681

>  <RMSD>
1.110

$$$$
ligand
 OpenBabel02271912153D
libRbt.so/2013.1/901 2013/11/27
 10 11  0  0  0  0  0  0  0  0999 V2000
    0.7683  -13.4565   12.2150 N   0  0  0  0  0  0  0  0  0  0  0  0
    1.6736  -13.5644   11.2666 C   0  0  0  0  0  0  0  0  0  0  0  0
    2.4121  -12.4357   10.9025 N   0  0  0  0  0  0  0  0  0  0  0  0
    2.2009  -11.2678   11.5047 C   0  0  0  0  0  0  0  0  0  0  0  0
    1.2901  -11.1621   12.4542 C   0  0  0  0  0  0  0  0  0  0  0  0
    0.5764  -12.2132   12.8127 C   0  0  0  0  0  0  0  0  0  0  0  0
   -0.2675  -12.0910   13.6895 O   0  0  0  0  0  0  0  0  0  0  0  0
    1.2748   -9.9066   12.8983 N   0  0  0  0  0  0  0  0  0  0  0  0
    2.1957   -9.2371   12.2141 C   0  0  0  0  0  0  0  0  0  0  0  0
    2.7659  -10.0809   11.3502 N   0  0  0  0  0  0  0  0  0  0  0  0
  1  2  1  0  0  0  0
  1  6  1  0  0  0  0
  2  3  2  0  0  0  0
  3  4  1  0  0  0  0
  4  5  2  0  0  0  0
  4 10  1  0  0  0  0
  5  6  1  0  0  0  0
  5  8  1  0  0  0  0
  6  7  2  0  0  0  0
  8  9  1  0  0  0  0
  9 10  2  0  0  0  0
M  END
>  <CHROM.1>
1.45511884,-11.55380065,12.16036140,-2.19189753,0.75688611,0.32564901

>  <Name>
ligand

>  <RI>
0

>  <Rbt.Current_Directory>
/home/itssahil/PROJECTS/Mol_Feturizer/Test_systems_manuscript/rnas/5c7w

>  <Rbt.Executable>
rbdock ($Id: //depot/dev/client3/rdock/2013.1/src/exe/rbdock.cxx#4 $)

>  <Rbt.Library>
libRbt.so (2013.1, Build901 2013/11/27)

>  <Rbt.Parameter_File>
/export/apps/rDock/src/rDock_2013.1_src/data/scripts/dock_solv.prm

>  <Rbt.Receptor>
prm/pocket_docking_7.prm

>  <SCORE>
-15.2366

>  <SCORE.INTER>
-15.2366

>  <SCORE.INTER.CONST>
1

>  <SCORE.INTER.POLAR>
0

>  <SCORE.INTER.ROT>
0

>  <SCORE.INTER.SOLV>
3.30556

>  <SCORE.INTER.VDW>
-14.8596

>  <SCORE.INTER.norm>
-1.52366

>  <SCORE.INTRA>
0

>  <SCORE.INTRA.DIHEDRAL>
0

>  <SCORE.INTRA.DIHEDRAL.0>
0

>  <SCORE.INTRA.POLAR>
0

>  <SCORE.INTRA.POLAR.0>
0

>  <SCORE.INTRA.REPUL>
0

>  <SCORE.INTRA.REPUL.0>
0

>  <SCORE.INTRA.SOLV>
0

>  <SCORE.INTRA.SOLV.lig_0>
-4.15853

>  <SCORE.INTRA.VDW>
0

>  <SCORE.INTRA.VDW.0>
0

>  <SCORE.INTRA.norm>
0

>  <SCORE.RESTR>
0

>  <SCORE.RESTR.CAVITY>
0

>  <SCORE.RESTR.norm>
0

>  <SCORE.SYSTEM>
0

>  <SCORE.SYSTEM.CONST>
0

>  <SCORE.SYSTEM.DIHEDRAL>
0

>  <SCORE.SYSTEM.SOLV>
0

>  <SCORE.SYSTEM.norm>
0

>  <SCORE.heavy>
10

>  <SCORE.norm>
-1.52366

>  <RMSD>
1.110

$$$$
ligand
 OpenBabel02271912153D
libRbt.so/2013.1/901 2013/11/27
 10 11  0  0  0  0  0  0  0  0999 V2000
    0.7700  -13.4504   12.2167 N   0  0  0  0  0  0  0  0  0  0  0  0
    1.6791  -13.5632   11.2725 C   0  0  0  0  0  0  0  0  0  0  0  0
    2.4217  -12.4372   10.9083 N   0  0  0  0  0  0  0  0  0  0  0  0
    2.2106  -11.2671   11.5062 C   0  0  0  0  0  0  0  0  0  0  0  0
    1.2959  -11.1565   12.4514 C   0  0  0  0  0  0  0  0  0  0  0  0
    0.5783  -12.2049   12.8099 C   0  0  0  0  0  0  0  0  0  0  0  0
   -0.2692  -12.0782   13.6826 O   0  0  0  0  0  0  0  0  0  0  0  0
    1.2815   -9.8997   12.8917 N   0  0  0  0  0  0  0  0  0  0  0  0
    2.2069   -9.2342   12.2095 C   0  0  0  0  0  0  0  0  0  0  0  0
    2.7790  -10.0820   11.3507 N   0  0  0  0  0  0  0  0  0  0  0  0
  1  2  1  0  0  0  0
  1  6  1  0  0  0  0
  2  3  2  0  0  0  0
  3  4  1  0  0  0  0
  4  5  2  0  0  0  0
  4 10  1  0  0  0  0
  5  6  1  0  0  0  0
  5  8  1  0  0  0  0
  6  7  2  0  0  0  0
  8  9  1  0  0  0  0
  9 10  2  0  0  0  0
M  END
>  <CHROM.1>
1.46129249,-11.54944098,12.15942756,-2.19293831,0.75203081,0.32339985

>  <Name>
ligand

>  <RI>
0

>  <Rbt.Current_Directory>
/home/itssahil/PROJECTS/Mol_Feturizer/Test_systems_manuscript/rnas/5c7w

>  <Rbt.Executable>
rbdock ($Id: //depot/dev/client3/rdock/2013.1/src/exe/rbdock.cxx#4 $)

>  <Rbt.Library>
libRbt.so (2013.1, Build901 2013/11/27)

>  <Rbt.Parameter_File>
/export/apps/rDock/src/rDock_2013.1_src/data/scripts/dock_solv.prm

>  <Rbt.Receptor>
prm/pocket_docking_8.prm

>  <SCORE>
-15.2376

>  <SCORE.INTER>
-15.2376

>  <SCORE.INTER.CONST>
1

>  <SCORE.INTER.POLAR>
0

>  <SCORE.INTER.ROT>
0

>  <SCORE.INTER.SOLV>
3.28914

>  <SCORE.INTER.VDW>
-14.8548

>  <SCORE.INTER.norm>
-1.52376

>  <SCORE.INTRA>
0

>  <SCORE.INTRA.DIHEDRAL>
0

>  <SCORE.INTRA.DIHEDRAL.0>
0

>  <SCORE.INTRA.POLAR>
0

>  <SCORE.INTRA.POLAR.0>
0

>  <SCORE.INTRA.REPUL>
0

>  <SCORE.INTRA.REPUL.0>
0

>  <SCORE.INTRA.SOLV>
0

>  <SCORE.INTRA.SOLV.lig_0>
-4.15853

>  <SCORE.INTRA.VDW>
0

>  <SCORE.INTRA.VDW.0>
0

>  <SCORE.INTRA.norm>
0

>  <SCORE.RESTR>
0

>  <SCORE.RESTR.CAVITY>
0

>  <SCORE.RESTR.norm>
0

>  <SCORE.SYSTEM>
0

>  <SCORE.SYSTEM.CONST>
0

>  <SCORE.SYSTEM.DIHEDRAL>
0

>  <SCORE.SYSTEM.SOLV>
0

>  <SCORE.SYSTEM.norm>
0

>  <SCORE.heavy>
10

>  <SCORE.norm>
-1.52376

>  <RMSD>
1.110

$$$$
ligand
 OpenBabel02271912153D
libRbt.so/2013.1/901 2013/11/27
 10 11  0  0  0  0  0  0  0  0999 V2000
    0.7744  -13.4540   12.2209 N   0  0  0  0  0  0  0  0  0  0  0  0
    1.6917  -13.5583   11.2838 C   0  0  0  0  0  0  0  0  0  0  0  0
    2.4294  -12.4264   10.9281 N   0  0  0  0  0  0  0  0  0  0  0  0
    2.2055  -11.2592   11.5269 C   0  0  0  0  0  0  0  0  0  0  0  0
    1.2827  -11.1571   12.4651 C   0  0  0  0  0  0  0  0  0  0  0  0
    0.5694  -12.2112   12.8155 C   0  0  0  0  0  0  0  0  0  0  0  0
   -0.2858  -12.0925   13.6817 O   0  0  0  0  0  0  0  0  0  0  0  0
    1.2561   -9.9014   12.9082 N   0  0  0  0  0  0  0  0  0  0  0  0
    2.1823   -9.2281   12.2349 C   0  0  0  0  0  0  0  0  0  0  0  0
    2.7669  -10.0698   11.3786 N   0  0  0  0  0  0  0  0  0  0  0  0
  1  2  1  0  0  0  0
  1  6  1  0  0  0  0
  2  3  2  0  0  0  0
  3  4  1  0  0  0  0
  4  5  2  0  0  0  0
  4 10  1  0  0  0  0
  5  6  1  0  0  0  0
  5  8  1  0  0  0  0
  6  7  2  0  0  0  0
  8  9  1  0  0  0  0
  9 10  2  0  0  0  0
M  END
>  <CHROM.1>
1.45303172,-11.54821629,12.17352495,-2.18062639,0.74667270,0.31734913

>  <Name>
ligand

>  <RI>
0

>  <Rbt.Current_Directory>
/home/itssahil/PROJECTS/Mol_Feturizer/Test_systems_manuscript/rnas/5c7w

>  <Rbt.Executable>
rbdock ($Id: //depot/dev/client3/rdock/2013.1/src/exe/rbdock.cxx#4 $)

>  <Rbt.Library>
libRbt.so (2013.1, Build901 2013/11/27)

>  <Rbt.Parameter_File>
/export/apps/rDock/src/rDock_2013.1_src/data/scripts/dock_solv.prm

>  <Rbt.Receptor>
prm/blind_docking_100.prm

>  <SCORE>
-15.2657

>  <SCORE.INTER>
-15.2657

>  <SCORE.INTER.CONST>
1

>  <SCORE.INTER.POLAR>
0

>  <SCORE.INTER.ROT>
0

>  <SCORE.INTER.SOLV>
3.28878

>  <SCORE.INTER.VDW>
-14.8734

>  <SCORE.INTER.norm>
-1.52657

>  <SCORE.INTRA>
0

>  <SCORE.INTRA.DIHEDRAL>
0

>  <SCORE.INTRA.DIHEDRAL.0>
0

>  <SCORE.INTRA.POLAR>
0

>  <SCORE.INTRA.POLAR.0>
0

>  <SCORE.INTRA.REPUL>
0

>  <SCORE.INTRA.REPUL.0>
0

>  <SCORE.INTRA.SOLV>
0

>  <SCORE.INTRA.SOLV.lig_0>
-4.15853

>  <SCORE.INTRA.VDW>
0

>  <SCORE.INTRA.VDW.0>
0

>  <SCORE.INTRA.norm>
0

>  <SCORE.RESTR>
0

>  <SCORE.RESTR.CAVITY>
0

>  <SCORE.RESTR.norm>
0

>  <SCORE.SYSTEM>
0

>  <SCORE.SYSTEM.CONST>
0

>  <SCORE.SYSTEM.DIHEDRAL>
0

>  <SCORE.SYSTEM.SOLV>
0

>  <SCORE.SYSTEM.norm>
0

>  <SCORE.heavy>
10

>  <SCORE.norm>
-1.52657

>  <RMSD>
1.111

$$$$
ligand
 OpenBabel02271912153D
libRbt.so/2013.1/901 2013/11/27
 10 11  0  0  0  0  0  0  0  0999 V2000
    0.7634  -13.4530   12.2101 N   0  0  0  0  0  0  0  0  0  0  0  0
    1.6758  -13.5593   11.2684 C   0  0  0  0  0  0  0  0  0  0  0  0
    2.4213  -12.4314   10.9161 N   0  0  0  0  0  0  0  0  0  0  0  0
    2.2095  -11.2659   11.5227 C   0  0  0  0  0  0  0  0  0  0  0  0
    1.2915  -11.1619   12.4655 C   0  0  0  0  0  0  0  0  0  0  0  0
    0.5712  -12.2122   12.8128 C   0  0  0  0  0  0  0  0  0  0  0  0
   -0.2793  -12.0915   13.6834 O   0  0  0  0  0  0  0  0  0  0  0  0
    1.2771   -9.9086   12.9160 N   0  0  0  0  0  0  0  0  0  0  0  0
    2.2058   -9.2389   12.2427 C   0  0  0  0  0  0  0  0  0  0  0  0
    2.7799  -10.0803   11.3790 N   0  0  0  0  0  0  0  0  0  0  0  0
  1  2  1  0  0  0  0
  1  6  1  0  0  0  0
  2  3  2  0  0  0  0
  3  4  1  0  0  0  0
  4  5  2  0  0  0  0
  4 10  1  0  0  0  0
  5  6  1  0  0  0  0
  5  8  1  0  0  0  0
  6  7  2  0  0  0  0
  8  9  1  0  0  0  0
  9 10  2  0  0  0  0
M  END
>  <CHROM.1>
1.45741154,-11.55258193,12.17093620,-2.19303393,0.74815771,0.33163932

>  <Name>
ligand

>  <RI>
0

>  <Rbt.Current_Directory>
/home/itssahil/PROJECTS/Mol_Feturizer/Test_systems_manuscript/rnas/5c7w

>  <Rbt.Executable>
rbdock ($Id: //depot/dev/client3/rdock/2013.1/src/exe/rbdock.cxx#4 $)

>  <Rbt.Library>
libRbt.so (2013.1, Build901 2013/11/27)

>  <Rbt.Parameter_File>
/export/apps/rDock/src/rDock_2013.1_src/data/scripts/dock_solv.prm

>  <Rbt.Receptor>
prm/blind_docking_100.prm

>  <SCORE>
-15.2665

>  <SCORE.INTER>
-15.2665

>  <SCORE.INTER.CONST>
1

>  <SCORE.INTER.POLAR>
0

>  <SCORE.INTER.ROT>
0

>  <SCORE.INTER.SOLV>
3.28817

>  <SCORE.INTER.VDW>
-14.8737

>  <SCORE.INTER.norm>
-1.52665

>  <SCORE.INTRA>
0

>  <SCORE.INTRA.DIHEDRAL>
0

>  <SCORE.INTRA.DIHEDRAL.0>
0

>  <SCORE.INTRA.POLAR>
0

>  <SCORE.INTRA.POLAR.0>
0

>  <SCORE.INTRA.REPUL>
0

>  <SCORE.INTRA.REPUL.0>
0

>  <SCORE.INTRA.SOLV>
0

>  <SCORE.INTRA.SOLV.lig_0>
-4.15853

>  <SCORE.INTRA.VDW>
0

>  <SCORE.INTRA.VDW.0>
0

>  <SCORE.INTRA.norm>
0

>  <SCORE.RESTR>
0

>  <SCORE.RESTR.CAVITY>
0

>  <SCORE.RESTR.norm>
0

>  <SCORE.SYSTEM>
0

>  <SCORE.SYSTEM.CONST>
0

>  <SCORE.SYSTEM.DIHEDRAL>
0

>  <SCORE.SYSTEM.SOLV>
0

>  <SCORE.SYSTEM.norm>
0

>  <SCORE.heavy>
10

>  <SCORE.norm>
-1.52665

>  <RMSD>
1.111

$$$$
ligand
 OpenBabel02271912153D
libRbt.so/2013.1/901 2013/11/27
 10 11  0  0  0  0  0  0  0  0999 V2000
    0.7709  -13.4571   12.2175 N   0  0  0  0  0  0  0  0  0  0  0  0
    1.6839  -13.5625   11.2763 C   0  0  0  0  0  0  0  0  0  0  0  0
    2.4248  -12.4326   10.9208 N   0  0  0  0  0  0  0  0  0  0  0  0
    2.2082  -11.2661   11.5239 C   0  0  0  0  0  0  0  0  0  0  0  0
    1.2896  -11.1631   12.4662 C   0  0  0  0  0  0  0  0  0  0  0  0
    0.5735  -12.2153   12.8165 C   0  0  0  0  0  0  0  0  0  0  0  0
   -0.2777  -12.0955   13.6866 O   0  0  0  0  0  0  0  0  0  0  0  0
    1.2700   -9.9086   12.9130 N   0  0  0  0  0  0  0  0  0  0  0  0
    2.1961   -9.2370   12.2378 C   0  0  0  0  0  0  0  0  0  0  0  0
    2.7738  -10.0787   11.3768 N   0  0  0  0  0  0  0  0  0  0  0  0
  1  2  1  0  0  0  0
  1  6  1  0  0  0  0
  2  3  2  0  0  0  0
  3  4  1  0  0  0  0
  4  5  2  0  0  0  0
  4 10  1  0  0  0  0
  5  6  1  0  0  0  0
  5  8  1  0  0  0  0
  6  7  2  0  0  0  0
  8  9  1  0  0  0  0
  9 10  2  0  0  0  0
M  END
>  <CHROM.1>
1.45714642,-11.55399987,12.17281613,-2.18767683,0.74928692,0.32502819

>  <Name>
ligand

>  <RI>
0

>  <Rbt.Current_Directory>
/home/itssahil/PROJECTS/Mol_Feturizer/Test_systems_manuscript/rnas/5c7w

>  <Rbt.Executable>
rbdock ($Id: //depot/dev/client3/rdock/2013.1/src/exe/rbdock.cxx#4 $)

>  <Rbt.Library>
libRbt.so (2013.1, Build901 2013/11/27)

>  <Rbt.Parameter_File>
/export/apps/rDock/src/rDock_2013.1_src/data/scripts/dock_solv.prm

>  <Rbt.Receptor>
prm/blind_docking_100.prm

>  <SCORE>
-15.2684

>  <SCORE.INTER>
-15.2684

>  <SCORE.INTER.CONST>
1

>  <SCORE.INTER.POLAR>
0

>  <SCORE.INTER.ROT>
0

>  <SCORE.INTER.SOLV>
3.29468

>  <SCORE.INTER.VDW>
-14.8772

>  <SCORE.INTER.norm>
-1.52684

>  <SCORE.INTRA>
0

>  <SCORE.INTRA.DIHEDRAL>
0

>  <SCORE.INTRA.DIHEDRAL.0>
0

>  <SCORE.INTRA.POLAR>
0

>  <SCORE.INTRA.POLAR.0>
0

>  <SCORE.INTRA.REPUL>
0

>  <SCORE.INTRA.REPUL.0>
0

>  <SCORE.INTRA.SOLV>
0

>  <SCORE.INTRA.SOLV.lig_0>
-4.15853

>  <SCORE.INTRA.VDW>
0

>  <SCORE.INTRA.VDW.0>
0

>  <SCORE.INTRA.norm>
0

>  <SCORE.RESTR>
0

>  <SCORE.RESTR.CAVITY>
0

>  <SCORE.RESTR.norm>
0

>  <SCORE.SYSTEM>
0

>  <SCORE.SYSTEM.CONST>
0

>  <SCORE.SYSTEM.DIHEDRAL>
0

>  <SCORE.SYSTEM.SOLV>
0

>  <SCORE.SYSTEM.norm>
0

>  <SCORE.heavy>
10

>  <SCORE.norm>
-1.52684

>  <RMSD>
1.111

$$$$
ligand
 OpenBabel02271912153D
libRbt.so/2013.1/901 2013/11/27
 10 11  0  0  0  0  0  0  0  0999 V2000
    0.7715  -13.4534   12.2202 N   0  0  0  0  0  0  0  0  0  0  0  0
    1.6847  -13.5603   11.2793 C   0  0  0  0  0  0  0  0  0  0  0  0
    2.4261  -12.4311   10.9226 N   0  0  0  0  0  0  0  0  0  0  0  0
    2.2098  -11.2639   11.5242 C   0  0  0  0  0  0  0  0  0  0  0  0
    1.2911  -11.1593   12.4663 C   0  0  0  0  0  0  0  0  0  0  0  0
    0.5745  -12.2108   12.8177 C   0  0  0  0  0  0  0  0  0  0  0  0
   -0.2767  -12.0897   13.6875 O   0  0  0  0  0  0  0  0  0  0  0  0
    1.2720   -9.9043   12.9116 N   0  0  0  0  0  0  0  0  0  0  0  0
    2.1985   -9.2339   12.2358 C   0  0  0  0  0  0  0  0  0  0  0  0
    2.7760  -10.0768   11.3758 N   0  0  0  0  0  0  0  0  0  0  0  0
  1  2  1  0  0  0  0
  1  6  1  0  0  0  0
  2  3  2  0  0  0  0
  3  4  1  0  0  0  0
  4  5  2  0  0  0  0
  4 10  1  0  0  0  0
  5  6  1  0  0  0  0
  5  8  1  0  0  0  0
  6  7  2  0  0  0  0
  8  9  1  0  0  0  0
  9 10  2  0  0  0  0
M  END
>  <CHROM.1>
1.45858039,-11.55064835,12.17337508,-2.18815482,0.74900178,0.32417756

>  <Name>
ligand

>  <RI>
0

>  <Rbt.Current_Directory>
/home/itssahil/PROJECTS/Mol_Feturizer/Test_systems_manuscript/rnas/5c7w

>  <Rbt.Executable>
rbdock ($Id: //depot/dev/client3/rdock/2013.1/src/exe/rbdock.cxx#4 $)

>  <Rbt.Library>
libRbt.so (2013.1, Build901 2013/11/27)

>  <Rbt.Parameter_File>
/export/apps/rDock/src/rDock_2013.1_src/data/scripts/dock_solv.prm

>  <Rbt.Receptor>
prm/blind_docking_100.prm

>  <SCORE>
-15.2685

>  <SCORE.INTER>
-15.2685

>  <SCORE.INTER.CONST>
1

>  <SCORE.INTER.POLAR>
0

>  <SCORE.INTER.ROT>
0

>  <SCORE.INTER.SOLV>
3.29241

>  <SCORE.INTER.VDW>
-14.8765

>  <SCORE.INTER.norm>
-1.52685

>  <SCORE.INTRA>
0

>  <SCORE.INTRA.DIHEDRAL>
0

>  <SCORE.INTRA.DIHEDRAL.0>
0

>  <SCORE.INTRA.POLAR>
0

>  <SCORE.INTRA.POLAR.0>
0

>  <SCORE.INTRA.REPUL>
0

>  <SCORE.INTRA.REPUL.0>
0

>  <SCORE.INTRA.SOLV>
0

>  <SCORE.INTRA.SOLV.lig_0>
-4.15853

>  <SCORE.INTRA.VDW>
0

>  <SCORE.INTRA.VDW.0>
0

>  <SCORE.INTRA.norm>
0

>  <SCORE.RESTR>
0

>  <SCORE.RESTR.CAVITY>
0

>  <SCORE.RESTR.norm>
0

>  <SCORE.SYSTEM>
0

>  <SCORE.SYSTEM.CONST>
0

>  <SCORE.SYSTEM.DIHEDRAL>
0

>  <SCORE.SYSTEM.SOLV>
0

>  <SCORE.SYSTEM.norm>
0

>  <SCORE.heavy>
10

>  <SCORE.norm>
-1.52685

>  <RMSD>
1.111

$$$$
ligand
 OpenBabel02271912153D
libRbt.so/2013.1/901 2013/11/27
 10 11  0  0  0  0  0  0  0  0999 V2000
    0.7781  -13.4540   12.2280 N   0  0  0  0  0  0  0  0  0  0  0  0
    1.6972  -13.5623   11.2931 C   0  0  0  0  0  0  0  0  0  0  0  0
    2.4387  -12.4330   10.9371 N   0  0  0  0  0  0  0  0  0  0  0  0
    2.2165  -11.2641   11.5333 C   0  0  0  0  0  0  0  0  0  0  0  0
    1.2918  -11.1580   12.4693 C   0  0  0  0  0  0  0  0  0  0  0  0
    0.5751  -12.2096   12.8200 C   0  0  0  0  0  0  0  0  0  0  0  0
   -0.2818  -12.0871   13.6841 O   0  0  0  0  0  0  0  0  0  0  0  0
    1.2676   -9.9014   12.9101 N   0  0  0  0  0  0  0  0  0  0  0  0
    2.1969   -9.2317   12.2376 C   0  0  0  0  0  0  0  0  0  0  0  0
    2.7813  -10.0765   11.3842 N   0  0  0  0  0  0  0  0  0  0  0  0
  1  2  1  0  0  0  0
  1  6  1  0  0  0  0
  2  3  2  0  0  0  0
  3  4  1  0  0  0  0
  4  5  2  0  0  0  0
  4 10  1  0  0  0  0
  5  6  1  0  0  0  0
  5  8  1  0  0  0  0
  6  7  2  0  0  0  0
  8  9  1  0  0  0  0
  9 10  2  0  0  0  0
M  END
>  <CHROM.1>
1.46179278,-11.55003239,12.17879129,-2.18304187,0.74376126,0.31719708

>  <Name>
ligand

>  <RI>
0

>  <Rbt.Current_Directory>
/home/itssahil/PROJECTS/Mol_Feturizer/Test_systems_manuscript/rnas/5c7w

>  <Rbt.Executable>
rbdock ($Id: //depot/dev/client3/rdock/2013.1/src/exe/rbdock.cxx#4 $)

>  <Rbt.Library>
libRbt.so (2013.1, Build901 2013/11/27)

>  <Rbt.Parameter_File>
/export/apps/rDock/src/rDock_2013.1_src/data/scripts/dock_solv.prm

>  <Rbt.Receptor>
prm/blind_docking_100.prm

>  <SCORE>
-15.2629

>  <SCORE.INTER>
-15.2629

>  <SCORE.INTER.CONST>
1

>  <SCORE.INTER.POLAR>
0

>  <SCORE.INTER.ROT>
0

>  <SCORE.INTER.SOLV>
3.28308

>  <SCORE.INTER.VDW>
-14.8696

>  <SCORE.INTER.norm>
-1.52629

>  <SCORE.INTRA>
0

>  <SCORE.INTRA.DIHEDRAL>
0

>  <SCORE.INTRA.DIHEDRAL.0>
0

>  <SCORE.INTRA.POLAR>
0

>  <SCORE.INTRA.POLAR.0>
0

>  <SCORE.INTRA.REPUL>
0

>  <SCORE.INTRA.REPUL.0>
0

>  <SCORE.INTRA.SOLV>
0

>  <SCORE.INTRA.SOLV.lig_0>
-4.15853

>  <SCORE.INTRA.VDW>
0

>  <SCORE.INTRA.VDW.0>
0

>  <SCORE.INTRA.norm>
0

>  <SCORE.RESTR>
0

>  <SCORE.RESTR.CAVITY>
0

>  <SCORE.RESTR.norm>
0

>  <SCORE.SYSTEM>
0

>  <SCORE.SYSTEM.CONST>
0

>  <SCORE.SYSTEM.DIHEDRAL>
0

>  <SCORE.SYSTEM.SOLV>
0

>  <SCORE.SYSTEM.norm>
0

>  <SCORE.heavy>
10

>  <SCORE.norm>
-1.52629

>  <RMSD>
1.111

$$$$
ligand
 OpenBabel02271912153D
libRbt.so/2013.1/901 2013/11/27
 10 11  0  0  0  0  0  0  0  0999 V2000
    0.7686  -13.4550   12.2150 N   0  0  0  0  0  0  0  0  0  0  0  0
    1.6808  -13.5604   11.2730 C   0  0  0  0  0  0  0  0  0  0  0  0
    2.4225  -12.4309   10.9180 N   0  0  0  0  0  0  0  0  0  0  0  0
    2.2075  -11.2648   11.5224 C   0  0  0  0  0  0  0  0  0  0  0  0
    1.2898  -11.1617   12.4655 C   0  0  0  0  0  0  0  0  0  0  0  0
    0.5729  -12.2135   12.8154 C   0  0  0  0  0  0  0  0  0  0  0  0
   -0.2775  -12.0938   13.6862 O   0  0  0  0  0  0  0  0  0  0  0  0
    1.2719   -9.9077   12.9136 N   0  0  0  0  0  0  0  0  0  0  0  0
    2.1981   -9.2364   12.2383 C   0  0  0  0  0  0  0  0  0  0  0  0
    2.7743  -10.0778   11.3760 N   0  0  0  0  0  0  0  0  0  0  0  0
  1  2  1  0  0  0  0
  1  6  1  0  0  0  0
  2  3  2  0  0  0  0
  3  4  1  0  0  0  0
  4  5  2  0  0  0  0
  4 10  1  0  0  0  0
  5  6  1  0  0  0  0
  5  8  1  0  0  0  0
  6  7  2  0  0  0  0
  8  9  1  0  0  0  0
  9 10  2  0  0  0  0
M  END
>  <CHROM.1>
1.45673557,-11.55255181,12.17164825,-2.18935662,0.74970242,0.32714411

>  <Name>
ligand

>  <RI>
0

>  <Rbt.Current_Directory>
/home/itssahil/PROJECTS/Mol_Feturizer/Test_systems_manuscript/rnas/5c7w

>  <Rbt.Executable>
rbdock ($Id: //depot/dev/client3/rdock/2013.1/src/exe/rbdock.cxx#4 $)

>  <Rbt.Library>
libRbt.so (2013.1, Build901 2013/11/27)

>  <Rbt.Parameter_File>
/export/apps/rDock/src/rDock_2013.1_src/data/scripts/dock_solv.prm

>  <Rbt.Receptor>
prm/blind_docking_20.prm

>  <SCORE>
-15.2686

>  <SCORE.INTER>
-15.2686

>  <SCORE.INTER.CONST>
1

>  <SCORE.INTER.POLAR>
0

>  <SCORE.INTER.ROT>
0

>  <SCORE.INTER.SOLV>
3.29401

>  <SCORE.INTER.VDW>
-14.877

>  <SCORE.INTER.norm>
-1.52686

>  <SCORE.INTRA>
0

>  <SCORE.INTRA.DIHEDRAL>
0

>  <SCORE.INTRA.DIHEDRAL.0>
0

>  <SCORE.INTRA.POLAR>
0

>  <SCORE.INTRA.POLAR.0>
0

>  <SCORE.INTRA.REPUL>
0

>  <SCORE.INTRA.REPUL.0>
0

>  <SCORE.INTRA.SOLV>
0

>  <SCORE.INTRA.SOLV.lig_0>
-4.15853

>  <SCORE.INTRA.VDW>
0

>  <SCORE.INTRA.VDW.0>
0

>  <SCORE.INTRA.norm>
0

>  <SCORE.RESTR>
0

>  <SCORE.RESTR.CAVITY>
0

>  <SCORE.RESTR.norm>
0

>  <SCORE.SYSTEM>
0

>  <SCORE.SYSTEM.CONST>
0

>  <SCORE.SYSTEM.DIHEDRAL>
0

>  <SCORE.SYSTEM.SOLV>
0

>  <SCORE.SYSTEM.norm>
0

>  <SCORE.heavy>
10

>  <SCORE.norm>
-1.52686

>  <RMSD>
1.111

$$$$
ligand
 OpenBabel02271912153D
libRbt.so/2013.1/901 2013/11/27
 10 11  0  0  0  0  0  0  0  0999 V2000
    0.7733  -13.4520   12.2243 N   0  0  0  0  0  0  0  0  0  0  0  0
    1.6871  -13.5591   11.2840 C   0  0  0  0  0  0  0  0  0  0  0  0
    2.4273  -12.4295   10.9260 N   0  0  0  0  0  0  0  0  0  0  0  0
    2.2091  -11.2616   11.5258 C   0  0  0  0  0  0  0  0  0  0  0  0
    1.2898  -11.1569   12.4672 C   0  0  0  0  0  0  0  0  0  0  0  0
    0.5744  -12.2087   12.8198 C   0  0  0  0  0  0  0  0  0  0  0  0
   -0.2774  -12.0874   13.6890 O   0  0  0  0  0  0  0  0  0  0  0  0
    1.2688   -9.9012   12.9106 N   0  0  0  0  0  0  0  0  0  0  0  0
    2.1948   -9.2306   12.2343 C   0  0  0  0  0  0  0  0  0  0  0  0
    2.7738  -10.0741   11.3759 N   0  0  0  0  0  0  0  0  0  0  0  0
  1  2  1  0  0  0  0
  1  6  1  0  0  0  0
  2  3  2  0  0  0  0
  3  4  1  0  0  0  0
  4  5  2  0  0  0  0
  4 10  1  0  0  0  0
  5  6  1  0  0  0  0
  5  8  1  0  0  0  0
  6  7  2  0  0  0  0
  8  9  1  0  0  0  0
  9 10  2  0  0  0  0
M  END
>  <CHROM.1>
1.45792915,-11.54840930,12.17499805,-2.18622632,0.74892399,0.32134898

>  <Name>
ligand

>  <RI>
0

>  <Rbt.Current_Directory>
/home/itssahil/PROJECTS/Mol_Feturizer/Test_systems_manuscript/rnas/5c7w

>  <Rbt.Executable>
rbdock ($Id: //depot/dev/client3/rdock/2013.1/src/exe/rbdock.cxx#4 $)

>  <Rbt.Library>
libRbt.so (2013.1, Build901 2013/11/27)

>  <Rbt.Parameter_File>
/export/apps/rDock/src/rDock_2013.1_src/data/scripts/dock_solv.prm

>  <Rbt.Receptor>
prm/blind_docking_20.prm

>  <SCORE>
-15.268

>  <SCORE.INTER>
-15.268

>  <SCORE.INTER.CONST>
1

>  <SCORE.INTER.POLAR>
0

>  <SCORE.INTER.ROT>
0

>  <SCORE.INTER.SOLV>
3.29303

>  <SCORE.INTER.VDW>
-14.8763

>  <SCORE.INTER.norm>
-1.5268

>  <SCORE.INTRA>
0

>  <SCORE.INTRA.DIHEDRAL>
0

>  <SCORE.INTRA.DIHEDRAL.0>
0

>  <SCORE.INTRA.POLAR>
0

>  <SCORE.INTRA.POLAR.0>
0

>  <SCORE.INTRA.REPUL>
0

>  <SCORE.INTRA.REPUL.0>
0

>  <SCORE.INTRA.SOLV>
0

>  <SCORE.INTRA.SOLV.lig_0>
-4.15853

>  <SCORE.INTRA.VDW>
0

>  <SCORE.INTRA.VDW.0>
0

>  <SCORE.INTRA.norm>
0

>  <SCORE.RESTR>
0

>  <SCORE.RESTR.CAVITY>
0

>  <SCORE.RESTR.norm>
0

>  <SCORE.SYSTEM>
0

>  <SCORE.SYSTEM.CONST>
0

>  <SCORE.SYSTEM.DIHEDRAL>
0

>  <SCORE.SYSTEM.SOLV>
0

>  <SCORE.SYSTEM.norm>
0

>  <SCORE.heavy>
10

>  <SCORE.norm>
-1.5268

>  <RMSD>
1.111

$$$$
ligand
 OpenBabel02271912153D
libRbt.so/2013.1/901 2013/11/27
 10 11  0  0  0  0  0  0  0  0999 V2000
    0.7722  -13.4518   12.2208 N   0  0  0  0  0  0  0  0  0  0  0  0
    1.6842  -13.5578   11.2787 C   0  0  0  0  0  0  0  0  0  0  0  0
    2.4235  -12.4278   10.9204 N   0  0  0  0  0  0  0  0  0  0  0  0
    2.2064  -11.2605   11.5218 C   0  0  0  0  0  0  0  0  0  0  0  0
    1.2889  -11.1568   12.4650 C   0  0  0  0  0  0  0  0  0  0  0  0
    0.5743  -12.2091   12.8180 C   0  0  0  0  0  0  0  0  0  0  0  0
   -0.2759  -12.0887   13.6889 O   0  0  0  0  0  0  0  0  0  0  0  0
    1.2686   -9.9016   12.9097 N   0  0  0  0  0  0  0  0  0  0  0  0
    2.1932   -9.2302   12.2323 C   0  0  0  0  0  0  0  0  0  0  0  0
    2.7707  -10.0728   11.3720 N   0  0  0  0  0  0  0  0  0  0  0  0
  1  2  1  0  0  0  0
  1  6  1  0  0  0  0
  2  3  2  0  0  0  0
  3  4  1  0  0  0  0
  4  5  2  0  0  0  0
  4 10  1  0  0  0  0
  5  6  1  0  0  0  0
  5  8  1  0  0  0  0
  6  7  2  0  0  0  0
  8  9  1  0  0  0  0
  9 10  2  0  0  0  0
M  END
>  <CHROM.1>
1.45647622,-11.54805140,12.17211533,-2.18691367,0.75077324,0.32281407

>  <Name>
ligand

>  <RI>
0

>  <Rbt.Current_Directory>
/home/itssahil/PROJECTS/Mol_Feturizer/Test_systems_manuscript/rnas/5c7w

>  <Rbt.Executable>
rbdock ($Id: //depot/dev/client3/rdock/2013.1/src/exe/rbdock.cxx#4 $)

>  <Rbt.Library>
libRbt.so (2013.1, Build901 2013/11/27)

>  <Rbt.Parameter_File>
/export/apps/rDock/src/rDock_2013.1_src/data/scripts/dock_solv.prm

>  <Rbt.Receptor>
prm/blind_docking_20.prm

>  <SCORE>
-15.2692

>  <SCORE.INTER>
-15.2692

>  <SCORE.INTER.CONST>
1

>  <SCORE.INTER.POLAR>
0

>  <SCORE.INTER.ROT>
0

>  <SCORE.INTER.SOLV>
3.29606

>  <SCORE.INTER.VDW>
-14.8781

>  <SCORE.INTER.norm>
-1.52692

>  <SCORE.INTRA>
0

>  <SCORE.INTRA.DIHEDRAL>
0

>  <SCORE.INTRA.DIHEDRAL.0>
0

>  <SCORE.INTRA.POLAR>
0

>  <SCORE.INTRA.POLAR.0>
0

>  <SCORE.INTRA.REPUL>
0

>  <SCORE.INTRA.REPUL.0>
0

>  <SCORE.INTRA.SOLV>
0

>  <SCORE.INTRA.SOLV.lig_0>
-4.15853

>  <SCORE.INTRA.VDW>
0

>  <SCORE.INTRA.VDW.0>
0

>  <SCORE.INTRA.norm>
0

>  <SCORE.RESTR>
0

>  <SCORE.RESTR.CAVITY>
0

>  <SCORE.RESTR.norm>
0

>  <SCORE.SYSTEM>
0

>  <SCORE.SYSTEM.CONST>
0

>  <SCORE.SYSTEM.DIHEDRAL>
0

>  <SCORE.SYSTEM.SOLV>
0

>  <SCORE.SYSTEM.norm>
0

>  <SCORE.heavy>
10

>  <SCORE.norm>
-1.52692

>  <RMSD>
1.111

$$$$
ligand
 OpenBabel02271912153D
libRbt.so/2013.1/901 2013/11/27
 10 11  0  0  0  0  0  0  0  0999 V2000
    0.7684  -13.4475   12.2163 N   0  0  0  0  0  0  0  0  0  0  0  0
    1.6786  -13.5543   11.2726 C   0  0  0  0  0  0  0  0  0  0  0  0
    2.4208  -12.4257   10.9156 N   0  0  0  0  0  0  0  0  0  0  0  0
    2.2081  -11.2591   11.5198 C   0  0  0  0  0  0  0  0  0  0  0  0
    1.2923  -11.1546   12.4646 C   0  0  0  0  0  0  0  0  0  0  0  0
    0.5751  -12.2055   12.8163 C   0  0  0  0  0  0  0  0  0  0  0  0
   -0.2735  -12.0845   13.6888 O   0  0  0  0  0  0  0  0  0  0  0  0
    1.2764   -9.9003   12.9120 N   0  0  0  0  0  0  0  0  0  0  0  0
    2.2020   -9.2303   12.2346 C   0  0  0  0  0  0  0  0  0  0  0  0
    2.7757  -10.0727   11.3716 N   0  0  0  0  0  0  0  0  0  0  0  0
  1  2  1  0  0  0  0
  1  6  1  0  0  0  0
  2  3  2  0  0  0  0
  3  4  1  0  0  0  0
  4  5  2  0  0  0  0
  4 10  1  0  0  0  0
  5  6  1  0  0  0  0
  5  8  1  0  0  0  0
  6  7  2  0  0  0  0
  8  9  1  0  0  0  0
  9 10  2  0  0  0  0
M  END
>  <CHROM.1>
1.45828319,-11.54574517,12.17057881,-2.19144914,0.75121377,0.32803782

>  <Name>
ligand

>  <RI>
0

>  <Rbt.Current_Directory>
/home/itssahil/PROJECTS/Mol_Feturizer/Test_systems_manuscript/rnas/5c7w

>  <Rbt.Executable>
rbdock ($Id: //depot/dev/client3/rdock/2013.1/src/exe/rbdock.cxx#4 $)

>  <Rbt.Library>
libRbt.so (2013.1, Build901 2013/11/27)

>  <Rbt.Parameter_File>
/export/apps/rDock/src/rDock_2013.1_src/data/scripts/dock_solv.prm

>  <Rbt.Receptor>
prm/blind_docking_40.prm

>  <SCORE>
-15.2691

>  <SCORE.INTER>
-15.2691

>  <SCORE.INTER.CONST>
1

>  <SCORE.INTER.POLAR>
0

>  <SCORE.INTER.ROT>
0

>  <SCORE.INTER.SOLV>
3.29349

>  <SCORE.INTER.VDW>
-14.8772

>  <SCORE.INTER.norm>
-1.52691

>  <SCORE.INTRA>
0

>  <SCORE.INTRA.DIHEDRAL>
0

>  <SCORE.INTRA.DIHEDRAL.0>
0

>  <SCORE.INTRA.POLAR>
0

>  <SCORE.INTRA.POLAR.0>
0

>  <SCORE.INTRA.REPUL>
0

>  <SCORE.INTRA.REPUL.0>
0

>  <SCORE.INTRA.SOLV>
0

>  <SCORE.INTRA.SOLV.lig_0>
-4.15853

>  <SCORE.INTRA.VDW>
0

>  <SCORE.INTRA.VDW.0>
0

>  <SCORE.INTRA.norm>
0

>  <SCORE.RESTR>
0

>  <SCORE.RESTR.CAVITY>
0

>  <SCORE.RESTR.norm>
0

>  <SCORE.SYSTEM>
0

>  <SCORE.SYSTEM.CONST>
0

>  <SCORE.SYSTEM.DIHEDRAL>
0

>  <SCORE.SYSTEM.SOLV>
0

>  <SCORE.SYSTEM.norm>
0

>  <SCORE.heavy>
10

>  <SCORE.norm>
-1.52691

>  <RMSD>
1.111

$$$$
ligand
 OpenBabel02271912153D
libRbt.so/2013.1/901 2013/11/27
 10 11  0  0  0  0  0  0  0  0999 V2000
    0.7704  -13.4474   12.2203 N   0  0  0  0  0  0  0  0  0  0  0  0
    1.6844  -13.5546   11.2803 C   0  0  0  0  0  0  0  0  0  0  0  0
    2.4269  -12.4259   10.9246 N   0  0  0  0  0  0  0  0  0  0  0  0
    2.2108  -11.2586   11.5263 C   0  0  0  0  0  0  0  0  0  0  0  0
    1.2913  -11.1537   12.4674 C   0  0  0  0  0  0  0  0  0  0  0  0
    0.5736  -12.2048   12.8178 C   0  0  0  0  0  0  0  0  0  0  0  0
   -0.2784  -12.0832   13.6868 O   0  0  0  0  0  0  0  0  0  0  0  0
    1.2725   -9.8987   12.9130 N   0  0  0  0  0  0  0  0  0  0  0  0
    2.2001   -9.2288   12.2383 C   0  0  0  0  0  0  0  0  0  0  0  0
    2.7779  -10.0719   11.3787 N   0  0  0  0  0  0  0  0  0  0  0  0
  1  2  1  0  0  0  0
  1  6  1  0  0  0  0
  2  3  2  0  0  0  0
  3  4  1  0  0  0  0
  4  5  2  0  0  0  0
  4 10  1  0  0  0  0
  5  6  1  0  0  0  0
  5  8  1  0  0  0  0
  6  7  2  0  0  0  0
  8  9  1  0  0  0  0
  9 10  2  0  0  0  0
M  END
>  <CHROM.1>
1.45874091,-11.54504813,12.17458605,-2.18856295,0.74782857,0.32466809

>  <Name>
ligand

>  <RI>
0

>  <Rbt.Current_Directory>
/home/itssahil/PROJECTS/Mol_Feturizer/Test_systems_manuscript/rnas/5c7w

>  <Rbt.Executable>
rbdock ($Id: //depot/dev/client3/rdock/2013.1/src/exe/rbdock.cxx#4 $)

>  <Rbt.Library>
libRbt.so (2013.1, Build901 2013/11/27)

>  <Rbt.Parameter_File>
/export/apps/rDock/src/rDock_2013.1_src/data/scripts/dock_solv.prm

>  <Rbt.Receptor>
prm/blind_docking_60.prm

>  <SCORE>
-15.2676

>  <SCORE.INTER>
-15.2676

>  <SCORE.INTER.CONST>
1

>  <SCORE.INTER.POLAR>
0

>  <SCORE.INTER.ROT>
0

>  <SCORE.INTER.SOLV>
3.28754

>  <SCORE.INTER.VDW>
-14.8743

>  <SCORE.INTER.norm>
-1.52676

>  <SCORE.INTRA>
0

>  <SCORE.INTRA.DIHEDRAL>
0

>  <SCORE.INTRA.DIHEDRAL.0>
0

>  <SCORE.INTRA.POLAR>
0

>  <SCORE.INTRA.POLAR.0>
0

>  <SCORE.INTRA.REPUL>
0

>  <SCORE.INTRA.REPUL.0>
0

>  <SCORE.INTRA.SOLV>
0

>  <SCORE.INTRA.SOLV.lig_0>
-4.15853

>  <SCORE.INTRA.VDW>
0

>  <SCORE.INTRA.VDW.0>
0

>  <SCORE.INTRA.norm>
0

>  <SCORE.RESTR>
0

>  <SCORE.RESTR.CAVITY>
0

>  <SCORE.RESTR.norm>
0

>  <SCORE.SYSTEM>
0

>  <SCORE.SYSTEM.CONST>
0

>  <SCORE.SYSTEM.DIHEDRAL>
0

>  <SCORE.SYSTEM.SOLV>
0

>  <SCORE.SYSTEM.norm>
0

>  <SCORE.heavy>
10

>  <SCORE.norm>
-1.52676

>  <RMSD>
1.111

$$$$
ligand
 OpenBabel02271912153D
libRbt.so/2013.1/901 2013/11/27
 10 11  0  0  0  0  0  0  0  0999 V2000
    0.7719  -13.4503   12.2186 N   0  0  0  0  0  0  0  0  0  0  0  0
    1.6884  -13.5555   11.2807 C   0  0  0  0  0  0  0  0  0  0  0  0
    2.4278  -12.4247   10.9253 N   0  0  0  0  0  0  0  0  0  0  0  0
    2.2064  -11.2574   11.5251 C   0  0  0  0  0  0  0  0  0  0  0  0
    1.2844  -11.1545   12.4640 C   0  0  0  0  0  0  0  0  0  0  0  0
    0.5696  -12.2076   12.8142 C   0  0  0  0  0  0  0  0  0  0  0  0
   -0.2847  -12.0879   13.6812 O   0  0  0  0  0  0  0  0  0  0  0  0
    1.2604   -9.8990   12.9080 N   0  0  0  0  0  0  0  0  0  0  0  0
    2.1872   -9.2268   12.2345 C   0  0  0  0  0  0  0  0  0  0  0  0
    2.7698  -10.0690   11.3773 N   0  0  0  0  0  0  0  0  0  0  0  0
  1  2  1  0  0  0  0
  1  6  1  0  0  0  0
  2  3  2  0  0  0  0
  3  4  1  0  0  0  0
  4  5  2  0  0  0  0
  4 10  1  0  0  0  0
  5  6  1  0  0  0  0
  5  8  1  0  0  0  0
  6  7  2  0  0  0  0
  8  9  1  0  0  0  0
  9 10  2  0  0  0  0
M  END
>  <CHROM.1>
1.45389624,-11.54564229,12.17209680,-2.18319289,0.74684028,0.31979204

>  <Name>
ligand

>  <RI>
0

>  <Rbt.Current_Directory>
/home/itssahil/PROJECTS/Mol_Feturizer/Test_systems_manuscript/rnas/5c7w

>  <Rbt.Executable>
rbdock ($Id: //depot/dev/client3/rdock/2013.1/src/exe/rbdock.cxx#4 $)

>  <Rbt.Library>
libRbt.so (2013.1, Build901 2013/11/27)

>  <Rbt.Parameter_File>
/export/apps/rDock/src/rDock_2013.1_src/data/scripts/dock_solv.prm

>  <Rbt.Receptor>
prm/blind_docking_60.prm

>  <SCORE>
-15.2668

>  <SCORE.INTER>
-15.2668

>  <SCORE.INTER.CONST>
1

>  <SCORE.INTER.POLAR>
0

>  <SCORE.INTER.ROT>
0

>  <SCORE.INTER.SOLV>
3.28623

>  <SCORE.INTER.VDW>
-14.8733

>  <SCORE.INTER.norm>
-1.52668

>  <SCORE.INTRA>
0

>  <SCORE.INTRA.DIHEDRAL>
0

>  <SCORE.INTRA.DIHEDRAL.0>
0

>  <SCORE.INTRA.POLAR>
0

>  <SCORE.INTRA.POLAR.0>
0

>  <SCORE.INTRA.REPUL>
0

>  <SCORE.INTRA.REPUL.0>
0

>  <SCORE.INTRA.SOLV>
0

>  <SCORE.INTRA.SOLV.lig_0>
-4.15853

>  <SCORE.INTRA.VDW>
0

>  <SCORE.INTRA.VDW.0>
0

>  <SCORE.INTRA.norm>
0

>  <SCORE.RESTR>
0

>  <SCORE.RESTR.CAVITY>
0

>  <SCORE.RESTR.norm>
0

>  <SCORE.SYSTEM>
0

>  <SCORE.SYSTEM.CONST>
0

>  <SCORE.SYSTEM.DIHEDRAL>
0

>  <SCORE.SYSTEM.SOLV>
0

>  <SCORE.SYSTEM.norm>
0

>  <SCORE.heavy>
10

>  <SCORE.norm>
-1.52668

>  <RMSD>
1.111

$$$$
ligand
 OpenBabel02271912153D
libRbt.so/2013.1/901 2013/11/27
 10 11  0  0  0  0  0  0  0  0999 V2000
    0.7690  -13.4461   12.2153 N   0  0  0  0  0  0  0  0  0  0  0  0
    1.6867  -13.5550   11.2790 C   0  0  0  0  0  0  0  0  0  0  0  0
    2.4328  -12.4276   10.9266 N   0  0  0  0  0  0  0  0  0  0  0  0
    2.2165  -11.2600   11.5276 C   0  0  0  0  0  0  0  0  0  0  0  0
    1.2932  -11.1535   12.4649 C   0  0  0  0  0  0  0  0  0  0  0  0
    0.5721  -12.2032   12.8122 C   0  0  0  0  0  0  0  0  0  0  0  0
   -0.2833  -12.0803   13.6777 O   0  0  0  0  0  0  0  0  0  0  0  0
    1.2750   -9.8986   12.9107 N   0  0  0  0  0  0  0  0  0  0  0  0
    2.2067   -9.2303   12.2399 C   0  0  0  0  0  0  0  0  0  0  0  0
    2.7864  -10.0744   11.3826 N   0  0  0  0  0  0  0  0  0  0  0  0
  1  2  1  0  0  0  0
  1  6  1  0  0  0  0
  2  3  2  0  0  0  0
  3  4  1  0  0  0  0
  4  5  2  0  0  0  0
  4 10  1  0  0  0  0
  5  6  1  0  0  0  0
  5  8  1  0  0  0  0
  6  7  2  0  0  0  0
  8  9  1  0  0  0  0
  9 10  2  0  0  0  0
M  END
>  <CHROM.1>
1.46113775,-11.54511904,12.17277210,-2.18922316,0.74328615,0.32529466

>  <Name>
ligand

>  <RI>
0

>  <Rbt.Current_Directory>
/home/itssahil/PROJECTS/Mol_Feturizer/Test_systems_manuscript/rnas/5c7w

>  <Rbt.Executable>
rbdock ($Id: //depot/dev/client3/rdock/2013.1/src/exe/rbdock.cxx#4 $)

>  <Rbt.Library>
libRbt.so (2013.1, Build901 2013/11/27)

>  <Rbt.Parameter_File>
/export/apps/rDock/src/rDock_2013.1_src/data/scripts/dock_solv.prm

>  <Rbt.Receptor>
prm/blind_docking_60.prm

>  <SCORE>
-15.2659

>  <SCORE.INTER>
-15.2659

>  <SCORE.INTER.CONST>
1

>  <SCORE.INTER.POLAR>
0

>  <SCORE.INTER.ROT>
0

>  <SCORE.INTER.SOLV>
3.27339

>  <SCORE.INTER.VDW>
-14.8684

>  <SCORE.INTER.norm>
-1.52659

>  <SCORE.INTRA>
0

>  <SCORE.INTRA.DIHEDRAL>
0

>  <SCORE.INTRA.DIHEDRAL.0>
0

>  <SCORE.INTRA.POLAR>
0

>  <SCORE.INTRA.POLAR.0>
0

>  <SCORE.INTRA.REPUL>
0

>  <SCORE.INTRA.REPUL.0>
0

>  <SCORE.INTRA.SOLV>
0

>  <SCORE.INTRA.SOLV.lig_0>
-4.15853

>  <SCORE.INTRA.VDW>
0

>  <SCORE.INTRA.VDW.0>
0

>  <SCORE.INTRA.norm>
0

>  <SCORE.RESTR>
0

>  <SCORE.RESTR.CAVITY>
0

>  <SCORE.RESTR.norm>
0

>  <SCORE.SYSTEM>
0

>  <SCORE.SYSTEM.CONST>
0

>  <SCORE.SYSTEM.DIHEDRAL>
0

>  <SCORE.SYSTEM.SOLV>
0

>  <SCORE.SYSTEM.norm>
0

>  <SCORE.heavy>
10

>  <SCORE.norm>
-1.52659

>  <RMSD>
1.111

$$$$
ligand
 OpenBabel02271912153D
libRbt.so/2013.1/901 2013/11/27
 10 11  0  0  0  0  0  0  0  0999 V2000
    0.7739  -13.4440   12.2221 N   0  0  0  0  0  0  0  0  0  0  0  0
    1.6929  -13.5518   11.2870 C   0  0  0  0  0  0  0  0  0  0  0  0
    2.4340  -12.4221   10.9311 N   0  0  0  0  0  0  0  0  0  0  0  0
    2.2115  -11.2535   11.5277 C   0  0  0  0  0  0  0  0  0  0  0  0
    1.2869  -11.1479   12.4638 C   0  0  0  0  0  0  0  0  0  0  0  0
    0.5706  -12.1999   12.8143 C   0  0  0  0  0  0  0  0  0  0  0  0
   -0.2861  -12.0778   13.6786 O   0  0  0  0  0  0  0  0  0  0  0  0
    1.2624   -9.8915   12.9049 N   0  0  0  0  0  0  0  0  0  0  0  0
    2.1914   -9.2212   12.2325 C   0  0  0  0  0  0  0  0  0  0  0  0
    2.7759  -10.0656   11.3788 N   0  0  0  0  0  0  0  0  0  0  0  0
  1  2  1  0  0  0  0
  1  6  1  0  0  0  0
  2  3  2  0  0  0  0
  3  4  1  0  0  0  0
  4  5  2  0  0  0  0
  4 10  1  0  0  0  0
  5  6  1  0  0  0  0
  5  8  1  0  0  0  0
  6  7  2  0  0  0  0
  8  9  1  0  0  0  0
  9 10  2  0  0  0  0
M  END
>  <CHROM.1>
1.45701528,-11.53981060,12.17321076,-2.18268758,0.74401070,0.31722303

>  <Name>
ligand

>  <RI>
0

>  <Rbt.Current_Directory>
/home/itssahil/PROJECTS/Mol_Feturizer/Test_systems_manuscript/rnas/5c7w

>  <Rbt.Executable>
rbdock ($Id: //depot/dev/client3/rdock/2013.1/src/exe/rbdock.cxx#4 $)

>  <Rbt.Library>
libRbt.so (2013.1, Build901 2013/11/27)

>  <Rbt.Parameter_File>
/export/apps/rDock/src/rDock_2013.1_src/data/scripts/dock_solv.prm

>  <Rbt.Receptor>
prm/blind_docking_80.prm

>  <SCORE>
-15.2648

>  <SCORE.INTER>
-15.2648

>  <SCORE.INTER.CONST>
1

>  <SCORE.INTER.POLAR>
0

>  <SCORE.INTER.ROT>
0

>  <SCORE.INTER.SOLV>
3.2763

>  <SCORE.INTER.VDW>
-14.8686

>  <SCORE.INTER.norm>
-1.52648

>  <SCORE.INTRA>
0

>  <SCORE.INTRA.DIHEDRAL>
0

>  <SCORE.INTRA.DIHEDRAL.0>
0

>  <SCORE.INTRA.POLAR>
0

>  <SCORE.INTRA.POLAR.0>
0

>  <SCORE.INTRA.REPUL>
0

>  <SCORE.INTRA.REPUL.0>
0

>  <SCORE.INTRA.SOLV>
0

>  <SCORE.INTRA.SOLV.lig_0>
-4.15853

>  <SCORE.INTRA.VDW>
0

>  <SCORE.INTRA.VDW.0>
0

>  <SCORE.INTRA.norm>
0

>  <SCORE.RESTR>
0

>  <SCORE.RESTR.CAVITY>
0

>  <SCORE.RESTR.norm>
0

>  <SCORE.SYSTEM>
0

>  <SCORE.SYSTEM.CONST>
0

>  <SCORE.SYSTEM.DIHEDRAL>
0

>  <SCORE.SYSTEM.SOLV>
0

>  <SCORE.SYSTEM.norm>
0

>  <SCORE.heavy>
10

>  <SCORE.norm>
-1.52648

>  <RMSD>
1.111

$$$$
ligand
 OpenBabel02271912153D
libRbt.so/2013.1/901 2013/11/27
 10 11  0  0  0  0  0  0  0  0999 V2000
    0.7698  -13.4487   12.2167 N   0  0  0  0  0  0  0  0  0  0  0  0
    1.6847  -13.5550   11.2774 C   0  0  0  0  0  0  0  0  0  0  0  0
    2.4265  -12.4256   10.9224 N   0  0  0  0  0  0  0  0  0  0  0  0
    2.2089  -11.2586   11.5241 C   0  0  0  0  0  0  0  0  0  0  0  0
    1.2885  -11.1546   12.4645 C   0  0  0  0  0  0  0  0  0  0  0  0
    0.5715  -12.2063   12.8143 C   0  0  0  0  0  0  0  0  0  0  0  0
   -0.2813  -12.0857   13.6826 O   0  0  0  0  0  0  0  0  0  0  0  0
    1.2684   -9.8997   12.9103 N   0  0  0  0  0  0  0  0  0  0  0  0
    2.1959   -9.2289   12.2364 C   0  0  0  0  0  0  0  0  0  0  0  0
    2.7751  -10.0714   11.3771 N   0  0  0  0  0  0  0  0  0  0  0  0
  1  2  1  0  0  0  0
  1  6  1  0  0  0  0
  2  3  2  0  0  0  0
  3  4  1  0  0  0  0
  4  5  2  0  0  0  0
  4 10  1  0  0  0  0
  5  6  1  0  0  0  0
  5  8  1  0  0  0  0
  6  7  2  0  0  0  0
  8  9  1  0  0  0  0
  9 10  2  0  0  0  0
M  END
>  <CHROM.1>
1.45658859,-11.54577958,12.17179453,-2.18711852,0.74737203,0.32382785

>  <Name>
ligand

>  <RI>
0

>  <Rbt.Current_Directory>
/home/itssahil/PROJECTS/Mol_Feturizer/Test_systems_manuscript/rnas/5c7w

>  <Rbt.Executable>
rbdock ($Id: //depot/dev/client3/rdock/2013.1/src/exe/rbdock.cxx#4 $)

>  <Rbt.Library>
libRbt.so (2013.1, Build901 2013/11/27)

>  <Rbt.Parameter_File>
/export/apps/rDock/src/rDock_2013.1_src/data/scripts/dock_solv.prm

>  <Rbt.Receptor>
prm/blind_docking_80.prm

>  <SCORE>
-15.268

>  <SCORE.INTER>
-15.268

>  <SCORE.INTER.CONST>
1

>  <SCORE.INTER.POLAR>
0

>  <SCORE.INTER.ROT>
0

>  <SCORE.INTER.SOLV>
3.28573

>  <SCORE.INTER.VDW>
-14.8739

>  <SCORE.INTER.norm>
-1.5268

>  <SCORE.INTRA>
0

>  <SCORE.INTRA.DIHEDRAL>
0

>  <SCORE.INTRA.DIHEDRAL.0>
0

>  <SCORE.INTRA.POLAR>
0

>  <SCORE.INTRA.POLAR.0>
0

>  <SCORE.INTRA.REPUL>
0

>  <SCORE.INTRA.REPUL.0>
0

>  <SCORE.INTRA.SOLV>
0

>  <SCORE.INTRA.SOLV.lig_0>
-4.15853

>  <SCORE.INTRA.VDW>
0

>  <SCORE.INTRA.VDW.0>
0

>  <SCORE.INTRA.norm>
0

>  <SCORE.RESTR>
0

>  <SCORE.RESTR.CAVITY>
0

>  <SCORE.RESTR.norm>
0

>  <SCORE.SYSTEM>
0

>  <SCORE.SYSTEM.CONST>
0

>  <SCORE.SYSTEM.DIHEDRAL>
0

>  <SCORE.SYSTEM.SOLV>
0

>  <SCORE.SYSTEM.norm>
0

>  <SCORE.heavy>
10

>  <SCORE.norm>
-1.5268

>  <RMSD>
1.111

$$$$
ligand
 OpenBabel02271912153D
libRbt.so/2013.1/901 2013/11/27
 10 11  0  0  0  0  0  0  0  0999 V2000
    0.7744  -13.4519   12.2235 N   0  0  0  0  0  0  0  0  0  0  0  0
    1.6855  -13.5569   11.2804 C   0  0  0  0  0  0  0  0  0  0  0  0
    2.4220  -12.4257   10.9201 N   0  0  0  0  0  0  0  0  0  0  0  0
    2.2032  -11.2584   11.5207 C   0  0  0  0  0  0  0  0  0  0  0  0
    1.2866  -11.1556   12.4649 C   0  0  0  0  0  0  0  0  0  0  0  0
    0.5746  -12.2091   12.8197 C   0  0  0  0  0  0  0  0  0  0  0  0
   -0.2749  -12.0897   13.6915 O   0  0  0  0  0  0  0  0  0  0  0  0
    1.2642   -9.9000   12.9084 N   0  0  0  0  0  0  0  0  0  0  0  0
    2.1866   -9.2274   12.2293 C   0  0  0  0  0  0  0  0  0  0  0  0
    2.7648  -10.0695   11.3691 N   0  0  0  0  0  0  0  0  0  0  0  0
  1  2  1  0  0  0  0
  1  6  1  0  0  0  0
  2  3  2  0  0  0  0
  3  4  1  0  0  0  0
  4  5  2  0  0  0  0
  4 10  1  0  0  0  0
  5  6  1  0  0  0  0
  5  8  1  0  0  0  0
  6  7  2  0  0  0  0
  8  9  1  0  0  0  0
  9 10  2  0  0  0  0
M  END
>  <CHROM.1>
1.45464971,-11.54680321,12.17214118,-2.18472577,0.75253671,0.32037495

>  <Name>
ligand

>  <RI>
0

>  <Rbt.Current_Directory>
/home/itssahil/PROJECTS/Mol_Feturizer/Test_systems_manuscript/rnas/5c7w

>  <Rbt.Executable>
rbdock ($Id: //depot/dev/client3/rdock/2013.1/src/exe/rbdock.cxx#4 $)

>  <Rbt.Library>
libRbt.so (2013.1, Build901 2013/11/27)

>  <Rbt.Parameter_File>
/export/apps/rDock/src/rDock_2013.1_src/data/scripts/dock_solv.prm

>  <Rbt.Receptor>
prm/pocket_docking_3.prm

>  <SCORE>
-15.2686

>  <SCORE.INTER>
-15.2686

>  <SCORE.INTER.CONST>
1

>  <SCORE.INTER.POLAR>
0

>  <SCORE.INTER.ROT>
0

>  <SCORE.INTER.SOLV>
3.30129

>  <SCORE.INTER.VDW>
-14.8795

>  <SCORE.INTER.norm>
-1.52686

>  <SCORE.INTRA>
0

>  <SCORE.INTRA.DIHEDRAL>
0

>  <SCORE.INTRA.DIHEDRAL.0>
0

>  <SCORE.INTRA.POLAR>
0

>  <SCORE.INTRA.POLAR.0>
0

>  <SCORE.INTRA.REPUL>
0

>  <SCORE.INTRA.REPUL.0>
0

>  <SCORE.INTRA.SOLV>
0

>  <SCORE.INTRA.SOLV.lig_0>
-4.15853

>  <SCORE.INTRA.VDW>
0

>  <SCORE.INTRA.VDW.0>
0

>  <SCORE.INTRA.norm>
0

>  <SCORE.RESTR>
0

>  <SCORE.RESTR.CAVITY>
0

>  <SCORE.RESTR.norm>
0

>  <SCORE.SYSTEM>
0

>  <SCORE.SYSTEM.CONST>
0

>  <SCORE.SYSTEM.DIHEDRAL>
0

>  <SCORE.SYSTEM.SOLV>
0

>  <SCORE.SYSTEM.norm>
0

>  <SCORE.heavy>
10

>  <SCORE.norm>
-1.52686

>  <RMSD>
1.111

$$$$
ligand
 OpenBabel02271912153D
libRbt.so/2013.1/901 2013/11/27
 10 11  0  0  0  0  0  0  0  0999 V2000
    0.7719  -13.4466   12.2203 N   0  0  0  0  0  0  0  0  0  0  0  0
    1.6843  -13.5532   11.2787 C   0  0  0  0  0  0  0  0  0  0  0  0
    2.4243  -12.4235   10.9205 N   0  0  0  0  0  0  0  0  0  0  0  0
    2.2073  -11.2561   11.5215 C   0  0  0  0  0  0  0  0  0  0  0  0
    1.2893  -11.1518   12.4642 C   0  0  0  0  0  0  0  0  0  0  0  0
    0.5741  -12.2037   12.8170 C   0  0  0  0  0  0  0  0  0  0  0  0
   -0.2765  -12.0828   13.6875 O   0  0  0  0  0  0  0  0  0  0  0  0
    1.2693   -9.8964   12.9086 N   0  0  0  0  0  0  0  0  0  0  0  0
    2.1945   -9.2256   12.2315 C   0  0  0  0  0  0  0  0  0  0  0  0
    2.7721  -10.0685   11.3717 N   0  0  0  0  0  0  0  0  0  0  0  0
  1  2  1  0  0  0  0
  1  6  1  0  0  0  0
  2  3  2  0  0  0  0
  3  4  1  0  0  0  0
  4  5  2  0  0  0  0
  4 10  1  0  0  0  0
  5  6  1  0  0  0  0
  5  8  1  0  0  0  0
  6  7  2  0  0  0  0
  8  9  1  0  0  0  0
  9 10  2  0  0  0  0
M  END
>  <CHROM.1>
1.45693642,-11.54313462,12.17147338,-2.18719377,0.75014932,0.32277513

>  <Name>
ligand

>  <RI>
0

>  <Rbt.Current_Directory>
/home/itssahil/PROJECTS/Mol_Feturizer/Test_systems_manuscript/rnas/5c7w

>  <Rbt.Executable>
rbdock ($Id: //depot/dev/client3/rdock/2013.1/src/exe/rbdock.cxx#4 $)

>  <Rbt.Library>
libRbt.so (2013.1, Build901 2013/11/27)

>  <Rbt.Parameter_File>
/export/apps/rDock/src/rDock_2013.1_src/data/scripts/dock_solv.prm

>  <Rbt.Receptor>
prm/pocket_docking_3.prm

>  <SCORE>
-15.2688

>  <SCORE.INTER>
-15.2688

>  <SCORE.INTER.CONST>
1

>  <SCORE.INTER.POLAR>
0

>  <SCORE.INTER.ROT>
0

>  <SCORE.INTER.SOLV>
3.29172

>  <SCORE.INTER.VDW>
-14.8764

>  <SCORE.INTER.norm>
-1.52688

>  <SCORE.INTRA>
0

>  <SCORE.INTRA.DIHEDRAL>
0

>  <SCORE.INTRA.DIHEDRAL.0>
0

>  <SCORE.INTRA.POLAR>
0

>  <SCORE.INTRA.POLAR.0>
0

>  <SCORE.INTRA.REPUL>
0

>  <SCORE.INTRA.REPUL.0>
0

>  <SCORE.INTRA.SOLV>
0

>  <SCORE.INTRA.SOLV.lig_0>
-4.15853

>  <SCORE.INTRA.VDW>
0

>  <SCORE.INTRA.VDW.0>
0

>  <SCORE.INTRA.norm>
0

>  <SCORE.RESTR>
0

>  <SCORE.RESTR.CAVITY>
0

>  <SCORE.RESTR.norm>
0

>  <SCORE.SYSTEM>
0

>  <SCORE.SYSTEM.CONST>
0

>  <SCORE.SYSTEM.DIHEDRAL>
0

>  <SCORE.SYSTEM.SOLV>
0

>  <SCORE.SYSTEM.norm>
0

>  <SCORE.heavy>
10

>  <SCORE.norm>
-1.52688

>  <RMSD>
1.111

$$$$
ligand
 OpenBabel02271912153D
libRbt.so/2013.1/901 2013/11/27
 10 11  0  0  0  0  0  0  0  0999 V2000
    0.7725  -13.4565   12.2190 N   0  0  0  0  0  0  0  0  0  0  0  0
    1.6863  -13.5615   11.2785 C   0  0  0  0  0  0  0  0  0  0  0  0
    2.4257  -12.4309   10.9222 N   0  0  0  0  0  0  0  0  0  0  0  0
    2.2069  -11.2641   11.5238 C   0  0  0  0  0  0  0  0  0  0  0  0
    1.2876  -11.1614   12.4655 C   0  0  0  0  0  0  0  0  0  0  0  0
    0.5729  -12.2143   12.8165 C   0  0  0  0  0  0  0  0  0  0  0  0
   -0.2790  -12.0948   13.6860 O   0  0  0  0  0  0  0  0  0  0  0  0
    1.2659   -9.9064   12.9108 N   0  0  0  0  0  0  0  0  0  0  0  0
    2.1914   -9.2342   12.2355 C   0  0  0  0  0  0  0  0  0  0  0  0
    2.7708  -10.0760   11.3757 N   0  0  0  0  0  0  0  0  0  0  0  0
  1  2  1  0  0  0  0
  1  6  1  0  0  0  0
  2  3  2  0  0  0  0
  3  4  1  0  0  0  0
  4  5  2  0  0  0  0
  4 10  1  0  0  0  0
  5  6  1  0  0  0  0
  5  8  1  0  0  0  0
  6  7  2  0  0  0  0
  8  9  1  0  0  0  0
  9 10  2  0  0  0  0
M  END
>  <CHROM.1>
1.45594465,-11.55240046,12.17263100,-2.18545665,0.74919955,0.32238961

>  <Name>
ligand

>  <RI>
0

>  <Rbt.Current_Directory>
/home/itssahil/PROJECTS/Mol_Feturizer/Test_systems_manuscript/rnas/5c7w

>  <Rbt.Executable>
rbdock ($Id: //depot/dev/client3/rdock/2013.1/src/exe/rbdock.cxx#4 $)

>  <Rbt.Library>
libRbt.so (2013.1, Build901 2013/11/27)

>  <Rbt.Parameter_File>
/export/apps/rDock/src/rDock_2013.1_src/data/scripts/dock_solv.prm

>  <Rbt.Receptor>
prm/pocket_docking_3.prm

>  <SCORE>
-15.2686

>  <SCORE.INTER>
-15.2686

>  <SCORE.INTER.CONST>
1

>  <SCORE.INTER.POLAR>
0

>  <SCORE.INTER.ROT>
0

>  <SCORE.INTER.SOLV>
3.2946

>  <SCORE.INTER.VDW>
-14.8772

>  <SCORE.INTER.norm>
-1.52686

>  <SCORE.INTRA>
0

>  <SCORE.INTRA.DIHEDRAL>
0

>  <SCORE.INTRA.DIHEDRAL.0>
0

>  <SCORE.INTRA.POLAR>
0

>  <SCORE.INTRA.POLAR.0>
0

>  <SCORE.INTRA.REPUL>
0

>  <SCORE.INTRA.REPUL.0>
0

>  <SCORE.INTRA.SOLV>
0

>  <SCORE.INTRA.SOLV.lig_0>
-4.15853

>  <SCORE.INTRA.VDW>
0

>  <SCORE.INTRA.VDW.0>
0

>  <SCORE.INTRA.norm>
0

>  <SCORE.RESTR>
0

>  <SCORE.RESTR.CAVITY>
0

>  <SCORE.RESTR.norm>
0

>  <SCORE.SYSTEM>
0

>  <SCORE.SYSTEM.CONST>
0

>  <SCORE.SYSTEM.DIHEDRAL>
0

>  <SCORE.SYSTEM.SOLV>
0

>  <SCORE.SYSTEM.norm>
0

>  <SCORE.heavy>
10

>  <SCORE.norm>
-1.52686

>  <RMSD>
1.111

$$$$
ligand
 OpenBabel02271912153D
libRbt.so/2013.1/901 2013/11/27
 10 11  0  0  0  0  0  0  0  0999 V2000
    0.7741  -13.4475   12.2256 N   0  0  0  0  0  0  0  0  0  0  0  0
    1.6857  -13.5546   11.2832 C   0  0  0  0  0  0  0  0  0  0  0  0
    2.4248  -12.4250   10.9232 N   0  0  0  0  0  0  0  0  0  0  0  0
    2.2079  -11.2570   11.5232 C   0  0  0  0  0  0  0  0  0  0  0  0
    1.2907  -11.1522   12.4667 C   0  0  0  0  0  0  0  0  0  0  0  0
    0.5764  -12.2041   12.8213 C   0  0  0  0  0  0  0  0  0  0  0  0
   -0.2735  -12.0827   13.6924 O   0  0  0  0  0  0  0  0  0  0  0  0
    1.2705   -9.8964   12.9098 N   0  0  0  0  0  0  0  0  0  0  0  0
    2.1948   -9.2258   12.2312 C   0  0  0  0  0  0  0  0  0  0  0  0
    2.7720  -10.0694   11.3716 N   0  0  0  0  0  0  0  0  0  0  0  0
  1  2  1  0  0  0  0
  1  6  1  0  0  0  0
  2  3  2  0  0  0  0
  3  4  1  0  0  0  0
  4  5  2  0  0  0  0
  4 10  1  0  0  0  0
  5  6  1  0  0  0  0
  5  8  1  0  0  0  0
  6  7  2  0  0  0  0
  8  9  1  0  0  0  0
  9 10  2  0  0  0  0
M  END
>  <CHROM.1>
1.45823136,-11.54378753,12.17420100,-2.18698723,0.75120482,0.32161369

>  <Name>
ligand

>  <RI>
0

>  <Rbt.Current_Directory>
/home/itssahil/PROJECTS/Mol_Feturizer/Test_systems_manuscript/rnas/5c7w

>  <Rbt.Executable>
rbdock ($Id: //depot/dev/client3/rdock/2013.1/src/exe/rbdock.cxx#4 $)

>  <Rbt.Library>
libRbt.so (2013.1, Build901 2013/11/27)

>  <Rbt.Parameter_File>
/export/apps/rDock/src/rDock_2013.1_src/data/scripts/dock_solv.prm

>  <Rbt.Receptor>
prm/pocket_docking_5.prm

>  <SCORE>
-15.2683

>  <SCORE.INTER>
-15.2683

>  <SCORE.INTER.CONST>
1

>  <SCORE.INTER.POLAR>
0

>  <SCORE.INTER.ROT>
0

>  <SCORE.INTER.SOLV>
3.29646

>  <SCORE.INTER.VDW>
-14.8777

>  <SCORE.INTER.norm>
-1.52683

>  <SCORE.INTRA>
0

>  <SCORE.INTRA.DIHEDRAL>
0

>  <SCORE.INTRA.DIHEDRAL.0>
0

>  <SCORE.INTRA.POLAR>
0

>  <SCORE.INTRA.POLAR.0>
0

>  <SCORE.INTRA.REPUL>
0

>  <SCORE.INTRA.REPUL.0>
0

>  <SCORE.INTRA.SOLV>
0

>  <SCORE.INTRA.SOLV.lig_0>
-4.15853

>  <SCORE.INTRA.VDW>
0

>  <SCORE.INTRA.VDW.0>
0

>  <SCORE.INTRA.norm>
0

>  <SCORE.RESTR>
0

>  <SCORE.RESTR.CAVITY>
0

>  <SCORE.RESTR.norm>
0

>  <SCORE.SYSTEM>
0

>  <SCORE.SYSTEM.CONST>
0

>  <SCORE.SYSTEM.DIHEDRAL>
0

>  <SCORE.SYSTEM.SOLV>
0

>  <SCORE.SYSTEM.norm>
0

>  <SCORE.heavy>
10

>  <SCORE.norm>
-1.52683

>  <RMSD>
1.111

$$$$
ligand
 OpenBabel02271912153D
libRbt.so/2013.1/901 2013/11/27
 10 11  0  0  0  0  0  0  0  0999 V2000
    0.7658  -13.4526   12.2072 N   0  0  0  0  0  0  0  0  0  0  0  0
    1.6851  -13.5581   11.2721 C   0  0  0  0  0  0  0  0  0  0  0  0
    2.4301  -12.4289   10.9231 N   0  0  0  0  0  0  0  0  0  0  0  0
    2.2110  -11.2629   11.5261 C   0  0  0  0  0  0  0  0  0  0  0  0
    1.2862  -11.1596   12.4622 C   0  0  0  0  0  0  0  0  0  0  0  0
    0.5662  -12.2112   12.8063 C   0  0  0  0  0  0  0  0  0  0  0  0
   -0.2907  -12.0912   13.6707 O   0  0  0  0  0  0  0  0  0  0  0  0
    1.2654   -9.9056   12.9104 N   0  0  0  0  0  0  0  0  0  0  0  0
    2.1971   -9.2347   12.2424 C   0  0  0  0  0  0  0  0  0  0  0  0
    2.7794  -10.0761   11.3843 N   0  0  0  0  0  0  0  0  0  0  0  0
  1  2  1  0  0  0  0
  1  6  1  0  0  0  0
  2  3  2  0  0  0  0
  3  4  1  0  0  0  0
  4  5  2  0  0  0  0
  4 10  1  0  0  0  0
  5  6  1  0  0  0  0
  5  8  1  0  0  0  0
  6  7  2  0  0  0  0
  8  9  1  0  0  0  0
  9 10  2  0  0  0  0
M  END
>  <CHROM.1>
1.45515620,-11.55043958,12.16951981,-2.18661904,0.74235511,0.32553549

>  <Name>
ligand

>  <RI>
0

>  <Rbt.Current_Directory>
/home/itssahil/PROJECTS/Mol_Feturizer/Test_systems_manuscript/rnas/5c7w

>  <Rbt.Executable>
rbdock ($Id: //depot/dev/client3/rdock/2013.1/src/exe/rbdock.cxx#4 $)

>  <Rbt.Library>
libRbt.so (2013.1, Build901 2013/11/27)

>  <Rbt.Parameter_File>
/export/apps/rDock/src/rDock_2013.1_src/data/scripts/dock_solv.prm

>  <Rbt.Receptor>
prm/pocket_docking_5.prm

>  <SCORE>
-15.2649

>  <SCORE.INTER>
-15.2649

>  <SCORE.INTER.CONST>
1

>  <SCORE.INTER.POLAR>
0

>  <SCORE.INTER.ROT>
0

>  <SCORE.INTER.SOLV>
3.27312

>  <SCORE.INTER.VDW>
-14.8676

>  <SCORE.INTER.norm>
-1.52649

>  <SCORE.INTRA>
0

>  <SCORE.INTRA.DIHEDRAL>
0

>  <SCORE.INTRA.DIHEDRAL.0>
0

>  <SCORE.INTRA.POLAR>
0

>  <SCORE.INTRA.POLAR.0>
0

>  <SCORE.INTRA.REPUL>
0

>  <SCORE.INTRA.REPUL.0>
0

>  <SCORE.INTRA.SOLV>
0

>  <SCORE.INTRA.SOLV.lig_0>
-4.15853

>  <SCORE.INTRA.VDW>
0

>  <SCORE.INTRA.VDW.0>
0

>  <SCORE.INTRA.norm>
0

>  <SCORE.RESTR>
0

>  <SCORE.RESTR.CAVITY>
0

>  <SCORE.RESTR.norm>
0

>  <SCORE.SYSTEM>
0

>  <SCORE.SYSTEM.CONST>
0

>  <SCORE.SYSTEM.DIHEDRAL>
0

>  <SCORE.SYSTEM.SOLV>
0

>  <SCORE.SYSTEM.norm>
0

>  <SCORE.heavy>
10

>  <SCORE.norm>
-1.52649

>  <RMSD>
1.111

$$$$
ligand
 OpenBabel02271912153D
libRbt.so/2013.1/901 2013/11/27
 10 11  0  0  0  0  0  0  0  0999 V2000
    0.7720  -13.4510   12.2232 N   0  0  0  0  0  0  0  0  0  0  0  0
    1.6811  -13.5581   11.2784 C   0  0  0  0  0  0  0  0  0  0  0  0
    2.4211  -12.4291   10.9183 N   0  0  0  0  0  0  0  0  0  0  0  0
    2.2075  -11.2617   11.5208 C   0  0  0  0  0  0  0  0  0  0  0  0
    1.2929  -11.1569   12.4667 C   0  0  0  0  0  0  0  0  0  0  0  0
    0.5778  -12.2083   12.8214 C   0  0  0  0  0  0  0  0  0  0  0  0
   -0.2697  -12.0870   13.6949 O   0  0  0  0  0  0  0  0  0  0  0  0
    1.2758   -9.9018   12.9120 N   0  0  0  0  0  0  0  0  0  0  0  0
    2.1994   -9.2317   12.2320 C   0  0  0  0  0  0  0  0  0  0  0  0
    2.7731  -10.0747   11.3697 N   0  0  0  0  0  0  0  0  0  0  0  0
  1  2  1  0  0  0  0
  1  6  1  0  0  0  0
  2  3  2  0  0  0  0
  3  4  1  0  0  0  0
  4  5  2  0  0  0  0
  4 10  1  0  0  0  0
  5  6  1  0  0  0  0
  5  8  1  0  0  0  0
  6  7  2  0  0  0  0
  8  9  1  0  0  0  0
  9 10  2  0  0  0  0
M  END
>  <CHROM.1>
1.45904261,-11.54832875,12.17318415,-2.19015535,0.75308448,0.32539424

>  <Name>
ligand

>  <RI>
0

>  <Rbt.Current_Directory>
/home/itssahil/PROJECTS/Mol_Feturizer/Test_systems_manuscript/rnas/5c7w

>  <Rbt.Executable>
rbdock ($Id: //depot/dev/client3/rdock/2013.1/src/exe/rbdock.cxx#4 $)

>  <Rbt.Library>
libRbt.so (2013.1, Build901 2013/11/27)

>  <Rbt.Parameter_File>
/export/apps/rDock/src/rDock_2013.1_src/data/scripts/dock_solv.prm

>  <Rbt.Receptor>
prm/pocket_docking_6.prm

>  <SCORE>
-15.2692

>  <SCORE.INTER>
-15.2692

>  <SCORE.INTER.CONST>
1

>  <SCORE.INTER.POLAR>
0

>  <SCORE.INTER.ROT>
0

>  <SCORE.INTER.SOLV>
3.30142

>  <SCORE.INTER.VDW>
-14.88

>  <SCORE.INTER.norm>
-1.52692

>  <SCORE.INTRA>
0

>  <SCORE.INTRA.DIHEDRAL>
0

>  <SCORE.INTRA.DIHEDRAL.0>
0

>  <SCORE.INTRA.POLAR>
0

>  <SCORE.INTRA.POLAR.0>
0

>  <SCORE.INTRA.REPUL>
0

>  <SCORE.INTRA.REPUL.0>
0

>  <SCORE.INTRA.SOLV>
0

>  <SCORE.INTRA.SOLV.lig_0>
-4.15853

>  <SCORE.INTRA.VDW>
0

>  <SCORE.INTRA.VDW.0>
0

>  <SCORE.INTRA.norm>
0

>  <SCORE.RESTR>
0

>  <SCORE.RESTR.CAVITY>
0

>  <SCORE.RESTR.norm>
0

>  <SCORE.SYSTEM>
0

>  <SCORE.SYSTEM.CONST>
0

>  <SCORE.SYSTEM.DIHEDRAL>
0

>  <SCORE.SYSTEM.SOLV>
0

>  <SCORE.SYSTEM.norm>
0

>  <SCORE.heavy>
10

>  <SCORE.norm>
-1.52692

>  <RMSD>
1.111

$$$$
ligand
 OpenBabel02271912153D
libRbt.so/2013.1/901 2013/11/27
 10 11  0  0  0  0  0  0  0  0999 V2000
    0.7425  -13.4473   12.1793 N   0  0  0  0  0  0  0  0  0  0  0  0
    1.6505  -13.5483   11.2327 C   0  0  0  0  0  0  0  0  0  0  0  0
    2.4007  -12.4207   10.8897 N   0  0  0  0  0  0  0  0  0  0  0  0
    2.1980  -11.2607   11.5099 C   0  0  0  0  0  0  0  0  0  0  0  0
    1.2844  -11.1620   12.4576 C   0  0  0  0  0  0  0  0  0  0  0  0
    0.5597  -12.2121   12.7964 C   0  0  0  0  0  0  0  0  0  0  0  0
   -0.2865  -12.0963   13.6718 O   0  0  0  0  0  0  0  0  0  0  0  0
    1.2789   -9.9137   12.9219 N   0  0  0  0  0  0  0  0  0  0  0  0
    2.2086   -9.2418   12.2521 C   0  0  0  0  0  0  0  0  0  0  0  0
    2.7744  -10.0768   11.3768 N   0  0  0  0  0  0  0  0  0  0  0  0
  1  2  1  0  0  0  0
  1  6  1  0  0  0  0
  2  3  2  0  0  0  0
  3  4  1  0  0  0  0
  4  5  2  0  0  0  0
  4 10  1  0  0  0  0
  5  6  1  0  0  0  0
  5  8  1  0  0  0  0
  6  7  2  0  0  0  0
  8  9  1  0  0  0  0
  9 10  2  0  0  0  0
M  END
>  <CHROM.1>
1.44696854,-11.55040224,12.15806853,-2.20207266,0.75021077,0.34877259

>  <Name>
ligand

>  <RI>
0

>  <Rbt.Current_Directory>
/home/itssahil/PROJECTS/Mol_Feturizer/Test_systems_manuscript/rnas/5c7w

>  <Rbt.Executable>
rbdock ($Id: //depot/dev/client3/rdock/2013.1/src/exe/rbdock.cxx#4 $)

>  <Rbt.Library>
libRbt.so (2013.1, Build901 2013/11/27)

>  <Rbt.Parameter_File>
/export/apps/rDock/src/rDock_2013.1_src/data/scripts/dock_solv.prm

>  <Rbt.Receptor>
prm/pocket_docking_6.prm

>  <SCORE>
-15.2106

>  <SCORE.INTER>
-15.2106

>  <SCORE.INTER.CONST>
1

>  <SCORE.INTER.POLAR>
0

>  <SCORE.INTER.ROT>
0

>  <SCORE.INTER.SOLV>
3.28333

>  <SCORE.INTER.VDW>
-14.8349

>  <SCORE.INTER.norm>
-1.52106

>  <SCORE.INTRA>
0

>  <SCORE.INTRA.DIHEDRAL>
0

>  <SCORE.INTRA.DIHEDRAL.0>
0

>  <SCORE.INTRA.POLAR>
0

>  <SCORE.INTRA.POLAR.0>
0

>  <SCORE.INTRA.REPUL>
0

>  <SCORE.INTRA.REPUL.0>
0

>  <SCORE.INTRA.SOLV>
0

>  <SCORE.INTRA.SOLV.lig_0>
-4.15853

>  <SCORE.INTRA.VDW>
0

>  <SCORE.INTRA.VDW.0>
0

>  <SCORE.INTRA.norm>
0

>  <SCORE.RESTR>
0

>  <SCORE.RESTR.CAVITY>
0

>  <SCORE.RESTR.norm>
0

>  <SCORE.SYSTEM>
0

>  <SCORE.SYSTEM.CONST>
0

>  <SCORE.SYSTEM.DIHEDRAL>
0

>  <SCORE.SYSTEM.SOLV>
0

>  <SCORE.SYSTEM.norm>
0

>  <SCORE.heavy>
10

>  <SCORE.norm>
-1.52106

>  <RMSD>
1.111

$$$$
ligand
 OpenBabel02271912153D
libRbt.so/2013.1/901 2013/11/27
 10 11  0  0  0  0  0  0  0  0999 V2000
    0.7740  -13.4531   12.2211 N   0  0  0  0  0  0  0  0  0  0  0  0
    1.6890  -13.5578   11.2818 C   0  0  0  0  0  0  0  0  0  0  0  0
    2.4265  -12.4262   10.9244 N   0  0  0  0  0  0  0  0  0  0  0  0
    2.2046  -11.2589   11.5239 C   0  0  0  0  0  0  0  0  0  0  0  0
    1.2841  -11.1565   12.4643 C   0  0  0  0  0  0  0  0  0  0  0  0
    0.5711  -12.2103   12.8163 C   0  0  0  0  0  0  0  0  0  0  0  0
   -0.2819  -12.0912   13.6846 O   0  0  0  0  0  0  0  0  0  0  0  0
    1.2592   -9.9008   12.9076 N   0  0  0  0  0  0  0  0  0  0  0  0
    2.1841   -9.2279   12.2321 C   0  0  0  0  0  0  0  0  0  0  0  0
    2.7662  -10.0698   11.3744 N   0  0  0  0  0  0  0  0  0  0  0  0
  1  2  1  0  0  0  0
  1  6  1  0  0  0  0
  2  3  2  0  0  0  0
  3  4  1  0  0  0  0
  4  5  2  0  0  0  0
  4 10  1  0  0  0  0
  5  6  1  0  0  0  0
  5  8  1  0  0  0  0
  6  7  2  0  0  0  0
  8  9  1  0  0  0  0
  9 10  2  0  0  0  0
M  END
>  <CHROM.1>
1.45351450,-11.54763688,12.17231995,-2.18231024,0.74880287,0.31859095

>  <Name>
ligand

>  <RI>
0

>  <Rbt.Current_Directory>
/home/itssahil/PROJECTS/Mol_Feturizer/Test_systems_manuscript/rnas/5c7w

>  <Rbt.Executable>
rbdock ($Id: //depot/dev/client3/rdock/2013.1/src/exe/rbdock.cxx#4 $)

>  <Rbt.Library>
libRbt.so (2013.1, Build901 2013/11/27)

>  <Rbt.Parameter_File>
/export/apps/rDock/src/rDock_2013.1_src/data/scripts/dock_solv.prm

>  <Rbt.Receptor>
prm/pocket_docking_7.prm

>  <SCORE>
-15.2673

>  <SCORE.INTER>
-15.2673

>  <SCORE.INTER.CONST>
1

>  <SCORE.INTER.POLAR>
0

>  <SCORE.INTER.ROT>
0

>  <SCORE.INTER.SOLV>
3.29283

>  <SCORE.INTER.VDW>
-14.8758

>  <SCORE.INTER.norm>
-1.52673

>  <SCORE.INTRA>
0

>  <SCORE.INTRA.DIHEDRAL>
0

>  <SCORE.INTRA.DIHEDRAL.0>
0

>  <SCORE.INTRA.POLAR>
0

>  <SCORE.INTRA.POLAR.0>
0

>  <SCORE.INTRA.REPUL>
0

>  <SCORE.INTRA.REPUL.0>
0

>  <SCORE.INTRA.SOLV>
0

>  <SCORE.INTRA.SOLV.lig_0>
-4.15853

>  <SCORE.INTRA.VDW>
0

>  <SCORE.INTRA.VDW.0>
0

>  <SCORE.INTRA.norm>
0

>  <SCORE.RESTR>
0

>  <SCORE.RESTR.CAVITY>
0

>  <SCORE.RESTR.norm>
0

>  <SCORE.SYSTEM>
0

>  <SCORE.SYSTEM.CONST>
0

>  <SCORE.SYSTEM.DIHEDRAL>
0

>  <SCORE.SYSTEM.SOLV>
0

>  <SCORE.SYSTEM.norm>
0

>  <SCORE.heavy>
10

>  <SCORE.norm>
-1.52673

>  <RMSD>
1.111

$$$$
ligand
 OpenBabel02271912153D
libRbt.so/2013.1/901 2013/11/27
 10 11  0  0  0  0  0  0  0  0999 V2000
    0.7635  -13.4441   12.2094 N   0  0  0  0  0  0  0  0  0  0  0  0
    1.7030  -13.5485   11.2945 C   0  0  0  0  0  0  0  0  0  0  0  0
    2.4563  -12.4192   10.9641 N   0  0  0  0  0  0  0  0  0  0  0  0
    2.2250  -11.2542   11.5646 C   0  0  0  0  0  0  0  0  0  0  0  0
    1.2800  -11.1521   12.4805 C   0  0  0  0  0  0  0  0  0  0  0  0
    0.5518  -12.2038   12.8066 C   0  0  0  0  0  0  0  0  0  0  0  0
   -0.3237  -12.0849   13.6524 O   0  0  0  0  0  0  0  0  0  0  0  0
    1.2504   -9.8990   12.9308 N   0  0  0  0  0  0  0  0  0  0  0  0
    2.1969   -9.2274   12.2847 C   0  0  0  0  0  0  0  0  0  0  0  0
    2.7972  -10.0676   11.4377 N   0  0  0  0  0  0  0  0  0  0  0  0
  1  2  1  0  0  0  0
  1  6  1  0  0  0  0
  2  3  2  0  0  0  0
  3  4  1  0  0  0  0
  4  5  2  0  0  0  0
  4 10  1  0  0  0  0
  5  6  1  0  0  0  0
  5  8  1  0  0  0  0
  6  7  2  0  0  0  0
  8  9  1  0  0  0  0
  9 10  2  0  0  0  0
M  END
>  <CHROM.1>
1.45501415,-11.54247134,12.19078212,-2.17827379,0.72137120,0.32200762

>  <Name>
ligand

>  <RI>
0

>  <Rbt.Current_Directory>
/home/itssahil/PROJECTS/Mol_Feturizer/Test_systems_manuscript/rnas/5c7w

>  <Rbt.Executable>
rbdock ($Id: //depot/dev/client3/rdock/2013.1/src/exe/rbdock.cxx#4 $)

>  <Rbt.Library>
libRbt.so (2013.1, Build901 2013/11/27)

>  <Rbt.Parameter_File>
/export/apps/rDock/src/rDock_2013.1_src/data/scripts/dock_solv.prm

>  <Rbt.Receptor>
prm/pocket_docking_7.prm

>  <SCORE>
-15.2295

>  <SCORE.INTER>
-15.2295

>  <SCORE.INTER.CONST>
1

>  <SCORE.INTER.POLAR>
0

>  <SCORE.INTER.ROT>
0

>  <SCORE.INTER.SOLV>
3.23179

>  <SCORE.INTER.VDW>
-14.8303

>  <SCORE.INTER.norm>
-1.52295

>  <SCORE.INTRA>
0

>  <SCORE.INTRA.DIHEDRAL>
0

>  <SCORE.INTRA.DIHEDRAL.0>
0

>  <SCORE.INTRA.POLAR>
0

>  <SCORE.INTRA.POLAR.0>
0

>  <SCORE.INTRA.REPUL>
0

>  <SCORE.INTRA.REPUL.0>
0

>  <SCORE.INTRA.SOLV>
0

>  <SCORE.INTRA.SOLV.lig_0>
-4.15853

>  <SCORE.INTRA.VDW>
0

>  <SCORE.INTRA.VDW.0>
0

>  <SCORE.INTRA.norm>
0

>  <SCORE.RESTR>
0

>  <SCORE.RESTR.CAVITY>
0

>  <SCORE.RESTR.norm>
0

>  <SCORE.SYSTEM>
0

>  <SCORE.SYSTEM.CONST>
0

>  <SCORE.SYSTEM.DIHEDRAL>
0

>  <SCORE.SYSTEM.SOLV>
0

>  <SCORE.SYSTEM.norm>
0

>  <SCORE.heavy>
10

>  <SCORE.norm>
-1.52295

>  <RMSD>
1.111

$$$$
ligand
 OpenBabel02271912153D
libRbt.so/2013.1/901 2013/11/27
 10 11  0  0  0  0  0  0  0  0999 V2000
    0.7660  -13.4535   12.2103 N   0  0  0  0  0  0  0  0  0  0  0  0
    1.6815  -13.5575   11.2713 C   0  0  0  0  0  0  0  0  0  0  0  0
    2.4233  -12.4271   10.9194 N   0  0  0  0  0  0  0  0  0  0  0  0
    2.2051  -11.2615   11.5235 C   0  0  0  0  0  0  0  0  0  0  0  0
    1.2841  -11.1598   12.4636 C   0  0  0  0  0  0  0  0  0  0  0  0
    0.5671  -12.2125   12.8105 C   0  0  0  0  0  0  0  0  0  0  0  0
   -0.2863  -12.0940   13.6786 O   0  0  0  0  0  0  0  0  0  0  0  0
    1.2633   -9.9059   12.9121 N   0  0  0  0  0  0  0  0  0  0  0  0
    2.1912   -9.2334   12.2403 C   0  0  0  0  0  0  0  0  0  0  0  0
    2.7711  -10.0739   11.3795 N   0  0  0  0  0  0  0  0  0  0  0  0
  1  2  1  0  0  0  0
  1  6  1  0  0  0  0
  2  3  2  0  0  0  0
  3  4  1  0  0  0  0
  4  5  2  0  0  0  0
  4 10  1  0  0  0  0
  5  6  1  0  0  0  0
  5  8  1  0  0  0  0
  6  7  2  0  0  0  0
  8  9  1  0  0  0  0
  9 10  2  0  0  0  0
M  END
>  <CHROM.1>
1.45240828,-11.55031184,12.17009243,-2.18654398,0.74683406,0.32565833

>  <Name>
ligand

>  <RI>
0

>  <Rbt.Current_Directory>
/home/itssahil/PROJECTS/Mol_Feturizer/Test_systems_manuscript/rnas/5c7w

>  <Rbt.Executable>
rbdock ($Id: //depot/dev/client3/rdock/2013.1/src/exe/rbdock.cxx#4 $)

>  <Rbt.Library>
libRbt.so (2013.1, Build901 2013/11/27)

>  <Rbt.Parameter_File>
/export/apps/rDock/src/rDock_2013.1_src/data/scripts/dock_solv.prm

>  <Rbt.Receptor>
prm/pocket_docking_7.prm

>  <SCORE>
-15.2671

>  <SCORE.INTER>
-15.2671

>  <SCORE.INTER.CONST>
1

>  <SCORE.INTER.POLAR>
0

>  <SCORE.INTER.ROT>
0

>  <SCORE.INTER.SOLV>
3.28617

>  <SCORE.INTER.VDW>
-14.8735

>  <SCORE.INTER.norm>
-1.52671

>  <SCORE.INTRA>
0

>  <SCORE.INTRA.DIHEDRAL>
0

>  <SCORE.INTRA.DIHEDRAL.0>
0

>  <SCORE.INTRA.POLAR>
0

>  <SCORE.INTRA.POLAR.0>
0

>  <SCORE.INTRA.REPUL>
0

>  <SCORE.INTRA.REPUL.0>
0

>  <SCORE.INTRA.SOLV>
0

>  <SCORE.INTRA.SOLV.lig_0>
-4.15853

>  <SCORE.INTRA.VDW>
0

>  <SCORE.INTRA.VDW.0>
0

>  <SCORE.INTRA.norm>
0

>  <SCORE.RESTR>
0

>  <SCORE.RESTR.CAVITY>
0

>  <SCORE.RESTR.norm>
0

>  <SCORE.SYSTEM>
0

>  <SCORE.SYSTEM.CONST>
0

>  <SCORE.SYSTEM.DIHEDRAL>
0

>  <SCORE.SYSTEM.SOLV>
0

>  <SCORE.SYSTEM.norm>
0

>  <SCORE.heavy>
10

>  <SCORE.norm>
-1.52671

>  <RMSD>
1.111

$$$$
ligand
 OpenBabel02271912153D
libRbt.so/2013.1/901 2013/11/27
 10 11  0  0  0  0  0  0  0  0999 V2000
    0.7702  -13.4448   12.2186 N   0  0  0  0  0  0  0  0  0  0  0  0
    1.6836  -13.5521   11.2780 C   0  0  0  0  0  0  0  0  0  0  0  0
    2.4250  -12.4230   10.9208 N   0  0  0  0  0  0  0  0  0  0  0  0
    2.2085  -11.2555   11.5219 C   0  0  0  0  0  0  0  0  0  0  0  0
    1.2896  -11.1505   12.4636 C   0  0  0  0  0  0  0  0  0  0  0  0
    0.5730  -12.2019   12.8154 C   0  0  0  0  0  0  0  0  0  0  0  0
   -0.2785  -12.0804   13.6849 O   0  0  0  0  0  0  0  0  0  0  0  0
    1.2702   -9.8952   12.9082 N   0  0  0  0  0  0  0  0  0  0  0  0
    2.1968   -9.2251   12.2323 C   0  0  0  0  0  0  0  0  0  0  0  0
    2.7746  -10.0684   11.3729 N   0  0  0  0  0  0  0  0  0  0  0  0
  1  2  1  0  0  0  0
  1  6  1  0  0  0  0
  2  3  2  0  0  0  0
  3  4  1  0  0  0  0
  4  5  2  0  0  0  0
  4 10  1  0  0  0  0
  5  6  1  0  0  0  0
  5  8  1  0  0  0  0
  6  7  2  0  0  0  0
  8  9  1  0  0  0  0
  9 10  2  0  0  0  0
M  END
>  <CHROM.1>
1.45711714,-11.54198358,12.17095720,-2.18791096,0.74880728,0.32347659

>  <Name>
ligand

>  <RI>
0

>  <Rbt.Current_Directory>
/home/itssahil/PROJECTS/Mol_Feturizer/Test_systems_manuscript/rnas/5c7w

>  <Rbt.Executable>
rbdock ($Id: //depot/dev/client3/rdock/2013.1/src/exe/rbdock.cxx#4 $)

>  <Rbt.Library>
libRbt.so (2013.1, Build901 2013/11/27)

>  <Rbt.Parameter_File>
/export/apps/rDock/src/rDock_2013.1_src/data/scripts/dock_solv.prm

>  <Rbt.Receptor>
prm/pocket_docking_7.prm

>  <SCORE>
-15.2685

>  <SCORE.INTER>
-15.2685

>  <SCORE.INTER.CONST>
1

>  <SCORE.INTER.POLAR>
0

>  <SCORE.INTER.ROT>
0

>  <SCORE.INTER.SOLV>
3.28716

>  <SCORE.INTER.VDW>
-14.8747

>  <SCORE.INTER.norm>
-1.52685

>  <SCORE.INTRA>
0

>  <SCORE.INTRA.DIHEDRAL>
0

>  <SCORE.INTRA.DIHEDRAL.0>
0

>  <SCORE.INTRA.POLAR>
0

>  <SCORE.INTRA.POLAR.0>
0

>  <SCORE.INTRA.REPUL>
0

>  <SCORE.INTRA.REPUL.0>
0

>  <SCORE.INTRA.SOLV>
0

>  <SCORE.INTRA.SOLV.lig_0>
-4.15853

>  <SCORE.INTRA.VDW>
0

>  <SCORE.INTRA.VDW.0>
0

>  <SCORE.INTRA.norm>
0

>  <SCORE.RESTR>
0

>  <SCORE.RESTR.CAVITY>
0

>  <SCORE.RESTR.norm>
0

>  <SCORE.SYSTEM>
0

>  <SCORE.SYSTEM.CONST>
0

>  <SCORE.SYSTEM.DIHEDRAL>
0

>  <SCORE.SYSTEM.SOLV>
0

>  <SCORE.SYSTEM.norm>
0

>  <SCORE.heavy>
10

>  <SCORE.norm>
-1.52685

>  <RMSD>
1.111

$$$$
ligand
 OpenBabel02271912153D
libRbt.so/2013.1/901 2013/11/27
 10 11  0  0  0  0  0  0  0  0999 V2000
    0.7661  -13.4471   12.2094 N   0  0  0  0  0  0  0  0  0  0  0  0
    1.6841  -13.5556   11.2733 C   0  0  0  0  0  0  0  0  0  0  0  0
    2.4325  -12.4289   10.9238 N   0  0  0  0  0  0  0  0  0  0  0  0
    2.2181  -11.2623   11.5273 C   0  0  0  0  0  0  0  0  0  0  0  0
    1.2946  -11.1560   12.4644 C   0  0  0  0  0  0  0  0  0  0  0  0
    0.5713  -12.2052   12.8090 C   0  0  0  0  0  0  0  0  0  0  0  0
   -0.2843  -12.0824   13.6743 O   0  0  0  0  0  0  0  0  0  0  0  0
    1.2786   -9.9021   12.9129 N   0  0  0  0  0  0  0  0  0  0  0  0
    2.2119   -9.2341   12.2441 C   0  0  0  0  0  0  0  0  0  0  0  0
    2.7904  -10.0774   11.3852 N   0  0  0  0  0  0  0  0  0  0  0  0
  1  2  1  0  0  0  0
  1  6  1  0  0  0  0
  2  3  2  0  0  0  0
  3  4  1  0  0  0  0
  4  5  2  0  0  0  0
  4 10  1  0  0  0  0
  5  6  1  0  0  0  0
  5  8  1  0  0  0  0
  6  7  2  0  0  0  0
  8  9  1  0  0  0  0
  9 10  2  0  0  0  0
M  END
>  <CHROM.1>
1.46192267,-11.54733453,12.17141910,-2.19148216,0.74219972,0.32903710

>  <Name>
ligand

>  <RI>
0

>  <Rbt.Current_Directory>
/home/itssahil/PROJECTS/Mol_Feturizer/Test_systems_manuscript/rnas/5c7w

>  <Rbt.Executable>
rbdock ($Id: //depot/dev/client3/rdock/2013.1/src/exe/rbdock.cxx#4 $)

>  <Rbt.Library>
libRbt.so (2013.1, Build901 2013/11/27)

>  <Rbt.Parameter_File>
/export/apps/rDock/src/rDock_2013.1_src/data/scripts/dock_solv.prm

>  <Rbt.Receptor>
prm/blind_docking_100.prm

>  <SCORE>
-15.2642

>  <SCORE.INTER>
-15.2642

>  <SCORE.INTER.CONST>
1

>  <SCORE.INTER.POLAR>
0

>  <SCORE.INTER.ROT>
0

>  <SCORE.INTER.SOLV>
3.26968

>  <SCORE.INTER.VDW>
-14.866

>  <SCORE.INTER.norm>
-1.52642

>  <SCORE.INTRA>
0

>  <SCORE.INTRA.DIHEDRAL>
0

>  <SCORE.INTRA.DIHEDRAL.0>
0

>  <SCORE.INTRA.POLAR>
0

>  <SCORE.INTRA.POLAR.0>
0

>  <SCORE.INTRA.REPUL>
0

>  <SCORE.INTRA.REPUL.0>
0

>  <SCORE.INTRA.SOLV>
0

>  <SCORE.INTRA.SOLV.lig_0>
-4.15853

>  <SCORE.INTRA.VDW>
0

>  <SCORE.INTRA.VDW.0>
0

>  <SCORE.INTRA.norm>
0

>  <SCORE.RESTR>
0

>  <SCORE.RESTR.CAVITY>
0

>  <SCORE.RESTR.norm>
0

>  <SCORE.SYSTEM>
0

>  <SCORE.SYSTEM.CONST>
0

>  <SCORE.SYSTEM.DIHEDRAL>
0

>  <SCORE.SYSTEM.SOLV>
0

>  <SCORE.SYSTEM.norm>
0

>  <SCORE.heavy>
10

>  <SCORE.norm>
-1.52642

>  <RMSD>
1.112

$$$$
ligand
 OpenBabel02271912153D
libRbt.so/2013.1/901 2013/11/27
 10 11  0  0  0  0  0  0  0  0999 V2000
    0.7585  -13.4642   12.1963 N   0  0  0  0  0  0  0  0  0  0  0  0
    1.6947  -13.5595   11.2769 C   0  0  0  0  0  0  0  0  0  0  0  0
    2.4419  -12.4251   10.9501 N   0  0  0  0  0  0  0  0  0  0  0  0
    2.2082  -11.2646   11.5582 C   0  0  0  0  0  0  0  0  0  0  0  0
    1.2665  -11.1717   12.4784 C   0  0  0  0  0  0  0  0  0  0  0  0
    0.5440  -12.2282   12.8014 C   0  0  0  0  0  0  0  0  0  0  0  0
   -0.3285  -12.1178   13.6513 O   0  0  0  0  0  0  0  0  0  0  0  0
    1.2335   -9.9213   12.9359 N   0  0  0  0  0  0  0  0  0  0  0  0
    2.1746   -9.2421   12.2899 C   0  0  0  0  0  0  0  0  0  0  0  0
    2.7750  -10.0749   11.4358 N   0  0  0  0  0  0  0  0  0  0  0  0
  1  2  1  0  0  0  0
  1  6  1  0  0  0  0
  2  3  2  0  0  0  0
  3  4  1  0  0  0  0
  4  5  2  0  0  0  0
  4 10  1  0  0  0  0
  5  6  1  0  0  0  0
  5  8  1  0  0  0  0
  6  7  2  0  0  0  0
  8  9  1  0  0  0  0
  9 10  2  0  0  0  0
M  END
>  <CHROM.1>
1.44198205,-11.55960730,12.18573130,-2.17470471,0.72651914,0.32536639

>  <Name>
ligand

>  <RI>
0

>  <Rbt.Current_Directory>
/home/itssahil/PROJECTS/Mol_Feturizer/Test_systems_manuscript/rnas/5c7w

>  <Rbt.Executable>
rbdock ($Id: //depot/dev/client3/rdock/2013.1/src/exe/rbdock.cxx#4 $)

>  <Rbt.Library>
libRbt.so (2013.1, Build901 2013/11/27)

>  <Rbt.Parameter_File>
/export/apps/rDock/src/rDock_2013.1_src/data/scripts/dock_solv.prm

>  <Rbt.Receptor>
prm/blind_docking_100.prm

>  <SCORE>
-15.2445

>  <SCORE.INTER>
-15.2445

>  <SCORE.INTER.CONST>
1

>  <SCORE.INTER.POLAR>
0

>  <SCORE.INTER.ROT>
0

>  <SCORE.INTER.SOLV>
3.25298

>  <SCORE.INTER.VDW>
-14.8474

>  <SCORE.INTER.norm>
-1.52445

>  <SCORE.INTRA>
0

>  <SCORE.INTRA.DIHEDRAL>
0

>  <SCORE.INTRA.DIHEDRAL.0>
0

>  <SCORE.INTRA.POLAR>
0

>  <SCORE.INTRA.POLAR.0>
0

>  <SCORE.INTRA.REPUL>
0

>  <SCORE.INTRA.REPUL.0>
0

>  <SCORE.INTRA.SOLV>
0

>  <SCORE.INTRA.SOLV.lig_0>
-4.15853

>  <SCORE.INTRA.VDW>
0

>  <SCORE.INTRA.VDW.0>
0

>  <SCORE.INTRA.norm>
0

>  <SCORE.RESTR>
0

>  <SCORE.RESTR.CAVITY>
0

>  <SCORE.RESTR.norm>
0

>  <SCORE.SYSTEM>
0

>  <SCORE.SYSTEM.CONST>
0

>  <SCORE.SYSTEM.DIHEDRAL>
0

>  <SCORE.SYSTEM.SOLV>
0

>  <SCORE.SYSTEM.norm>
0

>  <SCORE.heavy>
10

>  <SCORE.norm>
-1.52445

>  <RMSD>
1.112

$$$$
ligand
 OpenBabel02271912153D
libRbt.so/2013.1/901 2013/11/27
 10 11  0  0  0  0  0  0  0  0999 V2000
    0.7758  -13.4541   12.2227 N   0  0  0  0  0  0  0  0  0  0  0  0
    1.6866  -13.5577   11.2791 C   0  0  0  0  0  0  0  0  0  0  0  0
    2.4217  -12.4254   10.9191 N   0  0  0  0  0  0  0  0  0  0  0  0
    2.2019  -11.2586   11.5203 C   0  0  0  0  0  0  0  0  0  0  0  0
    1.2855  -11.1574   12.4650 C   0  0  0  0  0  0  0  0  0  0  0  0
    0.5749  -12.2118   12.8196 C   0  0  0  0  0  0  0  0  0  0  0  0
   -0.2743  -12.0938   13.6918 O   0  0  0  0  0  0  0  0  0  0  0  0
    1.2619   -9.9020   12.9092 N   0  0  0  0  0  0  0  0  0  0  0  0
    2.1833   -9.2281   12.2299 C   0  0  0  0  0  0  0  0  0  0  0  0
    2.7621  -10.0691   11.3690 N   0  0  0  0  0  0  0  0  0  0  0  0
  1  2  1  0  0  0  0
  1  6  1  0  0  0  0
  2  3  2  0  0  0  0
  3  4  1  0  0  0  0
  4  5  2  0  0  0  0
  4 10  1  0  0  0  0
  5  6  1  0  0  0  0
  5  8  1  0  0  0  0
  6  7  2  0  0  0  0
  8  9  1  0  0  0  0
  9 10  2  0  0  0  0
M  END
>  <CHROM.1>
1.45390576,-11.54823998,12.17196895,-2.18346026,0.75332596,0.32000363

>  <Name>
ligand

>  <RI>
0

>  <Rbt.Current_Directory>
/home/itssahil/PROJECTS/Mol_Feturizer/Test_systems_manuscript/rnas/5c7w

>  <Rbt.Executable>
rbdock ($Id: //depot/dev/client3/rdock/2013.1/src/exe/rbdock.cxx#4 $)

>  <Rbt.Library>
libRbt.so (2013.1, Build901 2013/11/27)

>  <Rbt.Parameter_File>
/export/apps/rDock/src/rDock_2013.1_src/data/scripts/dock_solv.prm

>  <Rbt.Receptor>
prm/blind_docking_20.prm

>  <SCORE>
-15.2685

>  <SCORE.INTER>
-15.2685

>  <SCORE.INTER.CONST>
1

>  <SCORE.INTER.POLAR>
0

>  <SCORE.INTER.ROT>
0

>  <SCORE.INTER.SOLV>
3.30444

>  <SCORE.INTER.VDW>
-14.8805

>  <SCORE.INTER.norm>
-1.52685

>  <SCORE.INTRA>
0

>  <SCORE.INTRA.DIHEDRAL>
0

>  <SCORE.INTRA.DIHEDRAL.0>
0

>  <SCORE.INTRA.POLAR>
0

>  <SCORE.INTRA.POLAR.0>
0

>  <SCORE.INTRA.REPUL>
0

>  <SCORE.INTRA.REPUL.0>
0

>  <SCORE.INTRA.SOLV>
0

>  <SCORE.INTRA.SOLV.lig_0>
-4.15853

>  <SCORE.INTRA.VDW>
0

>  <SCORE.INTRA.VDW.0>
0

>  <SCORE.INTRA.norm>
0

>  <SCORE.RESTR>
0

>  <SCORE.RESTR.CAVITY>
0

>  <SCORE.RESTR.norm>
0

>  <SCORE.SYSTEM>
0

>  <SCORE.SYSTEM.CONST>
0

>  <SCORE.SYSTEM.DIHEDRAL>
0

>  <SCORE.SYSTEM.SOLV>
0

>  <SCORE.SYSTEM.norm>
0

>  <SCORE.heavy>
10

>  <SCORE.norm>
-1.52685

>  <RMSD>
1.112

$$$$
ligand
 OpenBabel02271912153D
libRbt.so/2013.1/901 2013/11/27
 10 11  0  0  0  0  0  0  0  0999 V2000
    0.7741  -13.4522   12.2213 N   0  0  0  0  0  0  0  0  0  0  0  0
    1.6844  -13.5570   11.2774 C   0  0  0  0  0  0  0  0  0  0  0  0
    2.4218  -12.4261   10.9179 N   0  0  0  0  0  0  0  0  0  0  0  0
    2.2045  -11.2592   11.5200 C   0  0  0  0  0  0  0  0  0  0  0  0
    1.2887  -11.1567   12.4650 C   0  0  0  0  0  0  0  0  0  0  0  0
    0.5760  -12.2099   12.8191 C   0  0  0  0  0  0  0  0  0  0  0  0
   -0.2727  -12.0906   13.6917 O   0  0  0  0  0  0  0  0  0  0  0  0
    1.2679   -9.9015   12.9100 N   0  0  0  0  0  0  0  0  0  0  0  0
    2.1905   -9.2291   12.2309 C   0  0  0  0  0  0  0  0  0  0  0  0
    2.7672  -10.0708   11.3693 N   0  0  0  0  0  0  0  0  0  0  0  0
  1  2  1  0  0  0  0
  1  6  1  0  0  0  0
  2  3  2  0  0  0  0
  3  4  1  0  0  0  0
  4  5  2  0  0  0  0
  4 10  1  0  0  0  0
  5  6  1  0  0  0  0
  5  8  1  0  0  0  0
  6  7  2  0  0  0  0
  8  9  1  0  0  0  0
  9 10  2  0  0  0  0
M  END
>  <CHROM.1>
1.45620056,-11.54767196,12.17167806,-2.18632838,0.75297597,0.32262865

>  <Name>
ligand

>  <RI>
0

>  <Rbt.Current_Directory>
/home/itssahil/PROJECTS/Mol_Feturizer/Test_systems_manuscript/rnas/5c7w

>  <Rbt.Executable>
rbdock ($Id: //depot/dev/client3/rdock/2013.1/src/exe/rbdock.cxx#4 $)

>  <Rbt.Library>
libRbt.so (2013.1, Build901 2013/11/27)

>  <Rbt.Parameter_File>
/export/apps/rDock/src/rDock_2013.1_src/data/scripts/dock_solv.prm

>  <Rbt.Receptor>
prm/blind_docking_20.prm

>  <SCORE>
-15.2694

>  <SCORE.INTER>
-15.2694

>  <SCORE.INTER.CONST>
1

>  <SCORE.INTER.POLAR>
0

>  <SCORE.INTER.ROT>
0

>  <SCORE.INTER.SOLV>
3.30171

>  <SCORE.INTER.VDW>
-14.8801

>  <SCORE.INTER.norm>
-1.52694

>  <SCORE.INTRA>
0

>  <SCORE.INTRA.DIHEDRAL>
0

>  <SCORE.INTRA.DIHEDRAL.0>
0

>  <SCORE.INTRA.POLAR>
0

>  <SCORE.INTRA.POLAR.0>
0

>  <SCORE.INTRA.REPUL>
0

>  <SCORE.INTRA.REPUL.0>
0

>  <SCORE.INTRA.SOLV>
0

>  <SCORE.INTRA.SOLV.lig_0>
-4.15853

>  <SCORE.INTRA.VDW>
0

>  <SCORE.INTRA.VDW.0>
0

>  <SCORE.INTRA.norm>
0

>  <SCORE.RESTR>
0

>  <SCORE.RESTR.CAVITY>
0

>  <SCORE.RESTR.norm>
0

>  <SCORE.SYSTEM>
0

>  <SCORE.SYSTEM.CONST>
0

>  <SCORE.SYSTEM.DIHEDRAL>
0

>  <SCORE.SYSTEM.SOLV>
0

>  <SCORE.SYSTEM.norm>
0

>  <SCORE.heavy>
10

>  <SCORE.norm>
-1.52694

>  <RMSD>
1.112

$$$$
ligand
 OpenBabel02271912153D
libRbt.so/2013.1/901 2013/11/27
 10 11  0  0  0  0  0  0  0  0999 V2000
    0.7701  -13.4500   12.2163 N   0  0  0  0  0  0  0  0  0  0  0  0
    1.6832  -13.5561   11.2752 C   0  0  0  0  0  0  0  0  0  0  0  0
    2.4246  -12.4268   10.9193 N   0  0  0  0  0  0  0  0  0  0  0  0
    2.2085  -11.2600   11.5219 C   0  0  0  0  0  0  0  0  0  0  0  0
    1.2899  -11.1561   12.4641 C   0  0  0  0  0  0  0  0  0  0  0  0
    0.5733  -12.2078   12.8148 C   0  0  0  0  0  0  0  0  0  0  0  0
   -0.2779  -12.0873   13.6848 O   0  0  0  0  0  0  0  0  0  0  0  0
    1.2709   -9.9014   12.9104 N   0  0  0  0  0  0  0  0  0  0  0  0
    2.1974   -9.2306   12.2350 C   0  0  0  0  0  0  0  0  0  0  0  0
    2.7747  -10.0728   11.3743 N   0  0  0  0  0  0  0  0  0  0  0  0
  1  2  1  0  0  0  0
  1  6  1  0  0  0  0
  2  3  2  0  0  0  0
  3  4  1  0  0  0  0
  4  5  2  0  0  0  0
  4 10  1  0  0  0  0
  5  6  1  0  0  0  0
  5  8  1  0  0  0  0
  6  7  2  0  0  0  0
  8  9  1  0  0  0  0
  9 10  2  0  0  0  0
M  END
>  <CHROM.1>
1.45729651,-11.54719682,12.17086321,-2.18828620,0.74909223,0.32503120

>  <Name>
ligand

>  <RI>
0

>  <Rbt.Current_Directory>
/home/itssahil/PROJECTS/Mol_Feturizer/Test_systems_manuscript/rnas/5c7w

>  <Rbt.Executable>
rbdock ($Id: //depot/dev/client3/rdock/2013.1/src/exe/rbdock.cxx#4 $)

>  <Rbt.Library>
libRbt.so (2013.1, Build901 2013/11/27)

>  <Rbt.Parameter_File>
/export/apps/rDock/src/rDock_2013.1_src/data/scripts/dock_solv.prm

>  <Rbt.Receptor>
prm/blind_docking_20.prm

>  <SCORE>
-15.269

>  <SCORE.INTER>
-15.269

>  <SCORE.INTER.CONST>
1

>  <SCORE.INTER.POLAR>
0

>  <SCORE.INTER.ROT>
0

>  <SCORE.INTER.SOLV>
3.28982

>  <SCORE.INTER.VDW>
-14.8759

>  <SCORE.INTER.norm>
-1.5269

>  <SCORE.INTRA>
0

>  <SCORE.INTRA.DIHEDRAL>
0

>  <SCORE.INTRA.DIHEDRAL.0>
0

>  <SCORE.INTRA.POLAR>
0

>  <SCORE.INTRA.POLAR.0>
0

>  <SCORE.INTRA.REPUL>
0

>  <SCORE.INTRA.REPUL.0>
0

>  <SCORE.INTRA.SOLV>
0

>  <SCORE.INTRA.SOLV.lig_0>
-4.15853

>  <SCORE.INTRA.VDW>
0

>  <SCORE.INTRA.VDW.0>
0

>  <SCORE.INTRA.norm>
0

>  <SCORE.RESTR>
0

>  <SCORE.RESTR.CAVITY>
0

>  <SCORE.RESTR.norm>
0

>  <SCORE.SYSTEM>
0

>  <SCORE.SYSTEM.CONST>
0

>  <SCORE.SYSTEM.DIHEDRAL>
0

>  <SCORE.SYSTEM.SOLV>
0

>  <SCORE.SYSTEM.norm>
0

>  <SCORE.heavy>
10

>  <SCORE.norm>
-1.5269

>  <RMSD>
1.112

$$$$
ligand
 OpenBabel02271912153D
libRbt.so/2013.1/901 2013/11/27
 10 11  0  0  0  0  0  0  0  0999 V2000
    0.7698  -13.4552   12.2133 N   0  0  0  0  0  0  0  0  0  0  0  0
    1.6845  -13.5594   11.2736 C   0  0  0  0  0  0  0  0  0  0  0  0
    2.4246  -12.4286   10.9194 N   0  0  0  0  0  0  0  0  0  0  0  0
    2.2055  -11.2624   11.5222 C   0  0  0  0  0  0  0  0  0  0  0  0
    1.2853  -11.1606   12.4630 C   0  0  0  0  0  0  0  0  0  0  0  0
    0.5699  -12.2137   12.8121 C   0  0  0  0  0  0  0  0  0  0  0  0
   -0.2828  -12.0950   13.6808 O   0  0  0  0  0  0  0  0  0  0  0  0
    1.2635   -9.9061   12.9099 N   0  0  0  0  0  0  0  0  0  0  0  0
    2.1898   -9.2334   12.2364 C   0  0  0  0  0  0  0  0  0  0  0  0
    2.7699  -10.0743   11.3761 N   0  0  0  0  0  0  0  0  0  0  0  0
  1  2  1  0  0  0  0
  1  6  1  0  0  0  0
  2  3  2  0  0  0  0
  3  4  1  0  0  0  0
  4  5  2  0  0  0  0
  4 10  1  0  0  0  0
  5  6  1  0  0  0  0
  5  8  1  0  0  0  0
  6  7  2  0  0  0  0
  8  9  1  0  0  0  0
  9 10  2  0  0  0  0
M  END
>  <CHROM.1>
1.45378959,-11.55126839,12.16991185,-2.18541232,0.74814123,0.32358223

>  <Name>
ligand

>  <RI>
0

>  <Rbt.Current_Directory>
/home/itssahil/PROJECTS/Mol_Feturizer/Test_systems_manuscript/rnas/5c7w

>  <Rbt.Executable>
rbdock ($Id: //depot/dev/client3/rdock/2013.1/src/exe/rbdock.cxx#4 $)

>  <Rbt.Library>
libRbt.so (2013.1, Build901 2013/11/27)

>  <Rbt.Parameter_File>
/export/apps/rDock/src/rDock_2013.1_src/data/scripts/dock_solv.prm

>  <Rbt.Receptor>
prm/blind_docking_20.prm

>  <SCORE>
-15.2683

>  <SCORE.INTER>
-15.2683

>  <SCORE.INTER.CONST>
1

>  <SCORE.INTER.POLAR>
0

>  <SCORE.INTER.ROT>
0

>  <SCORE.INTER.SOLV>
3.29001

>  <SCORE.INTER.VDW>
-14.8755

>  <SCORE.INTER.norm>
-1.52683

>  <SCORE.INTRA>
0

>  <SCORE.INTRA.DIHEDRAL>
0

>  <SCORE.INTRA.DIHEDRAL.0>
0

>  <SCORE.INTRA.POLAR>
0

>  <SCORE.INTRA.POLAR.0>
0

>  <SCORE.INTRA.REPUL>
0

>  <SCORE.INTRA.REPUL.0>
0

>  <SCORE.INTRA.SOLV>
0

>  <SCORE.INTRA.SOLV.lig_0>
-4.15853

>  <SCORE.INTRA.VDW>
0

>  <SCORE.INTRA.VDW.0>
0

>  <SCORE.INTRA.norm>
0

>  <SCORE.RESTR>
0

>  <SCORE.RESTR.CAVITY>
0

>  <SCORE.RESTR.norm>
0

>  <SCORE.SYSTEM>
0

>  <SCORE.SYSTEM.CONST>
0

>  <SCORE.SYSTEM.DIHEDRAL>
0

>  <SCORE.SYSTEM.SOLV>
0

>  <SCORE.SYSTEM.norm>
0

>  <SCORE.heavy>
10

>  <SCORE.norm>
-1.52683

>  <RMSD>
1.112

$$$$
ligand
 OpenBabel02271912153D
libRbt.so/2013.1/901 2013/11/27
 10 11  0  0  0  0  0  0  0  0999 V2000
    0.7766  -13.4482   12.2245 N   0  0  0  0  0  0  0  0  0  0  0  0
    1.6893  -13.5546   11.2831 C   0  0  0  0  0  0  0  0  0  0  0  0
    2.4274  -12.4242   10.9236 N   0  0  0  0  0  0  0  0  0  0  0  0
    2.2086  -11.2563   11.5231 C   0  0  0  0  0  0  0  0  0  0  0  0
    1.2903  -11.1523   12.4656 C   0  0  0  0  0  0  0  0  0  0  0  0
    0.5768  -12.2049   12.8197 C   0  0  0  0  0  0  0  0  0  0  0  0
   -0.2741  -12.0843   13.6899 O   0  0  0  0  0  0  0  0  0  0  0  0
    1.2683   -9.8964   12.9084 N   0  0  0  0  0  0  0  0  0  0  0  0
    2.1925   -9.2250   12.2305 C   0  0  0  0  0  0  0  0  0  0  0  0
    2.7715  -10.0681   11.3718 N   0  0  0  0  0  0  0  0  0  0  0  0
  1  2  1  0  0  0  0
  1  6  1  0  0  0  0
  2  3  2  0  0  0  0
  3  4  1  0  0  0  0
  4  5  2  0  0  0  0
  4 10  1  0  0  0  0
  5  6  1  0  0  0  0
  5  8  1  0  0  0  0
  6  7  2  0  0  0  0
  8  9  1  0  0  0  0
  9 10  2  0  0  0  0
M  END
>  <CHROM.1>
1.45859775,-11.54374600,12.17336121,-2.18507775,0.75058549,0.32006990

>  <Name>
ligand

>  <RI>
0

>  <Rbt.Current_Directory>
/home/itssahil/PROJECTS/Mol_Feturizer/Test_systems_manuscript/rnas/5c7w

>  <Rbt.Executable>
rbdock ($Id: //depot/dev/client3/rdock/2013.1/src/exe/rbdock.cxx#4 $)

>  <Rbt.Library>
libRbt.so (2013.1, Build901 2013/11/27)

>  <Rbt.Parameter_File>
/export/apps/rDock/src/rDock_2013.1_src/data/scripts/dock_solv.prm

>  <Rbt.Receptor>
prm/blind_docking_20.prm

>  <SCORE>
-15.2683

>  <SCORE.INTER>
-15.2683

>  <SCORE.INTER.CONST>
1

>  <SCORE.INTER.POLAR>
0

>  <SCORE.INTER.ROT>
0

>  <SCORE.INTER.SOLV>
3.29463

>  <SCORE.INTER.VDW>
-14.877

>  <SCORE.INTER.norm>
-1.52683

>  <SCORE.INTRA>
0

>  <SCORE.INTRA.DIHEDRAL>
0

>  <SCORE.INTRA.DIHEDRAL.0>
0

>  <SCORE.INTRA.POLAR>
0

>  <SCORE.INTRA.POLAR.0>
0

>  <SCORE.INTRA.REPUL>
0

>  <SCORE.INTRA.REPUL.0>
0

>  <SCORE.INTRA.SOLV>
0

>  <SCORE.INTRA.SOLV.lig_0>
-4.15853

>  <SCORE.INTRA.VDW>
0

>  <SCORE.INTRA.VDW.0>
0

>  <SCORE.INTRA.norm>
0

>  <SCORE.RESTR>
0

>  <SCORE.RESTR.CAVITY>
0

>  <SCORE.RESTR.norm>
0

>  <SCORE.SYSTEM>
0

>  <SCORE.SYSTEM.CONST>
0

>  <SCORE.SYSTEM.DIHEDRAL>
0

>  <SCORE.SYSTEM.SOLV>
0

>  <SCORE.SYSTEM.norm>
0

>  <SCORE.heavy>
10

>  <SCORE.norm>
-1.52683

>  <RMSD>
1.112

$$$$
ligand
 OpenBabel02271912153D
libRbt.so/2013.1/901 2013/11/27
 10 11  0  0  0  0  0  0  0  0999 V2000
    0.7716  -13.4547   12.2186 N   0  0  0  0  0  0  0  0  0  0  0  0
    1.6818  -13.5597   11.2746 C   0  0  0  0  0  0  0  0  0  0  0  0
    2.4215  -12.4296   10.9173 N   0  0  0  0  0  0  0  0  0  0  0  0
    2.2066  -11.2634   11.5214 C   0  0  0  0  0  0  0  0  0  0  0  0
    1.2908  -11.1607   12.4665 C   0  0  0  0  0  0  0  0  0  0  0  0
    0.5759  -12.2131   12.8186 C   0  0  0  0  0  0  0  0  0  0  0  0
   -0.2726  -12.0937   13.6913 O   0  0  0  0  0  0  0  0  0  0  0  0
    1.2725   -9.9063   12.9137 N   0  0  0  0  0  0  0  0  0  0  0  0
    2.1965   -9.2345   12.2360 C   0  0  0  0  0  0  0  0  0  0  0  0
    2.7716  -10.0758   11.3729 N   0  0  0  0  0  0  0  0  0  0  0  0
  1  2  1  0  0  0  0
  1  6  1  0  0  0  0
  2  3  2  0  0  0  0
  3  4  1  0  0  0  0
  4  5  2  0  0  0  0
  4 10  1  0  0  0  0
  5  6  1  0  0  0  0
  5  8  1  0  0  0  0
  6  7  2  0  0  0  0
  8  9  1  0  0  0  0
  9 10  2  0  0  0  0
M  END
>  <CHROM.1>
1.45753584,-11.55151897,12.17248388,-2.18888464,0.75220341,0.32616267

>  <Name>
ligand

>  <RI>
0

>  <Rbt.Current_Directory>
/home/itssahil/PROJECTS/Mol_Feturizer/Test_systems_manuscript/rnas/5c7w

>  <Rbt.Executable>
rbdock ($Id: //depot/dev/client3/rdock/2013.1/src/exe/rbdock.cxx#4 $)

>  <Rbt.Library>
libRbt.so (2013.1, Build901 2013/11/27)

>  <Rbt.Parameter_File>
/export/apps/rDock/src/rDock_2013.1_src/data/scripts/dock_solv.prm

>  <Rbt.Receptor>
prm/blind_docking_40.prm

>  <SCORE>
-15.2692

>  <SCORE.INTER>
-15.2692

>  <SCORE.INTER.CONST>
1

>  <SCORE.INTER.POLAR>
0

>  <SCORE.INTER.ROT>
0

>  <SCORE.INTER.SOLV>
3.30074

>  <SCORE.INTER.VDW>
-14.8797

>  <SCORE.INTER.norm>
-1.52692

>  <SCORE.INTRA>
0

>  <SCORE.INTRA.DIHEDRAL>
0

>  <SCORE.INTRA.DIHEDRAL.0>
0

>  <SCORE.INTRA.POLAR>
0

>  <SCORE.INTRA.POLAR.0>
0

>  <SCORE.INTRA.REPUL>
0

>  <SCORE.INTRA.REPUL.0>
0

>  <SCORE.INTRA.SOLV>
0

>  <SCORE.INTRA.SOLV.lig_0>
-4.15853

>  <SCORE.INTRA.VDW>
0

>  <SCORE.INTRA.VDW.0>
0

>  <SCORE.INTRA.norm>
0

>  <SCORE.RESTR>
0

>  <SCORE.RESTR.CAVITY>
0

>  <SCORE.RESTR.norm>
0

>  <SCORE.SYSTEM>
0

>  <SCORE.SYSTEM.CONST>
0

>  <SCORE.SYSTEM.DIHEDRAL>
0

>  <SCORE.SYSTEM.SOLV>
0

>  <SCORE.SYSTEM.norm>
0

>  <SCORE.heavy>
10

>  <SCORE.norm>
-1.52692

>  <RMSD>
1.112

$$$$
ligand
 OpenBabel02271912153D
libRbt.so/2013.1/901 2013/11/27
 10 11  0  0  0  0  0  0  0  0999 V2000
    0.7715  -13.4537   12.2194 N   0  0  0  0  0  0  0  0  0  0  0  0
    1.6803  -13.5566   11.2739 C   0  0  0  0  0  0  0  0  0  0  0  0
    2.4171  -12.4249   10.9155 N   0  0  0  0  0  0  0  0  0  0  0  0
    2.2008  -11.2592   11.5202 C   0  0  0  0  0  0  0  0  0  0  0  0
    1.2864  -11.1586   12.4668 C   0  0  0  0  0  0  0  0  0  0  0  0
    0.5742  -12.2125   12.8200 C   0  0  0  0  0  0  0  0  0  0  0  0
   -0.2731  -12.0950   13.6941 O   0  0  0  0  0  0  0  0  0  0  0  0
    1.2662   -9.9044   12.9143 N   0  0  0  0  0  0  0  0  0  0  0  0
    2.1877   -9.2305   12.2352 C   0  0  0  0  0  0  0  0  0  0  0  0
    2.7631  -10.0705   11.3710 N   0  0  0  0  0  0  0  0  0  0  0  0
  1  2  1  0  0  0  0
  1  6  1  0  0  0  0
  2  3  2  0  0  0  0
  3  4  1  0  0  0  0
  4  5  2  0  0  0  0
  4 10  1  0  0  0  0
  5  6  1  0  0  0  0
  5  8  1  0  0  0  0
  6  7  2  0  0  0  0
  8  9  1  0  0  0  0
  9 10  2  0  0  0  0
M  END
>  <CHROM.1>
1.45341846,-11.54903861,12.17247050,-2.18692424,0.75443591,0.32499820

>  <Name>
ligand

>  <RI>
0

>  <Rbt.Current_Directory>
/home/itssahil/PROJECTS/Mol_Feturizer/Test_systems_manuscript/rnas/5c7w

>  <Rbt.Executable>
rbdock ($Id: //depot/dev/client3/rdock/2013.1/src/exe/rbdock.cxx#4 $)

>  <Rbt.Library>
libRbt.so (2013.1, Build901 2013/11/27)

>  <Rbt.Parameter_File>
/export/apps/rDock/src/rDock_2013.1_src/data/scripts/dock_solv.prm

>  <Rbt.Receptor>
prm/blind_docking_60.prm

>  <SCORE>
-15.2687

>  <SCORE.INTER>
-15.2687

>  <SCORE.INTER.CONST>
1

>  <SCORE.INTER.POLAR>
0

>  <SCORE.INTER.ROT>
0

>  <SCORE.INTER.SOLV>
3.3071

>  <SCORE.INTER.VDW>
-14.8815

>  <SCORE.INTER.norm>
-1.52687

>  <SCORE.INTRA>
0

>  <SCORE.INTRA.DIHEDRAL>
0

>  <SCORE.INTRA.DIHEDRAL.0>
0

>  <SCORE.INTRA.POLAR>
0

>  <SCORE.INTRA.POLAR.0>
0

>  <SCORE.INTRA.REPUL>
0

>  <SCORE.INTRA.REPUL.0>
0

>  <SCORE.INTRA.SOLV>
0

>  <SCORE.INTRA.SOLV.lig_0>
-4.15853

>  <SCORE.INTRA.VDW>
0

>  <SCORE.INTRA.VDW.0>
0

>  <SCORE.INTRA.norm>
0

>  <SCORE.RESTR>
0

>  <SCORE.RESTR.CAVITY>
0

>  <SCORE.RESTR.norm>
0

>  <SCORE.SYSTEM>
0

>  <SCORE.SYSTEM.CONST>
0

>  <SCORE.SYSTEM.DIHEDRAL>
0

>  <SCORE.SYSTEM.SOLV>
0

>  <SCORE.SYSTEM.norm>
0

>  <SCORE.heavy>
10

>  <SCORE.norm>
-1.52687

>  <RMSD>
1.112

$$$$
ligand
 OpenBabel02271912153D
libRbt.so/2013.1/901 2013/11/27
 10 11  0  0  0  0  0  0  0  0999 V2000
    0.7721  -13.4522   12.2221 N   0  0  0  0  0  0  0  0  0  0  0  0
    1.6819  -13.5590   11.2779 C   0  0  0  0  0  0  0  0  0  0  0  0
    2.4228  -12.4301   10.9194 N   0  0  0  0  0  0  0  0  0  0  0  0
    2.2094  -11.2631   11.5227 C   0  0  0  0  0  0  0  0  0  0  0  0
    1.2942  -11.1586   12.4680 C   0  0  0  0  0  0  0  0  0  0  0  0
    0.5781  -12.2098   12.8212 C   0  0  0  0  0  0  0  0  0  0  0  0
   -0.2700  -12.0887   13.6941 O   0  0  0  0  0  0  0  0  0  0  0  0
    1.2775   -9.9039   12.9143 N   0  0  0  0  0  0  0  0  0  0  0  0
    2.2020   -9.2337   12.2357 C   0  0  0  0  0  0  0  0  0  0  0  0
    2.7759  -10.0763   11.3731 N   0  0  0  0  0  0  0  0  0  0  0  0
  1  2  1  0  0  0  0
  1  6  1  0  0  0  0
  2  3  2  0  0  0  0
  3  4  1  0  0  0  0
  4  5  2  0  0  0  0
  4 10  1  0  0  0  0
  5  6  1  0  0  0  0
  5  8  1  0  0  0  0
  6  7  2  0  0  0  0
  8  9  1  0  0  0  0
  9 10  2  0  0  0  0
M  END
>  <CHROM.1>
1.46030779,-11.54982698,12.17427652,-2.19059237,0.75214230,0.32655862

>  <Name>
ligand

>  <RI>
0

>  <Rbt.Current_Directory>
/home/itssahil/PROJECTS/Mol_Feturizer/Test_systems_manuscript/rnas/5c7w

>  <Rbt.Executable>
rbdock ($Id: //depot/dev/client3/rdock/2013.1/src/exe/rbdock.cxx#4 $)

>  <Rbt.Library>
libRbt.so (2013.1, Build901 2013/11/27)

>  <Rbt.Parameter_File>
/export/apps/rDock/src/rDock_2013.1_src/data/scripts/dock_solv.prm

>  <Rbt.Receptor>
prm/blind_docking_80.prm

>  <SCORE>
-15.2686

>  <SCORE.INTER>
-15.2686

>  <SCORE.INTER.CONST>
1

>  <SCORE.INTER.POLAR>
0

>  <SCORE.INTER.ROT>
0

>  <SCORE.INTER.SOLV>
3.29987

>  <SCORE.INTER.VDW>
-14.879

>  <SCORE.INTER.norm>
-1.52686

>  <SCORE.INTRA>
0

>  <SCORE.INTRA.DIHEDRAL>
0

>  <SCORE.INTRA.DIHEDRAL.0>
0

>  <SCORE.INTRA.POLAR>
0

>  <SCORE.INTRA.POLAR.0>
0

>  <SCORE.INTRA.REPUL>
0

>  <SCORE.INTRA.REPUL.0>
0

>  <SCORE.INTRA.SOLV>
0

>  <SCORE.INTRA.SOLV.lig_0>
-4.15853

>  <SCORE.INTRA.VDW>
0

>  <SCORE.INTRA.VDW.0>
0

>  <SCORE.INTRA.norm>
0

>  <SCORE.RESTR>
0

>  <SCORE.RESTR.CAVITY>
0

>  <SCORE.RESTR.norm>
0

>  <SCORE.SYSTEM>
0

>  <SCORE.SYSTEM.CONST>
0

>  <SCORE.SYSTEM.DIHEDRAL>
0

>  <SCORE.SYSTEM.SOLV>
0

>  <SCORE.SYSTEM.norm>
0

>  <SCORE.heavy>
10

>  <SCORE.norm>
-1.52686

>  <RMSD>
1.112

$$$$
ligand
 OpenBabel02271912153D
libRbt.so/2013.1/901 2013/11/27
 10 11  0  0  0  0  0  0  0  0999 V2000
    0.7689  -13.4529   12.2173 N   0  0  0  0  0  0  0  0  0  0  0  0
    1.6773  -13.5558   11.2714 C   0  0  0  0  0  0  0  0  0  0  0  0
    2.4163  -12.4249   10.9150 N   0  0  0  0  0  0  0  0  0  0  0  0
    2.2024  -11.2600   11.5219 C   0  0  0  0  0  0  0  0  0  0  0  0
    1.2884  -11.1593   12.4690 C   0  0  0  0  0  0  0  0  0  0  0  0
    0.5742  -12.2125   12.8202 C   0  0  0  0  0  0  0  0  0  0  0  0
   -0.2727  -12.0950   13.6947 O   0  0  0  0  0  0  0  0  0  0  0  0
    1.2708   -9.9059   12.9189 N   0  0  0  0  0  0  0  0  0  0  0  0
    2.1935   -9.2326   12.2408 C   0  0  0  0  0  0  0  0  0  0  0  0
    2.7671  -10.0721   11.3749 N   0  0  0  0  0  0  0  0  0  0  0  0
  1  2  1  0  0  0  0
  1  6  1  0  0  0  0
  2  3  2  0  0  0  0
  3  4  1  0  0  0  0
  4  5  2  0  0  0  0
  4 10  1  0  0  0  0
  5  6  1  0  0  0  0
  5  8  1  0  0  0  0
  6  7  2  0  0  0  0
  8  9  1  0  0  0  0
  9 10  2  0  0  0  0
M  END
>  <CHROM.1>
1.45458505,-11.54952513,12.17383113,-2.18960829,0.75397515,0.32874759

>  <Name>
ligand

>  <RI>
0

>  <Rbt.Current_Directory>
/home/itssahil/PROJECTS/Mol_Feturizer/Test_systems_manuscript/rnas/5c7w

>  <Rbt.Executable>
rbdock ($Id: //depot/dev/client3/rdock/2013.1/src/exe/rbdock.cxx#4 $)

>  <Rbt.Library>
libRbt.so (2013.1, Build901 2013/11/27)

>  <Rbt.Parameter_File>
/export/apps/rDock/src/rDock_2013.1_src/data/scripts/dock_solv.prm

>  <Rbt.Receptor>
prm/blind_docking_80.prm

>  <SCORE>
-15.268

>  <SCORE.INTER>
-15.268

>  <SCORE.INTER.CONST>
1

>  <SCORE.INTER.POLAR>
0

>  <SCORE.INTER.ROT>
0

>  <SCORE.INTER.SOLV>
3.30592

>  <SCORE.INTER.VDW>
-14.8806

>  <SCORE.INTER.norm>
-1.5268

>  <SCORE.INTRA>
0

>  <SCORE.INTRA.DIHEDRAL>
0

>  <SCORE.INTRA.DIHEDRAL.0>
0

>  <SCORE.INTRA.POLAR>
0

>  <SCORE.INTRA.POLAR.0>
0

>  <SCORE.INTRA.REPUL>
0

>  <SCORE.INTRA.REPUL.0>
0

>  <SCORE.INTRA.SOLV>
0

>  <SCORE.INTRA.SOLV.lig_0>
-4.15853

>  <SCORE.INTRA.VDW>
0

>  <SCORE.INTRA.VDW.0>
0

>  <SCORE.INTRA.norm>
0

>  <SCORE.RESTR>
0

>  <SCORE.RESTR.CAVITY>
0

>  <SCORE.RESTR.norm>
0

>  <SCORE.SYSTEM>
0

>  <SCORE.SYSTEM.CONST>
0

>  <SCORE.SYSTEM.DIHEDRAL>
0

>  <SCORE.SYSTEM.SOLV>
0

>  <SCORE.SYSTEM.norm>
0

>  <SCORE.heavy>
10

>  <SCORE.norm>
-1.5268

>  <RMSD>
1.112

$$$$
ligand
 OpenBabel02271912153D
libRbt.so/2013.1/901 2013/11/27
 10 11  0  0  0  0  0  0  0  0999 V2000
    0.7722  -13.4516   12.2183 N   0  0  0  0  0  0  0  0  0  0  0  0
    1.6843  -13.5563   11.2761 C   0  0  0  0  0  0  0  0  0  0  0  0
    2.4230  -12.4257   10.9188 N   0  0  0  0  0  0  0  0  0  0  0  0
    2.2053  -11.2590   11.5211 C   0  0  0  0  0  0  0  0  0  0  0  0
    1.2877  -11.1565   12.4644 C   0  0  0  0  0  0  0  0  0  0  0  0
    0.5737  -12.2095   12.8165 C   0  0  0  0  0  0  0  0  0  0  0  0
   -0.2766  -12.0903   13.6875 O   0  0  0  0  0  0  0  0  0  0  0  0
    1.2668   -9.9017   12.9102 N   0  0  0  0  0  0  0  0  0  0  0  0
    2.1911   -9.2293   12.2333 C   0  0  0  0  0  0  0  0  0  0  0  0
    2.7690  -10.0708   11.3723 N   0  0  0  0  0  0  0  0  0  0  0  0
  1  2  1  0  0  0  0
  1  6  1  0  0  0  0
  2  3  2  0  0  0  0
  3  4  1  0  0  0  0
  4  5  2  0  0  0  0
  4 10  1  0  0  0  0
  5  6  1  0  0  0  0
  5  8  1  0  0  0  0
  6  7  2  0  0  0  0
  8  9  1  0  0  0  0
  9 10  2  0  0  0  0
M  END
>  <CHROM.1>
1.45553459,-11.54743893,12.17119506,-2.18625584,0.75091072,0.32319101

>  <Name>
ligand

>  <RI>
0

>  <Rbt.Current_Directory>
/home/itssahil/PROJECTS/Mol_Feturizer/Test_systems_manuscript/rnas/5c7w

>  <Rbt.Executable>
rbdock ($Id: //depot/dev/client3/rdock/2013.1/src/exe/rbdock.cxx#4 $)

>  <Rbt.Library>
libRbt.so (2013.1, Build901 2013/11/27)

>  <Rbt.Parameter_File>
/export/apps/rDock/src/rDock_2013.1_src/data/scripts/dock_solv.prm

>  <Rbt.Receptor>
prm/pocket_docking_3.prm

>  <SCORE>
-15.2691

>  <SCORE.INTER>
-15.2691

>  <SCORE.INTER.CONST>
1

>  <SCORE.INTER.POLAR>
0

>  <SCORE.INTER.ROT>
0

>  <SCORE.INTER.SOLV>
3.296

>  <SCORE.INTER.VDW>
-14.8781

>  <SCORE.INTER.norm>
-1.52691

>  <SCORE.INTRA>
0

>  <SCORE.INTRA.DIHEDRAL>
0

>  <SCORE.INTRA.DIHEDRAL.0>
0

>  <SCORE.INTRA.POLAR>
0

>  <SCORE.INTRA.POLAR.0>
0

>  <SCORE.INTRA.REPUL>
0

>  <SCORE.INTRA.REPUL.0>
0

>  <SCORE.INTRA.SOLV>
0

>  <SCORE.INTRA.SOLV.lig_0>
-4.15853

>  <SCORE.INTRA.VDW>
0

>  <SCORE.INTRA.VDW.0>
0

>  <SCORE.INTRA.norm>
0

>  <SCORE.RESTR>
0

>  <SCORE.RESTR.CAVITY>
0

>  <SCORE.RESTR.norm>
0

>  <SCORE.SYSTEM>
0

>  <SCORE.SYSTEM.CONST>
0

>  <SCORE.SYSTEM.DIHEDRAL>
0

>  <SCORE.SYSTEM.SOLV>
0

>  <SCORE.SYSTEM.norm>
0

>  <SCORE.heavy>
10

>  <SCORE.norm>
-1.52691

>  <RMSD>
1.112

$$$$
ligand
 OpenBabel02271912153D
libRbt.so/2013.1/901 2013/11/27
 10 11  0  0  0  0  0  0  0  0999 V2000
    0.7703  -13.4462   12.2149 N   0  0  0  0  0  0  0  0  0  0  0  0
    1.6887  -13.5540   11.2791 C   0  0  0  0  0  0  0  0  0  0  0  0
    2.4333  -12.4256   10.9267 N   0  0  0  0  0  0  0  0  0  0  0  0
    2.2149  -11.2582   11.5271 C   0  0  0  0  0  0  0  0  0  0  0  0
    1.2910  -11.1526   12.4639 C   0  0  0  0  0  0  0  0  0  0  0  0
    0.5713  -12.2034   12.8113 C   0  0  0  0  0  0  0  0  0  0  0  0
   -0.2847  -12.0813   13.6763 O   0  0  0  0  0  0  0  0  0  0  0  0
    1.2707   -9.8976   12.9091 N   0  0  0  0  0  0  0  0  0  0  0  0
    2.2017   -9.2282   12.2386 C   0  0  0  0  0  0  0  0  0  0  0  0
    2.7831  -10.0717   11.3819 N   0  0  0  0  0  0  0  0  0  0  0  0
  1  2  1  0  0  0  0
  1  6  1  0  0  0  0
  2  3  2  0  0  0  0
  3  4  1  0  0  0  0
  4  5  2  0  0  0  0
  4 10  1  0  0  0  0
  5  6  1  0  0  0  0
  5  8  1  0  0  0  0
  6  7  2  0  0  0  0
  8  9  1  0  0  0  0
  9 10  2  0  0  0  0
M  END
>  <CHROM.1>
1.45966046,-11.54415419,12.17198744,-2.18707116,0.74331305,0.32344243

>  <Name>
ligand

>  <RI>
0

>  <Rbt.Current_Directory>
/home/itssahil/PROJECTS/Mol_Feturizer/Test_systems_manuscript/rnas/5c7w

>  <Rbt.Executable>
rbdock ($Id: //depot/dev/client3/rdock/2013.1/src/exe/rbdock.cxx#4 $)

>  <Rbt.Library>
libRbt.so (2013.1, Build901 2013/11/27)

>  <Rbt.Parameter_File>
/export/apps/rDock/src/rDock_2013.1_src/data/scripts/dock_solv.prm

>  <Rbt.Receptor>
prm/pocket_docking_4.prm

>  <SCORE>
-15.2661

>  <SCORE.INTER>
-15.2661

>  <SCORE.INTER.CONST>
1

>  <SCORE.INTER.POLAR>
0

>  <SCORE.INTER.ROT>
0

>  <SCORE.INTER.SOLV>
3.27354

>  <SCORE.INTER.VDW>
-14.8686

>  <SCORE.INTER.norm>
-1.52661

>  <SCORE.INTRA>
0

>  <SCORE.INTRA.DIHEDRAL>
0

>  <SCORE.INTRA.DIHEDRAL.0>
0

>  <SCORE.INTRA.POLAR>
0

>  <SCORE.INTRA.POLAR.0>
0

>  <SCORE.INTRA.REPUL>
0

>  <SCORE.INTRA.REPUL.0>
0

>  <SCORE.INTRA.SOLV>
0

>  <SCORE.INTRA.SOLV.lig_0>
-4.15853

>  <SCORE.INTRA.VDW>
0

>  <SCORE.INTRA.VDW.0>
0

>  <SCORE.INTRA.norm>
0

>  <SCORE.RESTR>
0

>  <SCORE.RESTR.CAVITY>
0

>  <SCORE.RESTR.norm>
0

>  <SCORE.SYSTEM>
0

>  <SCORE.SYSTEM.CONST>
0

>  <SCORE.SYSTEM.DIHEDRAL>
0

>  <SCORE.SYSTEM.SOLV>
0

>  <SCORE.SYSTEM.norm>
0

>  <SCORE.heavy>
10

>  <SCORE.norm>
-1.52661

>  <RMSD>
1.112

$$$$
ligand
 OpenBabel02271912153D
libRbt.so/2013.1/901 2013/11/27
 10 11  0  0  0  0  0  0  0  0999 V2000
    0.7692  -13.4538   12.2077 N   0  0  0  0  0  0  0  0  0  0  0  0
    1.6911  -13.5579   11.2751 C   0  0  0  0  0  0  0  0  0  0  0  0
    2.4340  -12.4272   10.9266 N   0  0  0  0  0  0  0  0  0  0  0  0
    2.2103  -11.2610   11.5278 C   0  0  0  0  0  0  0  0  0  0  0  0
    1.2829  -11.1592   12.4615 C   0  0  0  0  0  0  0  0  0  0  0  0
    0.5648  -12.2122   12.8050 C   0  0  0  0  0  0  0  0  0  0  0  0
   -0.2946  -12.0936   13.6671 O   0  0  0  0  0  0  0  0  0  0  0  0
    1.2576   -9.9047   12.9082 N   0  0  0  0  0  0  0  0  0  0  0  0
    2.1892   -9.2320   12.2417 C   0  0  0  0  0  0  0  0  0  0  0  0
    2.7759  -10.0729   11.3860 N   0  0  0  0  0  0  0  0  0  0  0  0
  1  2  1  0  0  0  0
  1  6  1  0  0  0  0
  2  3  2  0  0  0  0
  3  4  1  0  0  0  0
  4  5  2  0  0  0  0
  4 10  1  0  0  0  0
  5  6  1  0  0  0  0
  5  8  1  0  0  0  0
  6  7  2  0  0  0  0
  8  9  1  0  0  0  0
  9 10  2  0  0  0  0
M  END
>  <CHROM.1>
1.45361454,-11.54983929,12.16962601,-2.18212137,0.74081178,0.32135456

>  <Name>
ligand

>  <RI>
0

>  <Rbt.Current_Directory>
/home/itssahil/PROJECTS/Mol_Feturizer/Test_systems_manuscript/rnas/5c7w

>  <Rbt.Executable>
rbdock ($Id: //depot/dev/client3/rdock/2013.1/src/exe/rbdock.cxx#4 $)

>  <Rbt.Library>
libRbt.so (2013.1, Build901 2013/11/27)

>  <Rbt.Parameter_File>
/export/apps/rDock/src/rDock_2013.1_src/data/scripts/dock_solv.prm

>  <Rbt.Receptor>
prm/pocket_docking_4.prm

>  <SCORE>
-15.2632

>  <SCORE.INTER>
-15.2632

>  <SCORE.INTER.CONST>
1

>  <SCORE.INTER.POLAR>
0

>  <SCORE.INTER.ROT>
0

>  <SCORE.INTER.SOLV>
3.27045

>  <SCORE.INTER.VDW>
-14.8656

>  <SCORE.INTER.norm>
-1.52632

>  <SCORE.INTRA>
0

>  <SCORE.INTRA.DIHEDRAL>
0

>  <SCORE.INTRA.DIHEDRAL.0>
0

>  <SCORE.INTRA.POLAR>
0

>  <SCORE.INTRA.POLAR.0>
0

>  <SCORE.INTRA.REPUL>
0

>  <SCORE.INTRA.REPUL.0>
0

>  <SCORE.INTRA.SOLV>
0

>  <SCORE.INTRA.SOLV.lig_0>
-4.15853

>  <SCORE.INTRA.VDW>
0

>  <SCORE.INTRA.VDW.0>
0

>  <SCORE.INTRA.norm>
0

>  <SCORE.RESTR>
0

>  <SCORE.RESTR.CAVITY>
0

>  <SCORE.RESTR.norm>
0

>  <SCORE.SYSTEM>
0

>  <SCORE.SYSTEM.CONST>
0

>  <SCORE.SYSTEM.DIHEDRAL>
0

>  <SCORE.SYSTEM.SOLV>
0

>  <SCORE.SYSTEM.norm>
0

>  <SCORE.heavy>
10

>  <SCORE.norm>
-1.52632

>  <RMSD>
1.112

$$$$
ligand
 OpenBabel02271912153D
libRbt.so/2013.1/901 2013/11/27
 10 11  0  0  0  0  0  0  0  0999 V2000
    0.7705  -13.4521   12.2154 N   0  0  0  0  0  0  0  0  0  0  0  0
    1.6871  -13.5568   11.2776 C   0  0  0  0  0  0  0  0  0  0  0  0
    2.4283  -12.4263   10.9246 N   0  0  0  0  0  0  0  0  0  0  0  0
    2.2083  -11.2599   11.5266 C   0  0  0  0  0  0  0  0  0  0  0  0
    1.2862  -11.1575   12.4655 C   0  0  0  0  0  0  0  0  0  0  0  0
    0.5698  -12.2103   12.8134 C   0  0  0  0  0  0  0  0  0  0  0  0
   -0.2847  -12.0911   13.6803 O   0  0  0  0  0  0  0  0  0  0  0  0
    1.2638   -9.9029   12.9120 N   0  0  0  0  0  0  0  0  0  0  0  0
    2.1918   -9.2307   12.2401 C   0  0  0  0  0  0  0  0  0  0  0  0
    2.7734  -10.0720   11.3813 N   0  0  0  0  0  0  0  0  0  0  0  0
  1  2  1  0  0  0  0
  1  6  1  0  0  0  0
  2  3  2  0  0  0  0
  3  4  1  0  0  0  0
  4  5  2  0  0  0  0
  4 10  1  0  0  0  0
  5  6  1  0  0  0  0
  5  8  1  0  0  0  0
  6  7  2  0  0  0  0
  8  9  1  0  0  0  0
  9 10  2  0  0  0  0
M  END
>  <CHROM.1>
1.45518773,-11.54833988,12.17284125,-2.18490558,0.74608914,0.32292817

>  <Name>
ligand

>  <RI>
0

>  <Rbt.Current_Directory>
/home/itssahil/PROJECTS/Mol_Feturizer/Test_systems_manuscript/rnas/5c7w

>  <Rbt.Executable>
rbdock ($Id: //depot/dev/client3/rdock/2013.1/src/exe/rbdock.cxx#4 $)

>  <Rbt.Library>
libRbt.so (2013.1, Build901 2013/11/27)

>  <Rbt.Parameter_File>
/export/apps/rDock/src/rDock_2013.1_src/data/scripts/dock_solv.prm

>  <Rbt.Receptor>
prm/pocket_docking_5.prm

>  <SCORE>
-15.2669

>  <SCORE.INTER>
-15.2669

>  <SCORE.INTER.CONST>
1

>  <SCORE.INTER.POLAR>
0

>  <SCORE.INTER.ROT>
0

>  <SCORE.INTER.SOLV>
3.28505

>  <SCORE.INTER.VDW>
-14.8729

>  <SCORE.INTER.norm>
-1.52669

>  <SCORE.INTRA>
0

>  <SCORE.INTRA.DIHEDRAL>
0

>  <SCORE.INTRA.DIHEDRAL.0>
0

>  <SCORE.INTRA.POLAR>
0

>  <SCORE.INTRA.POLAR.0>
0

>  <SCORE.INTRA.REPUL>
0

>  <SCORE.INTRA.REPUL.0>
0

>  <SCORE.INTRA.SOLV>
0

>  <SCORE.INTRA.SOLV.lig_0>
-4.15853

>  <SCORE.INTRA.VDW>
0

>  <SCORE.INTRA.VDW.0>
0

>  <SCORE.INTRA.norm>
0

>  <SCORE.RESTR>
0

>  <SCORE.RESTR.CAVITY>
0

>  <SCORE.RESTR.norm>
0

>  <SCORE.SYSTEM>
0

>  <SCORE.SYSTEM.CONST>
0

>  <SCORE.SYSTEM.DIHEDRAL>
0

>  <SCORE.SYSTEM.SOLV>
0

>  <SCORE.SYSTEM.norm>
0

>  <SCORE.heavy>
10

>  <SCORE.norm>
-1.52669

>  <RMSD>
1.112

$$$$
ligand
 OpenBabel02271912153D
libRbt.so/2013.1/901 2013/11/27
 10 11  0  0  0  0  0  0  0  0999 V2000
    0.7746  -13.4461   12.2233 N   0  0  0  0  0  0  0  0  0  0  0  0
    1.6861  -13.5516   11.2807 C   0  0  0  0  0  0  0  0  0  0  0  0
    2.4229  -12.4205   10.9202 N   0  0  0  0  0  0  0  0  0  0  0  0
    2.2038  -11.2529   11.5200 C   0  0  0  0  0  0  0  0  0  0  0  0
    1.2867  -11.1497   12.4638 C   0  0  0  0  0  0  0  0  0  0  0  0
    0.5746  -12.2029   12.8188 C   0  0  0  0  0  0  0  0  0  0  0  0
   -0.2753  -12.0830   13.6902 O   0  0  0  0  0  0  0  0  0  0  0  0
    1.2642   -9.8938   12.9067 N   0  0  0  0  0  0  0  0  0  0  0  0
    2.1869   -9.2216   12.2276 C   0  0  0  0  0  0  0  0  0  0  0  0
    2.7655  -10.0641   11.3680 N   0  0  0  0  0  0  0  0  0  0  0  0
  1  2  1  0  0  0  0
  1  6  1  0  0  0  0
  2  3  2  0  0  0  0
  3  4  1  0  0  0  0
  4  5  2  0  0  0  0
  4 10  1  0  0  0  0
  5  6  1  0  0  0  0
  5  8  1  0  0  0  0
  6  7  2  0  0  0  0
  8  9  1  0  0  0  0
  9 10  2  0  0  0  0
M  END
>  <CHROM.1>
1.45491739,-11.54097763,12.17131366,-2.18453754,0.75211857,0.31972502

>  <Name>
ligand

>  <RI>
0

>  <Rbt.Current_Directory>
/home/itssahil/PROJECTS/Mol_Feturizer/Test_systems_manuscript/rnas/5c7w

>  <Rbt.Executable>
rbdock ($Id: //depot/dev/client3/rdock/2013.1/src/exe/rbdock.cxx#4 $)

>  <Rbt.Library>
libRbt.so (2013.1, Build901 2013/11/27)

>  <Rbt.Parameter_File>
/export/apps/rDock/src/rDock_2013.1_src/data/scripts/dock_solv.prm

>  <Rbt.Receptor>
prm/pocket_docking_5.prm

>  <SCORE>
-15.2676

>  <SCORE.INTER>
-15.2676

>  <SCORE.INTER.CONST>
1

>  <SCORE.INTER.POLAR>
0

>  <SCORE.INTER.ROT>
0

>  <SCORE.INTER.SOLV>
3.2972

>  <SCORE.INTER.VDW>
-14.8775

>  <SCORE.INTER.norm>
-1.52676

>  <SCORE.INTRA>
0

>  <SCORE.INTRA.DIHEDRAL>
0

>  <SCORE.INTRA.DIHEDRAL.0>
0

>  <SCORE.INTRA.POLAR>
0

>  <SCORE.INTRA.POLAR.0>
0

>  <SCORE.INTRA.REPUL>
0

>  <SCORE.INTRA.REPUL.0>
0

>  <SCORE.INTRA.SOLV>
0

>  <SCORE.INTRA.SOLV.lig_0>
-4.15853

>  <SCORE.INTRA.VDW>
0

>  <SCORE.INTRA.VDW.0>
0

>  <SCORE.INTRA.norm>
0

>  <SCORE.RESTR>
0

>  <SCORE.RESTR.CAVITY>
0

>  <SCORE.RESTR.norm>
0

>  <SCORE.SYSTEM>
0

>  <SCORE.SYSTEM.CONST>
0

>  <SCORE.SYSTEM.DIHEDRAL>
0

>  <SCORE.SYSTEM.SOLV>
0

>  <SCORE.SYSTEM.norm>
0

>  <SCORE.heavy>
10

>  <SCORE.norm>
-1.52676

>  <RMSD>
1.112

$$$$
ligand
 OpenBabel02271912153D
libRbt.so/2013.1/901 2013/11/27
 10 11  0  0  0  0  0  0  0  0999 V2000
    0.7731  -13.4505   12.2178 N   0  0  0  0  0  0  0  0  0  0  0  0
    1.6890  -13.5562   11.2794 C   0  0  0  0  0  0  0  0  0  0  0  0
    2.4293  -12.4259   10.9241 N   0  0  0  0  0  0  0  0  0  0  0  0
    2.2093  -11.2587   11.5245 C   0  0  0  0  0  0  0  0  0  0  0  0
    1.2879  -11.1553   12.4640 C   0  0  0  0  0  0  0  0  0  0  0  0
    0.5722  -12.2079   12.8140 C   0  0  0  0  0  0  0  0  0  0  0  0
   -0.2816  -12.0879   13.6815 O   0  0  0  0  0  0  0  0  0  0  0  0
    1.2652   -9.9001   12.9085 N   0  0  0  0  0  0  0  0  0  0  0  0
    2.1923   -9.2284   12.2349 C   0  0  0  0  0  0  0  0  0  0  0  0
    2.7737  -10.0707   11.3769 N   0  0  0  0  0  0  0  0  0  0  0  0
  1  2  1  0  0  0  0
  1  6  1  0  0  0  0
  2  3  2  0  0  0  0
  3  4  1  0  0  0  0
  4  5  2  0  0  0  0
  4 10  1  0  0  0  0
  5  6  1  0  0  0  0
  5  8  1  0  0  0  0
  6  7  2  0  0  0  0
  8  9  1  0  0  0  0
  9 10  2  0  0  0  0
M  END
>  <CHROM.1>
1.45680731,-11.54653316,12.17176059,-2.18460952,0.74702213,0.32119777

>  <Name>
ligand

>  <RI>
0

>  <Rbt.Current_Directory>
/home/itssahil/PROJECTS/Mol_Feturizer/Test_systems_manuscript/rnas/5c7w

>  <Rbt.Executable>
rbdock ($Id: //depot/dev/client3/rdock/2013.1/src/exe/rbdock.cxx#4 $)

>  <Rbt.Library>
libRbt.so (2013.1, Build901 2013/11/27)

>  <Rbt.Parameter_File>
/export/apps/rDock/src/rDock_2013.1_src/data/scripts/dock_solv.prm

>  <Rbt.Receptor>
prm/pocket_docking_5.prm

>  <SCORE>
-15.2677

>  <SCORE.INTER>
-15.2677

>  <SCORE.INTER.CONST>
1

>  <SCORE.INTER.POLAR>
0

>  <SCORE.INTER.ROT>
0

>  <SCORE.INTER.SOLV>
3.28582

>  <SCORE.INTER.VDW>
-14.8738

>  <SCORE.INTER.norm>
-1.52677

>  <SCORE.INTRA>
0

>  <SCORE.INTRA.DIHEDRAL>
0

>  <SCORE.INTRA.DIHEDRAL.0>
0

>  <SCORE.INTRA.POLAR>
0

>  <SCORE.INTRA.POLAR.0>
0

>  <SCORE.INTRA.REPUL>
0

>  <SCORE.INTRA.REPUL.0>
0

>  <SCORE.INTRA.SOLV>
0

>  <SCORE.INTRA.SOLV.lig_0>
-4.15853

>  <SCORE.INTRA.VDW>
0

>  <SCORE.INTRA.VDW.0>
0

>  <SCORE.INTRA.norm>
0

>  <SCORE.RESTR>
0

>  <SCORE.RESTR.CAVITY>
0

>  <SCORE.RESTR.norm>
0

>  <SCORE.SYSTEM>
0

>  <SCORE.SYSTEM.CONST>
0

>  <SCORE.SYSTEM.DIHEDRAL>
0

>  <SCORE.SYSTEM.SOLV>
0

>  <SCORE.SYSTEM.norm>
0

>  <SCORE.heavy>
10

>  <SCORE.norm>
-1.52677

>  <RMSD>
1.112

$$$$
ligand
 OpenBabel02271912153D
libRbt.so/2013.1/901 2013/11/27
 10 11  0  0  0  0  0  0  0  0999 V2000
    0.7717  -13.4505   12.2174 N   0  0  0  0  0  0  0  0  0  0  0  0
    1.6850  -13.5548   11.2763 C   0  0  0  0  0  0  0  0  0  0  0  0
    2.4244  -12.4239   10.9208 N   0  0  0  0  0  0  0  0  0  0  0  0
    2.2062  -11.2577   11.5237 C   0  0  0  0  0  0  0  0  0  0  0  0
    1.2874  -11.1557   12.4659 C   0  0  0  0  0  0  0  0  0  0  0  0
    0.5726  -12.2088   12.8163 C   0  0  0  0  0  0  0  0  0  0  0  0
   -0.2788  -12.0901   13.6863 O   0  0  0  0  0  0  0  0  0  0  0  0
    1.2661   -9.9012   12.9126 N   0  0  0  0  0  0  0  0  0  0  0  0
    2.1914   -9.2285   12.2374 C   0  0  0  0  0  0  0  0  0  0  0  0
    2.7703  -10.0695   11.3765 N   0  0  0  0  0  0  0  0  0  0  0  0
  1  2  1  0  0  0  0
  1  6  1  0  0  0  0
  2  3  2  0  0  0  0
  3  4  1  0  0  0  0
  4  5  2  0  0  0  0
  4 10  1  0  0  0  0
  5  6  1  0  0  0  0
  5  8  1  0  0  0  0
  6  7  2  0  0  0  0
  8  9  1  0  0  0  0
  9 10  2  0  0  0  0
M  END
>  <CHROM.1>
1.45547399,-11.54647977,12.17258486,-2.18596008,0.74963230,0.32374393

>  <Name>
ligand

>  <RI>
0

>  <Rbt.Current_Directory>
/home/itssahil/PROJECTS/Mol_Feturizer/Test_systems_manuscript/rnas/5c7w

>  <Rbt.Executable>
rbdock ($Id: //depot/dev/client3/rdock/2013.1/src/exe/rbdock.cxx#4 $)

>  <Rbt.Library>
libRbt.so (2013.1, Build901 2013/11/27)

>  <Rbt.Parameter_File>
/export/apps/rDock/src/rDock_2013.1_src/data/scripts/dock_solv.prm

>  <Rbt.Receptor>
prm/pocket_docking_6.prm

>  <SCORE>
-15.2683

>  <SCORE.INTER>
-15.2683

>  <SCORE.INTER.CONST>
1

>  <SCORE.INTER.POLAR>
0

>  <SCORE.INTER.ROT>
0

>  <SCORE.INTER.SOLV>
3.29321

>  <SCORE.INTER.VDW>
-14.8766

>  <SCORE.INTER.norm>
-1.52683

>  <SCORE.INTRA>
0

>  <SCORE.INTRA.DIHEDRAL>
0

>  <SCORE.INTRA.DIHEDRAL.0>
0

>  <SCORE.INTRA.POLAR>
0

>  <SCORE.INTRA.POLAR.0>
0

>  <SCORE.INTRA.REPUL>
0

>  <SCORE.INTRA.REPUL.0>
0

>  <SCORE.INTRA.SOLV>
0

>  <SCORE.INTRA.SOLV.lig_0>
-4.15853

>  <SCORE.INTRA.VDW>
0

>  <SCORE.INTRA.VDW.0>
0

>  <SCORE.INTRA.norm>
0

>  <SCORE.RESTR>
0

>  <SCORE.RESTR.CAVITY>
0

>  <SCORE.RESTR.norm>
0

>  <SCORE.SYSTEM>
0

>  <SCORE.SYSTEM.CONST>
0

>  <SCORE.SYSTEM.DIHEDRAL>
0

>  <SCORE.SYSTEM.SOLV>
0

>  <SCORE.SYSTEM.norm>
0

>  <SCORE.heavy>
10

>  <SCORE.norm>
-1.52683

>  <RMSD>
1.112

$$$$
ligand
 OpenBabel02271912153D
libRbt.so/2013.1/901 2013/11/27
 10 11  0  0  0  0  0  0  0  0999 V2000
    0.7712  -13.4476   12.2187 N   0  0  0  0  0  0  0  0  0  0  0  0
    1.6811  -13.5534   11.2745 C   0  0  0  0  0  0  0  0  0  0  0  0
    2.4203  -12.4236   10.9155 N   0  0  0  0  0  0  0  0  0  0  0  0
    2.2052  -11.2567   11.5182 C   0  0  0  0  0  0  0  0  0  0  0  0
    1.2898  -11.1531   12.4636 C   0  0  0  0  0  0  0  0  0  0  0  0
    0.5753  -12.2053   12.8173 C   0  0  0  0  0  0  0  0  0  0  0  0
   -0.2729  -12.0851   13.6902 O   0  0  0  0  0  0  0  0  0  0  0  0
    1.2712   -9.8982   12.9093 N   0  0  0  0  0  0  0  0  0  0  0  0
    2.1947   -9.2269   12.2304 C   0  0  0  0  0  0  0  0  0  0  0  0
    2.7698  -10.0691   11.3681 N   0  0  0  0  0  0  0  0  0  0  0  0
  1  2  1  0  0  0  0
  1  6  1  0  0  0  0
  2  3  2  0  0  0  0
  3  4  1  0  0  0  0
  4  5  2  0  0  0  0
  4 10  1  0  0  0  0
  5  6  1  0  0  0  0
  5  8  1  0  0  0  0
  6  7  2  0  0  0  0
  8  9  1  0  0  0  0
  9 10  2  0  0  0  0
M  END
>  <CHROM.1>
1.45648707,-11.54425121,12.16997868,-2.18861939,0.75267280,0.32475782

>  <Name>
ligand

>  <RI>
0

>  <Rbt.Current_Directory>
/home/itssahil/PROJECTS/Mol_Feturizer/Test_systems_manuscript/rnas/5c7w

>  <Rbt.Executable>
rbdock ($Id: //depot/dev/client3/rdock/2013.1/src/exe/rbdock.cxx#4 $)

>  <Rbt.Library>
libRbt.so (2013.1, Build901 2013/11/27)

>  <Rbt.Parameter_File>
/export/apps/rDock/src/rDock_2013.1_src/data/scripts/dock_solv.prm

>  <Rbt.Receptor>
prm/pocket_docking_7.prm

>  <SCORE>
-15.2695

>  <SCORE.INTER>
-15.2695

>  <SCORE.INTER.CONST>
1

>  <SCORE.INTER.POLAR>
0

>  <SCORE.INTER.ROT>
0

>  <SCORE.INTER.SOLV>
3.29758

>  <SCORE.INTER.VDW>
-14.8788

>  <SCORE.INTER.norm>
-1.52695

>  <SCORE.INTRA>
0

>  <SCORE.INTRA.DIHEDRAL>
0

>  <SCORE.INTRA.DIHEDRAL.0>
0

>  <SCORE.INTRA.POLAR>
0

>  <SCORE.INTRA.POLAR.0>
0

>  <SCORE.INTRA.REPUL>
0

>  <SCORE.INTRA.REPUL.0>
0

>  <SCORE.INTRA.SOLV>
0

>  <SCORE.INTRA.SOLV.lig_0>
-4.15853

>  <SCORE.INTRA.VDW>
0

>  <SCORE.INTRA.VDW.0>
0

>  <SCORE.INTRA.norm>
0

>  <SCORE.RESTR>
0

>  <SCORE.RESTR.CAVITY>
0

>  <SCORE.RESTR.norm>
0

>  <SCORE.SYSTEM>
0

>  <SCORE.SYSTEM.CONST>
0

>  <SCORE.SYSTEM.DIHEDRAL>
0

>  <SCORE.SYSTEM.SOLV>
0

>  <SCORE.SYSTEM.norm>
0

>  <SCORE.heavy>
10

>  <SCORE.norm>
-1.52695

>  <RMSD>
1.112

$$$$
ligand
 OpenBabel02271912153D
libRbt.so/2013.1/901 2013/11/27
 10 11  0  0  0  0  0  0  0  0999 V2000
    0.7744  -13.4470   12.2213 N   0  0  0  0  0  0  0  0  0  0  0  0
    1.6855  -13.5521   11.2783 C   0  0  0  0  0  0  0  0  0  0  0  0
    2.4229  -12.4213   10.9187 N   0  0  0  0  0  0  0  0  0  0  0  0
    2.2049  -11.2541   11.5199 C   0  0  0  0  0  0  0  0  0  0  0  0
    1.2882  -11.1512   12.4640 C   0  0  0  0  0  0  0  0  0  0  0  0
    0.5754  -12.2043   12.8182 C   0  0  0  0  0  0  0  0  0  0  0  0
   -0.2741  -12.0848   13.6899 O   0  0  0  0  0  0  0  0  0  0  0  0
    1.2667   -9.8958   12.9083 N   0  0  0  0  0  0  0  0  0  0  0  0
    2.1897   -9.2235   12.2296 C   0  0  0  0  0  0  0  0  0  0  0  0
    2.7674  -10.0656   11.3690 N   0  0  0  0  0  0  0  0  0  0  0  0
  1  2  1  0  0  0  0
  1  6  1  0  0  0  0
  2  3  2  0  0  0  0
  3  4  1  0  0  0  0
  4  5  2  0  0  0  0
  4 10  1  0  0  0  0
  5  6  1  0  0  0  0
  5  8  1  0  0  0  0
  6  7  2  0  0  0  0
  8  9  1  0  0  0  0
  9 10  2  0  0  0  0
M  END
>  <CHROM.1>
1.45602299,-11.54232402,12.17109847,-2.18561485,0.75220291,0.32152955

>  <Name>
ligand

>  <RI>
0

>  <Rbt.Current_Directory>
/home/itssahil/PROJECTS/Mol_Feturizer/Test_systems_manuscript/rnas/5c7w

>  <Rbt.Executable>
rbdock ($Id: //depot/dev/client3/rdock/2013.1/src/exe/rbdock.cxx#4 $)

>  <Rbt.Library>
libRbt.so (2013.1, Build901 2013/11/27)

>  <Rbt.Parameter_File>
/export/apps/rDock/src/rDock_2013.1_src/data/scripts/dock_solv.prm

>  <Rbt.Receptor>
prm/pocket_docking_7.prm

>  <SCORE>
-15.2686

>  <SCORE.INTER>
-15.2686

>  <SCORE.INTER.CONST>
1

>  <SCORE.INTER.POLAR>
0

>  <SCORE.INTER.ROT>
0

>  <SCORE.INTER.SOLV>
3.29727

>  <SCORE.INTER.VDW>
-14.8781

>  <SCORE.INTER.norm>
-1.52686

>  <SCORE.INTRA>
0

>  <SCORE.INTRA.DIHEDRAL>
0

>  <SCORE.INTRA.DIHEDRAL.0>
0

>  <SCORE.INTRA.POLAR>
0

>  <SCORE.INTRA.POLAR.0>
0

>  <SCORE.INTRA.REPUL>
0

>  <SCORE.INTRA.REPUL.0>
0

>  <SCORE.INTRA.SOLV>
0

>  <SCORE.INTRA.SOLV.lig_0>
-4.15853

>  <SCORE.INTRA.VDW>
0

>  <SCORE.INTRA.VDW.0>
0

>  <SCORE.INTRA.norm>
0

>  <SCORE.RESTR>
0

>  <SCORE.RESTR.CAVITY>
0

>  <SCORE.RESTR.norm>
0

>  <SCORE.SYSTEM>
0

>  <SCORE.SYSTEM.CONST>
0

>  <SCORE.SYSTEM.DIHEDRAL>
0

>  <SCORE.SYSTEM.SOLV>
0

>  <SCORE.SYSTEM.norm>
0

>  <SCORE.heavy>
10

>  <SCORE.norm>
-1.52686

>  <RMSD>
1.112

$$$$
ligand
 OpenBabel02271912153D
libRbt.so/2013.1/901 2013/11/27
 10 11  0  0  0  0  0  0  0  0999 V2000
    0.7712  -13.4484   12.2179 N   0  0  0  0  0  0  0  0  0  0  0  0
    1.6834  -13.5538   11.2758 C   0  0  0  0  0  0  0  0  0  0  0  0
    2.4230  -12.4237   10.9186 N   0  0  0  0  0  0  0  0  0  0  0  0
    2.2061  -11.2569   11.5209 C   0  0  0  0  0  0  0  0  0  0  0  0
    1.2884  -11.1537   12.4640 C   0  0  0  0  0  0  0  0  0  0  0  0
    0.5735  -12.2062   12.8160 C   0  0  0  0  0  0  0  0  0  0  0  0
   -0.2769  -12.0863   13.6869 O   0  0  0  0  0  0  0  0  0  0  0  0
    1.2683   -9.8988   12.9098 N   0  0  0  0  0  0  0  0  0  0  0  0
    2.1932   -9.2272   12.2331 C   0  0  0  0  0  0  0  0  0  0  0  0
    2.7706  -10.0691   11.3722 N   0  0  0  0  0  0  0  0  0  0  0  0
  1  2  1  0  0  0  0
  1  6  1  0  0  0  0
  2  3  2  0  0  0  0
  3  4  1  0  0  0  0
  4  5  2  0  0  0  0
  4 10  1  0  0  0  0
  5  6  1  0  0  0  0
  5  8  1  0  0  0  0
  6  7  2  0  0  0  0
  8  9  1  0  0  0  0
  9 10  2  0  0  0  0
M  END
>  <CHROM.1>
1.45596255,-11.54476251,12.17084425,-2.18711949,0.75051903,0.32378038

>  <Name>
ligand

>  <RI>
0

>  <Rbt.Current_Directory>
/home/itssahil/PROJECTS/Mol_Feturizer/Test_systems_manuscript/rnas/5c7w

>  <Rbt.Executable>
rbdock ($Id: //depot/dev/client3/rdock/2013.1/src/exe/rbdock.cxx#4 $)

>  <Rbt.Library>
libRbt.so (2013.1, Build901 2013/11/27)

>  <Rbt.Parameter_File>
/export/apps/rDock/src/rDock_2013.1_src/data/scripts/dock_solv.prm

>  <Rbt.Receptor>
prm/pocket_docking_8.prm

>  <SCORE>
-15.2689

>  <SCORE.INTER>
-15.2689

>  <SCORE.INTER.CONST>
1

>  <SCORE.INTER.POLAR>
0

>  <SCORE.INTER.ROT>
0

>  <SCORE.INTER.SOLV>
3.29323

>  <SCORE.INTER.VDW>
-14.877

>  <SCORE.INTER.norm>
-1.52689

>  <SCORE.INTRA>
0

>  <SCORE.INTRA.DIHEDRAL>
0

>  <SCORE.INTRA.DIHEDRAL.0>
0

>  <SCORE.INTRA.POLAR>
0

>  <SCORE.INTRA.POLAR.0>
0

>  <SCORE.INTRA.REPUL>
0

>  <SCORE.INTRA.REPUL.0>
0

>  <SCORE.INTRA.SOLV>
0

>  <SCORE.INTRA.SOLV.lig_0>
-4.15853

>  <SCORE.INTRA.VDW>
0

>  <SCORE.INTRA.VDW.0>
0

>  <SCORE.INTRA.norm>
0

>  <SCORE.RESTR>
0

>  <SCORE.RESTR.CAVITY>
0

>  <SCORE.RESTR.norm>
0

>  <SCORE.SYSTEM>
0

>  <SCORE.SYSTEM.CONST>
0

>  <SCORE.SYSTEM.DIHEDRAL>
0

>  <SCORE.SYSTEM.SOLV>
0

>  <SCORE.SYSTEM.norm>
0

>  <SCORE.heavy>
10

>  <SCORE.norm>
-1.52689

>  <RMSD>
1.112

$$$$
ligand
 OpenBabel02271912153D
libRbt.so/2013.1/901 2013/11/27
 10 11  0  0  0  0  0  0  0  0999 V2000
    0.7793  -13.4443   12.2295 N   0  0  0  0  0  0  0  0  0  0  0  0
    1.6920  -13.5514   11.2881 C   0  0  0  0  0  0  0  0  0  0  0  0
    2.4290  -12.4209   10.9265 N   0  0  0  0  0  0  0  0  0  0  0  0
    2.2091  -11.2522   11.5241 C   0  0  0  0  0  0  0  0  0  0  0  0
    1.2909  -11.1474   12.4665 C   0  0  0  0  0  0  0  0  0  0  0  0
    0.5784  -12.2001   12.8225 C   0  0  0  0  0  0  0  0  0  0  0  0
   -0.2725  -12.0788   13.6927 O   0  0  0  0  0  0  0  0  0  0  0  0
    1.2676   -9.8908   12.9072 N   0  0  0  0  0  0  0  0  0  0  0  0
    2.1911   -9.2196   12.2280 C   0  0  0  0  0  0  0  0  0  0  0  0
    2.7708  -10.0637   11.3707 N   0  0  0  0  0  0  0  0  0  0  0  0
  1  2  1  0  0  0  0
  1  6  1  0  0  0  0
  2  3  2  0  0  0  0
  3  4  1  0  0  0  0
  4  5  2  0  0  0  0
  4 10  1  0  0  0  0
  5  6  1  0  0  0  0
  5  8  1  0  0  0  0
  6  7  2  0  0  0  0
  8  9  1  0  0  0  0
  9 10  2  0  0  0  0
M  END
>  <CHROM.1>
1.45944704,-11.53924016,12.17494677,-2.18387645,0.75100648,0.31751533

>  <Name>
ligand

>  <RI>
0

>  <Rbt.Current_Directory>
/home/itssahil/PROJECTS/Mol_Feturizer/Test_systems_manuscript/rnas/5c7w

>  <Rbt.Executable>
rbdock ($Id: //depot/dev/client3/rdock/2013.1/src/exe/rbdock.cxx#4 $)

>  <Rbt.Library>
libRbt.so (2013.1, Build901 2013/11/27)

>  <Rbt.Parameter_File>
/export/apps/rDock/src/rDock_2013.1_src/data/scripts/dock_solv.prm

>  <Rbt.Receptor>
prm/pocket_docking_8.prm

>  <SCORE>
-15.2662

>  <SCORE.INTER>
-15.2662

>  <SCORE.INTER.CONST>
1

>  <SCORE.INTER.POLAR>
0

>  <SCORE.INTER.ROT>
0

>  <SCORE.INTER.SOLV>
3.29551

>  <SCORE.INTER.VDW>
-14.876

>  <SCORE.INTER.norm>
-1.52662

>  <SCORE.INTRA>
0

>  <SCORE.INTRA.DIHEDRAL>
0

>  <SCORE.INTRA.DIHEDRAL.0>
0

>  <SCORE.INTRA.POLAR>
0

>  <SCORE.INTRA.POLAR.0>
0

>  <SCORE.INTRA.REPUL>
0

>  <SCORE.INTRA.REPUL.0>
0

>  <SCORE.INTRA.SOLV>
0

>  <SCORE.INTRA.SOLV.lig_0>
-4.15853

>  <SCORE.INTRA.VDW>
0

>  <SCORE.INTRA.VDW.0>
0

>  <SCORE.INTRA.norm>
0

>  <SCORE.RESTR>
0

>  <SCORE.RESTR.CAVITY>
0

>  <SCORE.RESTR.norm>
0

>  <SCORE.SYSTEM>
0

>  <SCORE.SYSTEM.CONST>
0

>  <SCORE.SYSTEM.DIHEDRAL>
0

>  <SCORE.SYSTEM.SOLV>
0

>  <SCORE.SYSTEM.norm>
0

>  <SCORE.heavy>
10

>  <SCORE.norm>
-1.52662

>  <RMSD>
1.112

$$$$
ligand
 OpenBabel02271912153D
libRbt.so/2013.1/901 2013/11/27
 10 11  0  0  0  0  0  0  0  0999 V2000
    0.7756  -13.4519   12.2167 N   0  0  0  0  0  0  0  0  0  0  0  0
    1.6866  -13.5639   11.2743 C   0  0  0  0  0  0  0  0  0  0  0  0
    2.4284  -12.4371   10.9111 N   0  0  0  0  0  0  0  0  0  0  0  0
    2.2148  -11.2670   11.5081 C   0  0  0  0  0  0  0  0  0  0  0  0
    1.2982  -11.1573   12.4517 C   0  0  0  0  0  0  0  0  0  0  0  0
    0.5813  -12.2065   12.8092 C   0  0  0  0  0  0  0  0  0  0  0  0
   -0.2679  -12.0806   13.6804 O   0  0  0  0  0  0  0  0  0  0  0  0
    1.2815   -9.9003   12.8916 N   0  0  0  0  0  0  0  0  0  0  0  0
    2.2072   -9.2339   12.2108 C   0  0  0  0  0  0  0  0  0  0  0  0
    2.7819  -10.0812   11.3533 N   0  0  0  0  0  0  0  0  0  0  0  0
  1  2  1  0  0  0  0
  1  6  1  0  0  0  0
  2  3  2  0  0  0  0
  3  4  1  0  0  0  0
  4  5  2  0  0  0  0
  4 10  1  0  0  0  0
  5  6  1  0  0  0  0
  5  8  1  0  0  0  0
  6  7  2  0  0  0  0
  8  9  1  0  0  0  0
  9 10  2  0  0  0  0
M  END
>  <CHROM.1>
1.46462533,-11.55011430,12.16013095,-2.19051226,0.75072550,0.32142202

>  <Name>
ligand

>  <RI>
0

>  <Rbt.Current_Directory>
/home/itssahil/PROJECTS/Mol_Feturizer/Test_systems_manuscript/rnas/5c7w

>  <Rbt.Executable>
rbdock ($Id: //depot/dev/client3/rdock/2013.1/src/exe/rbdock.cxx#4 $)

>  <Rbt.Library>
libRbt.so (2013.1, Build901 2013/11/27)

>  <Rbt.Parameter_File>
/export/apps/rDock/src/rDock_2013.1_src/data/scripts/dock_solv.prm

>  <Rbt.Receptor>
prm/blind_docking_100.prm

>  <SCORE>
-15.2373

>  <SCORE.INTER>
-15.2373

>  <SCORE.INTER.CONST>
1

>  <SCORE.INTER.POLAR>
0

>  <SCORE.INTER.ROT>
0

>  <SCORE.INTER.SOLV>
3.28631

>  <SCORE.INTER.VDW>
-14.8536

>  <SCORE.INTER.norm>
-1.52373

>  <SCORE.INTRA>
0

>  <SCORE.INTRA.DIHEDRAL>
0

>  <SCORE.INTRA.DIHEDRAL.0>
0

>  <SCORE.INTRA.POLAR>
0

>  <SCORE.INTRA.POLAR.0>
0

>  <SCORE.INTRA.REPUL>
0

>  <SCORE.INTRA.REPUL.0>
0

>  <SCORE.INTRA.SOLV>
0

>  <SCORE.INTRA.SOLV.lig_0>
-4.15853

>  <SCORE.INTRA.VDW>
0

>  <SCORE.INTRA.VDW.0>
0

>  <SCORE.INTRA.norm>
0

>  <SCORE.RESTR>
0

>  <SCORE.RESTR.CAVITY>
0

>  <SCORE.RESTR.norm>
0

>  <SCORE.SYSTEM>
0

>  <SCORE.SYSTEM.CONST>
0

>  <SCORE.SYSTEM.DIHEDRAL>
0

>  <SCORE.SYSTEM.SOLV>
0

>  <SCORE.SYSTEM.norm>
0

>  <SCORE.heavy>
10

>  <SCORE.norm>
-1.52373

>  <RMSD>
1.113

$$$$
ligand
 OpenBabel02271912153D
libRbt.so/2013.1/901 2013/11/27
 10 11  0  0  0  0  0  0  0  0999 V2000
    0.7755  -13.4513   12.2207 N   0  0  0  0  0  0  0  0  0  0  0  0
    1.6893  -13.5573   11.2803 C   0  0  0  0  0  0  0  0  0  0  0  0
    2.4292  -12.4273   10.9232 N   0  0  0  0  0  0  0  0  0  0  0  0
    2.2110  -11.2600   11.5241 C   0  0  0  0  0  0  0  0  0  0  0  0
    1.2917  -11.1563   12.4657 C   0  0  0  0  0  0  0  0  0  0  0  0
    0.5765  -12.2086   12.8174 C   0  0  0  0  0  0  0  0  0  0  0  0
   -0.2753  -12.0882   13.6868 O   0  0  0  0  0  0  0  0  0  0  0  0
    1.2706   -9.9010   12.9102 N   0  0  0  0  0  0  0  0  0  0  0  0
    2.1964   -9.2297   12.2345 C   0  0  0  0  0  0  0  0  0  0  0  0
    2.7755  -10.0722   11.3752 N   0  0  0  0  0  0  0  0  0  0  0  0
  1  2  1  0  0  0  0
  1  6  1  0  0  0  0
  2  3  2  0  0  0  0
  3  4  1  0  0  0  0
  4  5  2  0  0  0  0
  4 10  1  0  0  0  0
  5  6  1  0  0  0  0
  5  8  1  0  0  0  0
  6  7  2  0  0  0  0
  8  9  1  0  0  0  0
  9 10  2  0  0  0  0
M  END
>  <CHROM.1>
1.45985520,-11.54752076,12.17310342,-2.18607602,0.74905051,0.32216224

>  <Name>
ligand

>  <RI>
0

>  <Rbt.Current_Directory>
/home/itssahil/PROJECTS/Mol_Feturizer/Test_systems_manuscript/rnas/5c7w

>  <Rbt.Executable>
rbdock ($Id: //depot/dev/client3/rdock/2013.1/src/exe/rbdock.cxx#4 $)

>  <Rbt.Library>
libRbt.so (2013.1, Build901 2013/11/27)

>  <Rbt.Parameter_File>
/export/apps/rDock/src/rDock_2013.1_src/data/scripts/dock_solv.prm

>  <Rbt.Receptor>
prm/blind_docking_20.prm

>  <SCORE>
-15.2685

>  <SCORE.INTER>
-15.2685

>  <SCORE.INTER.CONST>
1

>  <SCORE.INTER.POLAR>
0

>  <SCORE.INTER.ROT>
0

>  <SCORE.INTER.SOLV>
3.29142

>  <SCORE.INTER.VDW>
-14.8761

>  <SCORE.INTER.norm>
-1.52685

>  <SCORE.INTRA>
0

>  <SCORE.INTRA.DIHEDRAL>
0

>  <SCORE.INTRA.DIHEDRAL.0>
0

>  <SCORE.INTRA.POLAR>
0

>  <SCORE.INTRA.POLAR.0>
0

>  <SCORE.INTRA.REPUL>
0

>  <SCORE.INTRA.REPUL.0>
0

>  <SCORE.INTRA.SOLV>
0

>  <SCORE.INTRA.SOLV.lig_0>
-4.15853

>  <SCORE.INTRA.VDW>
0

>  <SCORE.INTRA.VDW.0>
0

>  <SCORE.INTRA.norm>
0

>  <SCORE.RESTR>
0

>  <SCORE.RESTR.CAVITY>
0

>  <SCORE.RESTR.norm>
0

>  <SCORE.SYSTEM>
0

>  <SCORE.SYSTEM.CONST>
0

>  <SCORE.SYSTEM.DIHEDRAL>
0

>  <SCORE.SYSTEM.SOLV>
0

>  <SCORE.SYSTEM.norm>
0

>  <SCORE.heavy>
10

>  <SCORE.norm>
-1.52685

>  <RMSD>
1.113

$$$$
ligand
 OpenBabel02271912153D
libRbt.so/2013.1/901 2013/11/27
 10 11  0  0  0  0  0  0  0  0999 V2000
    0.7708  -13.4518   12.2163 N   0  0  0  0  0  0  0  0  0  0  0  0
    1.6849  -13.5593   11.2765 C   0  0  0  0  0  0  0  0  0  0  0  0
    2.4296  -12.4313   10.9226 N   0  0  0  0  0  0  0  0  0  0  0  0
    2.2153  -11.2646   11.5260 C   0  0  0  0  0  0  0  0  0  0  0  0
    1.2956  -11.1594   12.4669 C   0  0  0  0  0  0  0  0  0  0  0  0
    0.5760  -12.2097   12.8156 C   0  0  0  0  0  0  0  0  0  0  0  0
   -0.2762  -12.0880   13.6845 O   0  0  0  0  0  0  0  0  0  0  0  0
    1.2789   -9.9050   12.9143 N   0  0  0  0  0  0  0  0  0  0  0  0
    2.2079   -9.2358   12.2409 C   0  0  0  0  0  0  0  0  0  0  0  0
    2.7845  -10.0787   11.3803 N   0  0  0  0  0  0  0  0  0  0  0  0
  1  2  1  0  0  0  0
  1  6  1  0  0  0  0
  2  3  2  0  0  0  0
  3  4  1  0  0  0  0
  4  5  2  0  0  0  0
  4 10  1  0  0  0  0
  5  6  1  0  0  0  0
  5  8  1  0  0  0  0
  6  7  2  0  0  0  0
  8  9  1  0  0  0  0
  9 10  2  0  0  0  0
M  END
>  <CHROM.1>
1.46246730,-11.55062494,12.17360174,-2.19067523,0.74694613,0.32754771

>  <Name>
ligand

>  <RI>
0

>  <Rbt.Current_Directory>
/home/itssahil/PROJECTS/Mol_Feturizer/Test_systems_manuscript/rnas/5c7w

>  <Rbt.Executable>
rbdock ($Id: //depot/dev/client3/rdock/2013.1/src/exe/rbdock.cxx#4 $)

>  <Rbt.Library>
libRbt.so (2013.1, Build901 2013/11/27)

>  <Rbt.Parameter_File>
/export/apps/rDock/src/rDock_2013.1_src/data/scripts/dock_solv.prm

>  <Rbt.Receptor>
prm/blind_docking_20.prm

>  <SCORE>
-15.2667

>  <SCORE.INTER>
-15.2667

>  <SCORE.INTER.CONST>
1

>  <SCORE.INTER.POLAR>
0

>  <SCORE.INTER.ROT>
0

>  <SCORE.INTER.SOLV>
3.28545

>  <SCORE.INTER.VDW>
-14.8729

>  <SCORE.INTER.norm>
-1.52667

>  <SCORE.INTRA>
0

>  <SCORE.INTRA.DIHEDRAL>
0

>  <SCORE.INTRA.DIHEDRAL.0>
0

>  <SCORE.INTRA.POLAR>
0

>  <SCORE.INTRA.POLAR.0>
0

>  <SCORE.INTRA.REPUL>
0

>  <SCORE.INTRA.REPUL.0>
0

>  <SCORE.INTRA.SOLV>
0

>  <SCORE.INTRA.SOLV.lig_0>
-4.15853

>  <SCORE.INTRA.VDW>
0

>  <SCORE.INTRA.VDW.0>
0

>  <SCORE.INTRA.norm>
0

>  <SCORE.RESTR>
0

>  <SCORE.RESTR.CAVITY>
0

>  <SCORE.RESTR.norm>
0

>  <SCORE.SYSTEM>
0

>  <SCORE.SYSTEM.CONST>
0

>  <SCORE.SYSTEM.DIHEDRAL>
0

>  <SCORE.SYSTEM.SOLV>
0

>  <SCORE.SYSTEM.norm>
0

>  <SCORE.heavy>
10

>  <SCORE.norm>
-1.52667

>  <RMSD>
1.113

$$$$
ligand
 OpenBabel02271912153D
libRbt.so/2013.1/901 2013/11/27
 10 11  0  0  0  0  0  0  0  0999 V2000
    0.7723  -13.4493   12.2178 N   0  0  0  0  0  0  0  0  0  0  0  0
    1.6824  -13.5539   11.2737 C   0  0  0  0  0  0  0  0  0  0  0  0
    2.4208  -12.4233   10.9155 N   0  0  0  0  0  0  0  0  0  0  0  0
    2.2047  -11.2569   11.5189 C   0  0  0  0  0  0  0  0  0  0  0  0
    1.2890  -11.1546   12.4641 C   0  0  0  0  0  0  0  0  0  0  0  0
    0.5753  -12.2075   12.8170 C   0  0  0  0  0  0  0  0  0  0  0  0
   -0.2732  -12.0885   13.6898 O   0  0  0  0  0  0  0  0  0  0  0  0
    1.2694   -9.9000   12.9105 N   0  0  0  0  0  0  0  0  0  0  0  0
    2.1925   -9.2276   12.2322 C   0  0  0  0  0  0  0  0  0  0  0  0
    2.7685  -10.0688   11.3696 N   0  0  0  0  0  0  0  0  0  0  0  0
  1  2  1  0  0  0  0
  1  6  1  0  0  0  0
  2  3  2  0  0  0  0
  3  4  1  0  0  0  0
  4  5  2  0  0  0  0
  4 10  1  0  0  0  0
  5  6  1  0  0  0  0
  5  8  1  0  0  0  0
  6  7  2  0  0  0  0
  8  9  1  0  0  0  0
  9 10  2  0  0  0  0
M  END
>  <CHROM.1>
1.45611697,-11.54542231,12.17028710,-2.18753217,0.75269722,0.32460214

>  <Name>
ligand

>  <RI>
0

>  <Rbt.Current_Directory>
/home/itssahil/PROJECTS/Mol_Feturizer/Test_systems_manuscript/rnas/5c7w

>  <Rbt.Executable>
rbdock ($Id: //depot/dev/client3/rdock/2013.1/src/exe/rbdock.cxx#4 $)

>  <Rbt.Library>
libRbt.so (2013.1, Build901 2013/11/27)

>  <Rbt.Parameter_File>
/export/apps/rDock/src/rDock_2013.1_src/data/scripts/dock_solv.prm

>  <Rbt.Receptor>
prm/blind_docking_20.prm

>  <SCORE>
-15.2694

>  <SCORE.INTER>
-15.2694

>  <SCORE.INTER.CONST>
1

>  <SCORE.INTER.POLAR>
0

>  <SCORE.INTER.ROT>
0

>  <SCORE.INTER.SOLV>
3.29878

>  <SCORE.INTER.VDW>
-14.8792

>  <SCORE.INTER.norm>
-1.52694

>  <SCORE.INTRA>
0

>  <SCORE.INTRA.DIHEDRAL>
0

>  <SCORE.INTRA.DIHEDRAL.0>
0

>  <SCORE.INTRA.POLAR>
0

>  <SCORE.INTRA.POLAR.0>
0

>  <SCORE.INTRA.REPUL>
0

>  <SCORE.INTRA.REPUL.0>
0

>  <SCORE.INTRA.SOLV>
0

>  <SCORE.INTRA.SOLV.lig_0>
-4.15853

>  <SCORE.INTRA.VDW>
0

>  <SCORE.INTRA.VDW.0>
0

>  <SCORE.INTRA.norm>
0

>  <SCORE.RESTR>
0

>  <SCORE.RESTR.CAVITY>
0

>  <SCORE.RESTR.norm>
0

>  <SCORE.SYSTEM>
0

>  <SCORE.SYSTEM.CONST>
0

>  <SCORE.SYSTEM.DIHEDRAL>
0

>  <SCORE.SYSTEM.SOLV>
0

>  <SCORE.SYSTEM.norm>
0

>  <SCORE.heavy>
10

>  <SCORE.norm>
-1.52694

>  <RMSD>
1.113

$$$$
ligand
 OpenBabel02271912153D
libRbt.so/2013.1/901 2013/11/27
 10 11  0  0  0  0  0  0  0  0999 V2000
    0.7739  -13.4548   12.2186 N   0  0  0  0  0  0  0  0  0  0  0  0
    1.6839  -13.5582   11.2743 C   0  0  0  0  0  0  0  0  0  0  0  0
    2.4206  -12.4265   10.9158 N   0  0  0  0  0  0  0  0  0  0  0  0
    2.2030  -11.2604   11.5192 C   0  0  0  0  0  0  0  0  0  0  0  0
    1.2874  -11.1593   12.4646 C   0  0  0  0  0  0  0  0  0  0  0  0
    0.5753  -12.2133   12.8178 C   0  0  0  0  0  0  0  0  0  0  0  0
   -0.2731  -12.0954   13.6908 O   0  0  0  0  0  0  0  0  0  0  0  0
    1.2661   -9.9047   12.9110 N   0  0  0  0  0  0  0  0  0  0  0  0
    2.1881   -9.2310   12.2323 C   0  0  0  0  0  0  0  0  0  0  0  0
    2.7650  -10.0715   11.3696 N   0  0  0  0  0  0  0  0  0  0  0  0
  1  2  1  0  0  0  0
  1  6  1  0  0  0  0
  2  3  2  0  0  0  0
  3  4  1  0  0  0  0
  4  5  2  0  0  0  0
  4 10  1  0  0  0  0
  5  6  1  0  0  0  0
  5  8  1  0  0  0  0
  6  7  2  0  0  0  0
  8  9  1  0  0  0  0
  9 10  2  0  0  0  0
M  END
>  <CHROM.1>
1.45498443,-11.54993144,12.17080164,-2.18579110,0.75343230,0.32333241

>  <Name>
ligand

>  <RI>
0

>  <Rbt.Current_Directory>
/home/itssahil/PROJECTS/Mol_Feturizer/Test_systems_manuscript/rnas/5c7w

>  <Rbt.Executable>
rbdock ($Id: //depot/dev/client3/rdock/2013.1/src/exe/rbdock.cxx#4 $)

>  <Rbt.Library>
libRbt.so (2013.1, Build901 2013/11/27)

>  <Rbt.Parameter_File>
/export/apps/rDock/src/rDock_2013.1_src/data/scripts/dock_solv.prm

>  <Rbt.Receptor>
prm/blind_docking_20.prm

>  <SCORE>
-15.2695

>  <SCORE.INTER>
-15.2695

>  <SCORE.INTER.CONST>
1

>  <SCORE.INTER.POLAR>
0

>  <SCORE.INTER.ROT>
0

>  <SCORE.INTER.SOLV>
3.30374

>  <SCORE.INTER.VDW>
-14.8809

>  <SCORE.INTER.norm>
-1.52695

>  <SCORE.INTRA>
0

>  <SCORE.INTRA.DIHEDRAL>
0

>  <SCORE.INTRA.DIHEDRAL.0>
0

>  <SCORE.INTRA.POLAR>
0

>  <SCORE.INTRA.POLAR.0>
0

>  <SCORE.INTRA.REPUL>
0

>  <SCORE.INTRA.REPUL.0>
0

>  <SCORE.INTRA.SOLV>
0

>  <SCORE.INTRA.SOLV.lig_0>
-4.15853

>  <SCORE.INTRA.VDW>
0

>  <SCORE.INTRA.VDW.0>
0

>  <SCORE.INTRA.norm>
0

>  <SCORE.RESTR>
0

>  <SCORE.RESTR.CAVITY>
0

>  <SCORE.RESTR.norm>
0

>  <SCORE.SYSTEM>
0

>  <SCORE.SYSTEM.CONST>
0

>  <SCORE.SYSTEM.DIHEDRAL>
0

>  <SCORE.SYSTEM.SOLV>
0

>  <SCORE.SYSTEM.norm>
0

>  <SCORE.heavy>
10

>  <SCORE.norm>
-1.52695

>  <RMSD>
1.113

$$$$
ligand
 OpenBabel02271912153D
libRbt.so/2013.1/901 2013/11/27
 10 11  0  0  0  0  0  0  0  0999 V2000
    0.7729  -13.4522   12.2189 N   0  0  0  0  0  0  0  0  0  0  0  0
    1.6821  -13.5568   11.2739 C   0  0  0  0  0  0  0  0  0  0  0  0
    2.4201  -12.4262   10.9148 N   0  0  0  0  0  0  0  0  0  0  0  0
    2.2046  -11.2598   11.5182 C   0  0  0  0  0  0  0  0  0  0  0  0
    1.2898  -11.1574   12.4643 C   0  0  0  0  0  0  0  0  0  0  0  0
    0.5765  -12.2103   12.8181 C   0  0  0  0  0  0  0  0  0  0  0  0
   -0.2711  -12.0912   13.6917 O   0  0  0  0  0  0  0  0  0  0  0  0
    1.2706   -9.9027   12.9107 N   0  0  0  0  0  0  0  0  0  0  0  0
    2.1930   -9.2303   12.2313 C   0  0  0  0  0  0  0  0  0  0  0  0
    2.7681  -10.0717   11.3682 N   0  0  0  0  0  0  0  0  0  0  0  0
  1  2  1  0  0  0  0
  1  6  1  0  0  0  0
  2  3  2  0  0  0  0
  3  4  1  0  0  0  0
  4  5  2  0  0  0  0
  4 10  1  0  0  0  0
  5  6  1  0  0  0  0
  5  8  1  0  0  0  0
  6  7  2  0  0  0  0
  8  9  1  0  0  0  0
  9 10  2  0  0  0  0
M  END
>  <CHROM.1>
1.45664272,-11.54823562,12.17044721,-2.18793147,0.75367073,0.32475460

>  <Name>
ligand

>  <RI>
0

>  <Rbt.Current_Directory>
/home/itssahil/PROJECTS/Mol_Feturizer/Test_systems_manuscript/rnas/5c7w

>  <Rbt.Executable>
rbdock ($Id: //depot/dev/client3/rdock/2013.1/src/exe/rbdock.cxx#4 $)

>  <Rbt.Library>
libRbt.so (2013.1, Build901 2013/11/27)

>  <Rbt.Parameter_File>
/export/apps/rDock/src/rDock_2013.1_src/data/scripts/dock_solv.prm

>  <Rbt.Receptor>
prm/blind_docking_20.prm

>  <SCORE>
-15.2698

>  <SCORE.INTER>
-15.2698

>  <SCORE.INTER.CONST>
1

>  <SCORE.INTER.POLAR>
0

>  <SCORE.INTER.ROT>
0

>  <SCORE.INTER.SOLV>
3.30241

>  <SCORE.INTER.VDW>
-14.8807

>  <SCORE.INTER.norm>
-1.52698

>  <SCORE.INTRA>
0

>  <SCORE.INTRA.DIHEDRAL>
0

>  <SCORE.INTRA.DIHEDRAL.0>
0

>  <SCORE.INTRA.POLAR>
0

>  <SCORE.INTRA.POLAR.0>
0

>  <SCORE.INTRA.REPUL>
0

>  <SCORE.INTRA.REPUL.0>
0

>  <SCORE.INTRA.SOLV>
0

>  <SCORE.INTRA.SOLV.lig_0>
-4.15853

>  <SCORE.INTRA.VDW>
0

>  <SCORE.INTRA.VDW.0>
0

>  <SCORE.INTRA.norm>
0

>  <SCORE.RESTR>
0

>  <SCORE.RESTR.CAVITY>
0

>  <SCORE.RESTR.norm>
0

>  <SCORE.SYSTEM>
0

>  <SCORE.SYSTEM.CONST>
0

>  <SCORE.SYSTEM.DIHEDRAL>
0

>  <SCORE.SYSTEM.SOLV>
0

>  <SCORE.SYSTEM.norm>
0

>  <SCORE.heavy>
10

>  <SCORE.norm>
-1.52698

>  <RMSD>
1.113

$$$$
ligand
 OpenBabel02271912153D
libRbt.so/2013.1/901 2013/11/27
 10 11  0  0  0  0  0  0  0  0999 V2000
    0.7751  -13.4535   12.2193 N   0  0  0  0  0  0  0  0  0  0  0  0
    1.6897  -13.5592   11.2797 C   0  0  0  0  0  0  0  0  0  0  0  0
    2.4304  -12.4292   10.9241 N   0  0  0  0  0  0  0  0  0  0  0  0
    2.2119  -11.2623   11.5256 C   0  0  0  0  0  0  0  0  0  0  0  0
    1.2918  -11.1588   12.4663 C   0  0  0  0  0  0  0  0  0  0  0  0
    0.5759  -12.2111   12.8166 C   0  0  0  0  0  0  0  0  0  0  0  0
   -0.2768  -12.0910   13.6852 O   0  0  0  0  0  0  0  0  0  0  0  0
    1.2706   -9.9038   12.9117 N   0  0  0  0  0  0  0  0  0  0  0  0
    2.1973   -9.2324   12.2372 C   0  0  0  0  0  0  0  0  0  0  0  0
    2.7770  -10.0746   11.3780 N   0  0  0  0  0  0  0  0  0  0  0  0
  1  2  1  0  0  0  0
  1  6  1  0  0  0  0
  2  3  2  0  0  0  0
  3  4  1  0  0  0  0
  4  5  2  0  0  0  0
  4 10  1  0  0  0  0
  5  6  1  0  0  0  0
  5  8  1  0  0  0  0
  6  7  2  0  0  0  0
  8  9  1  0  0  0  0
  9 10  2  0  0  0  0
M  END
>  <CHROM.1>
1.46007502,-11.54994229,12.17360964,-2.18607810,0.74800236,0.32282798

>  <Name>
ligand

>  <RI>
0

>  <Rbt.Current_Directory>
/home/itssahil/PROJECTS/Mol_Feturizer/Test_systems_manuscript/rnas/5c7w

>  <Rbt.Executable>
rbdock ($Id: //depot/dev/client3/rdock/2013.1/src/exe/rbdock.cxx#4 $)

>  <Rbt.Library>
libRbt.so (2013.1, Build901 2013/11/27)

>  <Rbt.Parameter_File>
/export/apps/rDock/src/rDock_2013.1_src/data/scripts/dock_solv.prm

>  <Rbt.Receptor>
prm/blind_docking_20.prm

>  <SCORE>
-15.2679

>  <SCORE.INTER>
-15.2679

>  <SCORE.INTER.CONST>
1

>  <SCORE.INTER.POLAR>
0

>  <SCORE.INTER.ROT>
0

>  <SCORE.INTER.SOLV>
3.28992

>  <SCORE.INTER.VDW>
-14.8752

>  <SCORE.INTER.norm>
-1.52679

>  <SCORE.INTRA>
0

>  <SCORE.INTRA.DIHEDRAL>
0

>  <SCORE.INTRA.DIHEDRAL.0>
0

>  <SCORE.INTRA.POLAR>
0

>  <SCORE.INTRA.POLAR.0>
0

>  <SCORE.INTRA.REPUL>
0

>  <SCORE.INTRA.REPUL.0>
0

>  <SCORE.INTRA.SOLV>
0

>  <SCORE.INTRA.SOLV.lig_0>
-4.15853

>  <SCORE.INTRA.VDW>
0

>  <SCORE.INTRA.VDW.0>
0

>  <SCORE.INTRA.norm>
0

>  <SCORE.RESTR>
0

>  <SCORE.RESTR.CAVITY>
0

>  <SCORE.RESTR.norm>
0

>  <SCORE.SYSTEM>
0

>  <SCORE.SYSTEM.CONST>
0

>  <SCORE.SYSTEM.DIHEDRAL>
0

>  <SCORE.SYSTEM.SOLV>
0

>  <SCORE.SYSTEM.norm>
0

>  <SCORE.heavy>
10

>  <SCORE.norm>
-1.52679

>  <RMSD>
1.113

$$$$
ligand
 OpenBabel02271912153D
libRbt.so/2013.1/901 2013/11/27
 10 11  0  0  0  0  0  0  0  0999 V2000
    0.7742  -13.4495   12.2214 N   0  0  0  0  0  0  0  0  0  0  0  0
    1.6874  -13.5572   11.2806 C   0  0  0  0  0  0  0  0  0  0  0  0
    2.4294  -12.4286   10.9235 N   0  0  0  0  0  0  0  0  0  0  0  0
    2.2137  -11.2610   11.5247 C   0  0  0  0  0  0  0  0  0  0  0  0
    1.2949  -11.1556   12.4666 C   0  0  0  0  0  0  0  0  0  0  0  0
    0.5778  -12.2065   12.8184 C   0  0  0  0  0  0  0  0  0  0  0  0
   -0.2735  -12.0846   13.6880 O   0  0  0  0  0  0  0  0  0  0  0  0
    1.2764   -9.9003   12.9114 N   0  0  0  0  0  0  0  0  0  0  0  0
    2.2033   -9.2307   12.2354 C   0  0  0  0  0  0  0  0  0  0  0  0
    2.7804  -10.0743   11.3758 N   0  0  0  0  0  0  0  0  0  0  0  0
  1  2  1  0  0  0  0
  1  6  1  0  0  0  0
  2  3  2  0  0  0  0
  3  4  1  0  0  0  0
  4  5  2  0  0  0  0
  4 10  1  0  0  0  0
  5  6  1  0  0  0  0
  5  8  1  0  0  0  0
  6  7  2  0  0  0  0
  8  9  1  0  0  0  0
  9 10  2  0  0  0  0
M  END
>  <CHROM.1>
1.46220167,-11.54709652,12.17386251,-2.18876376,0.74874230,0.32416291

>  <Name>
ligand

>  <RI>
0

>  <Rbt.Current_Directory>
/home/itssahil/PROJECTS/Mol_Feturizer/Test_systems_manuscript/rnas/5c7w

>  <Rbt.Executable>
rbdock ($Id: //depot/dev/client3/rdock/2013.1/src/exe/rbdock.cxx#4 $)

>  <Rbt.Library>
libRbt.so (2013.1, Build901 2013/11/27)

>  <Rbt.Parameter_File>
/export/apps/rDock/src/rDock_2013.1_src/data/scripts/dock_solv.prm

>  <Rbt.Receptor>
prm/blind_docking_40.prm

>  <SCORE>
-15.2682

>  <SCORE.INTER>
-15.2682

>  <SCORE.INTER.CONST>
1

>  <SCORE.INTER.POLAR>
0

>  <SCORE.INTER.ROT>
0

>  <SCORE.INTER.SOLV>
3.28953

>  <SCORE.INTER.VDW>
-14.8753

>  <SCORE.INTER.norm>
-1.52682

>  <SCORE.INTRA>
0

>  <SCORE.INTRA.DIHEDRAL>
0

>  <SCORE.INTRA.DIHEDRAL.0>
0

>  <SCORE.INTRA.POLAR>
0

>  <SCORE.INTRA.POLAR.0>
0

>  <SCORE.INTRA.REPUL>
0

>  <SCORE.INTRA.REPUL.0>
0

>  <SCORE.INTRA.SOLV>
0

>  <SCORE.INTRA.SOLV.lig_0>
-4.15853

>  <SCORE.INTRA.VDW>
0

>  <SCORE.INTRA.VDW.0>
0

>  <SCORE.INTRA.norm>
0

>  <SCORE.RESTR>
0

>  <SCORE.RESTR.CAVITY>
0

>  <SCORE.RESTR.norm>
0

>  <SCORE.SYSTEM>
0

>  <SCORE.SYSTEM.CONST>
0

>  <SCORE.SYSTEM.DIHEDRAL>
0

>  <SCORE.SYSTEM.SOLV>
0

>  <SCORE.SYSTEM.norm>
0

>  <SCORE.heavy>
10

>  <SCORE.norm>
-1.52682

>  <RMSD>
1.113

$$$$
ligand
 OpenBabel02271912153D
libRbt.so/2013.1/901 2013/11/27
 10 11  0  0  0  0  0  0  0  0999 V2000
    0.7705  -13.4503   12.2137 N   0  0  0  0  0  0  0  0  0  0  0  0
    1.6836  -13.5561   11.2726 C   0  0  0  0  0  0  0  0  0  0  0  0
    2.4260  -12.4269   10.9182 N   0  0  0  0  0  0  0  0  0  0  0  0
    2.2107  -11.2606   11.5221 C   0  0  0  0  0  0  0  0  0  0  0  0
    1.2920  -11.1571   12.4642 C   0  0  0  0  0  0  0  0  0  0  0  0
    0.5745  -12.2086   12.8136 C   0  0  0  0  0  0  0  0  0  0  0  0
   -0.2767  -12.0885   13.6836 O   0  0  0  0  0  0  0  0  0  0  0  0
    1.2739   -9.9029   12.9120 N   0  0  0  0  0  0  0  0  0  0  0  0
    2.2010   -9.2320   12.2375 C   0  0  0  0  0  0  0  0  0  0  0  0
    2.7778  -10.0737   11.3760 N   0  0  0  0  0  0  0  0  0  0  0  0
  1  2  1  0  0  0  0
  1  6  1  0  0  0  0
  2  3  2  0  0  0  0
  3  4  1  0  0  0  0
  4  5  2  0  0  0  0
  4 10  1  0  0  0  0
  5  6  1  0  0  0  0
  5  8  1  0  0  0  0
  6  7  2  0  0  0  0
  8  9  1  0  0  0  0
  9 10  2  0  0  0  0
M  END
>  <CHROM.1>
1.45915513,-11.54799895,12.17060373,-2.18920595,0.74867994,0.32680998

>  <Name>
ligand

>  <RI>
0

>  <Rbt.Current_Directory>
/home/itssahil/PROJECTS/Mol_Feturizer/Test_systems_manuscript/rnas/5c7w

>  <Rbt.Executable>
rbdock ($Id: //depot/dev/client3/rdock/2013.1/src/exe/rbdock.cxx#4 $)

>  <Rbt.Library>
libRbt.so (2013.1, Build901 2013/11/27)

>  <Rbt.Parameter_File>
/export/apps/rDock/src/rDock_2013.1_src/data/scripts/dock_solv.prm

>  <Rbt.Receptor>
prm/blind_docking_40.prm

>  <SCORE>
-15.2687

>  <SCORE.INTER>
-15.2687

>  <SCORE.INTER.CONST>
1

>  <SCORE.INTER.POLAR>
0

>  <SCORE.INTER.ROT>
0

>  <SCORE.INTER.SOLV>
3.28821

>  <SCORE.INTER.VDW>
-14.8752

>  <SCORE.INTER.norm>
-1.52687

>  <SCORE.INTRA>
0

>  <SCORE.INTRA.DIHEDRAL>
0

>  <SCORE.INTRA.DIHEDRAL.0>
0

>  <SCORE.INTRA.POLAR>
0

>  <SCORE.INTRA.POLAR.0>
0

>  <SCORE.INTRA.REPUL>
0

>  <SCORE.INTRA.REPUL.0>
0

>  <SCORE.INTRA.SOLV>
0

>  <SCORE.INTRA.SOLV.lig_0>
-4.15853

>  <SCORE.INTRA.VDW>
0

>  <SCORE.INTRA.VDW.0>
0

>  <SCORE.INTRA.norm>
0

>  <SCORE.RESTR>
0

>  <SCORE.RESTR.CAVITY>
0

>  <SCORE.RESTR.norm>
0

>  <SCORE.SYSTEM>
0

>  <SCORE.SYSTEM.CONST>
0

>  <SCORE.SYSTEM.DIHEDRAL>
0

>  <SCORE.SYSTEM.SOLV>
0

>  <SCORE.SYSTEM.norm>
0

>  <SCORE.heavy>
10

>  <SCORE.norm>
-1.52687

>  <RMSD>
1.113

$$$$
ligand
 OpenBabel02271912153D
libRbt.so/2013.1/901 2013/11/27
 10 11  0  0  0  0  0  0  0  0999 V2000
    0.7731  -13.4523   12.2139 N   0  0  0  0  0  0  0  0  0  0  0  0
    1.6927  -13.5576   11.2791 C   0  0  0  0  0  0  0  0  0  0  0  0
    2.4345  -12.4271   10.9273 N   0  0  0  0  0  0  0  0  0  0  0  0
    2.2121  -11.2602   11.5275 C   0  0  0  0  0  0  0  0  0  0  0  0
    1.2870  -11.1573   12.4634 C   0  0  0  0  0  0  0  0  0  0  0  0
    0.5700  -12.2101   12.8101 C   0  0  0  0  0  0  0  0  0  0  0  0
   -0.2873  -12.0904   13.6742 O   0  0  0  0  0  0  0  0  0  0  0  0
    1.2627   -9.9023   12.9086 N   0  0  0  0  0  0  0  0  0  0  0  0
    2.1925   -9.2303   12.2390 C   0  0  0  0  0  0  0  0  0  0  0  0
    2.7771  -10.0722   11.3829 N   0  0  0  0  0  0  0  0  0  0  0  0
  1  2  1  0  0  0  0
  1  6  1  0  0  0  0
  2  3  2  0  0  0  0
  3  4  1  0  0  0  0
  4  5  2  0  0  0  0
  4 10  1  0  0  0  0
  5  6  1  0  0  0  0
  5  8  1  0  0  0  0
  6  7  2  0  0  0  0
  8  9  1  0  0  0  0
  9 10  2  0  0  0  0
M  END
>  <CHROM.1>
1.45708187,-11.54834192,12.17165982,-2.18298787,0.74325457,0.32066548

>  <Name>
ligand

>  <RI>
0

>  <Rbt.Current_Directory>
/home/itssahil/PROJECTS/Mol_Feturizer/Test_systems_manuscript/rnas/5c7w

>  <Rbt.Executable>
rbdock ($Id: //depot/dev/client3/rdock/2013.1/src/exe/rbdock.cxx#4 $)

>  <Rbt.Library>
libRbt.so (2013.1, Build901 2013/11/27)

>  <Rbt.Parameter_File>
/export/apps/rDock/src/rDock_2013.1_src/data/scripts/dock_solv.prm

>  <Rbt.Receptor>
prm/blind_docking_40.prm

>  <SCORE>
-15.2654

>  <SCORE.INTER>
-15.2654

>  <SCORE.INTER.CONST>
1

>  <SCORE.INTER.POLAR>
0

>  <SCORE.INTER.ROT>
0

>  <SCORE.INTER.SOLV>
3.2768

>  <SCORE.INTER.VDW>
-14.8692

>  <SCORE.INTER.norm>
-1.52654

>  <SCORE.INTRA>
0

>  <SCORE.INTRA.DIHEDRAL>
0

>  <SCORE.INTRA.DIHEDRAL.0>
0

>  <SCORE.INTRA.POLAR>
0

>  <SCORE.INTRA.POLAR.0>
0

>  <SCORE.INTRA.REPUL>
0

>  <SCORE.INTRA.REPUL.0>
0

>  <SCORE.INTRA.SOLV>
0

>  <SCORE.INTRA.SOLV.lig_0>
-4.15853

>  <SCORE.INTRA.VDW>
0

>  <SCORE.INTRA.VDW.0>
0

>  <SCORE.INTRA.norm>
0

>  <SCORE.RESTR>
0

>  <SCORE.RESTR.CAVITY>
0

>  <SCORE.RESTR.norm>
0

>  <SCORE.SYSTEM>
0

>  <SCORE.SYSTEM.CONST>
0

>  <SCORE.SYSTEM.DIHEDRAL>
0

>  <SCORE.SYSTEM.SOLV>
0

>  <SCORE.SYSTEM.norm>
0

>  <SCORE.heavy>
10

>  <SCORE.norm>
-1.52654

>  <RMSD>
1.113

$$$$
ligand
 OpenBabel02271912153D
libRbt.so/2013.1/901 2013/11/27
 10 11  0  0  0  0  0  0  0  0999 V2000
    0.7772  -13.4448   12.2257 N   0  0  0  0  0  0  0  0  0  0  0  0
    1.6896  -13.5530   11.2843 C   0  0  0  0  0  0  0  0  0  0  0  0
    2.4299  -12.4241   10.9245 N   0  0  0  0  0  0  0  0  0  0  0  0
    2.2133  -11.2557   11.5238 C   0  0  0  0  0  0  0  0  0  0  0  0
    1.2954  -11.1498   12.4664 C   0  0  0  0  0  0  0  0  0  0  0  0
    0.5798  -12.2010   12.8207 C   0  0  0  0  0  0  0  0  0  0  0  0
   -0.2708  -12.0786   13.6910 O   0  0  0  0  0  0  0  0  0  0  0  0
    1.2757   -9.8938   12.9090 N   0  0  0  0  0  0  0  0  0  0  0  0
    2.2011   -9.2242   12.2310 C   0  0  0  0  0  0  0  0  0  0  0  0
    2.7785  -10.0686   11.3724 N   0  0  0  0  0  0  0  0  0  0  0  0
  1  2  1  0  0  0  0
  1  6  1  0  0  0  0
  2  3  2  0  0  0  0
  3  4  1  0  0  0  0
  4  5  2  0  0  0  0
  4 10  1  0  0  0  0
  5  6  1  0  0  0  0
  5  8  1  0  0  0  0
  6  7  2  0  0  0  0
  8  9  1  0  0  0  0
  9 10  2  0  0  0  0
M  END
>  <CHROM.1>
1.46283523,-11.54161789,12.17423709,-2.18758637,0.75004978,0.32162302

>  <Name>
ligand

>  <RI>
0

>  <Rbt.Current_Directory>
/home/itssahil/PROJECTS/Mol_Feturizer/Test_systems_manuscript/rnas/5c7w

>  <Rbt.Executable>
rbdock ($Id: //depot/dev/client3/rdock/2013.1/src/exe/rbdock.cxx#4 $)

>  <Rbt.Library>
libRbt.so (2013.1, Build901 2013/11/27)

>  <Rbt.Parameter_File>
/export/apps/rDock/src/rDock_2013.1_src/data/scripts/dock_solv.prm

>  <Rbt.Receptor>
prm/blind_docking_60.prm

>  <SCORE>
-15.2679

>  <SCORE.INTER>
-15.2679

>  <SCORE.INTER.CONST>
1

>  <SCORE.INTER.POLAR>
0

>  <SCORE.INTER.ROT>
0

>  <SCORE.INTER.SOLV>
3.29173

>  <SCORE.INTER.VDW>
-14.8758

>  <SCORE.INTER.norm>
-1.52679

>  <SCORE.INTRA>
0

>  <SCORE.INTRA.DIHEDRAL>
0

>  <SCORE.INTRA.DIHEDRAL.0>
0

>  <SCORE.INTRA.POLAR>
0

>  <SCORE.INTRA.POLAR.0>
0

>  <SCORE.INTRA.REPUL>
0

>  <SCORE.INTRA.REPUL.0>
0

>  <SCORE.INTRA.SOLV>
0

>  <SCORE.INTRA.SOLV.lig_0>
-4.15853

>  <SCORE.INTRA.VDW>
0

>  <SCORE.INTRA.VDW.0>
0

>  <SCORE.INTRA.norm>
0

>  <SCORE.RESTR>
0

>  <SCORE.RESTR.CAVITY>
0

>  <SCORE.RESTR.norm>
0

>  <SCORE.SYSTEM>
0

>  <SCORE.SYSTEM.CONST>
0

>  <SCORE.SYSTEM.DIHEDRAL>
0

>  <SCORE.SYSTEM.SOLV>
0

>  <SCORE.SYSTEM.norm>
0

>  <SCORE.heavy>
10

>  <SCORE.norm>
-1.52679

>  <RMSD>
1.113

$$$$
ligand
 OpenBabel02271912153D
libRbt.so/2013.1/901 2013/11/27
 10 11  0  0  0  0  0  0  0  0999 V2000
    0.7734  -13.4538   12.2176 N   0  0  0  0  0  0  0  0  0  0  0  0
    1.6853  -13.5588   11.2753 C   0  0  0  0  0  0  0  0  0  0  0  0
    2.4250  -12.4285   10.9185 N   0  0  0  0  0  0  0  0  0  0  0  0
    2.2083  -11.2620   11.5215 C   0  0  0  0  0  0  0  0  0  0  0  0
    1.2908  -11.1593   12.4649 C   0  0  0  0  0  0  0  0  0  0  0  0
    0.5759  -12.2119   12.8165 C   0  0  0  0  0  0  0  0  0  0  0  0
   -0.2743  -12.0925   13.6876 O   0  0  0  0  0  0  0  0  0  0  0  0
    1.2709   -9.9047   12.9114 N   0  0  0  0  0  0  0  0  0  0  0  0
    2.1957   -9.2327   12.2349 C   0  0  0  0  0  0  0  0  0  0  0  0
    2.7729  -10.0742   11.3733 N   0  0  0  0  0  0  0  0  0  0  0  0
  1  2  1  0  0  0  0
  1  6  1  0  0  0  0
  2  3  2  0  0  0  0
  3  4  1  0  0  0  0
  4  5  2  0  0  0  0
  4 10  1  0  0  0  0
  5  6  1  0  0  0  0
  5  8  1  0  0  0  0
  6  7  2  0  0  0  0
  8  9  1  0  0  0  0
  9 10  2  0  0  0  0
M  END
>  <CHROM.1>
1.45825890,-11.55022547,12.17148266,-2.18731485,0.75070662,0.32447026

>  <Name>
ligand

>  <RI>
0

>  <Rbt.Current_Directory>
/home/itssahil/PROJECTS/Mol_Feturizer/Test_systems_manuscript/rnas/5c7w

>  <Rbt.Executable>
rbdock ($Id: //depot/dev/client3/rdock/2013.1/src/exe/rbdock.cxx#4 $)

>  <Rbt.Library>
libRbt.so (2013.1, Build901 2013/11/27)

>  <Rbt.Parameter_File>
/export/apps/rDock/src/rDock_2013.1_src/data/scripts/dock_solv.prm

>  <Rbt.Receptor>
prm/blind_docking_60.prm

>  <SCORE>
-15.2693

>  <SCORE.INTER>
-15.2693

>  <SCORE.INTER.CONST>
1

>  <SCORE.INTER.POLAR>
0

>  <SCORE.INTER.ROT>
0

>  <SCORE.INTER.SOLV>
3.2959

>  <SCORE.INTER.VDW>
-14.8782

>  <SCORE.INTER.norm>
-1.52693

>  <SCORE.INTRA>
0

>  <SCORE.INTRA.DIHEDRAL>
0

>  <SCORE.INTRA.DIHEDRAL.0>
0

>  <SCORE.INTRA.POLAR>
0

>  <SCORE.INTRA.POLAR.0>
0

>  <SCORE.INTRA.REPUL>
0

>  <SCORE.INTRA.REPUL.0>
0

>  <SCORE.INTRA.SOLV>
0

>  <SCORE.INTRA.SOLV.lig_0>
-4.15853

>  <SCORE.INTRA.VDW>
0

>  <SCORE.INTRA.VDW.0>
0

>  <SCORE.INTRA.norm>
0

>  <SCORE.RESTR>
0

>  <SCORE.RESTR.CAVITY>
0

>  <SCORE.RESTR.norm>
0

>  <SCORE.SYSTEM>
0

>  <SCORE.SYSTEM.CONST>
0

>  <SCORE.SYSTEM.DIHEDRAL>
0

>  <SCORE.SYSTEM.SOLV>
0

>  <SCORE.SYSTEM.norm>
0

>  <SCORE.heavy>
10

>  <SCORE.norm>
-1.52693

>  <RMSD>
1.113

$$$$
ligand
 OpenBabel02271912153D
libRbt.so/2013.1/901 2013/11/27
 10 11  0  0  0  0  0  0  0  0999 V2000
    0.7733  -13.4524   12.2166 N   0  0  0  0  0  0  0  0  0  0  0  0
    1.6856  -13.5556   11.2745 C   0  0  0  0  0  0  0  0  0  0  0  0
    2.4223  -12.4237   10.9171 N   0  0  0  0  0  0  0  0  0  0  0  0
    2.2024  -11.2573   11.5192 C   0  0  0  0  0  0  0  0  0  0  0  0
    1.2846  -11.1564   12.4624 C   0  0  0  0  0  0  0  0  0  0  0  0
    0.5724  -12.2106   12.8146 C   0  0  0  0  0  0  0  0  0  0  0  0
   -0.2782  -12.0929   13.6855 O   0  0  0  0  0  0  0  0  0  0  0  0
    1.2613   -9.9015   12.9080 N   0  0  0  0  0  0  0  0  0  0  0  0
    2.1844   -9.2276   12.2312 C   0  0  0  0  0  0  0  0  0  0  0  0
    2.7640  -10.0681   11.3703 N   0  0  0  0  0  0  0  0  0  0  0  0
  1  2  1  0  0  0  0
  1  6  1  0  0  0  0
  2  3  2  0  0  0  0
  3  4  1  0  0  0  0
  4  5  2  0  0  0  0
  4 10  1  0  0  0  0
  5  6  1  0  0  0  0
  5  8  1  0  0  0  0
  6  7  2  0  0  0  0
  8  9  1  0  0  0  0
  9 10  2  0  0  0  0
M  END
>  <CHROM.1>
1.45310438,-11.54705804,12.16927516,-2.18383526,0.75139910,0.32141565

>  <Name>
ligand

>  <RI>
0

>  <Rbt.Current_Directory>
/home/itssahil/PROJECTS/Mol_Feturizer/Test_systems_manuscript/rnas/5c7w

>  <Rbt.Executable>
rbdock ($Id: //depot/dev/client3/rdock/2013.1/src/exe/rbdock.cxx#4 $)

>  <Rbt.Library>
libRbt.so (2013.1, Build901 2013/11/27)

>  <Rbt.Parameter_File>
/export/apps/rDock/src/rDock_2013.1_src/data/scripts/dock_solv.prm

>  <Rbt.Receptor>
prm/pocket_docking_3.prm

>  <SCORE>
-15.2686

>  <SCORE.INTER>
-15.2686

>  <SCORE.INTER.CONST>
1

>  <SCORE.INTER.POLAR>
0

>  <SCORE.INTER.ROT>
0

>  <SCORE.INTER.SOLV>
3.29715

>  <SCORE.INTER.VDW>
-14.8781

>  <SCORE.INTER.norm>
-1.52686

>  <SCORE.INTRA>
0

>  <SCORE.INTRA.DIHEDRAL>
0

>  <SCORE.INTRA.DIHEDRAL.0>
0

>  <SCORE.INTRA.POLAR>
0

>  <SCORE.INTRA.POLAR.0>
0

>  <SCORE.INTRA.REPUL>
0

>  <SCORE.INTRA.REPUL.0>
0

>  <SCORE.INTRA.SOLV>
0

>  <SCORE.INTRA.SOLV.lig_0>
-4.15853

>  <SCORE.INTRA.VDW>
0

>  <SCORE.INTRA.VDW.0>
0

>  <SCORE.INTRA.norm>
0

>  <SCORE.RESTR>
0

>  <SCORE.RESTR.CAVITY>
0

>  <SCORE.RESTR.norm>
0

>  <SCORE.SYSTEM>
0

>  <SCORE.SYSTEM.CONST>
0

>  <SCORE.SYSTEM.DIHEDRAL>
0

>  <SCORE.SYSTEM.SOLV>
0

>  <SCORE.SYSTEM.norm>
0

>  <SCORE.heavy>
10

>  <SCORE.norm>
-1.52686

>  <RMSD>
1.113

$$$$
ligand
 OpenBabel02271912153D
libRbt.so/2013.1/901 2013/11/27
 10 11  0  0  0  0  0  0  0  0999 V2000
    0.7750  -13.4494   12.2221 N   0  0  0  0  0  0  0  0  0  0  0  0
    1.6850  -13.5540   11.2778 C   0  0  0  0  0  0  0  0  0  0  0  0
    2.4223  -12.4230   10.9184 N   0  0  0  0  0  0  0  0  0  0  0  0
    2.2053  -11.2563   11.5208 C   0  0  0  0  0  0  0  0  0  0  0  0
    1.2898  -11.1540   12.4662 C   0  0  0  0  0  0  0  0  0  0  0  0
    0.5771  -12.2072   12.8202 C   0  0  0  0  0  0  0  0  0  0  0  0
   -0.2713  -12.0882   13.6931 O   0  0  0  0  0  0  0  0  0  0  0  0
    1.2692   -9.8990   12.9115 N   0  0  0  0  0  0  0  0  0  0  0  0
    2.1915   -9.2264   12.2323 C   0  0  0  0  0  0  0  0  0  0  0  0
    2.7680  -10.0679   11.3703 N   0  0  0  0  0  0  0  0  0  0  0  0
  1  2  1  0  0  0  0
  1  6  1  0  0  0  0
  2  3  2  0  0  0  0
  3  4  1  0  0  0  0
  4  5  2  0  0  0  0
  4 10  1  0  0  0  0
  5  6  1  0  0  0  0
  5  8  1  0  0  0  0
  6  7  2  0  0  0  0
  8  9  1  0  0  0  0
  9 10  2  0  0  0  0
M  END
>  <CHROM.1>
1.45714566,-11.54491873,12.17269056,-2.18651487,0.75323232,0.32301302

>  <Name>
ligand

>  <RI>
0

>  <Rbt.Current_Directory>
/home/itssahil/PROJECTS/Mol_Feturizer/Test_systems_manuscript/rnas/5c7w

>  <Rbt.Executable>
rbdock ($Id: //depot/dev/client3/rdock/2013.1/src/exe/rbdock.cxx#4 $)

>  <Rbt.Library>
libRbt.so (2013.1, Build901 2013/11/27)

>  <Rbt.Parameter_File>
/export/apps/rDock/src/rDock_2013.1_src/data/scripts/dock_solv.prm

>  <Rbt.Receptor>
prm/pocket_docking_3.prm

>  <SCORE>
-15.2689

>  <SCORE.INTER>
-15.2689

>  <SCORE.INTER.CONST>
1

>  <SCORE.INTER.POLAR>
0

>  <SCORE.INTER.ROT>
0

>  <SCORE.INTER.SOLV>
3.30163

>  <SCORE.INTER.VDW>
-14.8798

>  <SCORE.INTER.norm>
-1.52689

>  <SCORE.INTRA>
0

>  <SCORE.INTRA.DIHEDRAL>
0

>  <SCORE.INTRA.DIHEDRAL.0>
0

>  <SCORE.INTRA.POLAR>
0

>  <SCORE.INTRA.POLAR.0>
0

>  <SCORE.INTRA.REPUL>
0

>  <SCORE.INTRA.REPUL.0>
0

>  <SCORE.INTRA.SOLV>
0

>  <SCORE.INTRA.SOLV.lig_0>
-4.15853

>  <SCORE.INTRA.VDW>
0

>  <SCORE.INTRA.VDW.0>
0

>  <SCORE.INTRA.norm>
0

>  <SCORE.RESTR>
0

>  <SCORE.RESTR.CAVITY>
0

>  <SCORE.RESTR.norm>
0

>  <SCORE.SYSTEM>
0

>  <SCORE.SYSTEM.CONST>
0

>  <SCORE.SYSTEM.DIHEDRAL>
0

>  <SCORE.SYSTEM.SOLV>
0

>  <SCORE.SYSTEM.norm>
0

>  <SCORE.heavy>
10

>  <SCORE.norm>
-1.52689

>  <RMSD>
1.113

$$$$
ligand
 OpenBabel02271912153D
libRbt.so/2013.1/901 2013/11/27
 10 11  0  0  0  0  0  0  0  0999 V2000
    0.7752  -13.4532   12.2190 N   0  0  0  0  0  0  0  0  0  0  0  0
    1.6895  -13.5579   11.2790 C   0  0  0  0  0  0  0  0  0  0  0  0
    2.4280  -12.4268   10.9224 N   0  0  0  0  0  0  0  0  0  0  0  0
    2.2079  -11.2599   11.5233 C   0  0  0  0  0  0  0  0  0  0  0  0
    1.2881  -11.1575   12.4644 C   0  0  0  0  0  0  0  0  0  0  0  0
    0.5742  -12.2108   12.8157 C   0  0  0  0  0  0  0  0  0  0  0  0
   -0.2782  -12.0917   13.6847 O   0  0  0  0  0  0  0  0  0  0  0  0
    1.2650   -9.9023   12.9092 N   0  0  0  0  0  0  0  0  0  0  0  0
    2.1901   -9.2296   12.2339 C   0  0  0  0  0  0  0  0  0  0  0  0
    2.7708  -10.0713   11.3748 N   0  0  0  0  0  0  0  0  0  0  0  0
  1  2  1  0  0  0  0
  1  6  1  0  0  0  0
  2  3  2  0  0  0  0
  3  4  1  0  0  0  0
  4  5  2  0  0  0  0
  4 10  1  0  0  0  0
  5  6  1  0  0  0  0
  5  8  1  0  0  0  0
  6  7  2  0  0  0  0
  8  9  1  0  0  0  0
  9 10  2  0  0  0  0
M  END
>  <CHROM.1>
1.45689130,-11.54847901,12.17191077,-2.18406355,0.74905097,0.32090268

>  <Name>
ligand

>  <RI>
0

>  <Rbt.Current_Directory>
/home/itssahil/PROJECTS/Mol_Feturizer/Test_systems_manuscript/rnas/5c7w

>  <Rbt.Executable>
rbdock ($Id: //depot/dev/client3/rdock/2013.1/src/exe/rbdock.cxx#4 $)

>  <Rbt.Library>
libRbt.so (2013.1, Build901 2013/11/27)

>  <Rbt.Parameter_File>
/export/apps/rDock/src/rDock_2013.1_src/data/scripts/dock_solv.prm

>  <Rbt.Receptor>
prm/pocket_docking_3.prm

>  <SCORE>
-15.2684

>  <SCORE.INTER>
-15.2684

>  <SCORE.INTER.CONST>
1

>  <SCORE.INTER.POLAR>
0

>  <SCORE.INTER.ROT>
0

>  <SCORE.INTER.SOLV>
3.29232

>  <SCORE.INTER.VDW>
-14.8764

>  <SCORE.INTER.norm>
-1.52684

>  <SCORE.INTRA>
0

>  <SCORE.INTRA.DIHEDRAL>
0

>  <SCORE.INTRA.DIHEDRAL.0>
0

>  <SCORE.INTRA.POLAR>
0

>  <SCORE.INTRA.POLAR.0>
0

>  <SCORE.INTRA.REPUL>
0

>  <SCORE.INTRA.REPUL.0>
0

>  <SCORE.INTRA.SOLV>
0

>  <SCORE.INTRA.SOLV.lig_0>
-4.15853

>  <SCORE.INTRA.VDW>
0

>  <SCORE.INTRA.VDW.0>
0

>  <SCORE.INTRA.norm>
0

>  <SCORE.RESTR>
0

>  <SCORE.RESTR.CAVITY>
0

>  <SCORE.RESTR.norm>
0

>  <SCORE.SYSTEM>
0

>  <SCORE.SYSTEM.CONST>
0

>  <SCORE.SYSTEM.DIHEDRAL>
0

>  <SCORE.SYSTEM.SOLV>
0

>  <SCORE.SYSTEM.norm>
0

>  <SCORE.heavy>
10

>  <SCORE.norm>
-1.52684

>  <RMSD>
1.113

$$$$
ligand
 OpenBabel02271912153D
libRbt.so/2013.1/901 2013/11/27
 10 11  0  0  0  0  0  0  0  0999 V2000
    0.7717  -13.4491   12.2177 N   0  0  0  0  0  0  0  0  0  0  0  0
    1.6858  -13.5571   11.2778 C   0  0  0  0  0  0  0  0  0  0  0  0
    2.4305  -12.4294   10.9234 N   0  0  0  0  0  0  0  0  0  0  0  0
    2.2165  -11.2624   11.5263 C   0  0  0  0  0  0  0  0  0  0  0  0
    1.2969  -11.1567   12.4673 C   0  0  0  0  0  0  0  0  0  0  0  0
    0.5772  -12.2067   12.8165 C   0  0  0  0  0  0  0  0  0  0  0  0
   -0.2749  -12.0845   13.6854 O   0  0  0  0  0  0  0  0  0  0  0  0
    1.2804   -9.9021   12.9142 N   0  0  0  0  0  0  0  0  0  0  0  0
    2.2094   -9.2333   12.2404 C   0  0  0  0  0  0  0  0  0  0  0  0
    2.7858  -10.0766   11.3801 N   0  0  0  0  0  0  0  0  0  0  0  0
  1  2  1  0  0  0  0
  1  6  1  0  0  0  0
  2  3  2  0  0  0  0
  3  4  1  0  0  0  0
  4  5  2  0  0  0  0
  4 10  1  0  0  0  0
  5  6  1  0  0  0  0
  5  8  1  0  0  0  0
  6  7  2  0  0  0  0
  8  9  1  0  0  0  0
  9 10  2  0  0  0  0
M  END
>  <CHROM.1>
1.46367518,-11.54804772,12.17412428,-2.19088977,0.74699670,0.32728184

>  <Name>
ligand

>  <RI>
0

>  <Rbt.Current_Directory>
/home/itssahil/PROJECTS/Mol_Feturizer/Test_systems_manuscript/rnas/5c7w

>  <Rbt.Executable>
rbdock ($Id: //depot/dev/client3/rdock/2013.1/src/exe/rbdock.cxx#4 $)

>  <Rbt.Library>
libRbt.so (2013.1, Build901 2013/11/27)

>  <Rbt.Parameter_File>
/export/apps/rDock/src/rDock_2013.1_src/data/scripts/dock_solv.prm

>  <Rbt.Receptor>
prm/pocket_docking_4.prm

>  <SCORE>
-15.2667

>  <SCORE.INTER>
-15.2667

>  <SCORE.INTER.CONST>
1

>  <SCORE.INTER.POLAR>
0

>  <SCORE.INTER.ROT>
0

>  <SCORE.INTER.SOLV>
3.28447

>  <SCORE.INTER.VDW>
-14.8726

>  <SCORE.INTER.norm>
-1.52667

>  <SCORE.INTRA>
0

>  <SCORE.INTRA.DIHEDRAL>
0

>  <SCORE.INTRA.DIHEDRAL.0>
0

>  <SCORE.INTRA.POLAR>
0

>  <SCORE.INTRA.POLAR.0>
0

>  <SCORE.INTRA.REPUL>
0

>  <SCORE.INTRA.REPUL.0>
0

>  <SCORE.INTRA.SOLV>
0

>  <SCORE.INTRA.SOLV.lig_0>
-4.15853

>  <SCORE.INTRA.VDW>
0

>  <SCORE.INTRA.VDW.0>
0

>  <SCORE.INTRA.norm>
0

>  <SCORE.RESTR>
0

>  <SCORE.RESTR.CAVITY>
0

>  <SCORE.RESTR.norm>
0

>  <SCORE.SYSTEM>
0

>  <SCORE.SYSTEM.CONST>
0

>  <SCORE.SYSTEM.DIHEDRAL>
0

>  <SCORE.SYSTEM.SOLV>
0

>  <SCORE.SYSTEM.norm>
0

>  <SCORE.heavy>
10

>  <SCORE.norm>
-1.52667

>  <RMSD>
1.113

$$$$
ligand
 OpenBabel02271912153D
libRbt.so/2013.1/901 2013/11/27
 10 11  0  0  0  0  0  0  0  0999 V2000
    0.7733  -13.4498   12.2173 N   0  0  0  0  0  0  0  0  0  0  0  0
    1.6848  -13.5550   11.2746 C   0  0  0  0  0  0  0  0  0  0  0  0
    2.4244  -12.4248   10.9174 N   0  0  0  0  0  0  0  0  0  0  0  0
    2.2081  -11.2582   11.5204 C   0  0  0  0  0  0  0  0  0  0  0  0
    1.2910  -11.1553   12.4641 C   0  0  0  0  0  0  0  0  0  0  0  0
    0.5761  -12.2078   12.8161 C   0  0  0  0  0  0  0  0  0  0  0  0
   -0.2736  -12.0882   13.6875 O   0  0  0  0  0  0  0  0  0  0  0  0
    1.2714   -9.9006   12.9105 N   0  0  0  0  0  0  0  0  0  0  0  0
    2.1960   -9.2288   12.2335 C   0  0  0  0  0  0  0  0  0  0  0  0
    2.7728  -10.0705   11.3718 N   0  0  0  0  0  0  0  0  0  0  0  0
  1  2  1  0  0  0  0
  1  6  1  0  0  0  0
  2  3  2  0  0  0  0
  3  4  1  0  0  0  0
  4  5  2  0  0  0  0
  4 10  1  0  0  0  0
  5  6  1  0  0  0  0
  5  8  1  0  0  0  0
  6  7  2  0  0  0  0
  8  9  1  0  0  0  0
  9 10  2  0  0  0  0
M  END
>  <CHROM.1>
1.45833027,-11.54626626,12.17066635,-2.18764183,0.75105715,0.32458150

>  <Name>
ligand

>  <RI>
0

>  <Rbt.Current_Directory>
/home/itssahil/PROJECTS/Mol_Feturizer/Test_systems_manuscript/rnas/5c7w

>  <Rbt.Executable>
rbdock ($Id: //depot/dev/client3/rdock/2013.1/src/exe/rbdock.cxx#4 $)

>  <Rbt.Library>
libRbt.so (2013.1, Build901 2013/11/27)

>  <Rbt.Parameter_File>
/export/apps/rDock/src/rDock_2013.1_src/data/scripts/dock_solv.prm

>  <Rbt.Receptor>
prm/pocket_docking_4.prm

>  <SCORE>
-15.2695

>  <SCORE.INTER>
-15.2695

>  <SCORE.INTER.CONST>
1

>  <SCORE.INTER.POLAR>
0

>  <SCORE.INTER.ROT>
0

>  <SCORE.INTER.SOLV>
3.29452

>  <SCORE.INTER.VDW>
-14.8778

>  <SCORE.INTER.norm>
-1.52695

>  <SCORE.INTRA>
0

>  <SCORE.INTRA.DIHEDRAL>
0

>  <SCORE.INTRA.DIHEDRAL.0>
0

>  <SCORE.INTRA.POLAR>
0

>  <SCORE.INTRA.POLAR.0>
0

>  <SCORE.INTRA.REPUL>
0

>  <SCORE.INTRA.REPUL.0>
0

>  <SCORE.INTRA.SOLV>
0

>  <SCORE.INTRA.SOLV.lig_0>
-4.15853

>  <SCORE.INTRA.VDW>
0

>  <SCORE.INTRA.VDW.0>
0

>  <SCORE.INTRA.norm>
0

>  <SCORE.RESTR>
0

>  <SCORE.RESTR.CAVITY>
0

>  <SCORE.RESTR.norm>
0

>  <SCORE.SYSTEM>
0

>  <SCORE.SYSTEM.CONST>
0

>  <SCORE.SYSTEM.DIHEDRAL>
0

>  <SCORE.SYSTEM.SOLV>
0

>  <SCORE.SYSTEM.norm>
0

>  <SCORE.heavy>
10

>  <SCORE.norm>
-1.52695

>  <RMSD>
1.113

$$$$
ligand
 OpenBabel02271912153D
libRbt.so/2013.1/901 2013/11/27
 10 11  0  0  0  0  0  0  0  0999 V2000
    0.7730  -13.4524   12.2175 N   0  0  0  0  0  0  0  0  0  0  0  0
    1.6823  -13.5562   11.2725 C   0  0  0  0  0  0  0  0  0  0  0  0
    2.4196  -12.4250   10.9137 N   0  0  0  0  0  0  0  0  0  0  0  0
    2.2032  -11.2588   11.5174 C   0  0  0  0  0  0  0  0  0  0  0  0
    1.2883  -11.1573   12.4635 C   0  0  0  0  0  0  0  0  0  0  0  0
    0.5757  -12.2108   12.8170 C   0  0  0  0  0  0  0  0  0  0  0  0
   -0.2720  -12.0924   13.6906 O   0  0  0  0  0  0  0  0  0  0  0  0
    1.2682   -9.9027   12.9101 N   0  0  0  0  0  0  0  0  0  0  0  0
    2.1902   -9.2296   12.2309 C   0  0  0  0  0  0  0  0  0  0  0  0
    2.7659  -10.0703   11.3676 N   0  0  0  0  0  0  0  0  0  0  0  0
  1  2  1  0  0  0  0
  1  6  1  0  0  0  0
  2  3  2  0  0  0  0
  3  4  1  0  0  0  0
  4  5  2  0  0  0  0
  4 10  1  0  0  0  0
  5  6  1  0  0  0  0
  5  8  1  0  0  0  0
  6  7  2  0  0  0  0
  8  9  1  0  0  0  0
  9 10  2  0  0  0  0
M  END
>  <CHROM.1>
1.45543150,-11.54796862,12.16951242,-2.18702600,0.75385005,0.32433280

>  <Name>
ligand

>  <RI>
0

>  <Rbt.Current_Directory>
/home/itssahil/PROJECTS/Mol_Feturizer/Test_systems_manuscript/rnas/5c7w

>  <Rbt.Executable>
rbdock ($Id: //depot/dev/client3/rdock/2013.1/src/exe/rbdock.cxx#4 $)

>  <Rbt.Library>
libRbt.so (2013.1, Build901 2013/11/27)

>  <Rbt.Parameter_File>
/export/apps/rDock/src/rDock_2013.1_src/data/scripts/dock_solv.prm

>  <Rbt.Receptor>
prm/pocket_docking_4.prm

>  <SCORE>
-15.2697

>  <SCORE.INTER>
-15.2697

>  <SCORE.INTER.CONST>
1

>  <SCORE.INTER.POLAR>
0

>  <SCORE.INTER.ROT>
0

>  <SCORE.INTER.SOLV>
3.30271

>  <SCORE.INTER.VDW>
-14.8807

>  <SCORE.INTER.norm>
-1.52697

>  <SCORE.INTRA>
0

>  <SCORE.INTRA.DIHEDRAL>
0

>  <SCORE.INTRA.DIHEDRAL.0>
0

>  <SCORE.INTRA.POLAR>
0

>  <SCORE.INTRA.POLAR.0>
0

>  <SCORE.INTRA.REPUL>
0

>  <SCORE.INTRA.REPUL.0>
0

>  <SCORE.INTRA.SOLV>
0

>  <SCORE.INTRA.SOLV.lig_0>
-4.15853

>  <SCORE.INTRA.VDW>
0

>  <SCORE.INTRA.VDW.0>
0

>  <SCORE.INTRA.norm>
0

>  <SCORE.RESTR>
0

>  <SCORE.RESTR.CAVITY>
0

>  <SCORE.RESTR.norm>
0

>  <SCORE.SYSTEM>
0

>  <SCORE.SYSTEM.CONST>
0

>  <SCORE.SYSTEM.DIHEDRAL>
0

>  <SCORE.SYSTEM.SOLV>
0

>  <SCORE.SYSTEM.norm>
0

>  <SCORE.heavy>
10

>  <SCORE.norm>
-1.52697

>  <RMSD>
1.113

$$$$
ligand
 OpenBabel02271912153D
libRbt.so/2013.1/901 2013/11/27
 10 11  0  0  0  0  0  0  0  0999 V2000
    0.7736  -13.4532   12.2163 N   0  0  0  0  0  0  0  0  0  0  0  0
    1.6789  -13.5605   11.2679 C   0  0  0  0  0  0  0  0  0  0  0  0
    2.4164  -12.4312   10.9037 N   0  0  0  0  0  0  0  0  0  0  0  0
    2.2044  -11.2634   11.5058 C   0  0  0  0  0  0  0  0  0  0  0  0
    1.2935  -11.1584   12.4554 C   0  0  0  0  0  0  0  0  0  0  0  0
    0.5807  -12.2101   12.8140 C   0  0  0  0  0  0  0  0  0  0  0  0
   -0.2633  -12.0885   13.6908 O   0  0  0  0  0  0  0  0  0  0  0  0
    1.2772   -9.9029   12.8995 N   0  0  0  0  0  0  0  0  0  0  0  0
    2.1975   -9.2326   12.2151 C   0  0  0  0  0  0  0  0  0  0  0  0
    2.7684  -10.0761   11.3513 N   0  0  0  0  0  0  0  0  0  0  0  0
  1  2  1  0  0  0  0
  1  6  1  0  0  0  0
  2  3  2  0  0  0  0
  3  4  1  0  0  0  0
  4  5  2  0  0  0  0
  4 10  1  0  0  0  0
  5  6  1  0  0  0  0
  5  8  1  0  0  0  0
  6  7  2  0  0  0  0
  8  9  1  0  0  0  0
  9 10  2  0  0  0  0
M  END
>  <CHROM.1>
1.45881077,-11.54998779,12.16156859,-2.19086816,0.75721049,0.32489488

>  <Name>
ligand

>  <RI>
0

>  <Rbt.Current_Directory>
/home/itssahil/PROJECTS/Mol_Feturizer/Test_systems_manuscript/rnas/5c7w

>  <Rbt.Executable>
rbdock ($Id: //depot/dev/client3/rdock/2013.1/src/exe/rbdock.cxx#4 $)

>  <Rbt.Library>
libRbt.so (2013.1, Build901 2013/11/27)

>  <Rbt.Parameter_File>
/export/apps/rDock/src/rDock_2013.1_src/data/scripts/dock_solv.prm

>  <Rbt.Receptor>
prm/pocket_docking_5.prm

>  <SCORE>
-15.2368

>  <SCORE.INTER>
-15.2368

>  <SCORE.INTER.CONST>
1

>  <SCORE.INTER.POLAR>
0

>  <SCORE.INTER.ROT>
0

>  <SCORE.INTER.SOLV>
3.30524

>  <SCORE.INTER.VDW>
-14.8596

>  <SCORE.INTER.norm>
-1.52368

>  <SCORE.INTRA>
0

>  <SCORE.INTRA.DIHEDRAL>
0

>  <SCORE.INTRA.DIHEDRAL.0>
0

>  <SCORE.INTRA.POLAR>
0

>  <SCORE.INTRA.POLAR.0>
0

>  <SCORE.INTRA.REPUL>
0

>  <SCORE.INTRA.REPUL.0>
0

>  <SCORE.INTRA.SOLV>
0

>  <SCORE.INTRA.SOLV.lig_0>
-4.15853

>  <SCORE.INTRA.VDW>
0

>  <SCORE.INTRA.VDW.0>
0

>  <SCORE.INTRA.norm>
0

>  <SCORE.RESTR>
0

>  <SCORE.RESTR.CAVITY>
0

>  <SCORE.RESTR.norm>
0

>  <SCORE.SYSTEM>
0

>  <SCORE.SYSTEM.CONST>
0

>  <SCORE.SYSTEM.DIHEDRAL>
0

>  <SCORE.SYSTEM.SOLV>
0

>  <SCORE.SYSTEM.norm>
0

>  <SCORE.heavy>
10

>  <SCORE.norm>
-1.52368

>  <RMSD>
1.113

$$$$
ligand
 OpenBabel02271912153D
libRbt.so/2013.1/901 2013/11/27
 10 11  0  0  0  0  0  0  0  0999 V2000
    0.7740  -13.4563   12.2162 N   0  0  0  0  0  0  0  0  0  0  0  0
    1.6964  -13.5627   11.2843 C   0  0  0  0  0  0  0  0  0  0  0  0
    2.4407  -12.4332   10.9349 N   0  0  0  0  0  0  0  0  0  0  0  0
    2.2180  -11.2660   11.5345 C   0  0  0  0  0  0  0  0  0  0  0  0
    1.2900  -11.1619   12.4674 C   0  0  0  0  0  0  0  0  0  0  0  0
    0.5705  -12.2138   12.8117 C   0  0  0  0  0  0  0  0  0  0  0  0
   -0.2893  -12.0931   13.6731 O   0  0  0  0  0  0  0  0  0  0  0  0
    1.2659   -9.9069   12.9125 N   0  0  0  0  0  0  0  0  0  0  0  0
    2.1986   -9.2361   12.2458 C   0  0  0  0  0  0  0  0  0  0  0  0
    2.7849  -10.0787   11.3916 N   0  0  0  0  0  0  0  0  0  0  0  0
  1  2  1  0  0  0  0
  1  6  1  0  0  0  0
  2  3  2  0  0  0  0
  3  4  1  0  0  0  0
  4  5  2  0  0  0  0
  4 10  1  0  0  0  0
  5  6  1  0  0  0  0
  5  8  1  0  0  0  0
  6  7  2  0  0  0  0
  8  9  1  0  0  0  0
  9 10  2  0  0  0  0
M  END
>  <CHROM.1>
1.46051072,-11.55318128,12.17616627,-2.18326159,0.73983621,0.32085977

>  <Name>
ligand

>  <RI>
0

>  <Rbt.Current_Directory>
/home/itssahil/PROJECTS/Mol_Feturizer/Test_systems_manuscript/rnas/5c7w

>  <Rbt.Executable>
rbdock ($Id: //depot/dev/client3/rdock/2013.1/src/exe/rbdock.cxx#4 $)

>  <Rbt.Library>
libRbt.so (2013.1, Build901 2013/11/27)

>  <Rbt.Parameter_File>
/export/apps/rDock/src/rDock_2013.1_src/data/scripts/dock_solv.prm

>  <Rbt.Receptor>
prm/pocket_docking_5.prm

>  <SCORE>
-15.2606

>  <SCORE.INTER>
-15.2606

>  <SCORE.INTER.CONST>
1

>  <SCORE.INTER.POLAR>
0

>  <SCORE.INTER.ROT>
0

>  <SCORE.INTER.SOLV>
3.27264

>  <SCORE.INTER.VDW>
-14.8646

>  <SCORE.INTER.norm>
-1.52606

>  <SCORE.INTRA>
0

>  <SCORE.INTRA.DIHEDRAL>
0

>  <SCORE.INTRA.DIHEDRAL.0>
0

>  <SCORE.INTRA.POLAR>
0

>  <SCORE.INTRA.POLAR.0>
0

>  <SCORE.INTRA.REPUL>
0

>  <SCORE.INTRA.REPUL.0>
0

>  <SCORE.INTRA.SOLV>
0

>  <SCORE.INTRA.SOLV.lig_0>
-4.15853

>  <SCORE.INTRA.VDW>
0

>  <SCORE.INTRA.VDW.0>
0

>  <SCORE.INTRA.norm>
0

>  <SCORE.RESTR>
0

>  <SCORE.RESTR.CAVITY>
0

>  <SCORE.RESTR.norm>
0

>  <SCORE.SYSTEM>
0

>  <SCORE.SYSTEM.CONST>
0

>  <SCORE.SYSTEM.DIHEDRAL>
0

>  <SCORE.SYSTEM.SOLV>
0

>  <SCORE.SYSTEM.norm>
0

>  <SCORE.heavy>
10

>  <SCORE.norm>
-1.52606

>  <RMSD>
1.113

$$$$
ligand
 OpenBabel02271912153D
libRbt.so/2013.1/901 2013/11/27
 10 11  0  0  0  0  0  0  0  0999 V2000
    0.7765  -13.4493   12.2227 N   0  0  0  0  0  0  0  0  0  0  0  0
    1.6874  -13.5539   11.2793 C   0  0  0  0  0  0  0  0  0  0  0  0
    2.4234  -12.4224   10.9189 N   0  0  0  0  0  0  0  0  0  0  0  0
    2.2044  -11.2551   11.5196 C   0  0  0  0  0  0  0  0  0  0  0  0
    1.2880  -11.1528   12.4641 C   0  0  0  0  0  0  0  0  0  0  0  0
    0.5765  -12.2066   12.8191 C   0  0  0  0  0  0  0  0  0  0  0  0
   -0.2728  -12.0875   13.6911 O   0  0  0  0  0  0  0  0  0  0  0  0
    1.2653   -9.8972   12.9078 N   0  0  0  0  0  0  0  0  0  0  0  0
    2.1872   -9.2243   12.2284 C   0  0  0  0  0  0  0  0  0  0  0  0
    2.7655  -10.0661   11.3680 N   0  0  0  0  0  0  0  0  0  0  0  0
  1  2  1  0  0  0  0
  1  6  1  0  0  0  0
  2  3  2  0  0  0  0
  3  4  1  0  0  0  0
  4  5  2  0  0  0  0
  4 10  1  0  0  0  0
  5  6  1  0  0  0  0
  5  8  1  0  0  0  0
  6  7  2  0  0  0  0
  8  9  1  0  0  0  0
  9 10  2  0  0  0  0
M  END
>  <CHROM.1>
1.45608516,-11.54390831,12.17131943,-2.18438444,0.75293993,0.32022789

>  <Name>
ligand

>  <RI>
0

>  <Rbt.Current_Directory>
/home/itssahil/PROJECTS/Mol_Feturizer/Test_systems_manuscript/rnas/5c7w

>  <Rbt.Executable>
rbdock ($Id: //depot/dev/client3/rdock/2013.1/src/exe/rbdock.cxx#4 $)

>  <Rbt.Library>
libRbt.so (2013.1, Build901 2013/11/27)

>  <Rbt.Parameter_File>
/export/apps/rDock/src/rDock_2013.1_src/data/scripts/dock_solv.prm

>  <Rbt.Receptor>
prm/pocket_docking_5.prm

>  <SCORE>
-15.2685

>  <SCORE.INTER>
-15.2685

>  <SCORE.INTER.CONST>
1

>  <SCORE.INTER.POLAR>
0

>  <SCORE.INTER.ROT>
0

>  <SCORE.INTER.SOLV>
3.3004

>  <SCORE.INTER.VDW>
-14.8792

>  <SCORE.INTER.norm>
-1.52685

>  <SCORE.INTRA>
0

>  <SCORE.INTRA.DIHEDRAL>
0

>  <SCORE.INTRA.DIHEDRAL.0>
0

>  <SCORE.INTRA.POLAR>
0

>  <SCORE.INTRA.POLAR.0>
0

>  <SCORE.INTRA.REPUL>
0

>  <SCORE.INTRA.REPUL.0>
0

>  <SCORE.INTRA.SOLV>
0

>  <SCORE.INTRA.SOLV.lig_0>
-4.15853

>  <SCORE.INTRA.VDW>
0

>  <SCORE.INTRA.VDW.0>
0

>  <SCORE.INTRA.norm>
0

>  <SCORE.RESTR>
0

>  <SCORE.RESTR.CAVITY>
0

>  <SCORE.RESTR.norm>
0

>  <SCORE.SYSTEM>
0

>  <SCORE.SYSTEM.CONST>
0

>  <SCORE.SYSTEM.DIHEDRAL>
0

>  <SCORE.SYSTEM.SOLV>
0

>  <SCORE.SYSTEM.norm>
0

>  <SCORE.heavy>
10

>  <SCORE.norm>
-1.52685

>  <RMSD>
1.113

$$$$
ligand
 OpenBabel02271912153D
libRbt.so/2013.1/901 2013/11/27
 10 11  0  0  0  0  0  0  0  0999 V2000
    0.7724  -13.4452   12.2128 N   0  0  0  0  0  0  0  0  0  0  0  0
    1.6949  -13.5530   11.2812 C   0  0  0  0  0  0  0  0  0  0  0  0
    2.4406  -12.4245   10.9315 N   0  0  0  0  0  0  0  0  0  0  0  0
    2.2191  -11.2568   11.5305 C   0  0  0  0  0  0  0  0  0  0  0  0
    1.2911  -11.1513   12.4632 C   0  0  0  0  0  0  0  0  0  0  0  0
    0.5703  -12.2022   12.8079 C   0  0  0  0  0  0  0  0  0  0  0  0
   -0.2896  -12.0801   13.6691 O   0  0  0  0  0  0  0  0  0  0  0  0
    1.2683   -9.8961   12.9079 N   0  0  0  0  0  0  0  0  0  0  0  0
    2.2020   -9.2266   12.2412 C   0  0  0  0  0  0  0  0  0  0  0  0
    2.7875  -10.0702   11.3873 N   0  0  0  0  0  0  0  0  0  0  0  0
  1  2  1  0  0  0  0
  1  6  1  0  0  0  0
  2  3  2  0  0  0  0
  3  4  1  0  0  0  0
  4  5  2  0  0  0  0
  4 10  1  0  0  0  0
  5  6  1  0  0  0  0
  5  8  1  0  0  0  0
  6  7  2  0  0  0  0
  8  9  1  0  0  0  0
  9 10  2  0  0  0  0
M  END
>  <CHROM.1>
1.46117149,-11.54286707,12.17220873,-2.18468961,0.73928634,0.32144690

>  <Name>
ligand

>  <RI>
0

>  <Rbt.Current_Directory>
/home/itssahil/PROJECTS/Mol_Feturizer/Test_systems_manuscript/rnas/5c7w

>  <Rbt.Executable>
rbdock ($Id: //depot/dev/client3/rdock/2013.1/src/exe/rbdock.cxx#4 $)

>  <Rbt.Library>
libRbt.so (2013.1, Build901 2013/11/27)

>  <Rbt.Parameter_File>
/export/apps/rDock/src/rDock_2013.1_src/data/scripts/dock_solv.prm

>  <Rbt.Receptor>
prm/pocket_docking_6.prm

>  <SCORE>
-15.2628

>  <SCORE.INTER>
-15.2628

>  <SCORE.INTER.CONST>
1

>  <SCORE.INTER.POLAR>
0

>  <SCORE.INTER.ROT>
0

>  <SCORE.INTER.SOLV>
3.26258

>  <SCORE.INTER.VDW>
-14.8627

>  <SCORE.INTER.norm>
-1.52628

>  <SCORE.INTRA>
0

>  <SCORE.INTRA.DIHEDRAL>
0

>  <SCORE.INTRA.DIHEDRAL.0>
0

>  <SCORE.INTRA.POLAR>
0

>  <SCORE.INTRA.POLAR.0>
0

>  <SCORE.INTRA.REPUL>
0

>  <SCORE.INTRA.REPUL.0>
0

>  <SCORE.INTRA.SOLV>
0

>  <SCORE.INTRA.SOLV.lig_0>
-4.15853

>  <SCORE.INTRA.VDW>
0

>  <SCORE.INTRA.VDW.0>
0

>  <SCORE.INTRA.norm>
0

>  <SCORE.RESTR>
0

>  <SCORE.RESTR.CAVITY>
0

>  <SCORE.RESTR.norm>
0

>  <SCORE.SYSTEM>
0

>  <SCORE.SYSTEM.CONST>
0

>  <SCORE.SYSTEM.DIHEDRAL>
0

>  <SCORE.SYSTEM.SOLV>
0

>  <SCORE.SYSTEM.norm>
0

>  <SCORE.heavy>
10

>  <SCORE.norm>
-1.52628

>  <RMSD>
1.113

$$$$
ligand
 OpenBabel02271912153D
libRbt.so/2013.1/901 2013/11/27
 10 11  0  0  0  0  0  0  0  0999 V2000
    0.7768  -13.4533   12.2216 N   0  0  0  0  0  0  0  0  0  0  0  0
    1.6906  -13.5575   11.2810 C   0  0  0  0  0  0  0  0  0  0  0  0
    2.4276  -12.4258   10.9233 N   0  0  0  0  0  0  0  0  0  0  0  0
    2.2066  -11.2588   11.5237 C   0  0  0  0  0  0  0  0  0  0  0  0
    1.2872  -11.1568   12.4654 C   0  0  0  0  0  0  0  0  0  0  0  0
    0.5747  -12.2108   12.8178 C   0  0  0  0  0  0  0  0  0  0  0  0
   -0.2772  -12.0921   13.6873 O   0  0  0  0  0  0  0  0  0  0  0  0
    1.2630   -9.9014   12.9094 N   0  0  0  0  0  0  0  0  0  0  0  0
    2.1870   -9.2281   12.2331 C   0  0  0  0  0  0  0  0  0  0  0  0
    2.7681  -10.0696   11.3742 N   0  0  0  0  0  0  0  0  0  0  0  0
  1  2  1  0  0  0  0
  1  6  1  0  0  0  0
  2  3  2  0  0  0  0
  3  4  1  0  0  0  0
  4  5  2  0  0  0  0
  4 10  1  0  0  0  0
  5  6  1  0  0  0  0
  5  8  1  0  0  0  0
  6  7  2  0  0  0  0
  8  9  1  0  0  0  0
  9 10  2  0  0  0  0
M  END
>  <CHROM.1>
1.45631350,-11.54781896,12.17298379,-2.18291672,0.75002722,0.31954746

>  <Name>
ligand

>  <RI>
0

>  <Rbt.Current_Directory>
/home/itssahil/PROJECTS/Mol_Feturizer/Test_systems_manuscript/rnas/5c7w

>  <Rbt.Executable>
rbdock ($Id: //depot/dev/client3/rdock/2013.1/src/exe/rbdock.cxx#4 $)

>  <Rbt.Library>
libRbt.so (2013.1, Build901 2013/11/27)

>  <Rbt.Parameter_File>
/export/apps/rDock/src/rDock_2013.1_src/data/scripts/dock_solv.prm

>  <Rbt.Receptor>
prm/pocket_docking_6.prm

>  <SCORE>
-15.268

>  <SCORE.INTER>
-15.268

>  <SCORE.INTER.CONST>
1

>  <SCORE.INTER.POLAR>
0

>  <SCORE.INTER.ROT>
0

>  <SCORE.INTER.SOLV>
3.29583

>  <SCORE.INTER.VDW>
-14.8773

>  <SCORE.INTER.norm>
-1.5268

>  <SCORE.INTRA>
0

>  <SCORE.INTRA.DIHEDRAL>
0

>  <SCORE.INTRA.DIHEDRAL.0>
0

>  <SCORE.INTRA.POLAR>
0

>  <SCORE.INTRA.POLAR.0>
0

>  <SCORE.INTRA.REPUL>
0

>  <SCORE.INTRA.REPUL.0>
0

>  <SCORE.INTRA.SOLV>
0

>  <SCORE.INTRA.SOLV.lig_0>
-4.15853

>  <SCORE.INTRA.VDW>
0

>  <SCORE.INTRA.VDW.0>
0

>  <SCORE.INTRA.norm>
0

>  <SCORE.RESTR>
0

>  <SCORE.RESTR.CAVITY>
0

>  <SCORE.RESTR.norm>
0

>  <SCORE.SYSTEM>
0

>  <SCORE.SYSTEM.CONST>
0

>  <SCORE.SYSTEM.DIHEDRAL>
0

>  <SCORE.SYSTEM.SOLV>
0

>  <SCORE.SYSTEM.norm>
0

>  <SCORE.heavy>
10

>  <SCORE.norm>
-1.5268

>  <RMSD>
1.113

$$$$
ligand
 OpenBabel02271912153D
libRbt.so/2013.1/901 2013/11/27
 10 11  0  0  0  0  0  0  0  0999 V2000
    0.7691  -13.4497   12.2089 N   0  0  0  0  0  0  0  0  0  0  0  0
    1.6881  -13.5554   11.2735 C   0  0  0  0  0  0  0  0  0  0  0  0
    2.4323  -12.4260   10.9233 N   0  0  0  0  0  0  0  0  0  0  0  0
    2.2129  -11.2597   11.5257 C   0  0  0  0  0  0  0  0  0  0  0  0
    1.2884  -11.1563   12.4622 C   0  0  0  0  0  0  0  0  0  0  0  0
    0.5691  -12.2081   12.8074 C   0  0  0  0  0  0  0  0  0  0  0  0
   -0.2874  -12.0880   13.6721 O   0  0  0  0  0  0  0  0  0  0  0  0
    1.2672   -9.9021   12.9096 N   0  0  0  0  0  0  0  0  0  0  0  0
    2.1982   -9.2310   12.2408 C   0  0  0  0  0  0  0  0  0  0  0  0
    2.7806  -10.0727   11.3829 N   0  0  0  0  0  0  0  0  0  0  0  0
  1  2  1  0  0  0  0
  1  6  1  0  0  0  0
  2  3  2  0  0  0  0
  3  4  1  0  0  0  0
  4  5  2  0  0  0  0
  4 10  1  0  0  0  0
  5  6  1  0  0  0  0
  5  8  1  0  0  0  0
  6  7  2  0  0  0  0
  8  9  1  0  0  0  0
  9 10  2  0  0  0  0
M  END
>  <CHROM.1>
1.45748570,-11.54725512,12.16969412,-2.18615585,0.74297413,0.32457733

>  <Name>
ligand

>  <RI>
0

>  <Rbt.Current_Directory>
/home/itssahil/PROJECTS/Mol_Feturizer/Test_systems_manuscript/rnas/5c7w

>  <Rbt.Executable>
rbdock ($Id: //depot/dev/client3/rdock/2013.1/src/exe/rbdock.cxx#4 $)

>  <Rbt.Library>
libRbt.so (2013.1, Build901 2013/11/27)

>  <Rbt.Parameter_File>
/export/apps/rDock/src/rDock_2013.1_src/data/scripts/dock_solv.prm

>  <Rbt.Receptor>
prm/pocket_docking_6.prm

>  <SCORE>
-15.2657

>  <SCORE.INTER>
-15.2657

>  <SCORE.INTER.CONST>
1

>  <SCORE.INTER.POLAR>
0

>  <SCORE.INTER.ROT>
0

>  <SCORE.INTER.SOLV>
3.27322

>  <SCORE.INTER.VDW>
-14.8682

>  <SCORE.INTER.norm>
-1.52657

>  <SCORE.INTRA>
0

>  <SCORE.INTRA.DIHEDRAL>
0

>  <SCORE.INTRA.DIHEDRAL.0>
0

>  <SCORE.INTRA.POLAR>
0

>  <SCORE.INTRA.POLAR.0>
0

>  <SCORE.INTRA.REPUL>
0

>  <SCORE.INTRA.REPUL.0>
0

>  <SCORE.INTRA.SOLV>
0

>  <SCORE.INTRA.SOLV.lig_0>
-4.15853

>  <SCORE.INTRA.VDW>
0

>  <SCORE.INTRA.VDW.0>
0

>  <SCORE.INTRA.norm>
0

>  <SCORE.RESTR>
0

>  <SCORE.RESTR.CAVITY>
0

>  <SCORE.RESTR.norm>
0

>  <SCORE.SYSTEM>
0

>  <SCORE.SYSTEM.CONST>
0

>  <SCORE.SYSTEM.DIHEDRAL>
0

>  <SCORE.SYSTEM.SOLV>
0

>  <SCORE.SYSTEM.norm>
0

>  <SCORE.heavy>
10

>  <SCORE.norm>
-1.52657

>  <RMSD>
1.113

$$$$
ligand
 OpenBabel02271912153D
libRbt.so/2013.1/901 2013/11/27
 10 11  0  0  0  0  0  0  0  0999 V2000
    0.7755  -13.4520   12.2156 N   0  0  0  0  0  0  0  0  0  0  0  0
    1.6851  -13.5606   11.2714 C   0  0  0  0  0  0  0  0  0  0  0  0
    2.4226  -12.4312   10.9072 N   0  0  0  0  0  0  0  0  0  0  0  0
    2.2061  -11.2621   11.5051 C   0  0  0  0  0  0  0  0  0  0  0  0
    1.2909  -11.1558   12.4503 C   0  0  0  0  0  0  0  0  0  0  0  0
    0.5781  -12.2074   12.8089 C   0  0  0  0  0  0  0  0  0  0  0  0
   -0.2699  -12.0847   13.6816 O   0  0  0  0  0  0  0  0  0  0  0  0
    1.2707   -9.8990   12.8907 N   0  0  0  0  0  0  0  0  0  0  0  0
    2.1930   -9.2293   12.2084 C   0  0  0  0  0  0  0  0  0  0  0  0
    2.7689  -10.0743   11.3496 N   0  0  0  0  0  0  0  0  0  0  0  0
  1  2  1  0  0  0  0
  1  6  1  0  0  0  0
  2  3  2  0  0  0  0
  3  4  1  0  0  0  0
  4  5  2  0  0  0  0
  4 10  1  0  0  0  0
  5  6  1  0  0  0  0
  5  8  1  0  0  0  0
  6  7  2  0  0  0  0
  8  9  1  0  0  0  0
  9 10  2  0  0  0  0
M  END
>  <CHROM.1>
1.45806398,-11.54788778,12.15834696,-2.18695947,0.75351954,0.31932078

>  <Name>
ligand

>  <RI>
0

>  <Rbt.Current_Directory>
/home/itssahil/PROJECTS/Mol_Feturizer/Test_systems_manuscript/rnas/5c7w

>  <Rbt.Executable>
rbdock ($Id: //depot/dev/client3/rdock/2013.1/src/exe/rbdock.cxx#4 $)

>  <Rbt.Library>
libRbt.so (2013.1, Build901 2013/11/27)

>  <Rbt.Parameter_File>
/export/apps/rDock/src/rDock_2013.1_src/data/scripts/dock_solv.prm

>  <Rbt.Receptor>
prm/pocket_docking_6.prm

>  <SCORE>
-15.237

>  <SCORE.INTER>
-15.237

>  <SCORE.INTER.CONST>
1

>  <SCORE.INTER.POLAR>
0

>  <SCORE.INTER.ROT>
0

>  <SCORE.INTER.SOLV>
3.29383

>  <SCORE.INTER.VDW>
-14.8559

>  <SCORE.INTER.norm>
-1.5237

>  <SCORE.INTRA>
0

>  <SCORE.INTRA.DIHEDRAL>
0

>  <SCORE.INTRA.DIHEDRAL.0>
0

>  <SCORE.INTRA.POLAR>
0

>  <SCORE.INTRA.POLAR.0>
0

>  <SCORE.INTRA.REPUL>
0

>  <SCORE.INTRA.REPUL.0>
0

>  <SCORE.INTRA.SOLV>
0

>  <SCORE.INTRA.SOLV.lig_0>
-4.15853

>  <SCORE.INTRA.VDW>
0

>  <SCORE.INTRA.VDW.0>
0

>  <SCORE.INTRA.norm>
0

>  <SCORE.RESTR>
0

>  <SCORE.RESTR.CAVITY>
0

>  <SCORE.RESTR.norm>
0

>  <SCORE.SYSTEM>
0

>  <SCORE.SYSTEM.CONST>
0

>  <SCORE.SYSTEM.DIHEDRAL>
0

>  <SCORE.SYSTEM.SOLV>
0

>  <SCORE.SYSTEM.norm>
0

>  <SCORE.heavy>
10

>  <SCORE.norm>
-1.5237

>  <RMSD>
1.113

$$$$
ligand
 OpenBabel02271912153D
libRbt.so/2013.1/901 2013/11/27
 10 11  0  0  0  0  0  0  0  0999 V2000
    0.7712  -13.4542   12.2120 N   0  0  0  0  0  0  0  0  0  0  0  0
    1.6858  -13.5584   11.2722 C   0  0  0  0  0  0  0  0  0  0  0  0
    2.4267  -12.4280   10.9187 N   0  0  0  0  0  0  0  0  0  0  0  0
    2.2087  -11.2621   11.5223 C   0  0  0  0  0  0  0  0  0  0  0  0
    1.2886  -11.1601   12.4633 C   0  0  0  0  0  0  0  0  0  0  0  0
    0.5724  -12.2129   12.8117 C   0  0  0  0  0  0  0  0  0  0  0  0
   -0.2802  -12.0941   13.6805 O   0  0  0  0  0  0  0  0  0  0  0  0
    1.2678   -9.9060   12.9110 N   0  0  0  0  0  0  0  0  0  0  0  0
    2.1947   -9.2335   12.2378 C   0  0  0  0  0  0  0  0  0  0  0  0
    2.7740  -10.0743   11.3770 N   0  0  0  0  0  0  0  0  0  0  0  0
  1  2  1  0  0  0  0
  1  6  1  0  0  0  0
  2  3  2  0  0  0  0
  3  4  1  0  0  0  0
  4  5  2  0  0  0  0
  4 10  1  0  0  0  0
  5  6  1  0  0  0  0
  5  8  1  0  0  0  0
  6  7  2  0  0  0  0
  8  9  1  0  0  0  0
  9 10  2  0  0  0  0
M  END
>  <CHROM.1>
1.45676563,-11.55075003,12.16987493,-2.18647267,0.74795952,0.32496932

>  <Name>
ligand

>  <RI>
0

>  <Rbt.Current_Directory>
/home/itssahil/PROJECTS/Mol_Feturizer/Test_systems_manuscript/rnas/5c7w

>  <Rbt.Executable>
rbdock ($Id: //depot/dev/client3/rdock/2013.1/src/exe/rbdock.cxx#4 $)

>  <Rbt.Library>
libRbt.so (2013.1, Build901 2013/11/27)

>  <Rbt.Parameter_File>
/export/apps/rDock/src/rDock_2013.1_src/data/scripts/dock_solv.prm

>  <Rbt.Receptor>
prm/pocket_docking_7.prm

>  <SCORE>
-15.2684

>  <SCORE.INTER>
-15.2684

>  <SCORE.INTER.CONST>
1

>  <SCORE.INTER.POLAR>
0

>  <SCORE.INTER.ROT>
0

>  <SCORE.INTER.SOLV>
3.28832

>  <SCORE.INTER.VDW>
-14.875

>  <SCORE.INTER.norm>
-1.52684

>  <SCORE.INTRA>
0

>  <SCORE.INTRA.DIHEDRAL>
0

>  <SCORE.INTRA.DIHEDRAL.0>
0

>  <SCORE.INTRA.POLAR>
0

>  <SCORE.INTRA.POLAR.0>
0

>  <SCORE.INTRA.REPUL>
0

>  <SCORE.INTRA.REPUL.0>
0

>  <SCORE.INTRA.SOLV>
0

>  <SCORE.INTRA.SOLV.lig_0>
-4.15853

>  <SCORE.INTRA.VDW>
0

>  <SCORE.INTRA.VDW.0>
0

>  <SCORE.INTRA.norm>
0

>  <SCORE.RESTR>
0

>  <SCORE.RESTR.CAVITY>
0

>  <SCORE.RESTR.norm>
0

>  <SCORE.SYSTEM>
0

>  <SCORE.SYSTEM.CONST>
0

>  <SCORE.SYSTEM.DIHEDRAL>
0

>  <SCORE.SYSTEM.SOLV>
0

>  <SCORE.SYSTEM.norm>
0

>  <SCORE.heavy>
10

>  <SCORE.norm>
-1.52684

>  <RMSD>
1.113

$$$$
ligand
 OpenBabel02271912153D
libRbt.so/2013.1/901 2013/11/27
 10 11  0  0  0  0  0  0  0  0999 V2000
    0.7734  -13.4531   12.2178 N   0  0  0  0  0  0  0  0  0  0  0  0
    1.6875  -13.5590   11.2776 C   0  0  0  0  0  0  0  0  0  0  0  0
    2.4286  -12.4292   10.9221 N   0  0  0  0  0  0  0  0  0  0  0  0
    2.2112  -11.2624   11.5242 C   0  0  0  0  0  0  0  0  0  0  0  0
    1.2917  -11.1588   12.4655 C   0  0  0  0  0  0  0  0  0  0  0  0
    0.5753  -12.2108   12.8157 C   0  0  0  0  0  0  0  0  0  0  0  0
   -0.2767  -12.0906   13.6849 O   0  0  0  0  0  0  0  0  0  0  0  0
    1.2716   -9.9040   12.9114 N   0  0  0  0  0  0  0  0  0  0  0  0
    2.1983   -9.2328   12.2368 C   0  0  0  0  0  0  0  0  0  0  0  0
    2.7769  -10.0750   11.3769 N   0  0  0  0  0  0  0  0  0  0  0  0
  1  2  1  0  0  0  0
  1  6  1  0  0  0  0
  2  3  2  0  0  0  0
  3  4  1  0  0  0  0
  4  5  2  0  0  0  0
  4 10  1  0  0  0  0
  5  6  1  0  0  0  0
  5  8  1  0  0  0  0
  6  7  2  0  0  0  0
  8  9  1  0  0  0  0
  9 10  2  0  0  0  0
M  END
>  <CHROM.1>
1.45958379,-11.54991129,12.17254284,-2.18713373,0.74834708,0.32399837

>  <Name>
ligand

>  <RI>
0

>  <Rbt.Current_Directory>
/home/itssahil/PROJECTS/Mol_Feturizer/Test_systems_manuscript/rnas/5c7w

>  <Rbt.Executable>
rbdock ($Id: //depot/dev/client3/rdock/2013.1/src/exe/rbdock.cxx#4 $)

>  <Rbt.Library>
libRbt.so (2013.1, Build901 2013/11/27)

>  <Rbt.Parameter_File>
/export/apps/rDock/src/rDock_2013.1_src/data/scripts/dock_solv.prm

>  <Rbt.Receptor>
prm/pocket_docking_7.prm

>  <SCORE>
-15.2684

>  <SCORE.INTER>
-15.2684

>  <SCORE.INTER.CONST>
1

>  <SCORE.INTER.POLAR>
0

>  <SCORE.INTER.ROT>
0

>  <SCORE.INTER.SOLV>
3.28992

>  <SCORE.INTER.VDW>
-14.8756

>  <SCORE.INTER.norm>
-1.52684

>  <SCORE.INTRA>
0

>  <SCORE.INTRA.DIHEDRAL>
0

>  <SCORE.INTRA.DIHEDRAL.0>
0

>  <SCORE.INTRA.POLAR>
0

>  <SCORE.INTRA.POLAR.0>
0

>  <SCORE.INTRA.REPUL>
0

>  <SCORE.INTRA.REPUL.0>
0

>  <SCORE.INTRA.SOLV>
0

>  <SCORE.INTRA.SOLV.lig_0>
-4.15853

>  <SCORE.INTRA.VDW>
0

>  <SCORE.INTRA.VDW.0>
0

>  <SCORE.INTRA.norm>
0

>  <SCORE.RESTR>
0

>  <SCORE.RESTR.CAVITY>
0

>  <SCORE.RESTR.norm>
0

>  <SCORE.SYSTEM>
0

>  <SCORE.SYSTEM.CONST>
0

>  <SCORE.SYSTEM.DIHEDRAL>
0

>  <SCORE.SYSTEM.SOLV>
0

>  <SCORE.SYSTEM.norm>
0

>  <SCORE.heavy>
10

>  <SCORE.norm>
-1.52684

>  <RMSD>
1.113

$$$$
ligand
 OpenBabel02271912153D
libRbt.so/2013.1/901 2013/11/27
 10 11  0  0  0  0  0  0  0  0999 V2000
    0.7737  -13.4525   12.2197 N   0  0  0  0  0  0  0  0  0  0  0  0
    1.6858  -13.5581   11.2776 C   0  0  0  0  0  0  0  0  0  0  0  0
    2.4262  -12.4283   10.9209 N   0  0  0  0  0  0  0  0  0  0  0  0
    2.2101  -11.2617   11.5238 C   0  0  0  0  0  0  0  0  0  0  0  0
    1.2925  -11.1583   12.4670 C   0  0  0  0  0  0  0  0  0  0  0  0
    0.5768  -12.2105   12.8184 C   0  0  0  0  0  0  0  0  0  0  0  0
   -0.2735  -12.0905   13.6893 O   0  0  0  0  0  0  0  0  0  0  0  0
    1.2732   -9.9037   12.9133 N   0  0  0  0  0  0  0  0  0  0  0  0
    2.1986   -9.2323   12.2370 C   0  0  0  0  0  0  0  0  0  0  0  0
    2.7755  -10.0742   11.3757 N   0  0  0  0  0  0  0  0  0  0  0  0
  1  2  1  0  0  0  0
  1  6  1  0  0  0  0
  2  3  2  0  0  0  0
  3  4  1  0  0  0  0
  4  5  2  0  0  0  0
  4 10  1  0  0  0  0
  5  6  1  0  0  0  0
  5  8  1  0  0  0  0
  6  7  2  0  0  0  0
  8  9  1  0  0  0  0
  9 10  2  0  0  0  0
M  END
>  <CHROM.1>
1.45975472,-11.54936152,12.17358198,-2.18801130,0.75027762,0.32487935

>  <Name>
ligand

>  <RI>
0

>  <Rbt.Current_Directory>
/home/itssahil/PROJECTS/Mol_Feturizer/Test_systems_manuscript/rnas/5c7w

>  <Rbt.Executable>
rbdock ($Id: //depot/dev/client3/rdock/2013.1/src/exe/rbdock.cxx#4 $)

>  <Rbt.Library>
libRbt.so (2013.1, Build901 2013/11/27)

>  <Rbt.Parameter_File>
/export/apps/rDock/src/rDock_2013.1_src/data/scripts/dock_solv.prm

>  <Rbt.Receptor>
prm/pocket_docking_7.prm

>  <SCORE>
-15.2687

>  <SCORE.INTER>
-15.2687

>  <SCORE.INTER.CONST>
1

>  <SCORE.INTER.POLAR>
0

>  <SCORE.INTER.ROT>
0

>  <SCORE.INTER.SOLV>
3.29522

>  <SCORE.INTER.VDW>
-14.8775

>  <SCORE.INTER.norm>
-1.52687

>  <SCORE.INTRA>
0

>  <SCORE.INTRA.DIHEDRAL>
0

>  <SCORE.INTRA.DIHEDRAL.0>
0

>  <SCORE.INTRA.POLAR>
0

>  <SCORE.INTRA.POLAR.0>
0

>  <SCORE.INTRA.REPUL>
0

>  <SCORE.INTRA.REPUL.0>
0

>  <SCORE.INTRA.SOLV>
0

>  <SCORE.INTRA.SOLV.lig_0>
-4.15853

>  <SCORE.INTRA.VDW>
0

>  <SCORE.INTRA.VDW.0>
0

>  <SCORE.INTRA.norm>
0

>  <SCORE.RESTR>
0

>  <SCORE.RESTR.CAVITY>
0

>  <SCORE.RESTR.norm>
0

>  <SCORE.SYSTEM>
0

>  <SCORE.SYSTEM.CONST>
0

>  <SCORE.SYSTEM.DIHEDRAL>
0

>  <SCORE.SYSTEM.SOLV>
0

>  <SCORE.SYSTEM.norm>
0

>  <SCORE.heavy>
10

>  <SCORE.norm>
-1.52687

>  <RMSD>
1.113

$$$$
ligand
 OpenBabel02271912153D
libRbt.so/2013.1/901 2013/11/27
 10 11  0  0  0  0  0  0  0  0999 V2000
    0.7778  -13.4446   12.2275 N   0  0  0  0  0  0  0  0  0  0  0  0
    1.6885  -13.5523   11.2843 C   0  0  0  0  0  0  0  0  0  0  0  0
    2.4283  -12.4233   10.9238 N   0  0  0  0  0  0  0  0  0  0  0  0
    2.2129  -11.2552   11.5243 C   0  0  0  0  0  0  0  0  0  0  0  0
    1.2967  -11.1498   12.4686 C   0  0  0  0  0  0  0  0  0  0  0  0
    0.5817  -12.2011   12.8236 C   0  0  0  0  0  0  0  0  0  0  0  0
   -0.2673  -12.0791   13.6955 O   0  0  0  0  0  0  0  0  0  0  0  0
    1.2781   -9.8940   12.9120 N   0  0  0  0  0  0  0  0  0  0  0  0
    2.2024   -9.2242   12.2327 C   0  0  0  0  0  0  0  0  0  0  0  0
    2.7780  -10.0681   11.3725 N   0  0  0  0  0  0  0  0  0  0  0  0
  1  2  1  0  0  0  0
  1  6  1  0  0  0  0
  2  3  2  0  0  0  0
  3  4  1  0  0  0  0
  4  5  2  0  0  0  0
  4 10  1  0  0  0  0
  5  6  1  0  0  0  0
  5  8  1  0  0  0  0
  6  7  2  0  0  0  0
  8  9  1  0  0  0  0
  9 10  2  0  0  0  0
M  END
>  <CHROM.1>
1.46360272,-11.54145023,12.17587280,-2.18857682,0.75174120,0.32291780

>  <Name>
ligand

>  <RI>
0

>  <Rbt.Current_Directory>
/home/itssahil/PROJECTS/Mol_Feturizer/Test_systems_manuscript/rnas/5c7w

>  <Rbt.Executable>
rbdock ($Id: //depot/dev/client3/rdock/2013.1/src/exe/rbdock.cxx#4 $)

>  <Rbt.Library>
libRbt.so (2013.1, Build901 2013/11/27)

>  <Rbt.Parameter_File>
/export/apps/rDock/src/rDock_2013.1_src/data/scripts/dock_solv.prm

>  <Rbt.Receptor>
prm/pocket_docking_8.prm

>  <SCORE>
-15.2674

>  <SCORE.INTER>
-15.2674

>  <SCORE.INTER.CONST>
1

>  <SCORE.INTER.POLAR>
0

>  <SCORE.INTER.ROT>
0

>  <SCORE.INTER.SOLV>
3.29686

>  <SCORE.INTER.VDW>
-14.8772

>  <SCORE.INTER.norm>
-1.52674

>  <SCORE.INTRA>
0

>  <SCORE.INTRA.DIHEDRAL>
0

>  <SCORE.INTRA.DIHEDRAL.0>
0

>  <SCORE.INTRA.POLAR>
0

>  <SCORE.INTRA.POLAR.0>
0

>  <SCORE.INTRA.REPUL>
0

>  <SCORE.INTRA.REPUL.0>
0

>  <SCORE.INTRA.SOLV>
0

>  <SCORE.INTRA.SOLV.lig_0>
-4.15853

>  <SCORE.INTRA.VDW>
0

>  <SCORE.INTRA.VDW.0>
0

>  <SCORE.INTRA.norm>
0

>  <SCORE.RESTR>
0

>  <SCORE.RESTR.CAVITY>
0

>  <SCORE.RESTR.norm>
0

>  <SCORE.SYSTEM>
0

>  <SCORE.SYSTEM.CONST>
0

>  <SCORE.SYSTEM.DIHEDRAL>
0

>  <SCORE.SYSTEM.SOLV>
0

>  <SCORE.SYSTEM.norm>
0

>  <SCORE.heavy>
10

>  <SCORE.norm>
-1.52674

>  <RMSD>
1.113

$$$$
ligand
 OpenBabel02271912153D
libRbt.so/2013.1/901 2013/11/27
 10 11  0  0  0  0  0  0  0  0999 V2000
    0.7711  -13.4629   12.2060 N   0  0  0  0  0  0  0  0  0  0  0  0
    1.6907  -13.5613   11.2705 C   0  0  0  0  0  0  0  0  0  0  0  0
    2.4278  -12.4267   10.9223 N   0  0  0  0  0  0  0  0  0  0  0  0
    2.2011  -11.2627   11.5264 C   0  0  0  0  0  0  0  0  0  0  0  0
    1.2758  -11.1666   12.4630 C   0  0  0  0  0  0  0  0  0  0  0  0
    0.5631  -12.2234   12.8064 C   0  0  0  0  0  0  0  0  0  0  0  0
   -0.2943  -12.1101   13.6712 O   0  0  0  0  0  0  0  0  0  0  0  0
    1.2467   -9.9132   12.9123 N   0  0  0  0  0  0  0  0  0  0  0  0
    2.1735   -9.2353   12.2446 C   0  0  0  0  0  0  0  0  0  0  0  0
    2.7613  -10.0720   11.3855 N   0  0  0  0  0  0  0  0  0  0  0  0
  1  2  1  0  0  0  0
  1  6  1  0  0  0  0
  2  3  2  0  0  0  0
  3  4  1  0  0  0  0
  4  5  2  0  0  0  0
  4 10  1  0  0  0  0
  5  6  1  0  0  0  0
  5  8  1  0  0  0  0
  6  7  2  0  0  0  0
  8  9  1  0  0  0  0
  9 10  2  0  0  0  0
M  END
>  <CHROM.1>
1.44739715,-11.55601572,12.16985293,-2.17797695,0.74484174,0.32060118

>  <Name>
ligand

>  <RI>
0

>  <Rbt.Current_Directory>
/home/itssahil/PROJECTS/Mol_Feturizer/Test_systems_manuscript/rnas/5c7w

>  <Rbt.Executable>
rbdock ($Id: //depot/dev/client3/rdock/2013.1/src/exe/rbdock.cxx#4 $)

>  <Rbt.Library>
libRbt.so (2013.1, Build901 2013/11/27)

>  <Rbt.Parameter_File>
/export/apps/rDock/src/rDock_2013.1_src/data/scripts/dock_solv.prm

>  <Rbt.Receptor>
prm/blind_docking_100.prm

>  <SCORE>
-15.2371

>  <SCORE.INTER>
-15.2371

>  <SCORE.INTER.CONST>
1

>  <SCORE.INTER.POLAR>
0

>  <SCORE.INTER.ROT>
0

>  <SCORE.INTER.SOLV>
3.28647

>  <SCORE.INTER.VDW>
-14.8536

>  <SCORE.INTER.norm>
-1.52371

>  <SCORE.INTRA>
0

>  <SCORE.INTRA.DIHEDRAL>
0

>  <SCORE.INTRA.DIHEDRAL.0>
0

>  <SCORE.INTRA.POLAR>
0

>  <SCORE.INTRA.POLAR.0>
0

>  <SCORE.INTRA.REPUL>
0

>  <SCORE.INTRA.REPUL.0>
0

>  <SCORE.INTRA.SOLV>
0

>  <SCORE.INTRA.SOLV.lig_0>
-4.15853

>  <SCORE.INTRA.VDW>
0

>  <SCORE.INTRA.VDW.0>
0

>  <SCORE.INTRA.norm>
0

>  <SCORE.RESTR>
0

>  <SCORE.RESTR.CAVITY>
0

>  <SCORE.RESTR.norm>
0

>  <SCORE.SYSTEM>
0

>  <SCORE.SYSTEM.CONST>
0

>  <SCORE.SYSTEM.DIHEDRAL>
0

>  <SCORE.SYSTEM.SOLV>
0

>  <SCORE.SYSTEM.norm>
0

>  <SCORE.heavy>
10

>  <SCORE.norm>
-1.52371

>  <RMSD>
1.114

$$$$
ligand
 OpenBabel02271912153D
libRbt.so/2013.1/901 2013/11/27
 10 11  0  0  0  0  0  0  0  0999 V2000
    0.7789  -13.4499   12.2234 N   0  0  0  0  0  0  0  0  0  0  0  0
    1.6958  -13.5568   11.2861 C   0  0  0  0  0  0  0  0  0  0  0  0
    2.4365  -12.4269   10.9301 N   0  0  0  0  0  0  0  0  0  0  0  0
    2.2159  -11.2590   11.5289 C   0  0  0  0  0  0  0  0  0  0  0  0
    1.2934  -11.1544   12.4672 C   0  0  0  0  0  0  0  0  0  0  0  0
    0.5774  -12.2066   12.8179 C   0  0  0  0  0  0  0  0  0  0  0  0
   -0.2773  -12.0854   13.6842 O   0  0  0  0  0  0  0  0  0  0  0  0
    1.2703   -9.8986   12.9102 N   0  0  0  0  0  0  0  0  0  0  0  0
    2.1982   -9.2278   12.2367 C   0  0  0  0  0  0  0  0  0  0  0  0
    2.7804  -10.0712   11.3805 N   0  0  0  0  0  0  0  0  0  0  0  0
  1  2  1  0  0  0  0
  1  6  1  0  0  0  0
  2  3  2  0  0  0  0
  3  4  1  0  0  0  0
  4  5  2  0  0  0  0
  4 10  1  0  0  0  0
  5  6  1  0  0  0  0
  5  8  1  0  0  0  0
  6  7  2  0  0  0  0
  8  9  1  0  0  0  0
  9 10  2  0  0  0  0
M  END
>  <CHROM.1>
1.46269463,-11.54596219,12.17570960,-2.18417086,0.74599573,0.31966389

>  <Name>
ligand

>  <RI>
0

>  <Rbt.Current_Directory>
/home/itssahil/PROJECTS/Mol_Feturizer/Test_systems_manuscript/rnas/5c7w

>  <Rbt.Executable>
rbdock ($Id: //depot/dev/client3/rdock/2013.1/src/exe/rbdock.cxx#4 $)

>  <Rbt.Library>
libRbt.so (2013.1, Build901 2013/11/27)

>  <Rbt.Parameter_File>
/export/apps/rDock/src/rDock_2013.1_src/data/scripts/dock_solv.prm

>  <Rbt.Receptor>
prm/blind_docking_100.prm

>  <SCORE>
-15.266

>  <SCORE.INTER>
-15.266

>  <SCORE.INTER.CONST>
1

>  <SCORE.INTER.POLAR>
0

>  <SCORE.INTER.ROT>
0

>  <SCORE.INTER.SOLV>
3.28422

>  <SCORE.INTER.VDW>
-14.8721

>  <SCORE.INTER.norm>
-1.5266

>  <SCORE.INTRA>
0

>  <SCORE.INTRA.DIHEDRAL>
0

>  <SCORE.INTRA.DIHEDRAL.0>
0

>  <SCORE.INTRA.POLAR>
0

>  <SCORE.INTRA.POLAR.0>
0

>  <SCORE.INTRA.REPUL>
0

>  <SCORE.INTRA.REPUL.0>
0

>  <SCORE.INTRA.SOLV>
0

>  <SCORE.INTRA.SOLV.lig_0>
-4.15853

>  <SCORE.INTRA.VDW>
0

>  <SCORE.INTRA.VDW.0>
0

>  <SCORE.INTRA.norm>
0

>  <SCORE.RESTR>
0

>  <SCORE.RESTR.CAVITY>
0

>  <SCORE.RESTR.norm>
0

>  <SCORE.SYSTEM>
0

>  <SCORE.SYSTEM.CONST>
0

>  <SCORE.SYSTEM.DIHEDRAL>
0

>  <SCORE.SYSTEM.SOLV>
0

>  <SCORE.SYSTEM.norm>
0

>  <SCORE.heavy>
10

>  <SCORE.norm>
-1.5266

>  <RMSD>
1.114

$$$$
ligand
 OpenBabel02271912153D
libRbt.so/2013.1/901 2013/11/27
 10 11  0  0  0  0  0  0  0  0999 V2000
    0.7742  -13.4508   12.2166 N   0  0  0  0  0  0  0  0  0  0  0  0
    1.6916  -13.5560   11.2797 C   0  0  0  0  0  0  0  0  0  0  0  0
    2.4332  -12.4257   10.9268 N   0  0  0  0  0  0  0  0  0  0  0  0
    2.2127  -11.2590   11.5281 C   0  0  0  0  0  0  0  0  0  0  0  0
    1.2898  -11.1561   12.4661 C   0  0  0  0  0  0  0  0  0  0  0  0
    0.5730  -12.2087   12.8138 C   0  0  0  0  0  0  0  0  0  0  0  0
   -0.2822  -12.0891   13.6800 O   0  0  0  0  0  0  0  0  0  0  0  0
    1.2671   -9.9013   12.9119 N   0  0  0  0  0  0  0  0  0  0  0  0
    2.1957   -9.2294   12.2405 C   0  0  0  0  0  0  0  0  0  0  0  0
    2.7780  -10.0712   11.3827 N   0  0  0  0  0  0  0  0  0  0  0  0
  1  2  1  0  0  0  0
  1  6  1  0  0  0  0
  2  3  2  0  0  0  0
  3  4  1  0  0  0  0
  4  5  2  0  0  0  0
  4 10  1  0  0  0  0
  5  6  1  0  0  0  0
  5  8  1  0  0  0  0
  6  7  2  0  0  0  0
  8  9  1  0  0  0  0
  9 10  2  0  0  0  0
M  END
>  <CHROM.1>
1.45901335,-11.54709705,12.17374398,-2.18457489,0.74524346,0.32221713

>  <Name>
ligand

>  <RI>
0

>  <Rbt.Current_Directory>
/home/itssahil/PROJECTS/Mol_Feturizer/Test_systems_manuscript/rnas/5c7w

>  <Rbt.Executable>
rbdock ($Id: //depot/dev/client3/rdock/2013.1/src/exe/rbdock.cxx#4 $)

>  <Rbt.Library>
libRbt.so (2013.1, Build901 2013/11/27)

>  <Rbt.Parameter_File>
/export/apps/rDock/src/rDock_2013.1_src/data/scripts/dock_solv.prm

>  <Rbt.Receptor>
prm/blind_docking_20.prm

>  <SCORE>
-15.2664

>  <SCORE.INTER>
-15.2664

>  <SCORE.INTER.CONST>
1

>  <SCORE.INTER.POLAR>
0

>  <SCORE.INTER.ROT>
0

>  <SCORE.INTER.SOLV>
3.28211

>  <SCORE.INTER.VDW>
-14.8716

>  <SCORE.INTER.norm>
-1.52664

>  <SCORE.INTRA>
0

>  <SCORE.INTRA.DIHEDRAL>
0

>  <SCORE.INTRA.DIHEDRAL.0>
0

>  <SCORE.INTRA.POLAR>
0

>  <SCORE.INTRA.POLAR.0>
0

>  <SCORE.INTRA.REPUL>
0

>  <SCORE.INTRA.REPUL.0>
0

>  <SCORE.INTRA.SOLV>
0

>  <SCORE.INTRA.SOLV.lig_0>
-4.15853

>  <SCORE.INTRA.VDW>
0

>  <SCORE.INTRA.VDW.0>
0

>  <SCORE.INTRA.norm>
0

>  <SCORE.RESTR>
0

>  <SCORE.RESTR.CAVITY>
0

>  <SCORE.RESTR.norm>
0

>  <SCORE.SYSTEM>
0

>  <SCORE.SYSTEM.CONST>
0

>  <SCORE.SYSTEM.DIHEDRAL>
0

>  <SCORE.SYSTEM.SOLV>
0

>  <SCORE.SYSTEM.norm>
0

>  <SCORE.heavy>
10

>  <SCORE.norm>
-1.52664

>  <RMSD>
1.114

$$$$
ligand
 OpenBabel02271912153D
libRbt.so/2013.1/901 2013/11/27
 10 11  0  0  0  0  0  0  0  0999 V2000
    0.7743  -13.4549   12.2169 N   0  0  0  0  0  0  0  0  0  0  0  0
    1.6871  -13.5596   11.2754 C   0  0  0  0  0  0  0  0  0  0  0  0
    2.4268  -12.4291   10.9194 N   0  0  0  0  0  0  0  0  0  0  0  0
    2.2092  -11.2627   11.5224 C   0  0  0  0  0  0  0  0  0  0  0  0
    1.2909  -11.1604   12.4650 C   0  0  0  0  0  0  0  0  0  0  0  0
    0.5759  -12.2132   12.8157 C   0  0  0  0  0  0  0  0  0  0  0  0
   -0.2750  -12.0941   13.6861 O   0  0  0  0  0  0  0  0  0  0  0  0
    1.2703   -9.9058   12.9116 N   0  0  0  0  0  0  0  0  0  0  0  0
    2.1955   -9.2335   12.2360 C   0  0  0  0  0  0  0  0  0  0  0  0
    2.7737  -10.0748   11.3749 N   0  0  0  0  0  0  0  0  0  0  0  0
  1  2  1  0  0  0  0
  1  6  1  0  0  0  0
  2  3  2  0  0  0  0
  3  4  1  0  0  0  0
  4  5  2  0  0  0  0
  4 10  1  0  0  0  0
  5  6  1  0  0  0  0
  5  8  1  0  0  0  0
  6  7  2  0  0  0  0
  8  9  1  0  0  0  0
  9 10  2  0  0  0  0
M  END
>  <CHROM.1>
1.45872467,-11.55117867,12.17162996,-2.18660679,0.74993185,0.32411879

>  <Name>
ligand

>  <RI>
0

>  <Rbt.Current_Directory>
/home/itssahil/PROJECTS/Mol_Feturizer/Test_systems_manuscript/rnas/5c7w

>  <Rbt.Executable>
rbdock ($Id: //depot/dev/client3/rdock/2013.1/src/exe/rbdock.cxx#4 $)

>  <Rbt.Library>
libRbt.so (2013.1, Build901 2013/11/27)

>  <Rbt.Parameter_File>
/export/apps/rDock/src/rDock_2013.1_src/data/scripts/dock_solv.prm

>  <Rbt.Receptor>
prm/blind_docking_40.prm

>  <SCORE>
-15.269

>  <SCORE.INTER>
-15.269

>  <SCORE.INTER.CONST>
1

>  <SCORE.INTER.POLAR>
0

>  <SCORE.INTER.ROT>
0

>  <SCORE.INTER.SOLV>
3.29445

>  <SCORE.INTER.VDW>
-14.8775

>  <SCORE.INTER.norm>
-1.5269

>  <SCORE.INTRA>
0

>  <SCORE.INTRA.DIHEDRAL>
0

>  <SCORE.INTRA.DIHEDRAL.0>
0

>  <SCORE.INTRA.POLAR>
0

>  <SCORE.INTRA.POLAR.0>
0

>  <SCORE.INTRA.REPUL>
0

>  <SCORE.INTRA.REPUL.0>
0

>  <SCORE.INTRA.SOLV>
0

>  <SCORE.INTRA.SOLV.lig_0>
-4.15853

>  <SCORE.INTRA.VDW>
0

>  <SCORE.INTRA.VDW.0>
0

>  <SCORE.INTRA.norm>
0

>  <SCORE.RESTR>
0

>  <SCORE.RESTR.CAVITY>
0

>  <SCORE.RESTR.norm>
0

>  <SCORE.SYSTEM>
0

>  <SCORE.SYSTEM.CONST>
0

>  <SCORE.SYSTEM.DIHEDRAL>
0

>  <SCORE.SYSTEM.SOLV>
0

>  <SCORE.SYSTEM.norm>
0

>  <SCORE.heavy>
10

>  <SCORE.norm>
-1.5269

>  <RMSD>
1.114

$$$$
ligand
 OpenBabel02271912153D
libRbt.so/2013.1/901 2013/11/27
 10 11  0  0  0  0  0  0  0  0999 V2000
    0.7770  -13.4540   12.2174 N   0  0  0  0  0  0  0  0  0  0  0  0
    1.6847  -13.5626   11.2713 C   0  0  0  0  0  0  0  0  0  0  0  0
    2.4221  -12.4336   10.9064 N   0  0  0  0  0  0  0  0  0  0  0  0
    2.2076  -11.2646   11.5053 C   0  0  0  0  0  0  0  0  0  0  0  0
    1.2944  -11.1583   12.4525 C   0  0  0  0  0  0  0  0  0  0  0  0
    0.5816  -12.2097   12.8118 C   0  0  0  0  0  0  0  0  0  0  0  0
   -0.2646  -12.0869   13.6863 O   0  0  0  0  0  0  0  0  0  0  0  0
    1.2760   -9.9017   12.8936 N   0  0  0  0  0  0  0  0  0  0  0  0
    2.1973   -9.2322   12.2100 C   0  0  0  0  0  0  0  0  0  0  0  0
    2.7710  -10.0772   11.3495 N   0  0  0  0  0  0  0  0  0  0  0  0
  1  2  1  0  0  0  0
  1  6  1  0  0  0  0
  2  3  2  0  0  0  0
  3  4  1  0  0  0  0
  4  5  2  0  0  0  0
  4 10  1  0  0  0  0
  5  6  1  0  0  0  0
  5  8  1  0  0  0  0
  6  7  2  0  0  0  0
  8  9  1  0  0  0  0
  9 10  2  0  0  0  0
M  END
>  <CHROM.1>
1.46073735,-11.55032735,12.15993930,-2.18870669,0.75519638,0.32113181

>  <Name>
ligand

>  <RI>
0

>  <Rbt.Current_Directory>
/home/itssahil/PROJECTS/Mol_Feturizer/Test_systems_manuscript/rnas/5c7w

>  <Rbt.Executable>
rbdock ($Id: //depot/dev/client3/rdock/2013.1/src/exe/rbdock.cxx#4 $)

>  <Rbt.Library>
libRbt.so (2013.1, Build901 2013/11/27)

>  <Rbt.Parameter_File>
/export/apps/rDock/src/rDock_2013.1_src/data/scripts/dock_solv.prm

>  <Rbt.Receptor>
prm/blind_docking_80.prm

>  <SCORE>
-15.2376

>  <SCORE.INTER>
-15.2376

>  <SCORE.INTER.CONST>
1

>  <SCORE.INTER.POLAR>
0

>  <SCORE.INTER.ROT>
0

>  <SCORE.INTER.SOLV>
3.29926

>  <SCORE.INTER.VDW>
-14.8582

>  <SCORE.INTER.norm>
-1.52376

>  <SCORE.INTRA>
0

>  <SCORE.INTRA.DIHEDRAL>
0

>  <SCORE.INTRA.DIHEDRAL.0>
0

>  <SCORE.INTRA.POLAR>
0

>  <SCORE.INTRA.POLAR.0>
0

>  <SCORE.INTRA.REPUL>
0

>  <SCORE.INTRA.REPUL.0>
0

>  <SCORE.INTRA.SOLV>
0

>  <SCORE.INTRA.SOLV.lig_0>
-4.15853

>  <SCORE.INTRA.VDW>
0

>  <SCORE.INTRA.VDW.0>
0

>  <SCORE.INTRA.norm>
0

>  <SCORE.RESTR>
0

>  <SCORE.RESTR.CAVITY>
0

>  <SCORE.RESTR.norm>
0

>  <SCORE.SYSTEM>
0

>  <SCORE.SYSTEM.CONST>
0

>  <SCORE.SYSTEM.DIHEDRAL>
0

>  <SCORE.SYSTEM.SOLV>
0

>  <SCORE.SYSTEM.norm>
0

>  <SCORE.heavy>
10

>  <SCORE.norm>
-1.52376

>  <RMSD>
1.114

$$$$
ligand
 OpenBabel02271912153D
libRbt.so/2013.1/901 2013/11/27
 10 11  0  0  0  0  0  0  0  0999 V2000
    0.7768  -13.4528   12.2187 N   0  0  0  0  0  0  0  0  0  0  0  0
    1.6935  -13.5566   11.2809 C   0  0  0  0  0  0  0  0  0  0  0  0
    2.4328  -12.4252   10.9271 N   0  0  0  0  0  0  0  0  0  0  0  0
    2.2110  -11.2588   11.5284 C   0  0  0  0  0  0  0  0  0  0  0  0
    1.2888  -11.1572   12.4673 C   0  0  0  0  0  0  0  0  0  0  0  0
    0.5741  -12.2110   12.8160 C   0  0  0  0  0  0  0  0  0  0  0  0
   -0.2805  -12.0926   13.6829 O   0  0  0  0  0  0  0  0  0  0  0  0
    1.2644   -9.9024   12.9130 N   0  0  0  0  0  0  0  0  0  0  0  0
    2.1912   -9.2291   12.2406 C   0  0  0  0  0  0  0  0  0  0  0  0
    2.7742  -10.0700   11.3824 N   0  0  0  0  0  0  0  0  0  0  0  0
  1  2  1  0  0  0  0
  1  6  1  0  0  0  0
  2  3  2  0  0  0  0
  3  4  1  0  0  0  0
  4  5  2  0  0  0  0
  4 10  1  0  0  0  0
  5  6  1  0  0  0  0
  5  8  1  0  0  0  0
  6  7  2  0  0  0  0
  8  9  1  0  0  0  0
  9 10  2  0  0  0  0
M  END
>  <CHROM.1>
1.45839962,-11.54798310,12.17490819,-2.18283622,0.74668817,0.32089203

>  <Name>
ligand

>  <RI>
0

>  <Rbt.Current_Directory>
/home/itssahil/PROJECTS/Mol_Feturizer/Test_systems_manuscript/rnas/5c7w

>  <Rbt.Executable>
rbdock ($Id: //depot/dev/client3/rdock/2013.1/src/exe/rbdock.cxx#4 $)

>  <Rbt.Library>
libRbt.so (2013.1, Build901 2013/11/27)

>  <Rbt.Parameter_File>
/export/apps/rDock/src/rDock_2013.1_src/data/scripts/dock_solv.prm

>  <Rbt.Receptor>
prm/blind_docking_80.prm

>  <SCORE>
-15.2665

>  <SCORE.INTER>
-15.2665

>  <SCORE.INTER.CONST>
1

>  <SCORE.INTER.POLAR>
0

>  <SCORE.INTER.ROT>
0

>  <SCORE.INTER.SOLV>
3.28781

>  <SCORE.INTER.VDW>
-14.8736

>  <SCORE.INTER.norm>
-1.52665

>  <SCORE.INTRA>
0

>  <SCORE.INTRA.DIHEDRAL>
0

>  <SCORE.INTRA.DIHEDRAL.0>
0

>  <SCORE.INTRA.POLAR>
0

>  <SCORE.INTRA.POLAR.0>
0

>  <SCORE.INTRA.REPUL>
0

>  <SCORE.INTRA.REPUL.0>
0

>  <SCORE.INTRA.SOLV>
0

>  <SCORE.INTRA.SOLV.lig_0>
-4.15853

>  <SCORE.INTRA.VDW>
0

>  <SCORE.INTRA.VDW.0>
0

>  <SCORE.INTRA.norm>
0

>  <SCORE.RESTR>
0

>  <SCORE.RESTR.CAVITY>
0

>  <SCORE.RESTR.norm>
0

>  <SCORE.SYSTEM>
0

>  <SCORE.SYSTEM.CONST>
0

>  <SCORE.SYSTEM.DIHEDRAL>
0

>  <SCORE.SYSTEM.SOLV>
0

>  <SCORE.SYSTEM.norm>
0

>  <SCORE.heavy>
10

>  <SCORE.norm>
-1.52665

>  <RMSD>
1.114

$$$$
ligand
 OpenBabel02271912153D
libRbt.so/2013.1/901 2013/11/27
 10 11  0  0  0  0  0  0  0  0999 V2000
    0.7804  -13.4530   12.2235 N   0  0  0  0  0  0  0  0  0  0  0  0
    1.6950  -13.5552   11.2835 C   0  0  0  0  0  0  0  0  0  0  0  0
    2.4292  -12.4217   10.9256 N   0  0  0  0  0  0  0  0  0  0  0  0
    2.2047  -11.2550   11.5253 C   0  0  0  0  0  0  0  0  0  0  0  0
    1.2845  -11.1551   12.4664 C   0  0  0  0  0  0  0  0  0  0  0  0
    0.5747  -12.2108   12.8189 C   0  0  0  0  0  0  0  0  0  0  0  0
   -0.2780  -12.0939   13.6879 O   0  0  0  0  0  0  0  0  0  0  0  0
    1.2567   -9.8995   12.9098 N   0  0  0  0  0  0  0  0  0  0  0  0
    2.1793   -9.2240   12.2337 C   0  0  0  0  0  0  0  0  0  0  0  0
    2.7630  -10.0644   11.3755 N   0  0  0  0  0  0  0  0  0  0  0  0
  1  2  1  0  0  0  0
  1  6  1  0  0  0  0
  2  3  2  0  0  0  0
  3  4  1  0  0  0  0
  4  5  2  0  0  0  0
  4 10  1  0  0  0  0
  5  6  1  0  0  0  0
  5  8  1  0  0  0  0
  6  7  2  0  0  0  0
  8  9  1  0  0  0  0
  9 10  2  0  0  0  0
M  END
>  <CHROM.1>
1.45482716,-11.54573538,12.17428289,-2.17917058,0.75034439,0.31650207

>  <Name>
ligand

>  <RI>
0

>  <Rbt.Current_Directory>
/home/itssahil/PROJECTS/Mol_Feturizer/Test_systems_manuscript/rnas/5c7w

>  <Rbt.Executable>
rbdock ($Id: //depot/dev/client3/rdock/2013.1/src/exe/rbdock.cxx#4 $)

>  <Rbt.Library>
libRbt.so (2013.1, Build901 2013/11/27)

>  <Rbt.Parameter_File>
/export/apps/rDock/src/rDock_2013.1_src/data/scripts/dock_solv.prm

>  <Rbt.Receptor>
prm/pocket_docking_3.prm

>  <SCORE>
-15.2659

>  <SCORE.INTER>
-15.2659

>  <SCORE.INTER.CONST>
1

>  <SCORE.INTER.POLAR>
0

>  <SCORE.INTER.ROT>
0

>  <SCORE.INTER.SOLV>
3.29812

>  <SCORE.INTER.VDW>
-14.8766

>  <SCORE.INTER.norm>
-1.52659

>  <SCORE.INTRA>
0

>  <SCORE.INTRA.DIHEDRAL>
0

>  <SCORE.INTRA.DIHEDRAL.0>
0

>  <SCORE.INTRA.POLAR>
0

>  <SCORE.INTRA.POLAR.0>
0

>  <SCORE.INTRA.REPUL>
0

>  <SCORE.INTRA.REPUL.0>
0

>  <SCORE.INTRA.SOLV>
0

>  <SCORE.INTRA.SOLV.lig_0>
-4.15853

>  <SCORE.INTRA.VDW>
0

>  <SCORE.INTRA.VDW.0>
0

>  <SCORE.INTRA.norm>
0

>  <SCORE.RESTR>
0

>  <SCORE.RESTR.CAVITY>
0

>  <SCORE.RESTR.norm>
0

>  <SCORE.SYSTEM>
0

>  <SCORE.SYSTEM.CONST>
0

>  <SCORE.SYSTEM.DIHEDRAL>
0

>  <SCORE.SYSTEM.SOLV>
0

>  <SCORE.SYSTEM.norm>
0

>  <SCORE.heavy>
10

>  <SCORE.norm>
-1.52659

>  <RMSD>
1.114

$$$$
ligand
 OpenBabel02271912153D
libRbt.so/2013.1/901 2013/11/27
 10 11  0  0  0  0  0  0  0  0999 V2000
    0.7751  -13.4499   12.2177 N   0  0  0  0  0  0  0  0  0  0  0  0
    1.6901  -13.5550   11.2784 C   0  0  0  0  0  0  0  0  0  0  0  0
    2.4304  -12.4246   10.9234 N   0  0  0  0  0  0  0  0  0  0  0  0
    2.2112  -11.2579   11.5251 C   0  0  0  0  0  0  0  0  0  0  0  0
    1.2906  -11.1551   12.4655 C   0  0  0  0  0  0  0  0  0  0  0  0
    0.5751  -12.2078   12.8153 C   0  0  0  0  0  0  0  0  0  0  0  0
   -0.2779  -12.0883   13.6836 O   0  0  0  0  0  0  0  0  0  0  0  0
    1.2688   -9.9002   12.9113 N   0  0  0  0  0  0  0  0  0  0  0  0
    2.1954   -9.2282   12.2374 C   0  0  0  0  0  0  0  0  0  0  0  0
    2.7758  -10.0699   11.3781 N   0  0  0  0  0  0  0  0  0  0  0  0
  1  2  1  0  0  0  0
  1  6  1  0  0  0  0
  2  3  2  0  0  0  0
  3  4  1  0  0  0  0
  4  5  2  0  0  0  0
  4 10  1  0  0  0  0
  5  6  1  0  0  0  0
  5  8  1  0  0  0  0
  6  7  2  0  0  0  0
  8  9  1  0  0  0  0
  9 10  2  0  0  0  0
M  END
>  <CHROM.1>
1.45923069,-11.54604239,12.17281141,-2.18535737,0.74780733,0.32262733

>  <Name>
ligand

>  <RI>
0

>  <Rbt.Current_Directory>
/home/itssahil/PROJECTS/Mol_Feturizer/Test_systems_manuscript/rnas/5c7w

>  <Rbt.Executable>
rbdock ($Id: //depot/dev/client3/rdock/2013.1/src/exe/rbdock.cxx#4 $)

>  <Rbt.Library>
libRbt.so (2013.1, Build901 2013/11/27)

>  <Rbt.Parameter_File>
/export/apps/rDock/src/rDock_2013.1_src/data/scripts/dock_solv.prm

>  <Rbt.Receptor>
prm/pocket_docking_3.prm

>  <SCORE>
-15.2679

>  <SCORE.INTER>
-15.2679

>  <SCORE.INTER.CONST>
1

>  <SCORE.INTER.POLAR>
0

>  <SCORE.INTER.ROT>
0

>  <SCORE.INTER.SOLV>
3.28766

>  <SCORE.INTER.VDW>
-14.8745

>  <SCORE.INTER.norm>
-1.52679

>  <SCORE.INTRA>
0

>  <SCORE.INTRA.DIHEDRAL>
0

>  <SCORE.INTRA.DIHEDRAL.0>
0

>  <SCORE.INTRA.POLAR>
0

>  <SCORE.INTRA.POLAR.0>
0

>  <SCORE.INTRA.REPUL>
0

>  <SCORE.INTRA.REPUL.0>
0

>  <SCORE.INTRA.SOLV>
0

>  <SCORE.INTRA.SOLV.lig_0>
-4.15853

>  <SCORE.INTRA.VDW>
0

>  <SCORE.INTRA.VDW.0>
0

>  <SCORE.INTRA.norm>
0

>  <SCORE.RESTR>
0

>  <SCORE.RESTR.CAVITY>
0

>  <SCORE.RESTR.norm>
0

>  <SCORE.SYSTEM>
0

>  <SCORE.SYSTEM.CONST>
0

>  <SCORE.SYSTEM.DIHEDRAL>
0

>  <SCORE.SYSTEM.SOLV>
0

>  <SCORE.SYSTEM.norm>
0

>  <SCORE.heavy>
10

>  <SCORE.norm>
-1.52679

>  <RMSD>
1.114

$$$$
ligand
 OpenBabel02271912153D
libRbt.so/2013.1/901 2013/11/27
 10 11  0  0  0  0  0  0  0  0999 V2000
    0.7756  -13.4484   12.2210 N   0  0  0  0  0  0  0  0  0  0  0  0
    1.6866  -13.5528   11.2778 C   0  0  0  0  0  0  0  0  0  0  0  0
    2.4243  -12.4217   10.9193 N   0  0  0  0  0  0  0  0  0  0  0  0
    2.2066  -11.2551   11.5217 C   0  0  0  0  0  0  0  0  0  0  0  0
    1.2900  -11.1530   12.4661 C   0  0  0  0  0  0  0  0  0  0  0  0
    0.5770  -12.2063   12.8192 C   0  0  0  0  0  0  0  0  0  0  0  0
   -0.2723  -12.0874   13.6912 O   0  0  0  0  0  0  0  0  0  0  0  0
    1.2689   -9.8980   12.9116 N   0  0  0  0  0  0  0  0  0  0  0  0
    2.1920   -9.2253   12.2336 C   0  0  0  0  0  0  0  0  0  0  0  0
    2.7694  -10.0666   11.3720 N   0  0  0  0  0  0  0  0  0  0  0  0
  1  2  1  0  0  0  0
  1  6  1  0  0  0  0
  2  3  2  0  0  0  0
  3  4  1  0  0  0  0
  4  5  2  0  0  0  0
  4 10  1  0  0  0  0
  5  6  1  0  0  0  0
  5  8  1  0  0  0  0
  6  7  2  0  0  0  0
  8  9  1  0  0  0  0
  9 10  2  0  0  0  0
M  END
>  <CHROM.1>
1.45772576,-11.54384557,12.17272999,-2.18600243,0.75222000,0.32283319

>  <Name>
ligand

>  <RI>
0

>  <Rbt.Current_Directory>
/home/itssahil/PROJECTS/Mol_Feturizer/Test_systems_manuscript/rnas/5c7w

>  <Rbt.Executable>
rbdock ($Id: //depot/dev/client3/rdock/2013.1/src/exe/rbdock.cxx#4 $)

>  <Rbt.Library>
libRbt.so (2013.1, Build901 2013/11/27)

>  <Rbt.Parameter_File>
/export/apps/rDock/src/rDock_2013.1_src/data/scripts/dock_solv.prm

>  <Rbt.Receptor>
prm/pocket_docking_3.prm

>  <SCORE>
-15.2687

>  <SCORE.INTER>
-15.2687

>  <SCORE.INTER.CONST>
1

>  <SCORE.INTER.POLAR>
0

>  <SCORE.INTER.ROT>
0

>  <SCORE.INTER.SOLV>
3.29856

>  <SCORE.INTER.VDW>
-14.8787

>  <SCORE.INTER.norm>
-1.52687

>  <SCORE.INTRA>
0

>  <SCORE.INTRA.DIHEDRAL>
0

>  <SCORE.INTRA.DIHEDRAL.0>
0

>  <SCORE.INTRA.POLAR>
0

>  <SCORE.INTRA.POLAR.0>
0

>  <SCORE.INTRA.REPUL>
0

>  <SCORE.INTRA.REPUL.0>
0

>  <SCORE.INTRA.SOLV>
0

>  <SCORE.INTRA.SOLV.lig_0>
-4.15853

>  <SCORE.INTRA.VDW>
0

>  <SCORE.INTRA.VDW.0>
0

>  <SCORE.INTRA.norm>
0

>  <SCORE.RESTR>
0

>  <SCORE.RESTR.CAVITY>
0

>  <SCORE.RESTR.norm>
0

>  <SCORE.SYSTEM>
0

>  <SCORE.SYSTEM.CONST>
0

>  <SCORE.SYSTEM.DIHEDRAL>
0

>  <SCORE.SYSTEM.SOLV>
0

>  <SCORE.SYSTEM.norm>
0

>  <SCORE.heavy>
10

>  <SCORE.norm>
-1.52687

>  <RMSD>
1.114

$$$$
ligand
 OpenBabel02271912153D
libRbt.so/2013.1/901 2013/11/27
 10 11  0  0  0  0  0  0  0  0999 V2000
    0.7832  -13.4522   12.2279 N   0  0  0  0  0  0  0  0  0  0  0  0
    1.6991  -13.5581   11.2896 C   0  0  0  0  0  0  0  0  0  0  0  0
    2.4360  -12.4267   10.9307 N   0  0  0  0  0  0  0  0  0  0  0  0
    2.2128  -11.2584   11.5277 C   0  0  0  0  0  0  0  0  0  0  0  0
    1.2914  -11.1549   12.4672 C   0  0  0  0  0  0  0  0  0  0  0  0
    0.5789  -12.2085   12.8206 C   0  0  0  0  0  0  0  0  0  0  0  0
   -0.2750  -12.0883   13.6879 O   0  0  0  0  0  0  0  0  0  0  0  0
    1.2652   -9.8984   12.9080 N   0  0  0  0  0  0  0  0  0  0  0  0
    2.1902   -9.2260   12.2321 C   0  0  0  0  0  0  0  0  0  0  0  0
    2.7737  -10.0692   11.3765 N   0  0  0  0  0  0  0  0  0  0  0  0
  1  2  1  0  0  0  0
  1  6  1  0  0  0  0
  2  3  2  0  0  0  0
  3  4  1  0  0  0  0
  4  5  2  0  0  0  0
  4 10  1  0  0  0  0
  5  6  1  0  0  0  0
  5  8  1  0  0  0  0
  6  7  2  0  0  0  0
  8  9  1  0  0  0  0
  9 10  2  0  0  0  0
M  END
>  <CHROM.1>
1.46136246,-11.54641464,12.17606695,-2.18100669,0.74819399,0.31578984

>  <Name>
ligand

>  <RI>
0

>  <Rbt.Current_Directory>
/home/itssahil/PROJECTS/Mol_Feturizer/Test_systems_manuscript/rnas/5c7w

>  <Rbt.Executable>
rbdock ($Id: //depot/dev/client3/rdock/2013.1/src/exe/rbdock.cxx#4 $)

>  <Rbt.Library>
libRbt.so (2013.1, Build901 2013/11/27)

>  <Rbt.Parameter_File>
/export/apps/rDock/src/rDock_2013.1_src/data/scripts/dock_solv.prm

>  <Rbt.Receptor>
prm/pocket_docking_4.prm

>  <SCORE>
-15.2656

>  <SCORE.INTER>
-15.2656

>  <SCORE.INTER.CONST>
1

>  <SCORE.INTER.POLAR>
0

>  <SCORE.INTER.ROT>
0

>  <SCORE.INTER.SOLV>
3.2918

>  <SCORE.INTER.VDW>
-14.8743

>  <SCORE.INTER.norm>
-1.52656

>  <SCORE.INTRA>
0

>  <SCORE.INTRA.DIHEDRAL>
0

>  <SCORE.INTRA.DIHEDRAL.0>
0

>  <SCORE.INTRA.POLAR>
0

>  <SCORE.INTRA.POLAR.0>
0

>  <SCORE.INTRA.REPUL>
0

>  <SCORE.INTRA.REPUL.0>
0

>  <SCORE.INTRA.SOLV>
0

>  <SCORE.INTRA.SOLV.lig_0>
-4.15853

>  <SCORE.INTRA.VDW>
0

>  <SCORE.INTRA.VDW.0>
0

>  <SCORE.INTRA.norm>
0

>  <SCORE.RESTR>
0

>  <SCORE.RESTR.CAVITY>
0

>  <SCORE.RESTR.norm>
0

>  <SCORE.SYSTEM>
0

>  <SCORE.SYSTEM.CONST>
0

>  <SCORE.SYSTEM.DIHEDRAL>
0

>  <SCORE.SYSTEM.SOLV>
0

>  <SCORE.SYSTEM.norm>
0

>  <SCORE.heavy>
10

>  <SCORE.norm>
-1.52656

>  <RMSD>
1.114

$$$$
ligand
 OpenBabel02271912153D
libRbt.so/2013.1/901 2013/11/27
 10 11  0  0  0  0  0  0  0  0999 V2000
    0.7745  -13.4487   12.2199 N   0  0  0  0  0  0  0  0  0  0  0  0
    1.6845  -13.5531   11.2756 C   0  0  0  0  0  0  0  0  0  0  0  0
    2.4233  -12.4225   10.9179 N   0  0  0  0  0  0  0  0  0  0  0  0
    2.2076  -11.2564   11.5220 C   0  0  0  0  0  0  0  0  0  0  0  0
    1.2921  -11.1543   12.4674 C   0  0  0  0  0  0  0  0  0  0  0  0
    0.5781  -12.2072   12.8198 C   0  0  0  0  0  0  0  0  0  0  0  0
   -0.2703  -12.0884   13.6928 O   0  0  0  0  0  0  0  0  0  0  0  0
    1.2730   -9.8999   12.9146 N   0  0  0  0  0  0  0  0  0  0  0  0
    2.1963   -9.2275   12.2365 C   0  0  0  0  0  0  0  0  0  0  0  0
    2.7718  -10.0684   11.3733 N   0  0  0  0  0  0  0  0  0  0  0  0
  1  2  1  0  0  0  0
  1  6  1  0  0  0  0
  2  3  2  0  0  0  0
  3  4  1  0  0  0  0
  4  5  2  0  0  0  0
  4 10  1  0  0  0  0
  5  6  1  0  0  0  0
  5  8  1  0  0  0  0
  6  7  2  0  0  0  0
  8  9  1  0  0  0  0
  9 10  2  0  0  0  0
M  END
>  <CHROM.1>
1.45902630,-11.54503818,12.17338385,-2.18805685,0.75271027,0.32552833

>  <Name>
ligand

>  <RI>
0

>  <Rbt.Current_Directory>
/home/itssahil/PROJECTS/Mol_Feturizer/Test_systems_manuscript/rnas/5c7w

>  <Rbt.Executable>
rbdock ($Id: //depot/dev/client3/rdock/2013.1/src/exe/rbdock.cxx#4 $)

>  <Rbt.Library>
libRbt.so (2013.1, Build901 2013/11/27)

>  <Rbt.Parameter_File>
/export/apps/rDock/src/rDock_2013.1_src/data/scripts/dock_solv.prm

>  <Rbt.Receptor>
prm/pocket_docking_4.prm

>  <SCORE>
-15.2688

>  <SCORE.INTER>
-15.2688

>  <SCORE.INTER.CONST>
1

>  <SCORE.INTER.POLAR>
0

>  <SCORE.INTER.ROT>
0

>  <SCORE.INTER.SOLV>
3.29988

>  <SCORE.INTER.VDW>
-14.8792

>  <SCORE.INTER.norm>
-1.52688

>  <SCORE.INTRA>
0

>  <SCORE.INTRA.DIHEDRAL>
0

>  <SCORE.INTRA.DIHEDRAL.0>
0

>  <SCORE.INTRA.POLAR>
0

>  <SCORE.INTRA.POLAR.0>
0

>  <SCORE.INTRA.REPUL>
0

>  <SCORE.INTRA.REPUL.0>
0

>  <SCORE.INTRA.SOLV>
0

>  <SCORE.INTRA.SOLV.lig_0>
-4.15853

>  <SCORE.INTRA.VDW>
0

>  <SCORE.INTRA.VDW.0>
0

>  <SCORE.INTRA.norm>
0

>  <SCORE.RESTR>
0

>  <SCORE.RESTR.CAVITY>
0

>  <SCORE.RESTR.norm>
0

>  <SCORE.SYSTEM>
0

>  <SCORE.SYSTEM.CONST>
0

>  <SCORE.SYSTEM.DIHEDRAL>
0

>  <SCORE.SYSTEM.SOLV>
0

>  <SCORE.SYSTEM.norm>
0

>  <SCORE.heavy>
10

>  <SCORE.norm>
-1.52688

>  <RMSD>
1.114

$$$$
ligand
 OpenBabel02271912153D
libRbt.so/2013.1/901 2013/11/27
 10 11  0  0  0  0  0  0  0  0999 V2000
    0.7747  -13.4517   12.2195 N   0  0  0  0  0  0  0  0  0  0  0  0
    1.6810  -13.5559   11.2716 C   0  0  0  0  0  0  0  0  0  0  0  0
    2.4183  -12.4253   10.9112 N   0  0  0  0  0  0  0  0  0  0  0  0
    2.2051  -11.2593   11.5163 C   0  0  0  0  0  0  0  0  0  0  0  0
    1.2933  -11.1574   12.4653 C   0  0  0  0  0  0  0  0  0  0  0  0
    0.5807  -12.2103   12.8204 C   0  0  0  0  0  0  0  0  0  0  0  0
   -0.2642  -12.0916   13.6967 O   0  0  0  0  0  0  0  0  0  0  0  0
    1.2760   -9.9031   12.9128 N   0  0  0  0  0  0  0  0  0  0  0  0
    2.1966   -9.2305   12.2312 C   0  0  0  0  0  0  0  0  0  0  0  0
    2.7686  -10.0713   11.3656 N   0  0  0  0  0  0  0  0  0  0  0  0
  1  2  1  0  0  0  0
  1  6  1  0  0  0  0
  2  3  2  0  0  0  0
  3  4  1  0  0  0  0
  4  5  2  0  0  0  0
  4 10  1  0  0  0  0
  5  6  1  0  0  0  0
  5  8  1  0  0  0  0
  6  7  2  0  0  0  0
  8  9  1  0  0  0  0
  9 10  2  0  0  0  0
M  END
>  <CHROM.1>
1.45906349,-11.54803252,12.17056714,-2.18980944,0.75647536,0.32690119

>  <Name>
ligand

>  <RI>
0

>  <Rbt.Current_Directory>
/home/itssahil/PROJECTS/Mol_Feturizer/Test_systems_manuscript/rnas/5c7w

>  <Rbt.Executable>
rbdock ($Id: //depot/dev/client3/rdock/2013.1/src/exe/rbdock.cxx#4 $)

>  <Rbt.Library>
libRbt.so (2013.1, Build901 2013/11/27)

>  <Rbt.Parameter_File>
/export/apps/rDock/src/rDock_2013.1_src/data/scripts/dock_solv.prm

>  <Rbt.Receptor>
prm/pocket_docking_4.prm

>  <SCORE>
-15.2696

>  <SCORE.INTER>
-15.2696

>  <SCORE.INTER.CONST>
1

>  <SCORE.INTER.POLAR>
0

>  <SCORE.INTER.ROT>
0

>  <SCORE.INTER.SOLV>
3.30868

>  <SCORE.INTER.VDW>
-14.8826

>  <SCORE.INTER.norm>
-1.52696

>  <SCORE.INTRA>
0

>  <SCORE.INTRA.DIHEDRAL>
0

>  <SCORE.INTRA.DIHEDRAL.0>
0

>  <SCORE.INTRA.POLAR>
0

>  <SCORE.INTRA.POLAR.0>
0

>  <SCORE.INTRA.REPUL>
0

>  <SCORE.INTRA.REPUL.0>
0

>  <SCORE.INTRA.SOLV>
0

>  <SCORE.INTRA.SOLV.lig_0>
-4.15853

>  <SCORE.INTRA.VDW>
0

>  <SCORE.INTRA.VDW.0>
0

>  <SCORE.INTRA.norm>
0

>  <SCORE.RESTR>
0

>  <SCORE.RESTR.CAVITY>
0

>  <SCORE.RESTR.norm>
0

>  <SCORE.SYSTEM>
0

>  <SCORE.SYSTEM.CONST>
0

>  <SCORE.SYSTEM.DIHEDRAL>
0

>  <SCORE.SYSTEM.SOLV>
0

>  <SCORE.SYSTEM.norm>
0

>  <SCORE.heavy>
10

>  <SCORE.norm>
-1.52696

>  <RMSD>
1.114

$$$$
ligand
 OpenBabel02271912153D
libRbt.so/2013.1/901 2013/11/27
 10 11  0  0  0  0  0  0  0  0999 V2000
    0.7797  -13.4535   12.2249 N   0  0  0  0  0  0  0  0  0  0  0  0
    1.6944  -13.5596   11.2855 C   0  0  0  0  0  0  0  0  0  0  0  0
    2.4332  -12.4292   10.9276 N   0  0  0  0  0  0  0  0  0  0  0  0
    2.2129  -11.2613   11.5267 C   0  0  0  0  0  0  0  0  0  0  0  0
    1.2926  -11.1575   12.4672 C   0  0  0  0  0  0  0  0  0  0  0  0
    0.5784  -12.2102   12.8197 C   0  0  0  0  0  0  0  0  0  0  0  0
   -0.2743  -12.0897   13.6881 O   0  0  0  0  0  0  0  0  0  0  0  0
    1.2694   -9.9016   12.9100 N   0  0  0  0  0  0  0  0  0  0  0  0
    2.1950   -9.2300   12.2342 C   0  0  0  0  0  0  0  0  0  0  0  0
    2.7760  -10.0730   11.3767 N   0  0  0  0  0  0  0  0  0  0  0  0
  1  2  1  0  0  0  0
  1  6  1  0  0  0  0
  2  3  2  0  0  0  0
  3  4  1  0  0  0  0
  4  5  2  0  0  0  0
  4 10  1  0  0  0  0
  5  6  1  0  0  0  0
  5  8  1  0  0  0  0
  6  7  2  0  0  0  0
  8  9  1  0  0  0  0
  9 10  2  0  0  0  0
M  END
>  <CHROM.1>
1.46155809,-11.54890440,12.17532514,-2.18399321,0.74855881,0.31938242

>  <Name>
ligand

>  <RI>
0

>  <Rbt.Current_Directory>
/home/itssahil/PROJECTS/Mol_Feturizer/Test_systems_manuscript/rnas/5c7w

>  <Rbt.Executable>
rbdock ($Id: //depot/dev/client3/rdock/2013.1/src/exe/rbdock.cxx#4 $)

>  <Rbt.Library>
libRbt.so (2013.1, Build901 2013/11/27)

>  <Rbt.Parameter_File>
/export/apps/rDock/src/rDock_2013.1_src/data/scripts/dock_solv.prm

>  <Rbt.Receptor>
prm/pocket_docking_5.prm

>  <SCORE>
-15.2672

>  <SCORE.INTER>
-15.2672

>  <SCORE.INTER.CONST>
1

>  <SCORE.INTER.POLAR>
0

>  <SCORE.INTER.ROT>
0

>  <SCORE.INTER.SOLV>
3.29238

>  <SCORE.INTER.VDW>
-14.8756

>  <SCORE.INTER.norm>
-1.52672

>  <SCORE.INTRA>
0

>  <SCORE.INTRA.DIHEDRAL>
0

>  <SCORE.INTRA.DIHEDRAL.0>
0

>  <SCORE.INTRA.POLAR>
0

>  <SCORE.INTRA.POLAR.0>
0

>  <SCORE.INTRA.REPUL>
0

>  <SCORE.INTRA.REPUL.0>
0

>  <SCORE.INTRA.SOLV>
0

>  <SCORE.INTRA.SOLV.lig_0>
-4.15853

>  <SCORE.INTRA.VDW>
0

>  <SCORE.INTRA.VDW.0>
0

>  <SCORE.INTRA.norm>
0

>  <SCORE.RESTR>
0

>  <SCORE.RESTR.CAVITY>
0

>  <SCORE.RESTR.norm>
0

>  <SCORE.SYSTEM>
0

>  <SCORE.SYSTEM.CONST>
0

>  <SCORE.SYSTEM.DIHEDRAL>
0

>  <SCORE.SYSTEM.SOLV>
0

>  <SCORE.SYSTEM.norm>
0

>  <SCORE.heavy>
10

>  <SCORE.norm>
-1.52672

>  <RMSD>
1.114

$$$$
ligand
 OpenBabel02271912153D
libRbt.so/2013.1/901 2013/11/27
 10 11  0  0  0  0  0  0  0  0999 V2000
    0.7799  -13.4483   12.2239 N   0  0  0  0  0  0  0  0  0  0  0  0
    1.6945  -13.5540   11.2842 C   0  0  0  0  0  0  0  0  0  0  0  0
    2.4321  -12.4229   10.9257 N   0  0  0  0  0  0  0  0  0  0  0  0
    2.2108  -11.2551   11.5243 C   0  0  0  0  0  0  0  0  0  0  0  0
    1.2907  -11.1517   12.4651 C   0  0  0  0  0  0  0  0  0  0  0  0
    0.5776  -12.2050   12.8182 C   0  0  0  0  0  0  0  0  0  0  0  0
   -0.2751  -12.0850   13.6868 O   0  0  0  0  0  0  0  0  0  0  0  0
    1.2664   -9.8957   12.9074 N   0  0  0  0  0  0  0  0  0  0  0  0
    2.1911   -9.2235   12.2310 C   0  0  0  0  0  0  0  0  0  0  0  0
    2.7727  -10.0662   11.3737 N   0  0  0  0  0  0  0  0  0  0  0  0
  1  2  1  0  0  0  0
  1  6  1  0  0  0  0
  2  3  2  0  0  0  0
  3  4  1  0  0  0  0
  4  5  2  0  0  0  0
  4 10  1  0  0  0  0
  5  6  1  0  0  0  0
  5  8  1  0  0  0  0
  6  7  2  0  0  0  0
  8  9  1  0  0  0  0
  9 10  2  0  0  0  0
M  END
>  <CHROM.1>
1.45990034,-11.54308897,12.17332219,-2.18283087,0.74912506,0.31816877

>  <Name>
ligand

>  <RI>
0

>  <Rbt.Current_Directory>
/home/itssahil/PROJECTS/Mol_Feturizer/Test_systems_manuscript/rnas/5c7w

>  <Rbt.Executable>
rbdock ($Id: //depot/dev/client3/rdock/2013.1/src/exe/rbdock.cxx#4 $)

>  <Rbt.Library>
libRbt.so (2013.1, Build901 2013/11/27)

>  <Rbt.Parameter_File>
/export/apps/rDock/src/rDock_2013.1_src/data/scripts/dock_solv.prm

>  <Rbt.Receptor>
prm/pocket_docking_5.prm

>  <SCORE>
-15.2674

>  <SCORE.INTER>
-15.2674

>  <SCORE.INTER.CONST>
1

>  <SCORE.INTER.POLAR>
0

>  <SCORE.INTER.ROT>
0

>  <SCORE.INTER.SOLV>
3.29085

>  <SCORE.INTER.VDW>
-14.8752

>  <SCORE.INTER.norm>
-1.52674

>  <SCORE.INTRA>
0

>  <SCORE.INTRA.DIHEDRAL>
0

>  <SCORE.INTRA.DIHEDRAL.0>
0

>  <SCORE.INTRA.POLAR>
0

>  <SCORE.INTRA.POLAR.0>
0

>  <SCORE.INTRA.REPUL>
0

>  <SCORE.INTRA.REPUL.0>
0

>  <SCORE.INTRA.SOLV>
0

>  <SCORE.INTRA.SOLV.lig_0>
-4.15853

>  <SCORE.INTRA.VDW>
0

>  <SCORE.INTRA.VDW.0>
0

>  <SCORE.INTRA.norm>
0

>  <SCORE.RESTR>
0

>  <SCORE.RESTR.CAVITY>
0

>  <SCORE.RESTR.norm>
0

>  <SCORE.SYSTEM>
0

>  <SCORE.SYSTEM.CONST>
0

>  <SCORE.SYSTEM.DIHEDRAL>
0

>  <SCORE.SYSTEM.SOLV>
0

>  <SCORE.SYSTEM.norm>
0

>  <SCORE.heavy>
10

>  <SCORE.norm>
-1.52674

>  <RMSD>
1.114

$$$$
ligand
 OpenBabel02271912153D
libRbt.so/2013.1/901 2013/11/27
 10 11  0  0  0  0  0  0  0  0999 V2000
    0.7776  -13.4435   12.2239 N   0  0  0  0  0  0  0  0  0  0  0  0
    1.6882  -13.5496   11.2803 C   0  0  0  0  0  0  0  0  0  0  0  0
    2.4257  -12.4192   10.9195 N   0  0  0  0  0  0  0  0  0  0  0  0
    2.2085  -11.2516   11.5200 C   0  0  0  0  0  0  0  0  0  0  0  0
    1.2925  -11.1477   12.4647 C   0  0  0  0  0  0  0  0  0  0  0  0
    0.5795  -12.2004   12.8200 C   0  0  0  0  0  0  0  0  0  0  0  0
   -0.2693  -12.0799   13.6922 O   0  0  0  0  0  0  0  0  0  0  0  0
    1.2717   -9.8920   12.9081 N   0  0  0  0  0  0  0  0  0  0  0  0
    2.1945   -9.2205   12.2284 C   0  0  0  0  0  0  0  0  0  0  0  0
    2.7713  -10.0634   11.3680 N   0  0  0  0  0  0  0  0  0  0  0  0
  1  2  1  0  0  0  0
  1  6  1  0  0  0  0
  2  3  2  0  0  0  0
  3  4  1  0  0  0  0
  4  5  2  0  0  0  0
  4 10  1  0  0  0  0
  5  6  1  0  0  0  0
  5  8  1  0  0  0  0
  6  7  2  0  0  0  0
  8  9  1  0  0  0  0
  9 10  2  0  0  0  0
M  END
>  <CHROM.1>
1.45995848,-11.53910529,12.17192268,-2.18635574,0.75269328,0.32135331

>  <Name>
ligand

>  <RI>
0

>  <Rbt.Current_Directory>
/home/itssahil/PROJECTS/Mol_Feturizer/Test_systems_manuscript/rnas/5c7w

>  <Rbt.Executable>
rbdock ($Id: //depot/dev/client3/rdock/2013.1/src/exe/rbdock.cxx#4 $)

>  <Rbt.Library>
libRbt.so (2013.1, Build901 2013/11/27)

>  <Rbt.Parameter_File>
/export/apps/rDock/src/rDock_2013.1_src/data/scripts/dock_solv.prm

>  <Rbt.Receptor>
prm/pocket_docking_6.prm

>  <SCORE>
-15.2682

>  <SCORE.INTER>
-15.2682

>  <SCORE.INTER.CONST>
1

>  <SCORE.INTER.POLAR>
0

>  <SCORE.INTER.ROT>
0

>  <SCORE.INTER.SOLV>
3.29718

>  <SCORE.INTER.VDW>
-14.8779

>  <SCORE.INTER.norm>
-1.52682

>  <SCORE.INTRA>
0

>  <SCORE.INTRA.DIHEDRAL>
0

>  <SCORE.INTRA.DIHEDRAL.0>
0

>  <SCORE.INTRA.POLAR>
0

>  <SCORE.INTRA.POLAR.0>
0

>  <SCORE.INTRA.REPUL>
0

>  <SCORE.INTRA.REPUL.0>
0

>  <SCORE.INTRA.SOLV>
0

>  <SCORE.INTRA.SOLV.lig_0>
-4.15853

>  <SCORE.INTRA.VDW>
0

>  <SCORE.INTRA.VDW.0>
0

>  <SCORE.INTRA.norm>
0

>  <SCORE.RESTR>
0

>  <SCORE.RESTR.CAVITY>
0

>  <SCORE.RESTR.norm>
0

>  <SCORE.SYSTEM>
0

>  <SCORE.SYSTEM.CONST>
0

>  <SCORE.SYSTEM.DIHEDRAL>
0

>  <SCORE.SYSTEM.SOLV>
0

>  <SCORE.SYSTEM.norm>
0

>  <SCORE.heavy>
10

>  <SCORE.norm>
-1.52682

>  <RMSD>
1.114

$$$$
ligand
 OpenBabel02271912153D
libRbt.so/2013.1/901 2013/11/27
 10 11  0  0  0  0  0  0  0  0999 V2000
    0.7750  -13.4498   12.2202 N   0  0  0  0  0  0  0  0  0  0  0  0
    1.6861  -13.5560   11.2772 C   0  0  0  0  0  0  0  0  0  0  0  0
    2.4262  -12.4264   10.9192 N   0  0  0  0  0  0  0  0  0  0  0  0
    2.2107  -11.2594   11.5216 C   0  0  0  0  0  0  0  0  0  0  0  0
    1.2940  -11.1555   12.4656 C   0  0  0  0  0  0  0  0  0  0  0  0
    0.5787  -12.2074   12.8184 C   0  0  0  0  0  0  0  0  0  0  0  0
   -0.2708  -12.0869   13.6900 O   0  0  0  0  0  0  0  0  0  0  0  0
    1.2752   -9.9006   12.9113 N   0  0  0  0  0  0  0  0  0  0  0  0
    2.1999   -9.2296   12.2336 C   0  0  0  0  0  0  0  0  0  0  0  0
    2.7760  -10.0721   11.3722 N   0  0  0  0  0  0  0  0  0  0  0  0
  1  2  1  0  0  0  0
  1  6  1  0  0  0  0
  2  3  2  0  0  0  0
  3  4  1  0  0  0  0
  4  5  2  0  0  0  0
  4 10  1  0  0  0  0
  5  6  1  0  0  0  0
  5  8  1  0  0  0  0
  6  7  2  0  0  0  0
  8  9  1  0  0  0  0
  9 10  2  0  0  0  0
M  END
>  <CHROM.1>
1.46099315,-11.54671877,12.17229751,-2.18846406,0.75119587,0.32460793

>  <Name>
ligand

>  <RI>
0

>  <Rbt.Current_Directory>
/home/itssahil/PROJECTS/Mol_Feturizer/Test_systems_manuscript/rnas/5c7w

>  <Rbt.Executable>
rbdock ($Id: //depot/dev/client3/rdock/2013.1/src/exe/rbdock.cxx#4 $)

>  <Rbt.Library>
libRbt.so (2013.1, Build901 2013/11/27)

>  <Rbt.Parameter_File>
/export/apps/rDock/src/rDock_2013.1_src/data/scripts/dock_solv.prm

>  <Rbt.Receptor>
prm/pocket_docking_6.prm

>  <SCORE>
-15.2693

>  <SCORE.INTER>
-15.2693

>  <SCORE.INTER.CONST>
1

>  <SCORE.INTER.POLAR>
0

>  <SCORE.INTER.ROT>
0

>  <SCORE.INTER.SOLV>
3.29528

>  <SCORE.INTER.VDW>
-14.8779

>  <SCORE.INTER.norm>
-1.52693

>  <SCORE.INTRA>
0

>  <SCORE.INTRA.DIHEDRAL>
0

>  <SCORE.INTRA.DIHEDRAL.0>
0

>  <SCORE.INTRA.POLAR>
0

>  <SCORE.INTRA.POLAR.0>
0

>  <SCORE.INTRA.REPUL>
0

>  <SCORE.INTRA.REPUL.0>
0

>  <SCORE.INTRA.SOLV>
0

>  <SCORE.INTRA.SOLV.lig_0>
-4.15853

>  <SCORE.INTRA.VDW>
0

>  <SCORE.INTRA.VDW.0>
0

>  <SCORE.INTRA.norm>
0

>  <SCORE.RESTR>
0

>  <SCORE.RESTR.CAVITY>
0

>  <SCORE.RESTR.norm>
0

>  <SCORE.SYSTEM>
0

>  <SCORE.SYSTEM.CONST>
0

>  <SCORE.SYSTEM.DIHEDRAL>
0

>  <SCORE.SYSTEM.SOLV>
0

>  <SCORE.SYSTEM.norm>
0

>  <SCORE.heavy>
10

>  <SCORE.norm>
-1.52693

>  <RMSD>
1.114

$$$$
ligand
 OpenBabel02271912153D
libRbt.so/2013.1/901 2013/11/27
 10 11  0  0  0  0  0  0  0  0999 V2000
    0.7786  -13.4491   12.2244 N   0  0  0  0  0  0  0  0  0  0  0  0
    1.6888  -13.5539   11.2804 C   0  0  0  0  0  0  0  0  0  0  0  0
    2.4250  -12.4226   10.9196 N   0  0  0  0  0  0  0  0  0  0  0  0
    2.2066  -11.2553   11.5204 C   0  0  0  0  0  0  0  0  0  0  0  0
    1.2908  -11.1528   12.4655 C   0  0  0  0  0  0  0  0  0  0  0  0
    0.5792  -12.2063   12.8208 C   0  0  0  0  0  0  0  0  0  0  0  0
   -0.2694  -12.0870   13.6934 O   0  0  0  0  0  0  0  0  0  0  0  0
    1.2687   -9.8972   12.9092 N   0  0  0  0  0  0  0  0  0  0  0  0
    2.1905   -9.2244   12.2292 C   0  0  0  0  0  0  0  0  0  0  0  0
    2.7680  -10.0665   11.3684 N   0  0  0  0  0  0  0  0  0  0  0  0
  1  2  1  0  0  0  0
  1  6  1  0  0  0  0
  2  3  2  0  0  0  0
  3  4  1  0  0  0  0
  4  5  2  0  0  0  0
  4 10  1  0  0  0  0
  5  6  1  0  0  0  0
  5  8  1  0  0  0  0
  6  7  2  0  0  0  0
  8  9  1  0  0  0  0
  9 10  2  0  0  0  0
M  END
>  <CHROM.1>
1.45864045,-11.54389583,12.17255651,-2.18500324,0.75344128,0.32064587

>  <Name>
ligand

>  <RI>
0

>  <Rbt.Current_Directory>
/home/itssahil/PROJECTS/Mol_Feturizer/Test_systems_manuscript/rnas/5c7w

>  <Rbt.Executable>
rbdock ($Id: //depot/dev/client3/rdock/2013.1/src/exe/rbdock.cxx#4 $)

>  <Rbt.Library>
libRbt.so (2013.1, Build901 2013/11/27)

>  <Rbt.Parameter_File>
/export/apps/rDock/src/rDock_2013.1_src/data/scripts/dock_solv.prm

>  <Rbt.Receptor>
prm/pocket_docking_6.prm

>  <SCORE>
-15.2687

>  <SCORE.INTER>
-15.2687

>  <SCORE.INTER.CONST>
1

>  <SCORE.INTER.POLAR>
0

>  <SCORE.INTER.ROT>
0

>  <SCORE.INTER.SOLV>
3.30177

>  <SCORE.INTER.VDW>
-14.8797

>  <SCORE.INTER.norm>
-1.52687

>  <SCORE.INTRA>
0

>  <SCORE.INTRA.DIHEDRAL>
0

>  <SCORE.INTRA.DIHEDRAL.0>
0

>  <SCORE.INTRA.POLAR>
0

>  <SCORE.INTRA.POLAR.0>
0

>  <SCORE.INTRA.REPUL>
0

>  <SCORE.INTRA.REPUL.0>
0

>  <SCORE.INTRA.SOLV>
0

>  <SCORE.INTRA.SOLV.lig_0>
-4.15853

>  <SCORE.INTRA.VDW>
0

>  <SCORE.INTRA.VDW.0>
0

>  <SCORE.INTRA.norm>
0

>  <SCORE.RESTR>
0

>  <SCORE.RESTR.CAVITY>
0

>  <SCORE.RESTR.norm>
0

>  <SCORE.SYSTEM>
0

>  <SCORE.SYSTEM.CONST>
0

>  <SCORE.SYSTEM.DIHEDRAL>
0

>  <SCORE.SYSTEM.SOLV>
0

>  <SCORE.SYSTEM.norm>
0

>  <SCORE.heavy>
10

>  <SCORE.norm>
-1.52687

>  <RMSD>
1.114

$$$$
ligand
 OpenBabel02271912153D
libRbt.so/2013.1/901 2013/11/27
 10 11  0  0  0  0  0  0  0  0999 V2000
    0.7741  -13.4530   12.2148 N   0  0  0  0  0  0  0  0  0  0  0  0
    1.6900  -13.5570   11.2763 C   0  0  0  0  0  0  0  0  0  0  0  0
    2.4299  -12.4259   10.9226 N   0  0  0  0  0  0  0  0  0  0  0  0
    2.2094  -11.2597   11.5246 C   0  0  0  0  0  0  0  0  0  0  0  0
    1.2879  -11.1579   12.4642 C   0  0  0  0  0  0  0  0  0  0  0  0
    0.5727  -12.2113   12.8128 C   0  0  0  0  0  0  0  0  0  0  0  0
   -0.2812  -12.0927   13.6804 O   0  0  0  0  0  0  0  0  0  0  0  0
    1.2648   -9.9033   12.9104 N   0  0  0  0  0  0  0  0  0  0  0  0
    2.1916   -9.2303   12.2377 C   0  0  0  0  0  0  0  0  0  0  0  0
    2.7733  -10.0712   11.3786 N   0  0  0  0  0  0  0  0  0  0  0  0
  1  2  1  0  0  0  0
  1  6  1  0  0  0  0
  2  3  2  0  0  0  0
  3  4  1  0  0  0  0
  4  5  2  0  0  0  0
  4 10  1  0  0  0  0
  5  6  1  0  0  0  0
  5  8  1  0  0  0  0
  6  7  2  0  0  0  0
  8  9  1  0  0  0  0
  9 10  2  0  0  0  0
M  END
>  <CHROM.1>
1.45702360,-11.54862729,12.17142743,-2.18408669,0.74712301,0.32220751

>  <Name>
ligand

>  <RI>
0

>  <Rbt.Current_Directory>
/home/itssahil/PROJECTS/Mol_Feturizer/Test_systems_manuscript/rnas/5c7w

>  <Rbt.Executable>
rbdock ($Id: //depot/dev/client3/rdock/2013.1/src/exe/rbdock.cxx#4 $)

>  <Rbt.Library>
libRbt.so (2013.1, Build901 2013/11/27)

>  <Rbt.Parameter_File>
/export/apps/rDock/src/rDock_2013.1_src/data/scripts/dock_solv.prm

>  <Rbt.Receptor>
prm/pocket_docking_6.prm

>  <SCORE>
-15.2677

>  <SCORE.INTER>
-15.2677

>  <SCORE.INTER.CONST>
1

>  <SCORE.INTER.POLAR>
0

>  <SCORE.INTER.ROT>
0

>  <SCORE.INTER.SOLV>
3.28689

>  <SCORE.INTER.VDW>
-14.8741

>  <SCORE.INTER.norm>
-1.52677

>  <SCORE.INTRA>
0

>  <SCORE.INTRA.DIHEDRAL>
0

>  <SCORE.INTRA.DIHEDRAL.0>
0

>  <SCORE.INTRA.POLAR>
0

>  <SCORE.INTRA.POLAR.0>
0

>  <SCORE.INTRA.REPUL>
0

>  <SCORE.INTRA.REPUL.0>
0

>  <SCORE.INTRA.SOLV>
0

>  <SCORE.INTRA.SOLV.lig_0>
-4.15853

>  <SCORE.INTRA.VDW>
0

>  <SCORE.INTRA.VDW.0>
0

>  <SCORE.INTRA.norm>
0

>  <SCORE.RESTR>
0

>  <SCORE.RESTR.CAVITY>
0

>  <SCORE.RESTR.norm>
0

>  <SCORE.SYSTEM>
0

>  <SCORE.SYSTEM.CONST>
0

>  <SCORE.SYSTEM.DIHEDRAL>
0

>  <SCORE.SYSTEM.SOLV>
0

>  <SCORE.SYSTEM.norm>
0

>  <SCORE.heavy>
10

>  <SCORE.norm>
-1.52677

>  <RMSD>
1.114

$$$$
ligand
 OpenBabel02271912153D
libRbt.so/2013.1/901 2013/11/27
 10 11  0  0  0  0  0  0  0  0999 V2000
    0.7810  -13.4435   12.2229 N   0  0  0  0  0  0  0  0  0  0  0  0
    1.6948  -13.5543   11.2831 C   0  0  0  0  0  0  0  0  0  0  0  0
    2.4340  -12.4258   10.9197 N   0  0  0  0  0  0  0  0  0  0  0  0
    2.2149  -11.2553   11.5139 C   0  0  0  0  0  0  0  0  0  0  0  0
    1.2955  -11.1468   12.4548 C   0  0  0  0  0  0  0  0  0  0  0  0
    0.5810  -12.1976   12.8125 C   0  0  0  0  0  0  0  0  0  0  0  0
   -0.2709  -12.0728   13.6811 O   0  0  0  0  0  0  0  0  0  0  0  0
    1.2735   -9.8890   12.8922 N   0  0  0  0  0  0  0  0  0  0  0  0
    2.1989   -9.2210   12.2127 C   0  0  0  0  0  0  0  0  0  0  0  0
    2.7786  -10.0680   11.3583 N   0  0  0  0  0  0  0  0  0  0  0  0
  1  2  1  0  0  0  0
  1  6  1  0  0  0  0
  2  3  2  0  0  0  0
  3  4  1  0  0  0  0
  4  5  2  0  0  0  0
  4 10  1  0  0  0  0
  5  6  1  0  0  0  0
  5  8  1  0  0  0  0
  6  7  2  0  0  0  0
  8  9  1  0  0  0  0
  9 10  2  0  0  0  0
M  END
>  <CHROM.1>
1.46396126,-11.53961526,12.16445629,-2.18516374,0.74922316,0.31585105

>  <Name>
ligand

>  <RI>
0

>  <Rbt.Current_Directory>
/home/itssahil/PROJECTS/Mol_Feturizer/Test_systems_manuscript/rnas/5c7w

>  <Rbt.Executable>
rbdock ($Id: //depot/dev/client3/rdock/2013.1/src/exe/rbdock.cxx#4 $)

>  <Rbt.Library>
libRbt.so (2013.1, Build901 2013/11/27)

>  <Rbt.Parameter_File>
/export/apps/rDock/src/rDock_2013.1_src/data/scripts/dock_solv.prm

>  <Rbt.Receptor>
prm/pocket_docking_7.prm

>  <SCORE>
-15.2342

>  <SCORE.INTER>
-15.2342

>  <SCORE.INTER.CONST>
1

>  <SCORE.INTER.POLAR>
0

>  <SCORE.INTER.ROT>
0

>  <SCORE.INTER.SOLV>
3.28307

>  <SCORE.INTER.VDW>
-14.8505

>  <SCORE.INTER.norm>
-1.52342

>  <SCORE.INTRA>
0

>  <SCORE.INTRA.DIHEDRAL>
0

>  <SCORE.INTRA.DIHEDRAL.0>
0

>  <SCORE.INTRA.POLAR>
0

>  <SCORE.INTRA.POLAR.0>
0

>  <SCORE.INTRA.REPUL>
0

>  <SCORE.INTRA.REPUL.0>
0

>  <SCORE.INTRA.SOLV>
0

>  <SCORE.INTRA.SOLV.lig_0>
-4.15853

>  <SCORE.INTRA.VDW>
0

>  <SCORE.INTRA.VDW.0>
0

>  <SCORE.INTRA.norm>
0

>  <SCORE.RESTR>
0

>  <SCORE.RESTR.CAVITY>
0

>  <SCORE.RESTR.norm>
0

>  <SCORE.SYSTEM>
0

>  <SCORE.SYSTEM.CONST>
0

>  <SCORE.SYSTEM.DIHEDRAL>
0

>  <SCORE.SYSTEM.SOLV>
0

>  <SCORE.SYSTEM.norm>
0

>  <SCORE.heavy>
10

>  <SCORE.norm>
-1.52342

>  <RMSD>
1.114

$$$$
ligand
 OpenBabel02271912153D
libRbt.so/2013.1/901 2013/11/27
 10 11  0  0  0  0  0  0  0  0999 V2000
    0.7695  -13.4540   12.2076 N   0  0  0  0  0  0  0  0  0  0  0  0
    1.6880  -13.5592   11.2717 C   0  0  0  0  0  0  0  0  0  0  0  0
    2.4328  -12.4299   10.9226 N   0  0  0  0  0  0  0  0  0  0  0  0
    2.2144  -11.2641   11.5263 C   0  0  0  0  0  0  0  0  0  0  0  0
    1.2903  -11.1612   12.4633 C   0  0  0  0  0  0  0  0  0  0  0  0
    0.5705  -12.2128   12.8075 C   0  0  0  0  0  0  0  0  0  0  0  0
   -0.2857  -12.0932   13.6727 O   0  0  0  0  0  0  0  0  0  0  0  0
    1.2700   -9.9074   12.9121 N   0  0  0  0  0  0  0  0  0  0  0  0
    2.2012   -9.2362   12.2436 C   0  0  0  0  0  0  0  0  0  0  0  0
    2.7827  -10.0773   11.3846 N   0  0  0  0  0  0  0  0  0  0  0  0
  1  2  1  0  0  0  0
  1  6  1  0  0  0  0
  2  3  2  0  0  0  0
  3  4  1  0  0  0  0
  4  5  2  0  0  0  0
  4 10  1  0  0  0  0
  5  6  1  0  0  0  0
  5  8  1  0  0  0  0
  6  7  2  0  0  0  0
  8  9  1  0  0  0  0
  9 10  2  0  0  0  0
M  END
>  <CHROM.1>
1.45902293,-11.55188124,12.17023693,-2.18710333,0.74310721,0.32632987

>  <Name>
ligand

>  <RI>
0

>  <Rbt.Current_Directory>
/home/itssahil/PROJECTS/Mol_Feturizer/Test_systems_manuscript/rnas/5c7w

>  <Rbt.Executable>
rbdock ($Id: //depot/dev/client3/rdock/2013.1/src/exe/rbdock.cxx#4 $)

>  <Rbt.Library>
libRbt.so (2013.1, Build901 2013/11/27)

>  <Rbt.Parameter_File>
/export/apps/rDock/src/rDock_2013.1_src/data/scripts/dock_solv.prm

>  <Rbt.Receptor>
prm/pocket_docking_8.prm

>  <SCORE>
-15.2651

>  <SCORE.INTER>
-15.2651

>  <SCORE.INTER.CONST>
1

>  <SCORE.INTER.POLAR>
0

>  <SCORE.INTER.ROT>
0

>  <SCORE.INTER.SOLV>
3.27526

>  <SCORE.INTER.VDW>
-14.8685

>  <SCORE.INTER.norm>
-1.52651

>  <SCORE.INTRA>
0

>  <SCORE.INTRA.DIHEDRAL>
0

>  <SCORE.INTRA.DIHEDRAL.0>
0

>  <SCORE.INTRA.POLAR>
0

>  <SCORE.INTRA.POLAR.0>
0

>  <SCORE.INTRA.REPUL>
0

>  <SCORE.INTRA.REPUL.0>
0

>  <SCORE.INTRA.SOLV>
0

>  <SCORE.INTRA.SOLV.lig_0>
-4.15853

>  <SCORE.INTRA.VDW>
0

>  <SCORE.INTRA.VDW.0>
0

>  <SCORE.INTRA.norm>
0

>  <SCORE.RESTR>
0

>  <SCORE.RESTR.CAVITY>
0

>  <SCORE.RESTR.norm>
0

>  <SCORE.SYSTEM>
0

>  <SCORE.SYSTEM.CONST>
0

>  <SCORE.SYSTEM.DIHEDRAL>
0

>  <SCORE.SYSTEM.SOLV>
0

>  <SCORE.SYSTEM.norm>
0

>  <SCORE.heavy>
10

>  <SCORE.norm>
-1.52651

>  <RMSD>
1.114

$$$$
ligand
 OpenBabel02271912153D
libRbt.so/2013.1/901 2013/11/27
 10 11  0  0  0  0  0  0  0  0999 V2000
    0.7767  -13.4511   12.2192 N   0  0  0  0  0  0  0  0  0  0  0  0
    1.6930  -13.5539   11.2809 C   0  0  0  0  0  0  0  0  0  0  0  0
    2.4307  -12.4215   10.9268 N   0  0  0  0  0  0  0  0  0  0  0  0
    2.2079  -11.2554   11.5283 C   0  0  0  0  0  0  0  0  0  0  0  0
    1.2860  -11.1550   12.4676 C   0  0  0  0  0  0  0  0  0  0  0  0
    0.5728  -12.2096   12.8166 C   0  0  0  0  0  0  0  0  0  0  0  0
   -0.2815  -12.0923   13.6840 O   0  0  0  0  0  0  0  0  0  0  0  0
    1.2604   -9.9002   12.9134 N   0  0  0  0  0  0  0  0  0  0  0  0
    2.1861   -9.2258   12.2405 C   0  0  0  0  0  0  0  0  0  0  0  0
    2.7696  -10.0659   11.3819 N   0  0  0  0  0  0  0  0  0  0  0  0
  1  2  1  0  0  0  0
  1  6  1  0  0  0  0
  2  3  2  0  0  0  0
  3  4  1  0  0  0  0
  4  5  2  0  0  0  0
  4 10  1  0  0  0  0
  5  6  1  0  0  0  0
  5  8  1  0  0  0  0
  6  7  2  0  0  0  0
  8  9  1  0  0  0  0
  9 10  2  0  0  0  0
M  END
>  <CHROM.1>
1.45595649,-11.54551432,12.17511241,-2.18153009,0.74755685,0.32002419

>  <Name>
ligand

>  <RI>
0

>  <Rbt.Current_Directory>
/home/itssahil/PROJECTS/Mol_Feturizer/Test_systems_manuscript/rnas/5c7w

>  <Rbt.Executable>
rbdock ($Id: //depot/dev/client3/rdock/2013.1/src/exe/rbdock.cxx#4 $)

>  <Rbt.Library>
libRbt.so (2013.1, Build901 2013/11/27)

>  <Rbt.Parameter_File>
/export/apps/rDock/src/rDock_2013.1_src/data/scripts/dock_solv.prm

>  <Rbt.Receptor>
prm/pocket_docking_8.prm

>  <SCORE>
-15.2661

>  <SCORE.INTER>
-15.2661

>  <SCORE.INTER.CONST>
1

>  <SCORE.INTER.POLAR>
0

>  <SCORE.INTER.ROT>
0

>  <SCORE.INTER.SOLV>
3.29016

>  <SCORE.INTER.VDW>
-14.8741

>  <SCORE.INTER.norm>
-1.52661

>  <SCORE.INTRA>
0

>  <SCORE.INTRA.DIHEDRAL>
0

>  <SCORE.INTRA.DIHEDRAL.0>
0

>  <SCORE.INTRA.POLAR>
0

>  <SCORE.INTRA.POLAR.0>
0

>  <SCORE.INTRA.REPUL>
0

>  <SCORE.INTRA.REPUL.0>
0

>  <SCORE.INTRA.SOLV>
0

>  <SCORE.INTRA.SOLV.lig_0>
-4.15853

>  <SCORE.INTRA.VDW>
0

>  <SCORE.INTRA.VDW.0>
0

>  <SCORE.INTRA.norm>
0

>  <SCORE.RESTR>
0

>  <SCORE.RESTR.CAVITY>
0

>  <SCORE.RESTR.norm>
0

>  <SCORE.SYSTEM>
0

>  <SCORE.SYSTEM.CONST>
0

>  <SCORE.SYSTEM.DIHEDRAL>
0

>  <SCORE.SYSTEM.SOLV>
0

>  <SCORE.SYSTEM.norm>
0

>  <SCORE.heavy>
10

>  <SCORE.norm>
-1.52661

>  <RMSD>
1.114

$$$$
ligand
 OpenBabel02271912153D
libRbt.so/2013.1/901 2013/11/27
 10 11  0  0  0  0  0  0  0  0999 V2000
    0.7770  -13.4484   12.2177 N   0  0  0  0  0  0  0  0  0  0  0  0
    1.6925  -13.5508   11.2786 C   0  0  0  0  0  0  0  0  0  0  0  0
    2.4270  -12.4174   10.9211 N   0  0  0  0  0  0  0  0  0  0  0  0
    2.2019  -11.2505   11.5204 C   0  0  0  0  0  0  0  0  0  0  0  0
    1.2809  -11.1504   12.4606 C   0  0  0  0  0  0  0  0  0  0  0  0
    0.5707  -12.2060   12.8126 C   0  0  0  0  0  0  0  0  0  0  0  0
   -0.2829  -12.0890   13.6808 O   0  0  0  0  0  0  0  0  0  0  0  0
    1.2526   -9.8947   12.9036 N   0  0  0  0  0  0  0  0  0  0  0  0
    2.1758   -9.2194   12.2282 C   0  0  0  0  0  0  0  0  0  0  0  0
    2.7604  -10.0600   11.3708 N   0  0  0  0  0  0  0  0  0  0  0  0
  1  2  1  0  0  0  0
  1  6  1  0  0  0  0
  2  3  2  0  0  0  0
  3  4  1  0  0  0  0
  4  5  2  0  0  0  0
  4 10  1  0  0  0  0
  5  6  1  0  0  0  0
  5  8  1  0  0  0  0
  6  7  2  0  0  0  0
  8  9  1  0  0  0  0
  9 10  2  0  0  0  0
M  END
>  <CHROM.1>
1.45145500,-11.54113933,12.16869244,-2.17876987,0.74944125,0.31599057

>  <Name>
ligand

>  <RI>
0

>  <Rbt.Current_Directory>
/home/itssahil/PROJECTS/Mol_Feturizer/Test_systems_manuscript/rnas/5c7w

>  <Rbt.Executable>
rbdock ($Id: //depot/dev/client3/rdock/2013.1/src/exe/rbdock.cxx#4 $)

>  <Rbt.Library>
libRbt.so (2013.1, Build901 2013/11/27)

>  <Rbt.Parameter_File>
/export/apps/rDock/src/rDock_2013.1_src/data/scripts/dock_solv.prm

>  <Rbt.Receptor>
prm/pocket_docking_8.prm

>  <SCORE>
-15.2646

>  <SCORE.INTER>
-15.2646

>  <SCORE.INTER.CONST>
1

>  <SCORE.INTER.POLAR>
0

>  <SCORE.INTER.ROT>
0

>  <SCORE.INTER.SOLV>
3.29094

>  <SCORE.INTER.VDW>
-14.8734

>  <SCORE.INTER.norm>
-1.52646

>  <SCORE.INTRA>
0

>  <SCORE.INTRA.DIHEDRAL>
0

>  <SCORE.INTRA.DIHEDRAL.0>
0

>  <SCORE.INTRA.POLAR>
0

>  <SCORE.INTRA.POLAR.0>
0

>  <SCORE.INTRA.REPUL>
0

>  <SCORE.INTRA.REPUL.0>
0

>  <SCORE.INTRA.SOLV>
0

>  <SCORE.INTRA.SOLV.lig_0>
-4.15853

>  <SCORE.INTRA.VDW>
0

>  <SCORE.INTRA.VDW.0>
0

>  <SCORE.INTRA.norm>
0

>  <SCORE.RESTR>
0

>  <SCORE.RESTR.CAVITY>
0

>  <SCORE.RESTR.norm>
0

>  <SCORE.SYSTEM>
0

>  <SCORE.SYSTEM.CONST>
0

>  <SCORE.SYSTEM.DIHEDRAL>
0

>  <SCORE.SYSTEM.SOLV>
0

>  <SCORE.SYSTEM.norm>
0

>  <SCORE.heavy>
10

>  <SCORE.norm>
-1.52646

>  <RMSD>
1.114

$$$$
ligand
 OpenBabel02271912153D
libRbt.so/2013.1/901 2013/11/27
 10 11  0  0  0  0  0  0  0  0999 V2000
    0.7744  -13.4547   12.2163 N   0  0  0  0  0  0  0  0  0  0  0  0
    1.6876  -13.5595   11.2752 C   0  0  0  0  0  0  0  0  0  0  0  0
    2.4281  -12.4293   10.9199 N   0  0  0  0  0  0  0  0  0  0  0  0
    2.2108  -11.2630   11.5230 C   0  0  0  0  0  0  0  0  0  0  0  0
    1.2920  -11.1604   12.4652 C   0  0  0  0  0  0  0  0  0  0  0  0
    0.5764  -12.2129   12.8153 C   0  0  0  0  0  0  0  0  0  0  0  0
   -0.2749  -12.0936   13.6853 O   0  0  0  0  0  0  0  0  0  0  0  0
    1.2719   -9.9059   12.9121 N   0  0  0  0  0  0  0  0  0  0  0  0
    2.1977   -9.2339   12.2371 C   0  0  0  0  0  0  0  0  0  0  0  0
    2.7759  -10.0753   11.3760 N   0  0  0  0  0  0  0  0  0  0  0  0
  1  2  1  0  0  0  0
  1  6  1  0  0  0  0
  2  3  2  0  0  0  0
  3  4  1  0  0  0  0
  4  5  2  0  0  0  0
  4 10  1  0  0  0  0
  5  6  1  0  0  0  0
  5  8  1  0  0  0  0
  6  7  2  0  0  0  0
  8  9  1  0  0  0  0
  9 10  2  0  0  0  0
M  END
>  <CHROM.1>
1.45982674,-11.55123602,12.17182125,-2.18704438,0.74931314,0.32465896

>  <Name>
ligand

>  <RI>
0

>  <Rbt.Current_Directory>
/home/itssahil/PROJECTS/Mol_Feturizer/Test_systems_manuscript/rnas/5c7w

>  <Rbt.Executable>
rbdock ($Id: //depot/dev/client3/rdock/2013.1/src/exe/rbdock.cxx#4 $)

>  <Rbt.Library>
libRbt.so (2013.1, Build901 2013/11/27)

>  <Rbt.Parameter_File>
/export/apps/rDock/src/rDock_2013.1_src/data/scripts/dock_solv.prm

>  <Rbt.Receptor>
prm/pocket_docking_8.prm

>  <SCORE>
-15.2687

>  <SCORE.INTER>
-15.2687

>  <SCORE.INTER.CONST>
1

>  <SCORE.INTER.POLAR>
0

>  <SCORE.INTER.ROT>
0

>  <SCORE.INTER.SOLV>
3.29257

>  <SCORE.INTER.VDW>
-14.8767

>  <SCORE.INTER.norm>
-1.52687

>  <SCORE.INTRA>
0

>  <SCORE.INTRA.DIHEDRAL>
0

>  <SCORE.INTRA.DIHEDRAL.0>
0

>  <SCORE.INTRA.POLAR>
0

>  <SCORE.INTRA.POLAR.0>
0

>  <SCORE.INTRA.REPUL>
0

>  <SCORE.INTRA.REPUL.0>
0

>  <SCORE.INTRA.SOLV>
0

>  <SCORE.INTRA.SOLV.lig_0>
-4.15853

>  <SCORE.INTRA.VDW>
0

>  <SCORE.INTRA.VDW.0>
0

>  <SCORE.INTRA.norm>
0

>  <SCORE.RESTR>
0

>  <SCORE.RESTR.CAVITY>
0

>  <SCORE.RESTR.norm>
0

>  <SCORE.SYSTEM>
0

>  <SCORE.SYSTEM.CONST>
0

>  <SCORE.SYSTEM.DIHEDRAL>
0

>  <SCORE.SYSTEM.SOLV>
0

>  <SCORE.SYSTEM.norm>
0

>  <SCORE.heavy>
10

>  <SCORE.norm>
-1.52687

>  <RMSD>
1.114

$$$$
ligand
 OpenBabel02271912153D
libRbt.so/2013.1/901 2013/11/27
 10 11  0  0  0  0  0  0  0  0999 V2000
    0.7793  -13.4492   12.2184 N   0  0  0  0  0  0  0  0  0  0  0  0
    1.6878  -13.5589   11.2733 C   0  0  0  0  0  0  0  0  0  0  0  0
    2.4259  -12.4303   10.9079 N   0  0  0  0  0  0  0  0  0  0  0  0
    2.2111  -11.2608   11.5056 C   0  0  0  0  0  0  0  0  0  0  0  0
    1.2971  -11.1534   12.4518 C   0  0  0  0  0  0  0  0  0  0  0  0
    0.5837  -12.2043   12.8115 C   0  0  0  0  0  0  0  0  0  0  0  0
   -0.2632  -12.0805   13.6851 O   0  0  0  0  0  0  0  0  0  0  0  0
    1.2785   -9.8964   12.8918 N   0  0  0  0  0  0  0  0  0  0  0  0
    2.2006   -9.2278   12.2084 C   0  0  0  0  0  0  0  0  0  0  0  0
    2.7749  -10.0736   11.3492 N   0  0  0  0  0  0  0  0  0  0  0  0
  1  2  1  0  0  0  0
  1  6  1  0  0  0  0
  2  3  2  0  0  0  0
  3  4  1  0  0  0  0
  4  5  2  0  0  0  0
  4 10  1  0  0  0  0
  5  6  1  0  0  0  0
  5  8  1  0  0  0  0
  6  7  2  0  0  0  0
  8  9  1  0  0  0  0
  9 10  2  0  0  0  0
M  END
>  <CHROM.1>
1.46356363,-11.54574385,12.15981490,-2.18860947,0.75427199,0.32014414

>  <Name>
ligand

>  <RI>
0

>  <Rbt.Current_Directory>
/home/itssahil/PROJECTS/Mol_Feturizer/Test_systems_manuscript/rnas/5c7w

>  <Rbt.Executable>
rbdock ($Id: //depot/dev/client3/rdock/2013.1/src/exe/rbdock.cxx#4 $)

>  <Rbt.Library>
libRbt.so (2013.1, Build901 2013/11/27)

>  <Rbt.Parameter_File>
/export/apps/rDock/src/rDock_2013.1_src/data/scripts/dock_solv.prm

>  <Rbt.Receptor>
prm/blind_docking_100.prm

>  <SCORE>
-15.2373

>  <SCORE.INTER>
-15.2373

>  <SCORE.INTER.CONST>
1

>  <SCORE.INTER.POLAR>
0

>  <SCORE.INTER.ROT>
0

>  <SCORE.INTER.SOLV>
3.29476

>  <SCORE.INTER.VDW>
-14.8565

>  <SCORE.INTER.norm>
-1.52373

>  <SCORE.INTRA>
0

>  <SCORE.INTRA.DIHEDRAL>
0

>  <SCORE.INTRA.DIHEDRAL.0>
0

>  <SCORE.INTRA.POLAR>
0

>  <SCORE.INTRA.POLAR.0>
0

>  <SCORE.INTRA.REPUL>
0

>  <SCORE.INTRA.REPUL.0>
0

>  <SCORE.INTRA.SOLV>
0

>  <SCORE.INTRA.SOLV.lig_0>
-4.15853

>  <SCORE.INTRA.VDW>
0

>  <SCORE.INTRA.VDW.0>
0

>  <SCORE.INTRA.norm>
0

>  <SCORE.RESTR>
0

>  <SCORE.RESTR.CAVITY>
0

>  <SCORE.RESTR.norm>
0

>  <SCORE.SYSTEM>
0

>  <SCORE.SYSTEM.CONST>
0

>  <SCORE.SYSTEM.DIHEDRAL>
0

>  <SCORE.SYSTEM.SOLV>
0

>  <SCORE.SYSTEM.norm>
0

>  <SCORE.heavy>
10

>  <SCORE.norm>
-1.52373

>  <RMSD>
1.115

$$$$
ligand
 OpenBabel02271912153D
libRbt.so/2013.1/901 2013/11/27
 10 11  0  0  0  0  0  0  0  0999 V2000
    0.7735  -13.4645   12.2033 N   0  0  0  0  0  0  0  0  0  0  0  0
    1.6945  -13.5624   11.2691 C   0  0  0  0  0  0  0  0  0  0  0  0
    2.4304  -12.4270   10.9208 N   0  0  0  0  0  0  0  0  0  0  0  0
    2.2012  -11.2629   11.5237 C   0  0  0  0  0  0  0  0  0  0  0  0
    1.2747  -11.1673   12.4590 C   0  0  0  0  0  0  0  0  0  0  0  0
    0.5630  -12.2248   12.8024 C   0  0  0  0  0  0  0  0  0  0  0  0
   -0.2956  -12.1120   13.6660 O   0  0  0  0  0  0  0  0  0  0  0  0
    1.2431   -9.9136   12.9073 N   0  0  0  0  0  0  0  0  0  0  0  0
    2.1699   -9.2349   12.2402 C   0  0  0  0  0  0  0  0  0  0  0  0
    2.7599  -10.0714   11.3825 N   0  0  0  0  0  0  0  0  0  0  0  0
  1  2  1  0  0  0  0
  1  6  1  0  0  0  0
  2  3  2  0  0  0  0
  3  4  1  0  0  0  0
  4  5  2  0  0  0  0
  4 10  1  0  0  0  0
  5  6  1  0  0  0  0
  5  8  1  0  0  0  0
  6  7  2  0  0  0  0
  8  9  1  0  0  0  0
  9 10  2  0  0  0  0
M  END
>  <CHROM.1>
1.44715574,-11.55669655,12.16643472,-2.17559832,0.74406781,0.31813662

>  <Name>
ligand

>  <RI>
0

>  <Rbt.Current_Directory>
/home/itssahil/PROJECTS/Mol_Feturizer/Test_systems_manuscript/rnas/5c7w

>  <Rbt.Executable>
rbdock ($Id: //depot/dev/client3/rdock/2013.1/src/exe/rbdock.cxx#4 $)

>  <Rbt.Library>
libRbt.so (2013.1, Build901 2013/11/27)

>  <Rbt.Parameter_File>
/export/apps/rDock/src/rDock_2013.1_src/data/scripts/dock_solv.prm

>  <Rbt.Receptor>
prm/blind_docking_20.prm

>  <SCORE>
-15.2358

>  <SCORE.INTER>
-15.2358

>  <SCORE.INTER.CONST>
1

>  <SCORE.INTER.POLAR>
0

>  <SCORE.INTER.ROT>
0

>  <SCORE.INTER.SOLV>
3.28314

>  <SCORE.INTER.VDW>
-14.8516

>  <SCORE.INTER.norm>
-1.52358

>  <SCORE.INTRA>
0

>  <SCORE.INTRA.DIHEDRAL>
0

>  <SCORE.INTRA.DIHEDRAL.0>
0

>  <SCORE.INTRA.POLAR>
0

>  <SCORE.INTRA.POLAR.0>
0

>  <SCORE.INTRA.REPUL>
0

>  <SCORE.INTRA.REPUL.0>
0

>  <SCORE.INTRA.SOLV>
0

>  <SCORE.INTRA.SOLV.lig_0>
-4.15853

>  <SCORE.INTRA.VDW>
0

>  <SCORE.INTRA.VDW.0>
0

>  <SCORE.INTRA.norm>
0

>  <SCORE.RESTR>
0

>  <SCORE.RESTR.CAVITY>
0

>  <SCORE.RESTR.norm>
0

>  <SCORE.SYSTEM>
0

>  <SCORE.SYSTEM.CONST>
0

>  <SCORE.SYSTEM.DIHEDRAL>
0

>  <SCORE.SYSTEM.SOLV>
0

>  <SCORE.SYSTEM.norm>
0

>  <SCORE.heavy>
10

>  <SCORE.norm>
-1.52358

>  <RMSD>
1.115

$$$$
ligand
 OpenBabel02271912153D
libRbt.so/2013.1/901 2013/11/27
 10 11  0  0  0  0  0  0  0  0999 V2000
    0.7774  -13.4549   12.2119 N   0  0  0  0  0  0  0  0  0  0  0  0
    1.6887  -13.5653   11.2696 C   0  0  0  0  0  0  0  0  0  0  0  0
    2.4295  -12.4376   10.9072 N   0  0  0  0  0  0  0  0  0  0  0  0
    2.2145  -11.2681   11.5049 C   0  0  0  0  0  0  0  0  0  0  0  0
    1.2976  -11.1599   12.4483 C   0  0  0  0  0  0  0  0  0  0  0  0
    0.5816  -12.2100   12.8051 C   0  0  0  0  0  0  0  0  0  0  0  0
   -0.2680  -12.0855   13.6760 O   0  0  0  0  0  0  0  0  0  0  0  0
    1.2794   -9.9032   12.8890 N   0  0  0  0  0  0  0  0  0  0  0  0
    2.2046   -9.2354   12.2089 C   0  0  0  0  0  0  0  0  0  0  0  0
    2.7804  -10.0816   11.3510 N   0  0  0  0  0  0  0  0  0  0  0  0
  1  2  1  0  0  0  0
  1  6  1  0  0  0  0
  2  3  2  0  0  0  0
  3  4  1  0  0  0  0
  4  5  2  0  0  0  0
  4 10  1  0  0  0  0
  5  6  1  0  0  0  0
  5  8  1  0  0  0  0
  6  7  2  0  0  0  0
  8  9  1  0  0  0  0
  9 10  2  0  0  0  0
M  END
>  <CHROM.1>
1.46445392,-11.55234832,12.15659121,-2.18906110,0.75079971,0.32103089

>  <Name>
ligand

>  <RI>
0

>  <Rbt.Current_Directory>
/home/itssahil/PROJECTS/Mol_Feturizer/Test_systems_manuscript/rnas/5c7w

>  <Rbt.Executable>
rbdock ($Id: //depot/dev/client3/rdock/2013.1/src/exe/rbdock.cxx#4 $)

>  <Rbt.Library>
libRbt.so (2013.1, Build901 2013/11/27)

>  <Rbt.Parameter_File>
/export/apps/rDock/src/rDock_2013.1_src/data/scripts/dock_solv.prm

>  <Rbt.Receptor>
prm/blind_docking_40.prm

>  <SCORE>
-15.2375

>  <SCORE.INTER>
-15.2375

>  <SCORE.INTER.CONST>
1

>  <SCORE.INTER.POLAR>
0

>  <SCORE.INTER.ROT>
0

>  <SCORE.INTER.SOLV>
3.2852

>  <SCORE.INTER.VDW>
-14.8534

>  <SCORE.INTER.norm>
-1.52375

>  <SCORE.INTRA>
0

>  <SCORE.INTRA.DIHEDRAL>
0

>  <SCORE.INTRA.DIHEDRAL.0>
0

>  <SCORE.INTRA.POLAR>
0

>  <SCORE.INTRA.POLAR.0>
0

>  <SCORE.INTRA.REPUL>
0

>  <SCORE.INTRA.REPUL.0>
0

>  <SCORE.INTRA.SOLV>
0

>  <SCORE.INTRA.SOLV.lig_0>
-4.15853

>  <SCORE.INTRA.VDW>
0

>  <SCORE.INTRA.VDW.0>
0

>  <SCORE.INTRA.norm>
0

>  <SCORE.RESTR>
0

>  <SCORE.RESTR.CAVITY>
0

>  <SCORE.RESTR.norm>
0

>  <SCORE.SYSTEM>
0

>  <SCORE.SYSTEM.CONST>
0

>  <SCORE.SYSTEM.DIHEDRAL>
0

>  <SCORE.SYSTEM.SOLV>
0

>  <SCORE.SYSTEM.norm>
0

>  <SCORE.heavy>
10

>  <SCORE.norm>
-1.52375

>  <RMSD>
1.115

$$$$
ligand
 OpenBabel02271912153D
libRbt.so/2013.1/901 2013/11/27
 10 11  0  0  0  0  0  0  0  0999 V2000
    0.7775  -13.4529   12.2172 N   0  0  0  0  0  0  0  0  0  0  0  0
    1.6923  -13.5562   11.2774 C   0  0  0  0  0  0  0  0  0  0  0  0
    2.4303  -12.4244   10.9221 N   0  0  0  0  0  0  0  0  0  0  0  0
    2.2091  -11.2581   11.5239 C   0  0  0  0  0  0  0  0  0  0  0  0
    1.2888  -11.1571   12.4647 C   0  0  0  0  0  0  0  0  0  0  0  0
    0.5754  -12.2112   12.8148 C   0  0  0  0  0  0  0  0  0  0  0  0
   -0.2774  -12.0933   13.6835 O   0  0  0  0  0  0  0  0  0  0  0  0
    1.2647   -9.9023   12.9105 N   0  0  0  0  0  0  0  0  0  0  0  0
    2.1897   -9.2285   12.2362 C   0  0  0  0  0  0  0  0  0  0  0  0
    2.7713  -10.0690   11.3767 N   0  0  0  0  0  0  0  0  0  0  0  0
  1  2  1  0  0  0  0
  1  6  1  0  0  0  0
  2  3  2  0  0  0  0
  3  4  1  0  0  0  0
  4  5  2  0  0  0  0
  4 10  1  0  0  0  0
  5  6  1  0  0  0  0
  5  8  1  0  0  0  0
  6  7  2  0  0  0  0
  8  9  1  0  0  0  0
  9 10  2  0  0  0  0
M  END
>  <CHROM.1>
1.45800380,-11.54774178,12.17194475,-2.18303986,0.74882424,0.32103751

>  <Name>
ligand

>  <RI>
0

>  <Rbt.Current_Directory>
/home/itssahil/PROJECTS/Mol_Feturizer/Test_systems_manuscript/rnas/5c7w

>  <Rbt.Executable>
rbdock ($Id: //depot/dev/client3/rdock/2013.1/src/exe/rbdock.cxx#4 $)

>  <Rbt.Library>
libRbt.so (2013.1, Build901 2013/11/27)

>  <Rbt.Parameter_File>
/export/apps/rDock/src/rDock_2013.1_src/data/scripts/dock_solv.prm

>  <Rbt.Receptor>
prm/blind_docking_80.prm

>  <SCORE>
-15.2681

>  <SCORE.INTER>
-15.2681

>  <SCORE.INTER.CONST>
1

>  <SCORE.INTER.POLAR>
0

>  <SCORE.INTER.ROT>
0

>  <SCORE.INTER.SOLV>
3.29152

>  <SCORE.INTER.VDW>
-14.8759

>  <SCORE.INTER.norm>
-1.52681

>  <SCORE.INTRA>
0

>  <SCORE.INTRA.DIHEDRAL>
0

>  <SCORE.INTRA.DIHEDRAL.0>
0

>  <SCORE.INTRA.POLAR>
0

>  <SCORE.INTRA.POLAR.0>
0

>  <SCORE.INTRA.REPUL>
0

>  <SCORE.INTRA.REPUL.0>
0

>  <SCORE.INTRA.SOLV>
0

>  <SCORE.INTRA.SOLV.lig_0>
-4.15853

>  <SCORE.INTRA.VDW>
0

>  <SCORE.INTRA.VDW.0>
0

>  <SCORE.INTRA.norm>
0

>  <SCORE.RESTR>
0

>  <SCORE.RESTR.CAVITY>
0

>  <SCORE.RESTR.norm>
0

>  <SCORE.SYSTEM>
0

>  <SCORE.SYSTEM.CONST>
0

>  <SCORE.SYSTEM.DIHEDRAL>
0

>  <SCORE.SYSTEM.SOLV>
0

>  <SCORE.SYSTEM.norm>
0

>  <SCORE.heavy>
10

>  <SCORE.norm>
-1.52681

>  <RMSD>
1.115

$$$$
ligand
 OpenBabel02271912153D
libRbt.so/2013.1/901 2013/11/27
 10 11  0  0  0  0  0  0  0  0999 V2000
    0.7812  -13.4531   12.2241 N   0  0  0  0  0  0  0  0  0  0  0  0
    1.6941  -13.5583   11.2827 C   0  0  0  0  0  0  0  0  0  0  0  0
    2.4319  -12.4274   10.9243 N   0  0  0  0  0  0  0  0  0  0  0  0
    2.2126  -11.2601   11.5249 C   0  0  0  0  0  0  0  0  0  0  0  0
    1.2942  -11.1572   12.4674 C   0  0  0  0  0  0  0  0  0  0  0  0
    0.5810  -12.2104   12.8204 C   0  0  0  0  0  0  0  0  0  0  0  0
   -0.2701  -12.0908   13.6907 O   0  0  0  0  0  0  0  0  0  0  0  0
    1.2717   -9.9017   12.9113 N   0  0  0  0  0  0  0  0  0  0  0  0
    2.1958   -9.2294   12.2342 C   0  0  0  0  0  0  0  0  0  0  0  0
    2.7752  -10.0715   11.3748 N   0  0  0  0  0  0  0  0  0  0  0  0
  1  2  1  0  0  0  0
  1  6  1  0  0  0  0
  2  3  2  0  0  0  0
  3  4  1  0  0  0  0
  4  5  2  0  0  0  0
  4 10  1  0  0  0  0
  5  6  1  0  0  0  0
  5  8  1  0  0  0  0
  6  7  2  0  0  0  0
  8  9  1  0  0  0  0
  9 10  2  0  0  0  0
M  END
>  <CHROM.1>
1.46263299,-11.54836703,12.17480272,-2.18462736,0.75056411,0.32067634

>  <Name>
ligand

>  <RI>
0

>  <Rbt.Current_Directory>
/home/itssahil/PROJECTS/Mol_Feturizer/Test_systems_manuscript/rnas/5c7w

>  <Rbt.Executable>
rbdock ($Id: //depot/dev/client3/rdock/2013.1/src/exe/rbdock.cxx#4 $)

>  <Rbt.Library>
libRbt.so (2013.1, Build901 2013/11/27)

>  <Rbt.Parameter_File>
/export/apps/rDock/src/rDock_2013.1_src/data/scripts/dock_solv.prm

>  <Rbt.Receptor>
prm/blind_docking_80.prm

>  <SCORE>
-15.268

>  <SCORE.INTER>
-15.268

>  <SCORE.INTER.CONST>
1

>  <SCORE.INTER.POLAR>
0

>  <SCORE.INTER.ROT>
0

>  <SCORE.INTER.SOLV>
3.29674

>  <SCORE.INTER.VDW>
-14.8775

>  <SCORE.INTER.norm>
-1.5268

>  <SCORE.INTRA>
0

>  <SCORE.INTRA.DIHEDRAL>
0

>  <SCORE.INTRA.DIHEDRAL.0>
0

>  <SCORE.INTRA.POLAR>
0

>  <SCORE.INTRA.POLAR.0>
0

>  <SCORE.INTRA.REPUL>
0

>  <SCORE.INTRA.REPUL.0>
0

>  <SCORE.INTRA.SOLV>
0

>  <SCORE.INTRA.SOLV.lig_0>
-4.15853

>  <SCORE.INTRA.VDW>
0

>  <SCORE.INTRA.VDW.0>
0

>  <SCORE.INTRA.norm>
0

>  <SCORE.RESTR>
0

>  <SCORE.RESTR.CAVITY>
0

>  <SCORE.RESTR.norm>
0

>  <SCORE.SYSTEM>
0

>  <SCORE.SYSTEM.CONST>
0

>  <SCORE.SYSTEM.DIHEDRAL>
0

>  <SCORE.SYSTEM.SOLV>
0

>  <SCORE.SYSTEM.norm>
0

>  <SCORE.heavy>
10

>  <SCORE.norm>
-1.5268

>  <RMSD>
1.115

$$$$
ligand
 OpenBabel02271912153D
libRbt.so/2013.1/901 2013/11/27
 10 11  0  0  0  0  0  0  0  0999 V2000
    0.7775  -13.4525   12.2148 N   0  0  0  0  0  0  0  0  0  0  0  0
    1.6936  -13.5548   11.2761 C   0  0  0  0  0  0  0  0  0  0  0  0
    2.4305  -12.4220   10.9216 N   0  0  0  0  0  0  0  0  0  0  0  0
    2.2071  -11.2559   11.5229 C   0  0  0  0  0  0  0  0  0  0  0  0
    1.2855  -11.1560   12.4626 C   0  0  0  0  0  0  0  0  0  0  0  0
    0.5731  -12.2109   12.8120 C   0  0  0  0  0  0  0  0  0  0  0  0
   -0.2810  -12.0941   13.6797 O   0  0  0  0  0  0  0  0  0  0  0  0
    1.2593   -9.9011   12.9082 N   0  0  0  0  0  0  0  0  0  0  0  0
    2.1843   -9.2262   12.2349 C   0  0  0  0  0  0  0  0  0  0  0  0
    2.7680  -10.0662   11.3762 N   0  0  0  0  0  0  0  0  0  0  0  0
  1  2  1  0  0  0  0
  1  6  1  0  0  0  0
  2  3  2  0  0  0  0
  3  4  1  0  0  0  0
  4  5  2  0  0  0  0
  4 10  1  0  0  0  0
  5  6  1  0  0  0  0
  5  8  1  0  0  0  0
  6  7  2  0  0  0  0
  8  9  1  0  0  0  0
  9 10  2  0  0  0  0
M  END
>  <CHROM.1>
1.45557994,-11.54644458,12.17010466,-2.18086860,0.74809535,0.31942939

>  <Name>
ligand

>  <RI>
0

>  <Rbt.Current_Directory>
/home/itssahil/PROJECTS/Mol_Feturizer/Test_systems_manuscript/rnas/5c7w

>  <Rbt.Executable>
rbdock ($Id: //depot/dev/client3/rdock/2013.1/src/exe/rbdock.cxx#4 $)

>  <Rbt.Library>
libRbt.so (2013.1, Build901 2013/11/27)

>  <Rbt.Parameter_File>
/export/apps/rDock/src/rDock_2013.1_src/data/scripts/dock_solv.prm

>  <Rbt.Receptor>
prm/blind_docking_80.prm

>  <SCORE>
-15.2672

>  <SCORE.INTER>
-15.2672

>  <SCORE.INTER.CONST>
1

>  <SCORE.INTER.POLAR>
0

>  <SCORE.INTER.ROT>
0

>  <SCORE.INTER.SOLV>
3.28901

>  <SCORE.INTER.VDW>
-14.8745

>  <SCORE.INTER.norm>
-1.52672

>  <SCORE.INTRA>
0

>  <SCORE.INTRA.DIHEDRAL>
0

>  <SCORE.INTRA.DIHEDRAL.0>
0

>  <SCORE.INTRA.POLAR>
0

>  <SCORE.INTRA.POLAR.0>
0

>  <SCORE.INTRA.REPUL>
0

>  <SCORE.INTRA.REPUL.0>
0

>  <SCORE.INTRA.SOLV>
0

>  <SCORE.INTRA.SOLV.lig_0>
-4.15853

>  <SCORE.INTRA.VDW>
0

>  <SCORE.INTRA.VDW.0>
0

>  <SCORE.INTRA.norm>
0

>  <SCORE.RESTR>
0

>  <SCORE.RESTR.CAVITY>
0

>  <SCORE.RESTR.norm>
0

>  <SCORE.SYSTEM>
0

>  <SCORE.SYSTEM.CONST>
0

>  <SCORE.SYSTEM.DIHEDRAL>
0

>  <SCORE.SYSTEM.SOLV>
0

>  <SCORE.SYSTEM.norm>
0

>  <SCORE.heavy>
10

>  <SCORE.norm>
-1.52672

>  <RMSD>
1.115

$$$$
ligand
 OpenBabel02271912153D
libRbt.so/2013.1/901 2013/11/27
 10 11  0  0  0  0  0  0  0  0999 V2000
    0.7748  -13.4491   12.2150 N   0  0  0  0  0  0  0  0  0  0  0  0
    1.6880  -13.5544   11.2739 C   0  0  0  0  0  0  0  0  0  0  0  0
    2.4293  -12.4247   10.9189 N   0  0  0  0  0  0  0  0  0  0  0  0
    2.2130  -11.2584   11.5223 C   0  0  0  0  0  0  0  0  0  0  0  0
    1.2943  -11.1553   12.4645 C   0  0  0  0  0  0  0  0  0  0  0  0
    0.5778  -12.2073   12.8143 C   0  0  0  0  0  0  0  0  0  0  0  0
   -0.2735  -12.0876   13.6843 O   0  0  0  0  0  0  0  0  0  0  0  0
    1.2750   -9.9009   12.9116 N   0  0  0  0  0  0  0  0  0  0  0  0
    2.2015   -9.2295   12.2368 C   0  0  0  0  0  0  0  0  0  0  0  0
    2.7790  -10.0711   11.3756 N   0  0  0  0  0  0  0  0  0  0  0  0
  1  2  1  0  0  0  0
  1  6  1  0  0  0  0
  2  3  2  0  0  0  0
  3  4  1  0  0  0  0
  4  5  2  0  0  0  0
  4 10  1  0  0  0  0
  5  6  1  0  0  0  0
  5  8  1  0  0  0  0
  6  7  2  0  0  0  0
  8  9  1  0  0  0  0
  9 10  2  0  0  0  0
M  END
>  <CHROM.1>
1.46173964,-11.54616785,12.17100217,-2.18804828,0.74902381,0.32558244

>  <Name>
ligand

>  <RI>
0

>  <Rbt.Current_Directory>
/home/itssahil/PROJECTS/Mol_Feturizer/Test_systems_manuscript/rnas/5c7w

>  <Rbt.Executable>
rbdock ($Id: //depot/dev/client3/rdock/2013.1/src/exe/rbdock.cxx#4 $)

>  <Rbt.Library>
libRbt.so (2013.1, Build901 2013/11/27)

>  <Rbt.Parameter_File>
/export/apps/rDock/src/rDock_2013.1_src/data/scripts/dock_solv.prm

>  <Rbt.Receptor>
prm/pocket_docking_3.prm

>  <SCORE>
-15.2688

>  <SCORE.INTER>
-15.2688

>  <SCORE.INTER.CONST>
1

>  <SCORE.INTER.POLAR>
0

>  <SCORE.INTER.ROT>
0

>  <SCORE.INTER.SOLV>
3.2884

>  <SCORE.INTER.VDW>
-14.8753

>  <SCORE.INTER.norm>
-1.52688

>  <SCORE.INTRA>
0

>  <SCORE.INTRA.DIHEDRAL>
0

>  <SCORE.INTRA.DIHEDRAL.0>
0

>  <SCORE.INTRA.POLAR>
0

>  <SCORE.INTRA.POLAR.0>
0

>  <SCORE.INTRA.REPUL>
0

>  <SCORE.INTRA.REPUL.0>
0

>  <SCORE.INTRA.SOLV>
0

>  <SCORE.INTRA.SOLV.lig_0>
-4.15853

>  <SCORE.INTRA.VDW>
0

>  <SCORE.INTRA.VDW.0>
0

>  <SCORE.INTRA.norm>
0

>  <SCORE.RESTR>
0

>  <SCORE.RESTR.CAVITY>
0

>  <SCORE.RESTR.norm>
0

>  <SCORE.SYSTEM>
0

>  <SCORE.SYSTEM.CONST>
0

>  <SCORE.SYSTEM.DIHEDRAL>
0

>  <SCORE.SYSTEM.SOLV>
0

>  <SCORE.SYSTEM.norm>
0

>  <SCORE.heavy>
10

>  <SCORE.norm>
-1.52688

>  <RMSD>
1.115

$$$$
ligand
 OpenBabel02271912153D
libRbt.so/2013.1/901 2013/11/27
 10 11  0  0  0  0  0  0  0  0999 V2000
    0.7767  -13.4514   12.2142 N   0  0  0  0  0  0  0  0  0  0  0  0
    1.6879  -13.5587   11.2714 C   0  0  0  0  0  0  0  0  0  0  0  0
    2.4274  -12.4293   10.9115 N   0  0  0  0  0  0  0  0  0  0  0  0
    2.2113  -11.2614   11.5120 C   0  0  0  0  0  0  0  0  0  0  0  0
    1.2947  -11.1564   12.4559 C   0  0  0  0  0  0  0  0  0  0  0  0
    0.5799  -12.2081   12.8104 C   0  0  0  0  0  0  0  0  0  0  0  0
   -0.2695  -12.0865   13.6820 O   0  0  0  0  0  0  0  0  0  0  0  0
    1.2753   -9.9008   12.8995 N   0  0  0  0  0  0  0  0  0  0  0  0
    2.1996   -9.2305   12.2207 C   0  0  0  0  0  0  0  0  0  0  0  0
    2.7760  -10.0740   11.3606 N   0  0  0  0  0  0  0  0  0  0  0  0
  1  2  1  0  0  0  0
  1  6  1  0  0  0  0
  2  3  2  0  0  0  0
  3  4  1  0  0  0  0
  4  5  2  0  0  0  0
  4 10  1  0  0  0  0
  5  6  1  0  0  0  0
  5  8  1  0  0  0  0
  6  7  2  0  0  0  0
  8  9  1  0  0  0  0
  9 10  2  0  0  0  0
M  END
>  <CHROM.1>
1.46183214,-11.54800292,12.16320330,-2.18785766,0.75143493,0.32255028

>  <Name>
ligand

>  <RI>
0

>  <Rbt.Current_Directory>
/home/itssahil/PROJECTS/Mol_Feturizer/Test_systems_manuscript/rnas/5c7w

>  <Rbt.Executable>
rbdock ($Id: //depot/dev/client3/rdock/2013.1/src/exe/rbdock.cxx#4 $)

>  <Rbt.Library>
libRbt.so (2013.1, Build901 2013/11/27)

>  <Rbt.Parameter_File>
/export/apps/rDock/src/rDock_2013.1_src/data/scripts/dock_solv.prm

>  <Rbt.Receptor>
prm/pocket_docking_4.prm

>  <SCORE>
-15.2367

>  <SCORE.INTER>
-15.2367

>  <SCORE.INTER.CONST>
1

>  <SCORE.INTER.POLAR>
0

>  <SCORE.INTER.ROT>
0

>  <SCORE.INTER.SOLV>
3.29043

>  <SCORE.INTER.VDW>
-14.8546

>  <SCORE.INTER.norm>
-1.52367

>  <SCORE.INTRA>
0

>  <SCORE.INTRA.DIHEDRAL>
0

>  <SCORE.INTRA.DIHEDRAL.0>
0

>  <SCORE.INTRA.POLAR>
0

>  <SCORE.INTRA.POLAR.0>
0

>  <SCORE.INTRA.REPUL>
0

>  <SCORE.INTRA.REPUL.0>
0

>  <SCORE.INTRA.SOLV>
0

>  <SCORE.INTRA.SOLV.lig_0>
-4.15853

>  <SCORE.INTRA.VDW>
0

>  <SCORE.INTRA.VDW.0>
0

>  <SCORE.INTRA.norm>
0

>  <SCORE.RESTR>
0

>  <SCORE.RESTR.CAVITY>
0

>  <SCORE.RESTR.norm>
0

>  <SCORE.SYSTEM>
0

>  <SCORE.SYSTEM.CONST>
0

>  <SCORE.SYSTEM.DIHEDRAL>
0

>  <SCORE.SYSTEM.SOLV>
0

>  <SCORE.SYSTEM.norm>
0

>  <SCORE.heavy>
10

>  <SCORE.norm>
-1.52367

>  <RMSD>
1.115

$$$$
ligand
 OpenBabel02271912153D
libRbt.so/2013.1/901 2013/11/27
 10 11  0  0  0  0  0  0  0  0999 V2000
    0.7788  -13.4479   12.2200 N   0  0  0  0  0  0  0  0  0  0  0  0
    1.6907  -13.5517   11.2776 C   0  0  0  0  0  0  0  0  0  0  0  0
    2.4265  -12.4196   10.9184 N   0  0  0  0  0  0  0  0  0  0  0  0
    2.2062  -11.2528   11.5193 C   0  0  0  0  0  0  0  0  0  0  0  0
    1.2888  -11.1513   12.4629 C   0  0  0  0  0  0  0  0  0  0  0  0
    0.5775  -12.2056   12.8167 C   0  0  0  0  0  0  0  0  0  0  0  0
   -0.2727  -12.0873   13.6879 O   0  0  0  0  0  0  0  0  0  0  0  0
    1.2650   -9.8959   12.9070 N   0  0  0  0  0  0  0  0  0  0  0  0
    2.1873   -9.2222   12.2288 C   0  0  0  0  0  0  0  0  0  0  0  0
    2.7669  -10.0634   11.3687 N   0  0  0  0  0  0  0  0  0  0  0  0
  1  2  1  0  0  0  0
  1  6  1  0  0  0  0
  2  3  2  0  0  0  0
  3  4  1  0  0  0  0
  4  5  2  0  0  0  0
  4 10  1  0  0  0  0
  5  6  1  0  0  0  0
  5  8  1  0  0  0  0
  6  7  2  0  0  0  0
  8  9  1  0  0  0  0
  9 10  2  0  0  0  0
M  END
>  <CHROM.1>
1.45743107,-11.54217953,12.17008368,-2.18325039,0.75212275,0.31983004

>  <Name>
ligand

>  <RI>
0

>  <Rbt.Current_Directory>
/home/itssahil/PROJECTS/Mol_Feturizer/Test_systems_manuscript/rnas/5c7w

>  <Rbt.Executable>
rbdock ($Id: //depot/dev/client3/rdock/2013.1/src/exe/rbdock.cxx#4 $)

>  <Rbt.Library>
libRbt.so (2013.1, Build901 2013/11/27)

>  <Rbt.Parameter_File>
/export/apps/rDock/src/rDock_2013.1_src/data/scripts/dock_solv.prm

>  <Rbt.Receptor>
prm/pocket_docking_4.prm

>  <SCORE>
-15.2685

>  <SCORE.INTER>
-15.2685

>  <SCORE.INTER.CONST>
1

>  <SCORE.INTER.POLAR>
0

>  <SCORE.INTER.ROT>
0

>  <SCORE.INTER.SOLV>
3.29677

>  <SCORE.INTER.VDW>
-14.8779

>  <SCORE.INTER.norm>
-1.52685

>  <SCORE.INTRA>
0

>  <SCORE.INTRA.DIHEDRAL>
0

>  <SCORE.INTRA.DIHEDRAL.0>
0

>  <SCORE.INTRA.POLAR>
0

>  <SCORE.INTRA.POLAR.0>
0

>  <SCORE.INTRA.REPUL>
0

>  <SCORE.INTRA.REPUL.0>
0

>  <SCORE.INTRA.SOLV>
0

>  <SCORE.INTRA.SOLV.lig_0>
-4.15853

>  <SCORE.INTRA.VDW>
0

>  <SCORE.INTRA.VDW.0>
0

>  <SCORE.INTRA.norm>
0

>  <SCORE.RESTR>
0

>  <SCORE.RESTR.CAVITY>
0

>  <SCORE.RESTR.norm>
0

>  <SCORE.SYSTEM>
0

>  <SCORE.SYSTEM.CONST>
0

>  <SCORE.SYSTEM.DIHEDRAL>
0

>  <SCORE.SYSTEM.SOLV>
0

>  <SCORE.SYSTEM.norm>
0

>  <SCORE.heavy>
10

>  <SCORE.norm>
-1.52685

>  <RMSD>
1.115

$$$$
ligand
 OpenBabel02271912153D
libRbt.so/2013.1/901 2013/11/27
 10 11  0  0  0  0  0  0  0  0999 V2000
    0.7786  -13.4472   12.2206 N   0  0  0  0  0  0  0  0  0  0  0  0
    1.6905  -13.5526   11.2783 C   0  0  0  0  0  0  0  0  0  0  0  0
    2.4289  -12.4221   10.9198 N   0  0  0  0  0  0  0  0  0  0  0  0
    2.2111  -11.2550   11.5212 C   0  0  0  0  0  0  0  0  0  0  0  0
    1.2937  -11.1519   12.4647 C   0  0  0  0  0  0  0  0  0  0  0  0
    0.5800  -12.2047   12.8178 C   0  0  0  0  0  0  0  0  0  0  0  0
   -0.2702  -12.0849   13.6889 O   0  0  0  0  0  0  0  0  0  0  0  0
    1.2727   -9.8967   12.9093 N   0  0  0  0  0  0  0  0  0  0  0  0
    2.1966   -9.2247   12.2317 C   0  0  0  0  0  0  0  0  0  0  0  0
    2.7745  -10.0668   11.3712 N   0  0  0  0  0  0  0  0  0  0  0  0
  1  2  1  0  0  0  0
  1  6  1  0  0  0  0
  2  3  2  0  0  0  0
  3  4  1  0  0  0  0
  4  5  2  0  0  0  0
  4 10  1  0  0  0  0
  5  6  1  0  0  0  0
  5  8  1  0  0  0  0
  6  7  2  0  0  0  0
  8  9  1  0  0  0  0
  9 10  2  0  0  0  0
M  END
>  <CHROM.1>
1.46154429,-11.54302501,12.17171213,-2.18609878,0.75120604,0.32224022

>  <Name>
ligand

>  <RI>
0

>  <Rbt.Current_Directory>
/home/itssahil/PROJECTS/Mol_Feturizer/Test_systems_manuscript/rnas/5c7w

>  <Rbt.Executable>
rbdock ($Id: //depot/dev/client3/rdock/2013.1/src/exe/rbdock.cxx#4 $)

>  <Rbt.Library>
libRbt.so (2013.1, Build901 2013/11/27)

>  <Rbt.Parameter_File>
/export/apps/rDock/src/rDock_2013.1_src/data/scripts/dock_solv.prm

>  <Rbt.Receptor>
prm/pocket_docking_4.prm

>  <SCORE>
-15.2691

>  <SCORE.INTER>
-15.2691

>  <SCORE.INTER.CONST>
1

>  <SCORE.INTER.POLAR>
0

>  <SCORE.INTER.ROT>
0

>  <SCORE.INTER.SOLV>
3.29408

>  <SCORE.INTER.VDW>
-14.8774

>  <SCORE.INTER.norm>
-1.52691

>  <SCORE.INTRA>
0

>  <SCORE.INTRA.DIHEDRAL>
0

>  <SCORE.INTRA.DIHEDRAL.0>
0

>  <SCORE.INTRA.POLAR>
0

>  <SCORE.INTRA.POLAR.0>
0

>  <SCORE.INTRA.REPUL>
0

>  <SCORE.INTRA.REPUL.0>
0

>  <SCORE.INTRA.SOLV>
0

>  <SCORE.INTRA.SOLV.lig_0>
-4.15853

>  <SCORE.INTRA.VDW>
0

>  <SCORE.INTRA.VDW.0>
0

>  <SCORE.INTRA.norm>
0

>  <SCORE.RESTR>
0

>  <SCORE.RESTR.CAVITY>
0

>  <SCORE.RESTR.norm>
0

>  <SCORE.SYSTEM>
0

>  <SCORE.SYSTEM.CONST>
0

>  <SCORE.SYSTEM.DIHEDRAL>
0

>  <SCORE.SYSTEM.SOLV>
0

>  <SCORE.SYSTEM.norm>
0

>  <SCORE.heavy>
10

>  <SCORE.norm>
-1.52691

>  <RMSD>
1.115

$$$$
ligand
 OpenBabel02271912153D
libRbt.so/2013.1/901 2013/11/27
 10 11  0  0  0  0  0  0  0  0999 V2000
    0.7750  -13.4502   12.2170 N   0  0  0  0  0  0  0  0  0  0  0  0
    1.6874  -13.5553   11.2750 C   0  0  0  0  0  0  0  0  0  0  0  0
    2.4275  -12.4252   10.9187 N   0  0  0  0  0  0  0  0  0  0  0  0
    2.2108  -11.2587   11.5217 C   0  0  0  0  0  0  0  0  0  0  0  0
    1.2930  -11.1559   12.4648 C   0  0  0  0  0  0  0  0  0  0  0  0
    0.5776  -12.2083   12.8159 C   0  0  0  0  0  0  0  0  0  0  0  0
   -0.2729  -12.0887   13.6866 O   0  0  0  0  0  0  0  0  0  0  0  0
    1.2732   -9.9013   12.9114 N   0  0  0  0  0  0  0  0  0  0  0  0
    2.1985   -9.2295   12.2353 C   0  0  0  0  0  0  0  0  0  0  0  0
    2.7758  -10.0710   11.3739 N   0  0  0  0  0  0  0  0  0  0  0  0
  1  2  1  0  0  0  0
  1  6  1  0  0  0  0
  2  3  2  0  0  0  0
  3  4  1  0  0  0  0
  4  5  2  0  0  0  0
  4 10  1  0  0  0  0
  5  6  1  0  0  0  0
  5  8  1  0  0  0  0
  6  7  2  0  0  0  0
  8  9  1  0  0  0  0
  9 10  2  0  0  0  0
M  END
>  <CHROM.1>
1.46044964,-11.54676151,12.17134538,-2.18748926,0.75021056,0.32469927

>  <Name>
ligand

>  <RI>
0

>  <Rbt.Current_Directory>
/home/itssahil/PROJECTS/Mol_Feturizer/Test_systems_manuscript/rnas/5c7w

>  <Rbt.Executable>
rbdock ($Id: //depot/dev/client3/rdock/2013.1/src/exe/rbdock.cxx#4 $)

>  <Rbt.Library>
libRbt.so (2013.1, Build901 2013/11/27)

>  <Rbt.Parameter_File>
/export/apps/rDock/src/rDock_2013.1_src/data/scripts/dock_solv.prm

>  <Rbt.Receptor>
prm/pocket_docking_5.prm

>  <SCORE>
-15.2692

>  <SCORE.INTER>
-15.2692

>  <SCORE.INTER.CONST>
1

>  <SCORE.INTER.POLAR>
0

>  <SCORE.INTER.ROT>
0

>  <SCORE.INTER.SOLV>
3.2925

>  <SCORE.INTER.VDW>
-14.877

>  <SCORE.INTER.norm>
-1.52692

>  <SCORE.INTRA>
0

>  <SCORE.INTRA.DIHEDRAL>
0

>  <SCORE.INTRA.DIHEDRAL.0>
0

>  <SCORE.INTRA.POLAR>
0

>  <SCORE.INTRA.POLAR.0>
0

>  <SCORE.INTRA.REPUL>
0

>  <SCORE.INTRA.REPUL.0>
0

>  <SCORE.INTRA.SOLV>
0

>  <SCORE.INTRA.SOLV.lig_0>
-4.15853

>  <SCORE.INTRA.VDW>
0

>  <SCORE.INTRA.VDW.0>
0

>  <SCORE.INTRA.norm>
0

>  <SCORE.RESTR>
0

>  <SCORE.RESTR.CAVITY>
0

>  <SCORE.RESTR.norm>
0

>  <SCORE.SYSTEM>
0

>  <SCORE.SYSTEM.CONST>
0

>  <SCORE.SYSTEM.DIHEDRAL>
0

>  <SCORE.SYSTEM.SOLV>
0

>  <SCORE.SYSTEM.norm>
0

>  <SCORE.heavy>
10

>  <SCORE.norm>
-1.52692

>  <RMSD>
1.115

$$$$
ligand
 OpenBabel02271912153D
libRbt.so/2013.1/901 2013/11/27
 10 11  0  0  0  0  0  0  0  0999 V2000
    0.7758  -13.4549   12.2149 N   0  0  0  0  0  0  0  0  0  0  0  0
    1.6903  -13.5590   11.2750 C   0  0  0  0  0  0  0  0  0  0  0  0
    2.4309  -12.4284   10.9212 N   0  0  0  0  0  0  0  0  0  0  0  0
    2.2124  -11.2624   11.5246 C   0  0  0  0  0  0  0  0  0  0  0  0
    1.2924  -11.1606   12.4656 C   0  0  0  0  0  0  0  0  0  0  0  0
    0.5766  -12.2135   12.8143 C   0  0  0  0  0  0  0  0  0  0  0  0
   -0.2760  -12.0948   13.6832 O   0  0  0  0  0  0  0  0  0  0  0  0
    1.2712   -9.9063   12.9130 N   0  0  0  0  0  0  0  0  0  0  0  0
    2.1978   -9.2337   12.2396 C   0  0  0  0  0  0  0  0  0  0  0  0
    2.7774  -10.0744   11.3790 N   0  0  0  0  0  0  0  0  0  0  0  0
  1  2  1  0  0  0  0
  1  6  1  0  0  0  0
  2  3  2  0  0  0  0
  3  4  1  0  0  0  0
  4  5  2  0  0  0  0
  4 10  1  0  0  0  0
  5  6  1  0  0  0  0
  5  8  1  0  0  0  0
  6  7  2  0  0  0  0
  8  9  1  0  0  0  0
  9 10  2  0  0  0  0
M  END
>  <CHROM.1>
1.46068830,-11.55119508,12.17226996,-2.18604966,0.74813164,0.32445215

>  <Name>
ligand

>  <RI>
0

>  <Rbt.Current_Directory>
/home/itssahil/PROJECTS/Mol_Feturizer/Test_systems_manuscript/rnas/5c7w

>  <Rbt.Executable>
rbdock ($Id: //depot/dev/client3/rdock/2013.1/src/exe/rbdock.cxx#4 $)

>  <Rbt.Library>
libRbt.so (2013.1, Build901 2013/11/27)

>  <Rbt.Parameter_File>
/export/apps/rDock/src/rDock_2013.1_src/data/scripts/dock_solv.prm

>  <Rbt.Receptor>
prm/pocket_docking_6.prm

>  <SCORE>
-15.2679

>  <SCORE.INTER>
-15.2679

>  <SCORE.INTER.CONST>
1

>  <SCORE.INTER.POLAR>
0

>  <SCORE.INTER.ROT>
0

>  <SCORE.INTER.SOLV>
3.28981

>  <SCORE.INTER.VDW>
-14.8752

>  <SCORE.INTER.norm>
-1.52679

>  <SCORE.INTRA>
0

>  <SCORE.INTRA.DIHEDRAL>
0

>  <SCORE.INTRA.DIHEDRAL.0>
0

>  <SCORE.INTRA.POLAR>
0

>  <SCORE.INTRA.POLAR.0>
0

>  <SCORE.INTRA.REPUL>
0

>  <SCORE.INTRA.REPUL.0>
0

>  <SCORE.INTRA.SOLV>
0

>  <SCORE.INTRA.SOLV.lig_0>
-4.15853

>  <SCORE.INTRA.VDW>
0

>  <SCORE.INTRA.VDW.0>
0

>  <SCORE.INTRA.norm>
0

>  <SCORE.RESTR>
0

>  <SCORE.RESTR.CAVITY>
0

>  <SCORE.RESTR.norm>
0

>  <SCORE.SYSTEM>
0

>  <SCORE.SYSTEM.CONST>
0

>  <SCORE.SYSTEM.DIHEDRAL>
0

>  <SCORE.SYSTEM.SOLV>
0

>  <SCORE.SYSTEM.norm>
0

>  <SCORE.heavy>
10

>  <SCORE.norm>
-1.52679

>  <RMSD>
1.115

$$$$
ligand
 OpenBabel02271912153D
libRbt.so/2013.1/901 2013/11/27
 10 11  0  0  0  0  0  0  0  0999 V2000
    0.7767  -13.4531   12.2165 N   0  0  0  0  0  0  0  0  0  0  0  0
    1.6896  -13.5565   11.2749 C   0  0  0  0  0  0  0  0  0  0  0  0
    2.4283  -12.4251   10.9195 N   0  0  0  0  0  0  0  0  0  0  0  0
    2.2096  -11.2593   11.5229 C   0  0  0  0  0  0  0  0  0  0  0  0
    1.2911  -11.1582   12.4655 C   0  0  0  0  0  0  0  0  0  0  0  0
    0.5771  -12.2118   12.8158 C   0  0  0  0  0  0  0  0  0  0  0  0
   -0.2740  -12.0939   13.6862 O   0  0  0  0  0  0  0  0  0  0  0  0
    1.2693   -9.9038   12.9127 N   0  0  0  0  0  0  0  0  0  0  0  0
    2.1939   -9.2304   12.2374 C   0  0  0  0  0  0  0  0  0  0  0  0
    2.7729  -10.0707   11.3759 N   0  0  0  0  0  0  0  0  0  0  0  0
  1  2  1  0  0  0  0
  1  6  1  0  0  0  0
  2  3  2  0  0  0  0
  3  4  1  0  0  0  0
  4  5  2  0  0  0  0
  4 10  1  0  0  0  0
  5  6  1  0  0  0  0
  5  8  1  0  0  0  0
  6  7  2  0  0  0  0
  8  9  1  0  0  0  0
  9 10  2  0  0  0  0
M  END
>  <CHROM.1>
1.45932691,-11.54869909,12.17201914,-2.18537354,0.75021098,0.32370380

>  <Name>
ligand

>  <RI>
0

>  <Rbt.Current_Directory>
/home/itssahil/PROJECTS/Mol_Feturizer/Test_systems_manuscript/rnas/5c7w

>  <Rbt.Executable>
rbdock ($Id: //depot/dev/client3/rdock/2013.1/src/exe/rbdock.cxx#4 $)

>  <Rbt.Library>
libRbt.so (2013.1, Build901 2013/11/27)

>  <Rbt.Parameter_File>
/export/apps/rDock/src/rDock_2013.1_src/data/scripts/dock_solv.prm

>  <Rbt.Receptor>
prm/pocket_docking_6.prm

>  <SCORE>
-15.2688

>  <SCORE.INTER>
-15.2688

>  <SCORE.INTER.CONST>
1

>  <SCORE.INTER.POLAR>
0

>  <SCORE.INTER.ROT>
0

>  <SCORE.INTER.SOLV>
3.29466

>  <SCORE.INTER.VDW>
-14.8774

>  <SCORE.INTER.norm>
-1.52688

>  <SCORE.INTRA>
0

>  <SCORE.INTRA.DIHEDRAL>
0

>  <SCORE.INTRA.DIHEDRAL.0>
0

>  <SCORE.INTRA.POLAR>
0

>  <SCORE.INTRA.POLAR.0>
0

>  <SCORE.INTRA.REPUL>
0

>  <SCORE.INTRA.REPUL.0>
0

>  <SCORE.INTRA.SOLV>
0

>  <SCORE.INTRA.SOLV.lig_0>
-4.15853

>  <SCORE.INTRA.VDW>
0

>  <SCORE.INTRA.VDW.0>
0

>  <SCORE.INTRA.norm>
0

>  <SCORE.RESTR>
0

>  <SCORE.RESTR.CAVITY>
0

>  <SCORE.RESTR.norm>
0

>  <SCORE.SYSTEM>
0

>  <SCORE.SYSTEM.CONST>
0

>  <SCORE.SYSTEM.DIHEDRAL>
0

>  <SCORE.SYSTEM.SOLV>
0

>  <SCORE.SYSTEM.norm>
0

>  <SCORE.heavy>
10

>  <SCORE.norm>
-1.52688

>  <RMSD>
1.115

$$$$
ligand
 OpenBabel02271912153D
libRbt.so/2013.1/901 2013/11/27
 10 11  0  0  0  0  0  0  0  0999 V2000
    0.7795  -13.4488   12.2197 N   0  0  0  0  0  0  0  0  0  0  0  0
    1.6917  -13.5513   11.2774 C   0  0  0  0  0  0  0  0  0  0  0  0
    2.4256  -12.4181   10.9179 N   0  0  0  0  0  0  0  0  0  0  0  0
    2.2031  -11.2514   11.5183 C   0  0  0  0  0  0  0  0  0  0  0  0
    1.2853  -11.1512   12.4617 C   0  0  0  0  0  0  0  0  0  0  0  0
    0.5758  -12.2066   12.8158 C   0  0  0  0  0  0  0  0  0  0  0  0
   -0.2747  -12.0895   13.6868 O   0  0  0  0  0  0  0  0  0  0  0  0
    1.2592   -9.8957   12.9054 N   0  0  0  0  0  0  0  0  0  0  0  0
    2.1804   -9.2206   12.2271 C   0  0  0  0  0  0  0  0  0  0  0  0
    2.7616  -10.0611   11.3673 N   0  0  0  0  0  0  0  0  0  0  0  0
  1  2  1  0  0  0  0
  1  6  1  0  0  0  0
  2  3  2  0  0  0  0
  3  4  1  0  0  0  0
  4  5  2  0  0  0  0
  4 10  1  0  0  0  0
  5  6  1  0  0  0  0
  5  8  1  0  0  0  0
  6  7  2  0  0  0  0
  8  9  1  0  0  0  0
  9 10  2  0  0  0  0
M  END
>  <CHROM.1>
1.45469332,-11.54189426,12.16911365,-2.18084367,0.75251859,0.31780374

>  <Name>
ligand

>  <RI>
0

>  <Rbt.Current_Directory>
/home/itssahil/PROJECTS/Mol_Feturizer/Test_systems_manuscript/rnas/5c7w

>  <Rbt.Executable>
rbdock ($Id: //depot/dev/client3/rdock/2013.1/src/exe/rbdock.cxx#4 $)

>  <Rbt.Library>
libRbt.so (2013.1, Build901 2013/11/27)

>  <Rbt.Parameter_File>
/export/apps/rDock/src/rDock_2013.1_src/data/scripts/dock_solv.prm

>  <Rbt.Receptor>
prm/pocket_docking_6.prm

>  <SCORE>
-15.2671

>  <SCORE.INTER>
-15.2671

>  <SCORE.INTER.CONST>
1

>  <SCORE.INTER.POLAR>
0

>  <SCORE.INTER.ROT>
0

>  <SCORE.INTER.SOLV>
3.2984

>  <SCORE.INTER.VDW>
-14.8775

>  <SCORE.INTER.norm>
-1.52671

>  <SCORE.INTRA>
0

>  <SCORE.INTRA.DIHEDRAL>
0

>  <SCORE.INTRA.DIHEDRAL.0>
0

>  <SCORE.INTRA.POLAR>
0

>  <SCORE.INTRA.POLAR.0>
0

>  <SCORE.INTRA.REPUL>
0

>  <SCORE.INTRA.REPUL.0>
0

>  <SCORE.INTRA.SOLV>
0

>  <SCORE.INTRA.SOLV.lig_0>
-4.15853

>  <SCORE.INTRA.VDW>
0

>  <SCORE.INTRA.VDW.0>
0

>  <SCORE.INTRA.norm>
0

>  <SCORE.RESTR>
0

>  <SCORE.RESTR.CAVITY>
0

>  <SCORE.RESTR.norm>
0

>  <SCORE.SYSTEM>
0

>  <SCORE.SYSTEM.CONST>
0

>  <SCORE.SYSTEM.DIHEDRAL>
0

>  <SCORE.SYSTEM.SOLV>
0

>  <SCORE.SYSTEM.norm>
0

>  <SCORE.heavy>
10

>  <SCORE.norm>
-1.52671

>  <RMSD>
1.115

$$$$
ligand
 OpenBabel02271912153D
libRbt.so/2013.1/901 2013/11/27
 10 11  0  0  0  0  0  0  0  0999 V2000
    0.7779  -13.4443   12.2191 N   0  0  0  0  0  0  0  0  0  0  0  0
    1.6969  -13.5524   11.2840 C   0  0  0  0  0  0  0  0  0  0  0  0
    2.4404  -12.4237   10.9303 N   0  0  0  0  0  0  0  0  0  0  0  0
    2.2204  -11.2556   11.5290 C   0  0  0  0  0  0  0  0  0  0  0  0
    1.2959  -11.1498   12.4652 C   0  0  0  0  0  0  0  0  0  0  0  0
    0.5772  -12.2009   12.8137 C   0  0  0  0  0  0  0  0  0  0  0  0
   -0.2794  -12.0786   13.6781 O   0  0  0  0  0  0  0  0  0  0  0  0
    1.2739   -9.8942   12.9087 N   0  0  0  0  0  0  0  0  0  0  0  0
    2.2045   -9.2247   12.2377 C   0  0  0  0  0  0  0  0  0  0  0  0
    2.7873  -10.0687   11.3824 N   0  0  0  0  0  0  0  0  0  0  0  0
  1  2  1  0  0  0  0
  1  6  1  0  0  0  0
  2  3  2  0  0  0  0
  3  4  1  0  0  0  0
  4  5  2  0  0  0  0
  4 10  1  0  0  0  0
  5  6  1  0  0  0  0
  5  8  1  0  0  0  0
  6  7  2  0  0  0  0
  8  9  1  0  0  0  0
  9 10  2  0  0  0  0
M  END
>  <CHROM.1>
1.46514413,-11.54153857,12.17390736,-2.18539275,0.74318748,0.32090875

>  <Name>
ligand

>  <RI>
0

>  <Rbt.Current_Directory>
/home/itssahil/PROJECTS/Mol_Feturizer/Test_systems_manuscript/rnas/5c7w

>  <Rbt.Executable>
rbdock ($Id: //depot/dev/client3/rdock/2013.1/src/exe/rbdock.cxx#4 $)

>  <Rbt.Library>
libRbt.so (2013.1, Build901 2013/11/27)

>  <Rbt.Parameter_File>
/export/apps/rDock/src/rDock_2013.1_src/data/scripts/dock_solv.prm

>  <Rbt.Receptor>
prm/pocket_docking_6.prm

>  <SCORE>
-15.265

>  <SCORE.INTER>
-15.265

>  <SCORE.INTER.CONST>
1

>  <SCORE.INTER.POLAR>
0

>  <SCORE.INTER.ROT>
0

>  <SCORE.INTER.SOLV>
3.2729

>  <SCORE.INTER.VDW>
-14.8676

>  <SCORE.INTER.norm>
-1.5265

>  <SCORE.INTRA>
0

>  <SCORE.INTRA.DIHEDRAL>
0

>  <SCORE.INTRA.DIHEDRAL.0>
0

>  <SCORE.INTRA.POLAR>
0

>  <SCORE.INTRA.POLAR.0>
0

>  <SCORE.INTRA.REPUL>
0

>  <SCORE.INTRA.REPUL.0>
0

>  <SCORE.INTRA.SOLV>
0

>  <SCORE.INTRA.SOLV.lig_0>
-4.15853

>  <SCORE.INTRA.VDW>
0

>  <SCORE.INTRA.VDW.0>
0

>  <SCORE.INTRA.norm>
0

>  <SCORE.RESTR>
0

>  <SCORE.RESTR.CAVITY>
0

>  <SCORE.RESTR.norm>
0

>  <SCORE.SYSTEM>
0

>  <SCORE.SYSTEM.CONST>
0

>  <SCORE.SYSTEM.DIHEDRAL>
0

>  <SCORE.SYSTEM.SOLV>
0

>  <SCORE.SYSTEM.norm>
0

>  <SCORE.heavy>
10

>  <SCORE.norm>
-1.5265

>  <RMSD>
1.115

$$$$
ligand
 OpenBabel02271912153D
libRbt.so/2013.1/901 2013/11/27
 10 11  0  0  0  0  0  0  0  0999 V2000
    0.7791  -13.4474   12.2229 N   0  0  0  0  0  0  0  0  0  0  0  0
    1.6944  -13.5545   11.2841 C   0  0  0  0  0  0  0  0  0  0  0  0
    2.4359  -12.4252   10.9281 N   0  0  0  0  0  0  0  0  0  0  0  0
    2.2176  -11.2576   11.5284 C   0  0  0  0  0  0  0  0  0  0  0  0
    1.2968  -11.1528   12.4683 C   0  0  0  0  0  0  0  0  0  0  0  0
    0.5801  -12.2044   12.8190 C   0  0  0  0  0  0  0  0  0  0  0  0
   -0.2732  -12.0831   13.6869 O   0  0  0  0  0  0  0  0  0  0  0  0
    1.2759   -9.8974   12.9126 N   0  0  0  0  0  0  0  0  0  0  0  0
    2.2035   -9.2270   12.2383 C   0  0  0  0  0  0  0  0  0  0  0  0
    2.7834  -10.0703   11.3803 N   0  0  0  0  0  0  0  0  0  0  0  0
  1  2  1  0  0  0  0
  1  6  1  0  0  0  0
  2  3  2  0  0  0  0
  3  4  1  0  0  0  0
  4  5  2  0  0  0  0
  4 10  1  0  0  0  0
  5  6  1  0  0  0  0
  5  8  1  0  0  0  0
  6  7  2  0  0  0  0
  8  9  1  0  0  0  0
  9 10  2  0  0  0  0
M  END
>  <CHROM.1>
1.46510467,-11.54426955,12.17611194,-2.18642022,0.74711951,0.32219029

>  <Name>
ligand

>  <RI>
0

>  <Rbt.Current_Directory>
/home/itssahil/PROJECTS/Mol_Feturizer/Test_systems_manuscript/rnas/5c7w

>  <Rbt.Executable>
rbdock ($Id: //depot/dev/client3/rdock/2013.1/src/exe/rbdock.cxx#4 $)

>  <Rbt.Library>
libRbt.so (2013.1, Build901 2013/11/27)

>  <Rbt.Parameter_File>
/export/apps/rDock/src/rDock_2013.1_src/data/scripts/dock_solv.prm

>  <Rbt.Receptor>
prm/pocket_docking_7.prm

>  <SCORE>
-15.2663

>  <SCORE.INTER>
-15.2663

>  <SCORE.INTER.CONST>
1

>  <SCORE.INTER.POLAR>
0

>  <SCORE.INTER.ROT>
0

>  <SCORE.INTER.SOLV>
3.28568

>  <SCORE.INTER.VDW>
-14.8728

>  <SCORE.INTER.norm>
-1.52663

>  <SCORE.INTRA>
0

>  <SCORE.INTRA.DIHEDRAL>
0

>  <SCORE.INTRA.DIHEDRAL.0>
0

>  <SCORE.INTRA.POLAR>
0

>  <SCORE.INTRA.POLAR.0>
0

>  <SCORE.INTRA.REPUL>
0

>  <SCORE.INTRA.REPUL.0>
0

>  <SCORE.INTRA.SOLV>
0

>  <SCORE.INTRA.SOLV.lig_0>
-4.15853

>  <SCORE.INTRA.VDW>
0

>  <SCORE.INTRA.VDW.0>
0

>  <SCORE.INTRA.norm>
0

>  <SCORE.RESTR>
0

>  <SCORE.RESTR.CAVITY>
0

>  <SCORE.RESTR.norm>
0

>  <SCORE.SYSTEM>
0

>  <SCORE.SYSTEM.CONST>
0

>  <SCORE.SYSTEM.DIHEDRAL>
0

>  <SCORE.SYSTEM.SOLV>
0

>  <SCORE.SYSTEM.norm>
0

>  <SCORE.heavy>
10

>  <SCORE.norm>
-1.52663

>  <RMSD>
1.115

$$$$
ligand
 OpenBabel02271912153D
libRbt.so/2013.1/901 2013/11/27
 10 11  0  0  0  0  0  0  0  0999 V2000
    0.7774  -13.4571   12.2171 N   0  0  0  0  0  0  0  0  0  0  0  0
    1.6903  -13.5589   11.2753 C   0  0  0  0  0  0  0  0  0  0  0  0
    2.4256  -12.4258   10.9185 N   0  0  0  0  0  0  0  0  0  0  0  0
    2.2039  -11.2599   11.5208 C   0  0  0  0  0  0  0  0  0  0  0  0
    1.2854  -11.1605   12.4636 C   0  0  0  0  0  0  0  0  0  0  0  0
    0.5745  -12.2157   12.8152 C   0  0  0  0  0  0  0  0  0  0  0  0
   -0.2766  -12.0993   13.6858 O   0  0  0  0  0  0  0  0  0  0  0  0
    1.2602   -9.9057   12.9094 N   0  0  0  0  0  0  0  0  0  0  0  0
    2.1827   -9.2303   12.2331 C   0  0  0  0  0  0  0  0  0  0  0  0
    2.7638  -10.0699   11.3723 N   0  0  0  0  0  0  0  0  0  0  0  0
  1  2  1  0  0  0  0
  1  6  1  0  0  0  0
  2  3  2  0  0  0  0
  3  4  1  0  0  0  0
  4  5  2  0  0  0  0
  4 10  1  0  0  0  0
  5  6  1  0  0  0  0
  5  8  1  0  0  0  0
  6  7  2  0  0  0  0
  8  9  1  0  0  0  0
  9 10  2  0  0  0  0
M  END
>  <CHROM.1>
1.45464427,-11.55081226,12.17042521,-2.18185588,0.75141669,0.32026507

>  <Name>
ligand

>  <RI>
0

>  <Rbt.Current_Directory>
/home/itssahil/PROJECTS/Mol_Feturizer/Test_systems_manuscript/rnas/5c7w

>  <Rbt.Executable>
rbdock ($Id: //depot/dev/client3/rdock/2013.1/src/exe/rbdock.cxx#4 $)

>  <Rbt.Library>
libRbt.so (2013.1, Build901 2013/11/27)

>  <Rbt.Parameter_File>
/export/apps/rDock/src/rDock_2013.1_src/data/scripts/dock_solv.prm

>  <Rbt.Receptor>
prm/pocket_docking_8.prm

>  <SCORE>
-15.2686

>  <SCORE.INTER>
-15.2686

>  <SCORE.INTER.CONST>
1

>  <SCORE.INTER.POLAR>
0

>  <SCORE.INTER.ROT>
0

>  <SCORE.INTER.SOLV>
3.2998

>  <SCORE.INTER.VDW>
-14.879

>  <SCORE.INTER.norm>
-1.52686

>  <SCORE.INTRA>
0

>  <SCORE.INTRA.DIHEDRAL>
0

>  <SCORE.INTRA.DIHEDRAL.0>
0

>  <SCORE.INTRA.POLAR>
0

>  <SCORE.INTRA.POLAR.0>
0

>  <SCORE.INTRA.REPUL>
0

>  <SCORE.INTRA.REPUL.0>
0

>  <SCORE.INTRA.SOLV>
0

>  <SCORE.INTRA.SOLV.lig_0>
-4.15853

>  <SCORE.INTRA.VDW>
0

>  <SCORE.INTRA.VDW.0>
0

>  <SCORE.INTRA.norm>
0

>  <SCORE.RESTR>
0

>  <SCORE.RESTR.CAVITY>
0

>  <SCORE.RESTR.norm>
0

>  <SCORE.SYSTEM>
0

>  <SCORE.SYSTEM.CONST>
0

>  <SCORE.SYSTEM.DIHEDRAL>
0

>  <SCORE.SYSTEM.SOLV>
0

>  <SCORE.SYSTEM.norm>
0

>  <SCORE.heavy>
10

>  <SCORE.norm>
-1.52686

>  <RMSD>
1.115

$$$$
ligand
 OpenBabel02271912153D
libRbt.so/2013.1/901 2013/11/27
 10 11  0  0  0  0  0  0  0  0999 V2000
    0.7798  -13.4437   12.2217 N   0  0  0  0  0  0  0  0  0  0  0  0
    1.6952  -13.5489   11.2827 C   0  0  0  0  0  0  0  0  0  0  0  0
    2.4337  -12.4179   10.9259 N   0  0  0  0  0  0  0  0  0  0  0  0
    2.2125  -11.2505   11.5255 C   0  0  0  0  0  0  0  0  0  0  0  0
    1.2917  -11.1476   12.4656 C   0  0  0  0  0  0  0  0  0  0  0  0
    0.5777  -12.2009   12.8171 C   0  0  0  0  0  0  0  0  0  0  0  0
   -0.2756  -12.0813   13.6850 O   0  0  0  0  0  0  0  0  0  0  0  0
    1.2677   -9.8920   12.9092 N   0  0  0  0  0  0  0  0  0  0  0  0
    2.1934   -9.2197   12.2343 C   0  0  0  0  0  0  0  0  0  0  0  0
    2.7752  -10.0619   11.3766 N   0  0  0  0  0  0  0  0  0  0  0  0
  1  2  1  0  0  0  0
  1  6  1  0  0  0  0
  2  3  2  0  0  0  0
  3  4  1  0  0  0  0
  4  5  2  0  0  0  0
  4 10  1  0  0  0  0
  5  6  1  0  0  0  0
  5  8  1  0  0  0  0
  6  7  2  0  0  0  0
  8  9  1  0  0  0  0
  9 10  2  0  0  0  0
M  END
>  <CHROM.1>
1.46093351,-11.53880991,12.17359689,-2.18318188,0.74814173,0.31941567

>  <Name>
ligand

>  <RI>
0

>  <Rbt.Current_Directory>
/home/itssahil/PROJECTS/Mol_Feturizer/Test_systems_manuscript/rnas/5c7w

>  <Rbt.Executable>
rbdock ($Id: //depot/dev/client3/rdock/2013.1/src/exe/rbdock.cxx#4 $)

>  <Rbt.Library>
libRbt.so (2013.1, Build901 2013/11/27)

>  <Rbt.Parameter_File>
/export/apps/rDock/src/rDock_2013.1_src/data/scripts/dock_solv.prm

>  <Rbt.Receptor>
prm/blind_docking_100.prm

>  <SCORE>
-15.2667

>  <SCORE.INTER>
-15.2667

>  <SCORE.INTER.CONST>
1

>  <SCORE.INTER.POLAR>
0

>  <SCORE.INTER.ROT>
0

>  <SCORE.INTER.SOLV>
3.28644

>  <SCORE.INTER.VDW>
-14.8733

>  <SCORE.INTER.norm>
-1.52667

>  <SCORE.INTRA>
0

>  <SCORE.INTRA.DIHEDRAL>
0

>  <SCORE.INTRA.DIHEDRAL.0>
0

>  <SCORE.INTRA.POLAR>
0

>  <SCORE.INTRA.POLAR.0>
0

>  <SCORE.INTRA.REPUL>
0

>  <SCORE.INTRA.REPUL.0>
0

>  <SCORE.INTRA.SOLV>
0

>  <SCORE.INTRA.SOLV.lig_0>
-4.15853

>  <SCORE.INTRA.VDW>
0

>  <SCORE.INTRA.VDW.0>
0

>  <SCORE.INTRA.norm>
0

>  <SCORE.RESTR>
0

>  <SCORE.RESTR.CAVITY>
0

>  <SCORE.RESTR.norm>
0

>  <SCORE.SYSTEM>
0

>  <SCORE.SYSTEM.CONST>
0

>  <SCORE.SYSTEM.DIHEDRAL>
0

>  <SCORE.SYSTEM.SOLV>
0

>  <SCORE.SYSTEM.norm>
0

>  <SCORE.heavy>
10

>  <SCORE.norm>
-1.52667

>  <RMSD>
1.116

$$$$
ligand
 OpenBabel02271912153D
libRbt.so/2013.1/901 2013/11/27
 10 11  0  0  0  0  0  0  0  0999 V2000
    0.7782  -13.4552   12.2169 N   0  0  0  0  0  0  0  0  0  0  0  0
    1.6951  -13.5599   11.2794 C   0  0  0  0  0  0  0  0  0  0  0  0
    2.4363  -12.4294   10.9265 N   0  0  0  0  0  0  0  0  0  0  0  0
    2.2161  -11.2630   11.5284 C   0  0  0  0  0  0  0  0  0  0  0  0
    1.2936  -11.1606   12.4670 C   0  0  0  0  0  0  0  0  0  0  0  0
    0.5772  -12.2134   12.8148 C   0  0  0  0  0  0  0  0  0  0  0  0
   -0.2775  -12.0942   13.6814 O   0  0  0  0  0  0  0  0  0  0  0  0
    1.2711   -9.9060   12.9134 N   0  0  0  0  0  0  0  0  0  0  0  0
    2.1992   -9.2337   12.2417 C   0  0  0  0  0  0  0  0  0  0  0  0
    2.7811  -10.0750   11.3832 N   0  0  0  0  0  0  0  0  0  0  0  0
  1  2  1  0  0  0  0
  1  6  1  0  0  0  0
  2  3  2  0  0  0  0
  3  4  1  0  0  0  0
  4  5  2  0  0  0  0
  4 10  1  0  0  0  0
  5  6  1  0  0  0  0
  5  8  1  0  0  0  0
  6  7  2  0  0  0  0
  8  9  1  0  0  0  0
  9 10  2  0  0  0  0
M  END
>  <CHROM.1>
1.46276561,-11.55143094,12.17443541,-2.18468262,0.74582751,0.32271011

>  <Name>
ligand

>  <RI>
0

>  <Rbt.Current_Directory>
/home/itssahil/PROJECTS/Mol_Feturizer/Test_systems_manuscript/rnas/5c7w

>  <Rbt.Executable>
rbdock ($Id: //depot/dev/client3/rdock/2013.1/src/exe/rbdock.cxx#4 $)

>  <Rbt.Library>
libRbt.so (2013.1, Build901 2013/11/27)

>  <Rbt.Parameter_File>
/export/apps/rDock/src/rDock_2013.1_src/data/scripts/dock_solv.prm

>  <Rbt.Receptor>
prm/blind_docking_100.prm

>  <SCORE>
-15.2658

>  <SCORE.INTER>
-15.2658

>  <SCORE.INTER.CONST>
1

>  <SCORE.INTER.POLAR>
0

>  <SCORE.INTER.ROT>
0

>  <SCORE.INTER.SOLV>
3.28521

>  <SCORE.INTER.VDW>
-14.8723

>  <SCORE.INTER.norm>
-1.52658

>  <SCORE.INTRA>
0

>  <SCORE.INTRA.DIHEDRAL>
0

>  <SCORE.INTRA.DIHEDRAL.0>
0

>  <SCORE.INTRA.POLAR>
0

>  <SCORE.INTRA.POLAR.0>
0

>  <SCORE.INTRA.REPUL>
0

>  <SCORE.INTRA.REPUL.0>
0

>  <SCORE.INTRA.SOLV>
0

>  <SCORE.INTRA.SOLV.lig_0>
-4.15853

>  <SCORE.INTRA.VDW>
0

>  <SCORE.INTRA.VDW.0>
0

>  <SCORE.INTRA.norm>
0

>  <SCORE.RESTR>
0

>  <SCORE.RESTR.CAVITY>
0

>  <SCORE.RESTR.norm>
0

>  <SCORE.SYSTEM>
0

>  <SCORE.SYSTEM.CONST>
0

>  <SCORE.SYSTEM.DIHEDRAL>
0

>  <SCORE.SYSTEM.SOLV>
0

>  <SCORE.SYSTEM.norm>
0

>  <SCORE.heavy>
10

>  <SCORE.norm>
-1.52658

>  <RMSD>
1.116

$$$$
ligand
 OpenBabel02271912153D
libRbt.so/2013.1/901 2013/11/27
 10 11  0  0  0  0  0  0  0  0999 V2000
    0.7777  -13.4483   12.2187 N   0  0  0  0  0  0  0  0  0  0  0  0
    1.6911  -13.5530   11.2779 C   0  0  0  0  0  0  0  0  0  0  0  0
    2.4308  -12.4224   10.9221 N   0  0  0  0  0  0  0  0  0  0  0  0
    2.2125  -11.2559   11.5246 C   0  0  0  0  0  0  0  0  0  0  0  0
    1.2935  -11.1535   12.4665 C   0  0  0  0  0  0  0  0  0  0  0  0
    0.5786  -12.2064   12.8171 C   0  0  0  0  0  0  0  0  0  0  0  0
   -0.2730  -12.0873   13.6868 O   0  0  0  0  0  0  0  0  0  0  0  0
    1.2722   -9.8988   12.9127 N   0  0  0  0  0  0  0  0  0  0  0  0
    2.1978   -9.2265   12.2375 C   0  0  0  0  0  0  0  0  0  0  0  0
    2.7767  -10.0678   11.3770 N   0  0  0  0  0  0  0  0  0  0  0  0
  1  2  1  0  0  0  0
  1  6  1  0  0  0  0
  2  3  2  0  0  0  0
  3  4  1  0  0  0  0
  4  5  2  0  0  0  0
  4 10  1  0  0  0  0
  5  6  1  0  0  0  0
  5  8  1  0  0  0  0
  6  7  2  0  0  0  0
  8  9  1  0  0  0  0
  9 10  2  0  0  0  0
M  END
>  <CHROM.1>
1.46161353,-11.54437169,12.17336533,-2.18596930,0.74936936,0.32338252

>  <Name>
ligand

>  <RI>
0

>  <Rbt.Current_Directory>
/home/itssahil/PROJECTS/Mol_Feturizer/Test_systems_manuscript/rnas/5c7w

>  <Rbt.Executable>
rbdock ($Id: //depot/dev/client3/rdock/2013.1/src/exe/rbdock.cxx#4 $)

>  <Rbt.Library>
libRbt.so (2013.1, Build901 2013/11/27)

>  <Rbt.Parameter_File>
/export/apps/rDock/src/rDock_2013.1_src/data/scripts/dock_solv.prm

>  <Rbt.Receptor>
prm/blind_docking_20.prm

>  <SCORE>
-15.2683

>  <SCORE.INTER>
-15.2683

>  <SCORE.INTER.CONST>
1

>  <SCORE.INTER.POLAR>
0

>  <SCORE.INTER.ROT>
0

>  <SCORE.INTER.SOLV>
3.29078

>  <SCORE.INTER.VDW>
-14.8758

>  <SCORE.INTER.norm>
-1.52683

>  <SCORE.INTRA>
0

>  <SCORE.INTRA.DIHEDRAL>
0

>  <SCORE.INTRA.DIHEDRAL.0>
0

>  <SCORE.INTRA.POLAR>
0

>  <SCORE.INTRA.POLAR.0>
0

>  <SCORE.INTRA.REPUL>
0

>  <SCORE.INTRA.REPUL.0>
0

>  <SCORE.INTRA.SOLV>
0

>  <SCORE.INTRA.SOLV.lig_0>
-4.15853

>  <SCORE.INTRA.VDW>
0

>  <SCORE.INTRA.VDW.0>
0

>  <SCORE.INTRA.norm>
0

>  <SCORE.RESTR>
0

>  <SCORE.RESTR.CAVITY>
0

>  <SCORE.RESTR.norm>
0

>  <SCORE.SYSTEM>
0

>  <SCORE.SYSTEM.CONST>
0

>  <SCORE.SYSTEM.DIHEDRAL>
0

>  <SCORE.SYSTEM.SOLV>
0

>  <SCORE.SYSTEM.norm>
0

>  <SCORE.heavy>
10

>  <SCORE.norm>
-1.52683

>  <RMSD>
1.116

$$$$
ligand
 OpenBabel02271912153D
libRbt.so/2013.1/901 2013/11/27
 10 11  0  0  0  0  0  0  0  0999 V2000
    0.7799  -13.4511   12.2192 N   0  0  0  0  0  0  0  0  0  0  0  0
    1.6969  -13.5558   11.2818 C   0  0  0  0  0  0  0  0  0  0  0  0
    2.4357  -12.4245   10.9265 N   0  0  0  0  0  0  0  0  0  0  0  0
    2.2132  -11.2573   11.5261 C   0  0  0  0  0  0  0  0  0  0  0  0
    1.2908  -11.1549   12.4647 C   0  0  0  0  0  0  0  0  0  0  0  0
    0.5765  -12.2085   12.8147 C   0  0  0  0  0  0  0  0  0  0  0  0
   -0.2783  -12.0893   13.6812 O   0  0  0  0  0  0  0  0  0  0  0  0
    1.2657   -9.8995   12.9086 N   0  0  0  0  0  0  0  0  0  0  0  0
    2.1924   -9.2267   12.2354 C   0  0  0  0  0  0  0  0  0  0  0  0
    2.7759  -10.0685   11.3785 N   0  0  0  0  0  0  0  0  0  0  0  0
  1  2  1  0  0  0  0
  1  6  1  0  0  0  0
  2  3  2  0  0  0  0
  3  4  1  0  0  0  0
  4  5  2  0  0  0  0
  4 10  1  0  0  0  0
  5  6  1  0  0  0  0
  5  8  1  0  0  0  0
  6  7  2  0  0  0  0
  8  9  1  0  0  0  0
  9 10  2  0  0  0  0
M  END
>  <CHROM.1>
1.46062908,-11.54597912,12.17284807,-2.18213181,0.74663714,0.31899252

>  <Name>
ligand

>  <RI>
0

>  <Rbt.Current_Directory>
/home/itssahil/PROJECTS/Mol_Feturizer/Test_systems_manuscript/rnas/5c7w

>  <Rbt.Executable>
rbdock ($Id: //depot/dev/client3/rdock/2013.1/src/exe/rbdock.cxx#4 $)

>  <Rbt.Library>
libRbt.so (2013.1, Build901 2013/11/27)

>  <Rbt.Parameter_File>
/export/apps/rDock/src/rDock_2013.1_src/data/scripts/dock_solv.prm

>  <Rbt.Receptor>
prm/blind_docking_20.prm

>  <SCORE>
-15.2668

>  <SCORE.INTER>
-15.2668

>  <SCORE.INTER.CONST>
1

>  <SCORE.INTER.POLAR>
0

>  <SCORE.INTER.ROT>
0

>  <SCORE.INTER.SOLV>
3.2852

>  <SCORE.INTER.VDW>
-14.8729

>  <SCORE.INTER.norm>
-1.52668

>  <SCORE.INTRA>
0

>  <SCORE.INTRA.DIHEDRAL>
0

>  <SCORE.INTRA.DIHEDRAL.0>
0

>  <SCORE.INTRA.POLAR>
0

>  <SCORE.INTRA.POLAR.0>
0

>  <SCORE.INTRA.REPUL>
0

>  <SCORE.INTRA.REPUL.0>
0

>  <SCORE.INTRA.SOLV>
0

>  <SCORE.INTRA.SOLV.lig_0>
-4.15853

>  <SCORE.INTRA.VDW>
0

>  <SCORE.INTRA.VDW.0>
0

>  <SCORE.INTRA.norm>
0

>  <SCORE.RESTR>
0

>  <SCORE.RESTR.CAVITY>
0

>  <SCORE.RESTR.norm>
0

>  <SCORE.SYSTEM>
0

>  <SCORE.SYSTEM.CONST>
0

>  <SCORE.SYSTEM.DIHEDRAL>
0

>  <SCORE.SYSTEM.SOLV>
0

>  <SCORE.SYSTEM.norm>
0

>  <SCORE.heavy>
10

>  <SCORE.norm>
-1.52668

>  <RMSD>
1.116

$$$$
ligand
 OpenBabel02271912153D
libRbt.so/2013.1/901 2013/11/27
 10 11  0  0  0  0  0  0  0  0999 V2000
    0.7778  -13.4524   12.2189 N   0  0  0  0  0  0  0  0  0  0  0  0
    1.6880  -13.5563   11.2748 C   0  0  0  0  0  0  0  0  0  0  0  0
    2.4256  -12.4251   10.9167 N   0  0  0  0  0  0  0  0  0  0  0  0
    2.2088  -11.2589   11.5202 C   0  0  0  0  0  0  0  0  0  0  0  0
    1.2931  -11.1573   12.4654 C   0  0  0  0  0  0  0  0  0  0  0  0
    0.5800  -12.2108   12.8183 C   0  0  0  0  0  0  0  0  0  0  0  0
   -0.2685  -12.0923   13.6911 O   0  0  0  0  0  0  0  0  0  0  0  0
    1.2726   -9.9028   12.9120 N   0  0  0  0  0  0  0  0  0  0  0  0
    2.1953   -9.2297   12.2337 C   0  0  0  0  0  0  0  0  0  0  0  0
    2.7718  -10.0705   11.3710 N   0  0  0  0  0  0  0  0  0  0  0  0
  1  2  1  0  0  0  0
  1  6  1  0  0  0  0
  2  3  2  0  0  0  0
  3  4  1  0  0  0  0
  4  5  2  0  0  0  0
  4 10  1  0  0  0  0
  5  6  1  0  0  0  0
  5  8  1  0  0  0  0
  6  7  2  0  0  0  0
  8  9  1  0  0  0  0
  9 10  2  0  0  0  0
M  END
>  <CHROM.1>
1.46039832,-11.54801602,12.17160732,-2.18672481,0.75293176,0.32414879

>  <Name>
ligand

>  <RI>
0

>  <Rbt.Current_Directory>
/home/itssahil/PROJECTS/Mol_Feturizer/Test_systems_manuscript/rnas/5c7w

>  <Rbt.Executable>
rbdock ($Id: //depot/dev/client3/rdock/2013.1/src/exe/rbdock.cxx#4 $)

>  <Rbt.Library>
libRbt.so (2013.1, Build901 2013/11/27)

>  <Rbt.Parameter_File>
/export/apps/rDock/src/rDock_2013.1_src/data/scripts/dock_solv.prm

>  <Rbt.Receptor>
prm/blind_docking_40.prm

>  <SCORE>
-15.2696

>  <SCORE.INTER>
-15.2696

>  <SCORE.INTER.CONST>
1

>  <SCORE.INTER.POLAR>
0

>  <SCORE.INTER.ROT>
0

>  <SCORE.INTER.SOLV>
3.30067

>  <SCORE.INTER.VDW>
-14.88

>  <SCORE.INTER.norm>
-1.52696

>  <SCORE.INTRA>
0

>  <SCORE.INTRA.DIHEDRAL>
0

>  <SCORE.INTRA.DIHEDRAL.0>
0

>  <SCORE.INTRA.POLAR>
0

>  <SCORE.INTRA.POLAR.0>
0

>  <SCORE.INTRA.REPUL>
0

>  <SCORE.INTRA.REPUL.0>
0

>  <SCORE.INTRA.SOLV>
0

>  <SCORE.INTRA.SOLV.lig_0>
-4.15853

>  <SCORE.INTRA.VDW>
0

>  <SCORE.INTRA.VDW.0>
0

>  <SCORE.INTRA.norm>
0

>  <SCORE.RESTR>
0

>  <SCORE.RESTR.CAVITY>
0

>  <SCORE.RESTR.norm>
0

>  <SCORE.SYSTEM>
0

>  <SCORE.SYSTEM.CONST>
0

>  <SCORE.SYSTEM.DIHEDRAL>
0

>  <SCORE.SYSTEM.SOLV>
0

>  <SCORE.SYSTEM.norm>
0

>  <SCORE.heavy>
10

>  <SCORE.norm>
-1.52696

>  <RMSD>
1.116

$$$$
ligand
 OpenBabel02271912153D
libRbt.so/2013.1/901 2013/11/27
 10 11  0  0  0  0  0  0  0  0999 V2000
    0.7775  -13.4508   12.2185 N   0  0  0  0  0  0  0  0  0  0  0  0
    1.6882  -13.5558   11.2751 C   0  0  0  0  0  0  0  0  0  0  0  0
    2.4279  -12.4256   10.9178 N   0  0  0  0  0  0  0  0  0  0  0  0
    2.2124  -11.2593   11.5215 C   0  0  0  0  0  0  0  0  0  0  0  0
    1.2961  -11.1566   12.4661 C   0  0  0  0  0  0  0  0  0  0  0  0
    0.5812  -12.2090   12.8181 C   0  0  0  0  0  0  0  0  0  0  0  0
   -0.2679  -12.0896   13.6903 O   0  0  0  0  0  0  0  0  0  0  0  0
    1.2772   -9.9021   12.9130 N   0  0  0  0  0  0  0  0  0  0  0  0
    2.2015   -9.2302   12.2356 C   0  0  0  0  0  0  0  0  0  0  0  0
    2.7773  -10.0717   11.3731 N   0  0  0  0  0  0  0  0  0  0  0  0
  1  2  1  0  0  0  0
  1  6  1  0  0  0  0
  2  3  2  0  0  0  0
  3  4  1  0  0  0  0
  4  5  2  0  0  0  0
  4 10  1  0  0  0  0
  5  6  1  0  0  0  0
  5  8  1  0  0  0  0
  6  7  2  0  0  0  0
  8  9  1  0  0  0  0
  9 10  2  0  0  0  0
M  END
>  <CHROM.1>
1.46304208,-11.54742211,12.17227375,-2.18837489,0.75172159,0.32556876

>  <Name>
ligand

>  <RI>
0

>  <Rbt.Current_Directory>
/home/itssahil/PROJECTS/Mol_Feturizer/Test_systems_manuscript/rnas/5c7w

>  <Rbt.Executable>
rbdock ($Id: //depot/dev/client3/rdock/2013.1/src/exe/rbdock.cxx#4 $)

>  <Rbt.Library>
libRbt.so (2013.1, Build901 2013/11/27)

>  <Rbt.Parameter_File>
/export/apps/rDock/src/rDock_2013.1_src/data/scripts/dock_solv.prm

>  <Rbt.Receptor>
prm/blind_docking_40.prm

>  <SCORE>
-15.2691

>  <SCORE.INTER>
-15.2691

>  <SCORE.INTER.CONST>
1

>  <SCORE.INTER.POLAR>
0

>  <SCORE.INTER.ROT>
0

>  <SCORE.INTER.SOLV>
3.29655

>  <SCORE.INTER.VDW>
-14.8783

>  <SCORE.INTER.norm>
-1.52691

>  <SCORE.INTRA>
0

>  <SCORE.INTRA.DIHEDRAL>
0

>  <SCORE.INTRA.DIHEDRAL.0>
0

>  <SCORE.INTRA.POLAR>
0

>  <SCORE.INTRA.POLAR.0>
0

>  <SCORE.INTRA.REPUL>
0

>  <SCORE.INTRA.REPUL.0>
0

>  <SCORE.INTRA.SOLV>
0

>  <SCORE.INTRA.SOLV.lig_0>
-4.15853

>  <SCORE.INTRA.VDW>
0

>  <SCORE.INTRA.VDW.0>
0

>  <SCORE.INTRA.norm>
0

>  <SCORE.RESTR>
0

>  <SCORE.RESTR.CAVITY>
0

>  <SCORE.RESTR.norm>
0

>  <SCORE.SYSTEM>
0

>  <SCORE.SYSTEM.CONST>
0

>  <SCORE.SYSTEM.DIHEDRAL>
0

>  <SCORE.SYSTEM.SOLV>
0

>  <SCORE.SYSTEM.norm>
0

>  <SCORE.heavy>
10

>  <SCORE.norm>
-1.52691

>  <RMSD>
1.116

$$$$
ligand
 OpenBabel02271912153D
libRbt.so/2013.1/901 2013/11/27
 10 11  0  0  0  0  0  0  0  0999 V2000
    0.7839  -13.4497   12.2252 N   0  0  0  0  0  0  0  0  0  0  0  0
    1.6954  -13.5505   11.2821 C   0  0  0  0  0  0  0  0  0  0  0  0
    2.4264  -12.4159   10.9215 N   0  0  0  0  0  0  0  0  0  0  0  0
    2.2019  -11.2494   11.5216 C   0  0  0  0  0  0  0  0  0  0  0  0
    1.2848  -11.1508   12.4658 C   0  0  0  0  0  0  0  0  0  0  0  0
    0.5780  -12.2076   12.8210 C   0  0  0  0  0  0  0  0  0  0  0  0
   -0.2720  -12.0921   13.6928 O   0  0  0  0  0  0  0  0  0  0  0  0
    1.2563   -9.8952   12.9089 N   0  0  0  0  0  0  0  0  0  0  0  0
    2.1753   -9.2183   12.2295 C   0  0  0  0  0  0  0  0  0  0  0  0
    2.7577  -10.0579   11.3695 N   0  0  0  0  0  0  0  0  0  0  0  0
  1  2  1  0  0  0  0
  1  6  1  0  0  0  0
  2  3  2  0  0  0  0
  3  4  1  0  0  0  0
  4  5  2  0  0  0  0
  4 10  1  0  0  0  0
  5  6  1  0  0  0  0
  5  8  1  0  0  0  0
  6  7  2  0  0  0  0
  8  9  1  0  0  0  0
  9 10  2  0  0  0  0
M  END
>  <CHROM.1>
1.45476657,-11.54125790,12.17318971,-2.17834507,0.75410393,0.31565754

>  <Name>
ligand

>  <RI>
0

>  <Rbt.Current_Directory>
/home/itssahil/PROJECTS/Mol_Feturizer/Test_systems_manuscript/rnas/5c7w

>  <Rbt.Executable>
rbdock ($Id: //depot/dev/client3/rdock/2013.1/src/exe/rbdock.cxx#4 $)

>  <Rbt.Library>
libRbt.so (2013.1, Build901 2013/11/27)

>  <Rbt.Parameter_File>
/export/apps/rDock/src/rDock_2013.1_src/data/scripts/dock_solv.prm

>  <Rbt.Receptor>
prm/blind_docking_40.prm

>  <SCORE>
-15.2647

>  <SCORE.INTER>
-15.2647

>  <SCORE.INTER.CONST>
1

>  <SCORE.INTER.POLAR>
0

>  <SCORE.INTER.ROT>
0

>  <SCORE.INTER.SOLV>
3.30573

>  <SCORE.INTER.VDW>
-14.8784

>  <SCORE.INTER.norm>
-1.52647

>  <SCORE.INTRA>
0

>  <SCORE.INTRA.DIHEDRAL>
0

>  <SCORE.INTRA.DIHEDRAL.0>
0

>  <SCORE.INTRA.POLAR>
0

>  <SCORE.INTRA.POLAR.0>
0

>  <SCORE.INTRA.REPUL>
0

>  <SCORE.INTRA.REPUL.0>
0

>  <SCORE.INTRA.SOLV>
0

>  <SCORE.INTRA.SOLV.lig_0>
-4.15853

>  <SCORE.INTRA.VDW>
0

>  <SCORE.INTRA.VDW.0>
0

>  <SCORE.INTRA.norm>
0

>  <SCORE.RESTR>
0

>  <SCORE.RESTR.CAVITY>
0

>  <SCORE.RESTR.norm>
0

>  <SCORE.SYSTEM>
0

>  <SCORE.SYSTEM.CONST>
0

>  <SCORE.SYSTEM.DIHEDRAL>
0

>  <SCORE.SYSTEM.SOLV>
0

>  <SCORE.SYSTEM.norm>
0

>  <SCORE.heavy>
10

>  <SCORE.norm>
-1.52647

>  <RMSD>
1.116

$$$$
ligand
 OpenBabel02271912153D
libRbt.so/2013.1/901 2013/11/27
 10 11  0  0  0  0  0  0  0  0999 V2000
    0.7777  -13.4546   12.2148 N   0  0  0  0  0  0  0  0  0  0  0  0
    1.6923  -13.5579   11.2748 C   0  0  0  0  0  0  0  0  0  0  0  0
    2.4310  -12.4263   10.9202 N   0  0  0  0  0  0  0  0  0  0  0  0
    2.2107  -11.2603   11.5229 C   0  0  0  0  0  0  0  0  0  0  0  0
    1.2907  -11.1593   12.4639 C   0  0  0  0  0  0  0  0  0  0  0  0
    0.5766  -12.2131   12.8134 C   0  0  0  0  0  0  0  0  0  0  0  0
   -0.2760  -12.0953   13.6823 O   0  0  0  0  0  0  0  0  0  0  0  0
    1.2675   -9.9048   12.9106 N   0  0  0  0  0  0  0  0  0  0  0  0
    2.1929   -9.2311   12.2365 C   0  0  0  0  0  0  0  0  0  0  0  0
    2.7737  -10.0715   11.3763 N   0  0  0  0  0  0  0  0  0  0  0  0
  1  2  1  0  0  0  0
  1  6  1  0  0  0  0
  2  3  2  0  0  0  0
  3  4  1  0  0  0  0
  4  5  2  0  0  0  0
  4 10  1  0  0  0  0
  5  6  1  0  0  0  0
  5  8  1  0  0  0  0
  6  7  2  0  0  0  0
  8  9  1  0  0  0  0
  9 10  2  0  0  0  0
M  END
>  <CHROM.1>
1.45953894,-11.54983175,12.17081587,-2.18403901,0.74879290,0.32243166

>  <Name>
ligand

>  <RI>
0

>  <Rbt.Current_Directory>
/home/itssahil/PROJECTS/Mol_Feturizer/Test_systems_manuscript/rnas/5c7w

>  <Rbt.Executable>
rbdock ($Id: //depot/dev/client3/rdock/2013.1/src/exe/rbdock.cxx#4 $)

>  <Rbt.Library>
libRbt.so (2013.1, Build901 2013/11/27)

>  <Rbt.Parameter_File>
/export/apps/rDock/src/rDock_2013.1_src/data/scripts/dock_solv.prm

>  <Rbt.Receptor>
prm/blind_docking_60.prm

>  <SCORE>
-15.2685

>  <SCORE.INTER>
-15.2685

>  <SCORE.INTER.CONST>
1

>  <SCORE.INTER.POLAR>
0

>  <SCORE.INTER.ROT>
0

>  <SCORE.INTER.SOLV>
3.29093

>  <SCORE.INTER.VDW>
-14.876

>  <SCORE.INTER.norm>
-1.52685

>  <SCORE.INTRA>
0

>  <SCORE.INTRA.DIHEDRAL>
0

>  <SCORE.INTRA.DIHEDRAL.0>
0

>  <SCORE.INTRA.POLAR>
0

>  <SCORE.INTRA.POLAR.0>
0

>  <SCORE.INTRA.REPUL>
0

>  <SCORE.INTRA.REPUL.0>
0

>  <SCORE.INTRA.SOLV>
0

>  <SCORE.INTRA.SOLV.lig_0>
-4.15853

>  <SCORE.INTRA.VDW>
0

>  <SCORE.INTRA.VDW.0>
0

>  <SCORE.INTRA.norm>
0

>  <SCORE.RESTR>
0

>  <SCORE.RESTR.CAVITY>
0

>  <SCORE.RESTR.norm>
0

>  <SCORE.SYSTEM>
0

>  <SCORE.SYSTEM.CONST>
0

>  <SCORE.SYSTEM.DIHEDRAL>
0

>  <SCORE.SYSTEM.SOLV>
0

>  <SCORE.SYSTEM.norm>
0

>  <SCORE.heavy>
10

>  <SCORE.norm>
-1.52685

>  <RMSD>
1.116

$$$$
ligand
 OpenBabel02271912153D
libRbt.so/2013.1/901 2013/11/27
 10 11  0  0  0  0  0  0  0  0999 V2000
    0.7787  -13.4465   12.2142 N   0  0  0  0  0  0  0  0  0  0  0  0
    1.6993  -13.5509   11.2803 C   0  0  0  0  0  0  0  0  0  0  0  0
    2.4397  -12.4195   10.9285 N   0  0  0  0  0  0  0  0  0  0  0  0
    2.2150  -11.2526   11.5278 C   0  0  0  0  0  0  0  0  0  0  0  0
    1.2889  -11.1505   12.4628 C   0  0  0  0  0  0  0  0  0  0  0  0
    0.5731  -12.2041   12.8094 C   0  0  0  0  0  0  0  0  0  0  0  0
   -0.2851  -12.0853   13.6727 O   0  0  0  0  0  0  0  0  0  0  0  0
    1.2623   -9.8953   12.9072 N   0  0  0  0  0  0  0  0  0  0  0  0
    2.1917   -9.2223   12.2380 C   0  0  0  0  0  0  0  0  0  0  0  0
    2.7784  -10.0638   11.3829 N   0  0  0  0  0  0  0  0  0  0  0  0
  1  2  1  0  0  0  0
  1  6  1  0  0  0  0
  2  3  2  0  0  0  0
  3  4  1  0  0  0  0
  4  5  2  0  0  0  0
  4 10  1  0  0  0  0
  5  6  1  0  0  0  0
  5  8  1  0  0  0  0
  6  7  2  0  0  0  0
  8  9  1  0  0  0  0
  9 10  2  0  0  0  0
M  END
>  <CHROM.1>
1.45984362,-11.54146099,12.17139788,-2.18065301,0.74286829,0.31847435

>  <Name>
ligand

>  <RI>
0

>  <Rbt.Current_Directory>
/home/itssahil/PROJECTS/Mol_Feturizer/Test_systems_manuscript/rnas/5c7w

>  <Rbt.Executable>
rbdock ($Id: //depot/dev/client3/rdock/2013.1/src/exe/rbdock.cxx#4 $)

>  <Rbt.Library>
libRbt.so (2013.1, Build901 2013/11/27)

>  <Rbt.Parameter_File>
/export/apps/rDock/src/rDock_2013.1_src/data/scripts/dock_solv.prm

>  <Rbt.Receptor>
prm/blind_docking_60.prm

>  <SCORE>
-15.2643

>  <SCORE.INTER>
-15.2643

>  <SCORE.INTER.CONST>
1

>  <SCORE.INTER.POLAR>
0

>  <SCORE.INTER.ROT>
0

>  <SCORE.INTER.SOLV>
3.27278

>  <SCORE.INTER.VDW>
-14.8671

>  <SCORE.INTER.norm>
-1.52643

>  <SCORE.INTRA>
0

>  <SCORE.INTRA.DIHEDRAL>
0

>  <SCORE.INTRA.DIHEDRAL.0>
0

>  <SCORE.INTRA.POLAR>
0

>  <SCORE.INTRA.POLAR.0>
0

>  <SCORE.INTRA.REPUL>
0

>  <SCORE.INTRA.REPUL.0>
0

>  <SCORE.INTRA.SOLV>
0

>  <SCORE.INTRA.SOLV.lig_0>
-4.15853

>  <SCORE.INTRA.VDW>
0

>  <SCORE.INTRA.VDW.0>
0

>  <SCORE.INTRA.norm>
0

>  <SCORE.RESTR>
0

>  <SCORE.RESTR.CAVITY>
0

>  <SCORE.RESTR.norm>
0

>  <SCORE.SYSTEM>
0

>  <SCORE.SYSTEM.CONST>
0

>  <SCORE.SYSTEM.DIHEDRAL>
0

>  <SCORE.SYSTEM.SOLV>
0

>  <SCORE.SYSTEM.norm>
0

>  <SCORE.heavy>
10

>  <SCORE.norm>
-1.52643

>  <RMSD>
1.116

$$$$
ligand
 OpenBabel02271912153D
libRbt.so/2013.1/901 2013/11/27
 10 11  0  0  0  0  0  0  0  0999 V2000
    0.7808  -13.4498   12.2216 N   0  0  0  0  0  0  0  0  0  0  0  0
    1.6997  -13.5568   11.2864 C   0  0  0  0  0  0  0  0  0  0  0  0
    2.4419  -12.4272   10.9327 N   0  0  0  0  0  0  0  0  0  0  0  0
    2.2206  -11.2594   11.5315 C   0  0  0  0  0  0  0  0  0  0  0  0
    1.2961  -11.1548   12.4678 C   0  0  0  0  0  0  0  0  0  0  0  0
    0.5787  -12.2067   12.8163 C   0  0  0  0  0  0  0  0  0  0  0  0
   -0.2779  -12.0854   13.6808 O   0  0  0  0  0  0  0  0  0  0  0  0
    1.2728   -9.8992   12.9114 N   0  0  0  0  0  0  0  0  0  0  0  0
    2.2026   -9.2286   12.2403 C   0  0  0  0  0  0  0  0  0  0  0  0
    2.7862  -10.0719   11.3850 N   0  0  0  0  0  0  0  0  0  0  0  0
  1  2  1  0  0  0  0
  1  6  1  0  0  0  0
  2  3  2  0  0  0  0
  3  4  1  0  0  0  0
  4  5  2  0  0  0  0
  4 10  1  0  0  0  0
  5  6  1  0  0  0  0
  5  8  1  0  0  0  0
  6  7  2  0  0  0  0
  8  9  1  0  0  0  0
  9 10  2  0  0  0  0
M  END
>  <CHROM.1>
1.46582687,-11.54628533,12.17649696,-2.18398473,0.74366351,0.32003654

>  <Name>
ligand

>  <RI>
0

>  <Rbt.Current_Directory>
/home/itssahil/PROJECTS/Mol_Feturizer/Test_systems_manuscript/rnas/5c7w

>  <Rbt.Executable>
rbdock ($Id: //depot/dev/client3/rdock/2013.1/src/exe/rbdock.cxx#4 $)

>  <Rbt.Library>
libRbt.so (2013.1, Build901 2013/11/27)

>  <Rbt.Parameter_File>
/export/apps/rDock/src/rDock_2013.1_src/data/scripts/dock_solv.prm

>  <Rbt.Receptor>
prm/blind_docking_60.prm

>  <SCORE>
-15.2637

>  <SCORE.INTER>
-15.2637

>  <SCORE.INTER.CONST>
1

>  <SCORE.INTER.POLAR>
0

>  <SCORE.INTER.ROT>
0

>  <SCORE.INTER.SOLV>
3.27816

>  <SCORE.INTER.VDW>
-14.8686

>  <SCORE.INTER.norm>
-1.52637

>  <SCORE.INTRA>
0

>  <SCORE.INTRA.DIHEDRAL>
0

>  <SCORE.INTRA.DIHEDRAL.0>
0

>  <SCORE.INTRA.POLAR>
0

>  <SCORE.INTRA.POLAR.0>
0

>  <SCORE.INTRA.REPUL>
0

>  <SCORE.INTRA.REPUL.0>
0

>  <SCORE.INTRA.SOLV>
0

>  <SCORE.INTRA.SOLV.lig_0>
-4.15853

>  <SCORE.INTRA.VDW>
0

>  <SCORE.INTRA.VDW.0>
0

>  <SCORE.INTRA.norm>
0

>  <SCORE.RESTR>
0

>  <SCORE.RESTR.CAVITY>
0

>  <SCORE.RESTR.norm>
0

>  <SCORE.SYSTEM>
0

>  <SCORE.SYSTEM.CONST>
0

>  <SCORE.SYSTEM.DIHEDRAL>
0

>  <SCORE.SYSTEM.SOLV>
0

>  <SCORE.SYSTEM.norm>
0

>  <SCORE.heavy>
10

>  <SCORE.norm>
-1.52637

>  <RMSD>
1.116

$$$$
ligand
 OpenBabel02271912153D
libRbt.so/2013.1/901 2013/11/27
 10 11  0  0  0  0  0  0  0  0999 V2000
    0.7806  -13.4516   12.2197 N   0  0  0  0  0  0  0  0  0  0  0  0
    1.6985  -13.5566   11.2832 C   0  0  0  0  0  0  0  0  0  0  0  0
    2.4381  -12.4256   10.9288 N   0  0  0  0  0  0  0  0  0  0  0  0
    2.2154  -11.2584   11.5282 C   0  0  0  0  0  0  0  0  0  0  0  0
    1.2919  -11.1556   12.4657 C   0  0  0  0  0  0  0  0  0  0  0  0
    0.5769  -12.2090   12.8149 C   0  0  0  0  0  0  0  0  0  0  0  0
   -0.2788  -12.0895   13.6805 O   0  0  0  0  0  0  0  0  0  0  0  0
    1.2668   -9.9002   12.9096 N   0  0  0  0  0  0  0  0  0  0  0  0
    2.1945   -9.2277   12.2375 C   0  0  0  0  0  0  0  0  0  0  0  0
    2.7786  -10.0697   11.3812 N   0  0  0  0  0  0  0  0  0  0  0  0
  1  2  1  0  0  0  0
  1  6  1  0  0  0  0
  2  3  2  0  0  0  0
  3  4  1  0  0  0  0
  4  5  2  0  0  0  0
  4 10  1  0  0  0  0
  5  6  1  0  0  0  0
  5  8  1  0  0  0  0
  6  7  2  0  0  0  0
  8  9  1  0  0  0  0
  9 10  2  0  0  0  0
M  END
>  <CHROM.1>
1.46198989,-11.54676642,12.17408578,-2.18211636,0.74546883,0.31900595

>  <Name>
ligand

>  <RI>
0

>  <Rbt.Current_Directory>
/home/itssahil/PROJECTS/Mol_Feturizer/Test_systems_manuscript/rnas/5c7w

>  <Rbt.Executable>
rbdock ($Id: //depot/dev/client3/rdock/2013.1/src/exe/rbdock.cxx#4 $)

>  <Rbt.Library>
libRbt.so (2013.1, Build901 2013/11/27)

>  <Rbt.Parameter_File>
/export/apps/rDock/src/rDock_2013.1_src/data/scripts/dock_solv.prm

>  <Rbt.Receptor>
prm/blind_docking_60.prm

>  <SCORE>
-15.2658

>  <SCORE.INTER>
-15.2658

>  <SCORE.INTER.CONST>
1

>  <SCORE.INTER.POLAR>
0

>  <SCORE.INTER.ROT>
0

>  <SCORE.INTER.SOLV>
3.2829

>  <SCORE.INTER.VDW>
-14.8715

>  <SCORE.INTER.norm>
-1.52658

>  <SCORE.INTRA>
0

>  <SCORE.INTRA.DIHEDRAL>
0

>  <SCORE.INTRA.DIHEDRAL.0>
0

>  <SCORE.INTRA.POLAR>
0

>  <SCORE.INTRA.POLAR.0>
0

>  <SCORE.INTRA.REPUL>
0

>  <SCORE.INTRA.REPUL.0>
0

>  <SCORE.INTRA.SOLV>
0

>  <SCORE.INTRA.SOLV.lig_0>
-4.15853

>  <SCORE.INTRA.VDW>
0

>  <SCORE.INTRA.VDW.0>
0

>  <SCORE.INTRA.norm>
0

>  <SCORE.RESTR>
0

>  <SCORE.RESTR.CAVITY>
0

>  <SCORE.RESTR.norm>
0

>  <SCORE.SYSTEM>
0

>  <SCORE.SYSTEM.CONST>
0

>  <SCORE.SYSTEM.DIHEDRAL>
0

>  <SCORE.SYSTEM.SOLV>
0

>  <SCORE.SYSTEM.norm>
0

>  <SCORE.heavy>
10

>  <SCORE.norm>
-1.52658

>  <RMSD>
1.116

$$$$
ligand
 OpenBabel02271912153D
libRbt.so/2013.1/901 2013/11/27
 10 11  0  0  0  0  0  0  0  0999 V2000
    0.7799  -13.4476   12.2229 N   0  0  0  0  0  0  0  0  0  0  0  0
    1.6922  -13.5536   11.2811 C   0  0  0  0  0  0  0  0  0  0  0  0
    2.4315  -12.4234   10.9229 N   0  0  0  0  0  0  0  0  0  0  0  0
    2.2141  -11.2562   11.5242 C   0  0  0  0  0  0  0  0  0  0  0  0
    1.2963  -11.1526   12.4672 C   0  0  0  0  0  0  0  0  0  0  0  0
    0.5817  -12.2050   12.8200 C   0  0  0  0  0  0  0  0  0  0  0  0
   -0.2688  -12.0847   13.6907 O   0  0  0  0  0  0  0  0  0  0  0  0
    1.2757   -9.8973   12.9119 N   0  0  0  0  0  0  0  0  0  0  0  0
    2.2004   -9.2259   12.2347 C   0  0  0  0  0  0  0  0  0  0  0  0
    2.7782  -10.0684   11.3745 N   0  0  0  0  0  0  0  0  0  0  0  0
  1  2  1  0  0  0  0
  1  6  1  0  0  0  0
  2  3  2  0  0  0  0
  3  4  1  0  0  0  0
  4  5  2  0  0  0  0
  4 10  1  0  0  0  0
  5  6  1  0  0  0  0
  5  8  1  0  0  0  0
  6  7  2  0  0  0  0
  8  9  1  0  0  0  0
  9 10  2  0  0  0  0
M  END
>  <CHROM.1>
1.46399076,-11.54381320,12.17435875,-2.18661801,0.75055732,0.32259735

>  <Name>
ligand

>  <RI>
0

>  <Rbt.Current_Directory>
/home/itssahil/PROJECTS/Mol_Feturizer/Test_systems_manuscript/rnas/5c7w

>  <Rbt.Executable>
rbdock ($Id: //depot/dev/client3/rdock/2013.1/src/exe/rbdock.cxx#4 $)

>  <Rbt.Library>
libRbt.so (2013.1, Build901 2013/11/27)

>  <Rbt.Parameter_File>
/export/apps/rDock/src/rDock_2013.1_src/data/scripts/dock_solv.prm

>  <Rbt.Receptor>
prm/blind_docking_80.prm

>  <SCORE>
-15.2681

>  <SCORE.INTER>
-15.2681

>  <SCORE.INTER.CONST>
1

>  <SCORE.INTER.POLAR>
0

>  <SCORE.INTER.ROT>
0

>  <SCORE.INTER.SOLV>
3.29377

>  <SCORE.INTER.VDW>
-14.8767

>  <SCORE.INTER.norm>
-1.52681

>  <SCORE.INTRA>
0

>  <SCORE.INTRA.DIHEDRAL>
0

>  <SCORE.INTRA.DIHEDRAL.0>
0

>  <SCORE.INTRA.POLAR>
0

>  <SCORE.INTRA.POLAR.0>
0

>  <SCORE.INTRA.REPUL>
0

>  <SCORE.INTRA.REPUL.0>
0

>  <SCORE.INTRA.SOLV>
0

>  <SCORE.INTRA.SOLV.lig_0>
-4.15853

>  <SCORE.INTRA.VDW>
0

>  <SCORE.INTRA.VDW.0>
0

>  <SCORE.INTRA.norm>
0

>  <SCORE.RESTR>
0

>  <SCORE.RESTR.CAVITY>
0

>  <SCORE.RESTR.norm>
0

>  <SCORE.SYSTEM>
0

>  <SCORE.SYSTEM.CONST>
0

>  <SCORE.SYSTEM.DIHEDRAL>
0

>  <SCORE.SYSTEM.SOLV>
0

>  <SCORE.SYSTEM.norm>
0

>  <SCORE.heavy>
10

>  <SCORE.norm>
-1.52681

>  <RMSD>
1.116

$$$$
ligand
 OpenBabel02271912153D
libRbt.so/2013.1/901 2013/11/27
 10 11  0  0  0  0  0  0  0  0999 V2000
    0.7788  -13.4509   12.2188 N   0  0  0  0  0  0  0  0  0  0  0  0
    1.6923  -13.5540   11.2777 C   0  0  0  0  0  0  0  0  0  0  0  0
    2.4298  -12.4221   10.9216 N   0  0  0  0  0  0  0  0  0  0  0  0
    2.2095  -11.2560   11.5239 C   0  0  0  0  0  0  0  0  0  0  0  0
    1.2905  -11.1551   12.4660 C   0  0  0  0  0  0  0  0  0  0  0  0
    0.5776  -12.2093   12.8169 C   0  0  0  0  0  0  0  0  0  0  0  0
   -0.2740  -12.0916   13.6869 O   0  0  0  0  0  0  0  0  0  0  0  0
    1.2670   -9.9004   12.9120 N   0  0  0  0  0  0  0  0  0  0  0  0
    2.1911   -9.2264   12.2365 C   0  0  0  0  0  0  0  0  0  0  0  0
    2.7715  -10.0669   11.3761 N   0  0  0  0  0  0  0  0  0  0  0  0
  1  2  1  0  0  0  0
  1  6  1  0  0  0  0
  2  3  2  0  0  0  0
  3  4  1  0  0  0  0
  4  5  2  0  0  0  0
  4 10  1  0  0  0  0
  5  6  1  0  0  0  0
  5  8  1  0  0  0  0
  6  7  2  0  0  0  0
  8  9  1  0  0  0  0
  9 10  2  0  0  0  0
M  END
>  <CHROM.1>
1.45926614,-11.54570092,12.17293704,-2.18366004,0.75017004,0.32164544

>  <Name>
ligand

>  <RI>
0

>  <Rbt.Current_Directory>
/home/itssahil/PROJECTS/Mol_Feturizer/Test_systems_manuscript/rnas/5c7w

>  <Rbt.Executable>
rbdock ($Id: //depot/dev/client3/rdock/2013.1/src/exe/rbdock.cxx#4 $)

>  <Rbt.Library>
libRbt.so (2013.1, Build901 2013/11/27)

>  <Rbt.Parameter_File>
/export/apps/rDock/src/rDock_2013.1_src/data/scripts/dock_solv.prm

>  <Rbt.Receptor>
prm/blind_docking_80.prm

>  <SCORE>
-15.2683

>  <SCORE.INTER>
-15.2683

>  <SCORE.INTER.CONST>
1

>  <SCORE.INTER.POLAR>
0

>  <SCORE.INTER.ROT>
0

>  <SCORE.INTER.SOLV>
3.29443

>  <SCORE.INTER.VDW>
-14.877

>  <SCORE.INTER.norm>
-1.52683

>  <SCORE.INTRA>
0

>  <SCORE.INTRA.DIHEDRAL>
0

>  <SCORE.INTRA.DIHEDRAL.0>
0

>  <SCORE.INTRA.POLAR>
0

>  <SCORE.INTRA.POLAR.0>
0

>  <SCORE.INTRA.REPUL>
0

>  <SCORE.INTRA.REPUL.0>
0

>  <SCORE.INTRA.SOLV>
0

>  <SCORE.INTRA.SOLV.lig_0>
-4.15853

>  <SCORE.INTRA.VDW>
0

>  <SCORE.INTRA.VDW.0>
0

>  <SCORE.INTRA.norm>
0

>  <SCORE.RESTR>
0

>  <SCORE.RESTR.CAVITY>
0

>  <SCORE.RESTR.norm>
0

>  <SCORE.SYSTEM>
0

>  <SCORE.SYSTEM.CONST>
0

>  <SCORE.SYSTEM.DIHEDRAL>
0

>  <SCORE.SYSTEM.SOLV>
0

>  <SCORE.SYSTEM.norm>
0

>  <SCORE.heavy>
10

>  <SCORE.norm>
-1.52683

>  <RMSD>
1.116

$$$$
ligand
 OpenBabel02271912153D
libRbt.so/2013.1/901 2013/11/27
 10 11  0  0  0  0  0  0  0  0999 V2000
    0.7766  -13.4413   12.2126 N   0  0  0  0  0  0  0  0  0  0  0  0
    1.7004  -13.5478   11.2821 C   0  0  0  0  0  0  0  0  0  0  0  0
    2.4439  -12.4178   10.9323 N   0  0  0  0  0  0  0  0  0  0  0  0
    2.2190  -11.2502   11.5301 C   0  0  0  0  0  0  0  0  0  0  0  0
    1.2897  -11.1460   12.4617 C   0  0  0  0  0  0  0  0  0  0  0  0
    0.5710  -12.1983   12.8064 C   0  0  0  0  0  0  0  0  0  0  0  0
   -0.2901  -12.0775   13.6665 O   0  0  0  0  0  0  0  0  0  0  0  0
    1.2636   -9.8905   12.9053 N   0  0  0  0  0  0  0  0  0  0  0  0
    2.1964   -9.2194   12.2390 C   0  0  0  0  0  0  0  0  0  0  0  0
    2.7848  -10.0624   11.3865 N   0  0  0  0  0  0  0  0  0  0  0  0
  1  2  1  0  0  0  0
  1  6  1  0  0  0  0
  2  3  2  0  0  0  0
  3  4  1  0  0  0  0
  4  5  2  0  0  0  0
  4 10  1  0  0  0  0
  5  6  1  0  0  0  0
  5  8  1  0  0  0  0
  6  7  2  0  0  0  0
  8  9  1  0  0  0  0
  9 10  2  0  0  0  0
M  END
>  <CHROM.1>
1.46104264,-11.53744994,12.17118123,-2.18125991,0.73896498,0.31830357

>  <Name>
ligand

>  <RI>
0

>  <Rbt.Current_Directory>
/home/itssahil/PROJECTS/Mol_Feturizer/Test_systems_manuscript/rnas/5c7w

>  <Rbt.Executable>
rbdock ($Id: //depot/dev/client3/rdock/2013.1/src/exe/rbdock.cxx#4 $)

>  <Rbt.Library>
libRbt.so (2013.1, Build901 2013/11/27)

>  <Rbt.Parameter_File>
/export/apps/rDock/src/rDock_2013.1_src/data/scripts/dock_solv.prm

>  <Rbt.Receptor>
prm/pocket_docking_3.prm

>  <SCORE>
-15.2615

>  <SCORE.INTER>
-15.2615

>  <SCORE.INTER.CONST>
1

>  <SCORE.INTER.POLAR>
0

>  <SCORE.INTER.ROT>
0

>  <SCORE.INTER.SOLV>
3.25978

>  <SCORE.INTER.VDW>
-14.861

>  <SCORE.INTER.norm>
-1.52615

>  <SCORE.INTRA>
0

>  <SCORE.INTRA.DIHEDRAL>
0

>  <SCORE.INTRA.DIHEDRAL.0>
0

>  <SCORE.INTRA.POLAR>
0

>  <SCORE.INTRA.POLAR.0>
0

>  <SCORE.INTRA.REPUL>
0

>  <SCORE.INTRA.REPUL.0>
0

>  <SCORE.INTRA.SOLV>
0

>  <SCORE.INTRA.SOLV.lig_0>
-4.15853

>  <SCORE.INTRA.VDW>
0

>  <SCORE.INTRA.VDW.0>
0

>  <SCORE.INTRA.norm>
0

>  <SCORE.RESTR>
0

>  <SCORE.RESTR.CAVITY>
0

>  <SCORE.RESTR.norm>
0

>  <SCORE.SYSTEM>
0

>  <SCORE.SYSTEM.CONST>
0

>  <SCORE.SYSTEM.DIHEDRAL>
0

>  <SCORE.SYSTEM.SOLV>
0

>  <SCORE.SYSTEM.norm>
0

>  <SCORE.heavy>
10

>  <SCORE.norm>
-1.52615

>  <RMSD>
1.116

$$$$
ligand
 OpenBabel02271912153D
libRbt.so/2013.1/901 2013/11/27
 10 11  0  0  0  0  0  0  0  0999 V2000
    0.7793  -13.4487   12.2198 N   0  0  0  0  0  0  0  0  0  0  0  0
    1.6905  -13.5529   11.2766 C   0  0  0  0  0  0  0  0  0  0  0  0
    2.4274  -12.4215   10.9177 N   0  0  0  0  0  0  0  0  0  0  0  0
    2.2089  -11.2548   11.5196 C   0  0  0  0  0  0  0  0  0  0  0  0
    1.2922  -11.1529   12.4639 C   0  0  0  0  0  0  0  0  0  0  0  0
    0.5799  -12.2066   12.8174 C   0  0  0  0  0  0  0  0  0  0  0  0
   -0.2696  -12.0879   13.6893 O   0  0  0  0  0  0  0  0  0  0  0  0
    1.2702   -9.8978   12.9089 N   0  0  0  0  0  0  0  0  0  0  0  0
    2.1928   -9.2247   12.2306 C   0  0  0  0  0  0  0  0  0  0  0  0
    2.7709  -10.0660   11.3694 N   0  0  0  0  0  0  0  0  0  0  0  0
  1  2  1  0  0  0  0
  1  6  1  0  0  0  0
  2  3  2  0  0  0  0
  3  4  1  0  0  0  0
  4  5  2  0  0  0  0
  4 10  1  0  0  0  0
  5  6  1  0  0  0  0
  5  8  1  0  0  0  0
  6  7  2  0  0  0  0
  8  9  1  0  0  0  0
  9 10  2  0  0  0  0
M  END
>  <CHROM.1>
1.46018698,-11.54378821,12.17071479,-2.18508220,0.75239166,0.32177539

>  <Name>
ligand

>  <RI>
0

>  <Rbt.Current_Directory>
/home/itssahil/PROJECTS/Mol_Feturizer/Test_systems_manuscript/rnas/5c7w

>  <Rbt.Executable>
rbdock ($Id: //depot/dev/client3/rdock/2013.1/src/exe/rbdock.cxx#4 $)

>  <Rbt.Library>
libRbt.so (2013.1, Build901 2013/11/27)

>  <Rbt.Parameter_File>
/export/apps/rDock/src/rDock_2013.1_src/data/scripts/dock_solv.prm

>  <Rbt.Receptor>
prm/pocket_docking_3.prm

>  <SCORE>
-15.2694

>  <SCORE.INTER>
-15.2694

>  <SCORE.INTER.CONST>
1

>  <SCORE.INTER.POLAR>
0

>  <SCORE.INTER.ROT>
0

>  <SCORE.INTER.SOLV>
3.29741

>  <SCORE.INTER.VDW>
-14.8787

>  <SCORE.INTER.norm>
-1.52694

>  <SCORE.INTRA>
0

>  <SCORE.INTRA.DIHEDRAL>
0

>  <SCORE.INTRA.DIHEDRAL.0>
0

>  <SCORE.INTRA.POLAR>
0

>  <SCORE.INTRA.POLAR.0>
0

>  <SCORE.INTRA.REPUL>
0

>  <SCORE.INTRA.REPUL.0>
0

>  <SCORE.INTRA.SOLV>
0

>  <SCORE.INTRA.SOLV.lig_0>
-4.15853

>  <SCORE.INTRA.VDW>
0

>  <SCORE.INTRA.VDW.0>
0

>  <SCORE.INTRA.norm>
0

>  <SCORE.RESTR>
0

>  <SCORE.RESTR.CAVITY>
0

>  <SCORE.RESTR.norm>
0

>  <SCORE.SYSTEM>
0

>  <SCORE.SYSTEM.CONST>
0

>  <SCORE.SYSTEM.DIHEDRAL>
0

>  <SCORE.SYSTEM.SOLV>
0

>  <SCORE.SYSTEM.norm>
0

>  <SCORE.heavy>
10

>  <SCORE.norm>
-1.52694

>  <RMSD>
1.116

$$$$
ligand
 OpenBabel02271912153D
libRbt.so/2013.1/901 2013/11/27
 10 11  0  0  0  0  0  0  0  0999 V2000
    0.7823  -13.4483   12.2234 N   0  0  0  0  0  0  0  0  0  0  0  0
    1.6938  -13.5520   11.2805 C   0  0  0  0  0  0  0  0  0  0  0  0
    2.4290  -12.4198   10.9206 N   0  0  0  0  0  0  0  0  0  0  0  0
    2.2086  -11.2528   11.5213 C   0  0  0  0  0  0  0  0  0  0  0  0
    1.2917  -11.1515   12.4654 C   0  0  0  0  0  0  0  0  0  0  0  0
    0.5809  -12.2059   12.8198 C   0  0  0  0  0  0  0  0  0  0  0  0
   -0.2688  -12.0877   13.6915 O   0  0  0  0  0  0  0  0  0  0  0  0
    1.2677   -9.8960   12.9092 N   0  0  0  0  0  0  0  0  0  0  0  0
    2.1894   -9.2221   12.2304 C   0  0  0  0  0  0  0  0  0  0  0  0
    2.7688  -10.0633   11.3701 N   0  0  0  0  0  0  0  0  0  0  0  0
  1  2  1  0  0  0  0
  1  6  1  0  0  0  0
  2  3  2  0  0  0  0
  3  4  1  0  0  0  0
  4  5  2  0  0  0  0
  4 10  1  0  0  0  0
  5  6  1  0  0  0  0
  5  8  1  0  0  0  0
  6  7  2  0  0  0  0
  8  9  1  0  0  0  0
  9 10  2  0  0  0  0
M  END
>  <CHROM.1>
1.46027081,-11.54235272,12.17261301,-2.18304080,0.75276423,0.31943518

>  <Name>
ligand

>  <RI>
0

>  <Rbt.Current_Directory>
/home/itssahil/PROJECTS/Mol_Feturizer/Test_systems_manuscript/rnas/5c7w

>  <Rbt.Executable>
rbdock ($Id: //depot/dev/client3/rdock/2013.1/src/exe/rbdock.cxx#4 $)

>  <Rbt.Library>
libRbt.so (2013.1, Build901 2013/11/27)

>  <Rbt.Parameter_File>
/export/apps/rDock/src/rDock_2013.1_src/data/scripts/dock_solv.prm

>  <Rbt.Receptor>
prm/pocket_docking_4.prm

>  <SCORE>
-15.2682

>  <SCORE.INTER>
-15.2682

>  <SCORE.INTER.CONST>
1

>  <SCORE.INTER.POLAR>
0

>  <SCORE.INTER.ROT>
0

>  <SCORE.INTER.SOLV>
3.29962

>  <SCORE.INTER.VDW>
-14.8786

>  <SCORE.INTER.norm>
-1.52682

>  <SCORE.INTRA>
0

>  <SCORE.INTRA.DIHEDRAL>
0

>  <SCORE.INTRA.DIHEDRAL.0>
0

>  <SCORE.INTRA.POLAR>
0

>  <SCORE.INTRA.POLAR.0>
0

>  <SCORE.INTRA.REPUL>
0

>  <SCORE.INTRA.REPUL.0>
0

>  <SCORE.INTRA.SOLV>
0

>  <SCORE.INTRA.SOLV.lig_0>
-4.15853

>  <SCORE.INTRA.VDW>
0

>  <SCORE.INTRA.VDW.0>
0

>  <SCORE.INTRA.norm>
0

>  <SCORE.RESTR>
0

>  <SCORE.RESTR.CAVITY>
0

>  <SCORE.RESTR.norm>
0

>  <SCORE.SYSTEM>
0

>  <SCORE.SYSTEM.CONST>
0

>  <SCORE.SYSTEM.DIHEDRAL>
0

>  <SCORE.SYSTEM.SOLV>
0

>  <SCORE.SYSTEM.norm>
0

>  <SCORE.heavy>
10

>  <SCORE.norm>
-1.52682

>  <RMSD>
1.116

$$$$
ligand
 OpenBabel02271912153D
libRbt.so/2013.1/901 2013/11/27
 10 11  0  0  0  0  0  0  0  0999 V2000
    0.7831  -13.4502   12.2260 N   0  0  0  0  0  0  0  0  0  0  0  0
    1.6944  -13.5549   11.2830 C   0  0  0  0  0  0  0  0  0  0  0  0
    2.4297  -12.4231   10.9221 N   0  0  0  0  0  0  0  0  0  0  0  0
    2.2095  -11.2555   11.5218 C   0  0  0  0  0  0  0  0  0  0  0  0
    1.2927  -11.1532   12.4658 C   0  0  0  0  0  0  0  0  0  0  0  0
    0.5819  -12.2073   12.8213 C   0  0  0  0  0  0  0  0  0  0  0  0
   -0.2678  -12.0882   13.6930 O   0  0  0  0  0  0  0  0  0  0  0  0
    1.2688   -9.8973   12.9085 N   0  0  0  0  0  0  0  0  0  0  0  0
    2.1905   -9.2241   12.2290 C   0  0  0  0  0  0  0  0  0  0  0  0
    2.7698  -10.0662   11.3694 N   0  0  0  0  0  0  0  0  0  0  0  0
  1  2  1  0  0  0  0
  1  6  1  0  0  0  0
  2  3  2  0  0  0  0
  3  4  1  0  0  0  0
  4  5  2  0  0  0  0
  4 10  1  0  0  0  0
  5  6  1  0  0  0  0
  5  8  1  0  0  0  0
  6  7  2  0  0  0  0
  8  9  1  0  0  0  0
  9 10  2  0  0  0  0
M  END
>  <CHROM.1>
1.46122784,-11.54440147,12.17338871,-2.18320046,0.75283412,0.31863778

>  <Name>
ligand

>  <RI>
0

>  <Rbt.Current_Directory>
/home/itssahil/PROJECTS/Mol_Feturizer/Test_systems_manuscript/rnas/5c7w

>  <Rbt.Executable>
rbdock ($Id: //depot/dev/client3/rdock/2013.1/src/exe/rbdock.cxx#4 $)

>  <Rbt.Library>
libRbt.so (2013.1, Build901 2013/11/27)

>  <Rbt.Parameter_File>
/export/apps/rDock/src/rDock_2013.1_src/data/scripts/dock_solv.prm

>  <Rbt.Receptor>
prm/pocket_docking_6.prm

>  <SCORE>
-15.2681

>  <SCORE.INTER>
-15.2681

>  <SCORE.INTER.CONST>
1

>  <SCORE.INTER.POLAR>
0

>  <SCORE.INTER.ROT>
0

>  <SCORE.INTER.SOLV>
3.3009

>  <SCORE.INTER.VDW>
-14.879

>  <SCORE.INTER.norm>
-1.52681

>  <SCORE.INTRA>
0

>  <SCORE.INTRA.DIHEDRAL>
0

>  <SCORE.INTRA.DIHEDRAL.0>
0

>  <SCORE.INTRA.POLAR>
0

>  <SCORE.INTRA.POLAR.0>
0

>  <SCORE.INTRA.REPUL>
0

>  <SCORE.INTRA.REPUL.0>
0

>  <SCORE.INTRA.SOLV>
0

>  <SCORE.INTRA.SOLV.lig_0>
-4.15853

>  <SCORE.INTRA.VDW>
0

>  <SCORE.INTRA.VDW.0>
0

>  <SCORE.INTRA.norm>
0

>  <SCORE.RESTR>
0

>  <SCORE.RESTR.CAVITY>
0

>  <SCORE.RESTR.norm>
0

>  <SCORE.SYSTEM>
0

>  <SCORE.SYSTEM.CONST>
0

>  <SCORE.SYSTEM.DIHEDRAL>
0

>  <SCORE.SYSTEM.SOLV>
0

>  <SCORE.SYSTEM.norm>
0

>  <SCORE.heavy>
10

>  <SCORE.norm>
-1.52681

>  <RMSD>
1.116

$$$$
ligand
 OpenBabel02271912153D
libRbt.so/2013.1/901 2013/11/27
 10 11  0  0  0  0  0  0  0  0999 V2000
    0.7752  -13.4525   12.2121 N   0  0  0  0  0  0  0  0  0  0  0  0
    1.6903  -13.5561   11.2727 C   0  0  0  0  0  0  0  0  0  0  0  0
    2.4310  -12.4252   10.9199 N   0  0  0  0  0  0  0  0  0  0  0  0
    2.2120  -11.2595   11.5237 C   0  0  0  0  0  0  0  0  0  0  0  0
    1.2913  -11.1582   12.4641 C   0  0  0  0  0  0  0  0  0  0  0  0
    0.5754  -12.2114   12.8119 C   0  0  0  0  0  0  0  0  0  0  0  0
   -0.2778  -12.0933   13.6802 O   0  0  0  0  0  0  0  0  0  0  0  0
    1.2696   -9.9042   12.9122 N   0  0  0  0  0  0  0  0  0  0  0  0
    2.1966   -9.2311   12.2397 C   0  0  0  0  0  0  0  0  0  0  0  0
    2.7769  -10.0714   11.3790 N   0  0  0  0  0  0  0  0  0  0  0  0
  1  2  1  0  0  0  0
  1  6  1  0  0  0  0
  2  3  2  0  0  0  0
  3  4  1  0  0  0  0
  4  5  2  0  0  0  0
  4 10  1  0  0  0  0
  5  6  1  0  0  0  0
  5  8  1  0  0  0  0
  6  7  2  0  0  0  0
  8  9  1  0  0  0  0
  9 10  2  0  0  0  0
M  END
>  <CHROM.1>
1.45981855,-11.54868359,12.17074914,-2.18559281,0.74753998,0.32460616

>  <Name>
ligand

>  <RI>
0

>  <Rbt.Current_Directory>
/home/itssahil/PROJECTS/Mol_Feturizer/Test_systems_manuscript/rnas/5c7w

>  <Rbt.Executable>
rbdock ($Id: //depot/dev/client3/rdock/2013.1/src/exe/rbdock.cxx#4 $)

>  <Rbt.Library>
libRbt.so (2013.1, Build901 2013/11/27)

>  <Rbt.Parameter_File>
/export/apps/rDock/src/rDock_2013.1_src/data/scripts/dock_solv.prm

>  <Rbt.Receptor>
prm/pocket_docking_6.prm

>  <SCORE>
-15.268

>  <SCORE.INTER>
-15.268

>  <SCORE.INTER.CONST>
1

>  <SCORE.INTER.POLAR>
0

>  <SCORE.INTER.ROT>
0

>  <SCORE.INTER.SOLV>
3.28652

>  <SCORE.INTER.VDW>
-14.8742

>  <SCORE.INTER.norm>
-1.5268

>  <SCORE.INTRA>
0

>  <SCORE.INTRA.DIHEDRAL>
0

>  <SCORE.INTRA.DIHEDRAL.0>
0

>  <SCORE.INTRA.POLAR>
0

>  <SCORE.INTRA.POLAR.0>
0

>  <SCORE.INTRA.REPUL>
0

>  <SCORE.INTRA.REPUL.0>
0

>  <SCORE.INTRA.SOLV>
0

>  <SCORE.INTRA.SOLV.lig_0>
-4.15853

>  <SCORE.INTRA.VDW>
0

>  <SCORE.INTRA.VDW.0>
0

>  <SCORE.INTRA.norm>
0

>  <SCORE.RESTR>
0

>  <SCORE.RESTR.CAVITY>
0

>  <SCORE.RESTR.norm>
0

>  <SCORE.SYSTEM>
0

>  <SCORE.SYSTEM.CONST>
0

>  <SCORE.SYSTEM.DIHEDRAL>
0

>  <SCORE.SYSTEM.SOLV>
0

>  <SCORE.SYSTEM.norm>
0

>  <SCORE.heavy>
10

>  <SCORE.norm>
-1.5268

>  <RMSD>
1.116

$$$$
ligand
 OpenBabel02271912153D
libRbt.so/2013.1/901 2013/11/27
 10 11  0  0  0  0  0  0  0  0999 V2000
    0.7838  -13.4488   12.2260 N   0  0  0  0  0  0  0  0  0  0  0  0
    1.6970  -13.5540   11.2848 C   0  0  0  0  0  0  0  0  0  0  0  0
    2.4339  -12.4227   10.9256 N   0  0  0  0  0  0  0  0  0  0  0  0
    2.2134  -11.2552   11.5252 C   0  0  0  0  0  0  0  0  0  0  0  0
    1.2948  -11.1523   12.4674 C   0  0  0  0  0  0  0  0  0  0  0  0
    0.5824  -12.2058   12.8212 C   0  0  0  0  0  0  0  0  0  0  0  0
   -0.2689  -12.0863   13.6912 O   0  0  0  0  0  0  0  0  0  0  0  0
    1.2711   -9.8965   12.9103 N   0  0  0  0  0  0  0  0  0  0  0  0
    2.1947   -9.2239   12.2328 C   0  0  0  0  0  0  0  0  0  0  0  0
    2.7750  -10.0662   11.3742 N   0  0  0  0  0  0  0  0  0  0  0  0
  1  2  1  0  0  0  0
  1  6  1  0  0  0  0
  2  3  2  0  0  0  0
  3  4  1  0  0  0  0
  4  5  2  0  0  0  0
  4 10  1  0  0  0  0
  5  6  1  0  0  0  0
  5  8  1  0  0  0  0
  6  7  2  0  0  0  0
  8  9  1  0  0  0  0
  9 10  2  0  0  0  0
M  END
>  <CHROM.1>
1.46360343,-11.54354833,12.17521232,-2.18340510,0.75065573,0.31901644

>  <Name>
ligand

>  <RI>
0

>  <Rbt.Current_Directory>
/home/itssahil/PROJECTS/Mol_Feturizer/Test_systems_manuscript/rnas/5c7w

>  <Rbt.Executable>
rbdock ($Id: //depot/dev/client3/rdock/2013.1/src/exe/rbdock.cxx#4 $)

>  <Rbt.Library>
libRbt.so (2013.1, Build901 2013/11/27)

>  <Rbt.Parameter_File>
/export/apps/rDock/src/rDock_2013.1_src/data/scripts/dock_solv.prm

>  <Rbt.Receptor>
prm/pocket_docking_7.prm

>  <SCORE>
-15.2672

>  <SCORE.INTER>
-15.2672

>  <SCORE.INTER.CONST>
1

>  <SCORE.INTER.POLAR>
0

>  <SCORE.INTER.ROT>
0

>  <SCORE.INTER.SOLV>
3.29541

>  <SCORE.INTER.VDW>
-14.8766

>  <SCORE.INTER.norm>
-1.52672

>  <SCORE.INTRA>
0

>  <SCORE.INTRA.DIHEDRAL>
0

>  <SCORE.INTRA.DIHEDRAL.0>
0

>  <SCORE.INTRA.POLAR>
0

>  <SCORE.INTRA.POLAR.0>
0

>  <SCORE.INTRA.REPUL>
0

>  <SCORE.INTRA.REPUL.0>
0

>  <SCORE.INTRA.SOLV>
0

>  <SCORE.INTRA.SOLV.lig_0>
-4.15853

>  <SCORE.INTRA.VDW>
0

>  <SCORE.INTRA.VDW.0>
0

>  <SCORE.INTRA.norm>
0

>  <SCORE.RESTR>
0

>  <SCORE.RESTR.CAVITY>
0

>  <SCORE.RESTR.norm>
0

>  <SCORE.SYSTEM>
0

>  <SCORE.SYSTEM.CONST>
0

>  <SCORE.SYSTEM.DIHEDRAL>
0

>  <SCORE.SYSTEM.SOLV>
0

>  <SCORE.SYSTEM.norm>
0

>  <SCORE.heavy>
10

>  <SCORE.norm>
-1.52672

>  <RMSD>
1.116

$$$$
ligand
 OpenBabel02271912153D
libRbt.so/2013.1/901 2013/11/27
 10 11  0  0  0  0  0  0  0  0999 V2000
    0.7769  -13.4391   12.2112 N   0  0  0  0  0  0  0  0  0  0  0  0
    1.7225  -13.5420   11.3024 C   0  0  0  0  0  0  0  0  0  0  0  0
    2.4707  -12.4096   10.9711 N   0  0  0  0  0  0  0  0  0  0  0  0
    2.2285  -11.2432   11.5645 C   0  0  0  0  0  0  0  0  0  0  0  0
    1.2773  -11.1426   12.4741 C   0  0  0  0  0  0  0  0  0  0  0  0
    0.5538  -12.1972   12.8010 C   0  0  0  0  0  0  0  0  0  0  0  0
   -0.3276  -12.0797   13.6408 O   0  0  0  0  0  0  0  0  0  0  0  0
    1.2372   -9.8875   12.9180 N   0  0  0  0  0  0  0  0  0  0  0  0
    2.1835   -9.2132   12.2744 C   0  0  0  0  0  0  0  0  0  0  0  0
    2.7941  -10.0537   11.4352 N   0  0  0  0  0  0  0  0  0  0  0  0
  1  2  1  0  0  0  0
  1  6  1  0  0  0  0
  2  3  2  0  0  0  0
  3  4  1  0  0  0  0
  4  5  2  0  0  0  0
  4 10  1  0  0  0  0
  5  6  1  0  0  0  0
  5  8  1  0  0  0  0
  6  7  2  0  0  0  0
  8  9  1  0  0  0  0
  9 10  2  0  0  0  0
M  END
>  <CHROM.1>
1.45656071,-11.53321444,12.18736607,-2.16788462,0.71757365,0.31027554

>  <Name>
ligand

>  <RI>
0

>  <Rbt.Current_Directory>
/home/itssahil/PROJECTS/Mol_Feturizer/Test_systems_manuscript/rnas/5c7w

>  <Rbt.Executable>
rbdock ($Id: //depot/dev/client3/rdock/2013.1/src/exe/rbdock.cxx#4 $)

>  <Rbt.Library>
libRbt.so (2013.1, Build901 2013/11/27)

>  <Rbt.Parameter_File>
/export/apps/rDock/src/rDock_2013.1_src/data/scripts/dock_solv.prm

>  <Rbt.Receptor>
prm/pocket_docking_8.prm

>  <SCORE>
-15.2533

>  <SCORE.INTER>
-15.2533

>  <SCORE.INTER.CONST>
1

>  <SCORE.INTER.POLAR>
0

>  <SCORE.INTER.ROT>
0

>  <SCORE.INTER.SOLV>
3.21909

>  <SCORE.INTER.VDW>
-14.8419

>  <SCORE.INTER.norm>
-1.52533

>  <SCORE.INTRA>
0

>  <SCORE.INTRA.DIHEDRAL>
0

>  <SCORE.INTRA.DIHEDRAL.0>
0

>  <SCORE.INTRA.POLAR>
0

>  <SCORE.INTRA.POLAR.0>
0

>  <SCORE.INTRA.REPUL>
0

>  <SCORE.INTRA.REPUL.0>
0

>  <SCORE.INTRA.SOLV>
0

>  <SCORE.INTRA.SOLV.lig_0>
-4.15853

>  <SCORE.INTRA.VDW>
0

>  <SCORE.INTRA.VDW.0>
0

>  <SCORE.INTRA.norm>
0

>  <SCORE.RESTR>
0

>  <SCORE.RESTR.CAVITY>
0

>  <SCORE.RESTR.norm>
0

>  <SCORE.SYSTEM>
0

>  <SCORE.SYSTEM.CONST>
0

>  <SCORE.SYSTEM.DIHEDRAL>
0

>  <SCORE.SYSTEM.SOLV>
0

>  <SCORE.SYSTEM.norm>
0

>  <SCORE.heavy>
10

>  <SCORE.norm>
-1.52533

>  <RMSD>
1.116

$$$$
ligand
 OpenBabel02271912153D
libRbt.so/2013.1/901 2013/11/27
 10 11  0  0  0  0  0  0  0  0999 V2000
    0.7808  -13.4526   12.2181 N   0  0  0  0  0  0  0  0  0  0  0  0
    1.6895  -13.5612   11.2731 C   0  0  0  0  0  0  0  0  0  0  0  0
    2.4283  -12.4324   10.9100 N   0  0  0  0  0  0  0  0  0  0  0  0
    2.2141  -11.2638   11.5097 C   0  0  0  0  0  0  0  0  0  0  0  0
    1.2998  -11.1575   12.4558 C   0  0  0  0  0  0  0  0  0  0  0  0
    0.5858  -12.2086   12.8134 C   0  0  0  0  0  0  0  0  0  0  0  0
   -0.2614  -12.0859   13.6870 O   0  0  0  0  0  0  0  0  0  0  0  0
    1.2819   -9.9013   12.8981 N   0  0  0  0  0  0  0  0  0  0  0  0
    2.2046   -9.2320   12.2161 C   0  0  0  0  0  0  0  0  0  0  0  0
    2.7786  -10.0767   11.3555 N   0  0  0  0  0  0  0  0  0  0  0  0
  1  2  1  0  0  0  0
  1  6  1  0  0  0  0
  2  3  2  0  0  0  0
  3  4  1  0  0  0  0
  4  5  2  0  0  0  0
  4 10  1  0  0  0  0
  5  6  1  0  0  0  0
  5  8  1  0  0  0  0
  6  7  2  0  0  0  0
  8  9  1  0  0  0  0
  9 10  2  0  0  0  0
M  END
>  <CHROM.1>
1.46618272,-11.54943678,12.16316379,-2.18926812,0.75380136,0.32237743

>  <Name>
ligand

>  <RI>
0

>  <Rbt.Current_Directory>
/home/itssahil/PROJECTS/Mol_Feturizer/Test_systems_manuscript/rnas/5c7w

>  <Rbt.Executable>
rbdock ($Id: //depot/dev/client3/rdock/2013.1/src/exe/rbdock.cxx#4 $)

>  <Rbt.Library>
libRbt.so (2013.1, Build901 2013/11/27)

>  <Rbt.Parameter_File>
/export/apps/rDock/src/rDock_2013.1_src/data/scripts/dock_solv.prm

>  <Rbt.Receptor>
prm/pocket_docking_8.prm

>  <SCORE>
-15.2369

>  <SCORE.INTER>
-15.2369

>  <SCORE.INTER.CONST>
1

>  <SCORE.INTER.POLAR>
0

>  <SCORE.INTER.ROT>
0

>  <SCORE.INTER.SOLV>
3.2962

>  <SCORE.INTER.VDW>
-14.8567

>  <SCORE.INTER.norm>
-1.52369

>  <SCORE.INTRA>
0

>  <SCORE.INTRA.DIHEDRAL>
0

>  <SCORE.INTRA.DIHEDRAL.0>
0

>  <SCORE.INTRA.POLAR>
0

>  <SCORE.INTRA.POLAR.0>
0

>  <SCORE.INTRA.REPUL>
0

>  <SCORE.INTRA.REPUL.0>
0

>  <SCORE.INTRA.SOLV>
0

>  <SCORE.INTRA.SOLV.lig_0>
-4.15853

>  <SCORE.INTRA.VDW>
0

>  <SCORE.INTRA.VDW.0>
0

>  <SCORE.INTRA.norm>
0

>  <SCORE.RESTR>
0

>  <SCORE.RESTR.CAVITY>
0

>  <SCORE.RESTR.norm>
0

>  <SCORE.SYSTEM>
0

>  <SCORE.SYSTEM.CONST>
0

>  <SCORE.SYSTEM.DIHEDRAL>
0

>  <SCORE.SYSTEM.SOLV>
0

>  <SCORE.SYSTEM.norm>
0

>  <SCORE.heavy>
10

>  <SCORE.norm>
-1.52369

>  <RMSD>
1.116

$$$$
ligand
 OpenBabel02271912153D
libRbt.so/2013.1/901 2013/11/27
 10 11  0  0  0  0  0  0  0  0999 V2000
    0.7816  -13.4418   12.2248 N   0  0  0  0  0  0  0  0  0  0  0  0
    1.6955  -13.5469   11.2843 C   0  0  0  0  0  0  0  0  0  0  0  0
    2.4328  -12.4156   10.9259 N   0  0  0  0  0  0  0  0  0  0  0  0
    2.2120  -11.2482   11.5254 C   0  0  0  0  0  0  0  0  0  0  0  0
    1.2926  -11.1454   12.4670 C   0  0  0  0  0  0  0  0  0  0  0  0
    0.5799  -12.1989   12.8200 C   0  0  0  0  0  0  0  0  0  0  0  0
   -0.2721  -12.0794   13.6894 O   0  0  0  0  0  0  0  0  0  0  0  0
    1.2687   -9.8896   12.9101 N   0  0  0  0  0  0  0  0  0  0  0  0
    2.1929   -9.2170   12.2334 C   0  0  0  0  0  0  0  0  0  0  0  0
    2.7738  -10.0593   11.3751 N   0  0  0  0  0  0  0  0  0  0  0  0
  1  2  1  0  0  0  0
  1  6  1  0  0  0  0
  2  3  2  0  0  0  0
  3  4  1  0  0  0  0
  4  5  2  0  0  0  0
  4 10  1  0  0  0  0
  5  6  1  0  0  0  0
  5  8  1  0  0  0  0
  6  7  2  0  0  0  0
  8  9  1  0  0  0  0
  9 10  2  0  0  0  0
M  END
>  <CHROM.1>
1.46163550,-11.53659515,12.17483834,-2.18319490,0.74988772,0.31904189

>  <Name>
ligand

>  <RI>
0

>  <Rbt.Current_Directory>
/home/itssahil/PROJECTS/Mol_Feturizer/Test_systems_manuscript/rnas/5c7w

>  <Rbt.Executable>
rbdock ($Id: //depot/dev/client3/rdock/2013.1/src/exe/rbdock.cxx#4 $)

>  <Rbt.Library>
libRbt.so (2013.1, Build901 2013/11/27)

>  <Rbt.Parameter_File>
/export/apps/rDock/src/rDock_2013.1_src/data/scripts/dock_solv.prm

>  <Rbt.Receptor>
prm/pocket_docking_8.prm

>  <SCORE>
-15.2661

>  <SCORE.INTER>
-15.2661

>  <SCORE.INTER.CONST>
1

>  <SCORE.INTER.POLAR>
0

>  <SCORE.INTER.ROT>
0

>  <SCORE.INTER.SOLV>
3.29109

>  <SCORE.INTER.VDW>
-14.8744

>  <SCORE.INTER.norm>
-1.52661

>  <SCORE.INTRA>
0

>  <SCORE.INTRA.DIHEDRAL>
0

>  <SCORE.INTRA.DIHEDRAL.0>
0

>  <SCORE.INTRA.POLAR>
0

>  <SCORE.INTRA.POLAR.0>
0

>  <SCORE.INTRA.REPUL>
0

>  <SCORE.INTRA.REPUL.0>
0

>  <SCORE.INTRA.SOLV>
0

>  <SCORE.INTRA.SOLV.lig_0>
-4.15853

>  <SCORE.INTRA.VDW>
0

>  <SCORE.INTRA.VDW.0>
0

>  <SCORE.INTRA.norm>
0

>  <SCORE.RESTR>
0

>  <SCORE.RESTR.CAVITY>
0

>  <SCORE.RESTR.norm>
0

>  <SCORE.SYSTEM>
0

>  <SCORE.SYSTEM.CONST>
0

>  <SCORE.SYSTEM.DIHEDRAL>
0

>  <SCORE.SYSTEM.SOLV>
0

>  <SCORE.SYSTEM.norm>
0

>  <SCORE.heavy>
10

>  <SCORE.norm>
-1.52661

>  <RMSD>
1.116

$$$$
ligand
 OpenBabel02271912153D
libRbt.so/2013.1/901 2013/11/27
 10 11  0  0  0  0  0  0  0  0999 V2000
    0.7804  -13.4491   12.2185 N   0  0  0  0  0  0  0  0  0  0  0  0
    1.6938  -13.5540   11.2777 C   0  0  0  0  0  0  0  0  0  0  0  0
    2.4332  -12.4234   10.9213 N   0  0  0  0  0  0  0  0  0  0  0  0
    2.2147  -11.2567   11.5233 C   0  0  0  0  0  0  0  0  0  0  0  0
    1.2957  -11.1541   12.4652 C   0  0  0  0  0  0  0  0  0  0  0  0
    0.5810  -12.2070   12.8163 C   0  0  0  0  0  0  0  0  0  0  0  0
   -0.2706  -12.0877   13.6861 O   0  0  0  0  0  0  0  0  0  0  0  0
    1.2742   -9.8992   12.9109 N   0  0  0  0  0  0  0  0  0  0  0  0
    2.1995   -9.2269   12.2353 C   0  0  0  0  0  0  0  0  0  0  0  0
    2.7786  -10.0686   11.3752 N   0  0  0  0  0  0  0  0  0  0  0  0
  1  2  1  0  0  0  0
  1  6  1  0  0  0  0
  2  3  2  0  0  0  0
  3  4  1  0  0  0  0
  4  5  2  0  0  0  0
  4 10  1  0  0  0  0
  5  6  1  0  0  0  0
  5  8  1  0  0  0  0
  6  7  2  0  0  0  0
  8  9  1  0  0  0  0
  9 10  2  0  0  0  0
M  END
>  <CHROM.1>
1.46387735,-11.54503993,12.17226880,-2.18569010,0.74949838,0.32274043

>  <Name>
ligand

>  <RI>
0

>  <Rbt.Current_Directory>
/home/itssahil/PROJECTS/Mol_Feturizer/Test_systems_manuscript/rnas/5c7w

>  <Rbt.Executable>
rbdock ($Id: //depot/dev/client3/rdock/2013.1/src/exe/rbdock.cxx#4 $)

>  <Rbt.Library>
libRbt.so (2013.1, Build901 2013/11/27)

>  <Rbt.Parameter_File>
/export/apps/rDock/src/rDock_2013.1_src/data/scripts/dock_solv.prm

>  <Rbt.Receptor>
prm/blind_docking_60.prm

>  <SCORE>
-15.2685

>  <SCORE.INTER>
-15.2685

>  <SCORE.INTER.CONST>
1

>  <SCORE.INTER.POLAR>
0

>  <SCORE.INTER.ROT>
0

>  <SCORE.INTER.SOLV>
3.29026

>  <SCORE.INTER.VDW>
-14.8758

>  <SCORE.INTER.norm>
-1.52685

>  <SCORE.INTRA>
0

>  <SCORE.INTRA.DIHEDRAL>
0

>  <SCORE.INTRA.DIHEDRAL.0>
0

>  <SCORE.INTRA.POLAR>
0

>  <SCORE.INTRA.POLAR.0>
0

>  <SCORE.INTRA.REPUL>
0

>  <SCORE.INTRA.REPUL.0>
0

>  <SCORE.INTRA.SOLV>
0

>  <SCORE.INTRA.SOLV.lig_0>
-4.15853

>  <SCORE.INTRA.VDW>
0

>  <SCORE.INTRA.VDW.0>
0

>  <SCORE.INTRA.norm>
0

>  <SCORE.RESTR>
0

>  <SCORE.RESTR.CAVITY>
0

>  <SCORE.RESTR.norm>
0

>  <SCORE.SYSTEM>
0

>  <SCORE.SYSTEM.CONST>
0

>  <SCORE.SYSTEM.DIHEDRAL>
0

>  <SCORE.SYSTEM.SOLV>
0

>  <SCORE.SYSTEM.norm>
0

>  <SCORE.heavy>
10

>  <SCORE.norm>
-1.52685

>  <RMSD>
1.117

$$$$
ligand
 OpenBabel02271912153D
libRbt.so/2013.1/901 2013/11/27
 10 11  0  0  0  0  0  0  0  0999 V2000
    0.7706  -13.4460   12.2087 N   0  0  0  0  0  0  0  0  0  0  0  0
    1.7026  -13.5444   11.2855 C   0  0  0  0  0  0  0  0  0  0  0  0
    2.4510  -12.4122   10.9542 N   0  0  0  0  0  0  0  0  0  0  0  0
    2.2227  -11.2504   11.5620 C   0  0  0  0  0  0  0  0  0  0  0  0
    1.2851  -11.1543   12.4862 C   0  0  0  0  0  0  0  0  0  0  0  0
    0.5616  -12.2089   12.8134 C   0  0  0  0  0  0  0  0  0  0  0  0
   -0.3071  -12.0955   13.6669 O   0  0  0  0  0  0  0  0  0  0  0  0
    1.2570   -9.9034   12.9426 N   0  0  0  0  0  0  0  0  0  0  0  0
    2.1970   -9.2271   12.2918 C   0  0  0  0  0  0  0  0  0  0  0  0
    2.7917  -10.0622   11.4360 N   0  0  0  0  0  0  0  0  0  0  0  0
  1  2  1  0  0  0  0
  1  6  1  0  0  0  0
  2  3  2  0  0  0  0
  3  4  1  0  0  0  0
  4  5  2  0  0  0  0
  4 10  1  0  0  0  0
  5  6  1  0  0  0  0
  5  8  1  0  0  0  0
  6  7  2  0  0  0  0
  8  9  1  0  0  0  0
  9 10  2  0  0  0  0
M  END
>  <CHROM.1>
1.45844044,-11.54300402,12.19320753,-2.17951716,0.72981808,0.32752375

>  <Name>
ligand

>  <RI>
0

>  <Rbt.Current_Directory>
/home/itssahil/PROJECTS/Mol_Feturizer/Test_systems_manuscript/rnas/5c7w

>  <Rbt.Executable>
rbdock ($Id: //depot/dev/client3/rdock/2013.1/src/exe/rbdock.cxx#4 $)

>  <Rbt.Library>
libRbt.so (2013.1, Build901 2013/11/27)

>  <Rbt.Parameter_File>
/export/apps/rDock/src/rDock_2013.1_src/data/scripts/dock_solv.prm

>  <Rbt.Receptor>
prm/blind_docking_80.prm

>  <SCORE>
-15.2399

>  <SCORE.INTER>
-15.2399

>  <SCORE.INTER.CONST>
1

>  <SCORE.INTER.POLAR>
0

>  <SCORE.INTER.ROT>
0

>  <SCORE.INTER.SOLV>
3.25515

>  <SCORE.INTER.VDW>
-14.845

>  <SCORE.INTER.norm>
-1.52399

>  <SCORE.INTRA>
0

>  <SCORE.INTRA.DIHEDRAL>
0

>  <SCORE.INTRA.DIHEDRAL.0>
0

>  <SCORE.INTRA.POLAR>
0

>  <SCORE.INTRA.POLAR.0>
0

>  <SCORE.INTRA.REPUL>
0

>  <SCORE.INTRA.REPUL.0>
0

>  <SCORE.INTRA.SOLV>
0

>  <SCORE.INTRA.SOLV.lig_0>
-4.15853

>  <SCORE.INTRA.VDW>
0

>  <SCORE.INTRA.VDW.0>
0

>  <SCORE.INTRA.norm>
0

>  <SCORE.RESTR>
0

>  <SCORE.RESTR.CAVITY>
0

>  <SCORE.RESTR.norm>
0

>  <SCORE.SYSTEM>
0

>  <SCORE.SYSTEM.CONST>
0

>  <SCORE.SYSTEM.DIHEDRAL>
0

>  <SCORE.SYSTEM.SOLV>
0

>  <SCORE.SYSTEM.norm>
0

>  <SCORE.heavy>
10

>  <SCORE.norm>
-1.52399

>  <RMSD>
1.117

$$$$
ligand
 OpenBabel02271912153D
libRbt.so/2013.1/901 2013/11/27
 10 11  0  0  0  0  0  0  0  0999 V2000
    0.7821  -13.4518   12.2218 N   0  0  0  0  0  0  0  0  0  0  0  0
    1.6914  -13.5556   11.2769 C   0  0  0  0  0  0  0  0  0  0  0  0
    2.4278  -12.4241   10.9172 N   0  0  0  0  0  0  0  0  0  0  0  0
    2.2106  -11.2577   11.5202 C   0  0  0  0  0  0  0  0  0  0  0  0
    1.2958  -11.1562   12.4663 C   0  0  0  0  0  0  0  0  0  0  0  0
    0.5840  -12.2100   12.8206 C   0  0  0  0  0  0  0  0  0  0  0  0
   -0.2638  -12.0917   13.6942 O   0  0  0  0  0  0  0  0  0  0  0  0
    1.2748   -9.9014   12.9121 N   0  0  0  0  0  0  0  0  0  0  0  0
    2.1963   -9.2280   12.2324 C   0  0  0  0  0  0  0  0  0  0  0  0
    2.7725  -10.0689   11.3696 N   0  0  0  0  0  0  0  0  0  0  0  0
  1  2  1  0  0  0  0
  1  6  1  0  0  0  0
  2  3  2  0  0  0  0
  3  4  1  0  0  0  0
  4  5  2  0  0  0  0
  4 10  1  0  0  0  0
  5  6  1  0  0  0  0
  5  8  1  0  0  0  0
  6  7  2  0  0  0  0
  8  9  1  0  0  0  0
  9 10  2  0  0  0  0
M  END
>  <CHROM.1>
1.46312940,-11.54695272,12.17255721,-2.18612486,0.75416439,0.32307225

>  <Name>
ligand

>  <RI>
0

>  <Rbt.Current_Directory>
/home/itssahil/PROJECTS/Mol_Feturizer/Test_systems_manuscript/rnas/5c7w

>  <Rbt.Executable>
rbdock ($Id: //depot/dev/client3/rdock/2013.1/src/exe/rbdock.cxx#4 $)

>  <Rbt.Library>
libRbt.so (2013.1, Build901 2013/11/27)

>  <Rbt.Parameter_File>
/export/apps/rDock/src/rDock_2013.1_src/data/scripts/dock_solv.prm

>  <Rbt.Receptor>
prm/blind_docking_80.prm

>  <SCORE>
-15.2693

>  <SCORE.INTER>
-15.2693

>  <SCORE.INTER.CONST>
1

>  <SCORE.INTER.POLAR>
0

>  <SCORE.INTER.ROT>
0

>  <SCORE.INTER.SOLV>
3.30365

>  <SCORE.INTER.VDW>
-14.8807

>  <SCORE.INTER.norm>
-1.52693

>  <SCORE.INTRA>
0

>  <SCORE.INTRA.DIHEDRAL>
0

>  <SCORE.INTRA.DIHEDRAL.0>
0

>  <SCORE.INTRA.POLAR>
0

>  <SCORE.INTRA.POLAR.0>
0

>  <SCORE.INTRA.REPUL>
0

>  <SCORE.INTRA.REPUL.0>
0

>  <SCORE.INTRA.SOLV>
0

>  <SCORE.INTRA.SOLV.lig_0>
-4.15853

>  <SCORE.INTRA.VDW>
0

>  <SCORE.INTRA.VDW.0>
0

>  <SCORE.INTRA.norm>
0

>  <SCORE.RESTR>
0

>  <SCORE.RESTR.CAVITY>
0

>  <SCORE.RESTR.norm>
0

>  <SCORE.SYSTEM>
0

>  <SCORE.SYSTEM.CONST>
0

>  <SCORE.SYSTEM.DIHEDRAL>
0

>  <SCORE.SYSTEM.SOLV>
0

>  <SCORE.SYSTEM.norm>
0

>  <SCORE.heavy>
10

>  <SCORE.norm>
-1.52693

>  <RMSD>
1.117

$$$$
ligand
 OpenBabel02271912153D
libRbt.so/2013.1/901 2013/11/27
 10 11  0  0  0  0  0  0  0  0999 V2000
    0.7846  -13.4533   12.2173 N   0  0  0  0  0  0  0  0  0  0  0  0
    1.6938  -13.5614   11.2728 C   0  0  0  0  0  0  0  0  0  0  0  0
    2.4292  -12.4312   10.9069 N   0  0  0  0  0  0  0  0  0  0  0  0
    2.2111  -11.2618   11.5036 C   0  0  0  0  0  0  0  0  0  0  0  0
    1.2964  -11.1560   12.4493 C   0  0  0  0  0  0  0  0  0  0  0  0
    0.5855  -12.2084   12.8094 C   0  0  0  0  0  0  0  0  0  0  0  0
   -0.2622  -12.0861   13.6825 O   0  0  0  0  0  0  0  0  0  0  0  0
    1.2744   -9.8987   12.8883 N   0  0  0  0  0  0  0  0  0  0  0  0
    2.1952   -9.2283   12.2049 C   0  0  0  0  0  0  0  0  0  0  0  0
    2.7720  -10.0733   11.3466 N   0  0  0  0  0  0  0  0  0  0  0  0
  1  2  1  0  0  0  0
  1  6  1  0  0  0  0
  2  3  2  0  0  0  0
  3  4  1  0  0  0  0
  4  5  2  0  0  0  0
  4 10  1  0  0  0  0
  5  6  1  0  0  0  0
  5  8  1  0  0  0  0
  6  7  2  0  0  0  0
  8  9  1  0  0  0  0
  9 10  2  0  0  0  0
M  END
>  <CHROM.1>
1.46399300,-11.54812792,12.15767613,-2.18509506,0.75458830,0.31698360

>  <Name>
ligand

>  <RI>
0

>  <Rbt.Current_Directory>
/home/itssahil/PROJECTS/Mol_Feturizer/Test_systems_manuscript/rnas/5c7w

>  <Rbt.Executable>
rbdock ($Id: //depot/dev/client3/rdock/2013.1/src/exe/rbdock.cxx#4 $)

>  <Rbt.Library>
libRbt.so (2013.1, Build901 2013/11/27)

>  <Rbt.Parameter_File>
/export/apps/rDock/src/rDock_2013.1_src/data/scripts/dock_solv.prm

>  <Rbt.Receptor>
prm/pocket_docking_3.prm

>  <SCORE>
-15.237

>  <SCORE.INTER>
-15.237

>  <SCORE.INTER.CONST>
1

>  <SCORE.INTER.POLAR>
0

>  <SCORE.INTER.ROT>
0

>  <SCORE.INTER.SOLV>
3.29575

>  <SCORE.INTER.VDW>
-14.8566

>  <SCORE.INTER.norm>
-1.5237

>  <SCORE.INTRA>
0

>  <SCORE.INTRA.DIHEDRAL>
0

>  <SCORE.INTRA.DIHEDRAL.0>
0

>  <SCORE.INTRA.POLAR>
0

>  <SCORE.INTRA.POLAR.0>
0

>  <SCORE.INTRA.REPUL>
0

>  <SCORE.INTRA.REPUL.0>
0

>  <SCORE.INTRA.SOLV>
0

>  <SCORE.INTRA.SOLV.lig_0>
-4.15853

>  <SCORE.INTRA.VDW>
0

>  <SCORE.INTRA.VDW.0>
0

>  <SCORE.INTRA.norm>
0

>  <SCORE.RESTR>
0

>  <SCORE.RESTR.CAVITY>
0

>  <SCORE.RESTR.norm>
0

>  <SCORE.SYSTEM>
0

>  <SCORE.SYSTEM.CONST>
0

>  <SCORE.SYSTEM.DIHEDRAL>
0

>  <SCORE.SYSTEM.SOLV>
0

>  <SCORE.SYSTEM.norm>
0

>  <SCORE.heavy>
10

>  <SCORE.norm>
-1.5237

>  <RMSD>
1.117

$$$$
ligand
 OpenBabel02271912153D
libRbt.so/2013.1/901 2013/11/27
 10 11  0  0  0  0  0  0  0  0999 V2000
    0.7841  -13.4461   12.2198 N   0  0  0  0  0  0  0  0  0  0  0  0
    1.7030  -13.5502   11.2843 C   0  0  0  0  0  0  0  0  0  0  0  0
    2.4401  -12.4178   10.9287 N   0  0  0  0  0  0  0  0  0  0  0  0
    2.2139  -11.2503   11.5262 C   0  0  0  0  0  0  0  0  0  0  0  0
    1.2895  -11.1485   12.4628 C   0  0  0  0  0  0  0  0  0  0  0  0
    0.5769  -12.2031   12.8130 C   0  0  0  0  0  0  0  0  0  0  0  0
   -0.2798  -12.0845   13.6778 O   0  0  0  0  0  0  0  0  0  0  0  0
    1.2609   -9.8924   12.9048 N   0  0  0  0  0  0  0  0  0  0  0  0
    2.1873   -9.2186   12.2324 C   0  0  0  0  0  0  0  0  0  0  0  0
    2.7742  -10.0605   11.3778 N   0  0  0  0  0  0  0  0  0  0  0  0
  1  2  1  0  0  0  0
  1  6  1  0  0  0  0
  2  3  2  0  0  0  0
  3  4  1  0  0  0  0
  4  5  2  0  0  0  0
  4 10  1  0  0  0  0
  5  6  1  0  0  0  0
  5  8  1  0  0  0  0
  6  7  2  0  0  0  0
  8  9  1  0  0  0  0
  9 10  2  0  0  0  0
M  END
>  <CHROM.1>
1.46073185,-11.53962548,12.17189346,-2.17852124,0.74553147,0.31504636

>  <Name>
ligand

>  <RI>
0

>  <Rbt.Current_Directory>
/home/itssahil/PROJECTS/Mol_Feturizer/Test_systems_manuscript/rnas/5c7w

>  <Rbt.Executable>
rbdock ($Id: //depot/dev/client3/rdock/2013.1/src/exe/rbdock.cxx#4 $)

>  <Rbt.Library>
libRbt.so (2013.1, Build901 2013/11/27)

>  <Rbt.Parameter_File>
/export/apps/rDock/src/rDock_2013.1_src/data/scripts/dock_solv.prm

>  <Rbt.Receptor>
prm/pocket_docking_3.prm

>  <SCORE>
-15.2643

>  <SCORE.INTER>
-15.2643

>  <SCORE.INTER.CONST>
1

>  <SCORE.INTER.POLAR>
0

>  <SCORE.INTER.ROT>
0

>  <SCORE.INTER.SOLV>
3.27998

>  <SCORE.INTER.VDW>
-14.8695

>  <SCORE.INTER.norm>
-1.52643

>  <SCORE.INTRA>
0

>  <SCORE.INTRA.DIHEDRAL>
0

>  <SCORE.INTRA.DIHEDRAL.0>
0

>  <SCORE.INTRA.POLAR>
0

>  <SCORE.INTRA.POLAR.0>
0

>  <SCORE.INTRA.REPUL>
0

>  <SCORE.INTRA.REPUL.0>
0

>  <SCORE.INTRA.SOLV>
0

>  <SCORE.INTRA.SOLV.lig_0>
-4.15853

>  <SCORE.INTRA.VDW>
0

>  <SCORE.INTRA.VDW.0>
0

>  <SCORE.INTRA.norm>
0

>  <SCORE.RESTR>
0

>  <SCORE.RESTR.CAVITY>
0

>  <SCORE.RESTR.norm>
0

>  <SCORE.SYSTEM>
0

>  <SCORE.SYSTEM.CONST>
0

>  <SCORE.SYSTEM.DIHEDRAL>
0

>  <SCORE.SYSTEM.SOLV>
0

>  <SCORE.SYSTEM.norm>
0

>  <SCORE.heavy>
10

>  <SCORE.norm>
-1.52643

>  <RMSD>
1.117

$$$$
ligand
 OpenBabel02271912153D
libRbt.so/2013.1/901 2013/11/27
 10 11  0  0  0  0  0  0  0  0999 V2000
    0.7812  -13.4492   12.2166 N   0  0  0  0  0  0  0  0  0  0  0  0
    1.6976  -13.5514   11.2783 C   0  0  0  0  0  0  0  0  0  0  0  0
    2.4333  -12.4182   10.9227 N   0  0  0  0  0  0  0  0  0  0  0  0
    2.2085  -11.2518   11.5229 C   0  0  0  0  0  0  0  0  0  0  0  0
    1.2866  -11.1519   12.4622 C   0  0  0  0  0  0  0  0  0  0  0  0
    0.5752  -12.2073   12.8125 C   0  0  0  0  0  0  0  0  0  0  0  0
   -0.2792  -12.0905   13.6798 O   0  0  0  0  0  0  0  0  0  0  0  0
    1.2588   -9.8966   12.9065 N   0  0  0  0  0  0  0  0  0  0  0  0
    2.1832   -9.2214   12.2328 C   0  0  0  0  0  0  0  0  0  0  0  0
    2.7681  -10.0615   11.3751 N   0  0  0  0  0  0  0  0  0  0  0  0
  1  2  1  0  0  0  0
  1  6  1  0  0  0  0
  2  3  2  0  0  0  0
  3  4  1  0  0  0  0
  4  5  2  0  0  0  0
  4 10  1  0  0  0  0
  5  6  1  0  0  0  0
  5  8  1  0  0  0  0
  6  7  2  0  0  0  0
  8  9  1  0  0  0  0
  9 10  2  0  0  0  0
M  END
>  <CHROM.1>
1.45713873,-11.54245238,12.17014832,-2.17932383,0.74820969,0.31737427

>  <Name>
ligand

>  <RI>
0

>  <Rbt.Current_Directory>
/home/itssahil/PROJECTS/Mol_Feturizer/Test_systems_manuscript/rnas/5c7w

>  <Rbt.Executable>
rbdock ($Id: //depot/dev/client3/rdock/2013.1/src/exe/rbdock.cxx#4 $)

>  <Rbt.Library>
libRbt.so (2013.1, Build901 2013/11/27)

>  <Rbt.Parameter_File>
/export/apps/rDock/src/rDock_2013.1_src/data/scripts/dock_solv.prm

>  <Rbt.Receptor>
prm/pocket_docking_4.prm

>  <SCORE>
-15.2663

>  <SCORE.INTER>
-15.2663

>  <SCORE.INTER.CONST>
1

>  <SCORE.INTER.POLAR>
0

>  <SCORE.INTER.ROT>
0

>  <SCORE.INTER.SOLV>
3.28779

>  <SCORE.INTER.VDW>
-14.8735

>  <SCORE.INTER.norm>
-1.52663

>  <SCORE.INTRA>
0

>  <SCORE.INTRA.DIHEDRAL>
0

>  <SCORE.INTRA.DIHEDRAL.0>
0

>  <SCORE.INTRA.POLAR>
0

>  <SCORE.INTRA.POLAR.0>
0

>  <SCORE.INTRA.REPUL>
0

>  <SCORE.INTRA.REPUL.0>
0

>  <SCORE.INTRA.SOLV>
0

>  <SCORE.INTRA.SOLV.lig_0>
-4.15853

>  <SCORE.INTRA.VDW>
0

>  <SCORE.INTRA.VDW.0>
0

>  <SCORE.INTRA.norm>
0

>  <SCORE.RESTR>
0

>  <SCORE.RESTR.CAVITY>
0

>  <SCORE.RESTR.norm>
0

>  <SCORE.SYSTEM>
0

>  <SCORE.SYSTEM.CONST>
0

>  <SCORE.SYSTEM.DIHEDRAL>
0

>  <SCORE.SYSTEM.SOLV>
0

>  <SCORE.SYSTEM.norm>
0

>  <SCORE.heavy>
10

>  <SCORE.norm>
-1.52663

>  <RMSD>
1.117

$$$$
ligand
 OpenBabel02271912153D
libRbt.so/2013.1/901 2013/11/27
 10 11  0  0  0  0  0  0  0  0999 V2000
    0.7694  -13.4419   12.1933 N   0  0  0  0  0  0  0  0  0  0  0  0
    1.7181  -13.5448   11.2877 C   0  0  0  0  0  0  0  0  0  0  0  0
    2.4713  -12.4137   10.9633 N   0  0  0  0  0  0  0  0  0  0  0  0
    2.2309  -11.2487   11.5601 C   0  0  0  0  0  0  0  0  0  0  0  0
    1.2768  -11.1481   12.4666 C   0  0  0  0  0  0  0  0  0  0  0  0
    0.5484  -12.2014   12.7869 C   0  0  0  0  0  0  0  0  0  0  0  0
   -0.3356  -12.0840   13.6239 O   0  0  0  0  0  0  0  0  0  0  0  0
    1.2392   -9.8946   12.9149 N   0  0  0  0  0  0  0  0  0  0  0  0
    2.1902   -9.2211   12.2772 C   0  0  0  0  0  0  0  0  0  0  0  0
    2.8010  -10.0606   11.4373 N   0  0  0  0  0  0  0  0  0  0  0  0
  1  2  1  0  0  0  0
  1  6  1  0  0  0  0
  2  3  2  0  0  0  0
  3  4  1  0  0  0  0
  4  5  2  0  0  0  0
  4 10  1  0  0  0  0
  5  6  1  0  0  0  0
  5  8  1  0  0  0  0
  6  7  2  0  0  0  0
  8  9  1  0  0  0  0
  9 10  2  0  0  0  0
M  END
>  <CHROM.1>
1.45571172,-11.53832068,12.17904803,-2.17066962,0.71300807,0.31577100

>  <Name>
ligand

>  <RI>
0

>  <Rbt.Current_Directory>
/home/itssahil/PROJECTS/Mol_Feturizer/Test_systems_manuscript/rnas/5c7w

>  <Rbt.Executable>
rbdock ($Id: //depot/dev/client3/rdock/2013.1/src/exe/rbdock.cxx#4 $)

>  <Rbt.Library>
libRbt.so (2013.1, Build901 2013/11/27)

>  <Rbt.Parameter_File>
/export/apps/rDock/src/rDock_2013.1_src/data/scripts/dock_solv.prm

>  <Rbt.Receptor>
prm/pocket_docking_4.prm

>  <SCORE>
-15.2488

>  <SCORE.INTER>
-15.2488

>  <SCORE.INTER.CONST>
1

>  <SCORE.INTER.POLAR>
0

>  <SCORE.INTER.ROT>
0

>  <SCORE.INTER.SOLV>
3.20083

>  <SCORE.INTER.VDW>
-14.8328

>  <SCORE.INTER.norm>
-1.52488

>  <SCORE.INTRA>
0

>  <SCORE.INTRA.DIHEDRAL>
0

>  <SCORE.INTRA.DIHEDRAL.0>
0

>  <SCORE.INTRA.POLAR>
0

>  <SCORE.INTRA.POLAR.0>
0

>  <SCORE.INTRA.REPUL>
0

>  <SCORE.INTRA.REPUL.0>
0

>  <SCORE.INTRA.SOLV>
0

>  <SCORE.INTRA.SOLV.lig_0>
-4.15853

>  <SCORE.INTRA.VDW>
0

>  <SCORE.INTRA.VDW.0>
0

>  <SCORE.INTRA.norm>
0

>  <SCORE.RESTR>
0

>  <SCORE.RESTR.CAVITY>
0

>  <SCORE.RESTR.norm>
0

>  <SCORE.SYSTEM>
0

>  <SCORE.SYSTEM.CONST>
0

>  <SCORE.SYSTEM.DIHEDRAL>
0

>  <SCORE.SYSTEM.SOLV>
0

>  <SCORE.SYSTEM.norm>
0

>  <SCORE.heavy>
10

>  <SCORE.norm>
-1.52488

>  <RMSD>
1.117

$$$$
ligand
 OpenBabel02271912153D
libRbt.so/2013.1/901 2013/11/27
 10 11  0  0  0  0  0  0  0  0999 V2000
    0.7747  -13.4590   12.2085 N   0  0  0  0  0  0  0  0  0  0  0  0
    1.6918  -13.5603   11.2708 C   0  0  0  0  0  0  0  0  0  0  0  0
    2.4324  -12.4283   10.9216 N   0  0  0  0  0  0  0  0  0  0  0  0
    2.2114  -11.2638   11.5270 C   0  0  0  0  0  0  0  0  0  0  0  0
    1.2887  -11.1648   12.4657 C   0  0  0  0  0  0  0  0  0  0  0  0
    0.5728  -12.2191   12.8101 C   0  0  0  0  0  0  0  0  0  0  0  0
   -0.2822  -12.1031   13.6769 O   0  0  0  0  0  0  0  0  0  0  0  0
    1.2653   -9.9116   12.9159 N   0  0  0  0  0  0  0  0  0  0  0  0
    2.1932   -9.2367   12.2466 C   0  0  0  0  0  0  0  0  0  0  0  0
    2.7758  -10.0751   11.3856 N   0  0  0  0  0  0  0  0  0  0  0  0
  1  2  1  0  0  0  0
  1  6  1  0  0  0  0
  2  3  2  0  0  0  0
  3  4  1  0  0  0  0
  4  5  2  0  0  0  0
  4 10  1  0  0  0  0
  5  6  1  0  0  0  0
  5  8  1  0  0  0  0
  6  7  2  0  0  0  0
  8  9  1  0  0  0  0
  9 10  2  0  0  0  0
M  END
>  <CHROM.1>
1.45811448,-11.55466667,12.17198237,-2.18382576,0.74579729,0.32519049

>  <Name>
ligand

>  <RI>
0

>  <Rbt.Current_Directory>
/home/itssahil/PROJECTS/Mol_Feturizer/Test_systems_manuscript/rnas/5c7w

>  <Rbt.Executable>
rbdock ($Id: //depot/dev/client3/rdock/2013.1/src/exe/rbdock.cxx#4 $)

>  <Rbt.Library>
libRbt.so (2013.1, Build901 2013/11/27)

>  <Rbt.Parameter_File>
/export/apps/rDock/src/rDock_2013.1_src/data/scripts/dock_solv.prm

>  <Rbt.Receptor>
prm/pocket_docking_4.prm

>  <SCORE>
-15.2658

>  <SCORE.INTER>
-15.2658

>  <SCORE.INTER.CONST>
1

>  <SCORE.INTER.POLAR>
0

>  <SCORE.INTER.ROT>
0

>  <SCORE.INTER.SOLV>
3.28601

>  <SCORE.INTER.VDW>
-14.8725

>  <SCORE.INTER.norm>
-1.52658

>  <SCORE.INTRA>
0

>  <SCORE.INTRA.DIHEDRAL>
0

>  <SCORE.INTRA.DIHEDRAL.0>
0

>  <SCORE.INTRA.POLAR>
0

>  <SCORE.INTRA.POLAR.0>
0

>  <SCORE.INTRA.REPUL>
0

>  <SCORE.INTRA.REPUL.0>
0

>  <SCORE.INTRA.SOLV>
0

>  <SCORE.INTRA.SOLV.lig_0>
-4.15853

>  <SCORE.INTRA.VDW>
0

>  <SCORE.INTRA.VDW.0>
0

>  <SCORE.INTRA.norm>
0

>  <SCORE.RESTR>
0

>  <SCORE.RESTR.CAVITY>
0

>  <SCORE.RESTR.norm>
0

>  <SCORE.SYSTEM>
0

>  <SCORE.SYSTEM.CONST>
0

>  <SCORE.SYSTEM.DIHEDRAL>
0

>  <SCORE.SYSTEM.SOLV>
0

>  <SCORE.SYSTEM.norm>
0

>  <SCORE.heavy>
10

>  <SCORE.norm>
-1.52658

>  <RMSD>
1.117

$$$$
ligand
 OpenBabel02271912153D
libRbt.so/2013.1/901 2013/11/27
 10 11  0  0  0  0  0  0  0  0999 V2000
    0.7852  -13.4466   12.2263 N   0  0  0  0  0  0  0  0  0  0  0  0
    1.6988  -13.5517   11.2856 C   0  0  0  0  0  0  0  0  0  0  0  0
    2.4358  -12.4203   10.9267 N   0  0  0  0  0  0  0  0  0  0  0  0
    2.2148  -11.2527   11.5260 C   0  0  0  0  0  0  0  0  0  0  0  0
    1.2957  -11.1499   12.4677 C   0  0  0  0  0  0  0  0  0  0  0  0
    0.5832  -12.2035   12.8212 C   0  0  0  0  0  0  0  0  0  0  0  0
   -0.2685  -12.0840   13.6908 O   0  0  0  0  0  0  0  0  0  0  0  0
    1.2715   -9.8941   12.9105 N   0  0  0  0  0  0  0  0  0  0  0  0
    2.1954   -9.2214   12.2334 C   0  0  0  0  0  0  0  0  0  0  0  0
    2.7763  -10.0637   11.3752 N   0  0  0  0  0  0  0  0  0  0  0  0
  1  2  1  0  0  0  0
  1  6  1  0  0  0  0
  2  3  2  0  0  0  0
  3  4  1  0  0  0  0
  4  5  2  0  0  0  0
  4 10  1  0  0  0  0
  5  6  1  0  0  0  0
  5  8  1  0  0  0  0
  6  7  2  0  0  0  0
  8  9  1  0  0  0  0
  9 10  2  0  0  0  0
M  END
>  <CHROM.1>
1.46468456,-11.54118551,12.17563826,-2.18296261,0.75020834,0.31860551

>  <Name>
ligand

>  <RI>
0

>  <Rbt.Current_Directory>
/home/itssahil/PROJECTS/Mol_Feturizer/Test_systems_manuscript/rnas/5c7w

>  <Rbt.Executable>
rbdock ($Id: //depot/dev/client3/rdock/2013.1/src/exe/rbdock.cxx#4 $)

>  <Rbt.Library>
libRbt.so (2013.1, Build901 2013/11/27)

>  <Rbt.Parameter_File>
/export/apps/rDock/src/rDock_2013.1_src/data/scripts/dock_solv.prm

>  <Rbt.Receptor>
prm/pocket_docking_5.prm

>  <SCORE>
-15.2665

>  <SCORE.INTER>
-15.2665

>  <SCORE.INTER.CONST>
1

>  <SCORE.INTER.POLAR>
0

>  <SCORE.INTER.ROT>
0

>  <SCORE.INTER.SOLV>
3.29359

>  <SCORE.INTER.VDW>
-14.8755

>  <SCORE.INTER.norm>
-1.52665

>  <SCORE.INTRA>
0

>  <SCORE.INTRA.DIHEDRAL>
0

>  <SCORE.INTRA.DIHEDRAL.0>
0

>  <SCORE.INTRA.POLAR>
0

>  <SCORE.INTRA.POLAR.0>
0

>  <SCORE.INTRA.REPUL>
0

>  <SCORE.INTRA.REPUL.0>
0

>  <SCORE.INTRA.SOLV>
0

>  <SCORE.INTRA.SOLV.lig_0>
-4.15853

>  <SCORE.INTRA.VDW>
0

>  <SCORE.INTRA.VDW.0>
0

>  <SCORE.INTRA.norm>
0

>  <SCORE.RESTR>
0

>  <SCORE.RESTR.CAVITY>
0

>  <SCORE.RESTR.norm>
0

>  <SCORE.SYSTEM>
0

>  <SCORE.SYSTEM.CONST>
0

>  <SCORE.SYSTEM.DIHEDRAL>
0

>  <SCORE.SYSTEM.SOLV>
0

>  <SCORE.SYSTEM.norm>
0

>  <SCORE.heavy>
10

>  <SCORE.norm>
-1.52665

>  <RMSD>
1.117

$$$$
ligand
 OpenBabel02271912153D
libRbt.so/2013.1/901 2013/11/27
 10 11  0  0  0  0  0  0  0  0999 V2000
    0.7809  -13.4496   12.2183 N   0  0  0  0  0  0  0  0  0  0  0  0
    1.6956  -13.5536   11.2786 C   0  0  0  0  0  0  0  0  0  0  0  0
    2.4348  -12.4224   10.9236 N   0  0  0  0  0  0  0  0  0  0  0  0
    2.2149  -11.2561   11.5257 C   0  0  0  0  0  0  0  0  0  0  0  0
    1.2946  -11.1544   12.4665 C   0  0  0  0  0  0  0  0  0  0  0  0
    0.5801  -12.2078   12.8163 C   0  0  0  0  0  0  0  0  0  0  0  0
   -0.2726  -12.0892   13.6850 O   0  0  0  0  0  0  0  0  0  0  0  0
    1.2718   -9.8996   12.9126 N   0  0  0  0  0  0  0  0  0  0  0  0
    2.1976   -9.2266   12.2384 C   0  0  0  0  0  0  0  0  0  0  0  0
    2.7783  -10.0676   11.3787 N   0  0  0  0  0  0  0  0  0  0  0  0
  1  2  1  0  0  0  0
  1  6  1  0  0  0  0
  2  3  2  0  0  0  0
  3  4  1  0  0  0  0
  4  5  2  0  0  0  0
  4 10  1  0  0  0  0
  5  6  1  0  0  0  0
  5  8  1  0  0  0  0
  6  7  2  0  0  0  0
  8  9  1  0  0  0  0
  9 10  2  0  0  0  0
M  END
>  <CHROM.1>
1.46341569,-11.54509761,12.17359277,-2.18441919,0.74846815,0.32224586

>  <Name>
ligand

>  <RI>
0

>  <Rbt.Current_Directory>
/home/itssahil/PROJECTS/Mol_Feturizer/Test_systems_manuscript/rnas/5c7w

>  <Rbt.Executable>
rbdock ($Id: //depot/dev/client3/rdock/2013.1/src/exe/rbdock.cxx#4 $)

>  <Rbt.Library>
libRbt.so (2013.1, Build901 2013/11/27)

>  <Rbt.Parameter_File>
/export/apps/rDock/src/rDock_2013.1_src/data/scripts/dock_solv.prm

>  <Rbt.Receptor>
prm/pocket_docking_5.prm

>  <SCORE>
-15.2676

>  <SCORE.INTER>
-15.2676

>  <SCORE.INTER.CONST>
1

>  <SCORE.INTER.POLAR>
0

>  <SCORE.INTER.ROT>
0

>  <SCORE.INTER.SOLV>
3.2889

>  <SCORE.INTER.VDW>
-14.8747

>  <SCORE.INTER.norm>
-1.52676

>  <SCORE.INTRA>
0

>  <SCORE.INTRA.DIHEDRAL>
0

>  <SCORE.INTRA.DIHEDRAL.0>
0

>  <SCORE.INTRA.POLAR>
0

>  <SCORE.INTRA.POLAR.0>
0

>  <SCORE.INTRA.REPUL>
0

>  <SCORE.INTRA.REPUL.0>
0

>  <SCORE.INTRA.SOLV>
0

>  <SCORE.INTRA.SOLV.lig_0>
-4.15853

>  <SCORE.INTRA.VDW>
0

>  <SCORE.INTRA.VDW.0>
0

>  <SCORE.INTRA.norm>
0

>  <SCORE.RESTR>
0

>  <SCORE.RESTR.CAVITY>
0

>  <SCORE.RESTR.norm>
0

>  <SCORE.SYSTEM>
0

>  <SCORE.SYSTEM.CONST>
0

>  <SCORE.SYSTEM.DIHEDRAL>
0

>  <SCORE.SYSTEM.SOLV>
0

>  <SCORE.SYSTEM.norm>
0

>  <SCORE.heavy>
10

>  <SCORE.norm>
-1.52676

>  <RMSD>
1.117

$$$$
ligand
 OpenBabel02271912153D
libRbt.so/2013.1/901 2013/11/27
 10 11  0  0  0  0  0  0  0  0999 V2000
    0.7822  -13.4485   12.2243 N   0  0  0  0  0  0  0  0  0  0  0  0
    1.6902  -13.5535   11.2782 C   0  0  0  0  0  0  0  0  0  0  0  0
    2.4268  -12.4228   10.9166 N   0  0  0  0  0  0  0  0  0  0  0  0
    2.2111  -11.2557   11.5189 C   0  0  0  0  0  0  0  0  0  0  0  0
    1.2976  -11.1529   12.4662 C   0  0  0  0  0  0  0  0  0  0  0  0
    0.5857  -12.2060   12.8223 C   0  0  0  0  0  0  0  0  0  0  0  0
   -0.2609  -12.0865   13.6969 O   0  0  0  0  0  0  0  0  0  0  0  0
    1.2780   -9.8977   12.9110 N   0  0  0  0  0  0  0  0  0  0  0  0
    2.1989   -9.2254   12.2295 C   0  0  0  0  0  0  0  0  0  0  0  0
    2.7735  -10.0674   11.3666 N   0  0  0  0  0  0  0  0  0  0  0  0
  1  2  1  0  0  0  0
  1  6  1  0  0  0  0
  2  3  2  0  0  0  0
  3  4  1  0  0  0  0
  4  5  2  0  0  0  0
  4 10  1  0  0  0  0
  5  6  1  0  0  0  0
  5  8  1  0  0  0  0
  6  7  2  0  0  0  0
  8  9  1  0  0  0  0
  9 10  2  0  0  0  0
M  END
>  <CHROM.1>
1.46432882,-11.54402007,12.17254876,-2.18747661,0.75526228,0.32319399

>  <Name>
ligand

>  <RI>
0

>  <Rbt.Current_Directory>
/home/itssahil/PROJECTS/Mol_Feturizer/Test_systems_manuscript/rnas/5c7w

>  <Rbt.Executable>
rbdock ($Id: //depot/dev/client3/rdock/2013.1/src/exe/rbdock.cxx#4 $)

>  <Rbt.Library>
libRbt.so (2013.1, Build901 2013/11/27)

>  <Rbt.Parameter_File>
/export/apps/rDock/src/rDock_2013.1_src/data/scripts/dock_solv.prm

>  <Rbt.Receptor>
prm/pocket_docking_6.prm

>  <SCORE>
-15.2689

>  <SCORE.INTER>
-15.2689

>  <SCORE.INTER.CONST>
1

>  <SCORE.INTER.POLAR>
0

>  <SCORE.INTER.ROT>
0

>  <SCORE.INTER.SOLV>
3.30496

>  <SCORE.INTER.VDW>
-14.8809

>  <SCORE.INTER.norm>
-1.52689

>  <SCORE.INTRA>
0

>  <SCORE.INTRA.DIHEDRAL>
0

>  <SCORE.INTRA.DIHEDRAL.0>
0

>  <SCORE.INTRA.POLAR>
0

>  <SCORE.INTRA.POLAR.0>
0

>  <SCORE.INTRA.REPUL>
0

>  <SCORE.INTRA.REPUL.0>
0

>  <SCORE.INTRA.SOLV>
0

>  <SCORE.INTRA.SOLV.lig_0>
-4.15853

>  <SCORE.INTRA.VDW>
0

>  <SCORE.INTRA.VDW.0>
0

>  <SCORE.INTRA.norm>
0

>  <SCORE.RESTR>
0

>  <SCORE.RESTR.CAVITY>
0

>  <SCORE.RESTR.norm>
0

>  <SCORE.SYSTEM>
0

>  <SCORE.SYSTEM.CONST>
0

>  <SCORE.SYSTEM.DIHEDRAL>
0

>  <SCORE.SYSTEM.SOLV>
0

>  <SCORE.SYSTEM.norm>
0

>  <SCORE.heavy>
10

>  <SCORE.norm>
-1.52689

>  <RMSD>
1.117

$$$$
ligand
 OpenBabel02271912153D
libRbt.so/2013.1/901 2013/11/27
 10 11  0  0  0  0  0  0  0  0999 V2000
    0.7819  -13.4447   12.2230 N   0  0  0  0  0  0  0  0  0  0  0  0
    1.6924  -13.5490   11.2793 C   0  0  0  0  0  0  0  0  0  0  0  0
    2.4293  -12.4177   10.9201 N   0  0  0  0  0  0  0  0  0  0  0  0
    2.2114  -11.2510   11.5222 C   0  0  0  0  0  0  0  0  0  0  0  0
    1.2954  -11.1491   12.4671 C   0  0  0  0  0  0  0  0  0  0  0  0
    0.5830  -12.2026   12.8210 C   0  0  0  0  0  0  0  0  0  0  0  0
   -0.2658  -12.0839   13.6934 O   0  0  0  0  0  0  0  0  0  0  0  0
    1.2739   -9.8940   12.9123 N   0  0  0  0  0  0  0  0  0  0  0  0
    2.1963   -9.2210   12.2335 C   0  0  0  0  0  0  0  0  0  0  0  0
    2.7735  -10.0623   11.3718 N   0  0  0  0  0  0  0  0  0  0  0  0
  1  2  1  0  0  0  0
  1  6  1  0  0  0  0
  2  3  2  0  0  0  0
  3  4  1  0  0  0  0
  4  5  2  0  0  0  0
  4 10  1  0  0  0  0
  5  6  1  0  0  0  0
  5  8  1  0  0  0  0
  6  7  2  0  0  0  0
  8  9  1  0  0  0  0
  9 10  2  0  0  0  0
M  END
>  <CHROM.1>
1.46307039,-11.53992800,12.17377806,-2.18564236,0.75294330,0.32230502

>  <Name>
ligand

>  <RI>
0

>  <Rbt.Current_Directory>
/home/itssahil/PROJECTS/Mol_Feturizer/Test_systems_manuscript/rnas/5c7w

>  <Rbt.Executable>
rbdock ($Id: //depot/dev/client3/rdock/2013.1/src/exe/rbdock.cxx#4 $)

>  <Rbt.Library>
libRbt.so (2013.1, Build901 2013/11/27)

>  <Rbt.Parameter_File>
/export/apps/rDock/src/rDock_2013.1_src/data/scripts/dock_solv.prm

>  <Rbt.Receptor>
prm/pocket_docking_8.prm

>  <SCORE>
-15.268

>  <SCORE.INTER>
-15.268

>  <SCORE.INTER.CONST>
1

>  <SCORE.INTER.POLAR>
0

>  <SCORE.INTER.ROT>
0

>  <SCORE.INTER.SOLV>
3.29879

>  <SCORE.INTER.VDW>
-14.8783

>  <SCORE.INTER.norm>
-1.5268

>  <SCORE.INTRA>
0

>  <SCORE.INTRA.DIHEDRAL>
0

>  <SCORE.INTRA.DIHEDRAL.0>
0

>  <SCORE.INTRA.POLAR>
0

>  <SCORE.INTRA.POLAR.0>
0

>  <SCORE.INTRA.REPUL>
0

>  <SCORE.INTRA.REPUL.0>
0

>  <SCORE.INTRA.SOLV>
0

>  <SCORE.INTRA.SOLV.lig_0>
-4.15853

>  <SCORE.INTRA.VDW>
0

>  <SCORE.INTRA.VDW.0>
0

>  <SCORE.INTRA.norm>
0

>  <SCORE.RESTR>
0

>  <SCORE.RESTR.CAVITY>
0

>  <SCORE.RESTR.norm>
0

>  <SCORE.SYSTEM>
0

>  <SCORE.SYSTEM.CONST>
0

>  <SCORE.SYSTEM.DIHEDRAL>
0

>  <SCORE.SYSTEM.SOLV>
0

>  <SCORE.SYSTEM.norm>
0

>  <SCORE.heavy>
10

>  <SCORE.norm>
-1.5268

>  <RMSD>
1.117

$$$$
ligand
 OpenBabel02271912153D
libRbt.so/2013.1/901 2013/11/27
 10 11  0  0  0  0  0  0  0  0999 V2000
    0.7805  -13.4544   12.2160 N   0  0  0  0  0  0  0  0  0  0  0  0
    1.6939  -13.5572   11.2748 C   0  0  0  0  0  0  0  0  0  0  0  0
    2.4315  -12.4252   10.9192 N   0  0  0  0  0  0  0  0  0  0  0  0
    2.2115  -11.2594   11.5223 C   0  0  0  0  0  0  0  0  0  0  0  0
    1.2926  -11.1589   12.4646 C   0  0  0  0  0  0  0  0  0  0  0  0
    0.5796  -12.2131   12.8149 C   0  0  0  0  0  0  0  0  0  0  0  0
   -0.2719  -12.0958   13.6850 O   0  0  0  0  0  0  0  0  0  0  0  0
    1.2694   -9.9044   12.9113 N   0  0  0  0  0  0  0  0  0  0  0  0
    2.1936   -9.2303   12.2361 C   0  0  0  0  0  0  0  0  0  0  0  0
    2.7737  -10.0703   11.3751 N   0  0  0  0  0  0  0  0  0  0  0  0
  1  2  1  0  0  0  0
  1  6  1  0  0  0  0
  2  3  2  0  0  0  0
  3  4  1  0  0  0  0
  4  5  2  0  0  0  0
  4 10  1  0  0  0  0
  5  6  1  0  0  0  0
  5  8  1  0  0  0  0
  6  7  2  0  0  0  0
  8  9  1  0  0  0  0
  9 10  2  0  0  0  0
M  END
>  <CHROM.1>
1.46129615,-11.54935780,12.17122431,-2.18396335,0.75021343,0.32245743

>  <Name>
ligand

>  <RI>
0

>  <Rbt.Current_Directory>
/home/itssahil/PROJECTS/Mol_Feturizer/Test_systems_manuscript/rnas/5c7w

>  <Rbt.Executable>
rbdock ($Id: //depot/dev/client3/rdock/2013.1/src/exe/rbdock.cxx#4 $)

>  <Rbt.Library>
libRbt.so (2013.1, Build901 2013/11/27)

>  <Rbt.Parameter_File>
/export/apps/rDock/src/rDock_2013.1_src/data/scripts/dock_solv.prm

>  <Rbt.Receptor>
prm/blind_docking_100.prm

>  <SCORE>
-15.2688

>  <SCORE.INTER>
-15.2688

>  <SCORE.INTER.CONST>
1

>  <SCORE.INTER.POLAR>
0

>  <SCORE.INTER.ROT>
0

>  <SCORE.INTER.SOLV>
3.29442

>  <SCORE.INTER.VDW>
-14.8774

>  <SCORE.INTER.norm>
-1.52688

>  <SCORE.INTRA>
0

>  <SCORE.INTRA.DIHEDRAL>
0

>  <SCORE.INTRA.DIHEDRAL.0>
0

>  <SCORE.INTRA.POLAR>
0

>  <SCORE.INTRA.POLAR.0>
0

>  <SCORE.INTRA.REPUL>
0

>  <SCORE.INTRA.REPUL.0>
0

>  <SCORE.INTRA.SOLV>
0

>  <SCORE.INTRA.SOLV.lig_0>
-4.15853

>  <SCORE.INTRA.VDW>
0

>  <SCORE.INTRA.VDW.0>
0

>  <SCORE.INTRA.norm>
0

>  <SCORE.RESTR>
0

>  <SCORE.RESTR.CAVITY>
0

>  <SCORE.RESTR.norm>
0

>  <SCORE.SYSTEM>
0

>  <SCORE.SYSTEM.CONST>
0

>  <SCORE.SYSTEM.DIHEDRAL>
0

>  <SCORE.SYSTEM.SOLV>
0

>  <SCORE.SYSTEM.norm>
0

>  <SCORE.heavy>
10

>  <SCORE.norm>
-1.52688

>  <RMSD>
1.118

$$$$
ligand
 OpenBabel02271912153D
libRbt.so/2013.1/901 2013/11/27
 10 11  0  0  0  0  0  0  0  0999 V2000
    0.7874  -13.4461   12.2271 N   0  0  0  0  0  0  0  0  0  0  0  0
    1.7033  -13.5534   11.2889 C   0  0  0  0  0  0  0  0  0  0  0  0
    2.4429  -12.4234   10.9308 N   0  0  0  0  0  0  0  0  0  0  0  0
    2.2221  -11.2550   11.5285 C   0  0  0  0  0  0  0  0  0  0  0  0
    1.3006  -11.1500   12.4678 C   0  0  0  0  0  0  0  0  0  0  0  0
    0.5857  -12.2022   12.8204 C   0  0  0  0  0  0  0  0  0  0  0  0
   -0.2681  -12.0806   13.6876 O   0  0  0  0  0  0  0  0  0  0  0  0
    1.2772   -9.8937   12.9094 N   0  0  0  0  0  0  0  0  0  0  0  0
    2.2038   -9.2230   12.2341 C   0  0  0  0  0  0  0  0  0  0  0  0
    2.7857  -10.0669   11.3781 N   0  0  0  0  0  0  0  0  0  0  0  0
  1  2  1  0  0  0  0
  1  6  1  0  0  0  0
  2  3  2  0  0  0  0
  3  4  1  0  0  0  0
  4  5  2  0  0  0  0
  4 10  1  0  0  0  0
  5  6  1  0  0  0  0
  5  8  1  0  0  0  0
  6  7  2  0  0  0  0
  8  9  1  0  0  0  0
  9 10  2  0  0  0  0
M  END
>  <CHROM.1>
1.46983327,-11.54172150,12.17649673,-2.18377666,0.74726575,0.31826194

>  <Name>
ligand

>  <RI>
0

>  <Rbt.Current_Directory>
/home/itssahil/PROJECTS/Mol_Feturizer/Test_systems_manuscript/rnas/5c7w

>  <Rbt.Executable>
rbdock ($Id: //depot/dev/client3/rdock/2013.1/src/exe/rbdock.cxx#4 $)

>  <Rbt.Library>
libRbt.so (2013.1, Build901 2013/11/27)

>  <Rbt.Parameter_File>
/export/apps/rDock/src/rDock_2013.1_src/data/scripts/dock_solv.prm

>  <Rbt.Receptor>
prm/blind_docking_80.prm

>  <SCORE>
-15.2644

>  <SCORE.INTER>
-15.2644

>  <SCORE.INTER.CONST>
1

>  <SCORE.INTER.POLAR>
0

>  <SCORE.INTER.ROT>
0

>  <SCORE.INTER.SOLV>
3.28537

>  <SCORE.INTER.VDW>
-14.8714

>  <SCORE.INTER.norm>
-1.52644

>  <SCORE.INTRA>
0

>  <SCORE.INTRA.DIHEDRAL>
0

>  <SCORE.INTRA.DIHEDRAL.0>
0

>  <SCORE.INTRA.POLAR>
0

>  <SCORE.INTRA.POLAR.0>
0

>  <SCORE.INTRA.REPUL>
0

>  <SCORE.INTRA.REPUL.0>
0

>  <SCORE.INTRA.SOLV>
0

>  <SCORE.INTRA.SOLV.lig_0>
-4.15853

>  <SCORE.INTRA.VDW>
0

>  <SCORE.INTRA.VDW.0>
0

>  <SCORE.INTRA.norm>
0

>  <SCORE.RESTR>
0

>  <SCORE.RESTR.CAVITY>
0

>  <SCORE.RESTR.norm>
0

>  <SCORE.SYSTEM>
0

>  <SCORE.SYSTEM.CONST>
0

>  <SCORE.SYSTEM.DIHEDRAL>
0

>  <SCORE.SYSTEM.SOLV>
0

>  <SCORE.SYSTEM.norm>
0

>  <SCORE.heavy>
10

>  <SCORE.norm>
-1.52644

>  <RMSD>
1.118

$$$$
ligand
 OpenBabel02271912153D
libRbt.so/2013.1/901 2013/11/27
 10 11  0  0  0  0  0  0  0  0999 V2000
    0.7817  -13.4624   12.2081 N   0  0  0  0  0  0  0  0  0  0  0  0
    1.7017  -13.5593   11.2728 C   0  0  0  0  0  0  0  0  0  0  0  0
    2.4342  -12.4225   10.9217 N   0  0  0  0  0  0  0  0  0  0  0  0
    2.2027  -11.2581   11.5231 C   0  0  0  0  0  0  0  0  0  0  0  0
    1.2772  -11.1635   12.4595 C   0  0  0  0  0  0  0  0  0  0  0  0
    0.5688  -12.2223   12.8055 C   0  0  0  0  0  0  0  0  0  0  0  0
   -0.2890  -12.1104   13.6701 O   0  0  0  0  0  0  0  0  0  0  0  0
    1.2429   -9.9091   12.9058 N   0  0  0  0  0  0  0  0  0  0  0  0
    2.1669   -9.2290   12.2364 C   0  0  0  0  0  0  0  0  0  0  0  0
    2.7580  -10.0653   11.3792 N   0  0  0  0  0  0  0  0  0  0  0  0
  1  2  1  0  0  0  0
  1  6  1  0  0  0  0
  2  3  2  0  0  0  0
  3  4  1  0  0  0  0
  4  5  2  0  0  0  0
  4 10  1  0  0  0  0
  5  6  1  0  0  0  0
  5  8  1  0  0  0  0
  6  7  2  0  0  0  0
  8  9  1  0  0  0  0
  9 10  2  0  0  0  0
M  END
>  <CHROM.1>
1.45029011,-11.55284815,12.16727812,-2.17273294,0.74620464,0.31461263

>  <Name>
ligand

>  <RI>
0

>  <Rbt.Current_Directory>
/home/itssahil/PROJECTS/Mol_Feturizer/Test_systems_manuscript/rnas/5c7w

>  <Rbt.Executable>
rbdock ($Id: //depot/dev/client3/rdock/2013.1/src/exe/rbdock.cxx#4 $)

>  <Rbt.Library>
libRbt.so (2013.1, Build901 2013/11/27)

>  <Rbt.Parameter_File>
/export/apps/rDock/src/rDock_2013.1_src/data/scripts/dock_solv.prm

>  <Rbt.Receptor>
prm/pocket_docking_3.prm

>  <SCORE>
-15.2359

>  <SCORE.INTER>
-15.2359

>  <SCORE.INTER.CONST>
1

>  <SCORE.INTER.POLAR>
0

>  <SCORE.INTER.ROT>
0

>  <SCORE.INTER.SOLV>
3.28812

>  <SCORE.INTER.VDW>
-14.8533

>  <SCORE.INTER.norm>
-1.52359

>  <SCORE.INTRA>
0

>  <SCORE.INTRA.DIHEDRAL>
0

>  <SCORE.INTRA.DIHEDRAL.0>
0

>  <SCORE.INTRA.POLAR>
0

>  <SCORE.INTRA.POLAR.0>
0

>  <SCORE.INTRA.REPUL>
0

>  <SCORE.INTRA.REPUL.0>
0

>  <SCORE.INTRA.SOLV>
0

>  <SCORE.INTRA.SOLV.lig_0>
-4.15853

>  <SCORE.INTRA.VDW>
0

>  <SCORE.INTRA.VDW.0>
0

>  <SCORE.INTRA.norm>
0

>  <SCORE.RESTR>
0

>  <SCORE.RESTR.CAVITY>
0

>  <SCORE.RESTR.norm>
0

>  <SCORE.SYSTEM>
0

>  <SCORE.SYSTEM.CONST>
0

>  <SCORE.SYSTEM.DIHEDRAL>
0

>  <SCORE.SYSTEM.SOLV>
0

>  <SCORE.SYSTEM.norm>
0

>  <SCORE.heavy>
10

>  <SCORE.norm>
-1.52359

>  <RMSD>
1.118

$$$$
ligand
 OpenBabel02271912153D
libRbt.so/2013.1/901 2013/11/27
 10 11  0  0  0  0  0  0  0  0999 V2000
    0.7810  -13.4534   12.2189 N   0  0  0  0  0  0  0  0  0  0  0  0
    1.6898  -13.5565   11.2734 C   0  0  0  0  0  0  0  0  0  0  0  0
    2.4272  -12.4252   10.9153 N   0  0  0  0  0  0  0  0  0  0  0  0
    2.2116  -11.2596   11.5203 C   0  0  0  0  0  0  0  0  0  0  0  0
    1.2973  -11.1587   12.4670 C   0  0  0  0  0  0  0  0  0  0  0  0
    0.5845  -12.2123   12.8198 C   0  0  0  0  0  0  0  0  0  0  0  0
   -0.2628  -12.0945   13.6940 O   0  0  0  0  0  0  0  0  0  0  0  0
    1.2778   -9.9046   12.9149 N   0  0  0  0  0  0  0  0  0  0  0  0
    2.1997   -9.2311   12.2359 C   0  0  0  0  0  0  0  0  0  0  0  0
    2.7747  -10.0711   11.3715 N   0  0  0  0  0  0  0  0  0  0  0  0
  1  2  1  0  0  0  0
  1  6  1  0  0  0  0
  2  3  2  0  0  0  0
  3  4  1  0  0  0  0
  4  5  2  0  0  0  0
  4 10  1  0  0  0  0
  5  6  1  0  0  0  0
  5  8  1  0  0  0  0
  6  7  2  0  0  0  0
  8  9  1  0  0  0  0
  9 10  2  0  0  0  0
M  END
>  <CHROM.1>
1.46404729,-11.54912782,12.17251380,-2.18771744,0.75424180,0.32583641

>  <Name>
ligand

>  <RI>
0

>  <Rbt.Current_Directory>
/home/itssahil/PROJECTS/Mol_Feturizer/Test_systems_manuscript/rnas/5c7w

>  <Rbt.Executable>
rbdock ($Id: //depot/dev/client3/rdock/2013.1/src/exe/rbdock.cxx#4 $)

>  <Rbt.Library>
libRbt.so (2013.1, Build901 2013/11/27)

>  <Rbt.Parameter_File>
/export/apps/rDock/src/rDock_2013.1_src/data/scripts/dock_solv.prm

>  <Rbt.Receptor>
prm/pocket_docking_3.prm

>  <SCORE>
-15.2691

>  <SCORE.INTER>
-15.2691

>  <SCORE.INTER.CONST>
1

>  <SCORE.INTER.POLAR>
0

>  <SCORE.INTER.ROT>
0

>  <SCORE.INTER.SOLV>
3.30406

>  <SCORE.INTER.VDW>
-14.8808

>  <SCORE.INTER.norm>
-1.52691

>  <SCORE.INTRA>
0

>  <SCORE.INTRA.DIHEDRAL>
0

>  <SCORE.INTRA.DIHEDRAL.0>
0

>  <SCORE.INTRA.POLAR>
0

>  <SCORE.INTRA.POLAR.0>
0

>  <SCORE.INTRA.REPUL>
0

>  <SCORE.INTRA.REPUL.0>
0

>  <SCORE.INTRA.SOLV>
0

>  <SCORE.INTRA.SOLV.lig_0>
-4.15853

>  <SCORE.INTRA.VDW>
0

>  <SCORE.INTRA.VDW.0>
0

>  <SCORE.INTRA.norm>
0

>  <SCORE.RESTR>
0

>  <SCORE.RESTR.CAVITY>
0

>  <SCORE.RESTR.norm>
0

>  <SCORE.SYSTEM>
0

>  <SCORE.SYSTEM.CONST>
0

>  <SCORE.SYSTEM.DIHEDRAL>
0

>  <SCORE.SYSTEM.SOLV>
0

>  <SCORE.SYSTEM.norm>
0

>  <SCORE.heavy>
10

>  <SCORE.norm>
-1.52691

>  <RMSD>
1.118

$$$$
ligand
 OpenBabel02271912153D
libRbt.so/2013.1/901 2013/11/27
 10 11  0  0  0  0  0  0  0  0999 V2000
    0.7798  -13.4538   12.2158 N   0  0  0  0  0  0  0  0  0  0  0  0
    1.6943  -13.5594   11.2761 C   0  0  0  0  0  0  0  0  0  0  0  0
    2.4371  -12.4301   10.9228 N   0  0  0  0  0  0  0  0  0  0  0  0
    2.2209  -11.2640   11.5265 C   0  0  0  0  0  0  0  0  0  0  0  0
    1.3009  -11.1606   12.4673 C   0  0  0  0  0  0  0  0  0  0  0  0
    0.5829  -12.2122   12.8156 C   0  0  0  0  0  0  0  0  0  0  0  0
   -0.2695  -12.0921   13.6843 O   0  0  0  0  0  0  0  0  0  0  0  0
    1.2821   -9.9064   12.9152 N   0  0  0  0  0  0  0  0  0  0  0  0
    2.2101   -9.2354   12.2421 C   0  0  0  0  0  0  0  0  0  0  0  0
    2.7882  -10.0771   11.3813 N   0  0  0  0  0  0  0  0  0  0  0  0
  1  2  1  0  0  0  0
  1  6  1  0  0  0  0
  2  3  2  0  0  0  0
  3  4  1  0  0  0  0
  4  5  2  0  0  0  0
  4 10  1  0  0  0  0
  5  6  1  0  0  0  0
  5  8  1  0  0  0  0
  6  7  2  0  0  0  0
  8  9  1  0  0  0  0
  9 10  2  0  0  0  0
M  END
>  <CHROM.1>
1.46846087,-11.55144063,12.17391970,-2.18853454,0.74732623,0.32646504

>  <Name>
ligand

>  <RI>
0

>  <Rbt.Current_Directory>
/home/itssahil/PROJECTS/Mol_Feturizer/Test_systems_manuscript/rnas/5c7w

>  <Rbt.Executable>
rbdock ($Id: //depot/dev/client3/rdock/2013.1/src/exe/rbdock.cxx#4 $)

>  <Rbt.Library>
libRbt.so (2013.1, Build901 2013/11/27)

>  <Rbt.Parameter_File>
/export/apps/rDock/src/rDock_2013.1_src/data/scripts/dock_solv.prm

>  <Rbt.Receptor>
prm/pocket_docking_4.prm

>  <SCORE>
-15.2652

>  <SCORE.INTER>
-15.2652

>  <SCORE.INTER.CONST>
1

>  <SCORE.INTER.POLAR>
0

>  <SCORE.INTER.ROT>
0

>  <SCORE.INTER.SOLV>
3.28654

>  <SCORE.INTER.VDW>
-14.8723

>  <SCORE.INTER.norm>
-1.52652

>  <SCORE.INTRA>
0

>  <SCORE.INTRA.DIHEDRAL>
0

>  <SCORE.INTRA.DIHEDRAL.0>
0

>  <SCORE.INTRA.POLAR>
0

>  <SCORE.INTRA.POLAR.0>
0

>  <SCORE.INTRA.REPUL>
0

>  <SCORE.INTRA.REPUL.0>
0

>  <SCORE.INTRA.SOLV>
0

>  <SCORE.INTRA.SOLV.lig_0>
-4.15853

>  <SCORE.INTRA.VDW>
0

>  <SCORE.INTRA.VDW.0>
0

>  <SCORE.INTRA.norm>
0

>  <SCORE.RESTR>
0

>  <SCORE.RESTR.CAVITY>
0

>  <SCORE.RESTR.norm>
0

>  <SCORE.SYSTEM>
0

>  <SCORE.SYSTEM.CONST>
0

>  <SCORE.SYSTEM.DIHEDRAL>
0

>  <SCORE.SYSTEM.SOLV>
0

>  <SCORE.SYSTEM.norm>
0

>  <SCORE.heavy>
10

>  <SCORE.norm>
-1.52652

>  <RMSD>
1.118

$$$$
ligand
 OpenBabel02271912153D
libRbt.so/2013.1/901 2013/11/27
 10 11  0  0  0  0  0  0  0  0999 V2000
    0.7822  -13.4532   12.2187 N   0  0  0  0  0  0  0  0  0  0  0  0
    1.6967  -13.5550   11.2785 C   0  0  0  0  0  0  0  0  0  0  0  0
    2.4330  -12.4221   10.9232 N   0  0  0  0  0  0  0  0  0  0  0  0
    2.2106  -11.2563   11.5255 C   0  0  0  0  0  0  0  0  0  0  0  0
    1.2906  -11.1568   12.4668 C   0  0  0  0  0  0  0  0  0  0  0  0
    0.5788  -12.2119   12.8169 C   0  0  0  0  0  0  0  0  0  0  0  0
   -0.2738  -12.0955   13.6860 O   0  0  0  0  0  0  0  0  0  0  0  0
    1.2651   -9.9022   12.9130 N   0  0  0  0  0  0  0  0  0  0  0  0
    2.1890   -9.2269   12.2384 C   0  0  0  0  0  0  0  0  0  0  0  0
    2.7712  -10.0665   11.3784 N   0  0  0  0  0  0  0  0  0  0  0  0
  1  2  1  0  0  0  0
  1  6  1  0  0  0  0
  2  3  2  0  0  0  0
  3  4  1  0  0  0  0
  4  5  2  0  0  0  0
  4 10  1  0  0  0  0
  5  6  1  0  0  0  0
  5  8  1  0  0  0  0
  6  7  2  0  0  0  0
  8  9  1  0  0  0  0
  9 10  2  0  0  0  0
M  END
>  <CHROM.1>
1.46020876,-11.54711721,12.17377648,-2.18158741,0.74970357,0.32039489

>  <Name>
ligand

>  <RI>
0

>  <Rbt.Current_Directory>
/home/itssahil/PROJECTS/Mol_Feturizer/Test_systems_manuscript/rnas/5c7w

>  <Rbt.Executable>
rbdock ($Id: //depot/dev/client3/rdock/2013.1/src/exe/rbdock.cxx#4 $)

>  <Rbt.Library>
libRbt.so (2013.1, Build901 2013/11/27)

>  <Rbt.Parameter_File>
/export/apps/rDock/src/rDock_2013.1_src/data/scripts/dock_solv.prm

>  <Rbt.Receptor>
prm/pocket_docking_4.prm

>  <SCORE>
-15.2675

>  <SCORE.INTER>
-15.2675

>  <SCORE.INTER.CONST>
1

>  <SCORE.INTER.POLAR>
0

>  <SCORE.INTER.ROT>
0

>  <SCORE.INTER.SOLV>
3.29476

>  <SCORE.INTER.VDW>
-14.8766

>  <SCORE.INTER.norm>
-1.52675

>  <SCORE.INTRA>
0

>  <SCORE.INTRA.DIHEDRAL>
0

>  <SCORE.INTRA.DIHEDRAL.0>
0

>  <SCORE.INTRA.POLAR>
0

>  <SCORE.INTRA.POLAR.0>
0

>  <SCORE.INTRA.REPUL>
0

>  <SCORE.INTRA.REPUL.0>
0

>  <SCORE.INTRA.SOLV>
0

>  <SCORE.INTRA.SOLV.lig_0>
-4.15853

>  <SCORE.INTRA.VDW>
0

>  <SCORE.INTRA.VDW.0>
0

>  <SCORE.INTRA.norm>
0

>  <SCORE.RESTR>
0

>  <SCORE.RESTR.CAVITY>
0

>  <SCORE.RESTR.norm>
0

>  <SCORE.SYSTEM>
0

>  <SCORE.SYSTEM.CONST>
0

>  <SCORE.SYSTEM.DIHEDRAL>
0

>  <SCORE.SYSTEM.SOLV>
0

>  <SCORE.SYSTEM.norm>
0

>  <SCORE.heavy>
10

>  <SCORE.norm>
-1.52675

>  <RMSD>
1.118

$$$$
ligand
 OpenBabel02271912153D
libRbt.so/2013.1/901 2013/11/27
 10 11  0  0  0  0  0  0  0  0999 V2000
    0.7823  -13.4503   12.2172 N   0  0  0  0  0  0  0  0  0  0  0  0
    1.6971  -13.5525   11.2773 C   0  0  0  0  0  0  0  0  0  0  0  0
    2.4323  -12.4193   10.9206 N   0  0  0  0  0  0  0  0  0  0  0  0
    2.2087  -11.2529   11.5213 C   0  0  0  0  0  0  0  0  0  0  0  0
    1.2883  -11.1530   12.4622 C   0  0  0  0  0  0  0  0  0  0  0  0
    0.5775  -12.2084   12.8136 C   0  0  0  0  0  0  0  0  0  0  0  0
   -0.2754  -12.0916   13.6824 O   0  0  0  0  0  0  0  0  0  0  0  0
    1.2615   -9.8978   12.9067 N   0  0  0  0  0  0  0  0  0  0  0  0
    2.1848   -9.2226   12.2314 C   0  0  0  0  0  0  0  0  0  0  0  0
    2.7681  -10.0627   11.3726 N   0  0  0  0  0  0  0  0  0  0  0  0
  1  2  1  0  0  0  0
  1  6  1  0  0  0  0
  2  3  2  0  0  0  0
  3  4  1  0  0  0  0
  4  5  2  0  0  0  0
  4 10  1  0  0  0  0
  5  6  1  0  0  0  0
  5  8  1  0  0  0  0
  6  7  2  0  0  0  0
  8  9  1  0  0  0  0
  9 10  2  0  0  0  0
M  END
>  <CHROM.1>
1.45837500,-11.54357900,12.16978673,-2.18018406,0.74980284,0.31805407

>  <Name>
ligand

>  <RI>
0

>  <Rbt.Current_Directory>
/home/itssahil/PROJECTS/Mol_Feturizer/Test_systems_manuscript/rnas/5c7w

>  <Rbt.Executable>
rbdock ($Id: //depot/dev/client3/rdock/2013.1/src/exe/rbdock.cxx#4 $)

>  <Rbt.Library>
libRbt.so (2013.1, Build901 2013/11/27)

>  <Rbt.Parameter_File>
/export/apps/rDock/src/rDock_2013.1_src/data/scripts/dock_solv.prm

>  <Rbt.Receptor>
prm/pocket_docking_5.prm

>  <SCORE>
-15.2675

>  <SCORE.INTER>
-15.2675

>  <SCORE.INTER.CONST>
1

>  <SCORE.INTER.POLAR>
0

>  <SCORE.INTER.ROT>
0

>  <SCORE.INTER.SOLV>
3.29175

>  <SCORE.INTER.VDW>
-14.8756

>  <SCORE.INTER.norm>
-1.52675

>  <SCORE.INTRA>
0

>  <SCORE.INTRA.DIHEDRAL>
0

>  <SCORE.INTRA.DIHEDRAL.0>
0

>  <SCORE.INTRA.POLAR>
0

>  <SCORE.INTRA.POLAR.0>
0

>  <SCORE.INTRA.REPUL>
0

>  <SCORE.INTRA.REPUL.0>
0

>  <SCORE.INTRA.SOLV>
0

>  <SCORE.INTRA.SOLV.lig_0>
-4.15853

>  <SCORE.INTRA.VDW>
0

>  <SCORE.INTRA.VDW.0>
0

>  <SCORE.INTRA.norm>
0

>  <SCORE.RESTR>
0

>  <SCORE.RESTR.CAVITY>
0

>  <SCORE.RESTR.norm>
0

>  <SCORE.SYSTEM>
0

>  <SCORE.SYSTEM.CONST>
0

>  <SCORE.SYSTEM.DIHEDRAL>
0

>  <SCORE.SYSTEM.SOLV>
0

>  <SCORE.SYSTEM.norm>
0

>  <SCORE.heavy>
10

>  <SCORE.norm>
-1.52675

>  <RMSD>
1.118

$$$$
ligand
 OpenBabel02271912153D
libRbt.so/2013.1/901 2013/11/27
 10 11  0  0  0  0  0  0  0  0999 V2000
    0.7836  -13.4555   12.2147 N   0  0  0  0  0  0  0  0  0  0  0  0
    1.6936  -13.5609   11.2705 C   0  0  0  0  0  0  0  0  0  0  0  0
    2.4295  -12.4298   10.9088 N   0  0  0  0  0  0  0  0  0  0  0  0
    2.2114  -11.2621   11.5090 C   0  0  0  0  0  0  0  0  0  0  0  0
    1.2959  -11.1590   12.4543 C   0  0  0  0  0  0  0  0  0  0  0  0
    0.5844  -12.2124   12.8105 C   0  0  0  0  0  0  0  0  0  0  0  0
   -0.2639  -12.0926   13.6833 O   0  0  0  0  0  0  0  0  0  0  0  0
    1.2739   -9.9032   12.8972 N   0  0  0  0  0  0  0  0  0  0  0  0
    2.1954   -9.2308   12.2165 C   0  0  0  0  0  0  0  0  0  0  0  0
    2.7727  -10.0734   11.3560 N   0  0  0  0  0  0  0  0  0  0  0  0
  1  2  1  0  0  0  0
  1  6  1  0  0  0  0
  2  3  2  0  0  0  0
  3  4  1  0  0  0  0
  4  5  2  0  0  0  0
  4 10  1  0  0  0  0
  5  6  1  0  0  0  0
  5  8  1  0  0  0  0
  6  7  2  0  0  0  0
  8  9  1  0  0  0  0
  9 10  2  0  0  0  0
M  END
>  <CHROM.1>
1.46362720,-11.55033221,12.16152295,-2.18512230,0.75375592,0.32011943

>  <Name>
ligand

>  <RI>
0

>  <Rbt.Current_Directory>
/home/itssahil/PROJECTS/Mol_Feturizer/Test_systems_manuscript/rnas/5c7w

>  <Rbt.Executable>
rbdock ($Id: //depot/dev/client3/rdock/2013.1/src/exe/rbdock.cxx#4 $)

>  <Rbt.Library>
libRbt.so (2013.1, Build901 2013/11/27)

>  <Rbt.Parameter_File>
/export/apps/rDock/src/rDock_2013.1_src/data/scripts/dock_solv.prm

>  <Rbt.Receptor>
prm/pocket_docking_8.prm

>  <SCORE>
-15.2368

>  <SCORE.INTER>
-15.2368

>  <SCORE.INTER.CONST>
1

>  <SCORE.INTER.POLAR>
0

>  <SCORE.INTER.ROT>
0

>  <SCORE.INTER.SOLV>
3.29687

>  <SCORE.INTER.VDW>
-14.8568

>  <SCORE.INTER.norm>
-1.52368

>  <SCORE.INTRA>
0

>  <SCORE.INTRA.DIHEDRAL>
0

>  <SCORE.INTRA.DIHEDRAL.0>
0

>  <SCORE.INTRA.POLAR>
0

>  <SCORE.INTRA.POLAR.0>
0

>  <SCORE.INTRA.REPUL>
0

>  <SCORE.INTRA.REPUL.0>
0

>  <SCORE.INTRA.SOLV>
0

>  <SCORE.INTRA.SOLV.lig_0>
-4.15853

>  <SCORE.INTRA.VDW>
0

>  <SCORE.INTRA.VDW.0>
0

>  <SCORE.INTRA.norm>
0

>  <SCORE.RESTR>
0

>  <SCORE.RESTR.CAVITY>
0

>  <SCORE.RESTR.norm>
0

>  <SCORE.SYSTEM>
0

>  <SCORE.SYSTEM.CONST>
0

>  <SCORE.SYSTEM.DIHEDRAL>
0

>  <SCORE.SYSTEM.SOLV>
0

>  <SCORE.SYSTEM.norm>
0

>  <SCORE.heavy>
10

>  <SCORE.norm>
-1.52368

>  <RMSD>
1.118

$$$$
ligand
 OpenBabel02271912153D
libRbt.so/2013.1/901 2013/11/27
 10 11  0  0  0  0  0  0  0  0999 V2000
    0.7847  -13.4521   12.2194 N   0  0  0  0  0  0  0  0  0  0  0  0
    1.6958  -13.5533   11.2758 C   0  0  0  0  0  0  0  0  0  0  0  0
    2.4295  -12.4197   10.9174 N   0  0  0  0  0  0  0  0  0  0  0  0
    2.2082  -11.2540   11.5201 C   0  0  0  0  0  0  0  0  0  0  0  0
    1.2916  -11.1551   12.4648 C   0  0  0  0  0  0  0  0  0  0  0  0
    0.5822  -12.2108   12.8179 C   0  0  0  0  0  0  0  0  0  0  0  0
   -0.2672  -12.0950   13.6902 O   0  0  0  0  0  0  0  0  0  0  0  0
    1.2664   -9.9003   12.9106 N   0  0  0  0  0  0  0  0  0  0  0  0
    2.1870   -9.2243   12.2323 C   0  0  0  0  0  0  0  0  0  0  0  0
    2.7670  -10.0636   11.3704 N   0  0  0  0  0  0  0  0  0  0  0  0
  1  2  1  0  0  0  0
  1  6  1  0  0  0  0
  2  3  2  0  0  0  0
  3  4  1  0  0  0  0
  4  5  2  0  0  0  0
  4 10  1  0  0  0  0
  5  6  1  0  0  0  0
  5  8  1  0  0  0  0
  6  7  2  0  0  0  0
  8  9  1  0  0  0  0
  9 10  2  0  0  0  0
M  END
>  <CHROM.1>
1.46050582,-11.54532835,12.17125698,-2.18180595,0.75358996,0.32017078

>  <Name>
ligand

>  <RI>
0

>  <Rbt.Current_Directory>
/home/itssahil/PROJECTS/Mol_Feturizer/Test_systems_manuscript/rnas/5c7w

>  <Rbt.Executable>
rbdock ($Id: //depot/dev/client3/rdock/2013.1/src/exe/rbdock.cxx#4 $)

>  <Rbt.Library>
libRbt.so (2013.1, Build901 2013/11/27)

>  <Rbt.Parameter_File>
/export/apps/rDock/src/rDock_2013.1_src/data/scripts/dock_solv.prm

>  <Rbt.Receptor>
prm/pocket_docking_4.prm

>  <SCORE>
-15.2687

>  <SCORE.INTER>
-15.2687

>  <SCORE.INTER.CONST>
1

>  <SCORE.INTER.POLAR>
0

>  <SCORE.INTER.ROT>
0

>  <SCORE.INTER.SOLV>
3.30253

>  <SCORE.INTER.VDW>
-14.88

>  <SCORE.INTER.norm>
-1.52687

>  <SCORE.INTRA>
0

>  <SCORE.INTRA.DIHEDRAL>
0

>  <SCORE.INTRA.DIHEDRAL.0>
0

>  <SCORE.INTRA.POLAR>
0

>  <SCORE.INTRA.POLAR.0>
0

>  <SCORE.INTRA.REPUL>
0

>  <SCORE.INTRA.REPUL.0>
0

>  <SCORE.INTRA.SOLV>
0

>  <SCORE.INTRA.SOLV.lig_0>
-4.15853

>  <SCORE.INTRA.VDW>
0

>  <SCORE.INTRA.VDW.0>
0

>  <SCORE.INTRA.norm>
0

>  <SCORE.RESTR>
0

>  <SCORE.RESTR.CAVITY>
0

>  <SCORE.RESTR.norm>
0

>  <SCORE.SYSTEM>
0

>  <SCORE.SYSTEM.CONST>
0

>  <SCORE.SYSTEM.DIHEDRAL>
0

>  <SCORE.SYSTEM.SOLV>
0

>  <SCORE.SYSTEM.norm>
0

>  <SCORE.heavy>
10

>  <SCORE.norm>
-1.52687

>  <RMSD>
1.119

$$$$
ligand
 OpenBabel02271912153D
libRbt.so/2013.1/901 2013/11/27
 10 11  0  0  0  0  0  0  0  0999 V2000
    0.7852  -13.4513   12.2175 N   0  0  0  0  0  0  0  0  0  0  0  0
    1.7044  -13.5530   11.2819 C   0  0  0  0  0  0  0  0  0  0  0  0
    2.4413  -12.4196   10.9293 N   0  0  0  0  0  0  0  0  0  0  0  0
    2.2148  -11.2536   11.5296 C   0  0  0  0  0  0  0  0  0  0  0  0
    1.2901  -11.1542   12.4663 C   0  0  0  0  0  0  0  0  0  0  0  0
    0.5776  -12.2098   12.8137 C   0  0  0  0  0  0  0  0  0  0  0  0
   -0.2794  -12.0935   13.6786 O   0  0  0  0  0  0  0  0  0  0  0  0
    1.2611   -9.8993   12.9113 N   0  0  0  0  0  0  0  0  0  0  0  0
    2.1876   -9.2237   12.2408 C   0  0  0  0  0  0  0  0  0  0  0  0
    2.7749  -10.0633   11.3843 N   0  0  0  0  0  0  0  0  0  0  0  0
  1  2  1  0  0  0  0
  1  6  1  0  0  0  0
  2  3  2  0  0  0  0
  3  4  1  0  0  0  0
  4  5  2  0  0  0  0
  4 10  1  0  0  0  0
  5  6  1  0  0  0  0
  5  8  1  0  0  0  0
  6  7  2  0  0  0  0
  8  9  1  0  0  0  0
  9 10  2  0  0  0  0
M  END
>  <CHROM.1>
1.46149108,-11.54462985,12.17441238,-2.17819309,0.74534191,0.31727885

>  <Name>
ligand

>  <RI>
0

>  <Rbt.Current_Directory>
/home/itssahil/PROJECTS/Mol_Feturizer/Test_systems_manuscript/rnas/5c7w

>  <Rbt.Executable>
rbdock ($Id: //depot/dev/client3/rdock/2013.1/src/exe/rbdock.cxx#4 $)

>  <Rbt.Library>
libRbt.so (2013.1, Build901 2013/11/27)

>  <Rbt.Parameter_File>
/export/apps/rDock/src/rDock_2013.1_src/data/scripts/dock_solv.prm

>  <Rbt.Receptor>
prm/pocket_docking_4.prm

>  <SCORE>
-15.2642

>  <SCORE.INTER>
-15.2642

>  <SCORE.INTER.CONST>
1

>  <SCORE.INTER.POLAR>
0

>  <SCORE.INTER.ROT>
0

>  <SCORE.INTER.SOLV>
3.2832

>  <SCORE.INTER.VDW>
-14.8705

>  <SCORE.INTER.norm>
-1.52642

>  <SCORE.INTRA>
0

>  <SCORE.INTRA.DIHEDRAL>
0

>  <SCORE.INTRA.DIHEDRAL.0>
0

>  <SCORE.INTRA.POLAR>
0

>  <SCORE.INTRA.POLAR.0>
0

>  <SCORE.INTRA.REPUL>
0

>  <SCORE.INTRA.REPUL.0>
0

>  <SCORE.INTRA.SOLV>
0

>  <SCORE.INTRA.SOLV.lig_0>
-4.15853

>  <SCORE.INTRA.VDW>
0

>  <SCORE.INTRA.VDW.0>
0

>  <SCORE.INTRA.norm>
0

>  <SCORE.RESTR>
0

>  <SCORE.RESTR.CAVITY>
0

>  <SCORE.RESTR.norm>
0

>  <SCORE.SYSTEM>
0

>  <SCORE.SYSTEM.CONST>
0

>  <SCORE.SYSTEM.DIHEDRAL>
0

>  <SCORE.SYSTEM.SOLV>
0

>  <SCORE.SYSTEM.norm>
0

>  <SCORE.heavy>
10

>  <SCORE.norm>
-1.52642

>  <RMSD>
1.119

$$$$
ligand
 OpenBabel02271912153D
libRbt.so/2013.1/901 2013/11/27
 10 11  0  0  0  0  0  0  0  0999 V2000
    0.7859  -13.4496   12.2245 N   0  0  0  0  0  0  0  0  0  0  0  0
    1.6963  -13.5547   11.2807 C   0  0  0  0  0  0  0  0  0  0  0  0
    2.4336  -12.4238   10.9209 N   0  0  0  0  0  0  0  0  0  0  0  0
    2.2162  -11.2568   11.5225 C   0  0  0  0  0  0  0  0  0  0  0  0
    1.3003  -11.1539   12.4673 C   0  0  0  0  0  0  0  0  0  0  0  0
    0.5875  -12.2070   12.8218 C   0  0  0  0  0  0  0  0  0  0  0  0
   -0.2613  -12.0875   13.6942 O   0  0  0  0  0  0  0  0  0  0  0  0
    1.2793   -9.8986   12.9119 N   0  0  0  0  0  0  0  0  0  0  0  0
    2.2019   -9.2263   12.2327 C   0  0  0  0  0  0  0  0  0  0  0  0
    2.7788  -10.0683   11.3714 N   0  0  0  0  0  0  0  0  0  0  0  0
  1  2  1  0  0  0  0
  1  6  1  0  0  0  0
  2  3  2  0  0  0  0
  3  4  1  0  0  0  0
  4  5  2  0  0  0  0
  4 10  1  0  0  0  0
  5  6  1  0  0  0  0
  5  8  1  0  0  0  0
  6  7  2  0  0  0  0
  8  9  1  0  0  0  0
  9 10  2  0  0  0  0
M  END
>  <CHROM.1>
1.46780208,-11.54503550,12.17419499,-2.18614761,0.75284375,0.32211548

>  <Name>
ligand

>  <RI>
0

>  <Rbt.Current_Directory>
/home/itssahil/PROJECTS/Mol_Feturizer/Test_systems_manuscript/rnas/5c7w

>  <Rbt.Executable>
rbdock ($Id: //depot/dev/client3/rdock/2013.1/src/exe/rbdock.cxx#4 $)

>  <Rbt.Library>
libRbt.so (2013.1, Build901 2013/11/27)

>  <Rbt.Parameter_File>
/export/apps/rDock/src/rDock_2013.1_src/data/scripts/dock_solv.prm

>  <Rbt.Receptor>
prm/pocket_docking_8.prm

>  <SCORE>
-15.2679

>  <SCORE.INTER>
-15.2679

>  <SCORE.INTER.CONST>
1

>  <SCORE.INTER.POLAR>
0

>  <SCORE.INTER.ROT>
0

>  <SCORE.INTER.SOLV>
3.2996

>  <SCORE.INTER.VDW>
-14.8785

>  <SCORE.INTER.norm>
-1.52679

>  <SCORE.INTRA>
0

>  <SCORE.INTRA.DIHEDRAL>
0

>  <SCORE.INTRA.DIHEDRAL.0>
0

>  <SCORE.INTRA.POLAR>
0

>  <SCORE.INTRA.POLAR.0>
0

>  <SCORE.INTRA.REPUL>
0

>  <SCORE.INTRA.REPUL.0>
0

>  <SCORE.INTRA.SOLV>
0

>  <SCORE.INTRA.SOLV.lig_0>
-4.15853

>  <SCORE.INTRA.VDW>
0

>  <SCORE.INTRA.VDW.0>
0

>  <SCORE.INTRA.norm>
0

>  <SCORE.RESTR>
0

>  <SCORE.RESTR.CAVITY>
0

>  <SCORE.RESTR.norm>
0

>  <SCORE.SYSTEM>
0

>  <SCORE.SYSTEM.CONST>
0

>  <SCORE.SYSTEM.DIHEDRAL>
0

>  <SCORE.SYSTEM.SOLV>
0

>  <SCORE.SYSTEM.norm>
0

>  <SCORE.heavy>
10

>  <SCORE.norm>
-1.52679

>  <RMSD>
1.119

$$$$
ligand
 OpenBabel02271912153D
libRbt.so/2013.1/901 2013/11/27
 10 11  0  0  0  0  0  0  0  0999 V2000
    0.7860  -13.4525   12.2210 N   0  0  0  0  0  0  0  0  0  0  0  0
    1.6946  -13.5545   11.2752 C   0  0  0  0  0  0  0  0  0  0  0  0
    2.4289  -12.4218   10.9153 N   0  0  0  0  0  0  0  0  0  0  0  0
    2.2106  -11.2559   11.5189 C   0  0  0  0  0  0  0  0  0  0  0  0
    1.2965  -11.1562   12.4659 C   0  0  0  0  0  0  0  0  0  0  0  0
    0.5866  -12.2111   12.8204 C   0  0  0  0  0  0  0  0  0  0  0  0
   -0.2605  -12.0944   13.6948 O   0  0  0  0  0  0  0  0  0  0  0  0
    1.2741   -9.9015   12.9121 N   0  0  0  0  0  0  0  0  0  0  0  0
    2.1939   -9.2265   12.2318 C   0  0  0  0  0  0  0  0  0  0  0  0
    2.7706  -10.0662   11.3682 N   0  0  0  0  0  0  0  0  0  0  0  0
  1  2  1  0  0  0  0
  1  6  1  0  0  0  0
  2  3  2  0  0  0  0
  3  4  1  0  0  0  0
  4  5  2  0  0  0  0
  4 10  1  0  0  0  0
  5  6  1  0  0  0  0
  5  8  1  0  0  0  0
  6  7  2  0  0  0  0
  8  9  1  0  0  0  0
  9 10  2  0  0  0  0
M  END
>  <CHROM.1>
1.46415902,-11.54654167,12.17183402,-2.18459240,0.75551347,0.32239755

>  <Name>
ligand

>  <RI>
0

>  <Rbt.Current_Directory>
/home/itssahil/PROJECTS/Mol_Feturizer/Test_systems_manuscript/rnas/5c7w

>  <Rbt.Executable>
rbdock ($Id: //depot/dev/client3/rdock/2013.1/src/exe/rbdock.cxx#4 $)

>  <Rbt.Library>
libRbt.so (2013.1, Build901 2013/11/27)

>  <Rbt.Parameter_File>
/export/apps/rDock/src/rDock_2013.1_src/data/scripts/dock_solv.prm

>  <Rbt.Receptor>
prm/blind_docking_100.prm

>  <SCORE>
-15.2692

>  <SCORE.INTER>
-15.2692

>  <SCORE.INTER.CONST>
1

>  <SCORE.INTER.POLAR>
0

>  <SCORE.INTER.ROT>
0

>  <SCORE.INTER.SOLV>
3.3068

>  <SCORE.INTER.VDW>
-14.8817

>  <SCORE.INTER.norm>
-1.52692

>  <SCORE.INTRA>
0

>  <SCORE.INTRA.DIHEDRAL>
0

>  <SCORE.INTRA.DIHEDRAL.0>
0

>  <SCORE.INTRA.POLAR>
0

>  <SCORE.INTRA.POLAR.0>
0

>  <SCORE.INTRA.REPUL>
0

>  <SCORE.INTRA.REPUL.0>
0

>  <SCORE.INTRA.SOLV>
0

>  <SCORE.INTRA.SOLV.lig_0>
-4.15853

>  <SCORE.INTRA.VDW>
0

>  <SCORE.INTRA.VDW.0>
0

>  <SCORE.INTRA.norm>
0

>  <SCORE.RESTR>
0

>  <SCORE.RESTR.CAVITY>
0

>  <SCORE.RESTR.norm>
0

>  <SCORE.SYSTEM>
0

>  <SCORE.SYSTEM.CONST>
0

>  <SCORE.SYSTEM.DIHEDRAL>
0

>  <SCORE.SYSTEM.SOLV>
0

>  <SCORE.SYSTEM.norm>
0

>  <SCORE.heavy>
10

>  <SCORE.norm>
-1.52692

>  <RMSD>
1.120

$$$$
ligand
 OpenBabel02271912153D
libRbt.so/2013.1/901 2013/11/27
 10 11  0  0  0  0  0  0  0  0999 V2000
    0.7859  -13.4480   12.2181 N   0  0  0  0  0  0  0  0  0  0  0  0
    1.7027  -13.5523   11.2805 C   0  0  0  0  0  0  0  0  0  0  0  0
    2.4416  -12.4209   10.9257 N   0  0  0  0  0  0  0  0  0  0  0  0
    2.2192  -11.2540   11.5259 C   0  0  0  0  0  0  0  0  0  0  0  0
    1.2969  -11.1519   12.4646 C   0  0  0  0  0  0  0  0  0  0  0  0
    0.5826  -12.2056   12.8141 C   0  0  0  0  0  0  0  0  0  0  0  0
   -0.2721  -12.0868   13.6809 O   0  0  0  0  0  0  0  0  0  0  0  0
    1.2719   -9.8967   12.9090 N   0  0  0  0  0  0  0  0  0  0  0  0
    2.1985   -9.2236   12.2361 C   0  0  0  0  0  0  0  0  0  0  0  0
    2.7819  -10.0651   11.3787 N   0  0  0  0  0  0  0  0  0  0  0  0
  1  2  1  0  0  0  0
  1  6  1  0  0  0  0
  2  3  2  0  0  0  0
  3  4  1  0  0  0  0
  4  5  2  0  0  0  0
  4 10  1  0  0  0  0
  5  6  1  0  0  0  0
  5  8  1  0  0  0  0
  6  7  2  0  0  0  0
  8  9  1  0  0  0  0
  9 10  2  0  0  0  0
M  END
>  <CHROM.1>
1.46666353,-11.54289117,12.17251897,-2.18224445,0.74673543,0.31952307

>  <Name>
ligand

>  <RI>
0

>  <Rbt.Current_Directory>
/home/itssahil/PROJECTS/Mol_Feturizer/Test_systems_manuscript/rnas/5c7w

>  <Rbt.Executable>
rbdock ($Id: //depot/dev/client3/rdock/2013.1/src/exe/rbdock.cxx#4 $)

>  <Rbt.Library>
libRbt.so (2013.1, Build901 2013/11/27)

>  <Rbt.Parameter_File>
/export/apps/rDock/src/rDock_2013.1_src/data/scripts/dock_solv.prm

>  <Rbt.Receptor>
prm/blind_docking_40.prm

>  <SCORE>
-15.2664

>  <SCORE.INTER>
-15.2664

>  <SCORE.INTER.CONST>
1

>  <SCORE.INTER.POLAR>
0

>  <SCORE.INTER.ROT>
0

>  <SCORE.INTER.SOLV>
3.28255

>  <SCORE.INTER.VDW>
-14.8718

>  <SCORE.INTER.norm>
-1.52664

>  <SCORE.INTRA>
0

>  <SCORE.INTRA.DIHEDRAL>
0

>  <SCORE.INTRA.DIHEDRAL.0>
0

>  <SCORE.INTRA.POLAR>
0

>  <SCORE.INTRA.POLAR.0>
0

>  <SCORE.INTRA.REPUL>
0

>  <SCORE.INTRA.REPUL.0>
0

>  <SCORE.INTRA.SOLV>
0

>  <SCORE.INTRA.SOLV.lig_0>
-4.15853

>  <SCORE.INTRA.VDW>
0

>  <SCORE.INTRA.VDW.0>
0

>  <SCORE.INTRA.norm>
0

>  <SCORE.RESTR>
0

>  <SCORE.RESTR.CAVITY>
0

>  <SCORE.RESTR.norm>
0

>  <SCORE.SYSTEM>
0

>  <SCORE.SYSTEM.CONST>
0

>  <SCORE.SYSTEM.DIHEDRAL>
0

>  <SCORE.SYSTEM.SOLV>
0

>  <SCORE.SYSTEM.norm>
0

>  <SCORE.heavy>
10

>  <SCORE.norm>
-1.52664

>  <RMSD>
1.120

$$$$
ligand
 OpenBabel02271912153D
libRbt.so/2013.1/901 2013/11/27
 10 11  0  0  0  0  0  0  0  0999 V2000
    0.7880  -13.4473   12.2219 N   0  0  0  0  0  0  0  0  0  0  0  0
    1.7018  -13.5511   11.2813 C   0  0  0  0  0  0  0  0  0  0  0  0
    2.4386  -12.4192   10.9238 N   0  0  0  0  0  0  0  0  0  0  0  0
    2.2173  -11.2523   11.5244 C   0  0  0  0  0  0  0  0  0  0  0  0
    1.2980  -11.1508   12.4662 C   0  0  0  0  0  0  0  0  0  0  0  0
    0.5857  -12.2050   12.8183 C   0  0  0  0  0  0  0  0  0  0  0  0
   -0.2663  -12.0866   13.6878 O   0  0  0  0  0  0  0  0  0  0  0  0
    1.2735   -9.8955   12.9104 N   0  0  0  0  0  0  0  0  0  0  0  0
    2.1974   -9.2218   12.2343 C   0  0  0  0  0  0  0  0  0  0  0  0
    2.7786  -10.0630   11.3752 N   0  0  0  0  0  0  0  0  0  0  0  0
  1  2  1  0  0  0  0
  1  6  1  0  0  0  0
  2  3  2  0  0  0  0
  3  4  1  0  0  0  0
  4  5  2  0  0  0  0
  4 10  1  0  0  0  0
  5  6  1  0  0  0  0
  5  8  1  0  0  0  0
  6  7  2  0  0  0  0
  8  9  1  0  0  0  0
  9 10  2  0  0  0  0
M  END
>  <CHROM.1>
1.46713407,-11.54168004,12.17364508,-2.18265001,0.75009598,0.31957991

>  <Name>
ligand

>  <RI>
0

>  <Rbt.Current_Directory>
/home/itssahil/PROJECTS/Mol_Feturizer/Test_systems_manuscript/rnas/5c7w

>  <Rbt.Executable>
rbdock ($Id: //depot/dev/client3/rdock/2013.1/src/exe/rbdock.cxx#4 $)

>  <Rbt.Library>
libRbt.so (2013.1, Build901 2013/11/27)

>  <Rbt.Parameter_File>
/export/apps/rDock/src/rDock_2013.1_src/data/scripts/dock_solv.prm

>  <Rbt.Receptor>
prm/pocket_docking_3.prm

>  <SCORE>
-15.2671

>  <SCORE.INTER>
-15.2671

>  <SCORE.INTER.CONST>
1

>  <SCORE.INTER.POLAR>
0

>  <SCORE.INTER.ROT>
0

>  <SCORE.INTER.SOLV>
3.29165

>  <SCORE.INTER.VDW>
-14.8753

>  <SCORE.INTER.norm>
-1.52671

>  <SCORE.INTRA>
0

>  <SCORE.INTRA.DIHEDRAL>
0

>  <SCORE.INTRA.DIHEDRAL.0>
0

>  <SCORE.INTRA.POLAR>
0

>  <SCORE.INTRA.POLAR.0>
0

>  <SCORE.INTRA.REPUL>
0

>  <SCORE.INTRA.REPUL.0>
0

>  <SCORE.INTRA.SOLV>
0

>  <SCORE.INTRA.SOLV.lig_0>
-4.15853

>  <SCORE.INTRA.VDW>
0

>  <SCORE.INTRA.VDW.0>
0

>  <SCORE.INTRA.norm>
0

>  <SCORE.RESTR>
0

>  <SCORE.RESTR.CAVITY>
0

>  <SCORE.RESTR.norm>
0

>  <SCORE.SYSTEM>
0

>  <SCORE.SYSTEM.CONST>
0

>  <SCORE.SYSTEM.DIHEDRAL>
0

>  <SCORE.SYSTEM.SOLV>
0

>  <SCORE.SYSTEM.norm>
0

>  <SCORE.heavy>
10

>  <SCORE.norm>
-1.52671

>  <RMSD>
1.120

$$$$
ligand
 OpenBabel02271912153D
libRbt.so/2013.1/901 2013/11/27
 10 11  0  0  0  0  0  0  0  0999 V2000
    0.7798  -13.4380   12.2178 N   0  0  0  0  0  0  0  0  0  0  0  0
    1.7115  -13.5371   11.2943 C   0  0  0  0  0  0  0  0  0  0  0  0
    2.4575  -12.4042   10.9595 N   0  0  0  0  0  0  0  0  0  0  0  0
    2.2272  -11.2413   11.5643 C   0  0  0  0  0  0  0  0  0  0  0  0
    1.2900  -11.1446   12.4888 C   0  0  0  0  0  0  0  0  0  0  0  0
    0.5687  -12.1996   12.8193 C   0  0  0  0  0  0  0  0  0  0  0  0
   -0.2997  -12.0857   13.6730 O   0  0  0  0  0  0  0  0  0  0  0  0
    1.2597   -9.8925   12.9417 N   0  0  0  0  0  0  0  0  0  0  0  0
    2.1979   -9.2161   12.2886 C   0  0  0  0  0  0  0  0  0  0  0  0
    2.7938  -10.0523   11.4347 N   0  0  0  0  0  0  0  0  0  0  0  0
  1  2  1  0  0  0  0
  1  6  1  0  0  0  0
  2  3  2  0  0  0  0
  3  4  1  0  0  0  0
  4  5  2  0  0  0  0
  4 10  1  0  0  0  0
  5  6  1  0  0  0  0
  5  8  1  0  0  0  0
  6  7  2  0  0  0  0
  8  9  1  0  0  0  0
  9 10  2  0  0  0  0
M  END
>  <CHROM.1>
1.46393232,-11.53368695,12.19673483,-2.17725718,0.73101149,0.32328771

>  <Name>
ligand

>  <RI>
0

>  <Rbt.Current_Directory>
/home/itssahil/PROJECTS/Mol_Feturizer/Test_systems_manuscript/rnas/5c7w

>  <Rbt.Executable>
rbdock ($Id: //depot/dev/client3/rdock/2013.1/src/exe/rbdock.cxx#4 $)

>  <Rbt.Library>
libRbt.so (2013.1, Build901 2013/11/27)

>  <Rbt.Parameter_File>
/export/apps/rDock/src/rDock_2013.1_src/data/scripts/dock_solv.prm

>  <Rbt.Receptor>
prm/pocket_docking_3.prm

>  <SCORE>
-15.2394

>  <SCORE.INTER>
-15.2394

>  <SCORE.INTER.CONST>
1

>  <SCORE.INTER.POLAR>
0

>  <SCORE.INTER.ROT>
0

>  <SCORE.INTER.SOLV>
3.25634

>  <SCORE.INTER.VDW>
-14.845

>  <SCORE.INTER.norm>
-1.52394

>  <SCORE.INTRA>
0

>  <SCORE.INTRA.DIHEDRAL>
0

>  <SCORE.INTRA.DIHEDRAL.0>
0

>  <SCORE.INTRA.POLAR>
0

>  <SCORE.INTRA.POLAR.0>
0

>  <SCORE.INTRA.REPUL>
0

>  <SCORE.INTRA.REPUL.0>
0

>  <SCORE.INTRA.SOLV>
0

>  <SCORE.INTRA.SOLV.lig_0>
-4.15853

>  <SCORE.INTRA.VDW>
0

>  <SCORE.INTRA.VDW.0>
0

>  <SCORE.INTRA.norm>
0

>  <SCORE.RESTR>
0

>  <SCORE.RESTR.CAVITY>
0

>  <SCORE.RESTR.norm>
0

>  <SCORE.SYSTEM>
0

>  <SCORE.SYSTEM.CONST>
0

>  <SCORE.SYSTEM.DIHEDRAL>
0

>  <SCORE.SYSTEM.SOLV>
0

>  <SCORE.SYSTEM.norm>
0

>  <SCORE.heavy>
10

>  <SCORE.norm>
-1.52394

>  <RMSD>
1.120

$$$$
ligand
 OpenBabel02271912153D
libRbt.so/2013.1/901 2013/11/27
 10 11  0  0  0  0  0  0  0  0999 V2000
    0.7882  -13.4537   12.2182 N   0  0  0  0  0  0  0  0  0  0  0  0
    1.7050  -13.5532   11.2801 C   0  0  0  0  0  0  0  0  0  0  0  0
    2.4363  -12.4174   10.9233 N   0  0  0  0  0  0  0  0  0  0  0  0
    2.2068  -11.2513   11.5222 C   0  0  0  0  0  0  0  0  0  0  0  0
    1.2844  -11.1541   12.4615 C   0  0  0  0  0  0  0  0  0  0  0  0
    0.5773  -12.2120   12.8128 C   0  0  0  0  0  0  0  0  0  0  0  0
   -0.2776  -12.0977   13.6800 O   0  0  0  0  0  0  0  0  0  0  0  0
    1.2516   -9.8985   12.9044 N   0  0  0  0  0  0  0  0  0  0  0  0
    2.1733   -9.2202   12.2299 C   0  0  0  0  0  0  0  0  0  0  0  0
    2.7615  -10.0590   11.3732 N   0  0  0  0  0  0  0  0  0  0  0  0
  1  2  1  0  0  0  0
  1  6  1  0  0  0  0
  2  3  2  0  0  0  0
  3  4  1  0  0  0  0
  4  5  2  0  0  0  0
  4 10  1  0  0  0  0
  5  6  1  0  0  0  0
  5  8  1  0  0  0  0
  6  7  2  0  0  0  0
  8  9  1  0  0  0  0
  9 10  2  0  0  0  0
M  END
>  <CHROM.1>
1.45655362,-11.54428150,12.16978258,-2.17411124,0.74943638,0.31275299

>  <Name>
ligand

>  <RI>
0

>  <Rbt.Current_Directory>
/home/itssahil/PROJECTS/Mol_Feturizer/Test_systems_manuscript/rnas/5c7w

>  <Rbt.Executable>
rbdock ($Id: //depot/dev/client3/rdock/2013.1/src/exe/rbdock.cxx#4 $)

>  <Rbt.Library>
libRbt.so (2013.1, Build901 2013/11/27)

>  <Rbt.Parameter_File>
/export/apps/rDock/src/rDock_2013.1_src/data/scripts/dock_solv.prm

>  <Rbt.Receptor>
prm/pocket_docking_3.prm

>  <SCORE>
-15.2637

>  <SCORE.INTER>
-15.2637

>  <SCORE.INTER.CONST>
1

>  <SCORE.INTER.POLAR>
0

>  <SCORE.INTER.ROT>
0

>  <SCORE.INTER.SOLV>
3.29333

>  <SCORE.INTER.VDW>
-14.8736

>  <SCORE.INTER.norm>
-1.52637

>  <SCORE.INTRA>
0

>  <SCORE.INTRA.DIHEDRAL>
0

>  <SCORE.INTRA.DIHEDRAL.0>
0

>  <SCORE.INTRA.POLAR>
0

>  <SCORE.INTRA.POLAR.0>
0

>  <SCORE.INTRA.REPUL>
0

>  <SCORE.INTRA.REPUL.0>
0

>  <SCORE.INTRA.SOLV>
0

>  <SCORE.INTRA.SOLV.lig_0>
-4.15853

>  <SCORE.INTRA.VDW>
0

>  <SCORE.INTRA.VDW.0>
0

>  <SCORE.INTRA.norm>
0

>  <SCORE.RESTR>
0

>  <SCORE.RESTR.CAVITY>
0

>  <SCORE.RESTR.norm>
0

>  <SCORE.SYSTEM>
0

>  <SCORE.SYSTEM.CONST>
0

>  <SCORE.SYSTEM.DIHEDRAL>
0

>  <SCORE.SYSTEM.SOLV>
0

>  <SCORE.SYSTEM.norm>
0

>  <SCORE.heavy>
10

>  <SCORE.norm>
-1.52637

>  <RMSD>
1.120

$$$$
ligand
 OpenBabel02271912153D
libRbt.so/2013.1/901 2013/11/27
 10 11  0  0  0  0  0  0  0  0999 V2000
    0.7892  -13.4525   12.2223 N   0  0  0  0  0  0  0  0  0  0  0  0
    1.6997  -13.5535   11.2782 C   0  0  0  0  0  0  0  0  0  0  0  0
    2.4314  -12.4192   10.9176 N   0  0  0  0  0  0  0  0  0  0  0  0
    2.2086  -11.2530   11.5188 C   0  0  0  0  0  0  0  0  0  0  0  0
    1.2926  -11.1543   12.4641 C   0  0  0  0  0  0  0  0  0  0  0  0
    0.5851  -12.2107   12.8192 C   0  0  0  0  0  0  0  0  0  0  0  0
   -0.2639  -12.0950   13.6920 O   0  0  0  0  0  0  0  0  0  0  0  0
    1.2657   -9.8989   12.9081 N   0  0  0  0  0  0  0  0  0  0  0  0
    2.1847   -9.2224   12.2283 C   0  0  0  0  0  0  0  0  0  0  0  0
    2.7653  -10.0619   11.3671 N   0  0  0  0  0  0  0  0  0  0  0  0
  1  2  1  0  0  0  0
  1  6  1  0  0  0  0
  2  3  2  0  0  0  0
  3  4  1  0  0  0  0
  4  5  2  0  0  0  0
  4 10  1  0  0  0  0
  5  6  1  0  0  0  0
  5  8  1  0  0  0  0
  6  7  2  0  0  0  0
  8  9  1  0  0  0  0
  9 10  2  0  0  0  0
M  END
>  <CHROM.1>
1.46185432,-11.54465460,12.17099874,-2.18003052,0.75480565,0.31755707

>  <Name>
ligand

>  <RI>
0

>  <Rbt.Current_Directory>
/home/itssahil/PROJECTS/Mol_Feturizer/Test_systems_manuscript/rnas/5c7w

>  <Rbt.Executable>
rbdock ($Id: //depot/dev/client3/rdock/2013.1/src/exe/rbdock.cxx#4 $)

>  <Rbt.Library>
libRbt.so (2013.1, Build901 2013/11/27)

>  <Rbt.Parameter_File>
/export/apps/rDock/src/rDock_2013.1_src/data/scripts/dock_solv.prm

>  <Rbt.Receptor>
prm/pocket_docking_7.prm

>  <SCORE>
-15.268

>  <SCORE.INTER>
-15.268

>  <SCORE.INTER.CONST>
1

>  <SCORE.INTER.POLAR>
0

>  <SCORE.INTER.ROT>
0

>  <SCORE.INTER.SOLV>
3.30551

>  <SCORE.INTER.VDW>
-14.8805

>  <SCORE.INTER.norm>
-1.5268

>  <SCORE.INTRA>
0

>  <SCORE.INTRA.DIHEDRAL>
0

>  <SCORE.INTRA.DIHEDRAL.0>
0

>  <SCORE.INTRA.POLAR>
0

>  <SCORE.INTRA.POLAR.0>
0

>  <SCORE.INTRA.REPUL>
0

>  <SCORE.INTRA.REPUL.0>
0

>  <SCORE.INTRA.SOLV>
0

>  <SCORE.INTRA.SOLV.lig_0>
-4.15853

>  <SCORE.INTRA.VDW>
0

>  <SCORE.INTRA.VDW.0>
0

>  <SCORE.INTRA.norm>
0

>  <SCORE.RESTR>
0

>  <SCORE.RESTR.CAVITY>
0

>  <SCORE.RESTR.norm>
0

>  <SCORE.SYSTEM>
0

>  <SCORE.SYSTEM.CONST>
0

>  <SCORE.SYSTEM.DIHEDRAL>
0

>  <SCORE.SYSTEM.SOLV>
0

>  <SCORE.SYSTEM.norm>
0

>  <SCORE.heavy>
10

>  <SCORE.norm>
-1.5268

>  <RMSD>
1.120

$$$$
ligand
 OpenBabel02271912153D
libRbt.so/2013.1/901 2013/11/27
 10 11  0  0  0  0  0  0  0  0999 V2000
    0.7936  -13.4408   12.2274 N   0  0  0  0  0  0  0  0  0  0  0  0
    1.7108  -13.5451   11.2901 C   0  0  0  0  0  0  0  0  0  0  0  0
    2.4451  -12.4121   10.9309 N   0  0  0  0  0  0  0  0  0  0  0  0
    2.2181  -11.2438   11.5266 C   0  0  0  0  0  0  0  0  0  0  0  0
    1.2954  -11.1418   12.4650 C   0  0  0  0  0  0  0  0  0  0  0  0
    0.5853  -12.1970   12.8186 C   0  0  0  0  0  0  0  0  0  0  0  0
   -0.2698  -12.0783   13.6849 O   0  0  0  0  0  0  0  0  0  0  0  0
    1.2654   -9.8850   12.9046 N   0  0  0  0  0  0  0  0  0  0  0  0
    2.1893   -9.2108   12.2290 C   0  0  0  0  0  0  0  0  0  0  0  0
    2.7760  -10.0533   11.3748 N   0  0  0  0  0  0  0  0  0  0  0  0
  1  2  1  0  0  0  0
  1  6  1  0  0  0  0
  2  3  2  0  0  0  0
  3  4  1  0  0  0  0
  4  5  2  0  0  0  0
  4 10  1  0  0  0  0
  5  6  1  0  0  0  0
  5  8  1  0  0  0  0
  6  7  2  0  0  0  0
  8  9  1  0  0  0  0
  9 10  2  0  0  0  0
M  END
>  <CHROM.1>
1.46672996,-11.53321691,12.17442518,-2.17709778,0.74801667,0.31217836

>  <Name>
ligand

>  <RI>
0

>  <Rbt.Current_Directory>
/home/itssahil/PROJECTS/Mol_Feturizer/Test_systems_manuscript/rnas/5c7w

>  <Rbt.Executable>
rbdock ($Id: //depot/dev/client3/rdock/2013.1/src/exe/rbdock.cxx#4 $)

>  <Rbt.Library>
libRbt.so (2013.1, Build901 2013/11/27)

>  <Rbt.Parameter_File>
/export/apps/rDock/src/rDock_2013.1_src/data/scripts/dock_solv.prm

>  <Rbt.Receptor>
prm/pocket_docking_3.prm

>  <SCORE>
-15.2613

>  <SCORE.INTER>
-15.2613

>  <SCORE.INTER.CONST>
1

>  <SCORE.INTER.POLAR>
0

>  <SCORE.INTER.ROT>
0

>  <SCORE.INTER.SOLV>
3.28596

>  <SCORE.INTER.VDW>
-14.8695

>  <SCORE.INTER.norm>
-1.52613

>  <SCORE.INTRA>
0

>  <SCORE.INTRA.DIHEDRAL>
0

>  <SCORE.INTRA.DIHEDRAL.0>
0

>  <SCORE.INTRA.POLAR>
0

>  <SCORE.INTRA.POLAR.0>
0

>  <SCORE.INTRA.REPUL>
0

>  <SCORE.INTRA.REPUL.0>
0

>  <SCORE.INTRA.SOLV>
0

>  <SCORE.INTRA.SOLV.lig_0>
-4.15853

>  <SCORE.INTRA.VDW>
0

>  <SCORE.INTRA.VDW.0>
0

>  <SCORE.INTRA.norm>
0

>  <SCORE.RESTR>
0

>  <SCORE.RESTR.CAVITY>
0

>  <SCORE.RESTR.norm>
0

>  <SCORE.SYSTEM>
0

>  <SCORE.SYSTEM.CONST>
0

>  <SCORE.SYSTEM.DIHEDRAL>
0

>  <SCORE.SYSTEM.SOLV>
0

>  <SCORE.SYSTEM.norm>
0

>  <SCORE.heavy>
10

>  <SCORE.norm>
-1.52613

>  <RMSD>
1.121

$$$$
ligand
 OpenBabel02271912153D
libRbt.so/2013.1/901 2013/11/27
 10 11  0  0  0  0  0  0  0  0999 V2000
    0.7915  -13.4421   12.2260 N   0  0  0  0  0  0  0  0  0  0  0  0
    1.7050  -13.5468   11.2852 C   0  0  0  0  0  0  0  0  0  0  0  0
    2.4403  -12.4147   10.9250 N   0  0  0  0  0  0  0  0  0  0  0  0
    2.2180  -11.2469   11.5233 C   0  0  0  0  0  0  0  0  0  0  0  0
    1.2989  -11.1445   12.4652 C   0  0  0  0  0  0  0  0  0  0  0  0
    0.5880  -12.1987   12.8199 C   0  0  0  0  0  0  0  0  0  0  0  0
   -0.2637  -12.0796   13.6895 O   0  0  0  0  0  0  0  0  0  0  0  0
    1.2732   -9.8883   12.9069 N   0  0  0  0  0  0  0  0  0  0  0  0
    2.1960   -9.2150   12.2289 C   0  0  0  0  0  0  0  0  0  0  0  0
    2.7777  -10.0573   11.3713 N   0  0  0  0  0  0  0  0  0  0  0  0
  1  2  1  0  0  0  0
  1  6  1  0  0  0  0
  2  3  2  0  0  0  0
  3  4  1  0  0  0  0
  4  5  2  0  0  0  0
  4 10  1  0  0  0  0
  5  6  1  0  0  0  0
  5  8  1  0  0  0  0
  6  7  2  0  0  0  0
  8  9  1  0  0  0  0
  9 10  2  0  0  0  0
M  END
>  <CHROM.1>
1.46838043,-11.53578277,12.17344691,-2.18132403,0.75087631,0.31658733

>  <Name>
ligand

>  <RI>
0

>  <Rbt.Current_Directory>
/home/itssahil/PROJECTS/Mol_Feturizer/Test_systems_manuscript/rnas/5c7w

>  <Rbt.Executable>
rbdock ($Id: //depot/dev/client3/rdock/2013.1/src/exe/rbdock.cxx#4 $)

>  <Rbt.Library>
libRbt.so (2013.1, Build901 2013/11/27)

>  <Rbt.Parameter_File>
/export/apps/rDock/src/rDock_2013.1_src/data/scripts/dock_solv.prm

>  <Rbt.Receptor>
prm/pocket_docking_3.prm

>  <SCORE>
-15.2655

>  <SCORE.INTER>
-15.2655

>  <SCORE.INTER.CONST>
1

>  <SCORE.INTER.POLAR>
0

>  <SCORE.INTER.ROT>
0

>  <SCORE.INTER.SOLV>
3.29185

>  <SCORE.INTER.VDW>
-14.8743

>  <SCORE.INTER.norm>
-1.52655

>  <SCORE.INTRA>
0

>  <SCORE.INTRA.DIHEDRAL>
0

>  <SCORE.INTRA.DIHEDRAL.0>
0

>  <SCORE.INTRA.POLAR>
0

>  <SCORE.INTRA.POLAR.0>
0

>  <SCORE.INTRA.REPUL>
0

>  <SCORE.INTRA.REPUL.0>
0

>  <SCORE.INTRA.SOLV>
0

>  <SCORE.INTRA.SOLV.lig_0>
-4.15853

>  <SCORE.INTRA.VDW>
0

>  <SCORE.INTRA.VDW.0>
0

>  <SCORE.INTRA.norm>
0

>  <SCORE.RESTR>
0

>  <SCORE.RESTR.CAVITY>
0

>  <SCORE.RESTR.norm>
0

>  <SCORE.SYSTEM>
0

>  <SCORE.SYSTEM.CONST>
0

>  <SCORE.SYSTEM.DIHEDRAL>
0

>  <SCORE.SYSTEM.SOLV>
0

>  <SCORE.SYSTEM.norm>
0

>  <SCORE.heavy>
10

>  <SCORE.norm>
-1.52655

>  <RMSD>
1.121

$$$$
ligand
 OpenBabel02271912153D
libRbt.so/2013.1/901 2013/11/27
 10 11  0  0  0  0  0  0  0  0999 V2000
    0.7905  -13.4459   12.2236 N   0  0  0  0  0  0  0  0  0  0  0  0
    1.7031  -13.5501   11.2818 C   0  0  0  0  0  0  0  0  0  0  0  0
    2.4392  -12.4183   10.9226 N   0  0  0  0  0  0  0  0  0  0  0  0
    2.2185  -11.2511   11.5227 C   0  0  0  0  0  0  0  0  0  0  0  0
    1.3003  -11.1491   12.4656 C   0  0  0  0  0  0  0  0  0  0  0  0
    0.5888  -12.2032   12.8194 C   0  0  0  0  0  0  0  0  0  0  0  0
   -0.2621  -12.0845   13.6899 O   0  0  0  0  0  0  0  0  0  0  0  0
    1.2762   -9.8935   12.9091 N   0  0  0  0  0  0  0  0  0  0  0  0
    2.1990   -9.2201   12.2312 C   0  0  0  0  0  0  0  0  0  0  0  0
    2.7793  -10.0618   11.3719 N   0  0  0  0  0  0  0  0  0  0  0  0
  1  2  1  0  0  0  0
  1  6  1  0  0  0  0
  2  3  2  0  0  0  0
  3  4  1  0  0  0  0
  4  5  2  0  0  0  0
  4 10  1  0  0  0  0
  5  6  1  0  0  0  0
  5  8  1  0  0  0  0
  6  7  2  0  0  0  0
  8  9  1  0  0  0  0
  9 10  2  0  0  0  0
M  END
>  <CHROM.1>
1.46919205,-11.54018049,12.17313232,-2.18294011,0.75141903,0.31910617

>  <Name>
ligand

>  <RI>
0

>  <Rbt.Current_Directory>
/home/itssahil/PROJECTS/Mol_Feturizer/Test_systems_manuscript/rnas/5c7w

>  <Rbt.Executable>
rbdock ($Id: //depot/dev/client3/rdock/2013.1/src/exe/rbdock.cxx#4 $)

>  <Rbt.Library>
libRbt.so (2013.1, Build901 2013/11/27)

>  <Rbt.Parameter_File>
/export/apps/rDock/src/rDock_2013.1_src/data/scripts/dock_solv.prm

>  <Rbt.Receptor>
prm/blind_docking_20.prm

>  <SCORE>
-15.267

>  <SCORE.INTER>
-15.267

>  <SCORE.INTER.CONST>
1

>  <SCORE.INTER.POLAR>
0

>  <SCORE.INTER.ROT>
0

>  <SCORE.INTER.SOLV>
3.29397

>  <SCORE.INTER.VDW>
-14.876

>  <SCORE.INTER.norm>
-1.5267

>  <SCORE.INTRA>
0

>  <SCORE.INTRA.DIHEDRAL>
0

>  <SCORE.INTRA.DIHEDRAL.0>
0

>  <SCORE.INTRA.POLAR>
0

>  <SCORE.INTRA.POLAR.0>
0

>  <SCORE.INTRA.REPUL>
0

>  <SCORE.INTRA.REPUL.0>
0

>  <SCORE.INTRA.SOLV>
0

>  <SCORE.INTRA.SOLV.lig_0>
-4.15853

>  <SCORE.INTRA.VDW>
0

>  <SCORE.INTRA.VDW.0>
0

>  <SCORE.INTRA.norm>
0

>  <SCORE.RESTR>
0

>  <SCORE.RESTR.CAVITY>
0

>  <SCORE.RESTR.norm>
0

>  <SCORE.SYSTEM>
0

>  <SCORE.SYSTEM.CONST>
0

>  <SCORE.SYSTEM.DIHEDRAL>
0

>  <SCORE.SYSTEM.SOLV>
0

>  <SCORE.SYSTEM.norm>
0

>  <SCORE.heavy>
10

>  <SCORE.norm>
-1.5267

>  <RMSD>
1.122

$$$$
ligand
 OpenBabel02271912153D
libRbt.so/2013.1/901 2013/11/27
 10 11  0  0  0  0  0  0  0  0999 V2000
    0.7787  -13.4478   12.2017 N   0  0  0  0  0  0  0  0  0  0  0  0
    1.6914  -13.5470   11.2595 C   0  0  0  0  0  0  0  0  0  0  0  0
    2.4284  -12.4135   10.9074 N   0  0  0  0  0  0  0  0  0  0  0  0
    2.2084  -11.2498   11.5146 C   0  0  0  0  0  0  0  0  0  0  0  0
    1.2901  -11.1530   12.4579 C   0  0  0  0  0  0  0  0  0  0  0  0
    0.5777  -12.2087   12.8051 C   0  0  0  0  0  0  0  0  0  0  0  0
   -0.2732  -12.0947   13.6762 O   0  0  0  0  0  0  0  0  0  0  0  0
    1.2668   -9.9001   12.9090 N   0  0  0  0  0  0  0  0  0  0  0  0
    2.1902   -9.2232   12.2355 C   0  0  0  0  0  0  0  0  0  0  0  0
    2.7700  -10.0600   11.3712 N   0  0  0  0  0  0  0  0  0  0  0  0
  1  2  1  0  0  0  0
  1  6  1  0  0  0  0
  2  3  2  0  0  0  0
  3  4  1  0  0  0  0
  4  5  2  0  0  0  0
  4 10  1  0  0  0  0
  5  6  1  0  0  0  0
  5  8  1  0  0  0  0
  6  7  2  0  0  0  0
  8  9  1  0  0  0  0
  9 10  2  0  0  0  0
M  END
>  <CHROM.1>
1.45874913,-11.54234049,12.16307246,-2.18377002,0.75101342,0.32580406

>  <Name>
ligand

>  <RI>
0

>  <Rbt.Current_Directory>
/home/itssahil/PROJECTS/Mol_Feturizer/Test_systems_manuscript/rnas/5c7w

>  <Rbt.Executable>
rbdock ($Id: //depot/dev/client3/rdock/2013.1/src/exe/rbdock.cxx#4 $)

>  <Rbt.Library>
libRbt.so (2013.1, Build901 2013/11/27)

>  <Rbt.Parameter_File>
/export/apps/rDock/src/rDock_2013.1_src/data/scripts/dock_solv.prm

>  <Rbt.Receptor>
prm/pocket_docking_3.prm

>  <SCORE>
-15.2317

>  <SCORE.INTER>
-15.2317

>  <SCORE.INTER.CONST>
1

>  <SCORE.INTER.POLAR>
0

>  <SCORE.INTER.ROT>
0

>  <SCORE.INTER.SOLV>
3.28877

>  <SCORE.INTER.VDW>
-14.8507

>  <SCORE.INTER.norm>
-1.52317

>  <SCORE.INTRA>
0

>  <SCORE.INTRA.DIHEDRAL>
0

>  <SCORE.INTRA.DIHEDRAL.0>
0

>  <SCORE.INTRA.POLAR>
0

>  <SCORE.INTRA.POLAR.0>
0

>  <SCORE.INTRA.REPUL>
0

>  <SCORE.INTRA.REPUL.0>
0

>  <SCORE.INTRA.SOLV>
0

>  <SCORE.INTRA.SOLV.lig_0>
-4.15853

>  <SCORE.INTRA.VDW>
0

>  <SCORE.INTRA.VDW.0>
0

>  <SCORE.INTRA.norm>
0

>  <SCORE.RESTR>
0

>  <SCORE.RESTR.CAVITY>
0

>  <SCORE.RESTR.norm>
0

>  <SCORE.SYSTEM>
0

>  <SCORE.SYSTEM.CONST>
0

>  <SCORE.SYSTEM.DIHEDRAL>
0

>  <SCORE.SYSTEM.SOLV>
0

>  <SCORE.SYSTEM.norm>
0

>  <SCORE.heavy>
10

>  <SCORE.norm>
-1.52317

>  <RMSD>
1.122

$$$$
ligand
 OpenBabel02271912153D
libRbt.so/2013.1/901 2013/11/27
 10 11  0  0  0  0  0  0  0  0999 V2000
    0.7934  -13.4519   12.2205 N   0  0  0  0  0  0  0  0  0  0  0  0
    1.7089  -13.5537   11.2812 C   0  0  0  0  0  0  0  0  0  0  0  0
    2.4438  -12.4202   10.9250 N   0  0  0  0  0  0  0  0  0  0  0  0
    2.2192  -11.2539   11.5254 C   0  0  0  0  0  0  0  0  0  0  0  0
    1.2981  -11.1544   12.4657 C   0  0  0  0  0  0  0  0  0  0  0  0
    0.5875  -12.2100   12.8167 C   0  0  0  0  0  0  0  0  0  0  0  0
   -0.2660  -12.0936   13.6849 O   0  0  0  0  0  0  0  0  0  0  0  0
    1.2704   -9.8991   12.9100 N   0  0  0  0  0  0  0  0  0  0  0  0
    2.1938   -9.2235   12.2354 C   0  0  0  0  0  0  0  0  0  0  0  0
    2.7781  -10.0634   11.3771 N   0  0  0  0  0  0  0  0  0  0  0  0
  1  2  1  0  0  0  0
  1  6  1  0  0  0  0
  2  3  2  0  0  0  0
  3  4  1  0  0  0  0
  4  5  2  0  0  0  0
  4 10  1  0  0  0  0
  5  6  1  0  0  0  0
  5  8  1  0  0  0  0
  6  7  2  0  0  0  0
  8  9  1  0  0  0  0
  9 10  2  0  0  0  0
M  END
>  <CHROM.1>
1.46856743,-11.54485494,12.17342465,-2.17925935,0.74928536,0.31735852

>  <Name>
ligand

>  <RI>
0

>  <Rbt.Current_Directory>
/home/itssahil/PROJECTS/Mol_Feturizer/Test_systems_manuscript/rnas/5c7w

>  <Rbt.Executable>
rbdock ($Id: //depot/dev/client3/rdock/2013.1/src/exe/rbdock.cxx#4 $)

>  <Rbt.Library>
libRbt.so (2013.1, Build901 2013/11/27)

>  <Rbt.Parameter_File>
/export/apps/rDock/src/rDock_2013.1_src/data/scripts/dock_solv.prm

>  <Rbt.Receptor>
prm/blind_docking_100.prm

>  <SCORE>
-15.2656

>  <SCORE.INTER>
-15.2656

>  <SCORE.INTER.CONST>
1

>  <SCORE.INTER.POLAR>
0

>  <SCORE.INTER.ROT>
0

>  <SCORE.INTER.SOLV>
3.29131

>  <SCORE.INTER.VDW>
-14.8742

>  <SCORE.INTER.norm>
-1.52656

>  <SCORE.INTRA>
0

>  <SCORE.INTRA.DIHEDRAL>
0

>  <SCORE.INTRA.DIHEDRAL.0>
0

>  <SCORE.INTRA.POLAR>
0

>  <SCORE.INTRA.POLAR.0>
0

>  <SCORE.INTRA.REPUL>
0

>  <SCORE.INTRA.REPUL.0>
0

>  <SCORE.INTRA.SOLV>
0

>  <SCORE.INTRA.SOLV.lig_0>
-4.15853

>  <SCORE.INTRA.VDW>
0

>  <SCORE.INTRA.VDW.0>
0

>  <SCORE.INTRA.norm>
0

>  <SCORE.RESTR>
0

>  <SCORE.RESTR.CAVITY>
0

>  <SCORE.RESTR.norm>
0

>  <SCORE.SYSTEM>
0

>  <SCORE.SYSTEM.CONST>
0

>  <SCORE.SYSTEM.DIHEDRAL>
0

>  <SCORE.SYSTEM.SOLV>
0

>  <SCORE.SYSTEM.norm>
0

>  <SCORE.heavy>
10

>  <SCORE.norm>
-1.52656

>  <RMSD>
1.123

$$$$
ligand
 OpenBabel02271912153D
libRbt.so/2013.1/901 2013/11/27
 10 11  0  0  0  0  0  0  0  0999 V2000
    0.7819  -13.4467   12.2050 N   0  0  0  0  0  0  0  0  0  0  0  0
    1.6922  -13.5440   11.2604 C   0  0  0  0  0  0  0  0  0  0  0  0
    2.4272  -12.4095   10.9074 N   0  0  0  0  0  0  0  0  0  0  0  0
    2.2077  -11.2467   11.5164 C   0  0  0  0  0  0  0  0  0  0  0  0
    1.2918  -11.1516   12.4621 C   0  0  0  0  0  0  0  0  0  0  0  0
    0.5813  -12.2083   12.8102 C   0  0  0  0  0  0  0  0  0  0  0  0
   -0.2674  -12.0959   13.6836 O   0  0  0  0  0  0  0  0  0  0  0  0
    1.2685   -9.8991   12.9145 N   0  0  0  0  0  0  0  0  0  0  0  0
    2.1896   -9.2208   12.2393 C   0  0  0  0  0  0  0  0  0  0  0  0
    2.7679  -10.0562   11.3726 N   0  0  0  0  0  0  0  0  0  0  0  0
  1  2  1  0  0  0  0
  1  6  1  0  0  0  0
  2  3  2  0  0  0  0
  3  4  1  0  0  0  0
  4  5  2  0  0  0  0
  4 10  1  0  0  0  0
  5  6  1  0  0  0  0
  5  8  1  0  0  0  0
  6  7  2  0  0  0  0
  8  9  1  0  0  0  0
  9 10  2  0  0  0  0
M  END
>  <CHROM.1>
1.46004216,-11.54050132,12.16649176,-2.18373119,0.75377747,0.32673844

>  <Name>
ligand

>  <RI>
0

>  <Rbt.Current_Directory>
/home/itssahil/PROJECTS/Mol_Feturizer/Test_systems_manuscript/rnas/5c7w

>  <Rbt.Executable>
rbdock ($Id: //depot/dev/client3/rdock/2013.1/src/exe/rbdock.cxx#4 $)

>  <Rbt.Library>
libRbt.so (2013.1, Build901 2013/11/27)

>  <Rbt.Parameter_File>
/export/apps/rDock/src/rDock_2013.1_src/data/scripts/dock_solv.prm

>  <Rbt.Receptor>
prm/pocket_docking_7.prm

>  <SCORE>
-15.2317

>  <SCORE.INTER>
-15.2317

>  <SCORE.INTER.CONST>
1

>  <SCORE.INTER.POLAR>
0

>  <SCORE.INTER.ROT>
0

>  <SCORE.INTER.SOLV>
3.29728

>  <SCORE.INTER.VDW>
-14.8535

>  <SCORE.INTER.norm>
-1.52317

>  <SCORE.INTRA>
0

>  <SCORE.INTRA.DIHEDRAL>
0

>  <SCORE.INTRA.DIHEDRAL.0>
0

>  <SCORE.INTRA.POLAR>
0

>  <SCORE.INTRA.POLAR.0>
0

>  <SCORE.INTRA.REPUL>
0

>  <SCORE.INTRA.REPUL.0>
0

>  <SCORE.INTRA.SOLV>
0

>  <SCORE.INTRA.SOLV.lig_0>
-4.15853

>  <SCORE.INTRA.VDW>
0

>  <SCORE.INTRA.VDW.0>
0

>  <SCORE.INTRA.norm>
0

>  <SCORE.RESTR>
0

>  <SCORE.RESTR.CAVITY>
0

>  <SCORE.RESTR.norm>
0

>  <SCORE.SYSTEM>
0

>  <SCORE.SYSTEM.CONST>
0

>  <SCORE.SYSTEM.DIHEDRAL>
0

>  <SCORE.SYSTEM.SOLV>
0

>  <SCORE.SYSTEM.norm>
0

>  <SCORE.heavy>
10

>  <SCORE.norm>
-1.52317

>  <RMSD>
1.123

$$$$
ligand
 OpenBabel02271912153D
libRbt.so/2013.1/901 2013/11/27
 10 11  0  0  0  0  0  0  0  0999 V2000
    0.7974  -13.4511   12.2253 N   0  0  0  0  0  0  0  0  0  0  0  0
    1.7103  -13.5533   11.2837 C   0  0  0  0  0  0  0  0  0  0  0  0
    2.4436  -12.4197   10.9242 N   0  0  0  0  0  0  0  0  0  0  0  0
    2.2199  -11.2529   11.5239 C   0  0  0  0  0  0  0  0  0  0  0  0
    1.3014  -11.1530   12.4667 C   0  0  0  0  0  0  0  0  0  0  0  0
    0.5925  -12.2087   12.8208 C   0  0  0  0  0  0  0  0  0  0  0  0
   -0.2587  -12.0918   13.6912 O   0  0  0  0  0  0  0  0  0  0  0  0
    1.2741   -9.8973   12.9097 N   0  0  0  0  0  0  0  0  0  0  0  0
    2.1953   -9.2218   12.2318 C   0  0  0  0  0  0  0  0  0  0  0  0
    2.7777  -10.0623   11.3728 N   0  0  0  0  0  0  0  0  0  0  0  0
  1  2  1  0  0  0  0
  1  6  1  0  0  0  0
  2  3  2  0  0  0  0
  3  4  1  0  0  0  0
  4  5  2  0  0  0  0
  4 10  1  0  0  0  0
  5  6  1  0  0  0  0
  5  8  1  0  0  0  0
  6  7  2  0  0  0  0
  8  9  1  0  0  0  0
  9 10  2  0  0  0  0
M  END
>  <CHROM.1>
1.47128942,-11.54366432,12.17434457,-2.17963807,0.75213645,0.31653542

>  <Name>
ligand

>  <RI>
0

>  <Rbt.Current_Directory>
/home/itssahil/PROJECTS/Mol_Feturizer/Test_systems_manuscript/rnas/5c7w

>  <Rbt.Executable>
rbdock ($Id: //depot/dev/client3/rdock/2013.1/src/exe/rbdock.cxx#4 $)

>  <Rbt.Library>
libRbt.so (2013.1, Build901 2013/11/27)

>  <Rbt.Parameter_File>
/export/apps/rDock/src/rDock_2013.1_src/data/scripts/dock_solv.prm

>  <Rbt.Receptor>
prm/pocket_docking_4.prm

>  <SCORE>
-15.265

>  <SCORE.INTER>
-15.265

>  <SCORE.INTER.CONST>
1

>  <SCORE.INTER.POLAR>
0

>  <SCORE.INTER.ROT>
0

>  <SCORE.INTER.SOLV>
3.29858

>  <SCORE.INTER.VDW>
-14.8762

>  <SCORE.INTER.norm>
-1.5265

>  <SCORE.INTRA>
0

>  <SCORE.INTRA.DIHEDRAL>
0

>  <SCORE.INTRA.DIHEDRAL.0>
0

>  <SCORE.INTRA.POLAR>
0

>  <SCORE.INTRA.POLAR.0>
0

>  <SCORE.INTRA.REPUL>
0

>  <SCORE.INTRA.REPUL.0>
0

>  <SCORE.INTRA.SOLV>
0

>  <SCORE.INTRA.SOLV.lig_0>
-4.15853

>  <SCORE.INTRA.VDW>
0

>  <SCORE.INTRA.VDW.0>
0

>  <SCORE.INTRA.norm>
0

>  <SCORE.RESTR>
0

>  <SCORE.RESTR.CAVITY>
0

>  <SCORE.RESTR.norm>
0

>  <SCORE.SYSTEM>
0

>  <SCORE.SYSTEM.CONST>
0

>  <SCORE.SYSTEM.DIHEDRAL>
0

>  <SCORE.SYSTEM.SOLV>
0

>  <SCORE.SYSTEM.norm>
0

>  <SCORE.heavy>
10

>  <SCORE.norm>
-1.5265

>  <RMSD>
1.125

$$$$
ligand
 OpenBabel02271912153D
libRbt.so/2013.1/901 2013/11/27
 10 11  0  0  0  0  0  0  0  0999 V2000
    0.7932  -13.4538   12.2167 N   0  0  0  0  0  0  0  0  0  0  0  0
    1.7080  -13.5555   11.2769 C   0  0  0  0  0  0  0  0  0  0  0  0
    2.4448  -12.4227   10.9223 N   0  0  0  0  0  0  0  0  0  0  0  0
    2.2225  -11.2571   11.5249 C   0  0  0  0  0  0  0  0  0  0  0  0
    1.3022  -11.1576   12.4658 C   0  0  0  0  0  0  0  0  0  0  0  0
    0.5899  -12.2126   12.8153 C   0  0  0  0  0  0  0  0  0  0  0  0
   -0.2630  -12.0962   13.6841 O   0  0  0  0  0  0  0  0  0  0  0  0
    1.2769   -9.9031   12.9124 N   0  0  0  0  0  0  0  0  0  0  0  0
    2.2012   -9.2279   12.2385 C   0  0  0  0  0  0  0  0  0  0  0  0
    2.7836  -10.0673   11.3784 N   0  0  0  0  0  0  0  0  0  0  0  0
  1  2  1  0  0  0  0
  1  6  1  0  0  0  0
  2  3  2  0  0  0  0
  3  4  1  0  0  0  0
  4  5  2  0  0  0  0
  4 10  1  0  0  0  0
  5  6  1  0  0  0  0
  5  8  1  0  0  0  0
  6  7  2  0  0  0  0
  8  9  1  0  0  0  0
  9 10  2  0  0  0  0
M  END
>  <CHROM.1>
1.47177075,-11.54787815,12.17274735,-2.18178499,0.74922017,0.32085903

>  <Name>
ligand

>  <RI>
0

>  <Rbt.Current_Directory>
/home/itssahil/PROJECTS/Mol_Feturizer/Test_systems_manuscript/rnas/5c7w

>  <Rbt.Executable>
rbdock ($Id: //depot/dev/client3/rdock/2013.1/src/exe/rbdock.cxx#4 $)

>  <Rbt.Library>
libRbt.so (2013.1, Build901 2013/11/27)

>  <Rbt.Parameter_File>
/export/apps/rDock/src/rDock_2013.1_src/data/scripts/dock_solv.prm

>  <Rbt.Receptor>
prm/pocket_docking_6.prm

>  <SCORE>
-15.2656

>  <SCORE.INTER>
-15.2656

>  <SCORE.INTER.CONST>
1

>  <SCORE.INTER.POLAR>
0

>  <SCORE.INTER.ROT>
0

>  <SCORE.INTER.SOLV>
3.29041

>  <SCORE.INTER.VDW>
-14.8739

>  <SCORE.INTER.norm>
-1.52656

>  <SCORE.INTRA>
0

>  <SCORE.INTRA.DIHEDRAL>
0

>  <SCORE.INTRA.DIHEDRAL.0>
0

>  <SCORE.INTRA.POLAR>
0

>  <SCORE.INTRA.POLAR.0>
0

>  <SCORE.INTRA.REPUL>
0

>  <SCORE.INTRA.REPUL.0>
0

>  <SCORE.INTRA.SOLV>
0

>  <SCORE.INTRA.SOLV.lig_0>
-4.15853

>  <SCORE.INTRA.VDW>
0

>  <SCORE.INTRA.VDW.0>
0

>  <SCORE.INTRA.norm>
0

>  <SCORE.RESTR>
0

>  <SCORE.RESTR.CAVITY>
0

>  <SCORE.RESTR.norm>
0

>  <SCORE.SYSTEM>
0

>  <SCORE.SYSTEM.CONST>
0

>  <SCORE.SYSTEM.DIHEDRAL>
0

>  <SCORE.SYSTEM.SOLV>
0

>  <SCORE.SYSTEM.norm>
0

>  <SCORE.heavy>
10

>  <SCORE.norm>
-1.52656

>  <RMSD>
1.125

$$$$
ligand
 OpenBabel02271912153D
libRbt.so/2013.1/901 2013/11/27
 10 11  0  0  0  0  0  0  0  0999 V2000
    0.7804  -13.4402   12.1909 N   0  0  0  0  0  0  0  0  0  0  0  0
    1.6994  -13.5389   11.2548 C   0  0  0  0  0  0  0  0  0  0  0  0
    2.4405  -12.4058   10.9100 N   0  0  0  0  0  0  0  0  0  0  0  0
    2.2181  -11.2430   11.5180 C   0  0  0  0  0  0  0  0  0  0  0  0
    1.2935  -11.1466   12.4551 C   0  0  0  0  0  0  0  0  0  0  0  0
    0.5771  -12.2019   12.7953 C   0  0  0  0  0  0  0  0  0  0  0  0
   -0.2796  -12.0883   13.6607 O   0  0  0  0  0  0  0  0  0  0  0  0
    1.2690   -9.8946   12.9086 N   0  0  0  0  0  0  0  0  0  0  0  0
    2.1981   -9.2178   12.2428 C   0  0  0  0  0  0  0  0  0  0  0  0
    2.7826  -10.0538   11.3808 N   0  0  0  0  0  0  0  0  0  0  0  0
  1  2  1  0  0  0  0
  1  6  1  0  0  0  0
  2  3  2  0  0  0  0
  3  4  1  0  0  0  0
  4  5  2  0  0  0  0
  4 10  1  0  0  0  0
  5  6  1  0  0  0  0
  5  8  1  0  0  0  0
  6  7  2  0  0  0  0
  8  9  1  0  0  0  0
  9 10  2  0  0  0  0
M  END
>  <CHROM.1>
1.46358306,-11.53567552,12.16071775,-2.18274501,0.74397217,0.32708217

>  <Name>
ligand

>  <RI>
0

>  <Rbt.Current_Directory>
/home/itssahil/PROJECTS/Mol_Feturizer/Test_systems_manuscript/rnas/5c7w

>  <Rbt.Executable>
rbdock ($Id: //depot/dev/client3/rdock/2013.1/src/exe/rbdock.cxx#4 $)

>  <Rbt.Library>
libRbt.so (2013.1, Build901 2013/11/27)

>  <Rbt.Parameter_File>
/export/apps/rDock/src/rDock_2013.1_src/data/scripts/dock_solv.prm

>  <Rbt.Receptor>
prm/pocket_docking_4.prm

>  <SCORE>
-15.2277

>  <SCORE.INTER>
-15.2277

>  <SCORE.INTER.CONST>
1

>  <SCORE.INTER.POLAR>
0

>  <SCORE.INTER.ROT>
0

>  <SCORE.INTER.SOLV>
3.26442

>  <SCORE.INTER.VDW>
-14.84

>  <SCORE.INTER.norm>
-1.52277

>  <SCORE.INTRA>
0

>  <SCORE.INTRA.DIHEDRAL>
0

>  <SCORE.INTRA.DIHEDRAL.0>
0

>  <SCORE.INTRA.POLAR>
0

>  <SCORE.INTRA.POLAR.0>
0

>  <SCORE.INTRA.REPUL>
0

>  <SCORE.INTRA.REPUL.0>
0

>  <SCORE.INTRA.SOLV>
0

>  <SCORE.INTRA.SOLV.lig_0>
-4.15853

>  <SCORE.INTRA.VDW>
0

>  <SCORE.INTRA.VDW.0>
0

>  <SCORE.INTRA.norm>
0

>  <SCORE.RESTR>
0

>  <SCORE.RESTR.CAVITY>
0

>  <SCORE.RESTR.norm>
0

>  <SCORE.SYSTEM>
0

>  <SCORE.SYSTEM.CONST>
0

>  <SCORE.SYSTEM.DIHEDRAL>
0

>  <SCORE.SYSTEM.SOLV>
0

>  <SCORE.SYSTEM.norm>
0

>  <SCORE.heavy>
10

>  <SCORE.norm>
-1.52277

>  <RMSD>
1.126

$$$$
ligand
 OpenBabel02271912153D
libRbt.so/2013.1/901 2013/11/27
 10 11  0  0  0  0  0  0  0  0999 V2000
    0.7831  -13.4482   12.1987 N   0  0  0  0  0  0  0  0  0  0  0  0
    1.6933  -13.5458   11.2539 C   0  0  0  0  0  0  0  0  0  0  0  0
    2.4303  -12.4121   10.9026 N   0  0  0  0  0  0  0  0  0  0  0  0
    2.2128  -11.2497   11.5132 C   0  0  0  0  0  0  0  0  0  0  0  0
    1.2971  -11.1544   12.4591 C   0  0  0  0  0  0  0  0  0  0  0  0
    0.5847  -12.2103   12.8055 C   0  0  0  0  0  0  0  0  0  0  0  0
   -0.2639  -12.0977   13.6791 O   0  0  0  0  0  0  0  0  0  0  0  0
    1.2760   -9.9025   12.9133 N   0  0  0  0  0  0  0  0  0  0  0  0
    2.1983   -9.2248   12.2390 C   0  0  0  0  0  0  0  0  0  0  0  0
    2.7751  -10.0600   11.3712 N   0  0  0  0  0  0  0  0  0  0  0  0
  1  2  1  0  0  0  0
  1  6  1  0  0  0  0
  2  3  2  0  0  0  0
  3  4  1  0  0  0  0
  4  5  2  0  0  0  0
  4 10  1  0  0  0  0
  5  6  1  0  0  0  0
  5  8  1  0  0  0  0
  6  7  2  0  0  0  0
  8  9  1  0  0  0  0
  9 10  2  0  0  0  0
M  END
>  <CHROM.1>
1.46463561,-11.54315788,12.16286774,-2.18600335,0.75317080,0.32972962

>  <Name>
ligand

>  <RI>
0

>  <Rbt.Current_Directory>
/home/itssahil/PROJECTS/Mol_Feturizer/Test_systems_manuscript/rnas/5c7w

>  <Rbt.Executable>
rbdock ($Id: //depot/dev/client3/rdock/2013.1/src/exe/rbdock.cxx#4 $)

>  <Rbt.Library>
libRbt.so (2013.1, Build901 2013/11/27)

>  <Rbt.Parameter_File>
/export/apps/rDock/src/rDock_2013.1_src/data/scripts/dock_solv.prm

>  <Rbt.Receptor>
prm/pocket_docking_8.prm

>  <SCORE>
-15.2323

>  <SCORE.INTER>
-15.2323

>  <SCORE.INTER.CONST>
1

>  <SCORE.INTER.POLAR>
0

>  <SCORE.INTER.ROT>
0

>  <SCORE.INTER.SOLV>
3.29259

>  <SCORE.INTER.VDW>
-14.8524

>  <SCORE.INTER.norm>
-1.52323

>  <SCORE.INTRA>
0

>  <SCORE.INTRA.DIHEDRAL>
0

>  <SCORE.INTRA.DIHEDRAL.0>
0

>  <SCORE.INTRA.POLAR>
0

>  <SCORE.INTRA.POLAR.0>
0

>  <SCORE.INTRA.REPUL>
0

>  <SCORE.INTRA.REPUL.0>
0

>  <SCORE.INTRA.SOLV>
0

>  <SCORE.INTRA.SOLV.lig_0>
-4.15853

>  <SCORE.INTRA.VDW>
0

>  <SCORE.INTRA.VDW.0>
0

>  <SCORE.INTRA.norm>
0

>  <SCORE.RESTR>
0

>  <SCORE.RESTR.CAVITY>
0

>  <SCORE.RESTR.norm>
0

>  <SCORE.SYSTEM>
0

>  <SCORE.SYSTEM.CONST>
0

>  <SCORE.SYSTEM.DIHEDRAL>
0

>  <SCORE.SYSTEM.SOLV>
0

>  <SCORE.SYSTEM.norm>
0

>  <SCORE.heavy>
10

>  <SCORE.norm>
-1.52323

>  <RMSD>
1.126

$$$$
ligand
 OpenBabel02271912153D
libRbt.so/2013.1/901 2013/11/27
 10 11  0  0  0  0  0  0  0  0999 V2000
    0.7849  -13.4539   12.1979 N   0  0  0  0  0  0  0  0  0  0  0  0
    1.6934  -13.5483   11.2512 C   0  0  0  0  0  0  0  0  0  0  0  0
    2.4272  -12.4125   10.8999 N   0  0  0  0  0  0  0  0  0  0  0  0
    2.2084  -11.2514   11.5124 C   0  0  0  0  0  0  0  0  0  0  0  0
    1.2943  -11.1593   12.4602 C   0  0  0  0  0  0  0  0  0  0  0  0
    0.5849  -12.2172   12.8067 C   0  0  0  0  0  0  0  0  0  0  0  0
   -0.2622  -12.1076   13.6821 O   0  0  0  0  0  0  0  0  0  0  0  0
    1.2713   -9.9081   12.9160 N   0  0  0  0  0  0  0  0  0  0  0  0
    2.1908   -9.2275   12.2408 C   0  0  0  0  0  0  0  0  0  0  0  0
    2.7678  -10.0603   11.3708 N   0  0  0  0  0  0  0  0  0  0  0  0
  1  2  1  0  0  0  0
  1  6  1  0  0  0  0
  2  3  2  0  0  0  0
  3  4  1  0  0  0  0
  4  5  2  0  0  0  0
  4 10  1  0  0  0  0
  5  6  1  0  0  0  0
  5  8  1  0  0  0  0
  6  7  2  0  0  0  0
  8  9  1  0  0  0  0
  9 10  2  0  0  0  0
M  END
>  <CHROM.1>
1.46214108,-11.54733233,12.16318141,-2.18401190,0.75573793,0.32962760

>  <Name>
ligand

>  <RI>
0

>  <Rbt.Current_Directory>
/home/itssahil/PROJECTS/Mol_Feturizer/Test_systems_manuscript/rnas/5c7w

>  <Rbt.Executable>
rbdock ($Id: //depot/dev/client3/rdock/2013.1/src/exe/rbdock.cxx#4 $)

>  <Rbt.Library>
libRbt.so (2013.1, Build901 2013/11/27)

>  <Rbt.Parameter_File>
/export/apps/rDock/src/rDock_2013.1_src/data/scripts/dock_solv.prm

>  <Rbt.Receptor>
prm/blind_docking_60.prm

>  <SCORE>
-15.232

>  <SCORE.INTER>
-15.232

>  <SCORE.INTER.CONST>
1

>  <SCORE.INTER.POLAR>
0

>  <SCORE.INTER.ROT>
0

>  <SCORE.INTER.SOLV>
3.30238

>  <SCORE.INTER.VDW>
-14.8554

>  <SCORE.INTER.norm>
-1.5232

>  <SCORE.INTRA>
0

>  <SCORE.INTRA.DIHEDRAL>
0

>  <SCORE.INTRA.DIHEDRAL.0>
0

>  <SCORE.INTRA.POLAR>
0

>  <SCORE.INTRA.POLAR.0>
0

>  <SCORE.INTRA.REPUL>
0

>  <SCORE.INTRA.REPUL.0>
0

>  <SCORE.INTRA.SOLV>
0

>  <SCORE.INTRA.SOLV.lig_0>
-4.15853

>  <SCORE.INTRA.VDW>
0

>  <SCORE.INTRA.VDW.0>
0

>  <SCORE.INTRA.norm>
0

>  <SCORE.RESTR>
0

>  <SCORE.RESTR.CAVITY>
0

>  <SCORE.RESTR.norm>
0

>  <SCORE.SYSTEM>
0

>  <SCORE.SYSTEM.CONST>
0

>  <SCORE.SYSTEM.DIHEDRAL>
0

>  <SCORE.SYSTEM.SOLV>
0

>  <SCORE.SYSTEM.norm>
0

>  <SCORE.heavy>
10

>  <SCORE.norm>
-1.5232

>  <RMSD>
1.127

$$$$
ligand
 OpenBabel02271912153D
libRbt.so/2013.1/901 2013/11/27
 10 11  0  0  0  0  0  0  0  0999 V2000
    0.7901  -13.4516   12.2042 N   0  0  0  0  0  0  0  0  0  0  0  0
    1.6975  -13.5459   11.2563 C   0  0  0  0  0  0  0  0  0  0  0  0
    2.4272  -12.4089   10.9006 N   0  0  0  0  0  0  0  0  0  0  0  0
    2.2057  -11.2467   11.5101 C   0  0  0  0  0  0  0  0  0  0  0  0
    1.2929  -11.1547   12.4591 C   0  0  0  0  0  0  0  0  0  0  0  0
    0.5873  -12.2138   12.8098 C   0  0  0  0  0  0  0  0  0  0  0  0
   -0.2587  -12.1043   13.6862 O   0  0  0  0  0  0  0  0  0  0  0  0
    1.2667   -9.9023   12.9114 N   0  0  0  0  0  0  0  0  0  0  0  0
    2.1830   -9.2208   12.2328 C   0  0  0  0  0  0  0  0  0  0  0  0
    2.7612  -10.0543   11.3642 N   0  0  0  0  0  0  0  0  0  0  0  0
  1  2  1  0  0  0  0
  1  6  1  0  0  0  0
  2  3  2  0  0  0  0
  3  4  1  0  0  0  0
  4  5  2  0  0  0  0
  4 10  1  0  0  0  0
  5  6  1  0  0  0  0
  5  8  1  0  0  0  0
  6  7  2  0  0  0  0
  8  9  1  0  0  0  0
  9 10  2  0  0  0  0
M  END
>  <CHROM.1>
1.46142157,-11.54306740,12.16292862,-2.18068249,0.75826250,0.32448134

>  <Name>
ligand

>  <RI>
0

>  <Rbt.Current_Directory>
/home/itssahil/PROJECTS/Mol_Feturizer/Test_systems_manuscript/rnas/5c7w

>  <Rbt.Executable>
rbdock ($Id: //depot/dev/client3/rdock/2013.1/src/exe/rbdock.cxx#4 $)

>  <Rbt.Library>
libRbt.so (2013.1, Build901 2013/11/27)

>  <Rbt.Parameter_File>
/export/apps/rDock/src/rDock_2013.1_src/data/scripts/dock_solv.prm

>  <Rbt.Receptor>
prm/blind_docking_20.prm

>  <SCORE>
-15.2319

>  <SCORE.INTER>
-15.2319

>  <SCORE.INTER.CONST>
1

>  <SCORE.INTER.POLAR>
0

>  <SCORE.INTER.ROT>
0

>  <SCORE.INTER.SOLV>
3.3083

>  <SCORE.INTER.VDW>
-14.8574

>  <SCORE.INTER.norm>
-1.52319

>  <SCORE.INTRA>
0

>  <SCORE.INTRA.DIHEDRAL>
0

>  <SCORE.INTRA.DIHEDRAL.0>
0

>  <SCORE.INTRA.POLAR>
0

>  <SCORE.INTRA.POLAR.0>
0

>  <SCORE.INTRA.REPUL>
0

>  <SCORE.INTRA.REPUL.0>
0

>  <SCORE.INTRA.SOLV>
0

>  <SCORE.INTRA.SOLV.lig_0>
-4.15853

>  <SCORE.INTRA.VDW>
0

>  <SCORE.INTRA.VDW.0>
0

>  <SCORE.INTRA.norm>
0

>  <SCORE.RESTR>
0

>  <SCORE.RESTR.CAVITY>
0

>  <SCORE.RESTR.norm>
0

>  <SCORE.SYSTEM>
0

>  <SCORE.SYSTEM.CONST>
0

>  <SCORE.SYSTEM.DIHEDRAL>
0

>  <SCORE.SYSTEM.SOLV>
0

>  <SCORE.SYSTEM.norm>
0

>  <SCORE.heavy>
10

>  <SCORE.norm>
-1.52319

>  <RMSD>
1.128

$$$$
ligand
 OpenBabel02271912153D
libRbt.so/2013.1/901 2013/11/27
 10 11  0  0  0  0  0  0  0  0999 V2000
    0.7902  -13.4474   12.2054 N   0  0  0  0  0  0  0  0  0  0  0  0
    1.6975  -13.5450   11.2579 C   0  0  0  0  0  0  0  0  0  0  0  0
    2.4312  -12.4105   10.9021 N   0  0  0  0  0  0  0  0  0  0  0  0
    2.2133  -11.2474   11.5111 C   0  0  0  0  0  0  0  0  0  0  0  0
    1.3004  -11.1520   12.4597 C   0  0  0  0  0  0  0  0  0  0  0  0
    0.5912  -12.2087   12.8105 C   0  0  0  0  0  0  0  0  0  0  0  0
   -0.2548  -12.0961   13.6866 O   0  0  0  0  0  0  0  0  0  0  0  0
    1.2782   -9.8994   12.9116 N   0  0  0  0  0  0  0  0  0  0  0  0
    2.1970   -9.2211   12.2331 C   0  0  0  0  0  0  0  0  0  0  0  0
    2.7728  -10.0569   11.3650 N   0  0  0  0  0  0  0  0  0  0  0  0
  1  2  1  0  0  0  0
  1  6  1  0  0  0  0
  2  3  2  0  0  0  0
  3  4  1  0  0  0  0
  4  5  2  0  0  0  0
  4 10  1  0  0  0  0
  5  6  1  0  0  0  0
  5  8  1  0  0  0  0
  6  7  2  0  0  0  0
  8  9  1  0  0  0  0
  9 10  2  0  0  0  0
M  END
>  <CHROM.1>
1.46778222,-11.54107198,12.16376145,-2.18482281,0.75683472,0.32698033

>  <Name>
ligand

>  <RI>
0

>  <Rbt.Current_Directory>
/home/itssahil/PROJECTS/Mol_Feturizer/Test_systems_manuscript/rnas/5c7w

>  <Rbt.Executable>
rbdock ($Id: //depot/dev/client3/rdock/2013.1/src/exe/rbdock.cxx#4 $)

>  <Rbt.Library>
libRbt.so (2013.1, Build901 2013/11/27)

>  <Rbt.Parameter_File>
/export/apps/rDock/src/rDock_2013.1_src/data/scripts/dock_solv.prm

>  <Rbt.Receptor>
prm/pocket_docking_6.prm

>  <SCORE>
-15.2332

>  <SCORE.INTER>
-15.2332

>  <SCORE.INTER.CONST>
1

>  <SCORE.INTER.POLAR>
0

>  <SCORE.INTER.ROT>
0

>  <SCORE.INTER.SOLV>
3.30165

>  <SCORE.INTER.VDW>
-14.856

>  <SCORE.INTER.norm>
-1.52332

>  <SCORE.INTRA>
0

>  <SCORE.INTRA.DIHEDRAL>
0

>  <SCORE.INTRA.DIHEDRAL.0>
0

>  <SCORE.INTRA.POLAR>
0

>  <SCORE.INTRA.POLAR.0>
0

>  <SCORE.INTRA.REPUL>
0

>  <SCORE.INTRA.REPUL.0>
0

>  <SCORE.INTRA.SOLV>
0

>  <SCORE.INTRA.SOLV.lig_0>
-4.15853

>  <SCORE.INTRA.VDW>
0

>  <SCORE.INTRA.VDW.0>
0

>  <SCORE.INTRA.norm>
0

>  <SCORE.RESTR>
0

>  <SCORE.RESTR.CAVITY>
0

>  <SCORE.RESTR.norm>
0

>  <SCORE.SYSTEM>
0

>  <SCORE.SYSTEM.CONST>
0

>  <SCORE.SYSTEM.DIHEDRAL>
0

>  <SCORE.SYSTEM.SOLV>
0

>  <SCORE.SYSTEM.norm>
0

>  <SCORE.heavy>
10

>  <SCORE.norm>
-1.52332

>  <RMSD>
1.128

$$$$
ligand
 OpenBabel02271912153D
libRbt.so/2013.1/901 2013/11/27
 10 11  0  0  0  0  0  0  0  0999 V2000
    0.7841  -13.4447   12.1889 N   0  0  0  0  0  0  0  0  0  0  0  0
    1.6977  -13.5405   11.2471 C   0  0  0  0  0  0  0  0  0  0  0  0
    2.4363  -12.4062   10.9012 N   0  0  0  0  0  0  0  0  0  0  0  0
    2.2171  -11.2452   11.5137 C   0  0  0  0  0  0  0  0  0  0  0  0
    1.2980  -11.1517   12.4565 C   0  0  0  0  0  0  0  0  0  0  0  0
    0.5840  -12.2082   12.7979 C   0  0  0  0  0  0  0  0  0  0  0  0
   -0.2677  -12.0974   13.6687 O   0  0  0  0  0  0  0  0  0  0  0  0
    1.2756   -9.9010   12.9135 N   0  0  0  0  0  0  0  0  0  0  0  0
    2.2006   -9.2220   12.2442 C   0  0  0  0  0  0  0  0  0  0  0  0
    2.7803  -10.0554   11.3765 N   0  0  0  0  0  0  0  0  0  0  0  0
  1  2  1  0  0  0  0
  1  6  1  0  0  0  0
  2  3  2  0  0  0  0
  3  4  1  0  0  0  0
  4  5  2  0  0  0  0
  4 10  1  0  0  0  0
  5  6  1  0  0  0  0
  5  8  1  0  0  0  0
  6  7  2  0  0  0  0
  8  9  1  0  0  0  0
  9 10  2  0  0  0  0
M  END
>  <CHROM.1>
1.46643924,-11.53989338,12.15998178,-2.18485301,0.74965212,0.33128214

>  <Name>
ligand

>  <RI>
0

>  <Rbt.Current_Directory>
/home/itssahil/PROJECTS/Mol_Feturizer/Test_systems_manuscript/rnas/5c7w

>  <Rbt.Executable>
rbdock ($Id: //depot/dev/client3/rdock/2013.1/src/exe/rbdock.cxx#4 $)

>  <Rbt.Library>
libRbt.so (2013.1, Build901 2013/11/27)

>  <Rbt.Parameter_File>
/export/apps/rDock/src/rDock_2013.1_src/data/scripts/dock_solv.prm

>  <Rbt.Receptor>
prm/blind_docking_20.prm

>  <SCORE>
-15.2301

>  <SCORE.INTER>
-15.2301

>  <SCORE.INTER.CONST>
1

>  <SCORE.INTER.POLAR>
0

>  <SCORE.INTER.ROT>
0

>  <SCORE.INTER.SOLV>
3.2796

>  <SCORE.INTER.VDW>
-14.8466

>  <SCORE.INTER.norm>
-1.52301

>  <SCORE.INTRA>
0

>  <SCORE.INTRA.DIHEDRAL>
0

>  <SCORE.INTRA.DIHEDRAL.0>
0

>  <SCORE.INTRA.POLAR>
0

>  <SCORE.INTRA.POLAR.0>
0

>  <SCORE.INTRA.REPUL>
0

>  <SCORE.INTRA.REPUL.0>
0

>  <SCORE.INTRA.SOLV>
0

>  <SCORE.INTRA.SOLV.lig_0>
-4.15853

>  <SCORE.INTRA.VDW>
0

>  <SCORE.INTRA.VDW.0>
0

>  <SCORE.INTRA.norm>
0

>  <SCORE.RESTR>
0

>  <SCORE.RESTR.CAVITY>
0

>  <SCORE.RESTR.norm>
0

>  <SCORE.SYSTEM>
0

>  <SCORE.SYSTEM.CONST>
0

>  <SCORE.SYSTEM.DIHEDRAL>
0

>  <SCORE.SYSTEM.SOLV>
0

>  <SCORE.SYSTEM.norm>
0

>  <SCORE.heavy>
10

>  <SCORE.norm>
-1.52301

>  <RMSD>
1.130

$$$$
ligand
 OpenBabel02271912153D
libRbt.so/2013.1/901 2013/11/27
 10 11  0  0  0  0  0  0  0  0999 V2000
    0.8024  -13.4425   12.2147 N   0  0  0  0  0  0  0  0  0  0  0  0
    1.7461  -13.5368   11.3030 C   0  0  0  0  0  0  0  0  0  0  0  0
    2.4824  -12.3974   10.9690 N   0  0  0  0  0  0  0  0  0  0  0  0
    2.2309  -11.2331   11.5627 C   0  0  0  0  0  0  0  0  0  0  0  0
    1.2817  -11.1413   12.4753 C   0  0  0  0  0  0  0  0  0  0  0  0
    0.5692  -12.2026   12.8048 C   0  0  0  0  0  0  0  0  0  0  0  0
   -0.3106  -12.0932   13.6473 O   0  0  0  0  0  0  0  0  0  0  0  0
    1.2309   -9.8865   12.9189 N   0  0  0  0  0  0  0  0  0  0  0  0
    2.1686   -9.2033   12.2721 C   0  0  0  0  0  0  0  0  0  0  0  0
    2.7847  -10.0383   11.4313 N   0  0  0  0  0  0  0  0  0  0  0  0
  1  2  1  0  0  0  0
  1  6  1  0  0  0  0
  2  3  2  0  0  0  0
  3  4  1  0  0  0  0
  4  5  2  0  0  0  0
  4 10  1  0  0  0  0
  5  6  1  0  0  0  0
  5  8  1  0  0  0  0
  6  7  2  0  0  0  0
  8  9  1  0  0  0  0
  9 10  2  0  0  0  0
M  END
>  <CHROM.1>
1.46372860,-11.53028093,12.18810914,-2.15697030,0.72339686,0.30271766

>  <Name>
ligand

>  <RI>
0

>  <Rbt.Current_Directory>
/home/itssahil/PROJECTS/Mol_Feturizer/Test_systems_manuscript/rnas/5c7w

>  <Rbt.Executable>
rbdock ($Id: //depot/dev/client3/rdock/2013.1/src/exe/rbdock.cxx#4 $)

>  <Rbt.Library>
libRbt.so (2013.1, Build901 2013/11/27)

>  <Rbt.Parameter_File>
/export/apps/rDock/src/rDock_2013.1_src/data/scripts/dock_solv.prm

>  <Rbt.Receptor>
prm/blind_docking_60.prm

>  <SCORE>
-15.2487

>  <SCORE.INTER>
-15.2487

>  <SCORE.INTER.CONST>
1

>  <SCORE.INTER.POLAR>
0

>  <SCORE.INTER.ROT>
0

>  <SCORE.INTER.SOLV>
3.23794

>  <SCORE.INTER.VDW>
-14.8451

>  <SCORE.INTER.norm>
-1.52487

>  <SCORE.INTRA>
0

>  <SCORE.INTRA.DIHEDRAL>
0

>  <SCORE.INTRA.DIHEDRAL.0>
0

>  <SCORE.INTRA.POLAR>
0

>  <SCORE.INTRA.POLAR.0>
0

>  <SCORE.INTRA.REPUL>
0

>  <SCORE.INTRA.REPUL.0>
0

>  <SCORE.INTRA.SOLV>
0

>  <SCORE.INTRA.SOLV.lig_0>
-4.15853

>  <SCORE.INTRA.VDW>
0

>  <SCORE.INTRA.VDW.0>
0

>  <SCORE.INTRA.norm>
0

>  <SCORE.RESTR>
0

>  <SCORE.RESTR.CAVITY>
0

>  <SCORE.RESTR.norm>
0

>  <SCORE.SYSTEM>
0

>  <SCORE.SYSTEM.CONST>
0

>  <SCORE.SYSTEM.DIHEDRAL>
0

>  <SCORE.SYSTEM.SOLV>
0

>  <SCORE.SYSTEM.norm>
0

>  <SCORE.heavy>
10

>  <SCORE.norm>
-1.52487

>  <RMSD>
1.130

$$$$
ligand
 OpenBabel02271912153D
libRbt.so/2013.1/901 2013/11/27
 10 11  0  0  0  0  0  0  0  0999 V2000
    0.7945  -13.4487   12.2029 N   0  0  0  0  0  0  0  0  0  0  0  0
    1.7035  -13.5438   11.2567 C   0  0  0  0  0  0  0  0  0  0  0  0
    2.4350  -12.4075   10.9024 N   0  0  0  0  0  0  0  0  0  0  0  0
    2.2135  -11.2451   11.5116 C   0  0  0  0  0  0  0  0  0  0  0  0
    1.2990  -11.1523   12.4589 C   0  0  0  0  0  0  0  0  0  0  0  0
    0.5917  -12.2108   12.8082 C   0  0  0  0  0  0  0  0  0  0  0  0
   -0.2558  -12.1005   13.6831 O   0  0  0  0  0  0  0  0  0  0  0  0
    1.2732   -9.8999   12.9112 N   0  0  0  0  0  0  0  0  0  0  0  0
    2.1913   -9.2192   12.2344 C   0  0  0  0  0  0  0  0  0  0  0  0
    2.7704  -10.0532   11.3668 N   0  0  0  0  0  0  0  0  0  0  0  0
  1  2  1  0  0  0  0
  1  6  1  0  0  0  0
  2  3  2  0  0  0  0
  3  4  1  0  0  0  0
  4  5  2  0  0  0  0
  4 10  1  0  0  0  0
  5  6  1  0  0  0  0
  5  8  1  0  0  0  0
  6  7  2  0  0  0  0
  8  9  1  0  0  0  0
  9 10  2  0  0  0  0
M  END
>  <CHROM.1>
1.46767454,-11.54080941,12.16302984,-2.18110776,0.75618359,0.32484180

>  <Name>
ligand

>  <RI>
0

>  <Rbt.Current_Directory>
/home/itssahil/PROJECTS/Mol_Feturizer/Test_systems_manuscript/rnas/5c7w

>  <Rbt.Executable>
rbdock ($Id: //depot/dev/client3/rdock/2013.1/src/exe/rbdock.cxx#4 $)

>  <Rbt.Library>
libRbt.so (2013.1, Build901 2013/11/27)

>  <Rbt.Parameter_File>
/export/apps/rDock/src/rDock_2013.1_src/data/scripts/dock_solv.prm

>  <Rbt.Receptor>
prm/pocket_docking_6.prm

>  <SCORE>
-15.2326

>  <SCORE.INTER>
-15.2326

>  <SCORE.INTER.CONST>
1

>  <SCORE.INTER.POLAR>
0

>  <SCORE.INTER.ROT>
0

>  <SCORE.INTER.SOLV>
3.30039

>  <SCORE.INTER.VDW>
-14.8552

>  <SCORE.INTER.norm>
-1.52326

>  <SCORE.INTRA>
0

>  <SCORE.INTRA.DIHEDRAL>
0

>  <SCORE.INTRA.DIHEDRAL.0>
0

>  <SCORE.INTRA.POLAR>
0

>  <SCORE.INTRA.POLAR.0>
0

>  <SCORE.INTRA.REPUL>
0

>  <SCORE.INTRA.REPUL.0>
0

>  <SCORE.INTRA.SOLV>
0

>  <SCORE.INTRA.SOLV.lig_0>
-4.15853

>  <SCORE.INTRA.VDW>
0

>  <SCORE.INTRA.VDW.0>
0

>  <SCORE.INTRA.norm>
0

>  <SCORE.RESTR>
0

>  <SCORE.RESTR.CAVITY>
0

>  <SCORE.RESTR.norm>
0

>  <SCORE.SYSTEM>
0

>  <SCORE.SYSTEM.CONST>
0

>  <SCORE.SYSTEM.DIHEDRAL>
0

>  <SCORE.SYSTEM.SOLV>
0

>  <SCORE.SYSTEM.norm>
0

>  <SCORE.heavy>
10

>  <SCORE.norm>
-1.52326

>  <RMSD>
1.131

$$$$
ligand
 OpenBabel02271912153D
libRbt.so/2013.1/901 2013/11/27
 10 11  0  0  0  0  0  0  0  0999 V2000
    0.7984  -13.4456   12.1965 N   0  0  0  0  0  0  0  0  0  0  0  0
    1.7107  -13.5401   11.2534 C   0  0  0  0  0  0  0  0  0  0  0  0
    2.4441  -12.4038   10.9031 N   0  0  0  0  0  0  0  0  0  0  0  0
    2.2211  -11.2420   11.5128 C   0  0  0  0  0  0  0  0  0  0  0  0
    1.3033  -11.1498   12.4570 C   0  0  0  0  0  0  0  0  0  0  0  0
    0.5942  -12.2083   12.8025 C   0  0  0  0  0  0  0  0  0  0  0  0
   -0.2564  -12.0985   13.6745 O   0  0  0  0  0  0  0  0  0  0  0  0
    1.2766   -9.8979   12.9107 N   0  0  0  0  0  0  0  0  0  0  0  0
    2.1976   -9.2169   12.2379 C   0  0  0  0  0  0  0  0  0  0  0  0
    2.7792  -10.0503   11.3714 N   0  0  0  0  0  0  0  0  0  0  0  0
  1  2  1  0  0  0  0
  1  6  1  0  0  0  0
  2  3  2  0  0  0  0
  3  4  1  0  0  0  0
  4  5  2  0  0  0  0
  4 10  1  0  0  0  0
  5  6  1  0  0  0  0
  5  8  1  0  0  0  0
  6  7  2  0  0  0  0
  8  9  1  0  0  0  0
  9 10  2  0  0  0  0
M  END
>  <CHROM.1>
1.47284864,-11.53802987,12.16124910,-2.18031395,0.75263734,0.32548028

>  <Name>
ligand

>  <RI>
0

>  <Rbt.Current_Directory>
/home/itssahil/PROJECTS/Mol_Feturizer/Test_systems_manuscript/rnas/5c7w

>  <Rbt.Executable>
rbdock ($Id: //depot/dev/client3/rdock/2013.1/src/exe/rbdock.cxx#4 $)

>  <Rbt.Library>
libRbt.so (2013.1, Build901 2013/11/27)

>  <Rbt.Parameter_File>
/export/apps/rDock/src/rDock_2013.1_src/data/scripts/dock_solv.prm

>  <Rbt.Receptor>
prm/pocket_docking_7.prm

>  <SCORE>
-15.2316

>  <SCORE.INTER>
-15.2316

>  <SCORE.INTER.CONST>
1

>  <SCORE.INTER.POLAR>
0

>  <SCORE.INTER.ROT>
0

>  <SCORE.INTER.SOLV>
3.28754

>  <SCORE.INTER.VDW>
-14.8503

>  <SCORE.INTER.norm>
-1.52316

>  <SCORE.INTRA>
0

>  <SCORE.INTRA.DIHEDRAL>
0

>  <SCORE.INTRA.DIHEDRAL.0>
0

>  <SCORE.INTRA.POLAR>
0

>  <SCORE.INTRA.POLAR.0>
0

>  <SCORE.INTRA.REPUL>
0

>  <SCORE.INTRA.REPUL.0>
0

>  <SCORE.INTRA.SOLV>
0

>  <SCORE.INTRA.SOLV.lig_0>
-4.15853

>  <SCORE.INTRA.VDW>
0

>  <SCORE.INTRA.VDW.0>
0

>  <SCORE.INTRA.norm>
0

>  <SCORE.RESTR>
0

>  <SCORE.RESTR.CAVITY>
0

>  <SCORE.RESTR.norm>
0

>  <SCORE.SYSTEM>
0

>  <SCORE.SYSTEM.CONST>
0

>  <SCORE.SYSTEM.DIHEDRAL>
0

>  <SCORE.SYSTEM.SOLV>
0

>  <SCORE.SYSTEM.norm>
0

>  <SCORE.heavy>
10

>  <SCORE.norm>
-1.52316

>  <RMSD>
1.136

$$$$
ligand
 OpenBabel02271912153D
libRbt.so/2013.1/901 2013/11/27
 10 11  0  0  0  0  0  0  0  0999 V2000
    0.7962  -13.4514   12.1921 N   0  0  0  0  0  0  0  0  0  0  0  0
    1.7040  -13.5414   11.2442 C   0  0  0  0  0  0  0  0  0  0  0  0
    2.4338  -12.4027   10.8939 N   0  0  0  0  0  0  0  0  0  0  0  0
    2.2119  -11.2433   11.5086 C   0  0  0  0  0  0  0  0  0  0  0  0
    1.2986  -11.1557   12.4575 C   0  0  0  0  0  0  0  0  0  0  0  0
    0.5930  -12.2164   12.8031 C   0  0  0  0  0  0  0  0  0  0  0  0
   -0.2535  -12.1109   13.6796 O   0  0  0  0  0  0  0  0  0  0  0  0
    1.2721   -9.9053   12.9154 N   0  0  0  0  0  0  0  0  0  0  0  0
    2.1886   -9.2206   12.2403 C   0  0  0  0  0  0  0  0  0  0  0  0
    2.7673  -10.0502   11.3683 N   0  0  0  0  0  0  0  0  0  0  0  0
  1  2  1  0  0  0  0
  1  6  1  0  0  0  0
  2  3  2  0  0  0  0
  3  4  1  0  0  0  0
  4  5  2  0  0  0  0
  4 10  1  0  0  0  0
  5  6  1  0  0  0  0
  5  8  1  0  0  0  0
  6  7  2  0  0  0  0
  8  9  1  0  0  0  0
  9 10  2  0  0  0  0
M  END
>  <CHROM.1>
1.46729210,-11.54267660,12.15969411,-2.18032298,0.75783831,0.32871515

>  <Name>
ligand

>  <RI>
0

>  <Rbt.Current_Directory>
/home/itssahil/PROJECTS/Mol_Feturizer/Test_systems_manuscript/rnas/5c7w

>  <Rbt.Executable>
rbdock ($Id: //depot/dev/client3/rdock/2013.1/src/exe/rbdock.cxx#4 $)

>  <Rbt.Library>
libRbt.so (2013.1, Build901 2013/11/27)

>  <Rbt.Parameter_File>
/export/apps/rDock/src/rDock_2013.1_src/data/scripts/dock_solv.prm

>  <Rbt.Receptor>
prm/pocket_docking_7.prm

>  <SCORE>
-15.2314

>  <SCORE.INTER>
-15.2314

>  <SCORE.INTER.CONST>
1

>  <SCORE.INTER.POLAR>
0

>  <SCORE.INTER.ROT>
0

>  <SCORE.INTER.SOLV>
3.30317

>  <SCORE.INTER.VDW>
-14.8554

>  <SCORE.INTER.norm>
-1.52314

>  <SCORE.INTRA>
0

>  <SCORE.INTRA.DIHEDRAL>
0

>  <SCORE.INTRA.DIHEDRAL.0>
0

>  <SCORE.INTRA.POLAR>
0

>  <SCORE.INTRA.POLAR.0>
0

>  <SCORE.INTRA.REPUL>
0

>  <SCORE.INTRA.REPUL.0>
0

>  <SCORE.INTRA.SOLV>
0

>  <SCORE.INTRA.SOLV.lig_0>
-4.15853

>  <SCORE.INTRA.VDW>
0

>  <SCORE.INTRA.VDW.0>
0

>  <SCORE.INTRA.norm>
0

>  <SCORE.RESTR>
0

>  <SCORE.RESTR.CAVITY>
0

>  <SCORE.RESTR.norm>
0

>  <SCORE.SYSTEM>
0

>  <SCORE.SYSTEM.CONST>
0

>  <SCORE.SYSTEM.DIHEDRAL>
0

>  <SCORE.SYSTEM.SOLV>
0

>  <SCORE.SYSTEM.norm>
0

>  <SCORE.heavy>
10

>  <SCORE.norm>
-1.52314

>  <RMSD>
1.136

$$$$
ligand
 OpenBabel02271912153D
libRbt.so/2013.1/901 2013/11/27
 10 11  0  0  0  0  0  0  0  0999 V2000
    0.8029  -13.4562   12.1877 N   0  0  0  0  0  0  0  0  0  0  0  0
    1.7178  -13.5444   11.2466 C   0  0  0  0  0  0  0  0  0  0  0  0
    2.4475  -12.4041   10.9012 N   0  0  0  0  0  0  0  0  0  0  0  0
    2.2185  -11.2450   11.5138 C   0  0  0  0  0  0  0  0  0  0  0  0
    1.2981  -11.1592   12.4560 C   0  0  0  0  0  0  0  0  0  0  0  0
    0.5924  -12.2215   12.7969 C   0  0  0  0  0  0  0  0  0  0  0  0
   -0.2607  -12.1176   13.6671 O   0  0  0  0  0  0  0  0  0  0  0  0
    1.2654   -9.9087   12.9133 N   0  0  0  0  0  0  0  0  0  0  0  0
    2.1852   -9.2222   12.2446 C   0  0  0  0  0  0  0  0  0  0  0  0
    2.7722  -10.0507   11.3771 N   0  0  0  0  0  0  0  0  0  0  0  0
  1  2  1  0  0  0  0
  1  6  1  0  0  0  0
  2  3  2  0  0  0  0
  3  4  1  0  0  0  0
  4  5  2  0  0  0  0
  4 10  1  0  0  0  0
  5  6  1  0  0  0  0
  5  8  1  0  0  0  0
  6  7  2  0  0  0  0
  8  9  1  0  0  0  0
  9 10  2  0  0  0  0
M  END
>  <CHROM.1>
1.46986091,-11.54590360,12.15958305,-2.17411897,0.75165804,0.32412478

>  <Name>
ligand

>  <RI>
0

>  <Rbt.Current_Directory>
/home/itssahil/PROJECTS/Mol_Feturizer/Test_systems_manuscript/rnas/5c7w

>  <Rbt.Executable>
rbdock ($Id: //depot/dev/client3/rdock/2013.1/src/exe/rbdock.cxx#4 $)

>  <Rbt.Library>
libRbt.so (2013.1, Build901 2013/11/27)

>  <Rbt.Parameter_File>
/export/apps/rDock/src/rDock_2013.1_src/data/scripts/dock_solv.prm

>  <Rbt.Receptor>
prm/blind_docking_60.prm

>  <SCORE>
-15.2279

>  <SCORE.INTER>
-15.2279

>  <SCORE.INTER.CONST>
1

>  <SCORE.INTER.POLAR>
0

>  <SCORE.INTER.ROT>
0

>  <SCORE.INTER.SOLV>
3.28925

>  <SCORE.INTER.VDW>
-14.8484

>  <SCORE.INTER.norm>
-1.52279

>  <SCORE.INTRA>
0

>  <SCORE.INTRA.DIHEDRAL>
0

>  <SCORE.INTRA.DIHEDRAL.0>
0

>  <SCORE.INTRA.POLAR>
0

>  <SCORE.INTRA.POLAR.0>
0

>  <SCORE.INTRA.REPUL>
0

>  <SCORE.INTRA.REPUL.0>
0

>  <SCORE.INTRA.SOLV>
0

>  <SCORE.INTRA.SOLV.lig_0>
-4.15853

>  <SCORE.INTRA.VDW>
0

>  <SCORE.INTRA.VDW.0>
0

>  <SCORE.INTRA.norm>
0

>  <SCORE.RESTR>
0

>  <SCORE.RESTR.CAVITY>
0

>  <SCORE.RESTR.norm>
0

>  <SCORE.SYSTEM>
0

>  <SCORE.SYSTEM.CONST>
0

>  <SCORE.SYSTEM.DIHEDRAL>
0

>  <SCORE.SYSTEM.SOLV>
0

>  <SCORE.SYSTEM.norm>
0

>  <SCORE.heavy>
10

>  <SCORE.norm>
-1.52279

>  <RMSD>
1.140

$$$$
ligand
 OpenBabel02271912153D
libRbt.so/2013.1/901 2013/11/27
 10 11  0  0  0  0  0  0  0  0999 V2000
    0.7832  -13.4336   12.1747 N   0  0  0  0  0  0  0  0  0  0  0  0
    1.7014  -13.5132   11.2360 C   0  0  0  0  0  0  0  0  0  0  0  0
    2.4420  -12.3732   10.9135 N   0  0  0  0  0  0  0  0  0  0  0  0
    2.2199  -11.2230   11.5450 C   0  0  0  0  0  0  0  0  0  0  0  0
    1.2962  -11.1457   12.4848 C   0  0  0  0  0  0  0  0  0  0  0  0
    0.5803  -12.2078   12.8043 C   0  0  0  0  0  0  0  0  0  0  0  0
   -0.2756  -12.1119   13.6726 O   0  0  0  0  0  0  0  0  0  0  0  0
    1.2719   -9.9031   12.9634 N   0  0  0  0  0  0  0  0  0  0  0  0
    2.2003   -9.2129   12.3106 C   0  0  0  0  0  0  0  0  0  0  0  0
    2.7841  -10.0312   11.4313 N   0  0  0  0  0  0  0  0  0  0  0  0
  1  2  1  0  0  0  0
  1  6  1  0  0  0  0
  2  3  2  0  0  0  0
  3  4  1  0  0  0  0
  4  5  2  0  0  0  0
  4 10  1  0  0  0  0
  5  6  1  0  0  0  0
  5  8  1  0  0  0  0
  6  7  2  0  0  0  0
  8  9  1  0  0  0  0
  9 10  2  0  0  0  0
M  END
>  <CHROM.1>
1.46607780,-11.52870219,12.18240640,-2.18295044,0.74492758,0.34740584

>  <Name>
ligand

>  <RI>
0

>  <Rbt.Current_Directory>
/home/itssahil/PROJECTS/Mol_Feturizer/Test_systems_manuscript/rnas/5c7w

>  <Rbt.Executable>
rbdock ($Id: //depot/dev/client3/rdock/2013.1/src/exe/rbdock.cxx#4 $)

>  <Rbt.Library>
libRbt.so (2013.1, Build901 2013/11/27)

>  <Rbt.Parameter_File>
/export/apps/rDock/src/rDock_2013.1_src/data/scripts/dock_solv.prm

>  <Rbt.Receptor>
prm/pocket_docking_7.prm

>  <SCORE>
-15.2093

>  <SCORE.INTER>
-15.2093

>  <SCORE.INTER.CONST>
1

>  <SCORE.INTER.POLAR>
0

>  <SCORE.INTER.ROT>
0

>  <SCORE.INTER.SOLV>
3.27498

>  <SCORE.INTER.VDW>
-14.8312

>  <SCORE.INTER.norm>
-1.52093

>  <SCORE.INTRA>
0

>  <SCORE.INTRA.DIHEDRAL>
0

>  <SCORE.INTRA.DIHEDRAL.0>
0

>  <SCORE.INTRA.POLAR>
0

>  <SCORE.INTRA.POLAR.0>
0

>  <SCORE.INTRA.REPUL>
0

>  <SCORE.INTRA.REPUL.0>
0

>  <SCORE.INTRA.SOLV>
0

>  <SCORE.INTRA.SOLV.lig_0>
-4.15853

>  <SCORE.INTRA.VDW>
0

>  <SCORE.INTRA.VDW.0>
0

>  <SCORE.INTRA.norm>
0

>  <SCORE.RESTR>
0

>  <SCORE.RESTR.CAVITY>
0

>  <SCORE.RESTR.norm>
0

>  <SCORE.SYSTEM>
0

>  <SCORE.SYSTEM.CONST>
0

>  <SCORE.SYSTEM.DIHEDRAL>
0

>  <SCORE.SYSTEM.SOLV>
0

>  <SCORE.SYSTEM.norm>
0

>  <SCORE.heavy>
10

>  <SCORE.norm>
-1.52093

>  <RMSD>
1.142

$$$$
ligand
 OpenBabel02271912153D
libRbt.so/2013.1/901 2013/11/27
 10 11  0  0  0  0  0  0  0  0999 V2000
    0.8210  -13.4283   12.1910 N   0  0  0  0  0  0  0  0  0  0  0  0
    1.7391  -13.4999   11.2516 C   0  0  0  0  0  0  0  0  0  0  0  0
    2.4616  -12.3509   10.9205 N   0  0  0  0  0  0  0  0  0  0  0  0
    2.2227  -11.2000   11.5449 C   0  0  0  0  0  0  0  0  0  0  0  0
    1.2991  -11.1308   12.4854 C   0  0  0  0  0  0  0  0  0  0  0  0
    0.6001  -12.2017   12.8128 C   0  0  0  0  0  0  0  0  0  0  0  0
   -0.2561  -12.1132   13.6817 O   0  0  0  0  0  0  0  0  0  0  0  0
    1.2563   -9.8856   12.9559 N   0  0  0  0  0  0  0  0  0  0  0  0
    2.1731   -9.1855   12.2973 C   0  0  0  0  0  0  0  0  0  0  0  0
    2.7683  -10.0004   11.4226 N   0  0  0  0  0  0  0  0  0  0  0  0
  1  2  1  0  0  0  0
  1  6  1  0  0  0  0
  2  3  2  0  0  0  0
  3  4  1  0  0  0  0
  4  5  2  0  0  0  0
  4 10  1  0  0  0  0
  5  6  1  0  0  0  0
  5  8  1  0  0  0  0
  6  7  2  0  0  0  0
  8  9  1  0  0  0  0
  9 10  2  0  0  0  0
M  END
>  <CHROM.1>
1.47447209,-11.51312308,12.18527596,-2.16372962,0.75128069,0.32778052

>  <Name>
ligand

>  <RI>
0

>  <Rbt.Current_Directory>
/home/itssahil/PROJECTS/Mol_Feturizer/Test_systems_manuscript/rnas/5c7w

>  <Rbt.Executable>
rbdock ($Id: //depot/dev/client3/rdock/2013.1/src/exe/rbdock.cxx#4 $)

>  <Rbt.Library>
libRbt.so (2013.1, Build901 2013/11/27)

>  <Rbt.Parameter_File>
/export/apps/rDock/src/rDock_2013.1_src/data/scripts/dock_solv.prm

>  <Rbt.Receptor>
prm/blind_docking_20.prm

>  <SCORE>
-15.2119

>  <SCORE.INTER>
-15.2119

>  <SCORE.INTER.CONST>
1

>  <SCORE.INTER.POLAR>
0

>  <SCORE.INTER.ROT>
0

>  <SCORE.INTER.SOLV>
3.29047

>  <SCORE.INTER.VDW>
-14.8381

>  <SCORE.INTER.norm>
-1.52119

>  <SCORE.INTRA>
0

>  <SCORE.INTRA.DIHEDRAL>
0

>  <SCORE.INTRA.DIHEDRAL.0>
0

>  <SCORE.INTRA.POLAR>
0

>  <SCORE.INTRA.POLAR.0>
0

>  <SCORE.INTRA.REPUL>
0

>  <SCORE.INTRA.REPUL.0>
0

>  <SCORE.INTRA.SOLV>
0

>  <SCORE.INTRA.SOLV.lig_0>
-4.15853

>  <SCORE.INTRA.VDW>
0

>  <SCORE.INTRA.VDW.0>
0

>  <SCORE.INTRA.norm>
0

>  <SCORE.RESTR>
0

>  <SCORE.RESTR.CAVITY>
0

>  <SCORE.RESTR.norm>
0

>  <SCORE.SYSTEM>
0

>  <SCORE.SYSTEM.CONST>
0

>  <SCORE.SYSTEM.DIHEDRAL>
0

>  <SCORE.SYSTEM.SOLV>
0

>  <SCORE.SYSTEM.norm>
0

>  <SCORE.heavy>
10

>  <SCORE.norm>
-1.52119

>  <RMSD>
1.157

$$$$
ligand
 OpenBabel02271912153D
libRbt.so/2013.1/901 2013/11/27
 10 11  0  0  0  0  0  0  0  0999 V2000
    0.8002  -13.4408   12.1483 N   0  0  0  0  0  0  0  0  0  0  0  0
    1.7233  -13.5105   11.2135 C   0  0  0  0  0  0  0  0  0  0  0  0
    2.4582  -12.3645   10.8996 N   0  0  0  0  0  0  0  0  0  0  0  0
    2.2260  -11.2186   11.5352 C   0  0  0  0  0  0  0  0  0  0  0  0
    1.2975  -11.1513   12.4709 C   0  0  0  0  0  0  0  0  0  0  0  0
    0.5867  -12.2192   12.7823 C   0  0  0  0  0  0  0  0  0  0  0  0
   -0.2738  -12.1325   13.6471 O   0  0  0  0  0  0  0  0  0  0  0  0
    1.2631   -9.9110   12.9550 N   0  0  0  0  0  0  0  0  0  0  0  0
    2.1902   -9.2120   12.3096 C   0  0  0  0  0  0  0  0  0  0  0  0
    2.7832  -10.0227   11.4295 N   0  0  0  0  0  0  0  0  0  0  0  0
  1  2  1  0  0  0  0
  1  6  1  0  0  0  0
  2  3  2  0  0  0  0
  3  4  1  0  0  0  0
  4  5  2  0  0  0  0
  4 10  1  0  0  0  0
  5  6  1  0  0  0  0
  5  8  1  0  0  0  0
  6  7  2  0  0  0  0
  8  9  1  0  0  0  0
  9 10  2  0  0  0  0
M  END
>  <CHROM.1>
1.47111370,-11.53180541,12.16766260,-2.17279153,0.74263839,0.34500277

>  <Name>
ligand

>  <RI>
0

>  <Rbt.Current_Directory>
/home/itssahil/PROJECTS/Mol_Feturizer/Test_systems_manuscript/rnas/5c7w

>  <Rbt.Executable>
rbdock ($Id: //depot/dev/client3/rdock/2013.1/src/exe/rbdock.cxx#4 $)

>  <Rbt.Library>
libRbt.so (2013.1, Build901 2013/11/27)

>  <Rbt.Parameter_File>
/export/apps/rDock/src/rDock_2013.1_src/data/scripts/dock_solv.prm

>  <Rbt.Receptor>
prm/pocket_docking_5.prm

>  <SCORE>
-15.2042

>  <SCORE.INTER>
-15.2042

>  <SCORE.INTER.CONST>
1

>  <SCORE.INTER.POLAR>
0

>  <SCORE.INTER.ROT>
0

>  <SCORE.INTER.SOLV>
3.25975

>  <SCORE.INTER.VDW>
-14.8227

>  <SCORE.INTER.norm>
-1.52042

>  <SCORE.INTRA>
0

>  <SCORE.INTRA.DIHEDRAL>
0

>  <SCORE.INTRA.DIHEDRAL.0>
0

>  <SCORE.INTRA.POLAR>
0

>  <SCORE.INTRA.POLAR.0>
0

>  <SCORE.INTRA.REPUL>
0

>  <SCORE.INTRA.REPUL.0>
0

>  <SCORE.INTRA.SOLV>
0

>  <SCORE.INTRA.SOLV.lig_0>
-4.15853

>  <SCORE.INTRA.VDW>
0

>  <SCORE.INTRA.VDW.0>
0

>  <SCORE.INTRA.norm>
0

>  <SCORE.RESTR>
0

>  <SCORE.RESTR.CAVITY>
0

>  <SCORE.RESTR.norm>
0

>  <SCORE.SYSTEM>
0

>  <SCORE.SYSTEM.CONST>
0

>  <SCORE.SYSTEM.DIHEDRAL>
0

>  <SCORE.SYSTEM.SOLV>
0

>  <SCORE.SYSTEM.norm>
0

>  <SCORE.heavy>
10

>  <SCORE.norm>
-1.52042

>  <RMSD>
1.158

$$$$
ligand
 OpenBabel02271912153D
libRbt.so/2013.1/901 2013/11/27
 10 11  0  0  0  0  0  0  0  0999 V2000
   -0.0392  -13.1863   13.0371 N   0  0  0  0  0  0  0  0  0  0  0  0
   -0.5948  -12.1967   13.7024 C   0  0  0  0  0  0  0  0  0  0  0  0
   -0.1127  -10.8988   13.5154 N   0  0  0  0  0  0  0  0  0  0  0  0
    0.8957  -10.6675   12.6782 C   0  0  0  0  0  0  0  0  0  0  0  0
    1.4527  -11.6629   12.0139 C   0  0  0  0  0  0  0  0  0  0  0  0
    1.0178  -12.8985   12.1770 C   0  0  0  0  0  0  0  0  0  0  0  0
    1.5535  -13.8068   11.5573 O   0  0  0  0  0  0  0  0  0  0  0  0
    2.4254  -11.1764   11.2451 N   0  0  0  0  0  0  0  0  0  0  0  0
    2.4579   -9.8625   11.4378 C   0  0  0  0  0  0  0  0  0  0  0  0
    1.5119   -9.5500   12.3271 N   0  0  0  0  0  0  0  0  0  0  0  0
  1  2  1  0  0  0  0
  1  6  1  0  0  0  0
  2  3  2  0  0  0  0
  3  4  1  0  0  0  0
  4  5  2  0  0  0  0
  4 10  1  0  0  0  0
  5  6  1  0  0  0  0
  5  8  1  0  0  0  0
  6  7  2  0  0  0  0
  8  9  1  0  0  0  0
  9 10  2  0  0  0  0
M  END
>  <CHROM.1>
1.06512976,-11.63412701,12.35440440,2.23811263,-0.71009568,-2.96967965

>  <Name>
ligand

>  <RI>
0

>  <Rbt.Current_Directory>
/home/itssahil/PROJECTS/Mol_Feturizer/Test_systems_manuscript/rnas/5c7w

>  <Rbt.Executable>
rbdock ($Id: //depot/dev/client3/rdock/2013.1/src/exe/rbdock.cxx#4 $)

>  <Rbt.Library>
libRbt.so (2013.1, Build901 2013/11/27)

>  <Rbt.Parameter_File>
/export/apps/rDock/src/rDock_2013.1_src/data/scripts/dock_solv.prm

>  <Rbt.Receptor>
prm/pocket_docking_4.prm

>  <SCORE>
-14.8487

>  <SCORE.INTER>
-14.8487

>  <SCORE.INTER.CONST>
1

>  <SCORE.INTER.POLAR>
0

>  <SCORE.INTER.ROT>
0

>  <SCORE.INTER.SOLV>
3.1951

>  <SCORE.INTER.VDW>
-14.5642

>  <SCORE.INTER.norm>
-1.48487

>  <SCORE.INTRA>
0

>  <SCORE.INTRA.DIHEDRAL>
0

>  <SCORE.INTRA.DIHEDRAL.0>
0

>  <SCORE.INTRA.POLAR>
0

>  <SCORE.INTRA.POLAR.0>
0

>  <SCORE.INTRA.REPUL>
0

>  <SCORE.INTRA.REPUL.0>
0

>  <SCORE.INTRA.SOLV>
0

>  <SCORE.INTRA.SOLV.lig_0>
-4.15853

>  <SCORE.INTRA.VDW>
0

>  <SCORE.INTRA.VDW.0>
0

>  <SCORE.INTRA.norm>
0

>  <SCORE.RESTR>
0

>  <SCORE.RESTR.CAVITY>
0

>  <SCORE.RESTR.norm>
0

>  <SCORE.SYSTEM>
0

>  <SCORE.SYSTEM.CONST>
0

>  <SCORE.SYSTEM.DIHEDRAL>
0

>  <SCORE.SYSTEM.SOLV>
0

>  <SCORE.SYSTEM.norm>
0

>  <SCORE.heavy>
10

>  <SCORE.norm>
-1.48487

>  <RMSD>
2.302

$$$$
ligand
 OpenBabel02271912153D
libRbt.so/2013.1/901 2013/11/27
 10 11  0  0  0  0  0  0  0  0999 V2000
   -0.0373  -13.1968   13.0506 N   0  0  0  0  0  0  0  0  0  0  0  0
   -0.5842  -12.2000   13.7124 C   0  0  0  0  0  0  0  0  0  0  0  0
   -0.0975  -10.9056   13.5130 N   0  0  0  0  0  0  0  0  0  0  0  0
    0.9065  -10.6848   12.6677 C   0  0  0  0  0  0  0  0  0  0  0  0
    1.4549  -11.6874   12.0071 C   0  0  0  0  0  0  0  0  0  0  0  0
    1.0156  -12.9199   12.1818 C   0  0  0  0  0  0  0  0  0  0  0  0
    1.5432  -13.8350   11.5653 O   0  0  0  0  0  0  0  0  0  0  0  0
    2.4248  -11.2109   11.2287 N   0  0  0  0  0  0  0  0  0  0  0  0
    2.4644   -9.8958   11.4117 C   0  0  0  0  0  0  0  0  0  0  0  0
    1.5255   -9.5727   12.3047 N   0  0  0  0  0  0  0  0  0  0  0  0
  1  2  1  0  0  0  0
  1  6  1  0  0  0  0
  2  3  2  0  0  0  0
  3  4  1  0  0  0  0
  4  5  2  0  0  0  0
  4 10  1  0  0  0  0
  5  6  1  0  0  0  0
  5  8  1  0  0  0  0
  6  7  2  0  0  0  0
  8  9  1  0  0  0  0
  9 10  2  0  0  0  0
M  END
>  <CHROM.1>
1.06961930,-11.65452717,12.34983141,2.24538426,-0.71561107,-2.97207581

>  <Name>
ligand

>  <RI>
0

>  <Rbt.Current_Directory>
/home/itssahil/PROJECTS/Mol_Feturizer/Test_systems_manuscript/rnas/5c7w

>  <Rbt.Executable>
rbdock ($Id: //depot/dev/client3/rdock/2013.1/src/exe/rbdock.cxx#4 $)

>  <Rbt.Library>
libRbt.so (2013.1, Build901 2013/11/27)

>  <Rbt.Parameter_File>
/export/apps/rDock/src/rDock_2013.1_src/data/scripts/dock_solv.prm

>  <Rbt.Receptor>
prm/pocket_docking_6.prm

>  <SCORE>
-14.8811

>  <SCORE.INTER>
-14.8811

>  <SCORE.INTER.CONST>
1

>  <SCORE.INTER.POLAR>
0

>  <SCORE.INTER.ROT>
0

>  <SCORE.INTER.SOLV>
3.20044

>  <SCORE.INTER.VDW>
-14.5876

>  <SCORE.INTER.norm>
-1.48811

>  <SCORE.INTRA>
0

>  <SCORE.INTRA.DIHEDRAL>
0

>  <SCORE.INTRA.DIHEDRAL.0>
0

>  <SCORE.INTRA.POLAR>
0

>  <SCORE.INTRA.POLAR.0>
0

>  <SCORE.INTRA.REPUL>
0

>  <SCORE.INTRA.REPUL.0>
0

>  <SCORE.INTRA.SOLV>
0

>  <SCORE.INTRA.SOLV.lig_0>
-4.15853

>  <SCORE.INTRA.VDW>
0

>  <SCORE.INTRA.VDW.0>
0

>  <SCORE.INTRA.norm>
0

>  <SCORE.RESTR>
0

>  <SCORE.RESTR.CAVITY>
0

>  <SCORE.RESTR.norm>
0

>  <SCORE.SYSTEM>
0

>  <SCORE.SYSTEM.CONST>
0

>  <SCORE.SYSTEM.DIHEDRAL>
0

>  <SCORE.SYSTEM.SOLV>
0

>  <SCORE.SYSTEM.norm>
0

>  <SCORE.heavy>
10

>  <SCORE.norm>
-1.48811

>  <RMSD>
2.302

$$$$
ligand
 OpenBabel02271912153D
libRbt.so/2013.1/901 2013/11/27
 10 11  0  0  0  0  0  0  0  0999 V2000
   -0.0288  -13.2258   13.0418 N   0  0  0  0  0  0  0  0  0  0  0  0
   -0.6070  -12.2352   13.6860 C   0  0  0  0  0  0  0  0  0  0  0  0
   -0.1401  -10.9334   13.4879 N   0  0  0  0  0  0  0  0  0  0  0  0
    0.8764  -10.6994   12.6614 C   0  0  0  0  0  0  0  0  0  0  0  0
    1.4561  -11.6958   12.0183 C   0  0  0  0  0  0  0  0  0  0  0  0
    1.0359  -12.9351   12.1923 C   0  0  0  0  0  0  0  0  0  0  0  0
    1.5924  -13.8441   11.5923 O   0  0  0  0  0  0  0  0  0  0  0  0
    2.4325  -11.2063   11.2562 N   0  0  0  0  0  0  0  0  0  0  0  0
    2.4445   -9.8897   11.4314 C   0  0  0  0  0  0  0  0  0  0  0  0
    1.4821   -9.5784   12.3035 N   0  0  0  0  0  0  0  0  0  0  0  0
  1  2  1  0  0  0  0
  1  6  1  0  0  0  0
  2  3  2  0  0  0  0
  3  4  1  0  0  0  0
  4  5  2  0  0  0  0
  4 10  1  0  0  0  0
  5  6  1  0  0  0  0
  5  8  1  0  0  0  0
  6  7  2  0  0  0  0
  8  9  1  0  0  0  0
  9 10  2  0  0  0  0
M  END
>  <CHROM.1>
1.06351793,-11.66788731,12.35310671,2.21748660,-0.69878348,-2.99654699

>  <Name>
ligand

>  <RI>
0

>  <Rbt.Current_Directory>
/home/itssahil/PROJECTS/Mol_Feturizer/Test_systems_manuscript/rnas/5c7w

>  <Rbt.Executable>
rbdock ($Id: //depot/dev/client3/rdock/2013.1/src/exe/rbdock.cxx#4 $)

>  <Rbt.Library>
libRbt.so (2013.1, Build901 2013/11/27)

>  <Rbt.Parameter_File>
/export/apps/rDock/src/rDock_2013.1_src/data/scripts/dock_solv.prm

>  <Rbt.Receptor>
prm/blind_docking_80.prm

>  <SCORE>
-14.8656

>  <SCORE.INTER>
-14.8656

>  <SCORE.INTER.CONST>
1

>  <SCORE.INTER.POLAR>
0

>  <SCORE.INTER.ROT>
0

>  <SCORE.INTER.SOLV>
3.19099

>  <SCORE.INTER.VDW>
-14.5741

>  <SCORE.INTER.norm>
-1.48656

>  <SCORE.INTRA>
0

>  <SCORE.INTRA.DIHEDRAL>
0

>  <SCORE.INTRA.DIHEDRAL.0>
0

>  <SCORE.INTRA.POLAR>
0

>  <SCORE.INTRA.POLAR.0>
0

>  <SCORE.INTRA.REPUL>
0

>  <SCORE.INTRA.REPUL.0>
0

>  <SCORE.INTRA.SOLV>
0

>  <SCORE.INTRA.SOLV.lig_0>
-4.15853

>  <SCORE.INTRA.VDW>
0

>  <SCORE.INTRA.VDW.0>
0

>  <SCORE.INTRA.norm>
0

>  <SCORE.RESTR>
0

>  <SCORE.RESTR.CAVITY>
0

>  <SCORE.RESTR.norm>
0

>  <SCORE.SYSTEM>
0

>  <SCORE.SYSTEM.CONST>
0

>  <SCORE.SYSTEM.DIHEDRAL>
0

>  <SCORE.SYSTEM.SOLV>
0

>  <SCORE.SYSTEM.norm>
0

>  <SCORE.heavy>
10

>  <SCORE.norm>
-1.48656

>  <RMSD>
2.303

$$$$
ligand
 OpenBabel02271912153D
libRbt.so/2013.1/901 2013/11/27
 10 11  0  0  0  0  0  0  0  0999 V2000
   -0.0231  -13.1988   13.0326 N   0  0  0  0  0  0  0  0  0  0  0  0
   -0.5759  -12.2108   13.7025 C   0  0  0  0  0  0  0  0  0  0  0  0
   -0.0931  -10.9128   13.5182 N   0  0  0  0  0  0  0  0  0  0  0  0
    0.9131  -10.6798   12.6788 C   0  0  0  0  0  0  0  0  0  0  0  0
    1.4673  -11.6736   12.0099 C   0  0  0  0  0  0  0  0  0  0  0  0
    1.0318  -12.9094   12.1704 C   0  0  0  0  0  0  0  0  0  0  0  0
    1.5649  -13.8162   11.5464 O   0  0  0  0  0  0  0  0  0  0  0  0
    2.4383  -11.1856   11.2399 N   0  0  0  0  0  0  0  0  0  0  0  0
    2.4726   -9.8724   11.4365 C   0  0  0  0  0  0  0  0  0  0  0  0
    1.5293   -9.5618   12.3294 N   0  0  0  0  0  0  0  0  0  0  0  0
  1  2  1  0  0  0  0
  1  6  1  0  0  0  0
  2  3  2  0  0  0  0
  3  4  1  0  0  0  0
  4  5  2  0  0  0  0
  4 10  1  0  0  0  0
  5  6  1  0  0  0  0
  5  8  1  0  0  0  0
  6  7  2  0  0  0  0
  8  9  1  0  0  0  0
  9 10  2  0  0  0  0
M  END
>  <CHROM.1>
1.08077726,-11.64556732,12.35157468,2.23994530,-0.71273081,-2.96537878

>  <Name>
ligand

>  <RI>
0

>  <Rbt.Current_Directory>
/home/itssahil/PROJECTS/Mol_Feturizer/Test_systems_manuscript/rnas/5c7w

>  <Rbt.Executable>
rbdock ($Id: //depot/dev/client3/rdock/2013.1/src/exe/rbdock.cxx#4 $)

>  <Rbt.Library>
libRbt.so (2013.1, Build901 2013/11/27)

>  <Rbt.Parameter_File>
/export/apps/rDock/src/rDock_2013.1_src/data/scripts/dock_solv.prm

>  <Rbt.Receptor>
prm/pocket_docking_3.prm

>  <SCORE>
-14.8479

>  <SCORE.INTER>
-14.8479

>  <SCORE.INTER.CONST>
1

>  <SCORE.INTER.POLAR>
0

>  <SCORE.INTER.ROT>
0

>  <SCORE.INTER.SOLV>
3.20643

>  <SCORE.INTER.VDW>
-14.5674

>  <SCORE.INTER.norm>
-1.48479

>  <SCORE.INTRA>
0

>  <SCORE.INTRA.DIHEDRAL>
0

>  <SCORE.INTRA.DIHEDRAL.0>
0

>  <SCORE.INTRA.POLAR>
0

>  <SCORE.INTRA.POLAR.0>
0

>  <SCORE.INTRA.REPUL>
0

>  <SCORE.INTRA.REPUL.0>
0

>  <SCORE.INTRA.SOLV>
0

>  <SCORE.INTRA.SOLV.lig_0>
-4.15853

>  <SCORE.INTRA.VDW>
0

>  <SCORE.INTRA.VDW.0>
0

>  <SCORE.INTRA.norm>
0

>  <SCORE.RESTR>
0

>  <SCORE.RESTR.CAVITY>
0

>  <SCORE.RESTR.norm>
0

>  <SCORE.SYSTEM>
0

>  <SCORE.SYSTEM.CONST>
0

>  <SCORE.SYSTEM.DIHEDRAL>
0

>  <SCORE.SYSTEM.SOLV>
0

>  <SCORE.SYSTEM.norm>
0

>  <SCORE.heavy>
10

>  <SCORE.norm>
-1.48479

>  <RMSD>
2.303

$$$$
ligand
 OpenBabel02271912153D
libRbt.so/2013.1/901 2013/11/27
 10 11  0  0  0  0  0  0  0  0999 V2000
   -0.0084  -13.2229   13.0027 N   0  0  0  0  0  0  0  0  0  0  0  0
   -0.5384  -12.2473   13.7083 C   0  0  0  0  0  0  0  0  0  0  0  0
   -0.0550  -10.9475   13.5386 N   0  0  0  0  0  0  0  0  0  0  0  0
    0.9292  -10.7005   12.6774 C   0  0  0  0  0  0  0  0  0  0  0  0
    1.4607  -11.6820   11.9727 C   0  0  0  0  0  0  0  0  0  0  0  0
    1.0241  -12.9192   12.1186 C   0  0  0  0  0  0  0  0  0  0  0  0
    1.5360  -13.8145   11.4611 O   0  0  0  0  0  0  0  0  0  0  0  0
    2.4127  -11.1815   11.1871 N   0  0  0  0  0  0  0  0  0  0  0  0
    2.4581   -9.8728   11.4107 C   0  0  0  0  0  0  0  0  0  0  0  0
    1.5408   -9.5778   12.3353 N   0  0  0  0  0  0  0  0  0  0  0  0
  1  2  1  0  0  0  0
  1  6  1  0  0  0  0
  2  3  2  0  0  0  0
  3  4  1  0  0  0  0
  4  5  2  0  0  0  0
  4 10  1  0  0  0  0
  5  6  1  0  0  0  0
  5  8  1  0  0  0  0
  6  7  2  0  0  0  0
  8  9  1  0  0  0  0
  9 10  2  0  0  0  0
M  END
>  <CHROM.1>
1.08362748,-11.65974975,12.32522806,2.25235454,-0.73853431,-2.93577156

>  <Name>
ligand

>  <RI>
0

>  <Rbt.Current_Directory>
/home/itssahil/PROJECTS/Mol_Feturizer/Test_systems_manuscript/rnas/5c7w

>  <Rbt.Executable>
rbdock ($Id: //depot/dev/client3/rdock/2013.1/src/exe/rbdock.cxx#4 $)

>  <Rbt.Library>
libRbt.so (2013.1, Build901 2013/11/27)

>  <Rbt.Parameter_File>
/export/apps/rDock/src/rDock_2013.1_src/data/scripts/dock_solv.prm

>  <Rbt.Receptor>
prm/pocket_docking_4.prm

>  <SCORE>
-14.8317

>  <SCORE.INTER>
-14.8317

>  <SCORE.INTER.CONST>
1

>  <SCORE.INTER.POLAR>
0

>  <SCORE.INTER.ROT>
0

>  <SCORE.INTER.SOLV>
3.27606

>  <SCORE.INTER.VDW>
-14.5798

>  <SCORE.INTER.norm>
-1.48317

>  <SCORE.INTRA>
0

>  <SCORE.INTRA.DIHEDRAL>
0

>  <SCORE.INTRA.DIHEDRAL.0>
0

>  <SCORE.INTRA.POLAR>
0

>  <SCORE.INTRA.POLAR.0>
0

>  <SCORE.INTRA.REPUL>
0

>  <SCORE.INTRA.REPUL.0>
0

>  <SCORE.INTRA.SOLV>
0

>  <SCORE.INTRA.SOLV.lig_0>
-4.15853

>  <SCORE.INTRA.VDW>
0

>  <SCORE.INTRA.VDW.0>
0

>  <SCORE.INTRA.norm>
0

>  <SCORE.RESTR>
0

>  <SCORE.RESTR.CAVITY>
0

>  <SCORE.RESTR.norm>
0

>  <SCORE.SYSTEM>
0

>  <SCORE.SYSTEM.CONST>
0

>  <SCORE.SYSTEM.DIHEDRAL>
0

>  <SCORE.SYSTEM.SOLV>
0

>  <SCORE.SYSTEM.norm>
0

>  <SCORE.heavy>
10

>  <SCORE.norm>
-1.48317

>  <RMSD>
2.303

$$$$
ligand
 OpenBabel02271912153D
libRbt.so/2013.1/901 2013/11/27
 10 11  0  0  0  0  0  0  0  0999 V2000
   -0.0110  -13.2247   13.0470 N   0  0  0  0  0  0  0  0  0  0  0  0
   -0.5783  -12.2343   13.7011 C   0  0  0  0  0  0  0  0  0  0  0  0
   -0.1089  -10.9335   13.5023 N   0  0  0  0  0  0  0  0  0  0  0  0
    0.8992  -10.7002   12.6653 C   0  0  0  0  0  0  0  0  0  0  0  0
    1.4680  -11.6964   12.0123 C   0  0  0  0  0  0  0  0  0  0  0  0
    1.0453  -12.9348   12.1866 C   0  0  0  0  0  0  0  0  0  0  0  0
    1.5917  -13.8436   11.5773 O   0  0  0  0  0  0  0  0  0  0  0  0
    2.4376  -11.2077   11.2410 N   0  0  0  0  0  0  0  0  0  0  0  0
    2.4563   -9.8917   11.4207 C   0  0  0  0  0  0  0  0  0  0  0  0
    1.5049   -9.5801   12.3046 N   0  0  0  0  0  0  0  0  0  0  0  0
  1  2  1  0  0  0  0
  1  6  1  0  0  0  0
  2  3  2  0  0  0  0
  3  4  1  0  0  0  0
  4  5  2  0  0  0  0
  4 10  1  0  0  0  0
  5  6  1  0  0  0  0
  5  8  1  0  0  0  0
  6  7  2  0  0  0  0
  8  9  1  0  0  0  0
  9 10  2  0  0  0  0
M  END
>  <CHROM.1>
1.07928768,-11.66823388,12.35153270,2.22434550,-0.70930969,-2.98857661

>  <Name>
ligand

>  <RI>
0

>  <Rbt.Current_Directory>
/home/itssahil/PROJECTS/Mol_Feturizer/Test_systems_manuscript/rnas/5c7w

>  <Rbt.Executable>
rbdock ($Id: //depot/dev/client3/rdock/2013.1/src/exe/rbdock.cxx#4 $)

>  <Rbt.Library>
libRbt.so (2013.1, Build901 2013/11/27)

>  <Rbt.Parameter_File>
/export/apps/rDock/src/rDock_2013.1_src/data/scripts/dock_solv.prm

>  <Rbt.Receptor>
prm/blind_docking_80.prm

>  <SCORE>
-14.8789

>  <SCORE.INTER>
-14.8789

>  <SCORE.INTER.CONST>
1

>  <SCORE.INTER.POLAR>
0

>  <SCORE.INTER.ROT>
0

>  <SCORE.INTER.SOLV>
3.20943

>  <SCORE.INTER.VDW>
-14.5891

>  <SCORE.INTER.norm>
-1.48789

>  <SCORE.INTRA>
0

>  <SCORE.INTRA.DIHEDRAL>
0

>  <SCORE.INTRA.DIHEDRAL.0>
0

>  <SCORE.INTRA.POLAR>
0

>  <SCORE.INTRA.POLAR.0>
0

>  <SCORE.INTRA.REPUL>
0

>  <SCORE.INTRA.REPUL.0>
0

>  <SCORE.INTRA.SOLV>
0

>  <SCORE.INTRA.SOLV.lig_0>
-4.15853

>  <SCORE.INTRA.VDW>
0

>  <SCORE.INTRA.VDW.0>
0

>  <SCORE.INTRA.norm>
0

>  <SCORE.RESTR>
0

>  <SCORE.RESTR.CAVITY>
0

>  <SCORE.RESTR.norm>
0

>  <SCORE.SYSTEM>
0

>  <SCORE.SYSTEM.CONST>
0

>  <SCORE.SYSTEM.DIHEDRAL>
0

>  <SCORE.SYSTEM.SOLV>
0

>  <SCORE.SYSTEM.norm>
0

>  <SCORE.heavy>
10

>  <SCORE.norm>
-1.48789

>  <RMSD>
2.305

$$$$
ligand
 OpenBabel02271912153D
libRbt.so/2013.1/901 2013/11/27
 10 11  0  0  0  0  0  0  0  0999 V2000
   -0.0103  -13.2233   13.0407 N   0  0  0  0  0  0  0  0  0  0  0  0
   -0.5776  -12.2310   13.6919 C   0  0  0  0  0  0  0  0  0  0  0  0
   -0.1047  -10.9315   13.4935 N   0  0  0  0  0  0  0  0  0  0  0  0
    0.9067  -10.7012   12.6596 C   0  0  0  0  0  0  0  0  0  0  0  0
    1.4755  -11.6993   12.0095 C   0  0  0  0  0  0  0  0  0  0  0  0
    1.0495  -12.9366   12.1836 C   0  0  0  0  0  0  0  0  0  0  0  0
    1.5960  -13.8472   11.5770 O   0  0  0  0  0  0  0  0  0  0  0  0
    2.4488  -11.2135   11.2411 N   0  0  0  0  0  0  0  0  0  0  0  0
    2.4698   -9.8974   11.4195 C   0  0  0  0  0  0  0  0  0  0  0  0
    1.5161   -9.5828   12.2999 N   0  0  0  0  0  0  0  0  0  0  0  0
  1  2  1  0  0  0  0
  1  6  1  0  0  0  0
  2  3  2  0  0  0  0
  3  4  1  0  0  0  0
  4  5  2  0  0  0  0
  4 10  1  0  0  0  0
  5  6  1  0  0  0  0
  5  8  1  0  0  0  0
  6  7  2  0  0  0  0
  8  9  1  0  0  0  0
  9 10  2  0  0  0  0
M  END
>  <CHROM.1>
1.08572779,-11.66994876,12.34743906,2.22655688,-0.70564039,-2.98810361

>  <Name>
ligand

>  <RI>
0

>  <Rbt.Current_Directory>
/home/itssahil/PROJECTS/Mol_Feturizer/Test_systems_manuscript/rnas/5c7w

>  <Rbt.Executable>
rbdock ($Id: //depot/dev/client3/rdock/2013.1/src/exe/rbdock.cxx#4 $)

>  <Rbt.Library>
libRbt.so (2013.1, Build901 2013/11/27)

>  <Rbt.Parameter_File>
/export/apps/rDock/src/rDock_2013.1_src/data/scripts/dock_solv.prm

>  <Rbt.Receptor>
prm/pocket_docking_6.prm

>  <SCORE>
-14.882

>  <SCORE.INTER>
-14.882

>  <SCORE.INTER.CONST>
1

>  <SCORE.INTER.POLAR>
0

>  <SCORE.INTER.ROT>
0

>  <SCORE.INTER.SOLV>
3.20255

>  <SCORE.INTER.VDW>
-14.5888

>  <SCORE.INTER.norm>
-1.4882

>  <SCORE.INTRA>
0

>  <SCORE.INTRA.DIHEDRAL>
0

>  <SCORE.INTRA.DIHEDRAL.0>
0

>  <SCORE.INTRA.POLAR>
0

>  <SCORE.INTRA.POLAR.0>
0

>  <SCORE.INTRA.REPUL>
0

>  <SCORE.INTRA.REPUL.0>
0

>  <SCORE.INTRA.SOLV>
0

>  <SCORE.INTRA.SOLV.lig_0>
-4.15853

>  <SCORE.INTRA.VDW>
0

>  <SCORE.INTRA.VDW.0>
0

>  <SCORE.INTRA.norm>
0

>  <SCORE.RESTR>
0

>  <SCORE.RESTR.CAVITY>
0

>  <SCORE.RESTR.norm>
0

>  <SCORE.SYSTEM>
0

>  <SCORE.SYSTEM.CONST>
0

>  <SCORE.SYSTEM.DIHEDRAL>
0

>  <SCORE.SYSTEM.SOLV>
0

>  <SCORE.SYSTEM.norm>
0

>  <SCORE.heavy>
10

>  <SCORE.norm>
-1.4882

>  <RMSD>
2.305

$$$$
ligand
 OpenBabel02271912153D
libRbt.so/2013.1/901 2013/11/27
 10 11  0  0  0  0  0  0  0  0999 V2000
   -0.0001  -13.2095   13.0491 N   0  0  0  0  0  0  0  0  0  0  0  0
   -0.5713  -12.2189   13.6996 C   0  0  0  0  0  0  0  0  0  0  0  0
   -0.1005  -10.9182   13.5035 N   0  0  0  0  0  0  0  0  0  0  0  0
    0.9127  -10.6852   12.6726 C   0  0  0  0  0  0  0  0  0  0  0  0
    1.4854  -11.6816   12.0233 C   0  0  0  0  0  0  0  0  0  0  0  0
    1.0614  -12.9198   12.1952 C   0  0  0  0  0  0  0  0  0  0  0  0
    1.6114  -13.8289   11.5893 O   0  0  0  0  0  0  0  0  0  0  0  0
    2.4598  -11.1932   11.2579 N   0  0  0  0  0  0  0  0  0  0  0  0
    2.4776   -9.8771   11.4375 C   0  0  0  0  0  0  0  0  0  0  0  0
    1.5208   -9.5652   12.3155 N   0  0  0  0  0  0  0  0  0  0  0  0
  1  2  1  0  0  0  0
  1  6  1  0  0  0  0
  2  3  2  0  0  0  0
  3  4  1  0  0  0  0
  4  5  2  0  0  0  0
  4 10  1  0  0  0  0
  5  6  1  0  0  0  0
  5  8  1  0  0  0  0
  6  7  2  0  0  0  0
  8  9  1  0  0  0  0
  9 10  2  0  0  0  0
M  END
>  <CHROM.1>
1.09461019,-11.65330150,12.36012106,2.22333849,-0.70324163,-2.98936971

>  <Name>
ligand

>  <RI>
0

>  <Rbt.Current_Directory>
/home/itssahil/PROJECTS/Mol_Feturizer/Test_systems_manuscript/rnas/5c7w

>  <Rbt.Executable>
rbdock ($Id: //depot/dev/client3/rdock/2013.1/src/exe/rbdock.cxx#4 $)

>  <Rbt.Library>
libRbt.so (2013.1, Build901 2013/11/27)

>  <Rbt.Parameter_File>
/export/apps/rDock/src/rDock_2013.1_src/data/scripts/dock_solv.prm

>  <Rbt.Receptor>
prm/blind_docking_20.prm

>  <SCORE>
-14.9211

>  <SCORE.INTER>
-14.9211

>  <SCORE.INTER.CONST>
1

>  <SCORE.INTER.POLAR>
0

>  <SCORE.INTER.ROT>
0

>  <SCORE.INTER.SOLV>
3.19276

>  <SCORE.INTER.VDW>
-14.6116

>  <SCORE.INTER.norm>
-1.49211

>  <SCORE.INTRA>
0

>  <SCORE.INTRA.DIHEDRAL>
0

>  <SCORE.INTRA.DIHEDRAL.0>
0

>  <SCORE.INTRA.POLAR>
0

>  <SCORE.INTRA.POLAR.0>
0

>  <SCORE.INTRA.REPUL>
0

>  <SCORE.INTRA.REPUL.0>
0

>  <SCORE.INTRA.SOLV>
0

>  <SCORE.INTRA.SOLV.lig_0>
-4.15853

>  <SCORE.INTRA.VDW>
0

>  <SCORE.INTRA.VDW.0>
0

>  <SCORE.INTRA.norm>
0

>  <SCORE.RESTR>
0

>  <SCORE.RESTR.CAVITY>
0

>  <SCORE.RESTR.norm>
0

>  <SCORE.SYSTEM>
0

>  <SCORE.SYSTEM.CONST>
0

>  <SCORE.SYSTEM.DIHEDRAL>
0

>  <SCORE.SYSTEM.SOLV>
0

>  <SCORE.SYSTEM.norm>
0

>  <SCORE.heavy>
10

>  <SCORE.norm>
-1.49211

>  <RMSD>
2.306

$$$$
ligand
 OpenBabel02271912153D
libRbt.so/2013.1/901 2013/11/27
 10 11  0  0  0  0  0  0  0  0999 V2000
    0.0027  -13.1945   13.0132 N   0  0  0  0  0  0  0  0  0  0  0  0
   -0.5844  -12.2362   13.6970 C   0  0  0  0  0  0  0  0  0  0  0  0
   -0.1194  -10.9255   13.5638 N   0  0  0  0  0  0  0  0  0  0  0  0
    0.9043  -10.6510   12.7588 C   0  0  0  0  0  0  0  0  0  0  0  0
    1.4929  -11.6151   12.0759 C   0  0  0  0  0  0  0  0  0  0  0  0
    1.0747  -12.8622   12.1883 C   0  0  0  0  0  0  0  0  0  0  0  0
    1.6394  -13.7410   11.5523 O   0  0  0  0  0  0  0  0  0  0  0  0
    2.4751  -11.0885   11.3468 N   0  0  0  0  0  0  0  0  0  0  0  0
    2.4816   -9.7813   11.5828 C   0  0  0  0  0  0  0  0  0  0  0  0
    1.5101   -9.5131   12.4591 N   0  0  0  0  0  0  0  0  0  0  0  0
  1  2  1  0  0  0  0
  1  6  1  0  0  0  0
  2  3  2  0  0  0  0
  3  4  1  0  0  0  0
  4  5  2  0  0  0  0
  4 10  1  0  0  0  0
  5  6  1  0  0  0  0
  5  8  1  0  0  0  0
  6  7  2  0  0  0  0
  8  9  1  0  0  0  0
  9 10  2  0  0  0  0
M  END
>  <CHROM.1>
1.09707960,-11.60369615,12.40786882,2.21201779,-0.68979508,-2.95371267

>  <Name>
ligand

>  <RI>
0

>  <Rbt.Current_Directory>
/home/itssahil/PROJECTS/Mol_Feturizer/Test_systems_manuscript/rnas/5c7w

>  <Rbt.Executable>
rbdock ($Id: //depot/dev/client3/rdock/2013.1/src/exe/rbdock.cxx#4 $)

>  <Rbt.Library>
libRbt.so (2013.1, Build901 2013/11/27)

>  <Rbt.Parameter_File>
/export/apps/rDock/src/rDock_2013.1_src/data/scripts/dock_solv.prm

>  <Rbt.Receptor>
prm/blind_docking_60.prm

>  <SCORE>
-14.904

>  <SCORE.INTER>
-14.904

>  <SCORE.INTER.CONST>
1

>  <SCORE.INTER.POLAR>
0

>  <SCORE.INTER.ROT>
0

>  <SCORE.INTER.SOLV>
3.19757

>  <SCORE.INTER.VDW>
-14.6018

>  <SCORE.INTER.norm>
-1.4904

>  <SCORE.INTRA>
0

>  <SCORE.INTRA.DIHEDRAL>
0

>  <SCORE.INTRA.DIHEDRAL.0>
0

>  <SCORE.INTRA.POLAR>
0

>  <SCORE.INTRA.POLAR.0>
0

>  <SCORE.INTRA.REPUL>
0

>  <SCORE.INTRA.REPUL.0>
0

>  <SCORE.INTRA.SOLV>
0

>  <SCORE.INTRA.SOLV.lig_0>
-4.15853

>  <SCORE.INTRA.VDW>
0

>  <SCORE.INTRA.VDW.0>
0

>  <SCORE.INTRA.norm>
0

>  <SCORE.RESTR>
0

>  <SCORE.RESTR.CAVITY>
0

>  <SCORE.RESTR.norm>
0

>  <SCORE.SYSTEM>
0

>  <SCORE.SYSTEM.CONST>
0

>  <SCORE.SYSTEM.DIHEDRAL>
0

>  <SCORE.SYSTEM.SOLV>
0

>  <SCORE.SYSTEM.norm>
0

>  <SCORE.heavy>
10

>  <SCORE.norm>
-1.4904

>  <RMSD>
2.306

$$$$
ligand
 OpenBabel02271912153D
libRbt.so/2013.1/901 2013/11/27
 10 11  0  0  0  0  0  0  0  0999 V2000
   -0.0073  -13.2084   13.0435 N   0  0  0  0  0  0  0  0  0  0  0  0
   -0.5823  -12.2144   13.6854 C   0  0  0  0  0  0  0  0  0  0  0  0
   -0.1120  -10.9145   13.4835 N   0  0  0  0  0  0  0  0  0  0  0  0
    0.9047  -10.6855   12.6557 C   0  0  0  0  0  0  0  0  0  0  0  0
    1.4812  -11.6852   12.0150 C   0  0  0  0  0  0  0  0  0  0  0  0
    1.0577  -12.9229   12.1926 C   0  0  0  0  0  0  0  0  0  0  0  0
    1.6113  -13.8350   11.5948 O   0  0  0  0  0  0  0  0  0  0  0  0
    2.4585  -11.2005   11.2510 N   0  0  0  0  0  0  0  0  0  0  0  0
    2.4742   -9.8834   11.4226 C   0  0  0  0  0  0  0  0  0  0  0  0
    1.5133   -9.5671   12.2944 N   0  0  0  0  0  0  0  0  0  0  0  0
  1  2  1  0  0  0  0
  1  6  1  0  0  0  0
  2  3  2  0  0  0  0
  3  4  1  0  0  0  0
  4  5  2  0  0  0  0
  4 10  1  0  0  0  0
  5  6  1  0  0  0  0
  5  8  1  0  0  0  0
  6  7  2  0  0  0  0
  8  9  1  0  0  0  0
  9 10  2  0  0  0  0
M  END
>  <CHROM.1>
1.08891915,-11.65531346,12.34993903,2.22117145,-0.69899133,-2.99688419

>  <Name>
ligand

>  <RI>
0

>  <Rbt.Current_Directory>
/home/itssahil/PROJECTS/Mol_Feturizer/Test_systems_manuscript/rnas/5c7w

>  <Rbt.Executable>
rbdock ($Id: //depot/dev/client3/rdock/2013.1/src/exe/rbdock.cxx#4 $)

>  <Rbt.Library>
libRbt.so (2013.1, Build901 2013/11/27)

>  <Rbt.Parameter_File>
/export/apps/rDock/src/rDock_2013.1_src/data/scripts/dock_solv.prm

>  <Rbt.Receptor>
prm/blind_docking_80.prm

>  <SCORE>
-14.9186

>  <SCORE.INTER>
-14.9186

>  <SCORE.INTER.CONST>
1

>  <SCORE.INTER.POLAR>
0

>  <SCORE.INTER.ROT>
0

>  <SCORE.INTER.SOLV>
3.18682

>  <SCORE.INTER.VDW>
-14.608

>  <SCORE.INTER.norm>
-1.49186

>  <SCORE.INTRA>
0

>  <SCORE.INTRA.DIHEDRAL>
0

>  <SCORE.INTRA.DIHEDRAL.0>
0

>  <SCORE.INTRA.POLAR>
0

>  <SCORE.INTRA.POLAR.0>
0

>  <SCORE.INTRA.REPUL>
0

>  <SCORE.INTRA.REPUL.0>
0

>  <SCORE.INTRA.SOLV>
0

>  <SCORE.INTRA.SOLV.lig_0>
-4.15853

>  <SCORE.INTRA.VDW>
0

>  <SCORE.INTRA.VDW.0>
0

>  <SCORE.INTRA.norm>
0

>  <SCORE.RESTR>
0

>  <SCORE.RESTR.CAVITY>
0

>  <SCORE.RESTR.norm>
0

>  <SCORE.SYSTEM>
0

>  <SCORE.SYSTEM.CONST>
0

>  <SCORE.SYSTEM.DIHEDRAL>
0

>  <SCORE.SYSTEM.SOLV>
0

>  <SCORE.SYSTEM.norm>
0

>  <SCORE.heavy>
10

>  <SCORE.norm>
-1.49186

>  <RMSD>
2.306

$$$$
ligand
 OpenBabel02271912153D
libRbt.so/2013.1/901 2013/11/27
 10 11  0  0  0  0  0  0  0  0999 V2000
    0.0019  -13.2084   13.0526 N   0  0  0  0  0  0  0  0  0  0  0  0
   -0.5712  -12.2169   13.7000 C   0  0  0  0  0  0  0  0  0  0  0  0
   -0.1038  -10.9158   13.4989 N   0  0  0  0  0  0  0  0  0  0  0  0
    0.9082  -10.6832   12.6664 C   0  0  0  0  0  0  0  0  0  0  0  0
    1.4827  -11.6804   12.0201 C   0  0  0  0  0  0  0  0  0  0  0  0
    1.0620  -12.9191   12.1967 C   0  0  0  0  0  0  0  0  0  0  0  0
    1.6138  -13.8289   11.5936 O   0  0  0  0  0  0  0  0  0  0  0  0
    2.4553  -11.1923   11.2522 N   0  0  0  0  0  0  0  0  0  0  0  0
    2.4699   -9.8756   11.4271 C   0  0  0  0  0  0  0  0  0  0  0  0
    1.5132   -9.5630   12.3048 N   0  0  0  0  0  0  0  0  0  0  0  0
  1  2  1  0  0  0  0
  1  6  1  0  0  0  0
  2  3  2  0  0  0  0
  3  4  1  0  0  0  0
  4  5  2  0  0  0  0
  4 10  1  0  0  0  0
  5  6  1  0  0  0  0
  5  8  1  0  0  0  0
  6  7  2  0  0  0  0
  8  9  1  0  0  0  0
  9 10  2  0  0  0  0
M  END
>  <CHROM.1>
1.09217803,-11.65193854,12.35718351,2.22027338,-0.70442588,-2.99489352

>  <Name>
ligand

>  <RI>
0

>  <Rbt.Current_Directory>
/home/itssahil/PROJECTS/Mol_Feturizer/Test_systems_manuscript/rnas/5c7w

>  <Rbt.Executable>
rbdock ($Id: //depot/dev/client3/rdock/2013.1/src/exe/rbdock.cxx#4 $)

>  <Rbt.Library>
libRbt.so (2013.1, Build901 2013/11/27)

>  <Rbt.Parameter_File>
/export/apps/rDock/src/rDock_2013.1_src/data/scripts/dock_solv.prm

>  <Rbt.Receptor>
prm/blind_docking_80.prm

>  <SCORE>
-14.9201

>  <SCORE.INTER>
-14.9201

>  <SCORE.INTER.CONST>
1

>  <SCORE.INTER.POLAR>
0

>  <SCORE.INTER.ROT>
0

>  <SCORE.INTER.SOLV>
3.19619

>  <SCORE.INTER.VDW>
-14.6122

>  <SCORE.INTER.norm>
-1.49201

>  <SCORE.INTRA>
0

>  <SCORE.INTRA.DIHEDRAL>
0

>  <SCORE.INTRA.DIHEDRAL.0>
0

>  <SCORE.INTRA.POLAR>
0

>  <SCORE.INTRA.POLAR.0>
0

>  <SCORE.INTRA.REPUL>
0

>  <SCORE.INTRA.REPUL.0>
0

>  <SCORE.INTRA.SOLV>
0

>  <SCORE.INTRA.SOLV.lig_0>
-4.15853

>  <SCORE.INTRA.VDW>
0

>  <SCORE.INTRA.VDW.0>
0

>  <SCORE.INTRA.norm>
0

>  <SCORE.RESTR>
0

>  <SCORE.RESTR.CAVITY>
0

>  <SCORE.RESTR.norm>
0

>  <SCORE.SYSTEM>
0

>  <SCORE.SYSTEM.CONST>
0

>  <SCORE.SYSTEM.DIHEDRAL>
0

>  <SCORE.SYSTEM.SOLV>
0

>  <SCORE.SYSTEM.norm>
0

>  <SCORE.heavy>
10

>  <SCORE.norm>
-1.49201

>  <RMSD>
2.306

$$$$
ligand
 OpenBabel02271912153D
libRbt.so/2013.1/901 2013/11/27
 10 11  0  0  0  0  0  0  0  0999 V2000
    0.0023  -13.2467   13.0388 N   0  0  0  0  0  0  0  0  0  0  0  0
   -0.5676  -12.2591   13.6950 C   0  0  0  0  0  0  0  0  0  0  0  0
   -0.1004  -10.9569   13.5003 N   0  0  0  0  0  0  0  0  0  0  0  0
    0.9082  -10.7195   12.6651 C   0  0  0  0  0  0  0  0  0  0  0  0
    1.4796  -11.7129   12.0101 C   0  0  0  0  0  0  0  0  0  0  0  0
    1.0590  -12.9525   12.1805 C   0  0  0  0  0  0  0  0  0  0  0  0
    1.6079  -13.8587   11.5694 O   0  0  0  0  0  0  0  0  0  0  0  0
    2.4493  -11.2203   11.2413 N   0  0  0  0  0  0  0  0  0  0  0  0
    2.4653   -9.9048   11.4246 C   0  0  0  0  0  0  0  0  0  0  0  0
    1.5123   -9.5973   12.3081 N   0  0  0  0  0  0  0  0  0  0  0  0
  1  2  1  0  0  0  0
  1  6  1  0  0  0  0
  2  3  2  0  0  0  0
  3  4  1  0  0  0  0
  4  5  2  0  0  0  0
  4 10  1  0  0  0  0
  5  6  1  0  0  0  0
  5  8  1  0  0  0  0
  6  7  2  0  0  0  0
  8  9  1  0  0  0  0
  9 10  2  0  0  0  0
M  END
>  <CHROM.1>
1.09047425,-11.68637135,12.34893530,2.22170915,-0.70841740,-2.98757868

>  <Name>
ligand

>  <RI>
0

>  <Rbt.Current_Directory>
/home/itssahil/PROJECTS/Mol_Feturizer/Test_systems_manuscript/rnas/5c7w

>  <Rbt.Executable>
rbdock ($Id: //depot/dev/client3/rdock/2013.1/src/exe/rbdock.cxx#4 $)

>  <Rbt.Library>
libRbt.so (2013.1, Build901 2013/11/27)

>  <Rbt.Parameter_File>
/export/apps/rDock/src/rDock_2013.1_src/data/scripts/dock_solv.prm

>  <Rbt.Receptor>
prm/pocket_docking_3.prm

>  <SCORE>
-14.8796

>  <SCORE.INTER>
-14.8796

>  <SCORE.INTER.CONST>
1

>  <SCORE.INTER.POLAR>
0

>  <SCORE.INTER.ROT>
0

>  <SCORE.INTER.SOLV>
3.21833

>  <SCORE.INTER.VDW>
-14.5925

>  <SCORE.INTER.norm>
-1.48796

>  <SCORE.INTRA>
0

>  <SCORE.INTRA.DIHEDRAL>
0

>  <SCORE.INTRA.DIHEDRAL.0>
0

>  <SCORE.INTRA.POLAR>
0

>  <SCORE.INTRA.POLAR.0>
0

>  <SCORE.INTRA.REPUL>
0

>  <SCORE.INTRA.REPUL.0>
0

>  <SCORE.INTRA.SOLV>
0

>  <SCORE.INTRA.SOLV.lig_0>
-4.15853

>  <SCORE.INTRA.VDW>
0

>  <SCORE.INTRA.VDW.0>
0

>  <SCORE.INTRA.norm>
0

>  <SCORE.RESTR>
0

>  <SCORE.RESTR.CAVITY>
0

>  <SCORE.RESTR.norm>
0

>  <SCORE.SYSTEM>
0

>  <SCORE.SYSTEM.CONST>
0

>  <SCORE.SYSTEM.DIHEDRAL>
0

>  <SCORE.SYSTEM.SOLV>
0

>  <SCORE.SYSTEM.norm>
0

>  <SCORE.heavy>
10

>  <SCORE.norm>
-1.48796

>  <RMSD>
2.306

$$$$
ligand
 OpenBabel02271912153D
libRbt.so/2013.1/901 2013/11/27
 10 11  0  0  0  0  0  0  0  0999 V2000
    0.0010  -13.2178   13.0476 N   0  0  0  0  0  0  0  0  0  0  0  0
   -0.5793  -12.2275   13.6903 C   0  0  0  0  0  0  0  0  0  0  0  0
   -0.1160  -10.9248   13.4892 N   0  0  0  0  0  0  0  0  0  0  0  0
    0.8992  -10.6897   12.6614 C   0  0  0  0  0  0  0  0  0  0  0  0
    1.4810  -11.6859   12.0199 C   0  0  0  0  0  0  0  0  0  0  0  0
    1.0643  -12.9259   12.1967 C   0  0  0  0  0  0  0  0  0  0  0  0
    1.6228  -13.8346   11.5981 O   0  0  0  0  0  0  0  0  0  0  0  0
    2.4556  -11.1953   11.2561 N   0  0  0  0  0  0  0  0  0  0  0  0
    2.4641   -9.8782   11.4286 C   0  0  0  0  0  0  0  0  0  0  0  0
    1.5016   -9.5678   12.3009 N   0  0  0  0  0  0  0  0  0  0  0  0
  1  2  1  0  0  0  0
  1  6  1  0  0  0  0
  2  3  2  0  0  0  0
  3  4  1  0  0  0  0
  4  5  2  0  0  0  0
  4 10  1  0  0  0  0
  5  6  1  0  0  0  0
  5  8  1  0  0  0  0
  6  7  2  0  0  0  0
  8  9  1  0  0  0  0
  9 10  2  0  0  0  0
M  END
>  <CHROM.1>
1.08865721,-11.65831795,12.35493347,2.21417292,-0.69993887,-3.00065979

>  <Name>
ligand

>  <RI>
0

>  <Rbt.Current_Directory>
/home/itssahil/PROJECTS/Mol_Feturizer/Test_systems_manuscript/rnas/5c7w

>  <Rbt.Executable>
rbdock ($Id: //depot/dev/client3/rdock/2013.1/src/exe/rbdock.cxx#4 $)

>  <Rbt.Library>
libRbt.so (2013.1, Build901 2013/11/27)

>  <Rbt.Parameter_File>
/export/apps/rDock/src/rDock_2013.1_src/data/scripts/dock_solv.prm

>  <Rbt.Receptor>
prm/pocket_docking_3.prm

>  <SCORE>
-14.9178

>  <SCORE.INTER>
-14.9178

>  <SCORE.INTER.CONST>
1

>  <SCORE.INTER.POLAR>
0

>  <SCORE.INTER.ROT>
0

>  <SCORE.INTER.SOLV>
3.19416

>  <SCORE.INTER.VDW>
-14.6099

>  <SCORE.INTER.norm>
-1.49178

>  <SCORE.INTRA>
0

>  <SCORE.INTRA.DIHEDRAL>
0

>  <SCORE.INTRA.DIHEDRAL.0>
0

>  <SCORE.INTRA.POLAR>
0

>  <SCORE.INTRA.POLAR.0>
0

>  <SCORE.INTRA.REPUL>
0

>  <SCORE.INTRA.REPUL.0>
0

>  <SCORE.INTRA.SOLV>
0

>  <SCORE.INTRA.SOLV.lig_0>
-4.15853

>  <SCORE.INTRA.VDW>
0

>  <SCORE.INTRA.VDW.0>
0

>  <SCORE.INTRA.norm>
0

>  <SCORE.RESTR>
0

>  <SCORE.RESTR.CAVITY>
0

>  <SCORE.RESTR.norm>
0

>  <SCORE.SYSTEM>
0

>  <SCORE.SYSTEM.CONST>
0

>  <SCORE.SYSTEM.DIHEDRAL>
0

>  <SCORE.SYSTEM.SOLV>
0

>  <SCORE.SYSTEM.norm>
0

>  <SCORE.heavy>
10

>  <SCORE.norm>
-1.49178

>  <RMSD>
2.306

$$$$
ligand
 OpenBabel02271912153D
libRbt.so/2013.1/901 2013/11/27
 10 11  0  0  0  0  0  0  0  0999 V2000
   -0.0064  -13.1981   13.0764 N   0  0  0  0  0  0  0  0  0  0  0  0
   -0.5820  -12.2050   13.7190 C   0  0  0  0  0  0  0  0  0  0  0  0
   -0.1053  -10.9059   13.5265 N   0  0  0  0  0  0  0  0  0  0  0  0
    0.9179  -10.6770   12.7068 C   0  0  0  0  0  0  0  0  0  0  0  0
    1.4950  -11.6759   12.0654 C   0  0  0  0  0  0  0  0  0  0  0  0
    1.0656  -12.9127   12.2342 C   0  0  0  0  0  0  0  0  0  0  0  0
    1.6198  -13.8242   11.6359 O   0  0  0  0  0  0  0  0  0  0  0  0
    2.4794  -11.1913   11.3104 N   0  0  0  0  0  0  0  0  0  0  0  0
    2.4989   -9.8751   11.4884 C   0  0  0  0  0  0  0  0  0  0  0  0
    1.5332   -9.5592   12.3550 N   0  0  0  0  0  0  0  0  0  0  0  0
  1  2  1  0  0  0  0
  1  6  1  0  0  0  0
  2  3  2  0  0  0  0
  3  4  1  0  0  0  0
  4  5  2  0  0  0  0
  4 10  1  0  0  0  0
  5  6  1  0  0  0  0
  5  8  1  0  0  0  0
  6  7  2  0  0  0  0
  8  9  1  0  0  0  0
  9 10  2  0  0  0  0
M  END
>  <CHROM.1>
1.10050180,-11.64604577,12.39775985,2.22477701,-0.69160829,-2.98984888

>  <Name>
ligand

>  <RI>
0

>  <Rbt.Current_Directory>
/home/itssahil/PROJECTS/Mol_Feturizer/Test_systems_manuscript/rnas/5c7w

>  <Rbt.Executable>
rbdock ($Id: //depot/dev/client3/rdock/2013.1/src/exe/rbdock.cxx#4 $)

>  <Rbt.Library>
libRbt.so (2013.1, Build901 2013/11/27)

>  <Rbt.Parameter_File>
/export/apps/rDock/src/rDock_2013.1_src/data/scripts/dock_solv.prm

>  <Rbt.Receptor>
prm/pocket_docking_4.prm

>  <SCORE>
-14.8646

>  <SCORE.INTER>
-14.8646

>  <SCORE.INTER.CONST>
1

>  <SCORE.INTER.POLAR>
0

>  <SCORE.INTER.ROT>
0

>  <SCORE.INTER.SOLV>
3.15756

>  <SCORE.INTER.VDW>
-14.5623

>  <SCORE.INTER.norm>
-1.48646

>  <SCORE.INTRA>
0

>  <SCORE.INTRA.DIHEDRAL>
0

>  <SCORE.INTRA.DIHEDRAL.0>
0

>  <SCORE.INTRA.POLAR>
0

>  <SCORE.INTRA.POLAR.0>
0

>  <SCORE.INTRA.REPUL>
0

>  <SCORE.INTRA.REPUL.0>
0

>  <SCORE.INTRA.SOLV>
0

>  <SCORE.INTRA.SOLV.lig_0>
-4.15853

>  <SCORE.INTRA.VDW>
0

>  <SCORE.INTRA.VDW.0>
0

>  <SCORE.INTRA.norm>
0

>  <SCORE.RESTR>
0

>  <SCORE.RESTR.CAVITY>
0

>  <SCORE.RESTR.norm>
0

>  <SCORE.SYSTEM>
0

>  <SCORE.SYSTEM.CONST>
0

>  <SCORE.SYSTEM.DIHEDRAL>
0

>  <SCORE.SYSTEM.SOLV>
0

>  <SCORE.SYSTEM.norm>
0

>  <SCORE.heavy>
10

>  <SCORE.norm>
-1.48646

>  <RMSD>
2.306

$$$$
ligand
 OpenBabel02271912153D
libRbt.so/2013.1/901 2013/11/27
 10 11  0  0  0  0  0  0  0  0999 V2000
    0.0028  -13.2350   13.0521 N   0  0  0  0  0  0  0  0  0  0  0  0
   -0.5883  -12.2502   13.6935 C   0  0  0  0  0  0  0  0  0  0  0  0
   -0.1406  -10.9427   13.4893 N   0  0  0  0  0  0  0  0  0  0  0  0
    0.8710  -10.6974   12.6599 C   0  0  0  0  0  0  0  0  0  0  0  0
    1.4637  -11.6879   12.0197 C   0  0  0  0  0  0  0  0  0  0  0  0
    1.0618  -12.9324   12.1995 C   0  0  0  0  0  0  0  0  0  0  0  0
    1.6302  -13.8357   11.6021 O   0  0  0  0  0  0  0  0  0  0  0  0
    2.4317  -11.1875   11.2539 N   0  0  0  0  0  0  0  0  0  0  0  0
    2.4250   -9.8701   11.4238 C   0  0  0  0  0  0  0  0  0  0  0  0
    1.4598   -9.5692   12.2964 N   0  0  0  0  0  0  0  0  0  0  0  0
  1  2  1  0  0  0  0
  1  6  1  0  0  0  0
  2  3  2  0  0  0  0
  3  4  1  0  0  0  0
  4  5  2  0  0  0  0
  4 10  1  0  0  0  0
  5  6  1  0  0  0  0
  5  8  1  0  0  0  0
  6  7  2  0  0  0  0
  8  9  1  0  0  0  0
  9 10  2  0  0  0  0
M  END
>  <CHROM.1>
1.07142260,-11.66429706,12.35515312,2.19918155,-0.70258140,-3.01234586

>  <Name>
ligand

>  <RI>
0

>  <Rbt.Current_Directory>
/home/itssahil/PROJECTS/Mol_Feturizer/Test_systems_manuscript/rnas/5c7w

>  <Rbt.Executable>
rbdock ($Id: //depot/dev/client3/rdock/2013.1/src/exe/rbdock.cxx#4 $)

>  <Rbt.Library>
libRbt.so (2013.1, Build901 2013/11/27)

>  <Rbt.Parameter_File>
/export/apps/rDock/src/rDock_2013.1_src/data/scripts/dock_solv.prm

>  <Rbt.Receptor>
prm/pocket_docking_4.prm

>  <SCORE>
-14.8972

>  <SCORE.INTER>
-14.8972

>  <SCORE.INTER.CONST>
1

>  <SCORE.INTER.POLAR>
0

>  <SCORE.INTER.ROT>
0

>  <SCORE.INTER.SOLV>
3.21131

>  <SCORE.INTER.VDW>
-14.6019

>  <SCORE.INTER.norm>
-1.48972

>  <SCORE.INTRA>
0

>  <SCORE.INTRA.DIHEDRAL>
0

>  <SCORE.INTRA.DIHEDRAL.0>
0

>  <SCORE.INTRA.POLAR>
0

>  <SCORE.INTRA.POLAR.0>
0

>  <SCORE.INTRA.REPUL>
0

>  <SCORE.INTRA.REPUL.0>
0

>  <SCORE.INTRA.SOLV>
0

>  <SCORE.INTRA.SOLV.lig_0>
-4.15853

>  <SCORE.INTRA.VDW>
0

>  <SCORE.INTRA.VDW.0>
0

>  <SCORE.INTRA.norm>
0

>  <SCORE.RESTR>
0

>  <SCORE.RESTR.CAVITY>
0

>  <SCORE.RESTR.norm>
0

>  <SCORE.SYSTEM>
0

>  <SCORE.SYSTEM.CONST>
0

>  <SCORE.SYSTEM.DIHEDRAL>
0

>  <SCORE.SYSTEM.SOLV>
0

>  <SCORE.SYSTEM.norm>
0

>  <SCORE.heavy>
10

>  <SCORE.norm>
-1.48972

>  <RMSD>
2.306

$$$$
ligand
 OpenBabel02271912153D
libRbt.so/2013.1/901 2013/11/27
 10 11  0  0  0  0  0  0  0  0999 V2000
   -0.0081  -13.1959   13.0737 N   0  0  0  0  0  0  0  0  0  0  0  0
   -0.5799  -12.1982   13.7126 C   0  0  0  0  0  0  0  0  0  0  0  0
   -0.1038  -10.9007   13.5088 N   0  0  0  0  0  0  0  0  0  0  0  0
    0.9151  -10.6776   12.6822 C   0  0  0  0  0  0  0  0  0  0  0  0
    1.4884  -11.6811   12.0445 C   0  0  0  0  0  0  0  0  0  0  0  0
    1.0595  -12.9165   12.2239 C   0  0  0  0  0  0  0  0  0  0  0  0
    1.6102  -13.8322   11.6287 O   0  0  0  0  0  0  0  0  0  0  0  0
    2.4690  -11.2020   11.2811 N   0  0  0  0  0  0  0  0  0  0  0  0
    2.4899   -9.8846   11.4501 C   0  0  0  0  0  0  0  0  0  0  0  0
    1.5290   -9.5625   12.3197 N   0  0  0  0  0  0  0  0  0  0  0  0
  1  2  1  0  0  0  0
  1  6  1  0  0  0  0
  2  3  2  0  0  0  0
  3  4  1  0  0  0  0
  4  5  2  0  0  0  0
  4 10  1  0  0  0  0
  5  6  1  0  0  0  0
  5  8  1  0  0  0  0
  6  7  2  0  0  0  0
  8  9  1  0  0  0  0
  9 10  2  0  0  0  0
M  END
>  <CHROM.1>
1.09577230,-11.64881333,12.37873202,2.22628503,-0.69679491,-2.99560055

>  <Name>
ligand

>  <RI>
0

>  <Rbt.Current_Directory>
/home/itssahil/PROJECTS/Mol_Feturizer/Test_systems_manuscript/rnas/5c7w

>  <Rbt.Executable>
rbdock ($Id: //depot/dev/client3/rdock/2013.1/src/exe/rbdock.cxx#4 $)

>  <Rbt.Library>
libRbt.so (2013.1, Build901 2013/11/27)

>  <Rbt.Parameter_File>
/export/apps/rDock/src/rDock_2013.1_src/data/scripts/dock_solv.prm

>  <Rbt.Receptor>
prm/pocket_docking_4.prm

>  <SCORE>
-14.9058

>  <SCORE.INTER>
-14.9058

>  <SCORE.INTER.CONST>
1

>  <SCORE.INTER.POLAR>
0

>  <SCORE.INTER.ROT>
0

>  <SCORE.INTER.SOLV>
3.16596

>  <SCORE.INTER.VDW>
-14.5925

>  <SCORE.INTER.norm>
-1.49058

>  <SCORE.INTRA>
0

>  <SCORE.INTRA.DIHEDRAL>
0

>  <SCORE.INTRA.DIHEDRAL.0>
0

>  <SCORE.INTRA.POLAR>
0

>  <SCORE.INTRA.POLAR.0>
0

>  <SCORE.INTRA.REPUL>
0

>  <SCORE.INTRA.REPUL.0>
0

>  <SCORE.INTRA.SOLV>
0

>  <SCORE.INTRA.SOLV.lig_0>
-4.15853

>  <SCORE.INTRA.VDW>
0

>  <SCORE.INTRA.VDW.0>
0

>  <SCORE.INTRA.norm>
0

>  <SCORE.RESTR>
0

>  <SCORE.RESTR.CAVITY>
0

>  <SCORE.RESTR.norm>
0

>  <SCORE.SYSTEM>
0

>  <SCORE.SYSTEM.CONST>
0

>  <SCORE.SYSTEM.DIHEDRAL>
0

>  <SCORE.SYSTEM.SOLV>
0

>  <SCORE.SYSTEM.norm>
0

>  <SCORE.heavy>
10

>  <SCORE.norm>
-1.49058

>  <RMSD>
2.306

$$$$
ligand
 OpenBabel02271912153D
libRbt.so/2013.1/901 2013/11/27
 10 11  0  0  0  0  0  0  0  0999 V2000
    0.0097  -13.2405   12.9723 N   0  0  0  0  0  0  0  0  0  0  0  0
   -0.5449  -12.2682   13.6634 C   0  0  0  0  0  0  0  0  0  0  0  0
   -0.0776  -10.9627   13.4925 N   0  0  0  0  0  0  0  0  0  0  0  0
    0.9159  -10.7069   12.6447 C   0  0  0  0  0  0  0  0  0  0  0  0
    1.4720  -11.6851   11.9545 C   0  0  0  0  0  0  0  0  0  0  0  0
    1.0511  -12.9275   12.1019 C   0  0  0  0  0  0  0  0  0  0  0  0
    1.5857  -13.8195   11.4582 O   0  0  0  0  0  0  0  0  0  0  0  0
    2.4286  -11.1759   11.1802 N   0  0  0  0  0  0  0  0  0  0  0  0
    2.4519   -9.8653   11.3958 C   0  0  0  0  0  0  0  0  0  0  0  0
    1.5165   -9.5777   12.3045 N   0  0  0  0  0  0  0  0  0  0  0  0
  1  2  1  0  0  0  0
  1  6  1  0  0  0  0
  2  3  2  0  0  0  0
  3  4  1  0  0  0  0
  4  5  2  0  0  0  0
  4 10  1  0  0  0  0
  5  6  1  0  0  0  0
  5  8  1  0  0  0  0
  6  7  2  0  0  0  0
  8  9  1  0  0  0  0
  9 10  2  0  0  0  0
M  END
>  <CHROM.1>
1.08938190,-11.66605634,12.30117496,2.22940956,-0.72643165,-2.95758621

>  <Name>
ligand

>  <RI>
0

>  <Rbt.Current_Directory>
/home/itssahil/PROJECTS/Mol_Feturizer/Test_systems_manuscript/rnas/5c7w

>  <Rbt.Executable>
rbdock ($Id: //depot/dev/client3/rdock/2013.1/src/exe/rbdock.cxx#4 $)

>  <Rbt.Library>
libRbt.so (2013.1, Build901 2013/11/27)

>  <Rbt.Parameter_File>
/export/apps/rDock/src/rDock_2013.1_src/data/scripts/dock_solv.prm

>  <Rbt.Receptor>
prm/pocket_docking_5.prm

>  <SCORE>
-14.8154

>  <SCORE.INTER>
-14.8154

>  <SCORE.INTER.CONST>
1

>  <SCORE.INTER.POLAR>
0

>  <SCORE.INTER.ROT>
0

>  <SCORE.INTER.SOLV>
3.28225

>  <SCORE.INTER.VDW>
-14.571

>  <SCORE.INTER.norm>
-1.48154

>  <SCORE.INTRA>
0

>  <SCORE.INTRA.DIHEDRAL>
0

>  <SCORE.INTRA.DIHEDRAL.0>
0

>  <SCORE.INTRA.POLAR>
0

>  <SCORE.INTRA.POLAR.0>
0

>  <SCORE.INTRA.REPUL>
0

>  <SCORE.INTRA.REPUL.0>
0

>  <SCORE.INTRA.SOLV>
0

>  <SCORE.INTRA.SOLV.lig_0>
-4.15853

>  <SCORE.INTRA.VDW>
0

>  <SCORE.INTRA.VDW.0>
0

>  <SCORE.INTRA.norm>
0

>  <SCORE.RESTR>
0

>  <SCORE.RESTR.CAVITY>
0

>  <SCORE.RESTR.norm>
0

>  <SCORE.SYSTEM>
0

>  <SCORE.SYSTEM.CONST>
0

>  <SCORE.SYSTEM.DIHEDRAL>
0

>  <SCORE.SYSTEM.SOLV>
0

>  <SCORE.SYSTEM.norm>
0

>  <SCORE.heavy>
10

>  <SCORE.norm>
-1.48154

>  <RMSD>
2.306

$$$$
ligand
 OpenBabel02271912153D
libRbt.so/2013.1/901 2013/11/27
 10 11  0  0  0  0  0  0  0  0999 V2000
   -0.0053  -13.1696   13.0078 N   0  0  0  0  0  0  0  0  0  0  0  0
   -0.5970  -12.2055   13.6795 C   0  0  0  0  0  0  0  0  0  0  0  0
   -0.1290  -10.8964   13.5409 N   0  0  0  0  0  0  0  0  0  0  0  0
    0.9020  -10.6291   12.7429 C   0  0  0  0  0  0  0  0  0  0  0  0
    1.4952  -11.5989   12.0722 C   0  0  0  0  0  0  0  0  0  0  0  0
    1.0743  -12.8446   12.1900 C   0  0  0  0  0  0  0  0  0  0  0  0
    1.6434  -13.7288   11.5653 O   0  0  0  0  0  0  0  0  0  0  0  0
    2.4845  -11.0789   11.3478 N   0  0  0  0  0  0  0  0  0  0  0  0
    2.4907   -9.7700   11.5745 C   0  0  0  0  0  0  0  0  0  0  0  0
    1.5120   -9.4942   12.4402 N   0  0  0  0  0  0  0  0  0  0  0  0
  1  2  1  0  0  0  0
  1  6  1  0  0  0  0
  2  3  2  0  0  0  0
  3  4  1  0  0  0  0
  4  5  2  0  0  0  0
  4 10  1  0  0  0  0
  5  6  1  0  0  0  0
  5  8  1  0  0  0  0
  6  7  2  0  0  0  0
  8  9  1  0  0  0  0
  9 10  2  0  0  0  0
M  END
>  <CHROM.1>
1.09651708,-11.58457731,12.40057863,2.21165070,-0.68097178,-2.96120829

>  <Name>
ligand

>  <RI>
0

>  <Rbt.Current_Directory>
/home/itssahil/PROJECTS/Mol_Feturizer/Test_systems_manuscript/rnas/5c7w

>  <Rbt.Executable>
rbdock ($Id: //depot/dev/client3/rdock/2013.1/src/exe/rbdock.cxx#4 $)

>  <Rbt.Library>
libRbt.so (2013.1, Build901 2013/11/27)

>  <Rbt.Parameter_File>
/export/apps/rDock/src/rDock_2013.1_src/data/scripts/dock_solv.prm

>  <Rbt.Receptor>
prm/pocket_docking_5.prm

>  <SCORE>
-14.8882

>  <SCORE.INTER>
-14.8882

>  <SCORE.INTER.CONST>
1

>  <SCORE.INTER.POLAR>
0

>  <SCORE.INTER.ROT>
0

>  <SCORE.INTER.SOLV>
3.1745

>  <SCORE.INTER.VDW>
-14.5837

>  <SCORE.INTER.norm>
-1.48882

>  <SCORE.INTRA>
0

>  <SCORE.INTRA.DIHEDRAL>
0

>  <SCORE.INTRA.DIHEDRAL.0>
0

>  <SCORE.INTRA.POLAR>
0

>  <SCORE.INTRA.POLAR.0>
0

>  <SCORE.INTRA.REPUL>
0

>  <SCORE.INTRA.REPUL.0>
0

>  <SCORE.INTRA.SOLV>
0

>  <SCORE.INTRA.SOLV.lig_0>
-4.15853

>  <SCORE.INTRA.VDW>
0

>  <SCORE.INTRA.VDW.0>
0

>  <SCORE.INTRA.norm>
0

>  <SCORE.RESTR>
0

>  <SCORE.RESTR.CAVITY>
0

>  <SCORE.RESTR.norm>
0

>  <SCORE.SYSTEM>
0

>  <SCORE.SYSTEM.CONST>
0

>  <SCORE.SYSTEM.DIHEDRAL>
0

>  <SCORE.SYSTEM.SOLV>
0

>  <SCORE.SYSTEM.norm>
0

>  <SCORE.heavy>
10

>  <SCORE.norm>
-1.48882

>  <RMSD>
2.306

$$$$
ligand
 OpenBabel02271912153D
libRbt.so/2013.1/901 2013/11/27
 10 11  0  0  0  0  0  0  0  0999 V2000
    0.0009  -13.1887   13.0223 N   0  0  0  0  0  0  0  0  0  0  0  0
   -0.5732  -12.2156   13.6961 C   0  0  0  0  0  0  0  0  0  0  0  0
   -0.0965  -10.9113   13.5424 N   0  0  0  0  0  0  0  0  0  0  0  0
    0.9252  -10.6576   12.7282 C   0  0  0  0  0  0  0  0  0  0  0  0
    1.5008  -11.6366   12.0554 C   0  0  0  0  0  0  0  0  0  0  0  0
    1.0714  -12.8779   12.1872 C   0  0  0  0  0  0  0  0  0  0  0  0
    1.6242  -13.7708   11.5602 O   0  0  0  0  0  0  0  0  0  0  0  0
    2.4839  -11.1294   11.3138 N   0  0  0  0  0  0  0  0  0  0  0  0
    2.5041   -9.8192   11.5318 C   0  0  0  0  0  0  0  0  0  0  0  0
    1.5401   -9.5298   12.4096 N   0  0  0  0  0  0  0  0  0  0  0  0
  1  2  1  0  0  0  0
  1  6  1  0  0  0  0
  2  3  2  0  0  0  0
  3  4  1  0  0  0  0
  4  5  2  0  0  0  0
  4 10  1  0  0  0  0
  5  6  1  0  0  0  0
  5  8  1  0  0  0  0
  6  7  2  0  0  0  0
  8  9  1  0  0  0  0
  9 10  2  0  0  0  0
M  END
>  <CHROM.1>
1.10695211,-11.61684408,12.38931569,2.22548674,-0.69344292,-2.95883828

>  <Name>
ligand

>  <RI>
0

>  <Rbt.Current_Directory>
/home/itssahil/PROJECTS/Mol_Feturizer/Test_systems_manuscript/rnas/5c7w

>  <Rbt.Executable>
rbdock ($Id: //depot/dev/client3/rdock/2013.1/src/exe/rbdock.cxx#4 $)

>  <Rbt.Library>
libRbt.so (2013.1, Build901 2013/11/27)

>  <Rbt.Parameter_File>
/export/apps/rDock/src/rDock_2013.1_src/data/scripts/dock_solv.prm

>  <Rbt.Receptor>
prm/pocket_docking_5.prm

>  <SCORE>
-14.8929

>  <SCORE.INTER>
-14.8929

>  <SCORE.INTER.CONST>
1

>  <SCORE.INTER.POLAR>
0

>  <SCORE.INTER.ROT>
0

>  <SCORE.INTER.SOLV>
3.18383

>  <SCORE.INTER.VDW>
-14.5899

>  <SCORE.INTER.norm>
-1.48929

>  <SCORE.INTRA>
0

>  <SCORE.INTRA.DIHEDRAL>
0

>  <SCORE.INTRA.DIHEDRAL.0>
0

>  <SCORE.INTRA.POLAR>
0

>  <SCORE.INTRA.POLAR.0>
0

>  <SCORE.INTRA.REPUL>
0

>  <SCORE.INTRA.REPUL.0>
0

>  <SCORE.INTRA.SOLV>
0

>  <SCORE.INTRA.SOLV.lig_0>
-4.15853

>  <SCORE.INTRA.VDW>
0

>  <SCORE.INTRA.VDW.0>
0

>  <SCORE.INTRA.norm>
0

>  <SCORE.RESTR>
0

>  <SCORE.RESTR.CAVITY>
0

>  <SCORE.RESTR.norm>
0

>  <SCORE.SYSTEM>
0

>  <SCORE.SYSTEM.CONST>
0

>  <SCORE.SYSTEM.DIHEDRAL>
0

>  <SCORE.SYSTEM.SOLV>
0

>  <SCORE.SYSTEM.norm>
0

>  <SCORE.heavy>
10

>  <SCORE.norm>
-1.48929

>  <RMSD>
2.306

$$$$
ligand
 OpenBabel02271912153D
libRbt.so/2013.1/901 2013/11/27
 10 11  0  0  0  0  0  0  0  0999 V2000
   -0.0015  -13.2330   13.0488 N   0  0  0  0  0  0  0  0  0  0  0  0
   -0.5623  -12.2425   13.7084 C   0  0  0  0  0  0  0  0  0  0  0  0
   -0.0930  -10.9420   13.5069 N   0  0  0  0  0  0  0  0  0  0  0  0
    0.9084  -10.7092   12.6618 C   0  0  0  0  0  0  0  0  0  0  0  0
    1.4707  -11.7055   12.0033 C   0  0  0  0  0  0  0  0  0  0  0  0
    1.0481  -12.9435   12.1801 C   0  0  0  0  0  0  0  0  0  0  0  0
    1.5885  -13.8524   11.5655 O   0  0  0  0  0  0  0  0  0  0  0  0
    2.4346  -11.2172   11.2246 N   0  0  0  0  0  0  0  0  0  0  0  0
    2.4562   -9.9014   11.4052 C   0  0  0  0  0  0  0  0  0  0  0  0
    1.5124   -9.5894   12.2971 N   0  0  0  0  0  0  0  0  0  0  0  0
  1  2  1  0  0  0  0
  1  6  1  0  0  0  0
  2  3  2  0  0  0  0
  3  4  1  0  0  0  0
  4  5  2  0  0  0  0
  4 10  1  0  0  0  0
  5  6  1  0  0  0  0
  5  8  1  0  0  0  0
  6  7  2  0  0  0  0
  8  9  1  0  0  0  0
  9 10  2  0  0  0  0
M  END
>  <CHROM.1>
1.08484489,-11.67714824,12.34579935,2.22750334,-0.71721751,-2.98566356

>  <Name>
ligand

>  <RI>
0

>  <Rbt.Current_Directory>
/home/itssahil/PROJECTS/Mol_Feturizer/Test_systems_manuscript/rnas/5c7w

>  <Rbt.Executable>
rbdock ($Id: //depot/dev/client3/rdock/2013.1/src/exe/rbdock.cxx#4 $)

>  <Rbt.Library>
libRbt.so (2013.1, Build901 2013/11/27)

>  <Rbt.Parameter_File>
/export/apps/rDock/src/rDock_2013.1_src/data/scripts/dock_solv.prm

>  <Rbt.Receptor>
prm/pocket_docking_7.prm

>  <SCORE>
-14.8785

>  <SCORE.INTER>
-14.8785

>  <SCORE.INTER.CONST>
1

>  <SCORE.INTER.POLAR>
0

>  <SCORE.INTER.ROT>
0

>  <SCORE.INTER.SOLV>
3.22692

>  <SCORE.INTER.VDW>
-14.5946

>  <SCORE.INTER.norm>
-1.48785

>  <SCORE.INTRA>
0

>  <SCORE.INTRA.DIHEDRAL>
0

>  <SCORE.INTRA.DIHEDRAL.0>
0

>  <SCORE.INTRA.POLAR>
0

>  <SCORE.INTRA.POLAR.0>
0

>  <SCORE.INTRA.REPUL>
0

>  <SCORE.INTRA.REPUL.0>
0

>  <SCORE.INTRA.SOLV>
0

>  <SCORE.INTRA.SOLV.lig_0>
-4.15853

>  <SCORE.INTRA.VDW>
0

>  <SCORE.INTRA.VDW.0>
0

>  <SCORE.INTRA.norm>
0

>  <SCORE.RESTR>
0

>  <SCORE.RESTR.CAVITY>
0

>  <SCORE.RESTR.norm>
0

>  <SCORE.SYSTEM>
0

>  <SCORE.SYSTEM.CONST>
0

>  <SCORE.SYSTEM.DIHEDRAL>
0

>  <SCORE.SYSTEM.SOLV>
0

>  <SCORE.SYSTEM.norm>
0

>  <SCORE.heavy>
10

>  <SCORE.norm>
-1.48785

>  <RMSD>
2.306

$$$$
ligand
 OpenBabel02271912153D
libRbt.so/2013.1/901 2013/11/27
 10 11  0  0  0  0  0  0  0  0999 V2000
   -0.0024  -13.2275   13.0395 N   0  0  0  0  0  0  0  0  0  0  0  0
   -0.5742  -12.2358   13.6877 C   0  0  0  0  0  0  0  0  0  0  0  0
   -0.1032  -10.9354   13.4898 N   0  0  0  0  0  0  0  0  0  0  0  0
    0.9107  -10.7039   12.6593 C   0  0  0  0  0  0  0  0  0  0  0  0
    1.4839  -11.7014   12.0122 C   0  0  0  0  0  0  0  0  0  0  0  0
    1.0598  -12.9394   12.1860 C   0  0  0  0  0  0  0  0  0  0  0  0
    1.6104  -13.8494   11.5822 O   0  0  0  0  0  0  0  0  0  0  0  0
    2.4589  -11.2143   11.2468 N   0  0  0  0  0  0  0  0  0  0  0  0
    2.4765   -9.8980   11.4241 C   0  0  0  0  0  0  0  0  0  0  0  0
    1.5190   -9.5845   12.3007 N   0  0  0  0  0  0  0  0  0  0  0  0
  1  2  1  0  0  0  0
  1  6  1  0  0  0  0
  2  3  2  0  0  0  0
  3  4  1  0  0  0  0
  4  5  2  0  0  0  0
  4 10  1  0  0  0  0
  5  6  1  0  0  0  0
  5  8  1  0  0  0  0
  6  7  2  0  0  0  0
  8  9  1  0  0  0  0
  9 10  2  0  0  0  0
M  END
>  <CHROM.1>
1.09284208,-11.67253675,12.34872006,2.22313476,-0.70240047,-2.99127739

>  <Name>
ligand

>  <RI>
0

>  <Rbt.Current_Directory>
/home/itssahil/PROJECTS/Mol_Feturizer/Test_systems_manuscript/rnas/5c7w

>  <Rbt.Executable>
rbdock ($Id: //depot/dev/client3/rdock/2013.1/src/exe/rbdock.cxx#4 $)

>  <Rbt.Library>
libRbt.so (2013.1, Build901 2013/11/27)

>  <Rbt.Parameter_File>
/export/apps/rDock/src/rDock_2013.1_src/data/scripts/dock_solv.prm

>  <Rbt.Receptor>
prm/pocket_docking_8.prm

>  <SCORE>
-14.8826

>  <SCORE.INTER>
-14.8826

>  <SCORE.INTER.CONST>
1

>  <SCORE.INTER.POLAR>
0

>  <SCORE.INTER.ROT>
0

>  <SCORE.INTER.SOLV>
3.19984

>  <SCORE.INTER.VDW>
-14.5883

>  <SCORE.INTER.norm>
-1.48826

>  <SCORE.INTRA>
0

>  <SCORE.INTRA.DIHEDRAL>
0

>  <SCORE.INTRA.DIHEDRAL.0>
0

>  <SCORE.INTRA.POLAR>
0

>  <SCORE.INTRA.POLAR.0>
0

>  <SCORE.INTRA.REPUL>
0

>  <SCORE.INTRA.REPUL.0>
0

>  <SCORE.INTRA.SOLV>
0

>  <SCORE.INTRA.SOLV.lig_0>
-4.15853

>  <SCORE.INTRA.VDW>
0

>  <SCORE.INTRA.VDW.0>
0

>  <SCORE.INTRA.norm>
0

>  <SCORE.RESTR>
0

>  <SCORE.RESTR.CAVITY>
0

>  <SCORE.RESTR.norm>
0

>  <SCORE.SYSTEM>
0

>  <SCORE.SYSTEM.CONST>
0

>  <SCORE.SYSTEM.DIHEDRAL>
0

>  <SCORE.SYSTEM.SOLV>
0

>  <SCORE.SYSTEM.norm>
0

>  <SCORE.heavy>
10

>  <SCORE.norm>
-1.48826

>  <RMSD>
2.306

$$$$
ligand
 OpenBabel02271912153D
libRbt.so/2013.1/901 2013/11/27
 10 11  0  0  0  0  0  0  0  0999 V2000
    0.0154  -13.2317   12.9897 N   0  0  0  0  0  0  0  0  0  0  0  0
   -0.5522  -12.2572   13.6670 C   0  0  0  0  0  0  0  0  0  0  0  0
   -0.0891  -10.9507   13.4923 N   0  0  0  0  0  0  0  0  0  0  0  0
    0.9134  -10.6963   12.6548 C   0  0  0  0  0  0  0  0  0  0  0  0
    1.4825  -11.6766   11.9785 C   0  0  0  0  0  0  0  0  0  0  0  0
    1.0657  -12.9200   12.1297 C   0  0  0  0  0  0  0  0  0  0  0  0
    1.6124  -13.8139   11.4990 O   0  0  0  0  0  0  0  0  0  0  0  0
    2.4459  -11.1683   11.2121 N   0  0  0  0  0  0  0  0  0  0  0  0
    2.4604   -9.8562   11.4185 C   0  0  0  0  0  0  0  0  0  0  0  0
    1.5127   -9.5665   12.3138 N   0  0  0  0  0  0  0  0  0  0  0  0
  1  2  1  0  0  0  0
  1  6  1  0  0  0  0
  2  3  2  0  0  0  0
  3  4  1  0  0  0  0
  4  5  2  0  0  0  0
  4 10  1  0  0  0  0
  5  6  1  0  0  0  0
  5  8  1  0  0  0  0
  6  7  2  0  0  0  0
  8  9  1  0  0  0  0
  9 10  2  0  0  0  0
M  END
>  <CHROM.1>
1.09561375,-11.65696004,12.32034146,2.22027501,-0.71537516,-2.97079340

>  <Name>
ligand

>  <RI>
0

>  <Rbt.Current_Directory>
/home/itssahil/PROJECTS/Mol_Feturizer/Test_systems_manuscript/rnas/5c7w

>  <Rbt.Executable>
rbdock ($Id: //depot/dev/client3/rdock/2013.1/src/exe/rbdock.cxx#4 $)

>  <Rbt.Library>
libRbt.so (2013.1, Build901 2013/11/27)

>  <Rbt.Parameter_File>
/export/apps/rDock/src/rDock_2013.1_src/data/scripts/dock_solv.prm

>  <Rbt.Receptor>
prm/blind_docking_20.prm

>  <SCORE>
-14.8483

>  <SCORE.INTER>
-14.8483

>  <SCORE.INTER.CONST>
1

>  <SCORE.INTER.POLAR>
0

>  <SCORE.INTER.ROT>
0

>  <SCORE.INTER.SOLV>
3.25324

>  <SCORE.INTER.VDW>
-14.5833

>  <SCORE.INTER.norm>
-1.48483

>  <SCORE.INTRA>
0

>  <SCORE.INTRA.DIHEDRAL>
0

>  <SCORE.INTRA.DIHEDRAL.0>
0

>  <SCORE.INTRA.POLAR>
0

>  <SCORE.INTRA.POLAR.0>
0

>  <SCORE.INTRA.REPUL>
0

>  <SCORE.INTRA.REPUL.0>
0

>  <SCORE.INTRA.SOLV>
0

>  <SCORE.INTRA.SOLV.lig_0>
-4.15853

>  <SCORE.INTRA.VDW>
0

>  <SCORE.INTRA.VDW.0>
0

>  <SCORE.INTRA.norm>
0

>  <SCORE.RESTR>
0

>  <SCORE.RESTR.CAVITY>
0

>  <SCORE.RESTR.norm>
0

>  <SCORE.SYSTEM>
0

>  <SCORE.SYSTEM.CONST>
0

>  <SCORE.SYSTEM.DIHEDRAL>
0

>  <SCORE.SYSTEM.SOLV>
0

>  <SCORE.SYSTEM.norm>
0

>  <SCORE.heavy>
10

>  <SCORE.norm>
-1.48483

>  <RMSD>
2.307

$$$$
ligand
 OpenBabel02271912153D
libRbt.so/2013.1/901 2013/11/27
 10 11  0  0  0  0  0  0  0  0999 V2000
    0.0120  -13.2241   13.0495 N   0  0  0  0  0  0  0  0  0  0  0  0
   -0.5675  -12.2354   13.6952 C   0  0  0  0  0  0  0  0  0  0  0  0
   -0.1079  -10.9316   13.4928 N   0  0  0  0  0  0  0  0  0  0  0  0
    0.9031  -10.6939   12.6607 C   0  0  0  0  0  0  0  0  0  0  0  0
    1.4842  -11.6885   12.0161 C   0  0  0  0  0  0  0  0  0  0  0  0
    1.0710  -12.9295   12.1940 C   0  0  0  0  0  0  0  0  0  0  0  0
    1.6287  -13.8367   11.5925 O   0  0  0  0  0  0  0  0  0  0  0  0
    2.4544  -11.1954   11.2482 N   0  0  0  0  0  0  0  0  0  0  0  0
    2.4608   -9.8784   11.4215 C   0  0  0  0  0  0  0  0  0  0  0  0
    1.5015   -9.5705   12.2981 N   0  0  0  0  0  0  0  0  0  0  0  0
  1  2  1  0  0  0  0
  1  6  1  0  0  0  0
  2  3  2  0  0  0  0
  3  4  1  0  0  0  0
  4  5  2  0  0  0  0
  4 10  1  0  0  0  0
  5  6  1  0  0  0  0
  5  8  1  0  0  0  0
  6  7  2  0  0  0  0
  8  9  1  0  0  0  0
  9 10  2  0  0  0  0
M  END
>  <CHROM.1>
1.09329543,-11.66193464,12.35286061,2.21219911,-0.70460561,-3.00140344

>  <Name>
ligand

>  <RI>
0

>  <Rbt.Current_Directory>
/home/itssahil/PROJECTS/Mol_Feturizer/Test_systems_manuscript/rnas/5c7w

>  <Rbt.Executable>
rbdock ($Id: //depot/dev/client3/rdock/2013.1/src/exe/rbdock.cxx#4 $)

>  <Rbt.Library>
libRbt.so (2013.1, Build901 2013/11/27)

>  <Rbt.Parameter_File>
/export/apps/rDock/src/rDock_2013.1_src/data/scripts/dock_solv.prm

>  <Rbt.Receptor>
prm/blind_docking_20.prm

>  <SCORE>
-14.9191

>  <SCORE.INTER>
-14.9191

>  <SCORE.INTER.CONST>
1

>  <SCORE.INTER.POLAR>
0

>  <SCORE.INTER.ROT>
0

>  <SCORE.INTER.SOLV>
3.20736

>  <SCORE.INTER.VDW>
-14.6152

>  <SCORE.INTER.norm>
-1.49191

>  <SCORE.INTRA>
0

>  <SCORE.INTRA.DIHEDRAL>
0

>  <SCORE.INTRA.DIHEDRAL.0>
0

>  <SCORE.INTRA.POLAR>
0

>  <SCORE.INTRA.POLAR.0>
0

>  <SCORE.INTRA.REPUL>
0

>  <SCORE.INTRA.REPUL.0>
0

>  <SCORE.INTRA.SOLV>
0

>  <SCORE.INTRA.SOLV.lig_0>
-4.15853

>  <SCORE.INTRA.VDW>
0

>  <SCORE.INTRA.VDW.0>
0

>  <SCORE.INTRA.norm>
0

>  <SCORE.RESTR>
0

>  <SCORE.RESTR.CAVITY>
0

>  <SCORE.RESTR.norm>
0

>  <SCORE.SYSTEM>
0

>  <SCORE.SYSTEM.CONST>
0

>  <SCORE.SYSTEM.DIHEDRAL>
0

>  <SCORE.SYSTEM.SOLV>
0

>  <SCORE.SYSTEM.norm>
0

>  <SCORE.heavy>
10

>  <SCORE.norm>
-1.49191

>  <RMSD>
2.307

$$$$
ligand
 OpenBabel02271912153D
libRbt.so/2013.1/901 2013/11/27
 10 11  0  0  0  0  0  0  0  0999 V2000
    0.0010  -13.2119   13.0462 N   0  0  0  0  0  0  0  0  0  0  0  0
   -0.5702  -12.2202   13.6950 C   0  0  0  0  0  0  0  0  0  0  0  0
   -0.0969  -10.9203   13.4995 N   0  0  0  0  0  0  0  0  0  0  0  0
    0.9186  -10.6892   12.6709 C   0  0  0  0  0  0  0  0  0  0  0  0
    1.4913  -11.6867   12.0233 C   0  0  0  0  0  0  0  0  0  0  0  0
    1.0650  -12.9243   12.1947 C   0  0  0  0  0  0  0  0  0  0  0  0
    1.6151  -13.8344   11.5906 O   0  0  0  0  0  0  0  0  0  0  0  0
    2.4683  -11.2001   11.2601 N   0  0  0  0  0  0  0  0  0  0  0  0
    2.4876   -9.8841   11.4392 C   0  0  0  0  0  0  0  0  0  0  0  0
    1.5293   -9.5703   12.3148 N   0  0  0  0  0  0  0  0  0  0  0  0
  1  2  1  0  0  0  0
  1  6  1  0  0  0  0
  2  3  2  0  0  0  0
  3  4  1  0  0  0  0
  4  5  2  0  0  0  0
  4 10  1  0  0  0  0
  5  6  1  0  0  0  0
  5  8  1  0  0  0  0
  6  7  2  0  0  0  0
  8  9  1  0  0  0  0
  9 10  2  0  0  0  0
M  END
>  <CHROM.1>
1.09976363,-11.65772432,12.35925170,2.22485379,-0.70065198,-2.98880691

>  <Name>
ligand

>  <RI>
0

>  <Rbt.Current_Directory>
/home/itssahil/PROJECTS/Mol_Feturizer/Test_systems_manuscript/rnas/5c7w

>  <Rbt.Executable>
rbdock ($Id: //depot/dev/client3/rdock/2013.1/src/exe/rbdock.cxx#4 $)

>  <Rbt.Library>
libRbt.so (2013.1, Build901 2013/11/27)

>  <Rbt.Parameter_File>
/export/apps/rDock/src/rDock_2013.1_src/data/scripts/dock_solv.prm

>  <Rbt.Receptor>
prm/blind_docking_20.prm

>  <SCORE>
-14.9211

>  <SCORE.INTER>
-14.9211

>  <SCORE.INTER.CONST>
1

>  <SCORE.INTER.POLAR>
0

>  <SCORE.INTER.ROT>
0

>  <SCORE.INTER.SOLV>
3.18838

>  <SCORE.INTER.VDW>
-14.6102

>  <SCORE.INTER.norm>
-1.49211

>  <SCORE.INTRA>
0

>  <SCORE.INTRA.DIHEDRAL>
0

>  <SCORE.INTRA.DIHEDRAL.0>
0

>  <SCORE.INTRA.POLAR>
0

>  <SCORE.INTRA.POLAR.0>
0

>  <SCORE.INTRA.REPUL>
0

>  <SCORE.INTRA.REPUL.0>
0

>  <SCORE.INTRA.SOLV>
0

>  <SCORE.INTRA.SOLV.lig_0>
-4.15853

>  <SCORE.INTRA.VDW>
0

>  <SCORE.INTRA.VDW.0>
0

>  <SCORE.INTRA.norm>
0

>  <SCORE.RESTR>
0

>  <SCORE.RESTR.CAVITY>
0

>  <SCORE.RESTR.norm>
0

>  <SCORE.SYSTEM>
0

>  <SCORE.SYSTEM.CONST>
0

>  <SCORE.SYSTEM.DIHEDRAL>
0

>  <SCORE.SYSTEM.SOLV>
0

>  <SCORE.SYSTEM.norm>
0

>  <SCORE.heavy>
10

>  <SCORE.norm>
-1.49211

>  <RMSD>
2.307

$$$$
ligand
 OpenBabel02271912153D
libRbt.so/2013.1/901 2013/11/27
 10 11  0  0  0  0  0  0  0  0999 V2000
    0.0095  -13.2401   13.0444 N   0  0  0  0  0  0  0  0  0  0  0  0
   -0.5595  -12.2492   13.6964 C   0  0  0  0  0  0  0  0  0  0  0  0
   -0.0911  -10.9483   13.4962 N   0  0  0  0  0  0  0  0  0  0  0  0
    0.9177  -10.7153   12.6599 C   0  0  0  0  0  0  0  0  0  0  0  0
    1.4881  -11.7119   12.0091 C   0  0  0  0  0  0  0  0  0  0  0  0
    1.0664  -12.9505   12.1848 C   0  0  0  0  0  0  0  0  0  0  0  0
    1.6144  -13.8597   11.5775 O   0  0  0  0  0  0  0  0  0  0  0  0
    2.4582  -11.2235   11.2382 N   0  0  0  0  0  0  0  0  0  0  0  0
    2.4754   -9.9072   11.4158 C   0  0  0  0  0  0  0  0  0  0  0  0
    1.5227   -9.5951   12.2982 N   0  0  0  0  0  0  0  0  0  0  0  0
  1  2  1  0  0  0  0
  1  6  1  0  0  0  0
  2  3  2  0  0  0  0
  3  4  1  0  0  0  0
  4  5  2  0  0  0  0
  4 10  1  0  0  0  0
  5  6  1  0  0  0  0
  5  8  1  0  0  0  0
  6  7  2  0  0  0  0
  8  9  1  0  0  0  0
  9 10  2  0  0  0  0
M  END
>  <CHROM.1>
1.09903785,-11.68364526,12.34786155,2.22288242,-0.70835464,-2.99105266

>  <Name>
ligand

>  <RI>
0

>  <Rbt.Current_Directory>
/home/itssahil/PROJECTS/Mol_Feturizer/Test_systems_manuscript/rnas/5c7w

>  <Rbt.Executable>
rbdock ($Id: //depot/dev/client3/rdock/2013.1/src/exe/rbdock.cxx#4 $)

>  <Rbt.Library>
libRbt.so (2013.1, Build901 2013/11/27)

>  <Rbt.Parameter_File>
/export/apps/rDock/src/rDock_2013.1_src/data/scripts/dock_solv.prm

>  <Rbt.Receptor>
prm/blind_docking_20.prm

>  <SCORE>
-14.8814

>  <SCORE.INTER>
-14.8814

>  <SCORE.INTER.CONST>
1

>  <SCORE.INTER.POLAR>
0

>  <SCORE.INTER.ROT>
0

>  <SCORE.INTER.SOLV>
3.21545

>  <SCORE.INTER.VDW>
-14.5927

>  <SCORE.INTER.norm>
-1.48814

>  <SCORE.INTRA>
0

>  <SCORE.INTRA.DIHEDRAL>
0

>  <SCORE.INTRA.DIHEDRAL.0>
0

>  <SCORE.INTRA.POLAR>
0

>  <SCORE.INTRA.POLAR.0>
0

>  <SCORE.INTRA.REPUL>
0

>  <SCORE.INTRA.REPUL.0>
0

>  <SCORE.INTRA.SOLV>
0

>  <SCORE.INTRA.SOLV.lig_0>
-4.15853

>  <SCORE.INTRA.VDW>
0

>  <SCORE.INTRA.VDW.0>
0

>  <SCORE.INTRA.norm>
0

>  <SCORE.RESTR>
0

>  <SCORE.RESTR.CAVITY>
0

>  <SCORE.RESTR.norm>
0

>  <SCORE.SYSTEM>
0

>  <SCORE.SYSTEM.CONST>
0

>  <SCORE.SYSTEM.DIHEDRAL>
0

>  <SCORE.SYSTEM.SOLV>
0

>  <SCORE.SYSTEM.norm>
0

>  <SCORE.heavy>
10

>  <SCORE.norm>
-1.48814

>  <RMSD>
2.307

$$$$
ligand
 OpenBabel02271912153D
libRbt.so/2013.1/901 2013/11/27
 10 11  0  0  0  0  0  0  0  0999 V2000
    0.0134  -13.2311   12.9891 N   0  0  0  0  0  0  0  0  0  0  0  0
   -0.5535  -12.2561   13.6664 C   0  0  0  0  0  0  0  0  0  0  0  0
   -0.0890  -10.9501   13.4922 N   0  0  0  0  0  0  0  0  0  0  0  0
    0.9142  -10.6965   12.6551 C   0  0  0  0  0  0  0  0  0  0  0  0
    1.4826  -11.6773   11.9789 C   0  0  0  0  0  0  0  0  0  0  0  0
    1.0645  -12.9203   12.1297 C   0  0  0  0  0  0  0  0  0  0  0  0
    1.6105  -13.8147   11.4990 O   0  0  0  0  0  0  0  0  0  0  0  0
    2.4469  -11.1698   11.2131 N   0  0  0  0  0  0  0  0  0  0  0  0
    2.4626   -9.8578   11.4198 C   0  0  0  0  0  0  0  0  0  0  0  0
    1.5148   -9.5673   12.3147 N   0  0  0  0  0  0  0  0  0  0  0  0
  1  2  1  0  0  0  0
  1  6  1  0  0  0  0
  2  3  2  0  0  0  0
  3  4  1  0  0  0  0
  4  5  2  0  0  0  0
  4 10  1  0  0  0  0
  5  6  1  0  0  0  0
  5  8  1  0  0  0  0
  6  7  2  0  0  0  0
  8  9  1  0  0  0  0
  9 10  2  0  0  0  0
M  END
>  <CHROM.1>
1.09555492,-11.65731022,12.32059922,2.22151321,-0.71472432,-2.96978021

>  <Name>
ligand

>  <RI>
0

>  <Rbt.Current_Directory>
/home/itssahil/PROJECTS/Mol_Feturizer/Test_systems_manuscript/rnas/5c7w

>  <Rbt.Executable>
rbdock ($Id: //depot/dev/client3/rdock/2013.1/src/exe/rbdock.cxx#4 $)

>  <Rbt.Library>
libRbt.so (2013.1, Build901 2013/11/27)

>  <Rbt.Parameter_File>
/export/apps/rDock/src/rDock_2013.1_src/data/scripts/dock_solv.prm

>  <Rbt.Receptor>
prm/blind_docking_40.prm

>  <SCORE>
-14.8488

>  <SCORE.INTER>
-14.8488

>  <SCORE.INTER.CONST>
1

>  <SCORE.INTER.POLAR>
0

>  <SCORE.INTER.ROT>
0

>  <SCORE.INTER.SOLV>
3.25102

>  <SCORE.INTER.VDW>
-14.5828

>  <SCORE.INTER.norm>
-1.48488

>  <SCORE.INTRA>
0

>  <SCORE.INTRA.DIHEDRAL>
0

>  <SCORE.INTRA.DIHEDRAL.0>
0

>  <SCORE.INTRA.POLAR>
0

>  <SCORE.INTRA.POLAR.0>
0

>  <SCORE.INTRA.REPUL>
0

>  <SCORE.INTRA.REPUL.0>
0

>  <SCORE.INTRA.SOLV>
0

>  <SCORE.INTRA.SOLV.lig_0>
-4.15853

>  <SCORE.INTRA.VDW>
0

>  <SCORE.INTRA.VDW.0>
0

>  <SCORE.INTRA.norm>
0

>  <SCORE.RESTR>
0

>  <SCORE.RESTR.CAVITY>
0

>  <SCORE.RESTR.norm>
0

>  <SCORE.SYSTEM>
0

>  <SCORE.SYSTEM.CONST>
0

>  <SCORE.SYSTEM.DIHEDRAL>
0

>  <SCORE.SYSTEM.SOLV>
0

>  <SCORE.SYSTEM.norm>
0

>  <SCORE.heavy>
10

>  <SCORE.norm>
-1.48488

>  <RMSD>
2.307

$$$$
ligand
 OpenBabel02271912153D
libRbt.so/2013.1/901 2013/11/27
 10 11  0  0  0  0  0  0  0  0999 V2000
    0.0080  -13.2216   13.0465 N   0  0  0  0  0  0  0  0  0  0  0  0
   -0.5695  -12.2300   13.6898 C   0  0  0  0  0  0  0  0  0  0  0  0
   -0.1028  -10.9285   13.4892 N   0  0  0  0  0  0  0  0  0  0  0  0
    0.9128  -10.6957   12.6612 C   0  0  0  0  0  0  0  0  0  0  0  0
    1.4918  -11.6931   12.0191 C   0  0  0  0  0  0  0  0  0  0  0  0
    1.0719  -12.9321   12.1955 C   0  0  0  0  0  0  0  0  0  0  0  0
    1.6278  -13.8420   11.5963 O   0  0  0  0  0  0  0  0  0  0  0  0
    2.4674  -11.2048   11.2552 N   0  0  0  0  0  0  0  0  0  0  0  0
    2.4795   -9.8878   11.4283 C   0  0  0  0  0  0  0  0  0  0  0  0
    1.5181   -9.5752   12.3009 N   0  0  0  0  0  0  0  0  0  0  0  0
  1  2  1  0  0  0  0
  1  6  1  0  0  0  0
  2  3  2  0  0  0  0
  3  4  1  0  0  0  0
  4  5  2  0  0  0  0
  4 10  1  0  0  0  0
  5  6  1  0  0  0  0
  5  8  1  0  0  0  0
  6  7  2  0  0  0  0
  8  9  1  0  0  0  0
  9 10  2  0  0  0  0
M  END
>  <CHROM.1>
1.09960417,-11.66465248,12.35425286,2.21762487,-0.69982736,-2.99801962

>  <Name>
ligand

>  <RI>
0

>  <Rbt.Current_Directory>
/home/itssahil/PROJECTS/Mol_Feturizer/Test_systems_manuscript/rnas/5c7w

>  <Rbt.Executable>
rbdock ($Id: //depot/dev/client3/rdock/2013.1/src/exe/rbdock.cxx#4 $)

>  <Rbt.Library>
libRbt.so (2013.1, Build901 2013/11/27)

>  <Rbt.Parameter_File>
/export/apps/rDock/src/rDock_2013.1_src/data/scripts/dock_solv.prm

>  <Rbt.Receptor>
prm/blind_docking_40.prm

>  <SCORE>
-14.9211

>  <SCORE.INTER>
-14.9211

>  <SCORE.INTER.CONST>
1

>  <SCORE.INTER.POLAR>
0

>  <SCORE.INTER.ROT>
0

>  <SCORE.INTER.SOLV>
3.19419

>  <SCORE.INTER.VDW>
-14.6121

>  <SCORE.INTER.norm>
-1.49211

>  <SCORE.INTRA>
0

>  <SCORE.INTRA.DIHEDRAL>
0

>  <SCORE.INTRA.DIHEDRAL.0>
0

>  <SCORE.INTRA.POLAR>
0

>  <SCORE.INTRA.POLAR.0>
0

>  <SCORE.INTRA.REPUL>
0

>  <SCORE.INTRA.REPUL.0>
0

>  <SCORE.INTRA.SOLV>
0

>  <SCORE.INTRA.SOLV.lig_0>
-4.15853

>  <SCORE.INTRA.VDW>
0

>  <SCORE.INTRA.VDW.0>
0

>  <SCORE.INTRA.norm>
0

>  <SCORE.RESTR>
0

>  <SCORE.RESTR.CAVITY>
0

>  <SCORE.RESTR.norm>
0

>  <SCORE.SYSTEM>
0

>  <SCORE.SYSTEM.CONST>
0

>  <SCORE.SYSTEM.DIHEDRAL>
0

>  <SCORE.SYSTEM.SOLV>
0

>  <SCORE.SYSTEM.norm>
0

>  <SCORE.heavy>
10

>  <SCORE.norm>
-1.49211

>  <RMSD>
2.307

$$$$
ligand
 OpenBabel02271912153D
libRbt.so/2013.1/901 2013/11/27
 10 11  0  0  0  0  0  0  0  0999 V2000
    0.0137  -13.2375   13.0462 N   0  0  0  0  0  0  0  0  0  0  0  0
   -0.5627  -12.2525   13.7007 C   0  0  0  0  0  0  0  0  0  0  0  0
   -0.1025  -10.9479   13.5056 N   0  0  0  0  0  0  0  0  0  0  0  0
    0.9060  -10.7055   12.6717 C   0  0  0  0  0  0  0  0  0  0  0  0
    1.4839  -11.6963   12.0183 C   0  0  0  0  0  0  0  0  0  0  0  0
    1.0700  -12.9381   12.1892 C   0  0  0  0  0  0  0  0  0  0  0  0
    1.6248  -13.8417   11.5796 O   0  0  0  0  0  0  0  0  0  0  0  0
    2.4520  -11.1989   11.2506 N   0  0  0  0  0  0  0  0  0  0  0  0
    2.4604   -9.8832   11.4328 C   0  0  0  0  0  0  0  0  0  0  0  0
    1.5044   -9.5803   12.3147 N   0  0  0  0  0  0  0  0  0  0  0  0
  1  2  1  0  0  0  0
  1  6  1  0  0  0  0
  2  3  2  0  0  0  0
  3  4  1  0  0  0  0
  4  5  2  0  0  0  0
  4 10  1  0  0  0  0
  5  6  1  0  0  0  0
  5  8  1  0  0  0  0
  6  7  2  0  0  0  0
  8  9  1  0  0  0  0
  9 10  2  0  0  0  0
M  END
>  <CHROM.1>
1.09416607,-11.67163138,12.35662102,2.21414558,-0.70779560,-2.99333028

>  <Name>
ligand

>  <RI>
0

>  <Rbt.Current_Directory>
/home/itssahil/PROJECTS/Mol_Feturizer/Test_systems_manuscript/rnas/5c7w

>  <Rbt.Executable>
rbdock ($Id: //depot/dev/client3/rdock/2013.1/src/exe/rbdock.cxx#4 $)

>  <Rbt.Library>
libRbt.so (2013.1, Build901 2013/11/27)

>  <Rbt.Parameter_File>
/export/apps/rDock/src/rDock_2013.1_src/data/scripts/dock_solv.prm

>  <Rbt.Receptor>
prm/blind_docking_60.prm

>  <SCORE>
-14.8813

>  <SCORE.INTER>
-14.8813

>  <SCORE.INTER.CONST>
1

>  <SCORE.INTER.POLAR>
0

>  <SCORE.INTER.ROT>
0

>  <SCORE.INTER.SOLV>
3.2166

>  <SCORE.INTER.VDW>
-14.5931

>  <SCORE.INTER.norm>
-1.48813

>  <SCORE.INTRA>
0

>  <SCORE.INTRA.DIHEDRAL>
0

>  <SCORE.INTRA.DIHEDRAL.0>
0

>  <SCORE.INTRA.POLAR>
0

>  <SCORE.INTRA.POLAR.0>
0

>  <SCORE.INTRA.REPUL>
0

>  <SCORE.INTRA.REPUL.0>
0

>  <SCORE.INTRA.SOLV>
0

>  <SCORE.INTRA.SOLV.lig_0>
-4.15853

>  <SCORE.INTRA.VDW>
0

>  <SCORE.INTRA.VDW.0>
0

>  <SCORE.INTRA.norm>
0

>  <SCORE.RESTR>
0

>  <SCORE.RESTR.CAVITY>
0

>  <SCORE.RESTR.norm>
0

>  <SCORE.SYSTEM>
0

>  <SCORE.SYSTEM.CONST>
0

>  <SCORE.SYSTEM.DIHEDRAL>
0

>  <SCORE.SYSTEM.SOLV>
0

>  <SCORE.SYSTEM.norm>
0

>  <SCORE.heavy>
10

>  <SCORE.norm>
-1.48813

>  <RMSD>
2.307

$$$$
ligand
 OpenBabel02271912153D
libRbt.so/2013.1/901 2013/11/27
 10 11  0  0  0  0  0  0  0  0999 V2000
    0.0066  -13.2512   13.0238 N   0  0  0  0  0  0  0  0  0  0  0  0
   -0.6009  -12.2613   13.6415 C   0  0  0  0  0  0  0  0  0  0  0  0
   -0.1432  -10.9561   13.4440 N   0  0  0  0  0  0  0  0  0  0  0  0
    0.8938  -10.7182   12.6446 C   0  0  0  0  0  0  0  0  0  0  0  0
    1.5029  -11.7139   12.0282 C   0  0  0  0  0  0  0  0  0  0  0  0
    1.0919  -12.9563   12.2022 C   0  0  0  0  0  0  0  0  0  0  0  0
    1.6756  -13.8644   11.6274 O   0  0  0  0  0  0  0  0  0  0  0  0
    2.4952  -11.2205   11.2895 N   0  0  0  0  0  0  0  0  0  0  0  0
    2.4872   -9.9021   11.4520 C   0  0  0  0  0  0  0  0  0  0  0  0
    1.4969   -9.5937   12.2932 N   0  0  0  0  0  0  0  0  0  0  0  0
  1  2  1  0  0  0  0
  1  6  1  0  0  0  0
  2  3  2  0  0  0  0
  3  4  1  0  0  0  0
  4  5  2  0  0  0  0
  4 10  1  0  0  0  0
  5  6  1  0  0  0  0
  5  8  1  0  0  0  0
  6  7  2  0  0  0  0
  8  9  1  0  0  0  0
  9 10  2  0  0  0  0
M  END
>  <CHROM.1>
1.10058682,-11.68737747,12.35132417,2.19794608,-0.67195184,-3.01856600

>  <Name>
ligand

>  <RI>
0

>  <Rbt.Current_Directory>
/home/itssahil/PROJECTS/Mol_Feturizer/Test_systems_manuscript/rnas/5c7w

>  <Rbt.Executable>
rbdock ($Id: //depot/dev/client3/rdock/2013.1/src/exe/rbdock.cxx#4 $)

>  <Rbt.Library>
libRbt.so (2013.1, Build901 2013/11/27)

>  <Rbt.Parameter_File>
/export/apps/rDock/src/rDock_2013.1_src/data/scripts/dock_solv.prm

>  <Rbt.Receptor>
prm/blind_docking_60.prm

>  <SCORE>
-14.9136

>  <SCORE.INTER>
-14.9136

>  <SCORE.INTER.CONST>
1

>  <SCORE.INTER.POLAR>
0

>  <SCORE.INTER.ROT>
0

>  <SCORE.INTER.SOLV>
3.16134

>  <SCORE.INTER.VDW>
-14.5962

>  <SCORE.INTER.norm>
-1.49136

>  <SCORE.INTRA>
0

>  <SCORE.INTRA.DIHEDRAL>
0

>  <SCORE.INTRA.DIHEDRAL.0>
0

>  <SCORE.INTRA.POLAR>
0

>  <SCORE.INTRA.POLAR.0>
0

>  <SCORE.INTRA.REPUL>
0

>  <SCORE.INTRA.REPUL.0>
0

>  <SCORE.INTRA.SOLV>
0

>  <SCORE.INTRA.SOLV.lig_0>
-4.15853

>  <SCORE.INTRA.VDW>
0

>  <SCORE.INTRA.VDW.0>
0

>  <SCORE.INTRA.norm>
0

>  <SCORE.RESTR>
0

>  <SCORE.RESTR.CAVITY>
0

>  <SCORE.RESTR.norm>
0

>  <SCORE.SYSTEM>
0

>  <SCORE.SYSTEM.CONST>
0

>  <SCORE.SYSTEM.DIHEDRAL>
0

>  <SCORE.SYSTEM.SOLV>
0

>  <SCORE.SYSTEM.norm>
0

>  <SCORE.heavy>
10

>  <SCORE.norm>
-1.49136

>  <RMSD>
2.307

$$$$
ligand
 OpenBabel02271912153D
libRbt.so/2013.1/901 2013/11/27
 10 11  0  0  0  0  0  0  0  0999 V2000
    0.0228  -13.2481   12.9760 N   0  0  0  0  0  0  0  0  0  0  0  0
   -0.5425  -12.2775   13.6608 C   0  0  0  0  0  0  0  0  0  0  0  0
   -0.0815  -10.9698   13.4904 N   0  0  0  0  0  0  0  0  0  0  0  0
    0.9168  -10.7102   12.6493 C   0  0  0  0  0  0  0  0  0  0  0  0
    1.4836  -11.6866   11.9655 C   0  0  0  0  0  0  0  0  0  0  0  0
    1.0687  -12.9311   12.1126 C   0  0  0  0  0  0  0  0  0  0  0  0
    1.6132  -13.8214   11.4748 O   0  0  0  0  0  0  0  0  0  0  0  0
    2.4429  -11.1736   11.1971 N   0  0  0  0  0  0  0  0  0  0  0  0
    2.4571   -9.8625   11.4100 C   0  0  0  0  0  0  0  0  0  0  0  0
    1.5134   -9.5782   12.3111 N   0  0  0  0  0  0  0  0  0  0  0  0
  1  2  1  0  0  0  0
  1  6  1  0  0  0  0
  2  3  2  0  0  0  0
  3  4  1  0  0  0  0
  4  5  2  0  0  0  0
  4 10  1  0  0  0  0
  5  6  1  0  0  0  0
  5  8  1  0  0  0  0
  6  7  2  0  0  0  0
  8  9  1  0  0  0  0
  9 10  2  0  0  0  0
M  END
>  <CHROM.1>
1.09832301,-11.66904577,12.30928681,2.22012670,-0.72020328,-2.96593928

>  <Name>
ligand

>  <RI>
0

>  <Rbt.Current_Directory>
/home/itssahil/PROJECTS/Mol_Feturizer/Test_systems_manuscript/rnas/5c7w

>  <Rbt.Executable>
rbdock ($Id: //depot/dev/client3/rdock/2013.1/src/exe/rbdock.cxx#4 $)

>  <Rbt.Library>
libRbt.so (2013.1, Build901 2013/11/27)

>  <Rbt.Parameter_File>
/export/apps/rDock/src/rDock_2013.1_src/data/scripts/dock_solv.prm

>  <Rbt.Receptor>
prm/blind_docking_60.prm

>  <SCORE>
-14.8471

>  <SCORE.INTER>
-14.8471

>  <SCORE.INTER.CONST>
1

>  <SCORE.INTER.POLAR>
0

>  <SCORE.INTER.ROT>
0

>  <SCORE.INTER.SOLV>
3.27403

>  <SCORE.INTER.VDW>
-14.5894

>  <SCORE.INTER.norm>
-1.48471

>  <SCORE.INTRA>
0

>  <SCORE.INTRA.DIHEDRAL>
0

>  <SCORE.INTRA.DIHEDRAL.0>
0

>  <SCORE.INTRA.POLAR>
0

>  <SCORE.INTRA.POLAR.0>
0

>  <SCORE.INTRA.REPUL>
0

>  <SCORE.INTRA.REPUL.0>
0

>  <SCORE.INTRA.SOLV>
0

>  <SCORE.INTRA.SOLV.lig_0>
-4.15853

>  <SCORE.INTRA.VDW>
0

>  <SCORE.INTRA.VDW.0>
0

>  <SCORE.INTRA.norm>
0

>  <SCORE.RESTR>
0

>  <SCORE.RESTR.CAVITY>
0

>  <SCORE.RESTR.norm>
0

>  <SCORE.SYSTEM>
0

>  <SCORE.SYSTEM.CONST>
0

>  <SCORE.SYSTEM.DIHEDRAL>
0

>  <SCORE.SYSTEM.SOLV>
0

>  <SCORE.SYSTEM.norm>
0

>  <SCORE.heavy>
10

>  <SCORE.norm>
-1.48471

>  <RMSD>
2.307

$$$$
ligand
 OpenBabel02271912153D
libRbt.so/2013.1/901 2013/11/27
 10 11  0  0  0  0  0  0  0  0999 V2000
    0.0062  -13.2172   13.0467 N   0  0  0  0  0  0  0  0  0  0  0  0
   -0.5662  -12.2277   13.6978 C   0  0  0  0  0  0  0  0  0  0  0  0
   -0.0960  -10.9265   13.5037 N   0  0  0  0  0  0  0  0  0  0  0  0
    0.9178  -10.6918   12.6741 C   0  0  0  0  0  0  0  0  0  0  0  0
    1.4916  -11.6871   12.0240 C   0  0  0  0  0  0  0  0  0  0  0  0
    1.0683  -12.9258   12.1941 C   0  0  0  0  0  0  0  0  0  0  0  0
    1.6195  -13.8337   11.5876 O   0  0  0  0  0  0  0  0  0  0  0  0
    2.4664  -11.1971   11.2602 N   0  0  0  0  0  0  0  0  0  0  0  0
    2.4832   -9.8813   11.4413 C   0  0  0  0  0  0  0  0  0  0  0  0
    1.5255   -9.5710   12.3188 N   0  0  0  0  0  0  0  0  0  0  0  0
  1  2  1  0  0  0  0
  1  6  1  0  0  0  0
  2  3  2  0  0  0  0
  3  4  1  0  0  0  0
  4  5  2  0  0  0  0
  4 10  1  0  0  0  0
  5  6  1  0  0  0  0
  5  8  1  0  0  0  0
  6  7  2  0  0  0  0
  8  9  1  0  0  0  0
  9 10  2  0  0  0  0
M  END
>  <CHROM.1>
1.10056375,-11.65944081,12.36059062,2.22233265,-0.70243019,-2.98881730

>  <Name>
ligand

>  <RI>
0

>  <Rbt.Current_Directory>
/home/itssahil/PROJECTS/Mol_Feturizer/Test_systems_manuscript/rnas/5c7w

>  <Rbt.Executable>
rbdock ($Id: //depot/dev/client3/rdock/2013.1/src/exe/rbdock.cxx#4 $)

>  <Rbt.Library>
libRbt.so (2013.1, Build901 2013/11/27)

>  <Rbt.Parameter_File>
/export/apps/rDock/src/rDock_2013.1_src/data/scripts/dock_solv.prm

>  <Rbt.Receptor>
prm/blind_docking_60.prm

>  <SCORE>
-14.9214

>  <SCORE.INTER>
-14.9214

>  <SCORE.INTER.CONST>
1

>  <SCORE.INTER.POLAR>
0

>  <SCORE.INTER.ROT>
0

>  <SCORE.INTER.SOLV>
3.1948

>  <SCORE.INTER.VDW>
-14.6125

>  <SCORE.INTER.norm>
-1.49214

>  <SCORE.INTRA>
0

>  <SCORE.INTRA.DIHEDRAL>
0

>  <SCORE.INTRA.DIHEDRAL.0>
0

>  <SCORE.INTRA.POLAR>
0

>  <SCORE.INTRA.POLAR.0>
0

>  <SCORE.INTRA.REPUL>
0

>  <SCORE.INTRA.REPUL.0>
0

>  <SCORE.INTRA.SOLV>
0

>  <SCORE.INTRA.SOLV.lig_0>
-4.15853

>  <SCORE.INTRA.VDW>
0

>  <SCORE.INTRA.VDW.0>
0

>  <SCORE.INTRA.norm>
0

>  <SCORE.RESTR>
0

>  <SCORE.RESTR.CAVITY>
0

>  <SCORE.RESTR.norm>
0

>  <SCORE.SYSTEM>
0

>  <SCORE.SYSTEM.CONST>
0

>  <SCORE.SYSTEM.DIHEDRAL>
0

>  <SCORE.SYSTEM.SOLV>
0

>  <SCORE.SYSTEM.norm>
0

>  <SCORE.heavy>
10

>  <SCORE.norm>
-1.49214

>  <RMSD>
2.307

$$$$
ligand
 OpenBabel02271912153D
libRbt.so/2013.1/901 2013/11/27
 10 11  0  0  0  0  0  0  0  0999 V2000
    0.0078  -13.2265   13.0436 N   0  0  0  0  0  0  0  0  0  0  0  0
   -0.5739  -12.2372   13.6866 C   0  0  0  0  0  0  0  0  0  0  0  0
   -0.1097  -10.9343   13.4892 N   0  0  0  0  0  0  0  0  0  0  0  0
    0.9077  -10.6980   12.6644 C   0  0  0  0  0  0  0  0  0  0  0  0
    1.4908  -11.6931   12.0225 C   0  0  0  0  0  0  0  0  0  0  0  0
    1.0734  -12.9333   12.1959 C   0  0  0  0  0  0  0  0  0  0  0  0
    1.6331  -13.8410   11.5970 O   0  0  0  0  0  0  0  0  0  0  0  0
    2.4675  -11.2013   11.2621 N   0  0  0  0  0  0  0  0  0  0  0  0
    2.4759   -9.8846   11.4371 C   0  0  0  0  0  0  0  0  0  0  0  0
    1.5113   -9.5755   12.3075 N   0  0  0  0  0  0  0  0  0  0  0  0
  1  2  1  0  0  0  0
  1  6  1  0  0  0  0
  2  3  2  0  0  0  0
  3  4  1  0  0  0  0
  4  5  2  0  0  0  0
  4 10  1  0  0  0  0
  5  6  1  0  0  0  0
  5  8  1  0  0  0  0
  6  7  2  0  0  0  0
  8  9  1  0  0  0  0
  9 10  2  0  0  0  0
M  END
>  <CHROM.1>
1.09764016,-11.66603639,12.35659016,2.21407681,-0.69738760,-2.99884450

>  <Name>
ligand

>  <RI>
0

>  <Rbt.Current_Directory>
/home/itssahil/PROJECTS/Mol_Feturizer/Test_systems_manuscript/rnas/5c7w

>  <Rbt.Executable>
rbdock ($Id: //depot/dev/client3/rdock/2013.1/src/exe/rbdock.cxx#4 $)

>  <Rbt.Library>
libRbt.so (2013.1, Build901 2013/11/27)

>  <Rbt.Parameter_File>
/export/apps/rDock/src/rDock_2013.1_src/data/scripts/dock_solv.prm

>  <Rbt.Receptor>
prm/blind_docking_60.prm

>  <SCORE>
-14.9197

>  <SCORE.INTER>
-14.9197

>  <SCORE.INTER.CONST>
1

>  <SCORE.INTER.POLAR>
0

>  <SCORE.INTER.ROT>
0

>  <SCORE.INTER.SOLV>
3.1927

>  <SCORE.INTER.VDW>
-14.6107

>  <SCORE.INTER.norm>
-1.49197

>  <SCORE.INTRA>
0

>  <SCORE.INTRA.DIHEDRAL>
0

>  <SCORE.INTRA.DIHEDRAL.0>
0

>  <SCORE.INTRA.POLAR>
0

>  <SCORE.INTRA.POLAR.0>
0

>  <SCORE.INTRA.REPUL>
0

>  <SCORE.INTRA.REPUL.0>
0

>  <SCORE.INTRA.SOLV>
0

>  <SCORE.INTRA.SOLV.lig_0>
-4.15853

>  <SCORE.INTRA.VDW>
0

>  <SCORE.INTRA.VDW.0>
0

>  <SCORE.INTRA.norm>
0

>  <SCORE.RESTR>
0

>  <SCORE.RESTR.CAVITY>
0

>  <SCORE.RESTR.norm>
0

>  <SCORE.SYSTEM>
0

>  <SCORE.SYSTEM.CONST>
0

>  <SCORE.SYSTEM.DIHEDRAL>
0

>  <SCORE.SYSTEM.SOLV>
0

>  <SCORE.SYSTEM.norm>
0

>  <SCORE.heavy>
10

>  <SCORE.norm>
-1.49197

>  <RMSD>
2.307

$$$$
ligand
 OpenBabel02271912153D
libRbt.so/2013.1/901 2013/11/27
 10 11  0  0  0  0  0  0  0  0999 V2000
    0.0123  -13.2162   13.0517 N   0  0  0  0  0  0  0  0  0  0  0  0
   -0.5658  -12.2287   13.7009 C   0  0  0  0  0  0  0  0  0  0  0  0
   -0.1033  -10.9251   13.5039 N   0  0  0  0  0  0  0  0  0  0  0  0
    0.9089  -10.6863   12.6735 C   0  0  0  0  0  0  0  0  0  0  0  0
    1.4885  -11.6796   12.0255 C   0  0  0  0  0  0  0  0  0  0  0  0
    1.0725  -12.9204   12.1983 C   0  0  0  0  0  0  0  0  0  0  0  0
    1.6288  -13.8264   11.5937 O   0  0  0  0  0  0  0  0  0  0  0  0
    2.4602  -11.1856   11.2603 N   0  0  0  0  0  0  0  0  0  0  0  0
    2.4693   -9.8693   11.4387 C   0  0  0  0  0  0  0  0  0  0  0  0
    1.5100   -9.5627   12.3157 N   0  0  0  0  0  0  0  0  0  0  0  0
  1  2  1  0  0  0  0
  1  6  1  0  0  0  0
  2  3  2  0  0  0  0
  3  4  1  0  0  0  0
  4  5  2  0  0  0  0
  4 10  1  0  0  0  0
  5  6  1  0  0  0  0
  5  8  1  0  0  0  0
  6  7  2  0  0  0  0
  8  9  1  0  0  0  0
  9 10  2  0  0  0  0
M  END
>  <CHROM.1>
1.09732099,-11.65353154,12.36205095,2.21476271,-0.70351704,-2.99586740

>  <Name>
ligand

>  <RI>
0

>  <Rbt.Current_Directory>
/home/itssahil/PROJECTS/Mol_Feturizer/Test_systems_manuscript/rnas/5c7w

>  <Rbt.Executable>
rbdock ($Id: //depot/dev/client3/rdock/2013.1/src/exe/rbdock.cxx#4 $)

>  <Rbt.Library>
libRbt.so (2013.1, Build901 2013/11/27)

>  <Rbt.Parameter_File>
/export/apps/rDock/src/rDock_2013.1_src/data/scripts/dock_solv.prm

>  <Rbt.Receptor>
prm/blind_docking_60.prm

>  <SCORE>
-14.9211

>  <SCORE.INTER>
-14.9211

>  <SCORE.INTER.CONST>
1

>  <SCORE.INTER.POLAR>
0

>  <SCORE.INTER.ROT>
0

>  <SCORE.INTER.SOLV>
3.19968

>  <SCORE.INTER.VDW>
-14.6139

>  <SCORE.INTER.norm>
-1.49211

>  <SCORE.INTRA>
0

>  <SCORE.INTRA.DIHEDRAL>
0

>  <SCORE.INTRA.DIHEDRAL.0>
0

>  <SCORE.INTRA.POLAR>
0

>  <SCORE.INTRA.POLAR.0>
0

>  <SCORE.INTRA.REPUL>
0

>  <SCORE.INTRA.REPUL.0>
0

>  <SCORE.INTRA.SOLV>
0

>  <SCORE.INTRA.SOLV.lig_0>
-4.15853

>  <SCORE.INTRA.VDW>
0

>  <SCORE.INTRA.VDW.0>
0

>  <SCORE.INTRA.norm>
0

>  <SCORE.RESTR>
0

>  <SCORE.RESTR.CAVITY>
0

>  <SCORE.RESTR.norm>
0

>  <SCORE.SYSTEM>
0

>  <SCORE.SYSTEM.CONST>
0

>  <SCORE.SYSTEM.DIHEDRAL>
0

>  <SCORE.SYSTEM.SOLV>
0

>  <SCORE.SYSTEM.norm>
0

>  <SCORE.heavy>
10

>  <SCORE.norm>
-1.49211

>  <RMSD>
2.307

$$$$
ligand
 OpenBabel02271912153D
libRbt.so/2013.1/901 2013/11/27
 10 11  0  0  0  0  0  0  0  0999 V2000
    0.0173  -13.2295   13.0624 N   0  0  0  0  0  0  0  0  0  0  0  0
   -0.5475  -12.2446   13.7270 C   0  0  0  0  0  0  0  0  0  0  0  0
   -0.0835  -10.9413   13.5321 N   0  0  0  0  0  0  0  0  0  0  0  0
    0.9169  -10.7001   12.6882 C   0  0  0  0  0  0  0  0  0  0  0  0
    1.4832  -11.6908   12.0246 C   0  0  0  0  0  0  0  0  0  0  0  0
    1.0656  -12.9314   12.1951 C   0  0  0  0  0  0  0  0  0  0  0  0
    1.6096  -13.8350   11.5759 O   0  0  0  0  0  0  0  0  0  0  0  0
    2.4450  -11.1947   11.2483 N   0  0  0  0  0  0  0  0  0  0  0  0
    2.4613   -9.8797   11.4356 C   0  0  0  0  0  0  0  0  0  0  0  0
    1.5164   -9.5761   12.3291 N   0  0  0  0  0  0  0  0  0  0  0  0
  1  2  1  0  0  0  0
  1  6  1  0  0  0  0
  2  3  2  0  0  0  0
  3  4  1  0  0  0  0
  4  5  2  0  0  0  0
  4 10  1  0  0  0  0
  5  6  1  0  0  0  0
  5  8  1  0  0  0  0
  6  7  2  0  0  0  0
  8  9  1  0  0  0  0
  9 10  2  0  0  0  0
M  END
>  <CHROM.1>
1.09723343,-11.66577656,12.36723077,2.22221566,-0.71792504,-2.98407424

>  <Name>
ligand

>  <RI>
0

>  <Rbt.Current_Directory>
/home/itssahil/PROJECTS/Mol_Feturizer/Test_systems_manuscript/rnas/5c7w

>  <Rbt.Executable>
rbdock ($Id: //depot/dev/client3/rdock/2013.1/src/exe/rbdock.cxx#4 $)

>  <Rbt.Library>
libRbt.so (2013.1, Build901 2013/11/27)

>  <Rbt.Parameter_File>
/export/apps/rDock/src/rDock_2013.1_src/data/scripts/dock_solv.prm

>  <Rbt.Receptor>
prm/blind_docking_80.prm

>  <SCORE>
-14.9053

>  <SCORE.INTER>
-14.9053

>  <SCORE.INTER.CONST>
1

>  <SCORE.INTER.POLAR>
0

>  <SCORE.INTER.ROT>
0

>  <SCORE.INTER.SOLV>
3.22546

>  <SCORE.INTER.VDW>
-14.612

>  <SCORE.INTER.norm>
-1.49053

>  <SCORE.INTRA>
0

>  <SCORE.INTRA.DIHEDRAL>
0

>  <SCORE.INTRA.DIHEDRAL.0>
0

>  <SCORE.INTRA.POLAR>
0

>  <SCORE.INTRA.POLAR.0>
0

>  <SCORE.INTRA.REPUL>
0

>  <SCORE.INTRA.REPUL.0>
0

>  <SCORE.INTRA.SOLV>
0

>  <SCORE.INTRA.SOLV.lig_0>
-4.15853

>  <SCORE.INTRA.VDW>
0

>  <SCORE.INTRA.VDW.0>
0

>  <SCORE.INTRA.norm>
0

>  <SCORE.RESTR>
0

>  <SCORE.RESTR.CAVITY>
0

>  <SCORE.RESTR.norm>
0

>  <SCORE.SYSTEM>
0

>  <SCORE.SYSTEM.CONST>
0

>  <SCORE.SYSTEM.DIHEDRAL>
0

>  <SCORE.SYSTEM.SOLV>
0

>  <SCORE.SYSTEM.norm>
0

>  <SCORE.heavy>
10

>  <SCORE.norm>
-1.49053

>  <RMSD>
2.307

$$$$
ligand
 OpenBabel02271912153D
libRbt.so/2013.1/901 2013/11/27
 10 11  0  0  0  0  0  0  0  0999 V2000
    0.0112  -13.2210   13.0489 N   0  0  0  0  0  0  0  0  0  0  0  0
   -0.5669  -12.2314   13.6948 C   0  0  0  0  0  0  0  0  0  0  0  0
   -0.1047  -10.9284   13.4934 N   0  0  0  0  0  0  0  0  0  0  0  0
    0.9073  -10.6922   12.6620 C   0  0  0  0  0  0  0  0  0  0  0  0
    1.4870  -11.6876   12.0172 C   0  0  0  0  0  0  0  0  0  0  0  0
    1.0712  -12.9279   12.1943 C   0  0  0  0  0  0  0  0  0  0  0  0
    1.6276  -13.8358   11.5926 O   0  0  0  0  0  0  0  0  0  0  0  0
    2.4585  -11.1959   11.2503 N   0  0  0  0  0  0  0  0  0  0  0  0
    2.4674   -9.8791   11.4241 C   0  0  0  0  0  0  0  0  0  0  0  0
    1.5081   -9.5698   12.3003 N   0  0  0  0  0  0  0  0  0  0  0  0
  1  2  1  0  0  0  0
  1  6  1  0  0  0  0
  2  3  2  0  0  0  0
  3  4  1  0  0  0  0
  4  5  2  0  0  0  0
  4 10  1  0  0  0  0
  5  6  1  0  0  0  0
  5  8  1  0  0  0  0
  6  7  2  0  0  0  0
  8  9  1  0  0  0  0
  9 10  2  0  0  0  0
M  END
>  <CHROM.1>
1.09585165,-11.66046020,12.35377318,2.21455571,-0.70371045,-2.99937208

>  <Name>
ligand

>  <RI>
0

>  <Rbt.Current_Directory>
/home/itssahil/PROJECTS/Mol_Feturizer/Test_systems_manuscript/rnas/5c7w

>  <Rbt.Executable>
rbdock ($Id: //depot/dev/client3/rdock/2013.1/src/exe/rbdock.cxx#4 $)

>  <Rbt.Library>
libRbt.so (2013.1, Build901 2013/11/27)

>  <Rbt.Parameter_File>
/export/apps/rDock/src/rDock_2013.1_src/data/scripts/dock_solv.prm

>  <Rbt.Receptor>
prm/pocket_docking_3.prm

>  <SCORE>
-14.921

>  <SCORE.INTER>
-14.921

>  <SCORE.INTER.CONST>
1

>  <SCORE.INTER.POLAR>
0

>  <SCORE.INTER.ROT>
0

>  <SCORE.INTER.SOLV>
3.20323

>  <SCORE.INTER.VDW>
-14.6151

>  <SCORE.INTER.norm>
-1.4921

>  <SCORE.INTRA>
0

>  <SCORE.INTRA.DIHEDRAL>
0

>  <SCORE.INTRA.DIHEDRAL.0>
0

>  <SCORE.INTRA.POLAR>
0

>  <SCORE.INTRA.POLAR.0>
0

>  <SCORE.INTRA.REPUL>
0

>  <SCORE.INTRA.REPUL.0>
0

>  <SCORE.INTRA.SOLV>
0

>  <SCORE.INTRA.SOLV.lig_0>
-4.15853

>  <SCORE.INTRA.VDW>
0

>  <SCORE.INTRA.VDW.0>
0

>  <SCORE.INTRA.norm>
0

>  <SCORE.RESTR>
0

>  <SCORE.RESTR.CAVITY>
0

>  <SCORE.RESTR.norm>
0

>  <SCORE.SYSTEM>
0

>  <SCORE.SYSTEM.CONST>
0

>  <SCORE.SYSTEM.DIHEDRAL>
0

>  <SCORE.SYSTEM.SOLV>
0

>  <SCORE.SYSTEM.norm>
0

>  <SCORE.heavy>
10

>  <SCORE.norm>
-1.4921

>  <RMSD>
2.307

$$$$
ligand
 OpenBabel02271912153D
libRbt.so/2013.1/901 2013/11/27
 10 11  0  0  0  0  0  0  0  0999 V2000
   -0.0303  -13.1202   13.0700 N   0  0  0  0  0  0  0  0  0  0  0  0
   -0.5978  -12.1052   13.6851 C   0  0  0  0  0  0  0  0  0  0  0  0
   -0.0954  -10.8185   13.4756 N   0  0  0  0  0  0  0  0  0  0  0  0
    0.9439  -10.6230   12.6676 C   0  0  0  0  0  0  0  0  0  0  0  0
    1.5128  -11.6438   12.0538 C   0  0  0  0  0  0  0  0  0  0  0  0
    1.0591  -12.8695   12.2391 C   0  0  0  0  0  0  0  0  0  0  0  0
    1.6060  -13.8016   11.6665 O   0  0  0  0  0  0  0  0  0  0  0  0
    2.5168  -11.1908   11.3051 N   0  0  0  0  0  0  0  0  0  0  0  0
    2.5569   -9.8720   11.4587 C   0  0  0  0  0  0  0  0  0  0  0  0
    1.5841   -9.5230   12.3044 N   0  0  0  0  0  0  0  0  0  0  0  0
  1  2  1  0  0  0  0
  1  6  1  0  0  0  0
  2  3  2  0  0  0  0
  3  4  1  0  0  0  0
  4  5  2  0  0  0  0
  4 10  1  0  0  0  0
  5  6  1  0  0  0  0
  5  8  1  0  0  0  0
  6  7  2  0  0  0  0
  8  9  1  0  0  0  0
  9 10  2  0  0  0  0
M  END
>  <CHROM.1>
1.11395927,-11.60078300,12.37948907,2.24426519,-0.67402853,-2.99637357

>  <Name>
ligand

>  <RI>
0

>  <Rbt.Current_Directory>
/home/itssahil/PROJECTS/Mol_Feturizer/Test_systems_manuscript/rnas/5c7w

>  <Rbt.Executable>
rbdock ($Id: //depot/dev/client3/rdock/2013.1/src/exe/rbdock.cxx#4 $)

>  <Rbt.Library>
libRbt.so (2013.1, Build901 2013/11/27)

>  <Rbt.Parameter_File>
/export/apps/rDock/src/rDock_2013.1_src/data/scripts/dock_solv.prm

>  <Rbt.Receptor>
prm/pocket_docking_3.prm

>  <SCORE>
-14.8469

>  <SCORE.INTER>
-14.8469

>  <SCORE.INTER.CONST>
1

>  <SCORE.INTER.POLAR>
0

>  <SCORE.INTER.ROT>
0

>  <SCORE.INTER.SOLV>
3.09331

>  <SCORE.INTER.VDW>
-14.529

>  <SCORE.INTER.norm>
-1.48469

>  <SCORE.INTRA>
0

>  <SCORE.INTRA.DIHEDRAL>
0

>  <SCORE.INTRA.DIHEDRAL.0>
0

>  <SCORE.INTRA.POLAR>
0

>  <SCORE.INTRA.POLAR.0>
0

>  <SCORE.INTRA.REPUL>
0

>  <SCORE.INTRA.REPUL.0>
0

>  <SCORE.INTRA.SOLV>
0

>  <SCORE.INTRA.SOLV.lig_0>
-4.15853

>  <SCORE.INTRA.VDW>
0

>  <SCORE.INTRA.VDW.0>
0

>  <SCORE.INTRA.norm>
0

>  <SCORE.RESTR>
0

>  <SCORE.RESTR.CAVITY>
0

>  <SCORE.RESTR.norm>
0

>  <SCORE.SYSTEM>
0

>  <SCORE.SYSTEM.CONST>
0

>  <SCORE.SYSTEM.DIHEDRAL>
0

>  <SCORE.SYSTEM.SOLV>
0

>  <SCORE.SYSTEM.norm>
0

>  <SCORE.heavy>
10

>  <SCORE.norm>
-1.48469

>  <RMSD>
2.307

$$$$
ligand
 OpenBabel02271912153D
libRbt.so/2013.1/901 2013/11/27
 10 11  0  0  0  0  0  0  0  0999 V2000
    0.0120  -13.2240   13.0466 N   0  0  0  0  0  0  0  0  0  0  0  0
   -0.5655  -12.2351   13.6941 C   0  0  0  0  0  0  0  0  0  0  0  0
   -0.1007  -10.9324   13.4969 N   0  0  0  0  0  0  0  0  0  0  0  0
    0.9132  -10.6958   12.6679 C   0  0  0  0  0  0  0  0  0  0  0  0
    1.4922  -11.6905   12.0215 C   0  0  0  0  0  0  0  0  0  0  0  0
    1.0741  -12.9305   12.1946 C   0  0  0  0  0  0  0  0  0  0  0  0
    1.6299  -13.8378   11.5916 O   0  0  0  0  0  0  0  0  0  0  0  0
    2.4659  -11.1985   11.2575 N   0  0  0  0  0  0  0  0  0  0  0  0
    2.4768   -9.8821   11.4349 C   0  0  0  0  0  0  0  0  0  0  0  0
    1.5165   -9.5734   12.3102 N   0  0  0  0  0  0  0  0  0  0  0  0
  1  2  1  0  0  0  0
  1  6  1  0  0  0  0
  2  3  2  0  0  0  0
  3  4  1  0  0  0  0
  4  5  2  0  0  0  0
  4 10  1  0  0  0  0
  5  6  1  0  0  0  0
  5  8  1  0  0  0  0
  6  7  2  0  0  0  0
  8  9  1  0  0  0  0
  9 10  2  0  0  0  0
M  END
>  <CHROM.1>
1.10057656,-11.66355405,12.35746300,2.21646124,-0.70173976,-2.99553551

>  <Name>
ligand

>  <RI>
0

>  <Rbt.Current_Directory>
/home/itssahil/PROJECTS/Mol_Feturizer/Test_systems_manuscript/rnas/5c7w

>  <Rbt.Executable>
rbdock ($Id: //depot/dev/client3/rdock/2013.1/src/exe/rbdock.cxx#4 $)

>  <Rbt.Library>
libRbt.so (2013.1, Build901 2013/11/27)

>  <Rbt.Parameter_File>
/export/apps/rDock/src/rDock_2013.1_src/data/scripts/dock_solv.prm

>  <Rbt.Receptor>
prm/pocket_docking_3.prm

>  <SCORE>
-14.922

>  <SCORE.INTER>
-14.922

>  <SCORE.INTER.CONST>
1

>  <SCORE.INTER.POLAR>
0

>  <SCORE.INTER.ROT>
0

>  <SCORE.INTER.SOLV>
3.19891

>  <SCORE.INTER.VDW>
-14.6143

>  <SCORE.INTER.norm>
-1.4922

>  <SCORE.INTRA>
0

>  <SCORE.INTRA.DIHEDRAL>
0

>  <SCORE.INTRA.DIHEDRAL.0>
0

>  <SCORE.INTRA.POLAR>
0

>  <SCORE.INTRA.POLAR.0>
0

>  <SCORE.INTRA.REPUL>
0

>  <SCORE.INTRA.REPUL.0>
0

>  <SCORE.INTRA.SOLV>
0

>  <SCORE.INTRA.SOLV.lig_0>
-4.15853

>  <SCORE.INTRA.VDW>
0

>  <SCORE.INTRA.VDW.0>
0

>  <SCORE.INTRA.norm>
0

>  <SCORE.RESTR>
0

>  <SCORE.RESTR.CAVITY>
0

>  <SCORE.RESTR.norm>
0

>  <SCORE.SYSTEM>
0

>  <SCORE.SYSTEM.CONST>
0

>  <SCORE.SYSTEM.DIHEDRAL>
0

>  <SCORE.SYSTEM.SOLV>
0

>  <SCORE.SYSTEM.norm>
0

>  <SCORE.heavy>
10

>  <SCORE.norm>
-1.4922

>  <RMSD>
2.307

$$$$
ligand
 OpenBabel02271912153D
libRbt.so/2013.1/901 2013/11/27
 10 11  0  0  0  0  0  0  0  0999 V2000
    0.0094  -13.2163   13.0510 N   0  0  0  0  0  0  0  0  0  0  0  0
   -0.5644  -12.2258   13.6993 C   0  0  0  0  0  0  0  0  0  0  0  0
   -0.0985  -10.9240   13.4986 N   0  0  0  0  0  0  0  0  0  0  0  0
    0.9128  -10.6899   12.6657 C   0  0  0  0  0  0  0  0  0  0  0  0
    1.4881  -11.6862   12.0186 C   0  0  0  0  0  0  0  0  0  0  0  0
    1.0688  -12.9255   12.1948 C   0  0  0  0  0  0  0  0  0  0  0  0
    1.6213  -13.8343   11.5910 O   0  0  0  0  0  0  0  0  0  0  0  0
    2.4598  -11.1966   11.2505 N   0  0  0  0  0  0  0  0  0  0  0  0
    2.4731   -9.8800   11.4261 C   0  0  0  0  0  0  0  0  0  0  0  0
    1.5164   -9.5688   12.3044 N   0  0  0  0  0  0  0  0  0  0  0  0
  1  2  1  0  0  0  0
  1  6  1  0  0  0  0
  2  3  2  0  0  0  0
  3  4  1  0  0  0  0
  4  5  2  0  0  0  0
  4 10  1  0  0  0  0
  5  6  1  0  0  0  0
  5  8  1  0  0  0  0
  6  7  2  0  0  0  0
  8  9  1  0  0  0  0
  9 10  2  0  0  0  0
M  END
>  <CHROM.1>
1.09769397,-11.65831395,12.35591392,2.21895758,-0.70506479,-2.99522787

>  <Name>
ligand

>  <RI>
0

>  <Rbt.Current_Directory>
/home/itssahil/PROJECTS/Mol_Feturizer/Test_systems_manuscript/rnas/5c7w

>  <Rbt.Executable>
rbdock ($Id: //depot/dev/client3/rdock/2013.1/src/exe/rbdock.cxx#4 $)

>  <Rbt.Library>
libRbt.so (2013.1, Build901 2013/11/27)

>  <Rbt.Parameter_File>
/export/apps/rDock/src/rDock_2013.1_src/data/scripts/dock_solv.prm

>  <Rbt.Receptor>
prm/pocket_docking_3.prm

>  <SCORE>
-14.9217

>  <SCORE.INTER>
-14.9217

>  <SCORE.INTER.CONST>
1

>  <SCORE.INTER.POLAR>
0

>  <SCORE.INTER.ROT>
0

>  <SCORE.INTER.SOLV>
3.20137

>  <SCORE.INTER.VDW>
-14.6149

>  <SCORE.INTER.norm>
-1.49217

>  <SCORE.INTRA>
0

>  <SCORE.INTRA.DIHEDRAL>
0

>  <SCORE.INTRA.DIHEDRAL.0>
0

>  <SCORE.INTRA.POLAR>
0

>  <SCORE.INTRA.POLAR.0>
0

>  <SCORE.INTRA.REPUL>
0

>  <SCORE.INTRA.REPUL.0>
0

>  <SCORE.INTRA.SOLV>
0

>  <SCORE.INTRA.SOLV.lig_0>
-4.15853

>  <SCORE.INTRA.VDW>
0

>  <SCORE.INTRA.VDW.0>
0

>  <SCORE.INTRA.norm>
0

>  <SCORE.RESTR>
0

>  <SCORE.RESTR.CAVITY>
0

>  <SCORE.RESTR.norm>
0

>  <SCORE.SYSTEM>
0

>  <SCORE.SYSTEM.CONST>
0

>  <SCORE.SYSTEM.DIHEDRAL>
0

>  <SCORE.SYSTEM.SOLV>
0

>  <SCORE.SYSTEM.norm>
0

>  <SCORE.heavy>
10

>  <SCORE.norm>
-1.49217

>  <RMSD>
2.307

$$$$
ligand
 OpenBabel02271912153D
libRbt.so/2013.1/901 2013/11/27
 10 11  0  0  0  0  0  0  0  0999 V2000
    0.0070  -13.2272   13.0440 N   0  0  0  0  0  0  0  0  0  0  0  0
   -0.5746  -12.2382   13.6876 C   0  0  0  0  0  0  0  0  0  0  0  0
   -0.1108  -10.9351   13.4904 N   0  0  0  0  0  0  0  0  0  0  0  0
    0.9062  -10.6983   12.6653 C   0  0  0  0  0  0  0  0  0  0  0  0
    1.4893  -11.6931   12.0228 C   0  0  0  0  0  0  0  0  0  0  0  0
    1.0722  -12.9335   12.1960 C   0  0  0  0  0  0  0  0  0  0  0  0
    1.6319  -13.8409   11.5966 O   0  0  0  0  0  0  0  0  0  0  0  0
    2.4656  -11.2009   11.2622 N   0  0  0  0  0  0  0  0  0  0  0  0
    2.4738   -9.8842   11.4376 C   0  0  0  0  0  0  0  0  0  0  0  0
    1.5095   -9.5756   12.3084 N   0  0  0  0  0  0  0  0  0  0  0  0
  1  2  1  0  0  0  0
  1  6  1  0  0  0  0
  2  3  2  0  0  0  0
  3  4  1  0  0  0  0
  4  5  2  0  0  0  0
  4 10  1  0  0  0  0
  5  6  1  0  0  0  0
  5  8  1  0  0  0  0
  6  7  2  0  0  0  0
  8  9  1  0  0  0  0
  9 10  2  0  0  0  0
M  END
>  <CHROM.1>
1.09626559,-11.66623108,12.35706781,2.21386290,-0.69781211,-2.99867388

>  <Name>
ligand

>  <RI>
0

>  <Rbt.Current_Directory>
/home/itssahil/PROJECTS/Mol_Feturizer/Test_systems_manuscript/rnas/5c7w

>  <Rbt.Executable>
rbdock ($Id: //depot/dev/client3/rdock/2013.1/src/exe/rbdock.cxx#4 $)

>  <Rbt.Library>
libRbt.so (2013.1, Build901 2013/11/27)

>  <Rbt.Parameter_File>
/export/apps/rDock/src/rDock_2013.1_src/data/scripts/dock_solv.prm

>  <Rbt.Receptor>
prm/pocket_docking_3.prm

>  <SCORE>
-14.9194

>  <SCORE.INTER>
-14.9194

>  <SCORE.INTER.CONST>
1

>  <SCORE.INTER.POLAR>
0

>  <SCORE.INTER.ROT>
0

>  <SCORE.INTER.SOLV>
3.19362

>  <SCORE.INTER.VDW>
-14.6108

>  <SCORE.INTER.norm>
-1.49194

>  <SCORE.INTRA>
0

>  <SCORE.INTRA.DIHEDRAL>
0

>  <SCORE.INTRA.DIHEDRAL.0>
0

>  <SCORE.INTRA.POLAR>
0

>  <SCORE.INTRA.POLAR.0>
0

>  <SCORE.INTRA.REPUL>
0

>  <SCORE.INTRA.REPUL.0>
0

>  <SCORE.INTRA.SOLV>
0

>  <SCORE.INTRA.SOLV.lig_0>
-4.15853

>  <SCORE.INTRA.VDW>
0

>  <SCORE.INTRA.VDW.0>
0

>  <SCORE.INTRA.norm>
0

>  <SCORE.RESTR>
0

>  <SCORE.RESTR.CAVITY>
0

>  <SCORE.RESTR.norm>
0

>  <SCORE.SYSTEM>
0

>  <SCORE.SYSTEM.CONST>
0

>  <SCORE.SYSTEM.DIHEDRAL>
0

>  <SCORE.SYSTEM.SOLV>
0

>  <SCORE.SYSTEM.norm>
0

>  <SCORE.heavy>
10

>  <SCORE.norm>
-1.49194

>  <RMSD>
2.307

$$$$
ligand
 OpenBabel02271912153D
libRbt.so/2013.1/901 2013/11/27
 10 11  0  0  0  0  0  0  0  0999 V2000
    0.0069  -13.2240   13.0456 N   0  0  0  0  0  0  0  0  0  0  0  0
   -0.5708  -12.2363   13.6946 C   0  0  0  0  0  0  0  0  0  0  0  0
   -0.1060  -10.9332   13.4997 N   0  0  0  0  0  0  0  0  0  0  0  0
    0.9081  -10.6951   12.6714 C   0  0  0  0  0  0  0  0  0  0  0  0
    1.4873  -11.6886   12.0235 C   0  0  0  0  0  0  0  0  0  0  0  0
    1.0692  -12.9290   12.1943 C   0  0  0  0  0  0  0  0  0  0  0  0
    1.6252  -13.8353   11.5899 O   0  0  0  0  0  0  0  0  0  0  0  0
    2.4612  -11.1953   11.2606 N   0  0  0  0  0  0  0  0  0  0  0  0
    2.4719   -9.8792   11.4402 C   0  0  0  0  0  0  0  0  0  0  0  0
    1.5115   -9.5721   12.3158 N   0  0  0  0  0  0  0  0  0  0  0  0
  1  2  1  0  0  0  0
  1  6  1  0  0  0  0
  2  3  2  0  0  0  0
  3  4  1  0  0  0  0
  4  5  2  0  0  0  0
  4 10  1  0  0  0  0
  5  6  1  0  0  0  0
  5  8  1  0  0  0  0
  6  7  2  0  0  0  0
  8  9  1  0  0  0  0
  9 10  2  0  0  0  0
M  END
>  <CHROM.1>
1.09559895,-11.66233611,12.35936166,2.21635557,-0.70150464,-2.99387870

>  <Name>
ligand

>  <RI>
0

>  <Rbt.Current_Directory>
/home/itssahil/PROJECTS/Mol_Feturizer/Test_systems_manuscript/rnas/5c7w

>  <Rbt.Executable>
rbdock ($Id: //depot/dev/client3/rdock/2013.1/src/exe/rbdock.cxx#4 $)

>  <Rbt.Library>
libRbt.so (2013.1, Build901 2013/11/27)

>  <Rbt.Parameter_File>
/export/apps/rDock/src/rDock_2013.1_src/data/scripts/dock_solv.prm

>  <Rbt.Receptor>
prm/pocket_docking_3.prm

>  <SCORE>
-14.921

>  <SCORE.INTER>
-14.921

>  <SCORE.INTER.CONST>
1

>  <SCORE.INTER.POLAR>
0

>  <SCORE.INTER.ROT>
0

>  <SCORE.INTER.SOLV>
3.19804

>  <SCORE.INTER.VDW>
-14.6133

>  <SCORE.INTER.norm>
-1.4921

>  <SCORE.INTRA>
0

>  <SCORE.INTRA.DIHEDRAL>
0

>  <SCORE.INTRA.DIHEDRAL.0>
0

>  <SCORE.INTRA.POLAR>
0

>  <SCORE.INTRA.POLAR.0>
0

>  <SCORE.INTRA.REPUL>
0

>  <SCORE.INTRA.REPUL.0>
0

>  <SCORE.INTRA.SOLV>
0

>  <SCORE.INTRA.SOLV.lig_0>
-4.15853

>  <SCORE.INTRA.VDW>
0

>  <SCORE.INTRA.VDW.0>
0

>  <SCORE.INTRA.norm>
0

>  <SCORE.RESTR>
0

>  <SCORE.RESTR.CAVITY>
0

>  <SCORE.RESTR.norm>
0

>  <SCORE.SYSTEM>
0

>  <SCORE.SYSTEM.CONST>
0

>  <SCORE.SYSTEM.DIHEDRAL>
0

>  <SCORE.SYSTEM.SOLV>
0

>  <SCORE.SYSTEM.norm>
0

>  <SCORE.heavy>
10

>  <SCORE.norm>
-1.4921

>  <RMSD>
2.307

$$$$
ligand
 OpenBabel02271912153D
libRbt.so/2013.1/901 2013/11/27
 10 11  0  0  0  0  0  0  0  0999 V2000
    0.0075  -13.2174   13.0559 N   0  0  0  0  0  0  0  0  0  0  0  0
   -0.5615  -12.2276   13.7094 C   0  0  0  0  0  0  0  0  0  0  0  0
   -0.0949  -10.9260   13.5093 N   0  0  0  0  0  0  0  0  0  0  0  0
    0.9122  -10.6913   12.6715 C   0  0  0  0  0  0  0  0  0  0  0  0
    1.4827  -11.6869   12.0191 C   0  0  0  0  0  0  0  0  0  0  0  0
    1.0627  -12.9260   12.1947 C   0  0  0  0  0  0  0  0  0  0  0  0
    1.6107  -13.8343   11.5858 O   0  0  0  0  0  0  0  0  0  0  0  0
    2.4509  -11.1969   11.2469 N   0  0  0  0  0  0  0  0  0  0  0  0
    2.4669   -9.8807   11.4253 C   0  0  0  0  0  0  0  0  0  0  0  0
    1.5154   -9.5703   12.3095 N   0  0  0  0  0  0  0  0  0  0  0  0
  1  2  1  0  0  0  0
  1  6  1  0  0  0  0
  2  3  2  0  0  0  0
  3  4  1  0  0  0  0
  4  5  2  0  0  0  0
  4 10  1  0  0  0  0
  5  6  1  0  0  0  0
  5  8  1  0  0  0  0
  6  7  2  0  0  0  0
  8  9  1  0  0  0  0
  9 10  2  0  0  0  0
M  END
>  <CHROM.1>
1.09414456,-11.65928870,12.35849960,2.22174173,-0.71017123,-2.99114249

>  <Name>
ligand

>  <RI>
0

>  <Rbt.Current_Directory>
/home/itssahil/PROJECTS/Mol_Feturizer/Test_systems_manuscript/rnas/5c7w

>  <Rbt.Executable>
rbdock ($Id: //depot/dev/client3/rdock/2013.1/src/exe/rbdock.cxx#4 $)

>  <Rbt.Library>
libRbt.so (2013.1, Build901 2013/11/27)

>  <Rbt.Parameter_File>
/export/apps/rDock/src/rDock_2013.1_src/data/scripts/dock_solv.prm

>  <Rbt.Receptor>
prm/pocket_docking_3.prm

>  <SCORE>
-14.9182

>  <SCORE.INTER>
-14.9182

>  <SCORE.INTER.CONST>
1

>  <SCORE.INTER.POLAR>
0

>  <SCORE.INTER.ROT>
0

>  <SCORE.INTER.SOLV>
3.20904

>  <SCORE.INTER.VDW>
-14.6151

>  <SCORE.INTER.norm>
-1.49182

>  <SCORE.INTRA>
0

>  <SCORE.INTRA.DIHEDRAL>
0

>  <SCORE.INTRA.DIHEDRAL.0>
0

>  <SCORE.INTRA.POLAR>
0

>  <SCORE.INTRA.POLAR.0>
0

>  <SCORE.INTRA.REPUL>
0

>  <SCORE.INTRA.REPUL.0>
0

>  <SCORE.INTRA.SOLV>
0

>  <SCORE.INTRA.SOLV.lig_0>
-4.15853

>  <SCORE.INTRA.VDW>
0

>  <SCORE.INTRA.VDW.0>
0

>  <SCORE.INTRA.norm>
0

>  <SCORE.RESTR>
0

>  <SCORE.RESTR.CAVITY>
0

>  <SCORE.RESTR.norm>
0

>  <SCORE.SYSTEM>
0

>  <SCORE.SYSTEM.CONST>
0

>  <SCORE.SYSTEM.DIHEDRAL>
0

>  <SCORE.SYSTEM.SOLV>
0

>  <SCORE.SYSTEM.norm>
0

>  <SCORE.heavy>
10

>  <SCORE.norm>
-1.49182

>  <RMSD>
2.307

$$$$
ligand
 OpenBabel02271912153D
libRbt.so/2013.1/901 2013/11/27
 10 11  0  0  0  0  0  0  0  0999 V2000
    0.0059  -13.2239   13.0484 N   0  0  0  0  0  0  0  0  0  0  0  0
   -0.5737  -12.2343   13.6929 C   0  0  0  0  0  0  0  0  0  0  0  0
   -0.1121  -10.9312   13.4911 N   0  0  0  0  0  0  0  0  0  0  0  0
    0.9008  -10.6948   12.6609 C   0  0  0  0  0  0  0  0  0  0  0  0
    1.4819  -11.6902   12.0175 C   0  0  0  0  0  0  0  0  0  0  0  0
    1.0668  -12.9307   12.1949 C   0  0  0  0  0  0  0  0  0  0  0  0
    1.6246  -13.8387   11.5946 O   0  0  0  0  0  0  0  0  0  0  0  0
    2.4540  -11.1985   11.2514 N   0  0  0  0  0  0  0  0  0  0  0  0
    2.4618   -9.8815   11.4244 C   0  0  0  0  0  0  0  0  0  0  0  0
    1.5013   -9.5722   12.2992 N   0  0  0  0  0  0  0  0  0  0  0  0
  1  2  1  0  0  0  0
  1  6  1  0  0  0  0
  2  3  2  0  0  0  0
  3  4  1  0  0  0  0
  4  5  2  0  0  0  0
  4 10  1  0  0  0  0
  5  6  1  0  0  0  0
  5  8  1  0  0  0  0
  6  7  2  0  0  0  0
  8  9  1  0  0  0  0
  9 10  2  0  0  0  0
M  END
>  <CHROM.1>
1.09035357,-11.66315013,12.35355422,2.21343873,-0.70257713,-3.00078121

>  <Name>
ligand

>  <RI>
0

>  <Rbt.Current_Directory>
/home/itssahil/PROJECTS/Mol_Feturizer/Test_systems_manuscript/rnas/5c7w

>  <Rbt.Executable>
rbdock ($Id: //depot/dev/client3/rdock/2013.1/src/exe/rbdock.cxx#4 $)

>  <Rbt.Library>
libRbt.so (2013.1, Build901 2013/11/27)

>  <Rbt.Parameter_File>
/export/apps/rDock/src/rDock_2013.1_src/data/scripts/dock_solv.prm

>  <Rbt.Receptor>
prm/pocket_docking_4.prm

>  <SCORE>
-14.9182

>  <SCORE.INTER>
-14.9182

>  <SCORE.INTER.CONST>
1

>  <SCORE.INTER.POLAR>
0

>  <SCORE.INTER.ROT>
0

>  <SCORE.INTER.SOLV>
3.20221

>  <SCORE.INTER.VDW>
-14.6129

>  <SCORE.INTER.norm>
-1.49182

>  <SCORE.INTRA>
0

>  <SCORE.INTRA.DIHEDRAL>
0

>  <SCORE.INTRA.DIHEDRAL.0>
0

>  <SCORE.INTRA.POLAR>
0

>  <SCORE.INTRA.POLAR.0>
0

>  <SCORE.INTRA.REPUL>
0

>  <SCORE.INTRA.REPUL.0>
0

>  <SCORE.INTRA.SOLV>
0

>  <SCORE.INTRA.SOLV.lig_0>
-4.15853

>  <SCORE.INTRA.VDW>
0

>  <SCORE.INTRA.VDW.0>
0

>  <SCORE.INTRA.norm>
0

>  <SCORE.RESTR>
0

>  <SCORE.RESTR.CAVITY>
0

>  <SCORE.RESTR.norm>
0

>  <SCORE.SYSTEM>
0

>  <SCORE.SYSTEM.CONST>
0

>  <SCORE.SYSTEM.DIHEDRAL>
0

>  <SCORE.SYSTEM.SOLV>
0

>  <SCORE.SYSTEM.norm>
0

>  <SCORE.heavy>
10

>  <SCORE.norm>
-1.49182

>  <RMSD>
2.307

$$$$
ligand
 OpenBabel02271912153D
libRbt.so/2013.1/901 2013/11/27
 10 11  0  0  0  0  0  0  0  0999 V2000
    0.0059  -13.2155   13.0433 N   0  0  0  0  0  0  0  0  0  0  0  0
   -0.5766  -12.2263   13.6858 C   0  0  0  0  0  0  0  0  0  0  0  0
   -0.1110  -10.9236   13.4907 N   0  0  0  0  0  0  0  0  0  0  0  0
    0.9087  -10.6873   12.6687 C   0  0  0  0  0  0  0  0  0  0  0  0
    1.4927  -11.6823   12.0274 C   0  0  0  0  0  0  0  0  0  0  0  0
    1.0738  -12.9224   12.1986 C   0  0  0  0  0  0  0  0  0  0  0  0
    1.6344  -13.8300   11.6004 O   0  0  0  0  0  0  0  0  0  0  0  0
    2.4717  -11.1907   11.2699 N   0  0  0  0  0  0  0  0  0  0  0  0
    2.4807   -9.8741   11.4461 C   0  0  0  0  0  0  0  0  0  0  0  0
    1.5141   -9.5650   12.3143 N   0  0  0  0  0  0  0  0  0  0  0  0
  1  2  1  0  0  0  0
  1  6  1  0  0  0  0
  2  3  2  0  0  0  0
  3  4  1  0  0  0  0
  4  5  2  0  0  0  0
  4 10  1  0  0  0  0
  5  6  1  0  0  0  0
  5  8  1  0  0  0  0
  6  7  2  0  0  0  0
  8  9  1  0  0  0  0
  9 10  2  0  0  0  0
M  END
>  <CHROM.1>
1.09869902,-11.65524357,12.36052109,2.21460513,-0.69475832,-2.99763157

>  <Name>
ligand

>  <RI>
0

>  <Rbt.Current_Directory>
/home/itssahil/PROJECTS/Mol_Feturizer/Test_systems_manuscript/rnas/5c7w

>  <Rbt.Executable>
rbdock ($Id: //depot/dev/client3/rdock/2013.1/src/exe/rbdock.cxx#4 $)

>  <Rbt.Library>
libRbt.so (2013.1, Build901 2013/11/27)

>  <Rbt.Parameter_File>
/export/apps/rDock/src/rDock_2013.1_src/data/scripts/dock_solv.prm

>  <Rbt.Receptor>
prm/pocket_docking_4.prm

>  <SCORE>
-14.9211

>  <SCORE.INTER>
-14.9211

>  <SCORE.INTER.CONST>
1

>  <SCORE.INTER.POLAR>
0

>  <SCORE.INTER.ROT>
0

>  <SCORE.INTER.SOLV>
3.18285

>  <SCORE.INTER.VDW>
-14.6084

>  <SCORE.INTER.norm>
-1.49211

>  <SCORE.INTRA>
0

>  <SCORE.INTRA.DIHEDRAL>
0

>  <SCORE.INTRA.DIHEDRAL.0>
0

>  <SCORE.INTRA.POLAR>
0

>  <SCORE.INTRA.POLAR.0>
0

>  <SCORE.INTRA.REPUL>
0

>  <SCORE.INTRA.REPUL.0>
0

>  <SCORE.INTRA.SOLV>
0

>  <SCORE.INTRA.SOLV.lig_0>
-4.15853

>  <SCORE.INTRA.VDW>
0

>  <SCORE.INTRA.VDW.0>
0

>  <SCORE.INTRA.norm>
0

>  <SCORE.RESTR>
0

>  <SCORE.RESTR.CAVITY>
0

>  <SCORE.RESTR.norm>
0

>  <SCORE.SYSTEM>
0

>  <SCORE.SYSTEM.CONST>
0

>  <SCORE.SYSTEM.DIHEDRAL>
0

>  <SCORE.SYSTEM.SOLV>
0

>  <SCORE.SYSTEM.norm>
0

>  <SCORE.heavy>
10

>  <SCORE.norm>
-1.49211

>  <RMSD>
2.307

$$$$
ligand
 OpenBabel02271912153D
libRbt.so/2013.1/901 2013/11/27
 10 11  0  0  0  0  0  0  0  0999 V2000
    0.0083  -13.2194   13.0453 N   0  0  0  0  0  0  0  0  0  0  0  0
   -0.5671  -12.2272   13.6894 C   0  0  0  0  0  0  0  0  0  0  0  0
   -0.0990  -10.9263   13.4885 N   0  0  0  0  0  0  0  0  0  0  0  0
    0.9161  -10.6947   12.6594 C   0  0  0  0  0  0  0  0  0  0  0  0
    1.4930  -11.6928   12.0165 C   0  0  0  0  0  0  0  0  0  0  0  0
    1.0716  -12.9313   12.1931 C   0  0  0  0  0  0  0  0  0  0  0  0
    1.6257  -13.8418   11.5932 O   0  0  0  0  0  0  0  0  0  0  0  0
    2.4685  -11.2056   11.2517 N   0  0  0  0  0  0  0  0  0  0  0  0
    2.4825   -9.8887   11.4250 C   0  0  0  0  0  0  0  0  0  0  0  0
    1.5224   -9.5749   12.2987 N   0  0  0  0  0  0  0  0  0  0  0  0
  1  2  1  0  0  0  0
  1  6  1  0  0  0  0
  2  3  2  0  0  0  0
  3  4  1  0  0  0  0
  4  5  2  0  0  0  0
  4 10  1  0  0  0  0
  5  6  1  0  0  0  0
  5  8  1  0  0  0  0
  6  7  2  0  0  0  0
  8  9  1  0  0  0  0
  9 10  2  0  0  0  0
M  END
>  <CHROM.1>
1.10123188,-11.66385923,12.35212673,2.21957750,-0.70072562,-2.99657932

>  <Name>
ligand

>  <RI>
0

>  <Rbt.Current_Directory>
/home/itssahil/PROJECTS/Mol_Feturizer/Test_systems_manuscript/rnas/5c7w

>  <Rbt.Executable>
rbdock ($Id: //depot/dev/client3/rdock/2013.1/src/exe/rbdock.cxx#4 $)

>  <Rbt.Library>
libRbt.so (2013.1, Build901 2013/11/27)

>  <Rbt.Parameter_File>
/export/apps/rDock/src/rDock_2013.1_src/data/scripts/dock_solv.prm

>  <Rbt.Receptor>
prm/pocket_docking_4.prm

>  <SCORE>
-14.9221

>  <SCORE.INTER>
-14.9221

>  <SCORE.INTER.CONST>
1

>  <SCORE.INTER.POLAR>
0

>  <SCORE.INTER.ROT>
0

>  <SCORE.INTER.SOLV>
3.19508

>  <SCORE.INTER.VDW>
-14.6131

>  <SCORE.INTER.norm>
-1.49221

>  <SCORE.INTRA>
0

>  <SCORE.INTRA.DIHEDRAL>
0

>  <SCORE.INTRA.DIHEDRAL.0>
0

>  <SCORE.INTRA.POLAR>
0

>  <SCORE.INTRA.POLAR.0>
0

>  <SCORE.INTRA.REPUL>
0

>  <SCORE.INTRA.REPUL.0>
0

>  <SCORE.INTRA.SOLV>
0

>  <SCORE.INTRA.SOLV.lig_0>
-4.15853

>  <SCORE.INTRA.VDW>
0

>  <SCORE.INTRA.VDW.0>
0

>  <SCORE.INTRA.norm>
0

>  <SCORE.RESTR>
0

>  <SCORE.RESTR.CAVITY>
0

>  <SCORE.RESTR.norm>
0

>  <SCORE.SYSTEM>
0

>  <SCORE.SYSTEM.CONST>
0

>  <SCORE.SYSTEM.DIHEDRAL>
0

>  <SCORE.SYSTEM.SOLV>
0

>  <SCORE.SYSTEM.norm>
0

>  <SCORE.heavy>
10

>  <SCORE.norm>
-1.49221

>  <RMSD>
2.307

$$$$
ligand
 OpenBabel02271912153D
libRbt.so/2013.1/901 2013/11/27
 10 11  0  0  0  0  0  0  0  0999 V2000
    0.0111  -13.2189   13.0471 N   0  0  0  0  0  0  0  0  0  0  0  0
   -0.5682  -12.2307   13.6940 C   0  0  0  0  0  0  0  0  0  0  0  0
   -0.1041  -10.9276   13.4979 N   0  0  0  0  0  0  0  0  0  0  0  0
    0.9110  -10.6899   12.6707 C   0  0  0  0  0  0  0  0  0  0  0  0
    1.4918  -11.6839   12.0249 C   0  0  0  0  0  0  0  0  0  0  0  0
    1.0743  -12.9243   12.1969 C   0  0  0  0  0  0  0  0  0  0  0  0
    1.6319  -13.8310   11.5945 O   0  0  0  0  0  0  0  0  0  0  0  0
    2.4664  -11.1910   11.2627 N   0  0  0  0  0  0  0  0  0  0  0  0
    2.4760   -9.8746   11.4405 C   0  0  0  0  0  0  0  0  0  0  0  0
    1.5141   -9.5670   12.3143 N   0  0  0  0  0  0  0  0  0  0  0  0
  1  2  1  0  0  0  0
  1  6  1  0  0  0  0
  2  3  2  0  0  0  0
  3  4  1  0  0  0  0
  4  5  2  0  0  0  0
  4 10  1  0  0  0  0
  5  6  1  0  0  0  0
  5  8  1  0  0  0  0
  6  7  2  0  0  0  0
  8  9  1  0  0  0  0
  9 10  2  0  0  0  0
M  END
>  <CHROM.1>
1.09961641,-11.65739796,12.36023957,2.21517446,-0.70024125,-2.99603348

>  <Name>
ligand

>  <RI>
0

>  <Rbt.Current_Directory>
/home/itssahil/PROJECTS/Mol_Feturizer/Test_systems_manuscript/rnas/5c7w

>  <Rbt.Executable>
rbdock ($Id: //depot/dev/client3/rdock/2013.1/src/exe/rbdock.cxx#4 $)

>  <Rbt.Library>
libRbt.so (2013.1, Build901 2013/11/27)

>  <Rbt.Parameter_File>
/export/apps/rDock/src/rDock_2013.1_src/data/scripts/dock_solv.prm

>  <Rbt.Receptor>
prm/pocket_docking_4.prm

>  <SCORE>
-14.9223

>  <SCORE.INTER>
-14.9223

>  <SCORE.INTER.CONST>
1

>  <SCORE.INTER.POLAR>
0

>  <SCORE.INTER.ROT>
0

>  <SCORE.INTER.SOLV>
3.19447

>  <SCORE.INTER.VDW>
-14.613

>  <SCORE.INTER.norm>
-1.49223

>  <SCORE.INTRA>
0

>  <SCORE.INTRA.DIHEDRAL>
0

>  <SCORE.INTRA.DIHEDRAL.0>
0

>  <SCORE.INTRA.POLAR>
0

>  <SCORE.INTRA.POLAR.0>
0

>  <SCORE.INTRA.REPUL>
0

>  <SCORE.INTRA.REPUL.0>
0

>  <SCORE.INTRA.SOLV>
0

>  <SCORE.INTRA.SOLV.lig_0>
-4.15853

>  <SCORE.INTRA.VDW>
0

>  <SCORE.INTRA.VDW.0>
0

>  <SCORE.INTRA.norm>
0

>  <SCORE.RESTR>
0

>  <SCORE.RESTR.CAVITY>
0

>  <SCORE.RESTR.norm>
0

>  <SCORE.SYSTEM>
0

>  <SCORE.SYSTEM.CONST>
0

>  <SCORE.SYSTEM.DIHEDRAL>
0

>  <SCORE.SYSTEM.SOLV>
0

>  <SCORE.SYSTEM.norm>
0

>  <SCORE.heavy>
10

>  <SCORE.norm>
-1.49223

>  <RMSD>
2.307

$$$$
ligand
 OpenBabel02271912153D
libRbt.so/2013.1/901 2013/11/27
 10 11  0  0  0  0  0  0  0  0999 V2000
    0.0095  -13.2132   13.0500 N   0  0  0  0  0  0  0  0  0  0  0  0
   -0.5720  -12.2241   13.6935 C   0  0  0  0  0  0  0  0  0  0  0  0
   -0.1091  -10.9209   13.4950 N   0  0  0  0  0  0  0  0  0  0  0  0
    0.9070  -10.6841   12.6687 C   0  0  0  0  0  0  0  0  0  0  0  0
    1.4900  -11.6790   12.0264 C   0  0  0  0  0  0  0  0  0  0  0  0
    1.0736  -12.9195   12.2007 C   0  0  0  0  0  0  0  0  0  0  0  0
    1.6332  -13.8270   11.6014 O   0  0  0  0  0  0  0  0  0  0  0  0
    2.4652  -11.1868   11.2644 N   0  0  0  0  0  0  0  0  0  0  0  0
    2.4730   -9.8700   11.4390 C   0  0  0  0  0  0  0  0  0  0  0  0
    1.5093   -9.5613   12.3106 N   0  0  0  0  0  0  0  0  0  0  0  0
  1  2  1  0  0  0  0
  1  6  1  0  0  0  0
  2  3  2  0  0  0  0
  3  4  1  0  0  0  0
  4  5  2  0  0  0  0
  4 10  1  0  0  0  0
  5  6  1  0  0  0  0
  5  8  1  0  0  0  0
  6  7  2  0  0  0  0
  8  9  1  0  0  0  0
  9 10  2  0  0  0  0
M  END
>  <CHROM.1>
1.09722757,-11.65215108,12.36097728,2.21338457,-0.69884382,-2.99963755

>  <Name>
ligand

>  <RI>
0

>  <Rbt.Current_Directory>
/home/itssahil/PROJECTS/Mol_Feturizer/Test_systems_manuscript/rnas/5c7w

>  <Rbt.Executable>
rbdock ($Id: //depot/dev/client3/rdock/2013.1/src/exe/rbdock.cxx#4 $)

>  <Rbt.Library>
libRbt.so (2013.1, Build901 2013/11/27)

>  <Rbt.Parameter_File>
/export/apps/rDock/src/rDock_2013.1_src/data/scripts/dock_solv.prm

>  <Rbt.Receptor>
prm/pocket_docking_5.prm

>  <SCORE>
-14.9213

>  <SCORE.INTER>
-14.9213

>  <SCORE.INTER.CONST>
1

>  <SCORE.INTER.POLAR>
0

>  <SCORE.INTER.ROT>
0

>  <SCORE.INTER.SOLV>
3.18994

>  <SCORE.INTER.VDW>
-14.6109

>  <SCORE.INTER.norm>
-1.49213

>  <SCORE.INTRA>
0

>  <SCORE.INTRA.DIHEDRAL>
0

>  <SCORE.INTRA.DIHEDRAL.0>
0

>  <SCORE.INTRA.POLAR>
0

>  <SCORE.INTRA.POLAR.0>
0

>  <SCORE.INTRA.REPUL>
0

>  <SCORE.INTRA.REPUL.0>
0

>  <SCORE.INTRA.SOLV>
0

>  <SCORE.INTRA.SOLV.lig_0>
-4.15853

>  <SCORE.INTRA.VDW>
0

>  <SCORE.INTRA.VDW.0>
0

>  <SCORE.INTRA.norm>
0

>  <SCORE.RESTR>
0

>  <SCORE.RESTR.CAVITY>
0

>  <SCORE.RESTR.norm>
0

>  <SCORE.SYSTEM>
0

>  <SCORE.SYSTEM.CONST>
0

>  <SCORE.SYSTEM.DIHEDRAL>
0

>  <SCORE.SYSTEM.SOLV>
0

>  <SCORE.SYSTEM.norm>
0

>  <SCORE.heavy>
10

>  <SCORE.norm>
-1.49213

>  <RMSD>
2.307

$$$$
ligand
 OpenBabel02271912153D
libRbt.so/2013.1/901 2013/11/27
 10 11  0  0  0  0  0  0  0  0999 V2000
    0.0093  -13.2117   13.0570 N   0  0  0  0  0  0  0  0  0  0  0  0
   -0.5549  -12.2230   13.7165 C   0  0  0  0  0  0  0  0  0  0  0  0
   -0.0832  -10.9223   13.5228 N   0  0  0  0  0  0  0  0  0  0  0  0
    0.9241  -10.6874   12.6853 C   0  0  0  0  0  0  0  0  0  0  0  0
    1.4898  -11.6818   12.0269 C   0  0  0  0  0  0  0  0  0  0  0  0
    1.0648  -12.9200   12.1963 C   0  0  0  0  0  0  0  0  0  0  0  0
    1.6084  -13.8273   11.5821 O   0  0  0  0  0  0  0  0  0  0  0  0
    2.4593  -11.1916   11.2564 N   0  0  0  0  0  0  0  0  0  0  0  0
    2.4809   -9.8765   11.4419 C   0  0  0  0  0  0  0  0  0  0  0  0
    1.5316   -9.5669   12.3287 N   0  0  0  0  0  0  0  0  0  0  0  0
  1  2  1  0  0  0  0
  1  6  1  0  0  0  0
  2  3  2  0  0  0  0
  3  4  1  0  0  0  0
  4  5  2  0  0  0  0
  4 10  1  0  0  0  0
  5  6  1  0  0  0  0
  5  8  1  0  0  0  0
  6  7  2  0  0  0  0
  8  9  1  0  0  0  0
  9 10  2  0  0  0  0
M  END
>  <CHROM.1>
1.10170045,-11.65435148,12.36691205,2.22736551,-0.71052193,-2.98211425

>  <Name>
ligand

>  <RI>
0

>  <Rbt.Current_Directory>
/home/itssahil/PROJECTS/Mol_Feturizer/Test_systems_manuscript/rnas/5c7w

>  <Rbt.Executable>
rbdock ($Id: //depot/dev/client3/rdock/2013.1/src/exe/rbdock.cxx#4 $)

>  <Rbt.Library>
libRbt.so (2013.1, Build901 2013/11/27)

>  <Rbt.Parameter_File>
/export/apps/rDock/src/rDock_2013.1_src/data/scripts/dock_solv.prm

>  <Rbt.Receptor>
prm/pocket_docking_5.prm

>  <SCORE>
-14.9501

>  <SCORE.INTER>
-14.9501

>  <SCORE.INTER.CONST>
1

>  <SCORE.INTER.POLAR>
0

>  <SCORE.INTER.ROT>
0

>  <SCORE.INTER.SOLV>
3.20413

>  <SCORE.INTER.VDW>
-14.6348

>  <SCORE.INTER.norm>
-1.49501

>  <SCORE.INTRA>
0

>  <SCORE.INTRA.DIHEDRAL>
0

>  <SCORE.INTRA.DIHEDRAL.0>
0

>  <SCORE.INTRA.POLAR>
0

>  <SCORE.INTRA.POLAR.0>
0

>  <SCORE.INTRA.REPUL>
0

>  <SCORE.INTRA.REPUL.0>
0

>  <SCORE.INTRA.SOLV>
0

>  <SCORE.INTRA.SOLV.lig_0>
-4.15853

>  <SCORE.INTRA.VDW>
0

>  <SCORE.INTRA.VDW.0>
0

>  <SCORE.INTRA.norm>
0

>  <SCORE.RESTR>
0

>  <SCORE.RESTR.CAVITY>
0

>  <SCORE.RESTR.norm>
0

>  <SCORE.SYSTEM>
0

>  <SCORE.SYSTEM.CONST>
0

>  <SCORE.SYSTEM.DIHEDRAL>
0

>  <SCORE.SYSTEM.SOLV>
0

>  <SCORE.SYSTEM.norm>
0

>  <SCORE.heavy>
10

>  <SCORE.norm>
-1.49501

>  <RMSD>
2.307

$$$$
ligand
 OpenBabel02271912153D
libRbt.so/2013.1/901 2013/11/27
 10 11  0  0  0  0  0  0  0  0999 V2000
    0.0180  -13.1953   13.0194 N   0  0  0  0  0  0  0  0  0  0  0  0
   -0.5666  -12.2365   13.7047 C   0  0  0  0  0  0  0  0  0  0  0  0
   -0.1057  -10.9250   13.5647 N   0  0  0  0  0  0  0  0  0  0  0  0
    0.9115  -10.6503   12.7518 C   0  0  0  0  0  0  0  0  0  0  0  0
    1.4976  -11.6148   12.0674 C   0  0  0  0  0  0  0  0  0  0  0  0
    1.0833  -12.8626   12.1861 C   0  0  0  0  0  0  0  0  0  0  0  0
    1.6457  -13.7418   11.5485 O   0  0  0  0  0  0  0  0  0  0  0  0
    2.4734  -11.0878   11.3298 N   0  0  0  0  0  0  0  0  0  0  0  0
    2.4784   -9.7800   11.5623 C   0  0  0  0  0  0  0  0  0  0  0  0
    1.5125   -9.5117   12.4446 N   0  0  0  0  0  0  0  0  0  0  0  0
  1  2  1  0  0  0  0
  1  6  1  0  0  0  0
  2  3  2  0  0  0  0
  3  4  1  0  0  0  0
  4  5  2  0  0  0  0
  4 10  1  0  0  0  0
  5  6  1  0  0  0  0
  5  8  1  0  0  0  0
  6  7  2  0  0  0  0
  8  9  1  0  0  0  0
  9 10  2  0  0  0  0
M  END
>  <CHROM.1>
1.10415948,-11.60345219,12.40206341,2.21061784,-0.69719153,-2.95735494

>  <Name>
ligand

>  <RI>
0

>  <Rbt.Current_Directory>
/home/itssahil/PROJECTS/Mol_Feturizer/Test_systems_manuscript/rnas/5c7w

>  <Rbt.Executable>
rbdock ($Id: //depot/dev/client3/rdock/2013.1/src/exe/rbdock.cxx#4 $)

>  <Rbt.Library>
libRbt.so (2013.1, Build901 2013/11/27)

>  <Rbt.Parameter_File>
/export/apps/rDock/src/rDock_2013.1_src/data/scripts/dock_solv.prm

>  <Rbt.Receptor>
prm/pocket_docking_5.prm

>  <SCORE>
-14.873

>  <SCORE.INTER>
-14.873

>  <SCORE.INTER.CONST>
1

>  <SCORE.INTER.POLAR>
0

>  <SCORE.INTER.ROT>
0

>  <SCORE.INTER.SOLV>
3.21106

>  <SCORE.INTER.VDW>
-14.5857

>  <SCORE.INTER.norm>
-1.4873

>  <SCORE.INTRA>
0

>  <SCORE.INTRA.DIHEDRAL>
0

>  <SCORE.INTRA.DIHEDRAL.0>
0

>  <SCORE.INTRA.POLAR>
0

>  <SCORE.INTRA.POLAR.0>
0

>  <SCORE.INTRA.REPUL>
0

>  <SCORE.INTRA.REPUL.0>
0

>  <SCORE.INTRA.SOLV>
0

>  <SCORE.INTRA.SOLV.lig_0>
-4.15853

>  <SCORE.INTRA.VDW>
0

>  <SCORE.INTRA.VDW.0>
0

>  <SCORE.INTRA.norm>
0

>  <SCORE.RESTR>
0

>  <SCORE.RESTR.CAVITY>
0

>  <SCORE.RESTR.norm>
0

>  <SCORE.SYSTEM>
0

>  <SCORE.SYSTEM.CONST>
0

>  <SCORE.SYSTEM.DIHEDRAL>
0

>  <SCORE.SYSTEM.SOLV>
0

>  <SCORE.SYSTEM.norm>
0

>  <SCORE.heavy>
10

>  <SCORE.norm>
-1.4873

>  <RMSD>
2.307

$$$$
ligand
 OpenBabel02271912153D
libRbt.so/2013.1/901 2013/11/27
 10 11  0  0  0  0  0  0  0  0999 V2000
    0.0060  -13.2182   13.0503 N   0  0  0  0  0  0  0  0  0  0  0  0
   -0.5670  -12.2267   13.6978 C   0  0  0  0  0  0  0  0  0  0  0  0
   -0.0980  -10.9258   13.4984 N   0  0  0  0  0  0  0  0  0  0  0  0
    0.9153  -10.6936   12.6674 C   0  0  0  0  0  0  0  0  0  0  0  0
    1.4898  -11.6909   12.0212 C   0  0  0  0  0  0  0  0  0  0  0  0
    1.0676  -12.9293   12.1962 C   0  0  0  0  0  0  0  0  0  0  0  0
    1.6193  -13.8392   11.5932 O   0  0  0  0  0  0  0  0  0  0  0  0
    2.4639  -11.2031   11.2550 N   0  0  0  0  0  0  0  0  0  0  0  0
    2.4796   -9.8866   11.4310 C   0  0  0  0  0  0  0  0  0  0  0  0
    1.5219   -9.5737   12.3076 N   0  0  0  0  0  0  0  0  0  0  0  0
  1  2  1  0  0  0  0
  1  6  1  0  0  0  0
  2  3  2  0  0  0  0
  3  4  1  0  0  0  0
  4  5  2  0  0  0  0
  4 10  1  0  0  0  0
  5  6  1  0  0  0  0
  5  8  1  0  0  0  0
  6  7  2  0  0  0  0
  8  9  1  0  0  0  0
  9 10  2  0  0  0  0
M  END
>  <CHROM.1>
1.09878328,-11.66229580,12.35772423,2.22129304,-0.70289731,-2.99343766

>  <Name>
ligand

>  <RI>
0

>  <Rbt.Current_Directory>
/home/itssahil/PROJECTS/Mol_Feturizer/Test_systems_manuscript/rnas/5c7w

>  <Rbt.Executable>
rbdock ($Id: //depot/dev/client3/rdock/2013.1/src/exe/rbdock.cxx#4 $)

>  <Rbt.Library>
libRbt.so (2013.1, Build901 2013/11/27)

>  <Rbt.Parameter_File>
/export/apps/rDock/src/rDock_2013.1_src/data/scripts/dock_solv.prm

>  <Rbt.Receptor>
prm/pocket_docking_6.prm

>  <SCORE>
-14.921

>  <SCORE.INTER>
-14.921

>  <SCORE.INTER.CONST>
1

>  <SCORE.INTER.POLAR>
0

>  <SCORE.INTER.ROT>
0

>  <SCORE.INTER.SOLV>
3.1957

>  <SCORE.INTER.VDW>
-14.6126

>  <SCORE.INTER.norm>
-1.4921

>  <SCORE.INTRA>
0

>  <SCORE.INTRA.DIHEDRAL>
0

>  <SCORE.INTRA.DIHEDRAL.0>
0

>  <SCORE.INTRA.POLAR>
0

>  <SCORE.INTRA.POLAR.0>
0

>  <SCORE.INTRA.REPUL>
0

>  <SCORE.INTRA.REPUL.0>
0

>  <SCORE.INTRA.SOLV>
0

>  <SCORE.INTRA.SOLV.lig_0>
-4.15853

>  <SCORE.INTRA.VDW>
0

>  <SCORE.INTRA.VDW.0>
0

>  <SCORE.INTRA.norm>
0

>  <SCORE.RESTR>
0

>  <SCORE.RESTR.CAVITY>
0

>  <SCORE.RESTR.norm>
0

>  <SCORE.SYSTEM>
0

>  <SCORE.SYSTEM.CONST>
0

>  <SCORE.SYSTEM.DIHEDRAL>
0

>  <SCORE.SYSTEM.SOLV>
0

>  <SCORE.SYSTEM.norm>
0

>  <SCORE.heavy>
10

>  <SCORE.norm>
-1.4921

>  <RMSD>
2.307

$$$$
ligand
 OpenBabel02271912153D
libRbt.so/2013.1/901 2013/11/27
 10 11  0  0  0  0  0  0  0  0999 V2000
    0.0108  -13.2188   13.0467 N   0  0  0  0  0  0  0  0  0  0  0  0
   -0.5720  -12.2306   13.6904 C   0  0  0  0  0  0  0  0  0  0  0  0
   -0.1112  -10.9267   13.4917 N   0  0  0  0  0  0  0  0  0  0  0  0
    0.9043  -10.6884   12.6651 C   0  0  0  0  0  0  0  0  0  0  0  0
    1.4887  -11.6824   12.0226 C   0  0  0  0  0  0  0  0  0  0  0  0
    1.0743  -12.9235   12.1972 C   0  0  0  0  0  0  0  0  0  0  0  0
    1.6351  -13.8302   11.5977 O   0  0  0  0  0  0  0  0  0  0  0  0
    2.4629  -11.1887   11.2604 N   0  0  0  0  0  0  0  0  0  0  0  0
    2.4687   -9.8719   11.4350 C   0  0  0  0  0  0  0  0  0  0  0  0
    1.5048   -9.5647   12.3068 N   0  0  0  0  0  0  0  0  0  0  0  0
  1  2  1  0  0  0  0
  1  6  1  0  0  0  0
  2  3  2  0  0  0  0
  3  4  1  0  0  0  0
  4  5  2  0  0  0  0
  4 10  1  0  0  0  0
  5  6  1  0  0  0  0
  5  8  1  0  0  0  0
  6  7  2  0  0  0  0
  8  9  1  0  0  0  0
  9 10  2  0  0  0  0
M  END
>  <CHROM.1>
1.09597449,-11.65610979,12.35737634,2.21142921,-0.69933447,-3.00093895

>  <Name>
ligand

>  <RI>
0

>  <Rbt.Current_Directory>
/home/itssahil/PROJECTS/Mol_Feturizer/Test_systems_manuscript/rnas/5c7w

>  <Rbt.Executable>
rbdock ($Id: //depot/dev/client3/rdock/2013.1/src/exe/rbdock.cxx#4 $)

>  <Rbt.Library>
libRbt.so (2013.1, Build901 2013/11/27)

>  <Rbt.Parameter_File>
/export/apps/rDock/src/rDock_2013.1_src/data/scripts/dock_solv.prm

>  <Rbt.Receptor>
prm/pocket_docking_6.prm

>  <SCORE>
-14.9209

>  <SCORE.INTER>
-14.9209

>  <SCORE.INTER.CONST>
1

>  <SCORE.INTER.POLAR>
0

>  <SCORE.INTER.ROT>
0

>  <SCORE.INTER.SOLV>
3.19513

>  <SCORE.INTER.VDW>
-14.6123

>  <SCORE.INTER.norm>
-1.49209

>  <SCORE.INTRA>
0

>  <SCORE.INTRA.DIHEDRAL>
0

>  <SCORE.INTRA.DIHEDRAL.0>
0

>  <SCORE.INTRA.POLAR>
0

>  <SCORE.INTRA.POLAR.0>
0

>  <SCORE.INTRA.REPUL>
0

>  <SCORE.INTRA.REPUL.0>
0

>  <SCORE.INTRA.SOLV>
0

>  <SCORE.INTRA.SOLV.lig_0>
-4.15853

>  <SCORE.INTRA.VDW>
0

>  <SCORE.INTRA.VDW.0>
0

>  <SCORE.INTRA.norm>
0

>  <SCORE.RESTR>
0

>  <SCORE.RESTR.CAVITY>
0

>  <SCORE.RESTR.norm>
0

>  <SCORE.SYSTEM>
0

>  <SCORE.SYSTEM.CONST>
0

>  <SCORE.SYSTEM.DIHEDRAL>
0

>  <SCORE.SYSTEM.SOLV>
0

>  <SCORE.SYSTEM.norm>
0

>  <SCORE.heavy>
10

>  <SCORE.norm>
-1.49209

>  <RMSD>
2.307

$$$$
ligand
 OpenBabel02271912153D
libRbt.so/2013.1/901 2013/11/27
 10 11  0  0  0  0  0  0  0  0999 V2000
    0.0092  -13.2135   13.0437 N   0  0  0  0  0  0  0  0  0  0  0  0
   -0.5743  -12.2233   13.6838 C   0  0  0  0  0  0  0  0  0  0  0  0
   -0.1091  -10.9208   13.4864 N   0  0  0  0  0  0  0  0  0  0  0  0
    0.9110  -10.6856   12.6647 C   0  0  0  0  0  0  0  0  0  0  0  0
    1.4960  -11.6815   12.0258 C   0  0  0  0  0  0  0  0  0  0  0  0
    1.0776  -12.9215   12.1992 C   0  0  0  0  0  0  0  0  0  0  0  0
    1.6391  -13.8300   11.6031 O   0  0  0  0  0  0  0  0  0  0  0  0
    2.4753  -11.1909   11.2681 N   0  0  0  0  0  0  0  0  0  0  0  0
    2.4835   -9.8740   11.4417 C   0  0  0  0  0  0  0  0  0  0  0  0
    1.5161   -9.5637   12.3085 N   0  0  0  0  0  0  0  0  0  0  0  0
  1  2  1  0  0  0  0
  1  6  1  0  0  0  0
  2  3  2  0  0  0  0
  3  4  1  0  0  0  0
  4  5  2  0  0  0  0
  4 10  1  0  0  0  0
  5  6  1  0  0  0  0
  5  8  1  0  0  0  0
  6  7  2  0  0  0  0
  8  9  1  0  0  0  0
  9 10  2  0  0  0  0
M  END
>  <CHROM.1>
1.10172963,-11.65402441,12.35858746,2.21381021,-0.69411301,-3.00011446

>  <Name>
ligand

>  <RI>
0

>  <Rbt.Current_Directory>
/home/itssahil/PROJECTS/Mol_Feturizer/Test_systems_manuscript/rnas/5c7w

>  <Rbt.Executable>
rbdock ($Id: //depot/dev/client3/rdock/2013.1/src/exe/rbdock.cxx#4 $)

>  <Rbt.Library>
libRbt.so (2013.1, Build901 2013/11/27)

>  <Rbt.Parameter_File>
/export/apps/rDock/src/rDock_2013.1_src/data/scripts/dock_solv.prm

>  <Rbt.Receptor>
prm/pocket_docking_7.prm

>  <SCORE>
-14.9217

>  <SCORE.INTER>
-14.9217

>  <SCORE.INTER.CONST>
1

>  <SCORE.INTER.POLAR>
0

>  <SCORE.INTER.ROT>
0

>  <SCORE.INTER.SOLV>
3.18199

>  <SCORE.INTER.VDW>
-14.6085

>  <SCORE.INTER.norm>
-1.49217

>  <SCORE.INTRA>
0

>  <SCORE.INTRA.DIHEDRAL>
0

>  <SCORE.INTRA.DIHEDRAL.0>
0

>  <SCORE.INTRA.POLAR>
0

>  <SCORE.INTRA.POLAR.0>
0

>  <SCORE.INTRA.REPUL>
0

>  <SCORE.INTRA.REPUL.0>
0

>  <SCORE.INTRA.SOLV>
0

>  <SCORE.INTRA.SOLV.lig_0>
-4.15853

>  <SCORE.INTRA.VDW>
0

>  <SCORE.INTRA.VDW.0>
0

>  <SCORE.INTRA.norm>
0

>  <SCORE.RESTR>
0

>  <SCORE.RESTR.CAVITY>
0

>  <SCORE.RESTR.norm>
0

>  <SCORE.SYSTEM>
0

>  <SCORE.SYSTEM.CONST>
0

>  <SCORE.SYSTEM.DIHEDRAL>
0

>  <SCORE.SYSTEM.SOLV>
0

>  <SCORE.SYSTEM.norm>
0

>  <SCORE.heavy>
10

>  <SCORE.norm>
-1.49217

>  <RMSD>
2.307

$$$$
ligand
 OpenBabel02271912153D
libRbt.so/2013.1/901 2013/11/27
 10 11  0  0  0  0  0  0  0  0999 V2000
   -0.0005  -13.2134   13.0460 N   0  0  0  0  0  0  0  0  0  0  0  0
   -0.5808  -12.2201   13.6842 C   0  0  0  0  0  0  0  0  0  0  0  0
   -0.1141  -10.9190   13.4812 N   0  0  0  0  0  0  0  0  0  0  0  0
    0.9044  -10.6882   12.6563 C   0  0  0  0  0  0  0  0  0  0  0  0
    1.4862  -11.6873   12.0193 C   0  0  0  0  0  0  0  0  0  0  0  0
    1.0663  -12.9260   12.1979 C   0  0  0  0  0  0  0  0  0  0  0  0
    1.6249  -13.8374   11.6036 O   0  0  0  0  0  0  0  0  0  0  0  0
    2.4644  -11.2008   11.2575 N   0  0  0  0  0  0  0  0  0  0  0  0
    2.4751   -9.8833   11.4266 C   0  0  0  0  0  0  0  0  0  0  0  0
    1.5104   -9.5685   12.2948 N   0  0  0  0  0  0  0  0  0  0  0  0
  1  2  1  0  0  0  0
  1  6  1  0  0  0  0
  2  3  2  0  0  0  0
  3  4  1  0  0  0  0
  4  5  2  0  0  0  0
  4 10  1  0  0  0  0
  5  6  1  0  0  0  0
  5  8  1  0  0  0  0
  6  7  2  0  0  0  0
  8  9  1  0  0  0  0
  9 10  2  0  0  0  0
M  END
>  <CHROM.1>
1.09281786,-11.65800997,12.35296162,2.21627883,-0.69630098,-3.00194505

>  <Name>
ligand

>  <RI>
0

>  <Rbt.Current_Directory>
/home/itssahil/PROJECTS/Mol_Feturizer/Test_systems_manuscript/rnas/5c7w

>  <Rbt.Executable>
rbdock ($Id: //depot/dev/client3/rdock/2013.1/src/exe/rbdock.cxx#4 $)

>  <Rbt.Library>
libRbt.so (2013.1, Build901 2013/11/27)

>  <Rbt.Parameter_File>
/export/apps/rDock/src/rDock_2013.1_src/data/scripts/dock_solv.prm

>  <Rbt.Receptor>
prm/pocket_docking_8.prm

>  <SCORE>
-14.9178

>  <SCORE.INTER>
-14.9178

>  <SCORE.INTER.CONST>
1

>  <SCORE.INTER.POLAR>
0

>  <SCORE.INTER.ROT>
0

>  <SCORE.INTER.SOLV>
3.18498

>  <SCORE.INTER.VDW>
-14.6069

>  <SCORE.INTER.norm>
-1.49178

>  <SCORE.INTRA>
0

>  <SCORE.INTRA.DIHEDRAL>
0

>  <SCORE.INTRA.DIHEDRAL.0>
0

>  <SCORE.INTRA.POLAR>
0

>  <SCORE.INTRA.POLAR.0>
0

>  <SCORE.INTRA.REPUL>
0

>  <SCORE.INTRA.REPUL.0>
0

>  <SCORE.INTRA.SOLV>
0

>  <SCORE.INTRA.SOLV.lig_0>
-4.15853

>  <SCORE.INTRA.VDW>
0

>  <SCORE.INTRA.VDW.0>
0

>  <SCORE.INTRA.norm>
0

>  <SCORE.RESTR>
0

>  <SCORE.RESTR.CAVITY>
0

>  <SCORE.RESTR.norm>
0

>  <SCORE.SYSTEM>
0

>  <SCORE.SYSTEM.CONST>
0

>  <SCORE.SYSTEM.DIHEDRAL>
0

>  <SCORE.SYSTEM.SOLV>
0

>  <SCORE.SYSTEM.norm>
0

>  <SCORE.heavy>
10

>  <SCORE.norm>
-1.49178

>  <RMSD>
2.307

$$$$
ligand
 OpenBabel02271912153D
libRbt.so/2013.1/901 2013/11/27
 10 11  0  0  0  0  0  0  0  0999 V2000
    0.0090  -13.2177   13.0475 N   0  0  0  0  0  0  0  0  0  0  0  0
   -0.5692  -12.2274   13.6922 C   0  0  0  0  0  0  0  0  0  0  0  0
   -0.1035  -10.9253   13.4935 N   0  0  0  0  0  0  0  0  0  0  0  0
    0.9120  -10.6906   12.6659 C   0  0  0  0  0  0  0  0  0  0  0  0
    1.4917  -11.6866   12.0223 C   0  0  0  0  0  0  0  0  0  0  0  0
    1.0727  -12.9262   12.1969 C   0  0  0  0  0  0  0  0  0  0  0  0
    1.6292  -13.8348   11.5964 O   0  0  0  0  0  0  0  0  0  0  0  0
    2.4670  -11.1965   11.2592 N   0  0  0  0  0  0  0  0  0  0  0  0
    2.4781   -9.8798   11.4342 C   0  0  0  0  0  0  0  0  0  0  0  0
    1.5164   -9.5691   12.3072 N   0  0  0  0  0  0  0  0  0  0  0  0
  1  2  1  0  0  0  0
  1  6  1  0  0  0  0
  2  3  2  0  0  0  0
  3  4  1  0  0  0  0
  4  5  2  0  0  0  0
  4 10  1  0  0  0  0
  5  6  1  0  0  0  0
  5  8  1  0  0  0  0
  6  7  2  0  0  0  0
  8  9  1  0  0  0  0
  9 10  2  0  0  0  0
M  END
>  <CHROM.1>
1.09947570,-11.65897653,12.35751111,2.21669173,-0.69993458,-2.99716814

>  <Name>
ligand

>  <RI>
0

>  <Rbt.Current_Directory>
/home/itssahil/PROJECTS/Mol_Feturizer/Test_systems_manuscript/rnas/5c7w

>  <Rbt.Executable>
rbdock ($Id: //depot/dev/client3/rdock/2013.1/src/exe/rbdock.cxx#4 $)

>  <Rbt.Library>
libRbt.so (2013.1, Build901 2013/11/27)

>  <Rbt.Parameter_File>
/export/apps/rDock/src/rDock_2013.1_src/data/scripts/dock_solv.prm

>  <Rbt.Receptor>
prm/pocket_docking_8.prm

>  <SCORE>
-14.9221

>  <SCORE.INTER>
-14.9221

>  <SCORE.INTER.CONST>
1

>  <SCORE.INTER.POLAR>
0

>  <SCORE.INTER.ROT>
0

>  <SCORE.INTER.SOLV>
3.19286

>  <SCORE.INTER.VDW>
-14.6123

>  <SCORE.INTER.norm>
-1.49221

>  <SCORE.INTRA>
0

>  <SCORE.INTRA.DIHEDRAL>
0

>  <SCORE.INTRA.DIHEDRAL.0>
0

>  <SCORE.INTRA.POLAR>
0

>  <SCORE.INTRA.POLAR.0>
0

>  <SCORE.INTRA.REPUL>
0

>  <SCORE.INTRA.REPUL.0>
0

>  <SCORE.INTRA.SOLV>
0

>  <SCORE.INTRA.SOLV.lig_0>
-4.15853

>  <SCORE.INTRA.VDW>
0

>  <SCORE.INTRA.VDW.0>
0

>  <SCORE.INTRA.norm>
0

>  <SCORE.RESTR>
0

>  <SCORE.RESTR.CAVITY>
0

>  <SCORE.RESTR.norm>
0

>  <SCORE.SYSTEM>
0

>  <SCORE.SYSTEM.CONST>
0

>  <SCORE.SYSTEM.DIHEDRAL>
0

>  <SCORE.SYSTEM.SOLV>
0

>  <SCORE.SYSTEM.norm>
0

>  <SCORE.heavy>
10

>  <SCORE.norm>
-1.49221

>  <RMSD>
2.307

$$$$
ligand
 OpenBabel02271912153D
libRbt.so/2013.1/901 2013/11/27
 10 11  0  0  0  0  0  0  0  0999 V2000
    0.0112  -13.2568   13.0360 N   0  0  0  0  0  0  0  0  0  0  0  0
   -0.5697  -12.2720   13.6866 C   0  0  0  0  0  0  0  0  0  0  0  0
   -0.1114  -10.9668   13.4912 N   0  0  0  0  0  0  0  0  0  0  0  0
    0.9000  -10.7237   12.6609 C   0  0  0  0  0  0  0  0  0  0  0  0
    1.4824  -11.7143   12.0114 C   0  0  0  0  0  0  0  0  0  0  0  0
    1.0704  -12.9567   12.1827 C   0  0  0  0  0  0  0  0  0  0  0  0
    1.6294  -13.8602   11.5768 O   0  0  0  0  0  0  0  0  0  0  0  0
    2.4525  -11.2163   11.2467 N   0  0  0  0  0  0  0  0  0  0  0  0
    2.4575   -9.9002   11.4267 C   0  0  0  0  0  0  0  0  0  0  0  0
    1.4974   -9.5978   12.3044 N   0  0  0  0  0  0  0  0  0  0  0  0
  1  2  1  0  0  0  0
  1  6  1  0  0  0  0
  2  3  2  0  0  0  0
  3  4  1  0  0  0  0
  4  5  2  0  0  0  0
  4 10  1  0  0  0  0
  5  6  1  0  0  0  0
  5  8  1  0  0  0  0
  6  7  2  0  0  0  0
  8  9  1  0  0  0  0
  9 10  2  0  0  0  0
M  END
>  <CHROM.1>
1.09127411,-11.68994737,12.34813139,2.21076416,-0.70418186,-2.99717270

>  <Name>
ligand

>  <RI>
0

>  <Rbt.Current_Directory>
/home/itssahil/PROJECTS/Mol_Feturizer/Test_systems_manuscript/rnas/5c7w

>  <Rbt.Executable>
rbdock ($Id: //depot/dev/client3/rdock/2013.1/src/exe/rbdock.cxx#4 $)

>  <Rbt.Library>
libRbt.so (2013.1, Build901 2013/11/27)

>  <Rbt.Parameter_File>
/export/apps/rDock/src/rDock_2013.1_src/data/scripts/dock_solv.prm

>  <Rbt.Receptor>
prm/pocket_docking_8.prm

>  <SCORE>
-14.8767

>  <SCORE.INTER>
-14.8767

>  <SCORE.INTER.CONST>
1

>  <SCORE.INTER.POLAR>
0

>  <SCORE.INTER.ROT>
0

>  <SCORE.INTER.SOLV>
3.22007

>  <SCORE.INTER.VDW>
-14.5912

>  <SCORE.INTER.norm>
-1.48767

>  <SCORE.INTRA>
0

>  <SCORE.INTRA.DIHEDRAL>
0

>  <SCORE.INTRA.DIHEDRAL.0>
0

>  <SCORE.INTRA.POLAR>
0

>  <SCORE.INTRA.POLAR.0>
0

>  <SCORE.INTRA.REPUL>
0

>  <SCORE.INTRA.REPUL.0>
0

>  <SCORE.INTRA.SOLV>
0

>  <SCORE.INTRA.SOLV.lig_0>
-4.15853

>  <SCORE.INTRA.VDW>
0

>  <SCORE.INTRA.VDW.0>
0

>  <SCORE.INTRA.norm>
0

>  <SCORE.RESTR>
0

>  <SCORE.RESTR.CAVITY>
0

>  <SCORE.RESTR.norm>
0

>  <SCORE.SYSTEM>
0

>  <SCORE.SYSTEM.CONST>
0

>  <SCORE.SYSTEM.DIHEDRAL>
0

>  <SCORE.SYSTEM.SOLV>
0

>  <SCORE.SYSTEM.norm>
0

>  <SCORE.heavy>
10

>  <SCORE.norm>
-1.48767

>  <RMSD>
2.307

$$$$
ligand
 OpenBabel02271912153D
libRbt.so/2013.1/901 2013/11/27
 10 11  0  0  0  0  0  0  0  0999 V2000
    0.0205  -13.2476   12.9543 N   0  0  0  0  0  0  0  0  0  0  0  0
   -0.5480  -12.2796   13.6402 C   0  0  0  0  0  0  0  0  0  0  0  0
   -0.0874  -10.9709   13.4755 N   0  0  0  0  0  0  0  0  0  0  0  0
    0.9136  -10.7079   12.6388 C   0  0  0  0  0  0  0  0  0  0  0  0
    1.4836  -11.6817   11.9540 C   0  0  0  0  0  0  0  0  0  0  0  0
    1.0692  -12.9270   12.0957 C   0  0  0  0  0  0  0  0  0  0  0  0
    1.6167  -13.8149   11.4570 O   0  0  0  0  0  0  0  0  0  0  0  0
    2.4452  -11.1655   11.1906 N   0  0  0  0  0  0  0  0  0  0  0  0
    2.4576   -9.8551   11.4076 C   0  0  0  0  0  0  0  0  0  0  0  0
    1.5105   -9.5744   12.3063 N   0  0  0  0  0  0  0  0  0  0  0  0
  1  2  1  0  0  0  0
  1  6  1  0  0  0  0
  2  3  2  0  0  0  0
  3  4  1  0  0  0  0
  4  5  2  0  0  0  0
  4 10  1  0  0  0  0
  5  6  1  0  0  0  0
  5  8  1  0  0  0  0
  6  7  2  0  0  0  0
  8  9  1  0  0  0  0
  9 10  2  0  0  0  0
M  END
>  <CHROM.1>
1.09712251,-11.66553134,12.29643389,2.21823909,-0.71686394,-2.96405243

>  <Name>
ligand

>  <RI>
0

>  <Rbt.Current_Directory>
/home/itssahil/PROJECTS/Mol_Feturizer/Test_systems_manuscript/rnas/5c7w

>  <Rbt.Executable>
rbdock ($Id: //depot/dev/client3/rdock/2013.1/src/exe/rbdock.cxx#4 $)

>  <Rbt.Library>
libRbt.so (2013.1, Build901 2013/11/27)

>  <Rbt.Parameter_File>
/export/apps/rDock/src/rDock_2013.1_src/data/scripts/dock_solv.prm

>  <Rbt.Receptor>
prm/pocket_docking_8.prm

>  <SCORE>
-14.8412

>  <SCORE.INTER>
-14.8412

>  <SCORE.INTER.CONST>
1

>  <SCORE.INTER.POLAR>
0

>  <SCORE.INTER.ROT>
0

>  <SCORE.INTER.SOLV>
3.27898

>  <SCORE.INTER.VDW>
-14.5871

>  <SCORE.INTER.norm>
-1.48412

>  <SCORE.INTRA>
0

>  <SCORE.INTRA.DIHEDRAL>
0

>  <SCORE.INTRA.DIHEDRAL.0>
0

>  <SCORE.INTRA.POLAR>
0

>  <SCORE.INTRA.POLAR.0>
0

>  <SCORE.INTRA.REPUL>
0

>  <SCORE.INTRA.REPUL.0>
0

>  <SCORE.INTRA.SOLV>
0

>  <SCORE.INTRA.SOLV.lig_0>
-4.15853

>  <SCORE.INTRA.VDW>
0

>  <SCORE.INTRA.VDW.0>
0

>  <SCORE.INTRA.norm>
0

>  <SCORE.RESTR>
0

>  <SCORE.RESTR.CAVITY>
0

>  <SCORE.RESTR.norm>
0

>  <SCORE.SYSTEM>
0

>  <SCORE.SYSTEM.CONST>
0

>  <SCORE.SYSTEM.DIHEDRAL>
0

>  <SCORE.SYSTEM.SOLV>
0

>  <SCORE.SYSTEM.norm>
0

>  <SCORE.heavy>
10

>  <SCORE.norm>
-1.48412

>  <RMSD>
2.307

$$$$
ligand
 OpenBabel02271912153D
libRbt.so/2013.1/901 2013/11/27
 10 11  0  0  0  0  0  0  0  0999 V2000
    0.0142  -13.2314   13.0432 N   0  0  0  0  0  0  0  0  0  0  0  0
   -0.5655  -12.2434   13.6901 C   0  0  0  0  0  0  0  0  0  0  0  0
   -0.1019  -10.9401   13.4940 N   0  0  0  0  0  0  0  0  0  0  0  0
    0.9131  -10.7021   12.6668 C   0  0  0  0  0  0  0  0  0  0  0  0
    1.4943  -11.6958   12.0210 C   0  0  0  0  0  0  0  0  0  0  0  0
    1.0773  -12.9364   12.1930 C   0  0  0  0  0  0  0  0  0  0  0  0
    1.6352  -13.8429   11.5905 O   0  0  0  0  0  0  0  0  0  0  0  0
    2.4687  -11.2025   11.2588 N   0  0  0  0  0  0  0  0  0  0  0  0
    2.4778   -9.8862   11.4366 C   0  0  0  0  0  0  0  0  0  0  0  0
    1.5158   -9.5789   12.3105 N   0  0  0  0  0  0  0  0  0  0  0  0
  1  2  1  0  0  0  0
  1  6  1  0  0  0  0
  2  3  2  0  0  0  0
  3  4  1  0  0  0  0
  4  5  2  0  0  0  0
  4 10  1  0  0  0  0
  5  6  1  0  0  0  0
  5  8  1  0  0  0  0
  6  7  2  0  0  0  0
  8  9  1  0  0  0  0
  9 10  2  0  0  0  0
M  END
>  <CHROM.1>
1.10210090,-11.66947014,12.35634228,2.21469560,-0.70029121,-2.99631626

>  <Name>
ligand

>  <RI>
0

>  <Rbt.Current_Directory>
/home/itssahil/PROJECTS/Mol_Feturizer/Test_systems_manuscript/rnas/5c7w

>  <Rbt.Executable>
rbdock ($Id: //depot/dev/client3/rdock/2013.1/src/exe/rbdock.cxx#4 $)

>  <Rbt.Library>
libRbt.so (2013.1, Build901 2013/11/27)

>  <Rbt.Parameter_File>
/export/apps/rDock/src/rDock_2013.1_src/data/scripts/dock_solv.prm

>  <Rbt.Receptor>
prm/blind_docking_100.prm

>  <SCORE>
-14.9211

>  <SCORE.INTER>
-14.9211

>  <SCORE.INTER.CONST>
1

>  <SCORE.INTER.POLAR>
0

>  <SCORE.INTER.ROT>
0

>  <SCORE.INTER.SOLV>
3.20023

>  <SCORE.INTER.VDW>
-14.6142

>  <SCORE.INTER.norm>
-1.49211

>  <SCORE.INTRA>
0

>  <SCORE.INTRA.DIHEDRAL>
0

>  <SCORE.INTRA.DIHEDRAL.0>
0

>  <SCORE.INTRA.POLAR>
0

>  <SCORE.INTRA.POLAR.0>
0

>  <SCORE.INTRA.REPUL>
0

>  <SCORE.INTRA.REPUL.0>
0

>  <SCORE.INTRA.SOLV>
0

>  <SCORE.INTRA.SOLV.lig_0>
-4.15853

>  <SCORE.INTRA.VDW>
0

>  <SCORE.INTRA.VDW.0>
0

>  <SCORE.INTRA.norm>
0

>  <SCORE.RESTR>
0

>  <SCORE.RESTR.CAVITY>
0

>  <SCORE.RESTR.norm>
0

>  <SCORE.SYSTEM>
0

>  <SCORE.SYSTEM.CONST>
0

>  <SCORE.SYSTEM.DIHEDRAL>
0

>  <SCORE.SYSTEM.SOLV>
0

>  <SCORE.SYSTEM.norm>
0

>  <SCORE.heavy>
10

>  <SCORE.norm>
-1.49211

>  <RMSD>
2.308

$$$$
ligand
 OpenBabel02271912153D
libRbt.so/2013.1/901 2013/11/27
 10 11  0  0  0  0  0  0  0  0999 V2000
    0.0143  -13.2225   13.0504 N   0  0  0  0  0  0  0  0  0  0  0  0
   -0.5610  -12.2324   13.6981 C   0  0  0  0  0  0  0  0  0  0  0  0
   -0.0969  -10.9301   13.4968 N   0  0  0  0  0  0  0  0  0  0  0  0
    0.9142  -10.6950   12.6639 C   0  0  0  0  0  0  0  0  0  0  0  0
    1.4910  -11.6908   12.0174 C   0  0  0  0  0  0  0  0  0  0  0  0
    1.0734  -12.9306   12.1943 C   0  0  0  0  0  0  0  0  0  0  0  0
    1.6273  -13.8390   11.5910 O   0  0  0  0  0  0  0  0  0  0  0  0
    2.4621  -11.2003   11.2492 N   0  0  0  0  0  0  0  0  0  0  0  0
    2.4735   -9.8836   11.4241 C   0  0  0  0  0  0  0  0  0  0  0  0
    1.5162   -9.5733   12.3021 N   0  0  0  0  0  0  0  0  0  0  0  0
  1  2  1  0  0  0  0
  1  6  1  0  0  0  0
  2  3  2  0  0  0  0
  3  4  1  0  0  0  0
  4  5  2  0  0  0  0
  4 10  1  0  0  0  0
  5  6  1  0  0  0  0
  5  8  1  0  0  0  0
  6  7  2  0  0  0  0
  8  9  1  0  0  0  0
  9 10  2  0  0  0  0
M  END
>  <CHROM.1>
1.10048822,-11.66330301,12.35465938,2.21708904,-0.70511854,-2.99698509

>  <Name>
ligand

>  <RI>
0

>  <Rbt.Current_Directory>
/home/itssahil/PROJECTS/Mol_Feturizer/Test_systems_manuscript/rnas/5c7w

>  <Rbt.Executable>
rbdock ($Id: //depot/dev/client3/rdock/2013.1/src/exe/rbdock.cxx#4 $)

>  <Rbt.Library>
libRbt.so (2013.1, Build901 2013/11/27)

>  <Rbt.Parameter_File>
/export/apps/rDock/src/rDock_2013.1_src/data/scripts/dock_solv.prm

>  <Rbt.Receptor>
prm/blind_docking_100.prm

>  <SCORE>
-14.9218

>  <SCORE.INTER>
-14.9218

>  <SCORE.INTER.CONST>
1

>  <SCORE.INTER.POLAR>
0

>  <SCORE.INTER.ROT>
0

>  <SCORE.INTER.SOLV>
3.20489

>  <SCORE.INTER.VDW>
-14.6161

>  <SCORE.INTER.norm>
-1.49218

>  <SCORE.INTRA>
0

>  <SCORE.INTRA.DIHEDRAL>
0

>  <SCORE.INTRA.DIHEDRAL.0>
0

>  <SCORE.INTRA.POLAR>
0

>  <SCORE.INTRA.POLAR.0>
0

>  <SCORE.INTRA.REPUL>
0

>  <SCORE.INTRA.REPUL.0>
0

>  <SCORE.INTRA.SOLV>
0

>  <SCORE.INTRA.SOLV.lig_0>
-4.15853

>  <SCORE.INTRA.VDW>
0

>  <SCORE.INTRA.VDW.0>
0

>  <SCORE.INTRA.norm>
0

>  <SCORE.RESTR>
0

>  <SCORE.RESTR.CAVITY>
0

>  <SCORE.RESTR.norm>
0

>  <SCORE.SYSTEM>
0

>  <SCORE.SYSTEM.CONST>
0

>  <SCORE.SYSTEM.DIHEDRAL>
0

>  <SCORE.SYSTEM.SOLV>
0

>  <SCORE.SYSTEM.norm>
0

>  <SCORE.heavy>
10

>  <SCORE.norm>
-1.49218

>  <RMSD>
2.308

$$$$
ligand
 OpenBabel02271912153D
libRbt.so/2013.1/901 2013/11/27
 10 11  0  0  0  0  0  0  0  0999 V2000
    0.0312  -13.2598   12.9630 N   0  0  0  0  0  0  0  0  0  0  0  0
   -0.5368  -12.2939   13.6522 C   0  0  0  0  0  0  0  0  0  0  0  0
   -0.0783  -10.9843   13.4888 N   0  0  0  0  0  0  0  0  0  0  0  0
    0.9201  -10.7183   12.6500 C   0  0  0  0  0  0  0  0  0  0  0  0
    1.4896  -11.6901   11.9617 C   0  0  0  0  0  0  0  0  0  0  0  0
    1.0772  -12.9362   12.1021 C   0  0  0  0  0  0  0  0  0  0  0  0
    1.6242  -13.8221   11.4603 O   0  0  0  0  0  0  0  0  0  0  0  0
    2.4485  -11.1712   11.1968 N   0  0  0  0  0  0  0  0  0  0  0  0
    2.4597   -9.8612   11.4163 C   0  0  0  0  0  0  0  0  0  0  0  0
    1.5146   -9.5834   12.3180 N   0  0  0  0  0  0  0  0  0  0  0  0
  1  2  1  0  0  0  0
  1  6  1  0  0  0  0
  2  3  2  0  0  0  0
  3  4  1  0  0  0  0
  4  5  2  0  0  0  0
  4 10  1  0  0  0  0
  5  6  1  0  0  0  0
  5  8  1  0  0  0  0
  6  7  2  0  0  0  0
  8  9  1  0  0  0  0
  9 10  2  0  0  0  0
M  END
>  <CHROM.1>
1.10397922,-11.67507684,12.30524812,2.21714259,-0.71971278,-2.96284932

>  <Name>
ligand

>  <RI>
0

>  <Rbt.Current_Directory>
/home/itssahil/PROJECTS/Mol_Feturizer/Test_systems_manuscript/rnas/5c7w

>  <Rbt.Executable>
rbdock ($Id: //depot/dev/client3/rdock/2013.1/src/exe/rbdock.cxx#4 $)

>  <Rbt.Library>
libRbt.so (2013.1, Build901 2013/11/27)

>  <Rbt.Parameter_File>
/export/apps/rDock/src/rDock_2013.1_src/data/scripts/dock_solv.prm

>  <Rbt.Receptor>
prm/blind_docking_100.prm

>  <SCORE>
-14.8454

>  <SCORE.INTER>
-14.8454

>  <SCORE.INTER.CONST>
1

>  <SCORE.INTER.POLAR>
0

>  <SCORE.INTER.ROT>
0

>  <SCORE.INTER.SOLV>
3.28442

>  <SCORE.INTER.VDW>
-14.5918

>  <SCORE.INTER.norm>
-1.48454

>  <SCORE.INTRA>
0

>  <SCORE.INTRA.DIHEDRAL>
0

>  <SCORE.INTRA.DIHEDRAL.0>
0

>  <SCORE.INTRA.POLAR>
0

>  <SCORE.INTRA.POLAR.0>
0

>  <SCORE.INTRA.REPUL>
0

>  <SCORE.INTRA.REPUL.0>
0

>  <SCORE.INTRA.SOLV>
0

>  <SCORE.INTRA.SOLV.lig_0>
-4.15853

>  <SCORE.INTRA.VDW>
0

>  <SCORE.INTRA.VDW.0>
0

>  <SCORE.INTRA.norm>
0

>  <SCORE.RESTR>
0

>  <SCORE.RESTR.CAVITY>
0

>  <SCORE.RESTR.norm>
0

>  <SCORE.SYSTEM>
0

>  <SCORE.SYSTEM.CONST>
0

>  <SCORE.SYSTEM.DIHEDRAL>
0

>  <SCORE.SYSTEM.SOLV>
0

>  <SCORE.SYSTEM.norm>
0

>  <SCORE.heavy>
10

>  <SCORE.norm>
-1.48454

>  <RMSD>
2.308

$$$$
ligand
 OpenBabel02271912153D
libRbt.so/2013.1/901 2013/11/27
 10 11  0  0  0  0  0  0  0  0999 V2000
    0.0131  -13.1866   13.0057 N   0  0  0  0  0  0  0  0  0  0  0  0
   -0.5757  -12.2238   13.6817 C   0  0  0  0  0  0  0  0  0  0  0  0
   -0.1056  -10.9151   13.5467 N   0  0  0  0  0  0  0  0  0  0  0  0
    0.9244  -10.6469   12.7477 C   0  0  0  0  0  0  0  0  0  0  0  0
    1.5146  -11.6155   12.0726 C   0  0  0  0  0  0  0  0  0  0  0  0
    1.0917  -12.8608   12.1870 C   0  0  0  0  0  0  0  0  0  0  0  0
    1.6581  -13.7439   11.5583 O   0  0  0  0  0  0  0  0  0  0  0  0
    2.5035  -11.0948   11.3482 N   0  0  0  0  0  0  0  0  0  0  0  0
    2.5125   -9.7868   11.5792 C   0  0  0  0  0  0  0  0  0  0  0  0
    1.5358   -9.5121   12.4477 N   0  0  0  0  0  0  0  0  0  0  0  0
  1  2  1  0  0  0  0
  1  6  1  0  0  0  0
  2  3  2  0  0  0  0
  3  4  1  0  0  0  0
  4  5  2  0  0  0  0
  4 10  1  0  0  0  0
  5  6  1  0  0  0  0
  5  8  1  0  0  0  0
  6  7  2  0  0  0  0
  8  9  1  0  0  0  0
  9 10  2  0  0  0  0
M  END
>  <CHROM.1>
1.11659886,-11.60157210,12.40179515,2.21433348,-0.68245175,-2.95615867

>  <Name>
ligand

>  <RI>
0

>  <Rbt.Current_Directory>
/home/itssahil/PROJECTS/Mol_Feturizer/Test_systems_manuscript/rnas/5c7w

>  <Rbt.Executable>
rbdock ($Id: //depot/dev/client3/rdock/2013.1/src/exe/rbdock.cxx#4 $)

>  <Rbt.Library>
libRbt.so (2013.1, Build901 2013/11/27)

>  <Rbt.Parameter_File>
/export/apps/rDock/src/rDock_2013.1_src/data/scripts/dock_solv.prm

>  <Rbt.Receptor>
prm/blind_docking_100.prm

>  <SCORE>
-14.9122

>  <SCORE.INTER>
-14.9122

>  <SCORE.INTER.CONST>
1

>  <SCORE.INTER.POLAR>
0

>  <SCORE.INTER.ROT>
0

>  <SCORE.INTER.SOLV>
3.18632

>  <SCORE.INTER.VDW>
-14.6036

>  <SCORE.INTER.norm>
-1.49122

>  <SCORE.INTRA>
0

>  <SCORE.INTRA.DIHEDRAL>
0

>  <SCORE.INTRA.DIHEDRAL.0>
0

>  <SCORE.INTRA.POLAR>
0

>  <SCORE.INTRA.POLAR.0>
0

>  <SCORE.INTRA.REPUL>
0

>  <SCORE.INTRA.REPUL.0>
0

>  <SCORE.INTRA.SOLV>
0

>  <SCORE.INTRA.SOLV.lig_0>
-4.15853

>  <SCORE.INTRA.VDW>
0

>  <SCORE.INTRA.VDW.0>
0

>  <SCORE.INTRA.norm>
0

>  <SCORE.RESTR>
0

>  <SCORE.RESTR.CAVITY>
0

>  <SCORE.RESTR.norm>
0

>  <SCORE.SYSTEM>
0

>  <SCORE.SYSTEM.CONST>
0

>  <SCORE.SYSTEM.DIHEDRAL>
0

>  <SCORE.SYSTEM.SOLV>
0

>  <SCORE.SYSTEM.norm>
0

>  <SCORE.heavy>
10

>  <SCORE.norm>
-1.49122

>  <RMSD>
2.308

$$$$
ligand
 OpenBabel02271912153D
libRbt.so/2013.1/901 2013/11/27
 10 11  0  0  0  0  0  0  0  0999 V2000
    0.0140  -13.2208   13.0437 N   0  0  0  0  0  0  0  0  0  0  0  0
   -0.5660  -12.2312   13.6878 C   0  0  0  0  0  0  0  0  0  0  0  0
   -0.0997  -10.9289   13.4917 N   0  0  0  0  0  0  0  0  0  0  0  0
    0.9181  -10.6933   12.6672 C   0  0  0  0  0  0  0  0  0  0  0  0
    1.4996  -11.6887   12.0243 C   0  0  0  0  0  0  0  0  0  0  0  0
    1.0801  -12.9285   12.1964 C   0  0  0  0  0  0  0  0  0  0  0  0
    1.6383  -13.8365   11.5966 O   0  0  0  0  0  0  0  0  0  0  0  0
    2.4771  -11.1978   11.2644 N   0  0  0  0  0  0  0  0  0  0  0  0
    2.4878   -9.8813   11.4409 C   0  0  0  0  0  0  0  0  0  0  0  0
    1.5236   -9.5715   12.3115 N   0  0  0  0  0  0  0  0  0  0  0  0
  1  2  1  0  0  0  0
  1  6  1  0  0  0  0
  2  3  2  0  0  0  0
  3  4  1  0  0  0  0
  4  5  2  0  0  0  0
  4 10  1  0  0  0  0
  5  6  1  0  0  0  0
  5  8  1  0  0  0  0
  6  7  2  0  0  0  0
  8  9  1  0  0  0  0
  9 10  2  0  0  0  0
M  END
>  <CHROM.1>
1.10647143,-11.66138669,12.35839465,2.21620549,-0.69709371,-2.99643530

>  <Name>
ligand

>  <RI>
0

>  <Rbt.Current_Directory>
/home/itssahil/PROJECTS/Mol_Feturizer/Test_systems_manuscript/rnas/5c7w

>  <Rbt.Executable>
rbdock ($Id: //depot/dev/client3/rdock/2013.1/src/exe/rbdock.cxx#4 $)

>  <Rbt.Library>
libRbt.so (2013.1, Build901 2013/11/27)

>  <Rbt.Parameter_File>
/export/apps/rDock/src/rDock_2013.1_src/data/scripts/dock_solv.prm

>  <Rbt.Receptor>
prm/blind_docking_20.prm

>  <SCORE>
-14.9223

>  <SCORE.INTER>
-14.9223

>  <SCORE.INTER.CONST>
1

>  <SCORE.INTER.POLAR>
0

>  <SCORE.INTER.ROT>
0

>  <SCORE.INTER.SOLV>
3.18985

>  <SCORE.INTER.VDW>
-14.6115

>  <SCORE.INTER.norm>
-1.49223

>  <SCORE.INTRA>
0

>  <SCORE.INTRA.DIHEDRAL>
0

>  <SCORE.INTRA.DIHEDRAL.0>
0

>  <SCORE.INTRA.POLAR>
0

>  <SCORE.INTRA.POLAR.0>
0

>  <SCORE.INTRA.REPUL>
0

>  <SCORE.INTRA.REPUL.0>
0

>  <SCORE.INTRA.SOLV>
0

>  <SCORE.INTRA.SOLV.lig_0>
-4.15853

>  <SCORE.INTRA.VDW>
0

>  <SCORE.INTRA.VDW.0>
0

>  <SCORE.INTRA.norm>
0

>  <SCORE.RESTR>
0

>  <SCORE.RESTR.CAVITY>
0

>  <SCORE.RESTR.norm>
0

>  <SCORE.SYSTEM>
0

>  <SCORE.SYSTEM.CONST>
0

>  <SCORE.SYSTEM.DIHEDRAL>
0

>  <SCORE.SYSTEM.SOLV>
0

>  <SCORE.SYSTEM.norm>
0

>  <SCORE.heavy>
10

>  <SCORE.norm>
-1.49223

>  <RMSD>
2.308

$$$$
ligand
 OpenBabel02271912153D
libRbt.so/2013.1/901 2013/11/27
 10 11  0  0  0  0  0  0  0  0999 V2000
    0.0202  -13.2256   13.0498 N   0  0  0  0  0  0  0  0  0  0  0  0
   -0.5579  -12.2396   13.7012 C   0  0  0  0  0  0  0  0  0  0  0  0
   -0.0954  -10.9356   13.5073 N   0  0  0  0  0  0  0  0  0  0  0  0
    0.9168  -10.6949   12.6774 C   0  0  0  0  0  0  0  0  0  0  0  0
    1.4964  -11.6866   12.0271 C   0  0  0  0  0  0  0  0  0  0  0  0
    1.0804  -12.9279   12.1971 C   0  0  0  0  0  0  0  0  0  0  0  0
    1.6368  -13.8325   11.5904 O   0  0  0  0  0  0  0  0  0  0  0  0
    2.4682  -11.1909   11.2631 N   0  0  0  0  0  0  0  0  0  0  0  0
    2.4772   -9.8750   11.4445 C   0  0  0  0  0  0  0  0  0  0  0  0
    1.5179   -9.5705   12.3222 N   0  0  0  0  0  0  0  0  0  0  0  0
  1  2  1  0  0  0  0
  1  6  1  0  0  0  0
  2  3  2  0  0  0  0
  3  4  1  0  0  0  0
  4  5  2  0  0  0  0
  4 10  1  0  0  0  0
  5  6  1  0  0  0  0
  5  8  1  0  0  0  0
  6  7  2  0  0  0  0
  8  9  1  0  0  0  0
  9 10  2  0  0  0  0
M  END
>  <CHROM.1>
1.10523275,-11.66137709,12.36375683,2.21475354,-0.70350531,-2.99357393

>  <Name>
ligand

>  <RI>
0

>  <Rbt.Current_Directory>
/home/itssahil/PROJECTS/Mol_Feturizer/Test_systems_manuscript/rnas/5c7w

>  <Rbt.Executable>
rbdock ($Id: //depot/dev/client3/rdock/2013.1/src/exe/rbdock.cxx#4 $)

>  <Rbt.Library>
libRbt.so (2013.1, Build901 2013/11/27)

>  <Rbt.Parameter_File>
/export/apps/rDock/src/rDock_2013.1_src/data/scripts/dock_solv.prm

>  <Rbt.Receptor>
prm/blind_docking_20.prm

>  <SCORE>
-14.9212

>  <SCORE.INTER>
-14.9212

>  <SCORE.INTER.CONST>
1

>  <SCORE.INTER.POLAR>
0

>  <SCORE.INTER.ROT>
0

>  <SCORE.INTER.SOLV>
3.20257

>  <SCORE.INTER.VDW>
-14.615

>  <SCORE.INTER.norm>
-1.49212

>  <SCORE.INTRA>
0

>  <SCORE.INTRA.DIHEDRAL>
0

>  <SCORE.INTRA.DIHEDRAL.0>
0

>  <SCORE.INTRA.POLAR>
0

>  <SCORE.INTRA.POLAR.0>
0

>  <SCORE.INTRA.REPUL>
0

>  <SCORE.INTRA.REPUL.0>
0

>  <SCORE.INTRA.SOLV>
0

>  <SCORE.INTRA.SOLV.lig_0>
-4.15853

>  <SCORE.INTRA.VDW>
0

>  <SCORE.INTRA.VDW.0>
0

>  <SCORE.INTRA.norm>
0

>  <SCORE.RESTR>
0

>  <SCORE.RESTR.CAVITY>
0

>  <SCORE.RESTR.norm>
0

>  <SCORE.SYSTEM>
0

>  <SCORE.SYSTEM.CONST>
0

>  <SCORE.SYSTEM.DIHEDRAL>
0

>  <SCORE.SYSTEM.SOLV>
0

>  <SCORE.SYSTEM.norm>
0

>  <SCORE.heavy>
10

>  <SCORE.norm>
-1.49212

>  <RMSD>
2.308

$$$$
ligand
 OpenBabel02271912153D
libRbt.so/2013.1/901 2013/11/27
 10 11  0  0  0  0  0  0  0  0999 V2000
    0.0188  -13.2394   13.0267 N   0  0  0  0  0  0  0  0  0  0  0  0
   -0.5881  -12.2500   13.6458 C   0  0  0  0  0  0  0  0  0  0  0  0
   -0.1370  -10.9436   13.4411 N   0  0  0  0  0  0  0  0  0  0  0  0
    0.8933  -10.7041   12.6334 C   0  0  0  0  0  0  0  0  0  0  0  0
    1.5018  -11.6993   12.0155 C   0  0  0  0  0  0  0  0  0  0  0  0
    1.0970  -12.9427   12.1963 C   0  0  0  0  0  0  0  0  0  0  0  0
    1.6800  -13.8503   11.6199 O   0  0  0  0  0  0  0  0  0  0  0  0
    2.4867  -11.2042   11.2682 N   0  0  0  0  0  0  0  0  0  0  0  0
    2.4748   -9.8854   11.4268 C   0  0  0  0  0  0  0  0  0  0  0  0
    1.4894   -9.5783   12.2742 N   0  0  0  0  0  0  0  0  0  0  0  0
  1  2  1  0  0  0  0
  1  6  1  0  0  0  0
  2  3  2  0  0  0  0
  3  4  1  0  0  0  0
  4  5  2  0  0  0  0
  4 10  1  0  0  0  0
  5  6  1  0  0  0  0
  5  8  1  0  0  0  0
  6  7  2  0  0  0  0
  8  9  1  0  0  0  0
  9 10  2  0  0  0  0
M  END
>  <CHROM.1>
1.10175270,-11.67332810,12.34153049,2.19407826,-0.67966103,-3.02400751

>  <Name>
ligand

>  <RI>
0

>  <Rbt.Current_Directory>
/home/itssahil/PROJECTS/Mol_Feturizer/Test_systems_manuscript/rnas/5c7w

>  <Rbt.Executable>
rbdock ($Id: //depot/dev/client3/rdock/2013.1/src/exe/rbdock.cxx#4 $)

>  <Rbt.Library>
libRbt.so (2013.1, Build901 2013/11/27)

>  <Rbt.Parameter_File>
/export/apps/rDock/src/rDock_2013.1_src/data/scripts/dock_solv.prm

>  <Rbt.Receptor>
prm/blind_docking_40.prm

>  <SCORE>
-14.9278

>  <SCORE.INTER>
-14.9278

>  <SCORE.INTER.CONST>
1

>  <SCORE.INTER.POLAR>
0

>  <SCORE.INTER.ROT>
0

>  <SCORE.INTER.SOLV>
3.1774

>  <SCORE.INTER.VDW>
-14.611

>  <SCORE.INTER.norm>
-1.49278

>  <SCORE.INTRA>
0

>  <SCORE.INTRA.DIHEDRAL>
0

>  <SCORE.INTRA.DIHEDRAL.0>
0

>  <SCORE.INTRA.POLAR>
0

>  <SCORE.INTRA.POLAR.0>
0

>  <SCORE.INTRA.REPUL>
0

>  <SCORE.INTRA.REPUL.0>
0

>  <SCORE.INTRA.SOLV>
0

>  <SCORE.INTRA.SOLV.lig_0>
-4.15853

>  <SCORE.INTRA.VDW>
0

>  <SCORE.INTRA.VDW.0>
0

>  <SCORE.INTRA.norm>
0

>  <SCORE.RESTR>
0

>  <SCORE.RESTR.CAVITY>
0

>  <SCORE.RESTR.norm>
0

>  <SCORE.SYSTEM>
0

>  <SCORE.SYSTEM.CONST>
0

>  <SCORE.SYSTEM.DIHEDRAL>
0

>  <SCORE.SYSTEM.SOLV>
0

>  <SCORE.SYSTEM.norm>
0

>  <SCORE.heavy>
10

>  <SCORE.norm>
-1.49278

>  <RMSD>
2.308

$$$$
ligand
 OpenBabel02271912153D
libRbt.so/2013.1/901 2013/11/27
 10 11  0  0  0  0  0  0  0  0999 V2000
    0.0167  -13.2152   13.0543 N   0  0  0  0  0  0  0  0  0  0  0  0
   -0.5592  -12.2267   13.7037 C   0  0  0  0  0  0  0  0  0  0  0  0
   -0.0955  -10.9238   13.5052 N   0  0  0  0  0  0  0  0  0  0  0  0
    0.9158  -10.6867   12.6731 C   0  0  0  0  0  0  0  0  0  0  0  0
    1.4932  -11.6811   12.0249 C   0  0  0  0  0  0  0  0  0  0  0  0
    1.0760  -12.9213   12.1991 C   0  0  0  0  0  0  0  0  0  0  0  0
    1.6304  -13.8283   11.5942 O   0  0  0  0  0  0  0  0  0  0  0  0
    2.4644  -11.1887   11.2580 N   0  0  0  0  0  0  0  0  0  0  0  0
    2.4753   -9.8723   11.4355 C   0  0  0  0  0  0  0  0  0  0  0  0
    1.5177   -9.5641   12.3137 N   0  0  0  0  0  0  0  0  0  0  0  0
  1  2  1  0  0  0  0
  1  6  1  0  0  0  0
  2  3  2  0  0  0  0
  3  4  1  0  0  0  0
  4  5  2  0  0  0  0
  4 10  1  0  0  0  0
  5  6  1  0  0  0  0
  5  8  1  0  0  0  0
  6  7  2  0  0  0  0
  8  9  1  0  0  0  0
  9 10  2  0  0  0  0
M  END
>  <CHROM.1>
1.10257465,-11.65435594,12.36201071,2.21659553,-0.70480284,-2.99531381

>  <Name>
ligand

>  <RI>
0

>  <Rbt.Current_Directory>
/home/itssahil/PROJECTS/Mol_Feturizer/Test_systems_manuscript/rnas/5c7w

>  <Rbt.Executable>
rbdock ($Id: //depot/dev/client3/rdock/2013.1/src/exe/rbdock.cxx#4 $)

>  <Rbt.Library>
libRbt.so (2013.1, Build901 2013/11/27)

>  <Rbt.Parameter_File>
/export/apps/rDock/src/rDock_2013.1_src/data/scripts/dock_solv.prm

>  <Rbt.Receptor>
prm/blind_docking_40.prm

>  <SCORE>
-14.9215

>  <SCORE.INTER>
-14.9215

>  <SCORE.INTER.CONST>
1

>  <SCORE.INTER.POLAR>
0

>  <SCORE.INTER.ROT>
0

>  <SCORE.INTER.SOLV>
3.2006

>  <SCORE.INTER.VDW>
-14.6145

>  <SCORE.INTER.norm>
-1.49215

>  <SCORE.INTRA>
0

>  <SCORE.INTRA.DIHEDRAL>
0

>  <SCORE.INTRA.DIHEDRAL.0>
0

>  <SCORE.INTRA.POLAR>
0

>  <SCORE.INTRA.POLAR.0>
0

>  <SCORE.INTRA.REPUL>
0

>  <SCORE.INTRA.REPUL.0>
0

>  <SCORE.INTRA.SOLV>
0

>  <SCORE.INTRA.SOLV.lig_0>
-4.15853

>  <SCORE.INTRA.VDW>
0

>  <SCORE.INTRA.VDW.0>
0

>  <SCORE.INTRA.norm>
0

>  <SCORE.RESTR>
0

>  <SCORE.RESTR.CAVITY>
0

>  <SCORE.RESTR.norm>
0

>  <SCORE.SYSTEM>
0

>  <SCORE.SYSTEM.CONST>
0

>  <SCORE.SYSTEM.DIHEDRAL>
0

>  <SCORE.SYSTEM.SOLV>
0

>  <SCORE.SYSTEM.norm>
0

>  <SCORE.heavy>
10

>  <SCORE.norm>
-1.49215

>  <RMSD>
2.308

$$$$
ligand
 OpenBabel02271912153D
libRbt.so/2013.1/901 2013/11/27
 10 11  0  0  0  0  0  0  0  0999 V2000
    0.0201  -13.2266   13.0500 N   0  0  0  0  0  0  0  0  0  0  0  0
   -0.5583  -12.2386   13.6980 C   0  0  0  0  0  0  0  0  0  0  0  0
   -0.0955  -10.9353   13.5004 N   0  0  0  0  0  0  0  0  0  0  0  0
    0.9175  -10.6972   12.6707 C   0  0  0  0  0  0  0  0  0  0  0  0
    1.4974  -11.6910   12.0239 C   0  0  0  0  0  0  0  0  0  0  0  0
    1.0811  -12.9316   12.1973 C   0  0  0  0  0  0  0  0  0  0  0  0
    1.6379  -13.8381   11.5938 O   0  0  0  0  0  0  0  0  0  0  0  0
    2.4699  -11.1976   11.2593 N   0  0  0  0  0  0  0  0  0  0  0  0
    2.4790   -9.8812   11.4367 C   0  0  0  0  0  0  0  0  0  0  0  0
    1.5189   -9.5739   12.3127 N   0  0  0  0  0  0  0  0  0  0  0  0
  1  2  1  0  0  0  0
  1  6  1  0  0  0  0
  2  3  2  0  0  0  0
  3  4  1  0  0  0  0
  4  5  2  0  0  0  0
  4 10  1  0  0  0  0
  5  6  1  0  0  0  0
  5  8  1  0  0  0  0
  6  7  2  0  0  0  0
  8  9  1  0  0  0  0
  9 10  2  0  0  0  0
M  END
>  <CHROM.1>
1.10597386,-11.66464344,12.36016105,2.21476674,-0.70264001,-2.99658524

>  <Name>
ligand

>  <RI>
0

>  <Rbt.Current_Directory>
/home/itssahil/PROJECTS/Mol_Feturizer/Test_systems_manuscript/rnas/5c7w

>  <Rbt.Executable>
rbdock ($Id: //depot/dev/client3/rdock/2013.1/src/exe/rbdock.cxx#4 $)

>  <Rbt.Library>
libRbt.so (2013.1, Build901 2013/11/27)

>  <Rbt.Parameter_File>
/export/apps/rDock/src/rDock_2013.1_src/data/scripts/dock_solv.prm

>  <Rbt.Receptor>
prm/blind_docking_40.prm

>  <SCORE>
-14.9216

>  <SCORE.INTER>
-14.9216

>  <SCORE.INTER.CONST>
1

>  <SCORE.INTER.POLAR>
0

>  <SCORE.INTER.ROT>
0

>  <SCORE.INTER.SOLV>
3.20167

>  <SCORE.INTER.VDW>
-14.615

>  <SCORE.INTER.norm>
-1.49216

>  <SCORE.INTRA>
0

>  <SCORE.INTRA.DIHEDRAL>
0

>  <SCORE.INTRA.DIHEDRAL.0>
0

>  <SCORE.INTRA.POLAR>
0

>  <SCORE.INTRA.POLAR.0>
0

>  <SCORE.INTRA.REPUL>
0

>  <SCORE.INTRA.REPUL.0>
0

>  <SCORE.INTRA.SOLV>
0

>  <SCORE.INTRA.SOLV.lig_0>
-4.15853

>  <SCORE.INTRA.VDW>
0

>  <SCORE.INTRA.VDW.0>
0

>  <SCORE.INTRA.norm>
0

>  <SCORE.RESTR>
0

>  <SCORE.RESTR.CAVITY>
0

>  <SCORE.RESTR.norm>
0

>  <SCORE.SYSTEM>
0

>  <SCORE.SYSTEM.CONST>
0

>  <SCORE.SYSTEM.DIHEDRAL>
0

>  <SCORE.SYSTEM.SOLV>
0

>  <SCORE.SYSTEM.norm>
0

>  <SCORE.heavy>
10

>  <SCORE.norm>
-1.49216

>  <RMSD>
2.308

$$$$
ligand
 OpenBabel02271912153D
libRbt.so/2013.1/901 2013/11/27
 10 11  0  0  0  0  0  0  0  0999 V2000
    0.0125  -13.2192   13.0483 N   0  0  0  0  0  0  0  0  0  0  0  0
   -0.5651  -12.2297   13.6948 C   0  0  0  0  0  0  0  0  0  0  0  0
   -0.0995  -10.9274   13.4974 N   0  0  0  0  0  0  0  0  0  0  0  0
    0.9153  -10.6916   12.6692 C   0  0  0  0  0  0  0  0  0  0  0  0
    1.4943  -11.6868   12.0238 C   0  0  0  0  0  0  0  0  0  0  0  0
    1.0754  -12.9266   12.1971 C   0  0  0  0  0  0  0  0  0  0  0  0
    1.6313  -13.8345   11.5949 O   0  0  0  0  0  0  0  0  0  0  0  0
    2.4690  -11.1957   11.2604 N   0  0  0  0  0  0  0  0  0  0  0  0
    2.4803   -9.8793   11.4372 C   0  0  0  0  0  0  0  0  0  0  0  0
    1.5195   -9.5697   12.3115 N   0  0  0  0  0  0  0  0  0  0  0  0
  1  2  1  0  0  0  0
  1  6  1  0  0  0  0
  2  3  2  0  0  0  0
  3  4  1  0  0  0  0
  4  5  2  0  0  0  0
  4 10  1  0  0  0  0
  5  6  1  0  0  0  0
  5  8  1  0  0  0  0
  6  7  2  0  0  0  0
  8  9  1  0  0  0  0
  9 10  2  0  0  0  0
M  END
>  <CHROM.1>
1.10241870,-11.65958880,12.35935569,2.21695439,-0.70081227,-2.99566306

>  <Name>
ligand

>  <RI>
0

>  <Rbt.Current_Directory>
/home/itssahil/PROJECTS/Mol_Feturizer/Test_systems_manuscript/rnas/5c7w

>  <Rbt.Executable>
rbdock ($Id: //depot/dev/client3/rdock/2013.1/src/exe/rbdock.cxx#4 $)

>  <Rbt.Library>
libRbt.so (2013.1, Build901 2013/11/27)

>  <Rbt.Parameter_File>
/export/apps/rDock/src/rDock_2013.1_src/data/scripts/dock_solv.prm

>  <Rbt.Receptor>
prm/blind_docking_40.prm

>  <SCORE>
-14.9225

>  <SCORE.INTER>
-14.9225

>  <SCORE.INTER.CONST>
1

>  <SCORE.INTER.POLAR>
0

>  <SCORE.INTER.ROT>
0

>  <SCORE.INTER.SOLV>
3.19461

>  <SCORE.INTER.VDW>
-14.6132

>  <SCORE.INTER.norm>
-1.49225

>  <SCORE.INTRA>
0

>  <SCORE.INTRA.DIHEDRAL>
0

>  <SCORE.INTRA.DIHEDRAL.0>
0

>  <SCORE.INTRA.POLAR>
0

>  <SCORE.INTRA.POLAR.0>
0

>  <SCORE.INTRA.REPUL>
0

>  <SCORE.INTRA.REPUL.0>
0

>  <SCORE.INTRA.SOLV>
0

>  <SCORE.INTRA.SOLV.lig_0>
-4.15853

>  <SCORE.INTRA.VDW>
0

>  <SCORE.INTRA.VDW.0>
0

>  <SCORE.INTRA.norm>
0

>  <SCORE.RESTR>
0

>  <SCORE.RESTR.CAVITY>
0

>  <SCORE.RESTR.norm>
0

>  <SCORE.SYSTEM>
0

>  <SCORE.SYSTEM.CONST>
0

>  <SCORE.SYSTEM.DIHEDRAL>
0

>  <SCORE.SYSTEM.SOLV>
0

>  <SCORE.SYSTEM.norm>
0

>  <SCORE.heavy>
10

>  <SCORE.norm>
-1.49225

>  <RMSD>
2.308

$$$$
ligand
 OpenBabel02271912153D
libRbt.so/2013.1/901 2013/11/27
 10 11  0  0  0  0  0  0  0  0999 V2000
    0.0038  -13.1907   13.0555 N   0  0  0  0  0  0  0  0  0  0  0  0
   -0.5592  -12.1916   13.7002 C   0  0  0  0  0  0  0  0  0  0  0  0
   -0.0782  -10.8959   13.4960 N   0  0  0  0  0  0  0  0  0  0  0  0
    0.9363  -10.6760   12.6632 C   0  0  0  0  0  0  0  0  0  0  0  0
    1.5008  -11.6808   12.0197 C   0  0  0  0  0  0  0  0  0  0  0  0
    1.0672  -12.9146   12.1993 C   0  0  0  0  0  0  0  0  0  0  0  0
    1.6097  -13.8316   11.5988 O   0  0  0  0  0  0  0  0  0  0  0  0
    2.4786  -11.2047   11.2509 N   0  0  0  0  0  0  0  0  0  0  0  0
    2.5068   -9.8878   11.4224 C   0  0  0  0  0  0  0  0  0  0  0  0
    1.5530   -9.5630   12.2990 N   0  0  0  0  0  0  0  0  0  0  0  0
  1  2  1  0  0  0  0
  1  6  1  0  0  0  0
  2  3  2  0  0  0  0
  3  4  1  0  0  0  0
  4  5  2  0  0  0  0
  4 10  1  0  0  0  0
  5  6  1  0  0  0  0
  5  8  1  0  0  0  0
  6  7  2  0  0  0  0
  8  9  1  0  0  0  0
  9 10  2  0  0  0  0
M  END
>  <CHROM.1>
1.11041841,-11.64737542,12.35654679,2.23363856,-0.70252851,-2.98881422

>  <Name>
ligand

>  <RI>
0

>  <Rbt.Current_Directory>
/home/itssahil/PROJECTS/Mol_Feturizer/Test_systems_manuscript/rnas/5c7w

>  <Rbt.Executable>
rbdock ($Id: //depot/dev/client3/rdock/2013.1/src/exe/rbdock.cxx#4 $)

>  <Rbt.Library>
libRbt.so (2013.1, Build901 2013/11/27)

>  <Rbt.Parameter_File>
/export/apps/rDock/src/rDock_2013.1_src/data/scripts/dock_solv.prm

>  <Rbt.Receptor>
prm/blind_docking_80.prm

>  <SCORE>
-14.9144

>  <SCORE.INTER>
-14.9144

>  <SCORE.INTER.CONST>
1

>  <SCORE.INTER.POLAR>
0

>  <SCORE.INTER.ROT>
0

>  <SCORE.INTER.SOLV>
3.18142

>  <SCORE.INTER.VDW>
-14.6034

>  <SCORE.INTER.norm>
-1.49144

>  <SCORE.INTRA>
0

>  <SCORE.INTRA.DIHEDRAL>
0

>  <SCORE.INTRA.DIHEDRAL.0>
0

>  <SCORE.INTRA.POLAR>
0

>  <SCORE.INTRA.POLAR.0>
0

>  <SCORE.INTRA.REPUL>
0

>  <SCORE.INTRA.REPUL.0>
0

>  <SCORE.INTRA.SOLV>
0

>  <SCORE.INTRA.SOLV.lig_0>
-4.15853

>  <SCORE.INTRA.VDW>
0

>  <SCORE.INTRA.VDW.0>
0

>  <SCORE.INTRA.norm>
0

>  <SCORE.RESTR>
0

>  <SCORE.RESTR.CAVITY>
0

>  <SCORE.RESTR.norm>
0

>  <SCORE.SYSTEM>
0

>  <SCORE.SYSTEM.CONST>
0

>  <SCORE.SYSTEM.DIHEDRAL>
0

>  <SCORE.SYSTEM.SOLV>
0

>  <SCORE.SYSTEM.norm>
0

>  <SCORE.heavy>
10

>  <SCORE.norm>
-1.49144

>  <RMSD>
2.308

$$$$
ligand
 OpenBabel02271912153D
libRbt.so/2013.1/901 2013/11/27
 10 11  0  0  0  0  0  0  0  0999 V2000
    0.0139  -13.2217   13.0474 N   0  0  0  0  0  0  0  0  0  0  0  0
   -0.5610  -12.2327   13.6970 C   0  0  0  0  0  0  0  0  0  0  0  0
   -0.0934  -10.9308   13.5018 N   0  0  0  0  0  0  0  0  0  0  0  0
    0.9204  -10.6949   12.6725 C   0  0  0  0  0  0  0  0  0  0  0  0
    1.4968  -11.6897   12.0240 C   0  0  0  0  0  0  0  0  0  0  0  0
    1.0760  -12.9292   12.1952 C   0  0  0  0  0  0  0  0  0  0  0  0
    1.6294  -13.8366   11.5902 O   0  0  0  0  0  0  0  0  0  0  0  0
    2.4711  -11.1986   11.2603 N   0  0  0  0  0  0  0  0  0  0  0  0
    2.4850   -9.8826   11.4399 C   0  0  0  0  0  0  0  0  0  0  0  0
    1.5260   -9.5733   12.3164 N   0  0  0  0  0  0  0  0  0  0  0  0
  1  2  1  0  0  0  0
  1  6  1  0  0  0  0
  2  3  2  0  0  0  0
  3  4  1  0  0  0  0
  4  5  2  0  0  0  0
  4 10  1  0  0  0  0
  5  6  1  0  0  0  0
  5  8  1  0  0  0  0
  6  7  2  0  0  0  0
  8  9  1  0  0  0  0
  9 10  2  0  0  0  0
M  END
>  <CHROM.1>
1.10544338,-11.66253973,12.36028560,2.21949515,-0.70206975,-2.99180018

>  <Name>
ligand

>  <RI>
0

>  <Rbt.Current_Directory>
/home/itssahil/PROJECTS/Mol_Feturizer/Test_systems_manuscript/rnas/5c7w

>  <Rbt.Executable>
rbdock ($Id: //depot/dev/client3/rdock/2013.1/src/exe/rbdock.cxx#4 $)

>  <Rbt.Library>
libRbt.so (2013.1, Build901 2013/11/27)

>  <Rbt.Parameter_File>
/export/apps/rDock/src/rDock_2013.1_src/data/scripts/dock_solv.prm

>  <Rbt.Receptor>
prm/blind_docking_80.prm

>  <SCORE>
-14.9217

>  <SCORE.INTER>
-14.9217

>  <SCORE.INTER.CONST>
1

>  <SCORE.INTER.POLAR>
0

>  <SCORE.INTER.ROT>
0

>  <SCORE.INTER.SOLV>
3.19707

>  <SCORE.INTER.VDW>
-14.6135

>  <SCORE.INTER.norm>
-1.49217

>  <SCORE.INTRA>
0

>  <SCORE.INTRA.DIHEDRAL>
0

>  <SCORE.INTRA.DIHEDRAL.0>
0

>  <SCORE.INTRA.POLAR>
0

>  <SCORE.INTRA.POLAR.0>
0

>  <SCORE.INTRA.REPUL>
0

>  <SCORE.INTRA.REPUL.0>
0

>  <SCORE.INTRA.SOLV>
0

>  <SCORE.INTRA.SOLV.lig_0>
-4.15853

>  <SCORE.INTRA.VDW>
0

>  <SCORE.INTRA.VDW.0>
0

>  <SCORE.INTRA.norm>
0

>  <SCORE.RESTR>
0

>  <SCORE.RESTR.CAVITY>
0

>  <SCORE.RESTR.norm>
0

>  <SCORE.SYSTEM>
0

>  <SCORE.SYSTEM.CONST>
0

>  <SCORE.SYSTEM.DIHEDRAL>
0

>  <SCORE.SYSTEM.SOLV>
0

>  <SCORE.SYSTEM.norm>
0

>  <SCORE.heavy>
10

>  <SCORE.norm>
-1.49217

>  <RMSD>
2.308

$$$$
ligand
 OpenBabel02271912153D
libRbt.so/2013.1/901 2013/11/27
 10 11  0  0  0  0  0  0  0  0999 V2000
    0.0138  -13.2221   13.0569 N   0  0  0  0  0  0  0  0  0  0  0  0
   -0.5490  -12.2335   13.7176 C   0  0  0  0  0  0  0  0  0  0  0  0
   -0.0778  -10.9327   13.5226 N   0  0  0  0  0  0  0  0  0  0  0  0
    0.9274  -10.6978   12.6826 C   0  0  0  0  0  0  0  0  0  0  0  0
    1.4916  -11.6922   12.0230 C   0  0  0  0  0  0  0  0  0  0  0  0
    1.0672  -12.9305   12.1936 C   0  0  0  0  0  0  0  0  0  0  0  0
    1.6094  -13.8378   11.5781 O   0  0  0  0  0  0  0  0  0  0  0  0
    2.4591  -11.2021   11.2500 N   0  0  0  0  0  0  0  0  0  0  0  0
    2.4811   -9.8869   11.4353 C   0  0  0  0  0  0  0  0  0  0  0  0
    1.5339   -9.5773   12.3243 N   0  0  0  0  0  0  0  0  0  0  0  0
  1  2  1  0  0  0  0
  1  6  1  0  0  0  0
  2  3  2  0  0  0  0
  3  4  1  0  0  0  0
  4  5  2  0  0  0  0
  4 10  1  0  0  0  0
  5  6  1  0  0  0  0
  5  8  1  0  0  0  0
  6  7  2  0  0  0  0
  8  9  1  0  0  0  0
  9 10  2  0  0  0  0
M  END
>  <CHROM.1>
1.10432578,-11.66479813,12.36391154,2.22775366,-0.71294476,-2.98199442

>  <Name>
ligand

>  <RI>
0

>  <Rbt.Current_Directory>
/home/itssahil/PROJECTS/Mol_Feturizer/Test_systems_manuscript/rnas/5c7w

>  <Rbt.Executable>
rbdock ($Id: //depot/dev/client3/rdock/2013.1/src/exe/rbdock.cxx#4 $)

>  <Rbt.Library>
libRbt.so (2013.1, Build901 2013/11/27)

>  <Rbt.Parameter_File>
/export/apps/rDock/src/rDock_2013.1_src/data/scripts/dock_solv.prm

>  <Rbt.Receptor>
prm/pocket_docking_3.prm

>  <SCORE>
-14.9118

>  <SCORE.INTER>
-14.9118

>  <SCORE.INTER.CONST>
1

>  <SCORE.INTER.POLAR>
0

>  <SCORE.INTER.ROT>
0

>  <SCORE.INTER.SOLV>
3.21208

>  <SCORE.INTER.VDW>
-14.6119

>  <SCORE.INTER.norm>
-1.49118

>  <SCORE.INTRA>
0

>  <SCORE.INTRA.DIHEDRAL>
0

>  <SCORE.INTRA.DIHEDRAL.0>
0

>  <SCORE.INTRA.POLAR>
0

>  <SCORE.INTRA.POLAR.0>
0

>  <SCORE.INTRA.REPUL>
0

>  <SCORE.INTRA.REPUL.0>
0

>  <SCORE.INTRA.SOLV>
0

>  <SCORE.INTRA.SOLV.lig_0>
-4.15853

>  <SCORE.INTRA.VDW>
0

>  <SCORE.INTRA.VDW.0>
0

>  <SCORE.INTRA.norm>
0

>  <SCORE.RESTR>
0

>  <SCORE.RESTR.CAVITY>
0

>  <SCORE.RESTR.norm>
0

>  <SCORE.SYSTEM>
0

>  <SCORE.SYSTEM.CONST>
0

>  <SCORE.SYSTEM.DIHEDRAL>
0

>  <SCORE.SYSTEM.SOLV>
0

>  <SCORE.SYSTEM.norm>
0

>  <SCORE.heavy>
10

>  <SCORE.norm>
-1.49118

>  <RMSD>
2.308

$$$$
ligand
 OpenBabel02271912153D
libRbt.so/2013.1/901 2013/11/27
 10 11  0  0  0  0  0  0  0  0999 V2000
    0.0072  -13.1808   13.0488 N   0  0  0  0  0  0  0  0  0  0  0  0
   -0.5857  -12.2092   13.7083 C   0  0  0  0  0  0  0  0  0  0  0  0
   -0.1156  -10.9022   13.5578 N   0  0  0  0  0  0  0  0  0  0  0  0
    0.9187  -10.6444   12.7608 C   0  0  0  0  0  0  0  0  0  0  0  0
    1.5130  -11.6219   12.1024 C   0  0  0  0  0  0  0  0  0  0  0  0
    1.0901  -12.8657   12.2316 C   0  0  0  0  0  0  0  0  0  0  0  0
    1.6603  -13.7571   11.6182 O   0  0  0  0  0  0  0  0  0  0  0  0
    2.5056  -11.1107   11.3763 N   0  0  0  0  0  0  0  0  0  0  0  0
    2.5127   -9.7996   11.5893 C   0  0  0  0  0  0  0  0  0  0  0  0
    1.5312   -9.5135   12.4486 N   0  0  0  0  0  0  0  0  0  0  0  0
  1  2  1  0  0  0  0
  1  6  1  0  0  0  0
  2  3  2  0  0  0  0
  3  4  1  0  0  0  0
  4  5  2  0  0  0  0
  4 10  1  0  0  0  0
  5  6  1  0  0  0  0
  5  8  1  0  0  0  0
  6  7  2  0  0  0  0
  8  9  1  0  0  0  0
  9 10  2  0  0  0  0
M  END
>  <CHROM.1>
1.11321823,-11.60366181,12.42915184,2.21245977,-0.67716325,-2.97108431

>  <Name>
ligand

>  <RI>
0

>  <Rbt.Current_Directory>
/home/itssahil/PROJECTS/Mol_Feturizer/Test_systems_manuscript/rnas/5c7w

>  <Rbt.Executable>
rbdock ($Id: //depot/dev/client3/rdock/2013.1/src/exe/rbdock.cxx#4 $)

>  <Rbt.Library>
libRbt.so (2013.1, Build901 2013/11/27)

>  <Rbt.Parameter_File>
/export/apps/rDock/src/rDock_2013.1_src/data/scripts/dock_solv.prm

>  <Rbt.Receptor>
prm/pocket_docking_4.prm

>  <SCORE>
-14.8976

>  <SCORE.INTER>
-14.8976

>  <SCORE.INTER.CONST>
1

>  <SCORE.INTER.POLAR>
0

>  <SCORE.INTER.ROT>
0

>  <SCORE.INTER.SOLV>
3.16032

>  <SCORE.INTER.VDW>
-14.5852

>  <SCORE.INTER.norm>
-1.48976

>  <SCORE.INTRA>
0

>  <SCORE.INTRA.DIHEDRAL>
0

>  <SCORE.INTRA.DIHEDRAL.0>
0

>  <SCORE.INTRA.POLAR>
0

>  <SCORE.INTRA.POLAR.0>
0

>  <SCORE.INTRA.REPUL>
0

>  <SCORE.INTRA.REPUL.0>
0

>  <SCORE.INTRA.SOLV>
0

>  <SCORE.INTRA.SOLV.lig_0>
-4.15853

>  <SCORE.INTRA.VDW>
0

>  <SCORE.INTRA.VDW.0>
0

>  <SCORE.INTRA.norm>
0

>  <SCORE.RESTR>
0

>  <SCORE.RESTR.CAVITY>
0

>  <SCORE.RESTR.norm>
0

>  <SCORE.SYSTEM>
0

>  <SCORE.SYSTEM.CONST>
0

>  <SCORE.SYSTEM.DIHEDRAL>
0

>  <SCORE.SYSTEM.SOLV>
0

>  <SCORE.SYSTEM.norm>
0

>  <SCORE.heavy>
10

>  <SCORE.norm>
-1.48976

>  <RMSD>
2.308

$$$$
ligand
 OpenBabel02271912153D
libRbt.so/2013.1/901 2013/11/27
 10 11  0  0  0  0  0  0  0  0999 V2000
    0.0125  -13.2303   13.0616 N   0  0  0  0  0  0  0  0  0  0  0  0
   -0.5633  -12.2351   13.7008 C   0  0  0  0  0  0  0  0  0  0  0  0
   -0.0995  -10.9343   13.4889 N   0  0  0  0  0  0  0  0  0  0  0  0
    0.9118  -10.7059   12.6545 C   0  0  0  0  0  0  0  0  0  0  0  0
    1.4892  -11.7069   12.0165 C   0  0  0  0  0  0  0  0  0  0  0  0
    1.0718  -12.9452   12.2034 C   0  0  0  0  0  0  0  0  0  0  0  0
    1.6261  -13.8584   11.6079 O   0  0  0  0  0  0  0  0  0  0  0  0
    2.4604  -11.2224   11.2447 N   0  0  0  0  0  0  0  0  0  0  0  0
    2.4715   -9.9043   11.4086 C   0  0  0  0  0  0  0  0  0  0  0  0
    1.5138   -9.5870   12.2837 N   0  0  0  0  0  0  0  0  0  0  0  0
  1  2  1  0  0  0  0
  1  6  1  0  0  0  0
  2  3  2  0  0  0  0
  3  4  1  0  0  0  0
  4  5  2  0  0  0  0
  4 10  1  0  0  0  0
  5  6  1  0  0  0  0
  5  8  1  0  0  0  0
  6  7  2  0  0  0  0
  8  9  1  0  0  0  0
  9 10  2  0  0  0  0
M  END
>  <CHROM.1>
1.09852278,-11.67664904,12.35336540,2.21669356,-0.70476929,-3.00549986

>  <Name>
ligand

>  <RI>
0

>  <Rbt.Current_Directory>
/home/itssahil/PROJECTS/Mol_Feturizer/Test_systems_manuscript/rnas/5c7w

>  <Rbt.Executable>
rbdock ($Id: //depot/dev/client3/rdock/2013.1/src/exe/rbdock.cxx#4 $)

>  <Rbt.Library>
libRbt.so (2013.1, Build901 2013/11/27)

>  <Rbt.Parameter_File>
/export/apps/rDock/src/rDock_2013.1_src/data/scripts/dock_solv.prm

>  <Rbt.Receptor>
prm/pocket_docking_4.prm

>  <SCORE>
-14.9146

>  <SCORE.INTER>
-14.9146

>  <SCORE.INTER.CONST>
1

>  <SCORE.INTER.POLAR>
0

>  <SCORE.INTER.ROT>
0

>  <SCORE.INTER.SOLV>
3.20438

>  <SCORE.INTER.VDW>
-14.6112

>  <SCORE.INTER.norm>
-1.49146

>  <SCORE.INTRA>
0

>  <SCORE.INTRA.DIHEDRAL>
0

>  <SCORE.INTRA.DIHEDRAL.0>
0

>  <SCORE.INTRA.POLAR>
0

>  <SCORE.INTRA.POLAR.0>
0

>  <SCORE.INTRA.REPUL>
0

>  <SCORE.INTRA.REPUL.0>
0

>  <SCORE.INTRA.SOLV>
0

>  <SCORE.INTRA.SOLV.lig_0>
-4.15853

>  <SCORE.INTRA.VDW>
0

>  <SCORE.INTRA.VDW.0>
0

>  <SCORE.INTRA.norm>
0

>  <SCORE.RESTR>
0

>  <SCORE.RESTR.CAVITY>
0

>  <SCORE.RESTR.norm>
0

>  <SCORE.SYSTEM>
0

>  <SCORE.SYSTEM.CONST>
0

>  <SCORE.SYSTEM.DIHEDRAL>
0

>  <SCORE.SYSTEM.SOLV>
0

>  <SCORE.SYSTEM.norm>
0

>  <SCORE.heavy>
10

>  <SCORE.norm>
-1.49146

>  <RMSD>
2.308

$$$$
ligand
 OpenBabel02271912153D
libRbt.so/2013.1/901 2013/11/27
 10 11  0  0  0  0  0  0  0  0999 V2000
    0.0180  -13.2281   13.0439 N   0  0  0  0  0  0  0  0  0  0  0  0
   -0.5602  -12.2402   13.6922 C   0  0  0  0  0  0  0  0  0  0  0  0
   -0.0942  -10.9374   13.4983 N   0  0  0  0  0  0  0  0  0  0  0  0
    0.9214  -10.6998   12.6717 C   0  0  0  0  0  0  0  0  0  0  0  0
    1.5010  -11.6935   12.0245 C   0  0  0  0  0  0  0  0  0  0  0  0
    1.0818  -12.9337   12.1945 C   0  0  0  0  0  0  0  0  0  0  0  0
    1.6383  -13.8402   11.5908 O   0  0  0  0  0  0  0  0  0  0  0  0
    2.4765  -11.2007   11.2633 N   0  0  0  0  0  0  0  0  0  0  0  0
    2.4878   -9.8847   11.4432 C   0  0  0  0  0  0  0  0  0  0  0  0
    1.5261   -9.5771   12.3173 N   0  0  0  0  0  0  0  0  0  0  0  0
  1  2  1  0  0  0  0
  1  6  1  0  0  0  0
  2  3  2  0  0  0  0
  3  4  1  0  0  0  0
  4  5  2  0  0  0  0
  4 10  1  0  0  0  0
  5  6  1  0  0  0  0
  5  8  1  0  0  0  0
  6  7  2  0  0  0  0
  8  9  1  0  0  0  0
  9 10  2  0  0  0  0
M  END
>  <CHROM.1>
1.10875793,-11.66704911,12.35978880,2.21688172,-0.69977830,-2.99335549

>  <Name>
ligand

>  <RI>
0

>  <Rbt.Current_Directory>
/home/itssahil/PROJECTS/Mol_Feturizer/Test_systems_manuscript/rnas/5c7w

>  <Rbt.Executable>
rbdock ($Id: //depot/dev/client3/rdock/2013.1/src/exe/rbdock.cxx#4 $)

>  <Rbt.Library>
libRbt.so (2013.1, Build901 2013/11/27)

>  <Rbt.Parameter_File>
/export/apps/rDock/src/rDock_2013.1_src/data/scripts/dock_solv.prm

>  <Rbt.Receptor>
prm/pocket_docking_5.prm

>  <SCORE>
-14.9212

>  <SCORE.INTER>
-14.9212

>  <SCORE.INTER.CONST>
1

>  <SCORE.INTER.POLAR>
0

>  <SCORE.INTER.ROT>
0

>  <SCORE.INTER.SOLV>
3.1971

>  <SCORE.INTER.VDW>
-14.6131

>  <SCORE.INTER.norm>
-1.49212

>  <SCORE.INTRA>
0

>  <SCORE.INTRA.DIHEDRAL>
0

>  <SCORE.INTRA.DIHEDRAL.0>
0

>  <SCORE.INTRA.POLAR>
0

>  <SCORE.INTRA.POLAR.0>
0

>  <SCORE.INTRA.REPUL>
0

>  <SCORE.INTRA.REPUL.0>
0

>  <SCORE.INTRA.SOLV>
0

>  <SCORE.INTRA.SOLV.lig_0>
-4.15853

>  <SCORE.INTRA.VDW>
0

>  <SCORE.INTRA.VDW.0>
0

>  <SCORE.INTRA.norm>
0

>  <SCORE.RESTR>
0

>  <SCORE.RESTR.CAVITY>
0

>  <SCORE.RESTR.norm>
0

>  <SCORE.SYSTEM>
0

>  <SCORE.SYSTEM.CONST>
0

>  <SCORE.SYSTEM.DIHEDRAL>
0

>  <SCORE.SYSTEM.SOLV>
0

>  <SCORE.SYSTEM.norm>
0

>  <SCORE.heavy>
10

>  <SCORE.norm>
-1.49212

>  <RMSD>
2.308

$$$$
ligand
 OpenBabel02271912153D
libRbt.so/2013.1/901 2013/11/27
 10 11  0  0  0  0  0  0  0  0999 V2000
    0.0203  -13.2401   13.0522 N   0  0  0  0  0  0  0  0  0  0  0  0
   -0.5673  -12.2551   13.6963 C   0  0  0  0  0  0  0  0  0  0  0  0
   -0.1161  -10.9483   13.4945 N   0  0  0  0  0  0  0  0  0  0  0  0
    0.8952  -10.7041   12.6646 C   0  0  0  0  0  0  0  0  0  0  0  0
    1.4845  -11.6949   12.0216 C   0  0  0  0  0  0  0  0  0  0  0  0
    1.0792  -12.9386   12.1991 C   0  0  0  0  0  0  0  0  0  0  0  0
    1.6444  -13.8422   11.5991 O   0  0  0  0  0  0  0  0  0  0  0  0
    2.4530  -11.1956   11.2558 N   0  0  0  0  0  0  0  0  0  0  0  0
    2.4502   -9.8785   11.4286 C   0  0  0  0  0  0  0  0  0  0  0  0
    1.4869   -9.5768   12.3029 N   0  0  0  0  0  0  0  0  0  0  0  0
  1  2  1  0  0  0  0
  1  6  1  0  0  0  0
  2  3  2  0  0  0  0
  3  4  1  0  0  0  0
  4  5  2  0  0  0  0
  4 10  1  0  0  0  0
  5  6  1  0  0  0  0
  5  8  1  0  0  0  0
  6  7  2  0  0  0  0
  8  9  1  0  0  0  0
  9 10  2  0  0  0  0
M  END
>  <CHROM.1>
1.09260487,-11.67090433,12.35750684,2.20303284,-0.70329488,-3.00767744

>  <Name>
ligand

>  <RI>
0

>  <Rbt.Current_Directory>
/home/itssahil/PROJECTS/Mol_Feturizer/Test_systems_manuscript/rnas/5c7w

>  <Rbt.Executable>
rbdock ($Id: //depot/dev/client3/rdock/2013.1/src/exe/rbdock.cxx#4 $)

>  <Rbt.Library>
libRbt.so (2013.1, Build901 2013/11/27)

>  <Rbt.Parameter_File>
/export/apps/rDock/src/rDock_2013.1_src/data/scripts/dock_solv.prm

>  <Rbt.Receptor>
prm/pocket_docking_5.prm

>  <SCORE>
-14.9136

>  <SCORE.INTER>
-14.9136

>  <SCORE.INTER.CONST>
1

>  <SCORE.INTER.POLAR>
0

>  <SCORE.INTER.ROT>
0

>  <SCORE.INTER.SOLV>
3.21334

>  <SCORE.INTER.VDW>
-14.6135

>  <SCORE.INTER.norm>
-1.49136

>  <SCORE.INTRA>
0

>  <SCORE.INTRA.DIHEDRAL>
0

>  <SCORE.INTRA.DIHEDRAL.0>
0

>  <SCORE.INTRA.POLAR>
0

>  <SCORE.INTRA.POLAR.0>
0

>  <SCORE.INTRA.REPUL>
0

>  <SCORE.INTRA.REPUL.0>
0

>  <SCORE.INTRA.SOLV>
0

>  <SCORE.INTRA.SOLV.lig_0>
-4.15853

>  <SCORE.INTRA.VDW>
0

>  <SCORE.INTRA.VDW.0>
0

>  <SCORE.INTRA.norm>
0

>  <SCORE.RESTR>
0

>  <SCORE.RESTR.CAVITY>
0

>  <SCORE.RESTR.norm>
0

>  <SCORE.SYSTEM>
0

>  <SCORE.SYSTEM.CONST>
0

>  <SCORE.SYSTEM.DIHEDRAL>
0

>  <SCORE.SYSTEM.SOLV>
0

>  <SCORE.SYSTEM.norm>
0

>  <SCORE.heavy>
10

>  <SCORE.norm>
-1.49136

>  <RMSD>
2.308

$$$$
ligand
 OpenBabel02271912153D
libRbt.so/2013.1/901 2013/11/27
 10 11  0  0  0  0  0  0  0  0999 V2000
    0.0178  -13.2256   13.0447 N   0  0  0  0  0  0  0  0  0  0  0  0
   -0.5634  -12.2361   13.6879 C   0  0  0  0  0  0  0  0  0  0  0  0
   -0.1001  -10.9331   13.4888 N   0  0  0  0  0  0  0  0  0  0  0  0
    0.9160  -10.6969   12.6624 C   0  0  0  0  0  0  0  0  0  0  0  0
    1.4987  -11.6923   12.0203 C   0  0  0  0  0  0  0  0  0  0  0  0
    1.0820  -12.9326   12.1953 C   0  0  0  0  0  0  0  0  0  0  0  0
    1.6412  -13.8405   11.5963 O   0  0  0  0  0  0  0  0  0  0  0  0
    2.4740  -11.2007   11.2581 N   0  0  0  0  0  0  0  0  0  0  0  0
    2.4821   -9.8838   11.4322 C   0  0  0  0  0  0  0  0  0  0  0  0
    1.5186   -9.5745   12.3037 N   0  0  0  0  0  0  0  0  0  0  0  0
  1  2  1  0  0  0  0
  1  6  1  0  0  0  0
  2  3  2  0  0  0  0
  3  4  1  0  0  0  0
  4  5  2  0  0  0  0
  4 10  1  0  0  0  0
  5  6  1  0  0  0  0
  5  8  1  0  0  0  0
  6  7  2  0  0  0  0
  8  9  1  0  0  0  0
  9 10  2  0  0  0  0
M  END
>  <CHROM.1>
1.10593380,-11.66516688,12.35498674,2.21377148,-0.69889862,-2.99980123

>  <Name>
ligand

>  <RI>
0

>  <Rbt.Current_Directory>
/home/itssahil/PROJECTS/Mol_Feturizer/Test_systems_manuscript/rnas/5c7w

>  <Rbt.Executable>
rbdock ($Id: //depot/dev/client3/rdock/2013.1/src/exe/rbdock.cxx#4 $)

>  <Rbt.Library>
libRbt.so (2013.1, Build901 2013/11/27)

>  <Rbt.Parameter_File>
/export/apps/rDock/src/rDock_2013.1_src/data/scripts/dock_solv.prm

>  <Rbt.Receptor>
prm/pocket_docking_5.prm

>  <SCORE>
-14.9224

>  <SCORE.INTER>
-14.9224

>  <SCORE.INTER.CONST>
1

>  <SCORE.INTER.POLAR>
0

>  <SCORE.INTER.ROT>
0

>  <SCORE.INTER.SOLV>
3.19652

>  <SCORE.INTER.VDW>
-14.6138

>  <SCORE.INTER.norm>
-1.49224

>  <SCORE.INTRA>
0

>  <SCORE.INTRA.DIHEDRAL>
0

>  <SCORE.INTRA.DIHEDRAL.0>
0

>  <SCORE.INTRA.POLAR>
0

>  <SCORE.INTRA.POLAR.0>
0

>  <SCORE.INTRA.REPUL>
0

>  <SCORE.INTRA.REPUL.0>
0

>  <SCORE.INTRA.SOLV>
0

>  <SCORE.INTRA.SOLV.lig_0>
-4.15853

>  <SCORE.INTRA.VDW>
0

>  <SCORE.INTRA.VDW.0>
0

>  <SCORE.INTRA.norm>
0

>  <SCORE.RESTR>
0

>  <SCORE.RESTR.CAVITY>
0

>  <SCORE.RESTR.norm>
0

>  <SCORE.SYSTEM>
0

>  <SCORE.SYSTEM.CONST>
0

>  <SCORE.SYSTEM.DIHEDRAL>
0

>  <SCORE.SYSTEM.SOLV>
0

>  <SCORE.SYSTEM.norm>
0

>  <SCORE.heavy>
10

>  <SCORE.norm>
-1.49224

>  <RMSD>
2.308

$$$$
ligand
 OpenBabel02271912153D
libRbt.so/2013.1/901 2013/11/27
 10 11  0  0  0  0  0  0  0  0999 V2000
    0.0163  -13.2248   13.0492 N   0  0  0  0  0  0  0  0  0  0  0  0
   -0.5598  -12.2343   13.6955 C   0  0  0  0  0  0  0  0  0  0  0  0
   -0.0925  -10.9326   13.4974 N   0  0  0  0  0  0  0  0  0  0  0  0
    0.9223  -10.6986   12.6689 C   0  0  0  0  0  0  0  0  0  0  0  0
    1.5000  -11.6948   12.0238 C   0  0  0  0  0  0  0  0  0  0  0  0
    1.0794  -12.9340   12.1977 C   0  0  0  0  0  0  0  0  0  0  0  0
    1.6341  -13.8428   11.5957 O   0  0  0  0  0  0  0  0  0  0  0  0
    2.4751  -11.2053   11.2600 N   0  0  0  0  0  0  0  0  0  0  0  0
    2.4882   -9.8888   11.4363 C   0  0  0  0  0  0  0  0  0  0  0  0
    1.5280   -9.5776   12.3107 N   0  0  0  0  0  0  0  0  0  0  0  0
  1  2  1  0  0  0  0
  1  6  1  0  0  0  0
  2  3  2  0  0  0  0
  3  4  1  0  0  0  0
  4  5  2  0  0  0  0
  4 10  1  0  0  0  0
  5  6  1  0  0  0  0
  5  8  1  0  0  0  0
  6  7  2  0  0  0  0
  8  9  1  0  0  0  0
  9 10  2  0  0  0  0
M  END
>  <CHROM.1>
1.10815886,-11.66690543,12.35944148,2.21870407,-0.70081616,-2.99493660

>  <Name>
ligand

>  <RI>
0

>  <Rbt.Current_Directory>
/home/itssahil/PROJECTS/Mol_Feturizer/Test_systems_manuscript/rnas/5c7w

>  <Rbt.Executable>
rbdock ($Id: //depot/dev/client3/rdock/2013.1/src/exe/rbdock.cxx#4 $)

>  <Rbt.Library>
libRbt.so (2013.1, Build901 2013/11/27)

>  <Rbt.Parameter_File>
/export/apps/rDock/src/rDock_2013.1_src/data/scripts/dock_solv.prm

>  <Rbt.Receptor>
prm/pocket_docking_5.prm

>  <SCORE>
-14.9204

>  <SCORE.INTER>
-14.9204

>  <SCORE.INTER.CONST>
1

>  <SCORE.INTER.POLAR>
0

>  <SCORE.INTER.ROT>
0

>  <SCORE.INTER.SOLV>
3.19614

>  <SCORE.INTER.VDW>
-14.6123

>  <SCORE.INTER.norm>
-1.49204

>  <SCORE.INTRA>
0

>  <SCORE.INTRA.DIHEDRAL>
0

>  <SCORE.INTRA.DIHEDRAL.0>
0

>  <SCORE.INTRA.POLAR>
0

>  <SCORE.INTRA.POLAR.0>
0

>  <SCORE.INTRA.REPUL>
0

>  <SCORE.INTRA.REPUL.0>
0

>  <SCORE.INTRA.SOLV>
0

>  <SCORE.INTRA.SOLV.lig_0>
-4.15853

>  <SCORE.INTRA.VDW>
0

>  <SCORE.INTRA.VDW.0>
0

>  <SCORE.INTRA.norm>
0

>  <SCORE.RESTR>
0

>  <SCORE.RESTR.CAVITY>
0

>  <SCORE.RESTR.norm>
0

>  <SCORE.SYSTEM>
0

>  <SCORE.SYSTEM.CONST>
0

>  <SCORE.SYSTEM.DIHEDRAL>
0

>  <SCORE.SYSTEM.SOLV>
0

>  <SCORE.SYSTEM.norm>
0

>  <SCORE.heavy>
10

>  <SCORE.norm>
-1.49204

>  <RMSD>
2.308

$$$$
ligand
 OpenBabel02271912153D
libRbt.so/2013.1/901 2013/11/27
 10 11  0  0  0  0  0  0  0  0999 V2000
    0.0165  -13.2251   13.0466 N   0  0  0  0  0  0  0  0  0  0  0  0
   -0.5638  -12.2369   13.6927 C   0  0  0  0  0  0  0  0  0  0  0  0
   -0.1016  -10.9334   13.4947 N   0  0  0  0  0  0  0  0  0  0  0  0
    0.9126  -10.6953   12.6664 C   0  0  0  0  0  0  0  0  0  0  0  0
    1.4943  -11.6893   12.0215 C   0  0  0  0  0  0  0  0  0  0  0  0
    1.0787  -12.9301   12.1953 C   0  0  0  0  0  0  0  0  0  0  0  0
    1.6371  -13.8367   11.5936 O   0  0  0  0  0  0  0  0  0  0  0  0
    2.4677  -11.1959   11.2580 N   0  0  0  0  0  0  0  0  0  0  0  0
    2.4755   -9.8793   11.4341 C   0  0  0  0  0  0  0  0  0  0  0  0
    1.5138   -9.5719   12.3082 N   0  0  0  0  0  0  0  0  0  0  0  0
  1  2  1  0  0  0  0
  1  6  1  0  0  0  0
  2  3  2  0  0  0  0
  3  4  1  0  0  0  0
  4  5  2  0  0  0  0
  4 10  1  0  0  0  0
  5  6  1  0  0  0  0
  5  8  1  0  0  0  0
  6  7  2  0  0  0  0
  8  9  1  0  0  0  0
  9 10  2  0  0  0  0
M  END
>  <CHROM.1>
1.10232139,-11.66291512,12.35704625,2.21347440,-0.70112393,-2.99836744

>  <Name>
ligand

>  <RI>
0

>  <Rbt.Current_Directory>
/home/itssahil/PROJECTS/Mol_Feturizer/Test_systems_manuscript/rnas/5c7w

>  <Rbt.Executable>
rbdock ($Id: //depot/dev/client3/rdock/2013.1/src/exe/rbdock.cxx#4 $)

>  <Rbt.Library>
libRbt.so (2013.1, Build901 2013/11/27)

>  <Rbt.Parameter_File>
/export/apps/rDock/src/rDock_2013.1_src/data/scripts/dock_solv.prm

>  <Rbt.Receptor>
prm/pocket_docking_6.prm

>  <SCORE>
-14.9224

>  <SCORE.INTER>
-14.9224

>  <SCORE.INTER.CONST>
1

>  <SCORE.INTER.POLAR>
0

>  <SCORE.INTER.ROT>
0

>  <SCORE.INTER.SOLV>
3.19998

>  <SCORE.INTER.VDW>
-14.6149

>  <SCORE.INTER.norm>
-1.49224

>  <SCORE.INTRA>
0

>  <SCORE.INTRA.DIHEDRAL>
0

>  <SCORE.INTRA.DIHEDRAL.0>
0

>  <SCORE.INTRA.POLAR>
0

>  <SCORE.INTRA.POLAR.0>
0

>  <SCORE.INTRA.REPUL>
0

>  <SCORE.INTRA.REPUL.0>
0

>  <SCORE.INTRA.SOLV>
0

>  <SCORE.INTRA.SOLV.lig_0>
-4.15853

>  <SCORE.INTRA.VDW>
0

>  <SCORE.INTRA.VDW.0>
0

>  <SCORE.INTRA.norm>
0

>  <SCORE.RESTR>
0

>  <SCORE.RESTR.CAVITY>
0

>  <SCORE.RESTR.norm>
0

>  <SCORE.SYSTEM>
0

>  <SCORE.SYSTEM.CONST>
0

>  <SCORE.SYSTEM.DIHEDRAL>
0

>  <SCORE.SYSTEM.SOLV>
0

>  <SCORE.SYSTEM.norm>
0

>  <SCORE.heavy>
10

>  <SCORE.norm>
-1.49224

>  <RMSD>
2.308

$$$$
ligand
 OpenBabel02271912153D
libRbt.so/2013.1/901 2013/11/27
 10 11  0  0  0  0  0  0  0  0999 V2000
    0.0182  -13.2223   13.0504 N   0  0  0  0  0  0  0  0  0  0  0  0
   -0.5576  -12.2337   13.6998 C   0  0  0  0  0  0  0  0  0  0  0  0
   -0.0923  -10.9312   13.5030 N   0  0  0  0  0  0  0  0  0  0  0  0
    0.9203  -10.6944   12.6724 C   0  0  0  0  0  0  0  0  0  0  0  0
    1.4975  -11.6888   12.0241 C   0  0  0  0  0  0  0  0  0  0  0  0
    1.0789  -12.9287   12.1968 C   0  0  0  0  0  0  0  0  0  0  0  0
    1.6331  -13.8358   11.5919 O   0  0  0  0  0  0  0  0  0  0  0  0
    2.4702  -11.1967   11.2588 N   0  0  0  0  0  0  0  0  0  0  0  0
    2.4821   -9.8805   11.4374 C   0  0  0  0  0  0  0  0  0  0  0  0
    1.5237   -9.5720   12.3147 N   0  0  0  0  0  0  0  0  0  0  0  0
  1  2  1  0  0  0  0
  1  6  1  0  0  0  0
  2  3  2  0  0  0  0
  3  4  1  0  0  0  0
  4  5  2  0  0  0  0
  4 10  1  0  0  0  0
  5  6  1  0  0  0  0
  5  8  1  0  0  0  0
  6  7  2  0  0  0  0
  8  9  1  0  0  0  0
  9 10  2  0  0  0  0
M  END
>  <CHROM.1>
1.10648543,-11.66194131,12.36075082,2.21761445,-0.70341761,-2.99384662

>  <Name>
ligand

>  <RI>
0

>  <Rbt.Current_Directory>
/home/itssahil/PROJECTS/Mol_Feturizer/Test_systems_manuscript/rnas/5c7w

>  <Rbt.Executable>
rbdock ($Id: //depot/dev/client3/rdock/2013.1/src/exe/rbdock.cxx#4 $)

>  <Rbt.Library>
libRbt.so (2013.1, Build901 2013/11/27)

>  <Rbt.Parameter_File>
/export/apps/rDock/src/rDock_2013.1_src/data/scripts/dock_solv.prm

>  <Rbt.Receptor>
prm/pocket_docking_6.prm

>  <SCORE>
-14.9218

>  <SCORE.INTER>
-14.9218

>  <SCORE.INTER.CONST>
1

>  <SCORE.INTER.POLAR>
0

>  <SCORE.INTER.ROT>
0

>  <SCORE.INTER.SOLV>
3.20024

>  <SCORE.INTER.VDW>
-14.6146

>  <SCORE.INTER.norm>
-1.49218

>  <SCORE.INTRA>
0

>  <SCORE.INTRA.DIHEDRAL>
0

>  <SCORE.INTRA.DIHEDRAL.0>
0

>  <SCORE.INTRA.POLAR>
0

>  <SCORE.INTRA.POLAR.0>
0

>  <SCORE.INTRA.REPUL>
0

>  <SCORE.INTRA.REPUL.0>
0

>  <SCORE.INTRA.SOLV>
0

>  <SCORE.INTRA.SOLV.lig_0>
-4.15853

>  <SCORE.INTRA.VDW>
0

>  <SCORE.INTRA.VDW.0>
0

>  <SCORE.INTRA.norm>
0

>  <SCORE.RESTR>
0

>  <SCORE.RESTR.CAVITY>
0

>  <SCORE.RESTR.norm>
0

>  <SCORE.SYSTEM>
0

>  <SCORE.SYSTEM.CONST>
0

>  <SCORE.SYSTEM.DIHEDRAL>
0

>  <SCORE.SYSTEM.SOLV>
0

>  <SCORE.SYSTEM.norm>
0

>  <SCORE.heavy>
10

>  <SCORE.norm>
-1.49218

>  <RMSD>
2.308

$$$$
ligand
 OpenBabel02271912153D
libRbt.so/2013.1/901 2013/11/27
 10 11  0  0  0  0  0  0  0  0999 V2000
    0.0218  -13.2558   13.0368 N   0  0  0  0  0  0  0  0  0  0  0  0
   -0.5771  -12.2716   13.6717 C   0  0  0  0  0  0  0  0  0  0  0  0
   -0.1259  -10.9640   13.4752 N   0  0  0  0  0  0  0  0  0  0  0  0
    0.8965  -10.7182   12.6595 C   0  0  0  0  0  0  0  0  0  0  0  0
    1.4969  -11.7082   12.0257 C   0  0  0  0  0  0  0  0  0  0  0  0
    1.0919  -12.9527   12.1984 C   0  0  0  0  0  0  0  0  0  0  0  0
    1.6675  -13.8555   11.6072 O   0  0  0  0  0  0  0  0  0  0  0  0
    2.4750  -11.2073   11.2732 N   0  0  0  0  0  0  0  0  0  0  0  0
    2.4669   -9.8901   11.4449 C   0  0  0  0  0  0  0  0  0  0  0  0
    1.4907   -9.5898   12.3053 N   0  0  0  0  0  0  0  0  0  0  0  0
  1  2  1  0  0  0  0
  1  6  1  0  0  0  0
  2  3  2  0  0  0  0
  3  4  1  0  0  0  0
  4  5  2  0  0  0  0
  4 10  1  0  0  0  0
  5  6  1  0  0  0  0
  5  8  1  0  0  0  0
  6  7  2  0  0  0  0
  8  9  1  0  0  0  0
  9 10  2  0  0  0  0
M  END
>  <CHROM.1>
1.10031720,-11.68478382,12.35598677,2.19776448,-0.68959335,-3.01185013

>  <Name>
ligand

>  <RI>
0

>  <Rbt.Current_Directory>
/home/itssahil/PROJECTS/Mol_Feturizer/Test_systems_manuscript/rnas/5c7w

>  <Rbt.Executable>
rbdock ($Id: //depot/dev/client3/rdock/2013.1/src/exe/rbdock.cxx#4 $)

>  <Rbt.Library>
libRbt.so (2013.1, Build901 2013/11/27)

>  <Rbt.Parameter_File>
/export/apps/rDock/src/rDock_2013.1_src/data/scripts/dock_solv.prm

>  <Rbt.Receptor>
prm/pocket_docking_6.prm

>  <SCORE>
-14.9059

>  <SCORE.INTER>
-14.9059

>  <SCORE.INTER.CONST>
1

>  <SCORE.INTER.POLAR>
0

>  <SCORE.INTER.ROT>
0

>  <SCORE.INTER.SOLV>
3.19604

>  <SCORE.INTER.VDW>
-14.6026

>  <SCORE.INTER.norm>
-1.49059

>  <SCORE.INTRA>
0

>  <SCORE.INTRA.DIHEDRAL>
0

>  <SCORE.INTRA.DIHEDRAL.0>
0

>  <SCORE.INTRA.POLAR>
0

>  <SCORE.INTRA.POLAR.0>
0

>  <SCORE.INTRA.REPUL>
0

>  <SCORE.INTRA.REPUL.0>
0

>  <SCORE.INTRA.SOLV>
0

>  <SCORE.INTRA.SOLV.lig_0>
-4.15853

>  <SCORE.INTRA.VDW>
0

>  <SCORE.INTRA.VDW.0>
0

>  <SCORE.INTRA.norm>
0

>  <SCORE.RESTR>
0

>  <SCORE.RESTR.CAVITY>
0

>  <SCORE.RESTR.norm>
0

>  <SCORE.SYSTEM>
0

>  <SCORE.SYSTEM.CONST>
0

>  <SCORE.SYSTEM.DIHEDRAL>
0

>  <SCORE.SYSTEM.SOLV>
0

>  <SCORE.SYSTEM.norm>
0

>  <SCORE.heavy>
10

>  <SCORE.norm>
-1.49059

>  <RMSD>
2.308

$$$$
ligand
 OpenBabel02271912153D
libRbt.so/2013.1/901 2013/11/27
 10 11  0  0  0  0  0  0  0  0999 V2000
    0.0211  -13.2574   12.9667 N   0  0  0  0  0  0  0  0  0  0  0  0
   -0.5489  -12.2834   13.6427 C   0  0  0  0  0  0  0  0  0  0  0  0
   -0.0775  -10.9783   13.4794 N   0  0  0  0  0  0  0  0  0  0  0  0
    0.9351  -10.7248   12.6538 C   0  0  0  0  0  0  0  0  0  0  0  0
    1.5066  -11.7047   11.9788 C   0  0  0  0  0  0  0  0  0  0  0  0
    1.0821  -12.9467   12.1195 C   0  0  0  0  0  0  0  0  0  0  0  0
    1.6310  -13.8403   11.4902 O   0  0  0  0  0  0  0  0  0  0  0  0
    2.4806  -11.1975   11.2252 N   0  0  0  0  0  0  0  0  0  0  0  0
    2.4993   -9.8864   11.4382 C   0  0  0  0  0  0  0  0  0  0  0  0
    1.5435   -9.5964   12.3247 N   0  0  0  0  0  0  0  0  0  0  0  0
  1  2  1  0  0  0  0
  1  6  1  0  0  0  0
  2  3  2  0  0  0  0
  3  4  1  0  0  0  0
  4  5  2  0  0  0  0
  4 10  1  0  0  0  0
  5  6  1  0  0  0  0
  5  8  1  0  0  0  0
  6  7  2  0  0  0  0
  8  9  1  0  0  0  0
  9 10  2  0  0  0  0
M  END
>  <CHROM.1>
1.11613632,-11.68475847,12.31658927,2.22424428,-0.70403802,-2.96333894

>  <Name>
ligand

>  <RI>
0

>  <Rbt.Current_Directory>
/home/itssahil/PROJECTS/Mol_Feturizer/Test_systems_manuscript/rnas/5c7w

>  <Rbt.Executable>
rbdock ($Id: //depot/dev/client3/rdock/2013.1/src/exe/rbdock.cxx#4 $)

>  <Rbt.Library>
libRbt.so (2013.1, Build901 2013/11/27)

>  <Rbt.Parameter_File>
/export/apps/rDock/src/rDock_2013.1_src/data/scripts/dock_solv.prm

>  <Rbt.Receptor>
prm/pocket_docking_6.prm

>  <SCORE>
-14.8063

>  <SCORE.INTER>
-14.8063

>  <SCORE.INTER.CONST>
1

>  <SCORE.INTER.POLAR>
0

>  <SCORE.INTER.ROT>
0

>  <SCORE.INTER.SOLV>
3.24046

>  <SCORE.INTER.VDW>
-14.551

>  <SCORE.INTER.norm>
-1.48063

>  <SCORE.INTRA>
0

>  <SCORE.INTRA.DIHEDRAL>
0

>  <SCORE.INTRA.DIHEDRAL.0>
0

>  <SCORE.INTRA.POLAR>
0

>  <SCORE.INTRA.POLAR.0>
0

>  <SCORE.INTRA.REPUL>
0

>  <SCORE.INTRA.REPUL.0>
0

>  <SCORE.INTRA.SOLV>
0

>  <SCORE.INTRA.SOLV.lig_0>
-4.15853

>  <SCORE.INTRA.VDW>
0

>  <SCORE.INTRA.VDW.0>
0

>  <SCORE.INTRA.norm>
0

>  <SCORE.RESTR>
0

>  <SCORE.RESTR.CAVITY>
0

>  <SCORE.RESTR.norm>
0

>  <SCORE.SYSTEM>
0

>  <SCORE.SYSTEM.CONST>
0

>  <SCORE.SYSTEM.DIHEDRAL>
0

>  <SCORE.SYSTEM.SOLV>
0

>  <SCORE.SYSTEM.norm>
0

>  <SCORE.heavy>
10

>  <SCORE.norm>
-1.48063

>  <RMSD>
2.308

$$$$
ligand
 OpenBabel02271912153D
libRbt.so/2013.1/901 2013/11/27
 10 11  0  0  0  0  0  0  0  0999 V2000
    0.0217  -13.2237   13.0253 N   0  0  0  0  0  0  0  0  0  0  0  0
   -0.5613  -12.2414   13.6779 C   0  0  0  0  0  0  0  0  0  0  0  0
   -0.1028  -10.9353   13.4885 N   0  0  0  0  0  0  0  0  0  0  0  0
    0.9106  -10.6890   12.6617 C   0  0  0  0  0  0  0  0  0  0  0  0
    1.4951  -11.6770   12.0102 C   0  0  0  0  0  0  0  0  0  0  0  0
    1.0830  -12.9201   12.1759 C   0  0  0  0  0  0  0  0  0  0  0  0
    1.6439  -13.8212   11.5682 O   0  0  0  0  0  0  0  0  0  0  0  0
    2.4670  -11.1759   11.2499 N   0  0  0  0  0  0  0  0  0  0  0  0
    2.4712   -9.8605   11.4347 C   0  0  0  0  0  0  0  0  0  0  0  0
    1.5087   -9.5616   12.3109 N   0  0  0  0  0  0  0  0  0  0  0  0
  1  2  1  0  0  0  0
  1  6  1  0  0  0  0
  2  3  2  0  0  0  0
  3  4  1  0  0  0  0
  4  5  2  0  0  0  0
  4 10  1  0  0  0  0
  5  6  1  0  0  0  0
  5  8  1  0  0  0  0
  6  7  2  0  0  0  0
  8  9  1  0  0  0  0
  9 10  2  0  0  0  0
M  END
>  <CHROM.1>
1.10306295,-11.65399334,12.34599037,2.20987239,-0.70162195,-2.99410111

>  <Name>
ligand

>  <RI>
0

>  <Rbt.Current_Directory>
/home/itssahil/PROJECTS/Mol_Feturizer/Test_systems_manuscript/rnas/5c7w

>  <Rbt.Executable>
rbdock ($Id: //depot/dev/client3/rdock/2013.1/src/exe/rbdock.cxx#4 $)

>  <Rbt.Library>
libRbt.so (2013.1, Build901 2013/11/27)

>  <Rbt.Parameter_File>
/export/apps/rDock/src/rDock_2013.1_src/data/scripts/dock_solv.prm

>  <Rbt.Receptor>
prm/pocket_docking_6.prm

>  <SCORE>
-14.8866

>  <SCORE.INTER>
-14.8866

>  <SCORE.INTER.CONST>
1

>  <SCORE.INTER.POLAR>
0

>  <SCORE.INTER.ROT>
0

>  <SCORE.INTER.SOLV>
3.21155

>  <SCORE.INTER.VDW>
-14.5949

>  <SCORE.INTER.norm>
-1.48866

>  <SCORE.INTRA>
0

>  <SCORE.INTRA.DIHEDRAL>
0

>  <SCORE.INTRA.DIHEDRAL.0>
0

>  <SCORE.INTRA.POLAR>
0

>  <SCORE.INTRA.POLAR.0>
0

>  <SCORE.INTRA.REPUL>
0

>  <SCORE.INTRA.REPUL.0>
0

>  <SCORE.INTRA.SOLV>
0

>  <SCORE.INTRA.SOLV.lig_0>
-4.15853

>  <SCORE.INTRA.VDW>
0

>  <SCORE.INTRA.VDW.0>
0

>  <SCORE.INTRA.norm>
0

>  <SCORE.RESTR>
0

>  <SCORE.RESTR.CAVITY>
0

>  <SCORE.RESTR.norm>
0

>  <SCORE.SYSTEM>
0

>  <SCORE.SYSTEM.CONST>
0

>  <SCORE.SYSTEM.DIHEDRAL>
0

>  <SCORE.SYSTEM.SOLV>
0

>  <SCORE.SYSTEM.norm>
0

>  <SCORE.heavy>
10

>  <SCORE.norm>
-1.48866

>  <RMSD>
2.308

$$$$
ligand
 OpenBabel02271912153D
libRbt.so/2013.1/901 2013/11/27
 10 11  0  0  0  0  0  0  0  0999 V2000
    0.0149  -13.1789   13.0120 N   0  0  0  0  0  0  0  0  0  0  0  0
   -0.5483  -12.1927   13.6761 C   0  0  0  0  0  0  0  0  0  0  0  0
   -0.0725  -10.8921   13.4915 N   0  0  0  0  0  0  0  0  0  0  0  0
    0.9374  -10.6548   12.6578 C   0  0  0  0  0  0  0  0  0  0  0  0
    1.5021  -11.6468   11.9948 C   0  0  0  0  0  0  0  0  0  0  0  0
    1.0733  -12.8849   12.1557 C   0  0  0  0  0  0  0  0  0  0  0  0
    1.6160  -13.7898   11.5373 O   0  0  0  0  0  0  0  0  0  0  0  0
    2.4747  -11.1546   11.2297 N   0  0  0  0  0  0  0  0  0  0  0  0
    2.4995   -9.8407   11.4232 C   0  0  0  0  0  0  0  0  0  0  0  0
    1.5488   -9.5339   12.3095 N   0  0  0  0  0  0  0  0  0  0  0  0
  1  2  1  0  0  0  0
  1  6  1  0  0  0  0
  2  3  2  0  0  0  0
  3  4  1  0  0  0  0
  4  5  2  0  0  0  0
  4 10  1  0  0  0  0
  5  6  1  0  0  0  0
  5  8  1  0  0  0  0
  6  7  2  0  0  0  0
  8  9  1  0  0  0  0
  9 10  2  0  0  0  0
M  END
>  <CHROM.1>
1.11321389,-11.62036546,12.33404159,2.23037337,-0.70766789,-2.97408357

>  <Name>
ligand

>  <RI>
0

>  <Rbt.Current_Directory>
/home/itssahil/PROJECTS/Mol_Feturizer/Test_systems_manuscript/rnas/5c7w

>  <Rbt.Executable>
rbdock ($Id: //depot/dev/client3/rdock/2013.1/src/exe/rbdock.cxx#4 $)

>  <Rbt.Library>
libRbt.so (2013.1, Build901 2013/11/27)

>  <Rbt.Parameter_File>
/export/apps/rDock/src/rDock_2013.1_src/data/scripts/dock_solv.prm

>  <Rbt.Receptor>
prm/pocket_docking_6.prm

>  <SCORE>
-14.8592

>  <SCORE.INTER>
-14.8592

>  <SCORE.INTER.CONST>
1

>  <SCORE.INTER.POLAR>
0

>  <SCORE.INTER.ROT>
0

>  <SCORE.INTER.SOLV>
3.20869

>  <SCORE.INTER.VDW>
-14.5757

>  <SCORE.INTER.norm>
-1.48592

>  <SCORE.INTRA>
0

>  <SCORE.INTRA.DIHEDRAL>
0

>  <SCORE.INTRA.DIHEDRAL.0>
0

>  <SCORE.INTRA.POLAR>
0

>  <SCORE.INTRA.POLAR.0>
0

>  <SCORE.INTRA.REPUL>
0

>  <SCORE.INTRA.REPUL.0>
0

>  <SCORE.INTRA.SOLV>
0

>  <SCORE.INTRA.SOLV.lig_0>
-4.15853

>  <SCORE.INTRA.VDW>
0

>  <SCORE.INTRA.VDW.0>
0

>  <SCORE.INTRA.norm>
0

>  <SCORE.RESTR>
0

>  <SCORE.RESTR.CAVITY>
0

>  <SCORE.RESTR.norm>
0

>  <SCORE.SYSTEM>
0

>  <SCORE.SYSTEM.CONST>
0

>  <SCORE.SYSTEM.DIHEDRAL>
0

>  <SCORE.SYSTEM.SOLV>
0

>  <SCORE.SYSTEM.norm>
0

>  <SCORE.heavy>
10

>  <SCORE.norm>
-1.48592

>  <RMSD>
2.308

$$$$
ligand
 OpenBabel02271912153D
libRbt.so/2013.1/901 2013/11/27
 10 11  0  0  0  0  0  0  0  0999 V2000
    0.0090  -13.1775   13.0069 N   0  0  0  0  0  0  0  0  0  0  0  0
   -0.5862  -12.2157   13.6787 C   0  0  0  0  0  0  0  0  0  0  0  0
   -0.1228  -10.9049   13.5407 N   0  0  0  0  0  0  0  0  0  0  0  0
    0.9075  -10.6338   12.7430 C   0  0  0  0  0  0  0  0  0  0  0  0
    1.5042  -11.6014   12.0721 C   0  0  0  0  0  0  0  0  0  0  0  0
    1.0876  -12.8485   12.1894 C   0  0  0  0  0  0  0  0  0  0  0  0
    1.6599  -13.7305   11.5645 O   0  0  0  0  0  0  0  0  0  0  0  0
    2.4918  -11.0777   11.3481 N   0  0  0  0  0  0  0  0  0  0  0  0
    2.4934   -9.7689   11.5751 C   0  0  0  0  0  0  0  0  0  0  0  0
    1.5136   -9.4967   12.4408 N   0  0  0  0  0  0  0  0  0  0  0  0
  1  2  1  0  0  0  0
  1  6  1  0  0  0  0
  2  3  2  0  0  0  0
  3  4  1  0  0  0  0
  4  5  2  0  0  0  0
  4 10  1  0  0  0  0
  5  6  1  0  0  0  0
  5  8  1  0  0  0  0
  6  7  2  0  0  0  0
  8  9  1  0  0  0  0
  9 10  2  0  0  0  0
M  END
>  <CHROM.1>
1.10539999,-11.58848146,12.40037848,2.20721184,-0.68138370,-2.96369436

>  <Name>
ligand

>  <RI>
0

>  <Rbt.Current_Directory>
/home/itssahil/PROJECTS/Mol_Feturizer/Test_systems_manuscript/rnas/5c7w

>  <Rbt.Executable>
rbdock ($Id: //depot/dev/client3/rdock/2013.1/src/exe/rbdock.cxx#4 $)

>  <Rbt.Library>
libRbt.so (2013.1, Build901 2013/11/27)

>  <Rbt.Parameter_File>
/export/apps/rDock/src/rDock_2013.1_src/data/scripts/dock_solv.prm

>  <Rbt.Receptor>
prm/pocket_docking_6.prm

>  <SCORE>
-14.8911

>  <SCORE.INTER>
-14.8911

>  <SCORE.INTER.CONST>
1

>  <SCORE.INTER.POLAR>
0

>  <SCORE.INTER.ROT>
0

>  <SCORE.INTER.SOLV>
3.18318

>  <SCORE.INTER.VDW>
-14.5884

>  <SCORE.INTER.norm>
-1.48911

>  <SCORE.INTRA>
0

>  <SCORE.INTRA.DIHEDRAL>
0

>  <SCORE.INTRA.DIHEDRAL.0>
0

>  <SCORE.INTRA.POLAR>
0

>  <SCORE.INTRA.POLAR.0>
0

>  <SCORE.INTRA.REPUL>
0

>  <SCORE.INTRA.REPUL.0>
0

>  <SCORE.INTRA.SOLV>
0

>  <SCORE.INTRA.SOLV.lig_0>
-4.15853

>  <SCORE.INTRA.VDW>
0

>  <SCORE.INTRA.VDW.0>
0

>  <SCORE.INTRA.norm>
0

>  <SCORE.RESTR>
0

>  <SCORE.RESTR.CAVITY>
0

>  <SCORE.RESTR.norm>
0

>  <SCORE.SYSTEM>
0

>  <SCORE.SYSTEM.CONST>
0

>  <SCORE.SYSTEM.DIHEDRAL>
0

>  <SCORE.SYSTEM.SOLV>
0

>  <SCORE.SYSTEM.norm>
0

>  <SCORE.heavy>
10

>  <SCORE.norm>
-1.48911

>  <RMSD>
2.308

$$$$
ligand
 OpenBabel02271912153D
libRbt.so/2013.1/901 2013/11/27
 10 11  0  0  0  0  0  0  0  0999 V2000
    0.0274  -13.2418   12.9859 N   0  0  0  0  0  0  0  0  0  0  0  0
   -0.5384  -12.2717   13.6710 C   0  0  0  0  0  0  0  0  0  0  0  0
   -0.0766  -10.9639   13.5027 N   0  0  0  0  0  0  0  0  0  0  0  0
    0.9230  -10.7038   12.6634 C   0  0  0  0  0  0  0  0  0  0  0  0
    1.4904  -11.6797   11.9793 C   0  0  0  0  0  0  0  0  0  0  0  0
    1.0747  -12.9242   12.1243 C   0  0  0  0  0  0  0  0  0  0  0  0
    1.6197  -13.8141   11.4863 O   0  0  0  0  0  0  0  0  0  0  0  0
    2.4510  -11.1663   11.2128 N   0  0  0  0  0  0  0  0  0  0  0  0
    2.4654   -9.8554   11.4272 C   0  0  0  0  0  0  0  0  0  0  0  0
    1.5206   -9.5717   12.3273 N   0  0  0  0  0  0  0  0  0  0  0  0
  1  2  1  0  0  0  0
  1  6  1  0  0  0  0
  2  3  2  0  0  0  0
  3  4  1  0  0  0  0
  4  5  2  0  0  0  0
  4 10  1  0  0  0  0
  5  6  1  0  0  0  0
  5  8  1  0  0  0  0
  6  7  2  0  0  0  0
  8  9  1  0  0  0  0
  9 10  2  0  0  0  0
M  END
>  <CHROM.1>
1.10458951,-11.66238272,12.32254173,2.22035759,-0.71873259,-2.96465535

>  <Name>
ligand

>  <RI>
0

>  <Rbt.Current_Directory>
/home/itssahil/PROJECTS/Mol_Feturizer/Test_systems_manuscript/rnas/5c7w

>  <Rbt.Executable>
rbdock ($Id: //depot/dev/client3/rdock/2013.1/src/exe/rbdock.cxx#4 $)

>  <Rbt.Library>
libRbt.so (2013.1, Build901 2013/11/27)

>  <Rbt.Parameter_File>
/export/apps/rDock/src/rDock_2013.1_src/data/scripts/dock_solv.prm

>  <Rbt.Receptor>
prm/pocket_docking_7.prm

>  <SCORE>
-14.8495

>  <SCORE.INTER>
-14.8495

>  <SCORE.INTER.CONST>
1

>  <SCORE.INTER.POLAR>
0

>  <SCORE.INTER.ROT>
0

>  <SCORE.INTER.SOLV>
3.26547

>  <SCORE.INTER.VDW>
-14.5882

>  <SCORE.INTER.norm>
-1.48495

>  <SCORE.INTRA>
0

>  <SCORE.INTRA.DIHEDRAL>
0

>  <SCORE.INTRA.DIHEDRAL.0>
0

>  <SCORE.INTRA.POLAR>
0

>  <SCORE.INTRA.POLAR.0>
0

>  <SCORE.INTRA.REPUL>
0

>  <SCORE.INTRA.REPUL.0>
0

>  <SCORE.INTRA.SOLV>
0

>  <SCORE.INTRA.SOLV.lig_0>
-4.15853

>  <SCORE.INTRA.VDW>
0

>  <SCORE.INTRA.VDW.0>
0

>  <SCORE.INTRA.norm>
0

>  <SCORE.RESTR>
0

>  <SCORE.RESTR.CAVITY>
0

>  <SCORE.RESTR.norm>
0

>  <SCORE.SYSTEM>
0

>  <SCORE.SYSTEM.CONST>
0

>  <SCORE.SYSTEM.DIHEDRAL>
0

>  <SCORE.SYSTEM.SOLV>
0

>  <SCORE.SYSTEM.norm>
0

>  <SCORE.heavy>
10

>  <SCORE.norm>
-1.48495

>  <RMSD>
2.308

$$$$
ligand
 OpenBabel02271912153D
libRbt.so/2013.1/901 2013/11/27
 10 11  0  0  0  0  0  0  0  0999 V2000
    0.0202  -13.2225   13.0491 N   0  0  0  0  0  0  0  0  0  0  0  0
   -0.5594  -12.2349   13.6968 C   0  0  0  0  0  0  0  0  0  0  0  0
   -0.0968  -10.9313   13.5004 N   0  0  0  0  0  0  0  0  0  0  0  0
    0.9171  -10.6926   12.6720 C   0  0  0  0  0  0  0  0  0  0  0  0
    1.4982  -11.6859   12.0255 C   0  0  0  0  0  0  0  0  0  0  0  0
    1.0821  -12.9268   12.1978 C   0  0  0  0  0  0  0  0  0  0  0  0
    1.6399  -13.8328   11.5946 O   0  0  0  0  0  0  0  0  0  0  0  0
    2.4714  -11.1919   11.2622 N   0  0  0  0  0  0  0  0  0  0  0  0
    2.4799   -9.8756   11.4401 C   0  0  0  0  0  0  0  0  0  0  0  0
    1.5187   -9.5690   12.3151 N   0  0  0  0  0  0  0  0  0  0  0  0
  1  2  1  0  0  0  0
  1  6  1  0  0  0  0
  2  3  2  0  0  0  0
  3  4  1  0  0  0  0
  4  5  2  0  0  0  0
  4 10  1  0  0  0  0
  5  6  1  0  0  0  0
  5  8  1  0  0  0  0
  6  7  2  0  0  0  0
  8  9  1  0  0  0  0
  9 10  2  0  0  0  0
M  END
>  <CHROM.1>
1.10635327,-11.65984036,12.36121147,2.21411001,-0.70151158,-2.99659241

>  <Name>
ligand

>  <RI>
0

>  <Rbt.Current_Directory>
/home/itssahil/PROJECTS/Mol_Feturizer/Test_systems_manuscript/rnas/5c7w

>  <Rbt.Executable>
rbdock ($Id: //depot/dev/client3/rdock/2013.1/src/exe/rbdock.cxx#4 $)

>  <Rbt.Library>
libRbt.so (2013.1, Build901 2013/11/27)

>  <Rbt.Parameter_File>
/export/apps/rDock/src/rDock_2013.1_src/data/scripts/dock_solv.prm

>  <Rbt.Receptor>
prm/pocket_docking_7.prm

>  <SCORE>
-14.9228

>  <SCORE.INTER>
-14.9228

>  <SCORE.INTER.CONST>
1

>  <SCORE.INTER.POLAR>
0

>  <SCORE.INTER.ROT>
0

>  <SCORE.INTER.SOLV>
3.19838

>  <SCORE.INTER.VDW>
-14.6147

>  <SCORE.INTER.norm>
-1.49228

>  <SCORE.INTRA>
0

>  <SCORE.INTRA.DIHEDRAL>
0

>  <SCORE.INTRA.DIHEDRAL.0>
0

>  <SCORE.INTRA.POLAR>
0

>  <SCORE.INTRA.POLAR.0>
0

>  <SCORE.INTRA.REPUL>
0

>  <SCORE.INTRA.REPUL.0>
0

>  <SCORE.INTRA.SOLV>
0

>  <SCORE.INTRA.SOLV.lig_0>
-4.15853

>  <SCORE.INTRA.VDW>
0

>  <SCORE.INTRA.VDW.0>
0

>  <SCORE.INTRA.norm>
0

>  <SCORE.RESTR>
0

>  <SCORE.RESTR.CAVITY>
0

>  <SCORE.RESTR.norm>
0

>  <SCORE.SYSTEM>
0

>  <SCORE.SYSTEM.CONST>
0

>  <SCORE.SYSTEM.DIHEDRAL>
0

>  <SCORE.SYSTEM.SOLV>
0

>  <SCORE.SYSTEM.norm>
0

>  <SCORE.heavy>
10

>  <SCORE.norm>
-1.49228

>  <RMSD>
2.308

$$$$
ligand
 OpenBabel02271912153D
libRbt.so/2013.1/901 2013/11/27
 10 11  0  0  0  0  0  0  0  0999 V2000
    0.0229  -13.2337   13.0450 N   0  0  0  0  0  0  0  0  0  0  0  0
   -0.5646  -12.2480   13.6884 C   0  0  0  0  0  0  0  0  0  0  0  0
   -0.1094  -10.9422   13.4900 N   0  0  0  0  0  0  0  0  0  0  0  0
    0.9055  -10.6993   12.6640 C   0  0  0  0  0  0  0  0  0  0  0  0
    1.4945  -11.6907   12.0217 C   0  0  0  0  0  0  0  0  0  0  0  0
    1.0856  -12.9336   12.1960 C   0  0  0  0  0  0  0  0  0  0  0  0
    1.6507  -13.8378   11.5968 O   0  0  0  0  0  0  0  0  0  0  0  0
    2.4670  -11.1927   11.2601 N   0  0  0  0  0  0  0  0  0  0  0  0
    2.4668   -9.8758   11.4346 C   0  0  0  0  0  0  0  0  0  0  0  0
    1.5012   -9.5729   12.3060 N   0  0  0  0  0  0  0  0  0  0  0  0
  1  2  1  0  0  0  0
  1  6  1  0  0  0  0
  2  3  2  0  0  0  0
  3  4  1  0  0  0  0
  4  5  2  0  0  0  0
  4 10  1  0  0  0  0
  5  6  1  0  0  0  0
  5  8  1  0  0  0  0
  6  7  2  0  0  0  0
  8  9  1  0  0  0  0
  9 10  2  0  0  0  0
M  END
>  <CHROM.1>
1.10153236,-11.66615130,12.35626784,2.20561371,-0.69942943,-3.00463608

>  <Name>
ligand

>  <RI>
0

>  <Rbt.Current_Directory>
/home/itssahil/PROJECTS/Mol_Feturizer/Test_systems_manuscript/rnas/5c7w

>  <Rbt.Executable>
rbdock ($Id: //depot/dev/client3/rdock/2013.1/src/exe/rbdock.cxx#4 $)

>  <Rbt.Library>
libRbt.so (2013.1, Build901 2013/11/27)

>  <Rbt.Parameter_File>
/export/apps/rDock/src/rDock_2013.1_src/data/scripts/dock_solv.prm

>  <Rbt.Receptor>
prm/pocket_docking_7.prm

>  <SCORE>
-14.9201

>  <SCORE.INTER>
-14.9201

>  <SCORE.INTER.CONST>
1

>  <SCORE.INTER.POLAR>
0

>  <SCORE.INTER.ROT>
0

>  <SCORE.INTER.SOLV>
3.20411

>  <SCORE.INTER.VDW>
-14.6147

>  <SCORE.INTER.norm>
-1.49201

>  <SCORE.INTRA>
0

>  <SCORE.INTRA.DIHEDRAL>
0

>  <SCORE.INTRA.DIHEDRAL.0>
0

>  <SCORE.INTRA.POLAR>
0

>  <SCORE.INTRA.POLAR.0>
0

>  <SCORE.INTRA.REPUL>
0

>  <SCORE.INTRA.REPUL.0>
0

>  <SCORE.INTRA.SOLV>
0

>  <SCORE.INTRA.SOLV.lig_0>
-4.15853

>  <SCORE.INTRA.VDW>
0

>  <SCORE.INTRA.VDW.0>
0

>  <SCORE.INTRA.norm>
0

>  <SCORE.RESTR>
0

>  <SCORE.RESTR.CAVITY>
0

>  <SCORE.RESTR.norm>
0

>  <SCORE.SYSTEM>
0

>  <SCORE.SYSTEM.CONST>
0

>  <SCORE.SYSTEM.DIHEDRAL>
0

>  <SCORE.SYSTEM.SOLV>
0

>  <SCORE.SYSTEM.norm>
0

>  <SCORE.heavy>
10

>  <SCORE.norm>
-1.49201

>  <RMSD>
2.308

$$$$
ligand
 OpenBabel02271912153D
libRbt.so/2013.1/901 2013/11/27
 10 11  0  0  0  0  0  0  0  0999 V2000
    0.0184  -13.1976   13.0023 N   0  0  0  0  0  0  0  0  0  0  0  0
   -0.5741  -12.2409   13.6837 C   0  0  0  0  0  0  0  0  0  0  0  0
   -0.1128  -10.9288   13.5516 N   0  0  0  0  0  0  0  0  0  0  0  0
    0.9128  -10.6513   12.7501 C   0  0  0  0  0  0  0  0  0  0  0  0
    1.5068  -11.6139   12.0696 C   0  0  0  0  0  0  0  0  0  0  0  0
    1.0921  -12.8622   12.1811 C   0  0  0  0  0  0  0  0  0  0  0  0
    1.6619  -13.7395   11.5474 O   0  0  0  0  0  0  0  0  0  0  0  0
    2.4899  -11.0845   11.3437 N   0  0  0  0  0  0  0  0  0  0  0  0
    2.4914   -9.7772   11.5792 C   0  0  0  0  0  0  0  0  0  0  0  0
    1.5161   -9.5117   12.4520 N   0  0  0  0  0  0  0  0  0  0  0  0
  1  2  1  0  0  0  0
  1  6  1  0  0  0  0
  2  3  2  0  0  0  0
  3  4  1  0  0  0  0
  4  5  2  0  0  0  0
  4 10  1  0  0  0  0
  5  6  1  0  0  0  0
  5  8  1  0  0  0  0
  6  7  2  0  0  0  0
  8  9  1  0  0  0  0
  9 10  2  0  0  0  0
M  END
>  <CHROM.1>
1.10980657,-11.60357063,12.40017465,2.20717212,-0.68695801,-2.95719612

>  <Name>
ligand

>  <RI>
0

>  <Rbt.Current_Directory>
/home/itssahil/PROJECTS/Mol_Feturizer/Test_systems_manuscript/rnas/5c7w

>  <Rbt.Executable>
rbdock ($Id: //depot/dev/client3/rdock/2013.1/src/exe/rbdock.cxx#4 $)

>  <Rbt.Library>
libRbt.so (2013.1, Build901 2013/11/27)

>  <Rbt.Parameter_File>
/export/apps/rDock/src/rDock_2013.1_src/data/scripts/dock_solv.prm

>  <Rbt.Receptor>
prm/pocket_docking_8.prm

>  <SCORE>
-14.9124

>  <SCORE.INTER>
-14.9124

>  <SCORE.INTER.CONST>
1

>  <SCORE.INTER.POLAR>
0

>  <SCORE.INTER.ROT>
0

>  <SCORE.INTER.SOLV>
3.20362

>  <SCORE.INTER.VDW>
-14.6095

>  <SCORE.INTER.norm>
-1.49124

>  <SCORE.INTRA>
0

>  <SCORE.INTRA.DIHEDRAL>
0

>  <SCORE.INTRA.DIHEDRAL.0>
0

>  <SCORE.INTRA.POLAR>
0

>  <SCORE.INTRA.POLAR.0>
0

>  <SCORE.INTRA.REPUL>
0

>  <SCORE.INTRA.REPUL.0>
0

>  <SCORE.INTRA.SOLV>
0

>  <SCORE.INTRA.SOLV.lig_0>
-4.15853

>  <SCORE.INTRA.VDW>
0

>  <SCORE.INTRA.VDW.0>
0

>  <SCORE.INTRA.norm>
0

>  <SCORE.RESTR>
0

>  <SCORE.RESTR.CAVITY>
0

>  <SCORE.RESTR.norm>
0

>  <SCORE.SYSTEM>
0

>  <SCORE.SYSTEM.CONST>
0

>  <SCORE.SYSTEM.DIHEDRAL>
0

>  <SCORE.SYSTEM.SOLV>
0

>  <SCORE.SYSTEM.norm>
0

>  <SCORE.heavy>
10

>  <SCORE.norm>
-1.49124

>  <RMSD>
2.308

$$$$
ligand
 OpenBabel02271912153D
libRbt.so/2013.1/901 2013/11/27
 10 11  0  0  0  0  0  0  0  0999 V2000
    0.0255  -13.1994   12.9972 N   0  0  0  0  0  0  0  0  0  0  0  0
   -0.5700  -12.2436   13.6772 C   0  0  0  0  0  0  0  0  0  0  0  0
   -0.1112  -10.9306   13.5452 N   0  0  0  0  0  0  0  0  0  0  0  0
    0.9151  -10.6514   12.7451 C   0  0  0  0  0  0  0  0  0  0  0  0
    1.5121  -11.6131   12.0661 C   0  0  0  0  0  0  0  0  0  0  0  0
    1.0998  -12.8622   12.1775 C   0  0  0  0  0  0  0  0  0  0  0  0
    1.6724  -13.7386   11.5451 O   0  0  0  0  0  0  0  0  0  0  0  0
    2.4952  -11.0819   11.3413 N   0  0  0  0  0  0  0  0  0  0  0  0
    2.4937   -9.7745   11.5762 C   0  0  0  0  0  0  0  0  0  0  0  0
    1.5164   -9.5106   12.4474 N   0  0  0  0  0  0  0  0  0  0  0  0
  1  2  1  0  0  0  0
  1  6  1  0  0  0  0
  2  3  2  0  0  0  0
  3  4  1  0  0  0  0
  4  5  2  0  0  0  0
  4 10  1  0  0  0  0
  5  6  1  0  0  0  0
  5  8  1  0  0  0  0
  6  7  2  0  0  0  0
  8  9  1  0  0  0  0
  9 10  2  0  0  0  0
M  END
>  <CHROM.1>
1.11458108,-11.60339664,12.39598463,2.20417566,-0.68582422,-2.95958851

>  <Name>
ligand

>  <RI>
0

>  <Rbt.Current_Directory>
/home/itssahil/PROJECTS/Mol_Feturizer/Test_systems_manuscript/rnas/5c7w

>  <Rbt.Executable>
rbdock ($Id: //depot/dev/client3/rdock/2013.1/src/exe/rbdock.cxx#4 $)

>  <Rbt.Library>
libRbt.so (2013.1, Build901 2013/11/27)

>  <Rbt.Parameter_File>
/export/apps/rDock/src/rDock_2013.1_src/data/scripts/dock_solv.prm

>  <Rbt.Receptor>
prm/pocket_docking_8.prm

>  <SCORE>
-14.916

>  <SCORE.INTER>
-14.916

>  <SCORE.INTER.CONST>
1

>  <SCORE.INTER.POLAR>
0

>  <SCORE.INTER.ROT>
0

>  <SCORE.INTER.SOLV>
3.20722

>  <SCORE.INTER.VDW>
-14.613

>  <SCORE.INTER.norm>
-1.4916

>  <SCORE.INTRA>
0

>  <SCORE.INTRA.DIHEDRAL>
0

>  <SCORE.INTRA.DIHEDRAL.0>
0

>  <SCORE.INTRA.POLAR>
0

>  <SCORE.INTRA.POLAR.0>
0

>  <SCORE.INTRA.REPUL>
0

>  <SCORE.INTRA.REPUL.0>
0

>  <SCORE.INTRA.SOLV>
0

>  <SCORE.INTRA.SOLV.lig_0>
-4.15853

>  <SCORE.INTRA.VDW>
0

>  <SCORE.INTRA.VDW.0>
0

>  <SCORE.INTRA.norm>
0

>  <SCORE.RESTR>
0

>  <SCORE.RESTR.CAVITY>
0

>  <SCORE.RESTR.norm>
0

>  <SCORE.SYSTEM>
0

>  <SCORE.SYSTEM.CONST>
0

>  <SCORE.SYSTEM.DIHEDRAL>
0

>  <SCORE.SYSTEM.SOLV>
0

>  <SCORE.SYSTEM.norm>
0

>  <SCORE.heavy>
10

>  <SCORE.norm>
-1.4916

>  <RMSD>
2.308

$$$$
ligand
 OpenBabel02271912153D
libRbt.so/2013.1/901 2013/11/27
 10 11  0  0  0  0  0  0  0  0999 V2000
   -0.0067  -13.1299   12.9848 N   0  0  0  0  0  0  0  0  0  0  0  0
   -0.5867  -12.1618   13.6608 C   0  0  0  0  0  0  0  0  0  0  0  0
   -0.1036  -10.8577   13.5272 N   0  0  0  0  0  0  0  0  0  0  0  0
    0.9299  -10.5992   12.7295 C   0  0  0  0  0  0  0  0  0  0  0  0
    1.5113  -11.5731   12.0545 C   0  0  0  0  0  0  0  0  0  0  0  0
    1.0760  -12.8142   12.1675 C   0  0  0  0  0  0  0  0  0  0  0  0
    1.6344  -13.7025   11.5389 O   0  0  0  0  0  0  0  0  0  0  0  0
    2.5061  -11.0617   11.3315 N   0  0  0  0  0  0  0  0  0  0  0  0
    2.5277   -9.7540   11.5634 C   0  0  0  0  0  0  0  0  0  0  0  0
    1.5529   -9.4702   12.4309 N   0  0  0  0  0  0  0  0  0  0  0  0
  1  2  1  0  0  0  0
  1  6  1  0  0  0  0
  2  3  2  0  0  0  0
  3  4  1  0  0  0  0
  4  5  2  0  0  0  0
  4 10  1  0  0  0  0
  5  6  1  0  0  0  0
  5  8  1  0  0  0  0
  6  7  2  0  0  0  0
  8  9  1  0  0  0  0
  9 10  2  0  0  0  0
M  END
>  <CHROM.1>
1.11309552,-11.55544986,12.38317300,2.22655252,-0.67949170,-2.94780254

>  <Name>
ligand

>  <RI>
0

>  <Rbt.Current_Directory>
/home/itssahil/PROJECTS/Mol_Feturizer/Test_systems_manuscript/rnas/5c7w

>  <Rbt.Executable>
rbdock ($Id: //depot/dev/client3/rdock/2013.1/src/exe/rbdock.cxx#4 $)

>  <Rbt.Library>
libRbt.so (2013.1, Build901 2013/11/27)

>  <Rbt.Parameter_File>
/export/apps/rDock/src/rDock_2013.1_src/data/scripts/dock_solv.prm

>  <Rbt.Receptor>
prm/pocket_docking_8.prm

>  <SCORE>
-14.8549

>  <SCORE.INTER>
-14.8549

>  <SCORE.INTER.CONST>
1

>  <SCORE.INTER.POLAR>
0

>  <SCORE.INTER.ROT>
0

>  <SCORE.INTER.SOLV>
3.16675

>  <SCORE.INTER.VDW>
-14.5589

>  <SCORE.INTER.norm>
-1.48549

>  <SCORE.INTRA>
0

>  <SCORE.INTRA.DIHEDRAL>
0

>  <SCORE.INTRA.DIHEDRAL.0>
0

>  <SCORE.INTRA.POLAR>
0

>  <SCORE.INTRA.POLAR.0>
0

>  <SCORE.INTRA.REPUL>
0

>  <SCORE.INTRA.REPUL.0>
0

>  <SCORE.INTRA.SOLV>
0

>  <SCORE.INTRA.SOLV.lig_0>
-4.15853

>  <SCORE.INTRA.VDW>
0

>  <SCORE.INTRA.VDW.0>
0

>  <SCORE.INTRA.norm>
0

>  <SCORE.RESTR>
0

>  <SCORE.RESTR.CAVITY>
0

>  <SCORE.RESTR.norm>
0

>  <SCORE.SYSTEM>
0

>  <SCORE.SYSTEM.CONST>
0

>  <SCORE.SYSTEM.DIHEDRAL>
0

>  <SCORE.SYSTEM.SOLV>
0

>  <SCORE.SYSTEM.norm>
0

>  <SCORE.heavy>
10

>  <SCORE.norm>
-1.48549

>  <RMSD>
2.308

$$$$
ligand
 OpenBabel02271912153D
libRbt.so/2013.1/901 2013/11/27
 10 11  0  0  0  0  0  0  0  0999 V2000
    0.0187  -13.2528   13.0259 N   0  0  0  0  0  0  0  0  0  0  0  0
   -0.5885  -12.2632   13.6446 C   0  0  0  0  0  0  0  0  0  0  0  0
   -0.1329  -10.9576   13.4453 N   0  0  0  0  0  0  0  0  0  0  0  0
    0.9019  -10.7188   12.6432 C   0  0  0  0  0  0  0  0  0  0  0  0
    1.5107  -11.7141   12.0258 C   0  0  0  0  0  0  0  0  0  0  0  0
    1.1017  -12.9569   12.2015 C   0  0  0  0  0  0  0  0  0  0  0  0
    1.6851  -13.8646   11.6257 O   0  0  0  0  0  0  0  0  0  0  0  0
    2.5006  -11.2197   11.2845 N   0  0  0  0  0  0  0  0  0  0  0  0
    2.4913   -9.9013   11.4464 C   0  0  0  0  0  0  0  0  0  0  0  0
    1.5026   -9.5937   12.2898 N   0  0  0  0  0  0  0  0  0  0  0  0
  1  2  1  0  0  0  0
  1  6  1  0  0  0  0
  2  3  2  0  0  0  0
  3  4  1  0  0  0  0
  4  5  2  0  0  0  0
  4 10  1  0  0  0  0
  5  6  1  0  0  0  0
  5  8  1  0  0  0  0
  6  7  2  0  0  0  0
  8  9  1  0  0  0  0
  9 10  2  0  0  0  0
M  END
>  <CHROM.1>
1.10914111,-11.68785728,12.34995941,2.19672747,-0.67452933,-3.01983650

>  <Name>
ligand

>  <RI>
0

>  <Rbt.Current_Directory>
/home/itssahil/PROJECTS/Mol_Feturizer/Test_systems_manuscript/rnas/5c7w

>  <Rbt.Executable>
rbdock ($Id: //depot/dev/client3/rdock/2013.1/src/exe/rbdock.cxx#4 $)

>  <Rbt.Library>
libRbt.so (2013.1, Build901 2013/11/27)

>  <Rbt.Parameter_File>
/export/apps/rDock/src/rDock_2013.1_src/data/scripts/dock_solv.prm

>  <Rbt.Receptor>
prm/blind_docking_100.prm

>  <SCORE>
-14.9212

>  <SCORE.INTER>
-14.9212

>  <SCORE.INTER.CONST>
1

>  <SCORE.INTER.POLAR>
0

>  <SCORE.INTER.ROT>
0

>  <SCORE.INTER.SOLV>
3.16855

>  <SCORE.INTER.VDW>
-14.6036

>  <SCORE.INTER.norm>
-1.49212

>  <SCORE.INTRA>
0

>  <SCORE.INTRA.DIHEDRAL>
0

>  <SCORE.INTRA.DIHEDRAL.0>
0

>  <SCORE.INTRA.POLAR>
0

>  <SCORE.INTRA.POLAR.0>
0

>  <SCORE.INTRA.REPUL>
0

>  <SCORE.INTRA.REPUL.0>
0

>  <SCORE.INTRA.SOLV>
0

>  <SCORE.INTRA.SOLV.lig_0>
-4.15853

>  <SCORE.INTRA.VDW>
0

>  <SCORE.INTRA.VDW.0>
0

>  <SCORE.INTRA.norm>
0

>  <SCORE.RESTR>
0

>  <SCORE.RESTR.CAVITY>
0

>  <SCORE.RESTR.norm>
0

>  <SCORE.SYSTEM>
0

>  <SCORE.SYSTEM.CONST>
0

>  <SCORE.SYSTEM.DIHEDRAL>
0

>  <SCORE.SYSTEM.SOLV>
0

>  <SCORE.SYSTEM.norm>
0

>  <SCORE.heavy>
10

>  <SCORE.norm>
-1.49212

>  <RMSD>
2.309

$$$$
ligand
 OpenBabel02271912153D
libRbt.so/2013.1/901 2013/11/27
 10 11  0  0  0  0  0  0  0  0999 V2000
    0.0248  -13.2635   13.0384 N   0  0  0  0  0  0  0  0  0  0  0  0
   -0.5871  -12.2725   13.6501 C   0  0  0  0  0  0  0  0  0  0  0  0
   -0.1425  -10.9655   13.4357 N   0  0  0  0  0  0  0  0  0  0  0  0
    0.8867  -10.7268   12.6264 C   0  0  0  0  0  0  0  0  0  0  0  0
    1.5002  -11.7236   12.0160 C   0  0  0  0  0  0  0  0  0  0  0  0
    1.1015  -12.9676   12.2060 C   0  0  0  0  0  0  0  0  0  0  0  0
    1.6891  -13.8765   11.6364 O   0  0  0  0  0  0  0  0  0  0  0  0
    2.4827  -11.2291   11.2650 N   0  0  0  0  0  0  0  0  0  0  0  0
    2.4642   -9.9093   11.4138 C   0  0  0  0  0  0  0  0  0  0  0  0
    1.4772   -9.6008   12.2589 N   0  0  0  0  0  0  0  0  0  0  0  0
  1  2  1  0  0  0  0
  1  6  1  0  0  0  0
  2  3  2  0  0  0  0
  3  4  1  0  0  0  0
  4  5  2  0  0  0  0
  4 10  1  0  0  0  0
  5  6  1  0  0  0  0
  5  8  1  0  0  0  0
  6  7  2  0  0  0  0
  8  9  1  0  0  0  0
  9 10  2  0  0  0  0
M  END
>  <CHROM.1>
1.09998171,-11.69714521,12.34173334,2.18770449,-0.68011655,-3.03544286

>  <Name>
ligand

>  <RI>
0

>  <Rbt.Current_Directory>
/home/itssahil/PROJECTS/Mol_Feturizer/Test_systems_manuscript/rnas/5c7w

>  <Rbt.Executable>
rbdock ($Id: //depot/dev/client3/rdock/2013.1/src/exe/rbdock.cxx#4 $)

>  <Rbt.Library>
libRbt.so (2013.1, Build901 2013/11/27)

>  <Rbt.Parameter_File>
/export/apps/rDock/src/rDock_2013.1_src/data/scripts/dock_solv.prm

>  <Rbt.Receptor>
prm/blind_docking_100.prm

>  <SCORE>
-14.8738

>  <SCORE.INTER>
-14.8738

>  <SCORE.INTER.CONST>
1

>  <SCORE.INTER.POLAR>
0

>  <SCORE.INTER.ROT>
0

>  <SCORE.INTER.SOLV>
3.18596

>  <SCORE.INTER.VDW>
-14.5778

>  <SCORE.INTER.norm>
-1.48738

>  <SCORE.INTRA>
0

>  <SCORE.INTRA.DIHEDRAL>
0

>  <SCORE.INTRA.DIHEDRAL.0>
0

>  <SCORE.INTRA.POLAR>
0

>  <SCORE.INTRA.POLAR.0>
0

>  <SCORE.INTRA.REPUL>
0

>  <SCORE.INTRA.REPUL.0>
0

>  <SCORE.INTRA.SOLV>
0

>  <SCORE.INTRA.SOLV.lig_0>
-4.15853

>  <SCORE.INTRA.VDW>
0

>  <SCORE.INTRA.VDW.0>
0

>  <SCORE.INTRA.norm>
0

>  <SCORE.RESTR>
0

>  <SCORE.RESTR.CAVITY>
0

>  <SCORE.RESTR.norm>
0

>  <SCORE.SYSTEM>
0

>  <SCORE.SYSTEM.CONST>
0

>  <SCORE.SYSTEM.DIHEDRAL>
0

>  <SCORE.SYSTEM.SOLV>
0

>  <SCORE.SYSTEM.norm>
0

>  <SCORE.heavy>
10

>  <SCORE.norm>
-1.48738

>  <RMSD>
2.309

$$$$
ligand
 OpenBabel02271912153D
libRbt.so/2013.1/901 2013/11/27
 10 11  0  0  0  0  0  0  0  0999 V2000
    0.0176  -13.1752   13.0038 N   0  0  0  0  0  0  0  0  0  0  0  0
   -0.5458  -12.1901   13.6692 C   0  0  0  0  0  0  0  0  0  0  0  0
   -0.0697  -10.8893   13.4869 N   0  0  0  0  0  0  0  0  0  0  0  0
    0.9407  -10.6508   12.6542 C   0  0  0  0  0  0  0  0  0  0  0  0
    1.5055  -11.6418   11.9899 C   0  0  0  0  0  0  0  0  0  0  0  0
    1.0765  -12.8801   12.1486 C   0  0  0  0  0  0  0  0  0  0  0  0
    1.6194  -13.7841   11.5290 O   0  0  0  0  0  0  0  0  0  0  0  0
    2.4787  -11.1485   11.2261 N   0  0  0  0  0  0  0  0  0  0  0  0
    2.5036   -9.8349   11.4218 C   0  0  0  0  0  0  0  0  0  0  0  0
    1.5524   -9.5294   12.3080 N   0  0  0  0  0  0  0  0  0  0  0  0
  1  2  1  0  0  0  0
  1  6  1  0  0  0  0
  2  3  2  0  0  0  0
  3  4  1  0  0  0  0
  4  5  2  0  0  0  0
  4 10  1  0  0  0  0
  5  6  1  0  0  0  0
  5  8  1  0  0  0  0
  6  7  2  0  0  0  0
  8  9  1  0  0  0  0
  9 10  2  0  0  0  0
M  END
>  <CHROM.1>
1.11650306,-11.61582518,12.32896141,2.23044168,-0.70709227,-2.97243957

>  <Name>
ligand

>  <RI>
0

>  <Rbt.Current_Directory>
/home/itssahil/PROJECTS/Mol_Feturizer/Test_systems_manuscript/rnas/5c7w

>  <Rbt.Executable>
rbdock ($Id: //depot/dev/client3/rdock/2013.1/src/exe/rbdock.cxx#4 $)

>  <Rbt.Library>
libRbt.so (2013.1, Build901 2013/11/27)

>  <Rbt.Parameter_File>
/export/apps/rDock/src/rDock_2013.1_src/data/scripts/dock_solv.prm

>  <Rbt.Receptor>
prm/blind_docking_100.prm

>  <SCORE>
-14.8591

>  <SCORE.INTER>
-14.8591

>  <SCORE.INTER.CONST>
1

>  <SCORE.INTER.POLAR>
0

>  <SCORE.INTER.ROT>
0

>  <SCORE.INTER.SOLV>
3.21275

>  <SCORE.INTER.VDW>
-14.577

>  <SCORE.INTER.norm>
-1.48591

>  <SCORE.INTRA>
0

>  <SCORE.INTRA.DIHEDRAL>
0

>  <SCORE.INTRA.DIHEDRAL.0>
0

>  <SCORE.INTRA.POLAR>
0

>  <SCORE.INTRA.POLAR.0>
0

>  <SCORE.INTRA.REPUL>
0

>  <SCORE.INTRA.REPUL.0>
0

>  <SCORE.INTRA.SOLV>
0

>  <SCORE.INTRA.SOLV.lig_0>
-4.15853

>  <SCORE.INTRA.VDW>
0

>  <SCORE.INTRA.VDW.0>
0

>  <SCORE.INTRA.norm>
0

>  <SCORE.RESTR>
0

>  <SCORE.RESTR.CAVITY>
0

>  <SCORE.RESTR.norm>
0

>  <SCORE.SYSTEM>
0

>  <SCORE.SYSTEM.CONST>
0

>  <SCORE.SYSTEM.DIHEDRAL>
0

>  <SCORE.SYSTEM.SOLV>
0

>  <SCORE.SYSTEM.norm>
0

>  <SCORE.heavy>
10

>  <SCORE.norm>
-1.48591

>  <RMSD>
2.309

$$$$
ligand
 OpenBabel02271912153D
libRbt.so/2013.1/901 2013/11/27
 10 11  0  0  0  0  0  0  0  0999 V2000
    0.0237  -13.1941   12.9989 N   0  0  0  0  0  0  0  0  0  0  0  0
   -0.5746  -12.2344   13.6710 C   0  0  0  0  0  0  0  0  0  0  0  0
   -0.1117  -10.9230   13.5377 N   0  0  0  0  0  0  0  0  0  0  0  0
    0.9210  -10.6490   12.7443 C   0  0  0  0  0  0  0  0  0  0  0  0
    1.5208  -11.6145   12.0731 C   0  0  0  0  0  0  0  0  0  0  0  0
    1.1049  -12.8622   12.1859 C   0  0  0  0  0  0  0  0  0  0  0  0
    1.6800  -13.7422   11.5609 O   0  0  0  0  0  0  0  0  0  0  0  0
    2.5105  -11.0882   11.3538 N   0  0  0  0  0  0  0  0  0  0  0  0
    2.5103   -9.7800   11.5840 C   0  0  0  0  0  0  0  0  0  0  0  0
    1.5272   -9.5107   12.4469 N   0  0  0  0  0  0  0  0  0  0  0  0
  1  2  1  0  0  0  0
  1  6  1  0  0  0  0
  2  3  2  0  0  0  0
  3  4  1  0  0  0  0
  4  5  2  0  0  0  0
  4 10  1  0  0  0  0
  5  6  1  0  0  0  0
  5  8  1  0  0  0  0
  6  7  2  0  0  0  0
  8  9  1  0  0  0  0
  9 10  2  0  0  0  0
M  END
>  <CHROM.1>
1.12090932,-11.60272540,12.40002673,2.20539242,-0.67814152,-2.96240085

>  <Name>
ligand

>  <RI>
0

>  <Rbt.Current_Directory>
/home/itssahil/PROJECTS/Mol_Feturizer/Test_systems_manuscript/rnas/5c7w

>  <Rbt.Executable>
rbdock ($Id: //depot/dev/client3/rdock/2013.1/src/exe/rbdock.cxx#4 $)

>  <Rbt.Library>
libRbt.so (2013.1, Build901 2013/11/27)

>  <Rbt.Parameter_File>
/export/apps/rDock/src/rDock_2013.1_src/data/scripts/dock_solv.prm

>  <Rbt.Receptor>
prm/blind_docking_20.prm

>  <SCORE>
-14.9139

>  <SCORE.INTER>
-14.9139

>  <SCORE.INTER.CONST>
1

>  <SCORE.INTER.POLAR>
0

>  <SCORE.INTER.ROT>
0

>  <SCORE.INTER.SOLV>
3.1893

>  <SCORE.INTER.VDW>
-14.6057

>  <SCORE.INTER.norm>
-1.49139

>  <SCORE.INTRA>
0

>  <SCORE.INTRA.DIHEDRAL>
0

>  <SCORE.INTRA.DIHEDRAL.0>
0

>  <SCORE.INTRA.POLAR>
0

>  <SCORE.INTRA.POLAR.0>
0

>  <SCORE.INTRA.REPUL>
0

>  <SCORE.INTRA.REPUL.0>
0

>  <SCORE.INTRA.SOLV>
0

>  <SCORE.INTRA.SOLV.lig_0>
-4.15853

>  <SCORE.INTRA.VDW>
0

>  <SCORE.INTRA.VDW.0>
0

>  <SCORE.INTRA.norm>
0

>  <SCORE.RESTR>
0

>  <SCORE.RESTR.CAVITY>
0

>  <SCORE.RESTR.norm>
0

>  <SCORE.SYSTEM>
0

>  <SCORE.SYSTEM.CONST>
0

>  <SCORE.SYSTEM.DIHEDRAL>
0

>  <SCORE.SYSTEM.SOLV>
0

>  <SCORE.SYSTEM.norm>
0

>  <SCORE.heavy>
10

>  <SCORE.norm>
-1.49139

>  <RMSD>
2.309

$$$$
ligand
 OpenBabel02271912153D
libRbt.so/2013.1/901 2013/11/27
 10 11  0  0  0  0  0  0  0  0999 V2000
    0.0249  -13.2336   13.0437 N   0  0  0  0  0  0  0  0  0  0  0  0
   -0.5577  -12.2460   13.6887 C   0  0  0  0  0  0  0  0  0  0  0  0
   -0.0964  -10.9421   13.4918 N   0  0  0  0  0  0  0  0  0  0  0  0
    0.9192  -10.7029   12.6656 C   0  0  0  0  0  0  0  0  0  0  0  0
    1.5033  -11.6962   12.0217 C   0  0  0  0  0  0  0  0  0  0  0  0
    1.0885  -12.9375   12.1946 C   0  0  0  0  0  0  0  0  0  0  0  0
    1.6490  -13.8435   11.5939 O   0  0  0  0  0  0  0  0  0  0  0  0
    2.4777  -11.2018   11.2602 N   0  0  0  0  0  0  0  0  0  0  0  0
    2.4839   -9.8853   11.4366 C   0  0  0  0  0  0  0  0  0  0  0  0
    1.5201   -9.5789   12.3088 N   0  0  0  0  0  0  0  0  0  0  0  0
  1  2  1  0  0  0  0
  1  6  1  0  0  0  0
  2  3  2  0  0  0  0
  3  4  1  0  0  0  0
  4  5  2  0  0  0  0
  4 10  1  0  0  0  0
  5  6  1  0  0  0  0
  5  8  1  0  0  0  0
  6  7  2  0  0  0  0
  8  9  1  0  0  0  0
  9 10  2  0  0  0  0
M  END
>  <CHROM.1>
1.11056028,-11.67028794,12.35649608,2.21183233,-0.69926492,-2.99931213

>  <Name>
ligand

>  <RI>
0

>  <Rbt.Current_Directory>
/home/itssahil/PROJECTS/Mol_Feturizer/Test_systems_manuscript/rnas/5c7w

>  <Rbt.Executable>
rbdock ($Id: //depot/dev/client3/rdock/2013.1/src/exe/rbdock.cxx#4 $)

>  <Rbt.Library>
libRbt.so (2013.1, Build901 2013/11/27)

>  <Rbt.Parameter_File>
/export/apps/rDock/src/rDock_2013.1_src/data/scripts/dock_solv.prm

>  <Rbt.Receptor>
prm/blind_docking_20.prm

>  <SCORE>
-14.9216

>  <SCORE.INTER>
-14.9216

>  <SCORE.INTER.CONST>
1

>  <SCORE.INTER.POLAR>
0

>  <SCORE.INTER.ROT>
0

>  <SCORE.INTER.SOLV>
3.20115

>  <SCORE.INTER.VDW>
-14.6148

>  <SCORE.INTER.norm>
-1.49216

>  <SCORE.INTRA>
0

>  <SCORE.INTRA.DIHEDRAL>
0

>  <SCORE.INTRA.DIHEDRAL.0>
0

>  <SCORE.INTRA.POLAR>
0

>  <SCORE.INTRA.POLAR.0>
0

>  <SCORE.INTRA.REPUL>
0

>  <SCORE.INTRA.REPUL.0>
0

>  <SCORE.INTRA.SOLV>
0

>  <SCORE.INTRA.SOLV.lig_0>
-4.15853

>  <SCORE.INTRA.VDW>
0

>  <SCORE.INTRA.VDW.0>
0

>  <SCORE.INTRA.norm>
0

>  <SCORE.RESTR>
0

>  <SCORE.RESTR.CAVITY>
0

>  <SCORE.RESTR.norm>
0

>  <SCORE.SYSTEM>
0

>  <SCORE.SYSTEM.CONST>
0

>  <SCORE.SYSTEM.DIHEDRAL>
0

>  <SCORE.SYSTEM.SOLV>
0

>  <SCORE.SYSTEM.norm>
0

>  <SCORE.heavy>
10

>  <SCORE.norm>
-1.49216

>  <RMSD>
2.309

$$$$
ligand
 OpenBabel02271912153D
libRbt.so/2013.1/901 2013/11/27
 10 11  0  0  0  0  0  0  0  0999 V2000
    0.0149  -13.1926   13.0353 N   0  0  0  0  0  0  0  0  0  0  0  0
   -0.5507  -12.2014   13.6896 C   0  0  0  0  0  0  0  0  0  0  0  0
   -0.0712  -10.9029   13.5001 N   0  0  0  0  0  0  0  0  0  0  0  0
    0.9446  -10.6726   12.6717 C   0  0  0  0  0  0  0  0  0  0  0  0
    1.5116  -11.6697   12.0185 C   0  0  0  0  0  0  0  0  0  0  0  0
    1.0795  -12.9060   12.1841 C   0  0  0  0  0  0  0  0  0  0  0  0
    1.6244  -13.8157   11.5748 O   0  0  0  0  0  0  0  0  0  0  0  0
    2.4902  -11.1841   11.2567 N   0  0  0  0  0  0  0  0  0  0  0  0
    2.5163   -9.8690   11.4423 C   0  0  0  0  0  0  0  0  0  0  0  0
    1.5604   -9.5549   12.3205 N   0  0  0  0  0  0  0  0  0  0  0  0
  1  2  1  0  0  0  0
  1  6  1  0  0  0  0
  2  3  2  0  0  0  0
  3  4  1  0  0  0  0
  4  5  2  0  0  0  0
  4 10  1  0  0  0  0
  5  6  1  0  0  0  0
  5  8  1  0  0  0  0
  6  7  2  0  0  0  0
  8  9  1  0  0  0  0
  9 10  2  0  0  0  0
M  END
>  <CHROM.1>
1.12061478,-11.64042681,12.35495937,2.23143932,-0.70089649,-2.97953126

>  <Name>
ligand

>  <RI>
0

>  <Rbt.Current_Directory>
/home/itssahil/PROJECTS/Mol_Feturizer/Test_systems_manuscript/rnas/5c7w

>  <Rbt.Executable>
rbdock ($Id: //depot/dev/client3/rdock/2013.1/src/exe/rbdock.cxx#4 $)

>  <Rbt.Library>
libRbt.so (2013.1, Build901 2013/11/27)

>  <Rbt.Parameter_File>
/export/apps/rDock/src/rDock_2013.1_src/data/scripts/dock_solv.prm

>  <Rbt.Receptor>
prm/blind_docking_20.prm

>  <SCORE>
-14.8794

>  <SCORE.INTER>
-14.8794

>  <SCORE.INTER.CONST>
1

>  <SCORE.INTER.POLAR>
0

>  <SCORE.INTER.ROT>
0

>  <SCORE.INTER.SOLV>
3.1885

>  <SCORE.INTER.VDW>
-14.5824

>  <SCORE.INTER.norm>
-1.48794

>  <SCORE.INTRA>
0

>  <SCORE.INTRA.DIHEDRAL>
0

>  <SCORE.INTRA.DIHEDRAL.0>
0

>  <SCORE.INTRA.POLAR>
0

>  <SCORE.INTRA.POLAR.0>
0

>  <SCORE.INTRA.REPUL>
0

>  <SCORE.INTRA.REPUL.0>
0

>  <SCORE.INTRA.SOLV>
0

>  <SCORE.INTRA.SOLV.lig_0>
-4.15853

>  <SCORE.INTRA.VDW>
0

>  <SCORE.INTRA.VDW.0>
0

>  <SCORE.INTRA.norm>
0

>  <SCORE.RESTR>
0

>  <SCORE.RESTR.CAVITY>
0

>  <SCORE.RESTR.norm>
0

>  <SCORE.SYSTEM>
0

>  <SCORE.SYSTEM.CONST>
0

>  <SCORE.SYSTEM.DIHEDRAL>
0

>  <SCORE.SYSTEM.SOLV>
0

>  <SCORE.SYSTEM.norm>
0

>  <SCORE.heavy>
10

>  <SCORE.norm>
-1.48794

>  <RMSD>
2.309

$$$$
ligand
 OpenBabel02271912153D
libRbt.so/2013.1/901 2013/11/27
 10 11  0  0  0  0  0  0  0  0999 V2000
    0.0212  -13.2287   13.0446 N   0  0  0  0  0  0  0  0  0  0  0  0
   -0.5569  -12.2417   13.6945 C   0  0  0  0  0  0  0  0  0  0  0  0
   -0.0908  -10.9387   13.5027 N   0  0  0  0  0  0  0  0  0  0  0  0
    0.9249  -10.6999   12.6764 C   0  0  0  0  0  0  0  0  0  0  0  0
    1.5044  -11.6927   12.0277 C   0  0  0  0  0  0  0  0  0  0  0  0
    1.0850  -12.9331   12.1956 C   0  0  0  0  0  0  0  0  0  0  0  0
    1.6414  -13.8387   11.5905 O   0  0  0  0  0  0  0  0  0  0  0  0
    2.4799  -11.1988   11.2672 N   0  0  0  0  0  0  0  0  0  0  0  0
    2.4913   -9.8830   11.4492 C   0  0  0  0  0  0  0  0  0  0  0  0
    1.5297   -9.5767   12.3238 N   0  0  0  0  0  0  0  0  0  0  0  0
  1  2  1  0  0  0  0
  1  6  1  0  0  0  0
  2  3  2  0  0  0  0
  3  4  1  0  0  0  0
  4  5  2  0  0  0  0
  4 10  1  0  0  0  0
  5  6  1  0  0  0  0
  5  8  1  0  0  0  0
  6  7  2  0  0  0  0
  8  9  1  0  0  0  0
  9 10  2  0  0  0  0
M  END
>  <CHROM.1>
1.11212436,-11.66670183,12.36296948,2.21702547,-0.69977034,-2.99167475

>  <Name>
ligand

>  <RI>
0

>  <Rbt.Current_Directory>
/home/itssahil/PROJECTS/Mol_Feturizer/Test_systems_manuscript/rnas/5c7w

>  <Rbt.Executable>
rbdock ($Id: //depot/dev/client3/rdock/2013.1/src/exe/rbdock.cxx#4 $)

>  <Rbt.Library>
libRbt.so (2013.1, Build901 2013/11/27)

>  <Rbt.Parameter_File>
/export/apps/rDock/src/rDock_2013.1_src/data/scripts/dock_solv.prm

>  <Rbt.Receptor>
prm/blind_docking_40.prm

>  <SCORE>
-14.9199

>  <SCORE.INTER>
-14.9199

>  <SCORE.INTER.CONST>
1

>  <SCORE.INTER.POLAR>
0

>  <SCORE.INTER.ROT>
0

>  <SCORE.INTER.SOLV>
3.19679

>  <SCORE.INTER.VDW>
-14.6122

>  <SCORE.INTER.norm>
-1.49199

>  <SCORE.INTRA>
0

>  <SCORE.INTRA.DIHEDRAL>
0

>  <SCORE.INTRA.DIHEDRAL.0>
0

>  <SCORE.INTRA.POLAR>
0

>  <SCORE.INTRA.POLAR.0>
0

>  <SCORE.INTRA.REPUL>
0

>  <SCORE.INTRA.REPUL.0>
0

>  <SCORE.INTRA.SOLV>
0

>  <SCORE.INTRA.SOLV.lig_0>
-4.15853

>  <SCORE.INTRA.VDW>
0

>  <SCORE.INTRA.VDW.0>
0

>  <SCORE.INTRA.norm>
0

>  <SCORE.RESTR>
0

>  <SCORE.RESTR.CAVITY>
0

>  <SCORE.RESTR.norm>
0

>  <SCORE.SYSTEM>
0

>  <SCORE.SYSTEM.CONST>
0

>  <SCORE.SYSTEM.DIHEDRAL>
0

>  <SCORE.SYSTEM.SOLV>
0

>  <SCORE.SYSTEM.norm>
0

>  <SCORE.heavy>
10

>  <SCORE.norm>
-1.49199

>  <RMSD>
2.309

$$$$
ligand
 OpenBabel02271912153D
libRbt.so/2013.1/901 2013/11/27
 10 11  0  0  0  0  0  0  0  0999 V2000
    0.0261  -13.1983   12.9928 N   0  0  0  0  0  0  0  0  0  0  0  0
   -0.5675  -12.2428   13.6749 C   0  0  0  0  0  0  0  0  0  0  0  0
   -0.1070  -10.9302   13.5447 N   0  0  0  0  0  0  0  0  0  0  0  0
    0.9189  -10.6511   12.7442 C   0  0  0  0  0  0  0  0  0  0  0  0
    1.5140  -11.6124   12.0630 C   0  0  0  0  0  0  0  0  0  0  0  0
    1.1002  -12.8611   12.1727 C   0  0  0  0  0  0  0  0  0  0  0  0
    1.6710  -13.7373   11.5383 O   0  0  0  0  0  0  0  0  0  0  0  0
    2.4972  -11.0814   11.3384 N   0  0  0  0  0  0  0  0  0  0  0  0
    2.4977   -9.7744   11.5754 C   0  0  0  0  0  0  0  0  0  0  0  0
    1.5215   -9.5106   12.4479 N   0  0  0  0  0  0  0  0  0  0  0  0
  1  2  1  0  0  0  0
  1  6  1  0  0  0  0
  2  3  2  0  0  0  0
  3  4  1  0  0  0  0
  4  5  2  0  0  0  0
  4 10  1  0  0  0  0
  5  6  1  0  0  0  0
  5  8  1  0  0  0  0
  6  7  2  0  0  0  0
  8  9  1  0  0  0  0
  9 10  2  0  0  0  0
M  END
>  <CHROM.1>
1.11680508,-11.60275612,12.39331729,2.20610220,-0.68642446,-2.95669284

>  <Name>
ligand

>  <RI>
0

>  <Rbt.Current_Directory>
/home/itssahil/PROJECTS/Mol_Feturizer/Test_systems_manuscript/rnas/5c7w

>  <Rbt.Executable>
rbdock ($Id: //depot/dev/client3/rdock/2013.1/src/exe/rbdock.cxx#4 $)

>  <Rbt.Library>
libRbt.so (2013.1, Build901 2013/11/27)

>  <Rbt.Parameter_File>
/export/apps/rDock/src/rDock_2013.1_src/data/scripts/dock_solv.prm

>  <Rbt.Receptor>
prm/blind_docking_40.prm

>  <SCORE>
-14.916

>  <SCORE.INTER>
-14.916

>  <SCORE.INTER.CONST>
1

>  <SCORE.INTER.POLAR>
0

>  <SCORE.INTER.ROT>
0

>  <SCORE.INTER.SOLV>
3.21024

>  <SCORE.INTER.VDW>
-14.614

>  <SCORE.INTER.norm>
-1.4916

>  <SCORE.INTRA>
0

>  <SCORE.INTRA.DIHEDRAL>
0

>  <SCORE.INTRA.DIHEDRAL.0>
0

>  <SCORE.INTRA.POLAR>
0

>  <SCORE.INTRA.POLAR.0>
0

>  <SCORE.INTRA.REPUL>
0

>  <SCORE.INTRA.REPUL.0>
0

>  <SCORE.INTRA.SOLV>
0

>  <SCORE.INTRA.SOLV.lig_0>
-4.15853

>  <SCORE.INTRA.VDW>
0

>  <SCORE.INTRA.VDW.0>
0

>  <SCORE.INTRA.norm>
0

>  <SCORE.RESTR>
0

>  <SCORE.RESTR.CAVITY>
0

>  <SCORE.RESTR.norm>
0

>  <SCORE.SYSTEM>
0

>  <SCORE.SYSTEM.CONST>
0

>  <SCORE.SYSTEM.DIHEDRAL>
0

>  <SCORE.SYSTEM.SOLV>
0

>  <SCORE.SYSTEM.norm>
0

>  <SCORE.heavy>
10

>  <SCORE.norm>
-1.4916

>  <RMSD>
2.309

$$$$
ligand
 OpenBabel02271912153D
libRbt.so/2013.1/901 2013/11/27
 10 11  0  0  0  0  0  0  0  0999 V2000
    0.0249  -13.1921   13.0057 N   0  0  0  0  0  0  0  0  0  0  0  0
   -0.5691  -12.2316   13.6804 C   0  0  0  0  0  0  0  0  0  0  0  0
   -0.1052  -10.9208   13.5449 N   0  0  0  0  0  0  0  0  0  0  0  0
    0.9244  -10.6483   12.7467 C   0  0  0  0  0  0  0  0  0  0  0  0
    1.5199  -11.6146   12.0730 C   0  0  0  0  0  0  0  0  0  0  0  0
    1.1028  -12.8618   12.1878 C   0  0  0  0  0  0  0  0  0  0  0  0
    1.6740  -13.7427   11.5604 O   0  0  0  0  0  0  0  0  0  0  0  0
    2.5070  -11.0898   11.3492 N   0  0  0  0  0  0  0  0  0  0  0  0
    2.5095   -9.7815   11.5792 C   0  0  0  0  0  0  0  0  0  0  0  0
    1.5307   -9.5108   12.4465 N   0  0  0  0  0  0  0  0  0  0  0  0
  1  2  1  0  0  0  0
  1  6  1  0  0  0  0
  2  3  2  0  0  0  0
  3  4  1  0  0  0  0
  4  5  2  0  0  0  0
  4 10  1  0  0  0  0
  5  6  1  0  0  0  0
  5  8  1  0  0  0  0
  6  7  2  0  0  0  0
  8  9  1  0  0  0  0
  9 10  2  0  0  0  0
M  END
>  <CHROM.1>
1.12146163,-11.60231501,12.40173005,2.20807144,-0.68231613,-2.96085422

>  <Name>
ligand

>  <RI>
0

>  <Rbt.Current_Directory>
/home/itssahil/PROJECTS/Mol_Feturizer/Test_systems_manuscript/rnas/5c7w

>  <Rbt.Executable>
rbdock ($Id: //depot/dev/client3/rdock/2013.1/src/exe/rbdock.cxx#4 $)

>  <Rbt.Library>
libRbt.so (2013.1, Build901 2013/11/27)

>  <Rbt.Parameter_File>
/export/apps/rDock/src/rDock_2013.1_src/data/scripts/dock_solv.prm

>  <Rbt.Receptor>
prm/blind_docking_60.prm

>  <SCORE>
-14.9148

>  <SCORE.INTER>
-14.9148

>  <SCORE.INTER.CONST>
1

>  <SCORE.INTER.POLAR>
0

>  <SCORE.INTER.ROT>
0

>  <SCORE.INTER.SOLV>
3.19274

>  <SCORE.INTER.VDW>
-14.6075

>  <SCORE.INTER.norm>
-1.49148

>  <SCORE.INTRA>
0

>  <SCORE.INTRA.DIHEDRAL>
0

>  <SCORE.INTRA.DIHEDRAL.0>
0

>  <SCORE.INTRA.POLAR>
0

>  <SCORE.INTRA.POLAR.0>
0

>  <SCORE.INTRA.REPUL>
0

>  <SCORE.INTRA.REPUL.0>
0

>  <SCORE.INTRA.SOLV>
0

>  <SCORE.INTRA.SOLV.lig_0>
-4.15853

>  <SCORE.INTRA.VDW>
0

>  <SCORE.INTRA.VDW.0>
0

>  <SCORE.INTRA.norm>
0

>  <SCORE.RESTR>
0

>  <SCORE.RESTR.CAVITY>
0

>  <SCORE.RESTR.norm>
0

>  <SCORE.SYSTEM>
0

>  <SCORE.SYSTEM.CONST>
0

>  <SCORE.SYSTEM.DIHEDRAL>
0

>  <SCORE.SYSTEM.SOLV>
0

>  <SCORE.SYSTEM.norm>
0

>  <SCORE.heavy>
10

>  <SCORE.norm>
-1.49148

>  <RMSD>
2.309

$$$$
ligand
 OpenBabel02271912153D
libRbt.so/2013.1/901 2013/11/27
 10 11  0  0  0  0  0  0  0  0999 V2000
    0.0216  -13.2335   13.0440 N   0  0  0  0  0  0  0  0  0  0  0  0
   -0.5572  -12.2459   13.6924 C   0  0  0  0  0  0  0  0  0  0  0  0
   -0.0928  -10.9427   13.4978 N   0  0  0  0  0  0  0  0  0  0  0  0
    0.9221  -10.7043   12.6705 C   0  0  0  0  0  0  0  0  0  0  0  0
    1.5024  -11.6976   12.0233 C   0  0  0  0  0  0  0  0  0  0  0  0
    1.0846  -12.9382   12.1939 C   0  0  0  0  0  0  0  0  0  0  0  0
    1.6417  -13.8443   11.5901 O   0  0  0  0  0  0  0  0  0  0  0  0
    2.4769  -11.2040   11.2614 N   0  0  0  0  0  0  0  0  0  0  0  0
    2.4869   -9.8879   11.4409 C   0  0  0  0  0  0  0  0  0  0  0  0
    1.5254   -9.5811   12.3154 N   0  0  0  0  0  0  0  0  0  0  0  0
  1  2  1  0  0  0  0
  1  6  1  0  0  0  0
  2  3  2  0  0  0  0
  3  4  1  0  0  0  0
  4  5  2  0  0  0  0
  4 10  1  0  0  0  0
  5  6  1  0  0  0  0
  5  8  1  0  0  0  0
  6  7  2  0  0  0  0
  8  9  1  0  0  0  0
  9 10  2  0  0  0  0
M  END
>  <CHROM.1>
1.11031825,-11.67146836,12.35880997,2.21561937,-0.70050926,-2.99447013

>  <Name>
ligand

>  <RI>
0

>  <Rbt.Current_Directory>
/home/itssahil/PROJECTS/Mol_Feturizer/Test_systems_manuscript/rnas/5c7w

>  <Rbt.Executable>
rbdock ($Id: //depot/dev/client3/rdock/2013.1/src/exe/rbdock.cxx#4 $)

>  <Rbt.Library>
libRbt.so (2013.1, Build901 2013/11/27)

>  <Rbt.Parameter_File>
/export/apps/rDock/src/rDock_2013.1_src/data/scripts/dock_solv.prm

>  <Rbt.Receptor>
prm/blind_docking_80.prm

>  <SCORE>
-14.9203

>  <SCORE.INTER>
-14.9203

>  <SCORE.INTER.CONST>
1

>  <SCORE.INTER.POLAR>
0

>  <SCORE.INTER.ROT>
0

>  <SCORE.INTER.SOLV>
3.20118

>  <SCORE.INTER.VDW>
-14.6139

>  <SCORE.INTER.norm>
-1.49203

>  <SCORE.INTRA>
0

>  <SCORE.INTRA.DIHEDRAL>
0

>  <SCORE.INTRA.DIHEDRAL.0>
0

>  <SCORE.INTRA.POLAR>
0

>  <SCORE.INTRA.POLAR.0>
0

>  <SCORE.INTRA.REPUL>
0

>  <SCORE.INTRA.REPUL.0>
0

>  <SCORE.INTRA.SOLV>
0

>  <SCORE.INTRA.SOLV.lig_0>
-4.15853

>  <SCORE.INTRA.VDW>
0

>  <SCORE.INTRA.VDW.0>
0

>  <SCORE.INTRA.norm>
0

>  <SCORE.RESTR>
0

>  <SCORE.RESTR.CAVITY>
0

>  <SCORE.RESTR.norm>
0

>  <SCORE.SYSTEM>
0

>  <SCORE.SYSTEM.CONST>
0

>  <SCORE.SYSTEM.DIHEDRAL>
0

>  <SCORE.SYSTEM.SOLV>
0

>  <SCORE.SYSTEM.norm>
0

>  <SCORE.heavy>
10

>  <SCORE.norm>
-1.49203

>  <RMSD>
2.309

$$$$
ligand
 OpenBabel02271912153D
libRbt.so/2013.1/901 2013/11/27
 10 11  0  0  0  0  0  0  0  0999 V2000
    0.0203  -13.2343   13.0418 N   0  0  0  0  0  0  0  0  0  0  0  0
   -0.5626  -12.2462   13.6857 C   0  0  0  0  0  0  0  0  0  0  0  0
   -0.0997  -10.9427   13.4899 N   0  0  0  0  0  0  0  0  0  0  0  0
    0.9179  -10.7044   12.6658 C   0  0  0  0  0  0  0  0  0  0  0  0
    1.5023  -11.6982   12.0230 C   0  0  0  0  0  0  0  0  0  0  0  0
    1.0859  -12.9391   12.1949 C   0  0  0  0  0  0  0  0  0  0  0  0
    1.6467  -13.8456   11.5953 O   0  0  0  0  0  0  0  0  0  0  0  0
    2.4787  -11.2047   11.2636 N   0  0  0  0  0  0  0  0  0  0  0  0
    2.4858   -9.8882   11.4401 C   0  0  0  0  0  0  0  0  0  0  0  0
    1.5206   -9.5810   12.3103 N   0  0  0  0  0  0  0  0  0  0  0  0
  1  2  1  0  0  0  0
  1  6  1  0  0  0  0
  2  3  2  0  0  0  0
  3  4  1  0  0  0  0
  4  5  2  0  0  0  0
  4 10  1  0  0  0  0
  5  6  1  0  0  0  0
  5  8  1  0  0  0  0
  6  7  2  0  0  0  0
  8  9  1  0  0  0  0
  9 10  2  0  0  0  0
M  END
>  <CHROM.1>
1.10888850,-11.67195979,12.35699864,2.21273647,-0.69710567,-2.99862312

>  <Name>
ligand

>  <RI>
0

>  <Rbt.Current_Directory>
/home/itssahil/PROJECTS/Mol_Feturizer/Test_systems_manuscript/rnas/5c7w

>  <Rbt.Executable>
rbdock ($Id: //depot/dev/client3/rdock/2013.1/src/exe/rbdock.cxx#4 $)

>  <Rbt.Library>
libRbt.so (2013.1, Build901 2013/11/27)

>  <Rbt.Parameter_File>
/export/apps/rDock/src/rDock_2013.1_src/data/scripts/dock_solv.prm

>  <Rbt.Receptor>
prm/blind_docking_80.prm

>  <SCORE>
-14.92

>  <SCORE.INTER>
-14.92

>  <SCORE.INTER.CONST>
1

>  <SCORE.INTER.POLAR>
0

>  <SCORE.INTER.ROT>
0

>  <SCORE.INTER.SOLV>
3.19674

>  <SCORE.INTER.VDW>
-14.6123

>  <SCORE.INTER.norm>
-1.492

>  <SCORE.INTRA>
0

>  <SCORE.INTRA.DIHEDRAL>
0

>  <SCORE.INTRA.DIHEDRAL.0>
0

>  <SCORE.INTRA.POLAR>
0

>  <SCORE.INTRA.POLAR.0>
0

>  <SCORE.INTRA.REPUL>
0

>  <SCORE.INTRA.REPUL.0>
0

>  <SCORE.INTRA.SOLV>
0

>  <SCORE.INTRA.SOLV.lig_0>
-4.15853

>  <SCORE.INTRA.VDW>
0

>  <SCORE.INTRA.VDW.0>
0

>  <SCORE.INTRA.norm>
0

>  <SCORE.RESTR>
0

>  <SCORE.RESTR.CAVITY>
0

>  <SCORE.RESTR.norm>
0

>  <SCORE.SYSTEM>
0

>  <SCORE.SYSTEM.CONST>
0

>  <SCORE.SYSTEM.DIHEDRAL>
0

>  <SCORE.SYSTEM.SOLV>
0

>  <SCORE.SYSTEM.norm>
0

>  <SCORE.heavy>
10

>  <SCORE.norm>
-1.492

>  <RMSD>
2.309

$$$$
ligand
 OpenBabel02271912153D
libRbt.so/2013.1/901 2013/11/27
 10 11  0  0  0  0  0  0  0  0999 V2000
    0.0266  -13.2419   13.0429 N   0  0  0  0  0  0  0  0  0  0  0  0
   -0.5551  -12.2567   13.6923 C   0  0  0  0  0  0  0  0  0  0  0  0
   -0.0949  -10.9519   13.4986 N   0  0  0  0  0  0  0  0  0  0  0  0
    0.9188  -10.7095   12.6710 C   0  0  0  0  0  0  0  0  0  0  0  0
    1.5020  -11.7004   12.0227 C   0  0  0  0  0  0  0  0  0  0  0  0
    1.0883  -12.9425   12.1925 C   0  0  0  0  0  0  0  0  0  0  0  0
    1.6480  -13.8462   11.5877 O   0  0  0  0  0  0  0  0  0  0  0  0
    2.4745  -11.2030   11.2607 N   0  0  0  0  0  0  0  0  0  0  0  0
    2.4803   -9.8870   11.4413 C   0  0  0  0  0  0  0  0  0  0  0  0
    1.5182   -9.5840   12.3165 N   0  0  0  0  0  0  0  0  0  0  0  0
  1  2  1  0  0  0  0
  1  6  1  0  0  0  0
  2  3  2  0  0  0  0
  3  4  1  0  0  0  0
  4  5  2  0  0  0  0
  4 10  1  0  0  0  0
  5  6  1  0  0  0  0
  5  8  1  0  0  0  0
  6  7  2  0  0  0  0
  8  9  1  0  0  0  0
  9 10  2  0  0  0  0
M  END
>  <CHROM.1>
1.10996848,-11.67578876,12.35842363,2.21152926,-0.70147854,-2.99628735

>  <Name>
ligand

>  <RI>
0

>  <Rbt.Current_Directory>
/home/itssahil/PROJECTS/Mol_Feturizer/Test_systems_manuscript/rnas/5c7w

>  <Rbt.Executable>
rbdock ($Id: //depot/dev/client3/rdock/2013.1/src/exe/rbdock.cxx#4 $)

>  <Rbt.Library>
libRbt.so (2013.1, Build901 2013/11/27)

>  <Rbt.Parameter_File>
/export/apps/rDock/src/rDock_2013.1_src/data/scripts/dock_solv.prm

>  <Rbt.Receptor>
prm/pocket_docking_5.prm

>  <SCORE>
-14.9196

>  <SCORE.INTER>
-14.9196

>  <SCORE.INTER.CONST>
1

>  <SCORE.INTER.POLAR>
0

>  <SCORE.INTER.ROT>
0

>  <SCORE.INTER.SOLV>
3.20787

>  <SCORE.INTER.VDW>
-14.6157

>  <SCORE.INTER.norm>
-1.49196

>  <SCORE.INTRA>
0

>  <SCORE.INTRA.DIHEDRAL>
0

>  <SCORE.INTRA.DIHEDRAL.0>
0

>  <SCORE.INTRA.POLAR>
0

>  <SCORE.INTRA.POLAR.0>
0

>  <SCORE.INTRA.REPUL>
0

>  <SCORE.INTRA.REPUL.0>
0

>  <SCORE.INTRA.SOLV>
0

>  <SCORE.INTRA.SOLV.lig_0>
-4.15853

>  <SCORE.INTRA.VDW>
0

>  <SCORE.INTRA.VDW.0>
0

>  <SCORE.INTRA.norm>
0

>  <SCORE.RESTR>
0

>  <SCORE.RESTR.CAVITY>
0

>  <SCORE.RESTR.norm>
0

>  <SCORE.SYSTEM>
0

>  <SCORE.SYSTEM.CONST>
0

>  <SCORE.SYSTEM.DIHEDRAL>
0

>  <SCORE.SYSTEM.SOLV>
0

>  <SCORE.SYSTEM.norm>
0

>  <SCORE.heavy>
10

>  <SCORE.norm>
-1.49196

>  <RMSD>
2.309

$$$$
ligand
 OpenBabel02271912153D
libRbt.so/2013.1/901 2013/11/27
 10 11  0  0  0  0  0  0  0  0999 V2000
    0.0308  -13.2778   12.9284 N   0  0  0  0  0  0  0  0  0  0  0  0
   -0.5513  -12.3151   13.6102 C   0  0  0  0  0  0  0  0  0  0  0  0
   -0.1020  -11.0021   13.4482 N   0  0  0  0  0  0  0  0  0  0  0  0
    0.9019  -10.7299   12.6179 C   0  0  0  0  0  0  0  0  0  0  0  0
    1.4856  -11.6984   11.9370 C   0  0  0  0  0  0  0  0  0  0  0  0
    1.0820  -12.9476   12.0764 C   0  0  0  0  0  0  0  0  0  0  0  0
    1.6420  -13.8304   11.4417 O   0  0  0  0  0  0  0  0  0  0  0  0
    2.4472  -11.1734   11.1798 N   0  0  0  0  0  0  0  0  0  0  0  0
    2.4458   -9.8628   11.3965 C   0  0  0  0  0  0  0  0  0  0  0  0
    1.4902   -9.5909   12.2889 N   0  0  0  0  0  0  0  0  0  0  0  0
  1  2  1  0  0  0  0
  1  6  1  0  0  0  0
  2  3  2  0  0  0  0
  3  4  1  0  0  0  0
  4  5  2  0  0  0  0
  4 10  1  0  0  0  0
  5  6  1  0  0  0  0
  5  8  1  0  0  0  0
  6  7  2  0  0  0  0
  8  9  1  0  0  0  0
  9 10  2  0  0  0  0
M  END
>  <CHROM.1>
1.09668259,-11.68581769,12.27700410,2.20443715,-0.71208638,-2.97336740

>  <Name>
ligand

>  <RI>
0

>  <Rbt.Current_Directory>
/home/itssahil/PROJECTS/Mol_Feturizer/Test_systems_manuscript/rnas/5c7w

>  <Rbt.Executable>
rbdock ($Id: //depot/dev/client3/rdock/2013.1/src/exe/rbdock.cxx#4 $)

>  <Rbt.Library>
libRbt.so (2013.1, Build901 2013/11/27)

>  <Rbt.Parameter_File>
/export/apps/rDock/src/rDock_2013.1_src/data/scripts/dock_solv.prm

>  <Rbt.Receptor>
prm/pocket_docking_5.prm

>  <SCORE>
-14.8536

>  <SCORE.INTER>
-14.8536

>  <SCORE.INTER.CONST>
1

>  <SCORE.INTER.POLAR>
0

>  <SCORE.INTER.ROT>
0

>  <SCORE.INTER.SOLV>
3.296

>  <SCORE.INTER.VDW>
-14.601

>  <SCORE.INTER.norm>
-1.48536

>  <SCORE.INTRA>
0

>  <SCORE.INTRA.DIHEDRAL>
0

>  <SCORE.INTRA.DIHEDRAL.0>
0

>  <SCORE.INTRA.POLAR>
0

>  <SCORE.INTRA.POLAR.0>
0

>  <SCORE.INTRA.REPUL>
0

>  <SCORE.INTRA.REPUL.0>
0

>  <SCORE.INTRA.SOLV>
0

>  <SCORE.INTRA.SOLV.lig_0>
-4.15853

>  <SCORE.INTRA.VDW>
0

>  <SCORE.INTRA.VDW.0>
0

>  <SCORE.INTRA.norm>
0

>  <SCORE.RESTR>
0

>  <SCORE.RESTR.CAVITY>
0

>  <SCORE.RESTR.norm>
0

>  <SCORE.SYSTEM>
0

>  <SCORE.SYSTEM.CONST>
0

>  <SCORE.SYSTEM.DIHEDRAL>
0

>  <SCORE.SYSTEM.SOLV>
0

>  <SCORE.SYSTEM.norm>
0

>  <SCORE.heavy>
10

>  <SCORE.norm>
-1.48536

>  <RMSD>
2.309

$$$$
ligand
 OpenBabel02271912153D
libRbt.so/2013.1/901 2013/11/27
 10 11  0  0  0  0  0  0  0  0999 V2000
    0.0255  -13.1946   13.0028 N   0  0  0  0  0  0  0  0  0  0  0  0
   -0.5686  -12.2363   13.6804 C   0  0  0  0  0  0  0  0  0  0  0  0
   -0.1072  -10.9244   13.5461 N   0  0  0  0  0  0  0  0  0  0  0  0
    0.9201  -10.6488   12.7461 C   0  0  0  0  0  0  0  0  0  0  0  0
    1.5157  -11.6130   12.0694 C   0  0  0  0  0  0  0  0  0  0  0  0
    1.1010  -12.8610   12.1830 C   0  0  0  0  0  0  0  0  0  0  0  0
    1.6723  -13.7398   11.5528 O   0  0  0  0  0  0  0  0  0  0  0  0
    2.5003  -11.0852   11.3443 N   0  0  0  0  0  0  0  0  0  0  0  0
    2.5011   -9.7773   11.5766 C   0  0  0  0  0  0  0  0  0  0  0  0
    1.5238   -9.5098   12.4465 N   0  0  0  0  0  0  0  0  0  0  0  0
  1  2  1  0  0  0  0
  1  6  1  0  0  0  0
  2  3  2  0  0  0  0
  3  4  1  0  0  0  0
  4  5  2  0  0  0  0
  4 10  1  0  0  0  0
  5  6  1  0  0  0  0
  5  8  1  0  0  0  0
  6  7  2  0  0  0  0
  8  9  1  0  0  0  0
  9 10  2  0  0  0  0
M  END
>  <CHROM.1>
1.11802905,-11.60187189,12.39905461,2.20643827,-0.68482832,-2.96016301

>  <Name>
ligand

>  <RI>
0

>  <Rbt.Current_Directory>
/home/itssahil/PROJECTS/Mol_Feturizer/Test_systems_manuscript/rnas/5c7w

>  <Rbt.Executable>
rbdock ($Id: //depot/dev/client3/rdock/2013.1/src/exe/rbdock.cxx#4 $)

>  <Rbt.Library>
libRbt.so (2013.1, Build901 2013/11/27)

>  <Rbt.Parameter_File>
/export/apps/rDock/src/rDock_2013.1_src/data/scripts/dock_solv.prm

>  <Rbt.Receptor>
prm/pocket_docking_5.prm

>  <SCORE>
-14.9164

>  <SCORE.INTER>
-14.9164

>  <SCORE.INTER.CONST>
1

>  <SCORE.INTER.POLAR>
0

>  <SCORE.INTER.ROT>
0

>  <SCORE.INTER.SOLV>
3.20032

>  <SCORE.INTER.VDW>
-14.611

>  <SCORE.INTER.norm>
-1.49164

>  <SCORE.INTRA>
0

>  <SCORE.INTRA.DIHEDRAL>
0

>  <SCORE.INTRA.DIHEDRAL.0>
0

>  <SCORE.INTRA.POLAR>
0

>  <SCORE.INTRA.POLAR.0>
0

>  <SCORE.INTRA.REPUL>
0

>  <SCORE.INTRA.REPUL.0>
0

>  <SCORE.INTRA.SOLV>
0

>  <SCORE.INTRA.SOLV.lig_0>
-4.15853

>  <SCORE.INTRA.VDW>
0

>  <SCORE.INTRA.VDW.0>
0

>  <SCORE.INTRA.norm>
0

>  <SCORE.RESTR>
0

>  <SCORE.RESTR.CAVITY>
0

>  <SCORE.RESTR.norm>
0

>  <SCORE.SYSTEM>
0

>  <SCORE.SYSTEM.CONST>
0

>  <SCORE.SYSTEM.DIHEDRAL>
0

>  <SCORE.SYSTEM.SOLV>
0

>  <SCORE.SYSTEM.norm>
0

>  <SCORE.heavy>
10

>  <SCORE.norm>
-1.49164

>  <RMSD>
2.309

$$$$
ligand
 OpenBabel02271912153D
libRbt.so/2013.1/901 2013/11/27
 10 11  0  0  0  0  0  0  0  0999 V2000
    0.0258  -13.2392   13.0493 N   0  0  0  0  0  0  0  0  0  0  0  0
   -0.5559  -12.2483   13.6900 C   0  0  0  0  0  0  0  0  0  0  0  0
   -0.0954  -10.9453   13.4851 N   0  0  0  0  0  0  0  0  0  0  0  0
    0.9187  -10.7103   12.6559 C   0  0  0  0  0  0  0  0  0  0  0  0
    1.5019  -11.7069   12.0164 C   0  0  0  0  0  0  0  0  0  0  0  0
    1.0878  -12.9474   12.1967 C   0  0  0  0  0  0  0  0  0  0  0  0
    1.6475  -13.8565   11.6000 O   0  0  0  0  0  0  0  0  0  0  0  0
    2.4748  -11.2164   11.2505 N   0  0  0  0  0  0  0  0  0  0  0  0
    2.4809   -9.8989   11.4196 C   0  0  0  0  0  0  0  0  0  0  0  0
    1.5185   -9.5881   12.2919 N   0  0  0  0  0  0  0  0  0  0  0  0
  1  2  1  0  0  0  0
  1  6  1  0  0  0  0
  2  3  2  0  0  0  0
  3  4  1  0  0  0  0
  4  5  2  0  0  0  0
  4 10  1  0  0  0  0
  5  6  1  0  0  0  0
  5  8  1  0  0  0  0
  6  7  2  0  0  0  0
  8  9  1  0  0  0  0
  9 10  2  0  0  0  0
M  END
>  <CHROM.1>
1.10975083,-11.67930341,12.35170865,2.21177385,-0.70106775,-3.00479640

>  <Name>
ligand

>  <RI>
0

>  <Rbt.Current_Directory>
/home/itssahil/PROJECTS/Mol_Feturizer/Test_systems_manuscript/rnas/5c7w

>  <Rbt.Executable>
rbdock ($Id: //depot/dev/client3/rdock/2013.1/src/exe/rbdock.cxx#4 $)

>  <Rbt.Library>
libRbt.so (2013.1, Build901 2013/11/27)

>  <Rbt.Parameter_File>
/export/apps/rDock/src/rDock_2013.1_src/data/scripts/dock_solv.prm

>  <Rbt.Receptor>
prm/pocket_docking_6.prm

>  <SCORE>
-14.9182

>  <SCORE.INTER>
-14.9182

>  <SCORE.INTER.CONST>
1

>  <SCORE.INTER.POLAR>
0

>  <SCORE.INTER.ROT>
0

>  <SCORE.INTER.SOLV>
3.2061

>  <SCORE.INTER.VDW>
-14.6141

>  <SCORE.INTER.norm>
-1.49182

>  <SCORE.INTRA>
0

>  <SCORE.INTRA.DIHEDRAL>
0

>  <SCORE.INTRA.DIHEDRAL.0>
0

>  <SCORE.INTRA.POLAR>
0

>  <SCORE.INTRA.POLAR.0>
0

>  <SCORE.INTRA.REPUL>
0

>  <SCORE.INTRA.REPUL.0>
0

>  <SCORE.INTRA.SOLV>
0

>  <SCORE.INTRA.SOLV.lig_0>
-4.15853

>  <SCORE.INTRA.VDW>
0

>  <SCORE.INTRA.VDW.0>
0

>  <SCORE.INTRA.norm>
0

>  <SCORE.RESTR>
0

>  <SCORE.RESTR.CAVITY>
0

>  <SCORE.RESTR.norm>
0

>  <SCORE.SYSTEM>
0

>  <SCORE.SYSTEM.CONST>
0

>  <SCORE.SYSTEM.DIHEDRAL>
0

>  <SCORE.SYSTEM.SOLV>
0

>  <SCORE.SYSTEM.norm>
0

>  <SCORE.heavy>
10

>  <SCORE.norm>
-1.49182

>  <RMSD>
2.309

$$$$
ligand
 OpenBabel02271912153D
libRbt.so/2013.1/901 2013/11/27
 10 11  0  0  0  0  0  0  0  0999 V2000
    0.0283  -13.2017   12.9876 N   0  0  0  0  0  0  0  0  0  0  0  0
   -0.5626  -12.2461   13.6719 C   0  0  0  0  0  0  0  0  0  0  0  0
   -0.0987  -10.9345   13.5444 N   0  0  0  0  0  0  0  0  0  0  0  0
    0.9277  -10.6563   12.7442 C   0  0  0  0  0  0  0  0  0  0  0  0
    1.5201  -11.6177   12.0608 C   0  0  0  0  0  0  0  0  0  0  0  0
    1.1030  -12.8656   12.1678 C   0  0  0  0  0  0  0  0  0  0  0  0
    1.6713  -13.7419   11.5314 O   0  0  0  0  0  0  0  0  0  0  0  0
    2.5045  -11.0877   11.3369 N   0  0  0  0  0  0  0  0  0  0  0  0
    2.5084   -9.7812   11.5768 C   0  0  0  0  0  0  0  0  0  0  0  0
    1.5333   -9.5168   12.4501 N   0  0  0  0  0  0  0  0  0  0  0  0
  1  2  1  0  0  0  0
  1  6  1  0  0  0  0
  2  3  2  0  0  0  0
  3  4  1  0  0  0  0
  4  5  2  0  0  0  0
  4 10  1  0  0  0  0
  5  6  1  0  0  0  0
  5  8  1  0  0  0  0
  6  7  2  0  0  0  0
  8  9  1  0  0  0  0
  9 10  2  0  0  0  0
M  END
>  <CHROM.1>
1.12300168,-11.60772999,12.39118682,2.20951764,-0.68623703,-2.95236057

>  <Name>
ligand

>  <RI>
0

>  <Rbt.Current_Directory>
/home/itssahil/PROJECTS/Mol_Feturizer/Test_systems_manuscript/rnas/5c7w

>  <Rbt.Executable>
rbdock ($Id: //depot/dev/client3/rdock/2013.1/src/exe/rbdock.cxx#4 $)

>  <Rbt.Library>
libRbt.so (2013.1, Build901 2013/11/27)

>  <Rbt.Parameter_File>
/export/apps/rDock/src/rDock_2013.1_src/data/scripts/dock_solv.prm

>  <Rbt.Receptor>
prm/pocket_docking_7.prm

>  <SCORE>
-14.9123

>  <SCORE.INTER>
-14.9123

>  <SCORE.INTER.CONST>
1

>  <SCORE.INTER.POLAR>
0

>  <SCORE.INTER.ROT>
0

>  <SCORE.INTER.SOLV>
3.21284

>  <SCORE.INTER.VDW>
-14.6125

>  <SCORE.INTER.norm>
-1.49123

>  <SCORE.INTRA>
0

>  <SCORE.INTRA.DIHEDRAL>
0

>  <SCORE.INTRA.DIHEDRAL.0>
0

>  <SCORE.INTRA.POLAR>
0

>  <SCORE.INTRA.POLAR.0>
0

>  <SCORE.INTRA.REPUL>
0

>  <SCORE.INTRA.REPUL.0>
0

>  <SCORE.INTRA.SOLV>
0

>  <SCORE.INTRA.SOLV.lig_0>
-4.15853

>  <SCORE.INTRA.VDW>
0

>  <SCORE.INTRA.VDW.0>
0

>  <SCORE.INTRA.norm>
0

>  <SCORE.RESTR>
0

>  <SCORE.RESTR.CAVITY>
0

>  <SCORE.RESTR.norm>
0

>  <SCORE.SYSTEM>
0

>  <SCORE.SYSTEM.CONST>
0

>  <SCORE.SYSTEM.DIHEDRAL>
0

>  <SCORE.SYSTEM.SOLV>
0

>  <SCORE.SYSTEM.norm>
0

>  <SCORE.heavy>
10

>  <SCORE.norm>
-1.49123

>  <RMSD>
2.309

$$$$
ligand
 OpenBabel02271912153D
libRbt.so/2013.1/901 2013/11/27
 10 11  0  0  0  0  0  0  0  0999 V2000
    0.0207  -13.1886   13.0094 N   0  0  0  0  0  0  0  0  0  0  0  0
   -0.5718  -12.2262   13.6827 C   0  0  0  0  0  0  0  0  0  0  0  0
   -0.1053  -10.9164   13.5458 N   0  0  0  0  0  0  0  0  0  0  0  0
    0.9252  -10.6468   12.7478 C   0  0  0  0  0  0  0  0  0  0  0  0
    1.5192  -11.6151   12.0755 C   0  0  0  0  0  0  0  0  0  0  0  0
    1.0997  -12.8613   12.1917 C   0  0  0  0  0  0  0  0  0  0  0  0
    1.6695  -13.7440   11.5656 O   0  0  0  0  0  0  0  0  0  0  0  0
    2.5077  -11.0930   11.3516 N   0  0  0  0  0  0  0  0  0  0  0  0
    2.5126   -9.7845   11.5800 C   0  0  0  0  0  0  0  0  0  0  0  0
    1.5339   -9.5109   12.4465 N   0  0  0  0  0  0  0  0  0  0  0  0
  1  2  1  0  0  0  0
  1  6  1  0  0  0  0
  2  3  2  0  0  0  0
  3  4  1  0  0  0  0
  4  5  2  0  0  0  0
  4 10  1  0  0  0  0
  5  6  1  0  0  0  0
  5  8  1  0  0  0  0
  6  7  2  0  0  0  0
  8  9  1  0  0  0  0
  9 10  2  0  0  0  0
M  END
>  <CHROM.1>
1.12062727,-11.60162552,12.40407044,2.21039303,-0.68149534,-2.96058385

>  <Name>
ligand

>  <RI>
0

>  <Rbt.Current_Directory>
/home/itssahil/PROJECTS/Mol_Feturizer/Test_systems_manuscript/rnas/5c7w

>  <Rbt.Executable>
rbdock ($Id: //depot/dev/client3/rdock/2013.1/src/exe/rbdock.cxx#4 $)

>  <Rbt.Library>
libRbt.so (2013.1, Build901 2013/11/27)

>  <Rbt.Parameter_File>
/export/apps/rDock/src/rDock_2013.1_src/data/scripts/dock_solv.prm

>  <Rbt.Receptor>
prm/pocket_docking_7.prm

>  <SCORE>
-14.9134

>  <SCORE.INTER>
-14.9134

>  <SCORE.INTER.CONST>
1

>  <SCORE.INTER.POLAR>
0

>  <SCORE.INTER.ROT>
0

>  <SCORE.INTER.SOLV>
3.18658

>  <SCORE.INTER.VDW>
-14.6045

>  <SCORE.INTER.norm>
-1.49134

>  <SCORE.INTRA>
0

>  <SCORE.INTRA.DIHEDRAL>
0

>  <SCORE.INTRA.DIHEDRAL.0>
0

>  <SCORE.INTRA.POLAR>
0

>  <SCORE.INTRA.POLAR.0>
0

>  <SCORE.INTRA.REPUL>
0

>  <SCORE.INTRA.REPUL.0>
0

>  <SCORE.INTRA.SOLV>
0

>  <SCORE.INTRA.SOLV.lig_0>
-4.15853

>  <SCORE.INTRA.VDW>
0

>  <SCORE.INTRA.VDW.0>
0

>  <SCORE.INTRA.norm>
0

>  <SCORE.RESTR>
0

>  <SCORE.RESTR.CAVITY>
0

>  <SCORE.RESTR.norm>
0

>  <SCORE.SYSTEM>
0

>  <SCORE.SYSTEM.CONST>
0

>  <SCORE.SYSTEM.DIHEDRAL>
0

>  <SCORE.SYSTEM.SOLV>
0

>  <SCORE.SYSTEM.norm>
0

>  <SCORE.heavy>
10

>  <SCORE.norm>
-1.49134

>  <RMSD>
2.309

$$$$
ligand
 OpenBabel02271912153D
libRbt.so/2013.1/901 2013/11/27
 10 11  0  0  0  0  0  0  0  0999 V2000
    0.0245  -13.1976   12.9978 N   0  0  0  0  0  0  0  0  0  0  0  0
   -0.5711  -12.2399   13.6750 C   0  0  0  0  0  0  0  0  0  0  0  0
   -0.1100  -10.9278   13.5421 N   0  0  0  0  0  0  0  0  0  0  0  0
    0.9185  -10.6513   12.7439 C   0  0  0  0  0  0  0  0  0  0  0  0
    1.5156  -11.6149   12.0677 C   0  0  0  0  0  0  0  0  0  0  0  0
    1.1012  -12.8632   12.1800 C   0  0  0  0  0  0  0  0  0  0  0  0
    1.6739  -13.7415   11.5503 O   0  0  0  0  0  0  0  0  0  0  0  0
    2.5012  -11.0864   11.3444 N   0  0  0  0  0  0  0  0  0  0  0  0
    2.5011   -9.7786   11.5774 C   0  0  0  0  0  0  0  0  0  0  0  0
    1.5223   -9.5119   12.4459 N   0  0  0  0  0  0  0  0  0  0  0  0
  1  2  1  0  0  0  0
  1  6  1  0  0  0  0
  2  3  2  0  0  0  0
  3  4  1  0  0  0  0
  4  5  2  0  0  0  0
  4 10  1  0  0  0  0
  5  6  1  0  0  0  0
  5  8  1  0  0  0  0
  6  7  2  0  0  0  0
  8  9  1  0  0  0  0
  9 10  2  0  0  0  0
M  END
>  <CHROM.1>
1.11738830,-11.60416219,12.39669615,2.20555954,-0.68330126,-2.96021505

>  <Name>
ligand

>  <RI>
0

>  <Rbt.Current_Directory>
/home/itssahil/PROJECTS/Mol_Feturizer/Test_systems_manuscript/rnas/5c7w

>  <Rbt.Executable>
rbdock ($Id: //depot/dev/client3/rdock/2013.1/src/exe/rbdock.cxx#4 $)

>  <Rbt.Library>
libRbt.so (2013.1, Build901 2013/11/27)

>  <Rbt.Parameter_File>
/export/apps/rDock/src/rDock_2013.1_src/data/scripts/dock_solv.prm

>  <Rbt.Receptor>
prm/pocket_docking_7.prm

>  <SCORE>
-14.9163

>  <SCORE.INTER>
-14.9163

>  <SCORE.INTER.CONST>
1

>  <SCORE.INTER.POLAR>
0

>  <SCORE.INTER.ROT>
0

>  <SCORE.INTER.SOLV>
3.20033

>  <SCORE.INTER.VDW>
-14.611

>  <SCORE.INTER.norm>
-1.49163

>  <SCORE.INTRA>
0

>  <SCORE.INTRA.DIHEDRAL>
0

>  <SCORE.INTRA.DIHEDRAL.0>
0

>  <SCORE.INTRA.POLAR>
0

>  <SCORE.INTRA.POLAR.0>
0

>  <SCORE.INTRA.REPUL>
0

>  <SCORE.INTRA.REPUL.0>
0

>  <SCORE.INTRA.SOLV>
0

>  <SCORE.INTRA.SOLV.lig_0>
-4.15853

>  <SCORE.INTRA.VDW>
0

>  <SCORE.INTRA.VDW.0>
0

>  <SCORE.INTRA.norm>
0

>  <SCORE.RESTR>
0

>  <SCORE.RESTR.CAVITY>
0

>  <SCORE.RESTR.norm>
0

>  <SCORE.SYSTEM>
0

>  <SCORE.SYSTEM.CONST>
0

>  <SCORE.SYSTEM.DIHEDRAL>
0

>  <SCORE.SYSTEM.SOLV>
0

>  <SCORE.SYSTEM.norm>
0

>  <SCORE.heavy>
10

>  <SCORE.norm>
-1.49163

>  <RMSD>
2.309

$$$$
ligand
 OpenBabel02271912153D
libRbt.so/2013.1/901 2013/11/27
 10 11  0  0  0  0  0  0  0  0999 V2000
    0.0241  -13.1964   12.9943 N   0  0  0  0  0  0  0  0  0  0  0  0
   -0.5682  -12.2385   13.6742 C   0  0  0  0  0  0  0  0  0  0  0  0
   -0.1040  -10.9273   13.5432 N   0  0  0  0  0  0  0  0  0  0  0  0
    0.9240  -10.6519   12.7441 C   0  0  0  0  0  0  0  0  0  0  0  0
    1.5178  -11.6156   12.0651 C   0  0  0  0  0  0  0  0  0  0  0  0
    1.1005  -12.8631   12.1756 C   0  0  0  0  0  0  0  0  0  0  0  0
    1.6701  -13.7415   11.5433 O   0  0  0  0  0  0  0  0  0  0  0  0
    2.5036  -11.0881   11.3415 N   0  0  0  0  0  0  0  0  0  0  0  0
    2.5071   -9.7808   11.5769 C   0  0  0  0  0  0  0  0  0  0  0  0
    1.5302   -9.5134   12.4473 N   0  0  0  0  0  0  0  0  0  0  0  0
  1  2  1  0  0  0  0
  1  6  1  0  0  0  0
  2  3  2  0  0  0  0
  3  4  1  0  0  0  0
  4  5  2  0  0  0  0
  4 10  1  0  0  0  0
  5  6  1  0  0  0  0
  5  8  1  0  0  0  0
  6  7  2  0  0  0  0
  8  9  1  0  0  0  0
  9 10  2  0  0  0  0
M  END
>  <CHROM.1>
1.12005606,-11.60449046,12.39468540,2.20902906,-0.68425756,-2.95607948

>  <Name>
ligand

>  <RI>
0

>  <Rbt.Current_Directory>
/home/itssahil/PROJECTS/Mol_Feturizer/Test_systems_manuscript/rnas/5c7w

>  <Rbt.Executable>
rbdock ($Id: //depot/dev/client3/rdock/2013.1/src/exe/rbdock.cxx#4 $)

>  <Rbt.Library>
libRbt.so (2013.1, Build901 2013/11/27)

>  <Rbt.Parameter_File>
/export/apps/rDock/src/rDock_2013.1_src/data/scripts/dock_solv.prm

>  <Rbt.Receptor>
prm/pocket_docking_7.prm

>  <SCORE>
-14.915

>  <SCORE.INTER>
-14.915

>  <SCORE.INTER.CONST>
1

>  <SCORE.INTER.POLAR>
0

>  <SCORE.INTER.ROT>
0

>  <SCORE.INTER.SOLV>
3.20243

>  <SCORE.INTER.VDW>
-14.6108

>  <SCORE.INTER.norm>
-1.4915

>  <SCORE.INTRA>
0

>  <SCORE.INTRA.DIHEDRAL>
0

>  <SCORE.INTRA.DIHEDRAL.0>
0

>  <SCORE.INTRA.POLAR>
0

>  <SCORE.INTRA.POLAR.0>
0

>  <SCORE.INTRA.REPUL>
0

>  <SCORE.INTRA.REPUL.0>
0

>  <SCORE.INTRA.SOLV>
0

>  <SCORE.INTRA.SOLV.lig_0>
-4.15853

>  <SCORE.INTRA.VDW>
0

>  <SCORE.INTRA.VDW.0>
0

>  <SCORE.INTRA.norm>
0

>  <SCORE.RESTR>
0

>  <SCORE.RESTR.CAVITY>
0

>  <SCORE.RESTR.norm>
0

>  <SCORE.SYSTEM>
0

>  <SCORE.SYSTEM.CONST>
0

>  <SCORE.SYSTEM.DIHEDRAL>
0

>  <SCORE.SYSTEM.SOLV>
0

>  <SCORE.SYSTEM.norm>
0

>  <SCORE.heavy>
10

>  <SCORE.norm>
-1.4915

>  <RMSD>
2.309

$$$$
ligand
 OpenBabel02271912153D
libRbt.so/2013.1/901 2013/11/27
 10 11  0  0  0  0  0  0  0  0999 V2000
    0.0187  -13.2282   13.0384 N   0  0  0  0  0  0  0  0  0  0  0  0
   -0.5642  -12.2388   13.6801 C   0  0  0  0  0  0  0  0  0  0  0  0
   -0.0975  -10.9363   13.4859 N   0  0  0  0  0  0  0  0  0  0  0  0
    0.9236  -10.7005   12.6656 C   0  0  0  0  0  0  0  0  0  0  0  0
    1.5080  -11.6958   12.0250 C   0  0  0  0  0  0  0  0  0  0  0  0
    1.0881  -12.9356   12.1954 C   0  0  0  0  0  0  0  0  0  0  0  0
    1.6491  -13.8435   11.5979 O   0  0  0  0  0  0  0  0  0  0  0  0
    2.4884  -11.2046   11.2691 N   0  0  0  0  0  0  0  0  0  0  0  0
    2.4980   -9.8881   11.4456 C   0  0  0  0  0  0  0  0  0  0  0  0
    1.5302   -9.5785   12.3123 N   0  0  0  0  0  0  0  0  0  0  0  0
  1  2  1  0  0  0  0
  1  6  1  0  0  0  0
  2  3  2  0  0  0  0
  3  4  1  0  0  0  0
  4  5  2  0  0  0  0
  4 10  1  0  0  0  0
  5  6  1  0  0  0  0
  5  8  1  0  0  0  0
  6  7  2  0  0  0  0
  8  9  1  0  0  0  0
  9 10  2  0  0  0  0
M  END
>  <CHROM.1>
1.11349888,-11.66854506,12.35753537,2.21506493,-0.69313930,-2.99718844

>  <Name>
ligand

>  <RI>
0

>  <Rbt.Current_Directory>
/home/itssahil/PROJECTS/Mol_Feturizer/Test_systems_manuscript/rnas/5c7w

>  <Rbt.Executable>
rbdock ($Id: //depot/dev/client3/rdock/2013.1/src/exe/rbdock.cxx#4 $)

>  <Rbt.Library>
libRbt.so (2013.1, Build901 2013/11/27)

>  <Rbt.Parameter_File>
/export/apps/rDock/src/rDock_2013.1_src/data/scripts/dock_solv.prm

>  <Rbt.Receptor>
prm/pocket_docking_8.prm

>  <SCORE>
-14.919

>  <SCORE.INTER>
-14.919

>  <SCORE.INTER.CONST>
1

>  <SCORE.INTER.POLAR>
0

>  <SCORE.INTER.ROT>
0

>  <SCORE.INTER.SOLV>
3.1869

>  <SCORE.INTER.VDW>
-14.6083

>  <SCORE.INTER.norm>
-1.4919

>  <SCORE.INTRA>
0

>  <SCORE.INTRA.DIHEDRAL>
0

>  <SCORE.INTRA.DIHEDRAL.0>
0

>  <SCORE.INTRA.POLAR>
0

>  <SCORE.INTRA.POLAR.0>
0

>  <SCORE.INTRA.REPUL>
0

>  <SCORE.INTRA.REPUL.0>
0

>  <SCORE.INTRA.SOLV>
0

>  <SCORE.INTRA.SOLV.lig_0>
-4.15853

>  <SCORE.INTRA.VDW>
0

>  <SCORE.INTRA.VDW.0>
0

>  <SCORE.INTRA.norm>
0

>  <SCORE.RESTR>
0

>  <SCORE.RESTR.CAVITY>
0

>  <SCORE.RESTR.norm>
0

>  <SCORE.SYSTEM>
0

>  <SCORE.SYSTEM.CONST>
0

>  <SCORE.SYSTEM.DIHEDRAL>
0

>  <SCORE.SYSTEM.SOLV>
0

>  <SCORE.SYSTEM.norm>
0

>  <SCORE.heavy>
10

>  <SCORE.norm>
-1.4919

>  <RMSD>
2.309

$$$$
ligand
 OpenBabel02271912153D
libRbt.so/2013.1/901 2013/11/27
 10 11  0  0  0  0  0  0  0  0999 V2000
    0.0217  -13.2281   13.0507 N   0  0  0  0  0  0  0  0  0  0  0  0
   -0.5514  -12.2394   13.7023 C   0  0  0  0  0  0  0  0  0  0  0  0
   -0.0858  -10.9371   13.5046 N   0  0  0  0  0  0  0  0  0  0  0  0
    0.9243  -10.7006   12.6710 C   0  0  0  0  0  0  0  0  0  0  0  0
    1.4989  -11.6951   12.0205 C   0  0  0  0  0  0  0  0  0  0  0  0
    1.0800  -12.9349   12.1939 C   0  0  0  0  0  0  0  0  0  0  0  0
    1.6317  -13.8421   11.5869 O   0  0  0  0  0  0  0  0  0  0  0  0
    2.4695  -11.2034   11.2524 N   0  0  0  0  0  0  0  0  0  0  0  0
    2.4829   -9.8873   11.4315 C   0  0  0  0  0  0  0  0  0  0  0  0
    1.5274   -9.5786   12.3119 N   0  0  0  0  0  0  0  0  0  0  0  0
  1  2  1  0  0  0  0
  1  6  1  0  0  0  0
  2  3  2  0  0  0  0
  3  4  1  0  0  0  0
  4  5  2  0  0  0  0
  4 10  1  0  0  0  0
  5  6  1  0  0  0  0
  5  8  1  0  0  0  0
  6  7  2  0  0  0  0
  8  9  1  0  0  0  0
  9 10  2  0  0  0  0
M  END
>  <CHROM.1>
1.10893006,-11.66818618,12.35835757,2.21910020,-0.70637027,-2.99244586

>  <Name>
ligand

>  <RI>
0

>  <Rbt.Current_Directory>
/home/itssahil/PROJECTS/Mol_Feturizer/Test_systems_manuscript/rnas/5c7w

>  <Rbt.Executable>
rbdock ($Id: //depot/dev/client3/rdock/2013.1/src/exe/rbdock.cxx#4 $)

>  <Rbt.Library>
libRbt.so (2013.1, Build901 2013/11/27)

>  <Rbt.Parameter_File>
/export/apps/rDock/src/rDock_2013.1_src/data/scripts/dock_solv.prm

>  <Rbt.Receptor>
prm/pocket_docking_8.prm

>  <SCORE>
-14.9203

>  <SCORE.INTER>
-14.9203

>  <SCORE.INTER.CONST>
1

>  <SCORE.INTER.POLAR>
0

>  <SCORE.INTER.ROT>
0

>  <SCORE.INTER.SOLV>
3.20785

>  <SCORE.INTER.VDW>
-14.6161

>  <SCORE.INTER.norm>
-1.49203

>  <SCORE.INTRA>
0

>  <SCORE.INTRA.DIHEDRAL>
0

>  <SCORE.INTRA.DIHEDRAL.0>
0

>  <SCORE.INTRA.POLAR>
0

>  <SCORE.INTRA.POLAR.0>
0

>  <SCORE.INTRA.REPUL>
0

>  <SCORE.INTRA.REPUL.0>
0

>  <SCORE.INTRA.SOLV>
0

>  <SCORE.INTRA.SOLV.lig_0>
-4.15853

>  <SCORE.INTRA.VDW>
0

>  <SCORE.INTRA.VDW.0>
0

>  <SCORE.INTRA.norm>
0

>  <SCORE.RESTR>
0

>  <SCORE.RESTR.CAVITY>
0

>  <SCORE.RESTR.norm>
0

>  <SCORE.SYSTEM>
0

>  <SCORE.SYSTEM.CONST>
0

>  <SCORE.SYSTEM.DIHEDRAL>
0

>  <SCORE.SYSTEM.SOLV>
0

>  <SCORE.SYSTEM.norm>
0

>  <SCORE.heavy>
10

>  <SCORE.norm>
-1.49203

>  <RMSD>
2.309

$$$$
ligand
 OpenBabel02271912153D
libRbt.so/2013.1/901 2013/11/27
 10 11  0  0  0  0  0  0  0  0999 V2000
    0.0281  -13.2495   13.0412 N   0  0  0  0  0  0  0  0  0  0  0  0
   -0.5485  -12.2632   13.6933 C   0  0  0  0  0  0  0  0  0  0  0  0
   -0.0851  -10.9596   13.4991 N   0  0  0  0  0  0  0  0  0  0  0  0
    0.9266  -10.7195   12.6684 C   0  0  0  0  0  0  0  0  0  0  0  0
    1.5047  -11.7117   12.0174 C   0  0  0  0  0  0  0  0  0  0  0  0
    1.0878  -12.9526   12.1875 C   0  0  0  0  0  0  0  0  0  0  0  0
    1.6428  -13.8575   11.5801 O   0  0  0  0  0  0  0  0  0  0  0  0
    2.4762  -11.2166   11.2526 N   0  0  0  0  0  0  0  0  0  0  0  0
    2.4865   -9.9007   11.4342 C   0  0  0  0  0  0  0  0  0  0  0  0
    1.5283   -9.5956   12.3129 N   0  0  0  0  0  0  0  0  0  0  0  0
  1  2  1  0  0  0  0
  1  6  1  0  0  0  0
  2  3  2  0  0  0  0
  3  4  1  0  0  0  0
  4  5  2  0  0  0  0
  4 10  1  0  0  0  0
  5  6  1  0  0  0  0
  5  8  1  0  0  0  0
  6  7  2  0  0  0  0
  8  9  1  0  0  0  0
  9 10  2  0  0  0  0
M  END
>  <CHROM.1>
1.11386780,-11.68611977,12.35438533,2.21604542,-0.70429937,-2.99254829

>  <Name>
ligand

>  <RI>
0

>  <Rbt.Current_Directory>
/home/itssahil/PROJECTS/Mol_Feturizer/Test_systems_manuscript/rnas/5c7w

>  <Rbt.Executable>
rbdock ($Id: //depot/dev/client3/rdock/2013.1/src/exe/rbdock.cxx#4 $)

>  <Rbt.Library>
libRbt.so (2013.1, Build901 2013/11/27)

>  <Rbt.Parameter_File>
/export/apps/rDock/src/rDock_2013.1_src/data/scripts/dock_solv.prm

>  <Rbt.Receptor>
prm/pocket_docking_8.prm

>  <SCORE>
-14.8789

>  <SCORE.INTER>
-14.8789

>  <SCORE.INTER.CONST>
1

>  <SCORE.INTER.POLAR>
0

>  <SCORE.INTER.ROT>
0

>  <SCORE.INTER.SOLV>
3.21499

>  <SCORE.INTER.VDW>
-14.5909

>  <SCORE.INTER.norm>
-1.48789

>  <SCORE.INTRA>
0

>  <SCORE.INTRA.DIHEDRAL>
0

>  <SCORE.INTRA.DIHEDRAL.0>
0

>  <SCORE.INTRA.POLAR>
0

>  <SCORE.INTRA.POLAR.0>
0

>  <SCORE.INTRA.REPUL>
0

>  <SCORE.INTRA.REPUL.0>
0

>  <SCORE.INTRA.SOLV>
0

>  <SCORE.INTRA.SOLV.lig_0>
-4.15853

>  <SCORE.INTRA.VDW>
0

>  <SCORE.INTRA.VDW.0>
0

>  <SCORE.INTRA.norm>
0

>  <SCORE.RESTR>
0

>  <SCORE.RESTR.CAVITY>
0

>  <SCORE.RESTR.norm>
0

>  <SCORE.SYSTEM>
0

>  <SCORE.SYSTEM.CONST>
0

>  <SCORE.SYSTEM.DIHEDRAL>
0

>  <SCORE.SYSTEM.SOLV>
0

>  <SCORE.SYSTEM.norm>
0

>  <SCORE.heavy>
10

>  <SCORE.norm>
-1.48789

>  <RMSD>
2.309

$$$$
ligand
 OpenBabel02271912153D
libRbt.so/2013.1/901 2013/11/27
 10 11  0  0  0  0  0  0  0  0999 V2000
    0.0283  -13.2455   13.0102 N   0  0  0  0  0  0  0  0  0  0  0  0
   -0.5459  -12.2647   13.6727 C   0  0  0  0  0  0  0  0  0  0  0  0
   -0.0836  -10.9594   13.4875 N   0  0  0  0  0  0  0  0  0  0  0  0
    0.9248  -10.7123   12.6548 C   0  0  0  0  0  0  0  0  0  0  0  0
    1.5005  -11.6989   11.9933 C   0  0  0  0  0  0  0  0  0  0  0  0
    1.0846  -12.9413   12.1548 C   0  0  0  0  0  0  0  0  0  0  0  0
    1.6373  -13.8410   11.5378 O   0  0  0  0  0  0  0  0  0  0  0  0
    2.4688  -11.1973   11.2288 N   0  0  0  0  0  0  0  0  0  0  0  0
    2.4797   -9.8830   11.4211 C   0  0  0  0  0  0  0  0  0  0  0  0
    1.5248   -9.5853   12.3061 N   0  0  0  0  0  0  0  0  0  0  0  0
  1  2  1  0  0  0  0
  1  6  1  0  0  0  0
  2  3  2  0  0  0  0
  3  4  1  0  0  0  0
  4  5  2  0  0  0  0
  4 10  1  0  0  0  0
  5  6  1  0  0  0  0
  5  8  1  0  0  0  0
  6  7  2  0  0  0  0
  8  9  1  0  0  0  0
  9 10  2  0  0  0  0
M  END
>  <CHROM.1>
1.11100945,-11.67620928,12.33204798,2.21655353,-0.70824611,-2.98398656

>  <Name>
ligand

>  <RI>
0

>  <Rbt.Current_Directory>
/home/itssahil/PROJECTS/Mol_Feturizer/Test_systems_manuscript/rnas/5c7w

>  <Rbt.Executable>
rbdock ($Id: //depot/dev/client3/rdock/2013.1/src/exe/rbdock.cxx#4 $)

>  <Rbt.Library>
libRbt.so (2013.1, Build901 2013/11/27)

>  <Rbt.Parameter_File>
/export/apps/rDock/src/rDock_2013.1_src/data/scripts/dock_solv.prm

>  <Rbt.Receptor>
prm/pocket_docking_8.prm

>  <SCORE>
-14.8523

>  <SCORE.INTER>
-14.8523

>  <SCORE.INTER.CONST>
1

>  <SCORE.INTER.POLAR>
0

>  <SCORE.INTER.ROT>
0

>  <SCORE.INTER.SOLV>
3.23333

>  <SCORE.INTER.VDW>
-14.5793

>  <SCORE.INTER.norm>
-1.48523

>  <SCORE.INTRA>
0

>  <SCORE.INTRA.DIHEDRAL>
0

>  <SCORE.INTRA.DIHEDRAL.0>
0

>  <SCORE.INTRA.POLAR>
0

>  <SCORE.INTRA.POLAR.0>
0

>  <SCORE.INTRA.REPUL>
0

>  <SCORE.INTRA.REPUL.0>
0

>  <SCORE.INTRA.SOLV>
0

>  <SCORE.INTRA.SOLV.lig_0>
-4.15853

>  <SCORE.INTRA.VDW>
0

>  <SCORE.INTRA.VDW.0>
0

>  <SCORE.INTRA.norm>
0

>  <SCORE.RESTR>
0

>  <SCORE.RESTR.CAVITY>
0

>  <SCORE.RESTR.norm>
0

>  <SCORE.SYSTEM>
0

>  <SCORE.SYSTEM.CONST>
0

>  <SCORE.SYSTEM.DIHEDRAL>
0

>  <SCORE.SYSTEM.SOLV>
0

>  <SCORE.SYSTEM.norm>
0

>  <SCORE.heavy>
10

>  <SCORE.norm>
-1.48523

>  <RMSD>
2.309

$$$$
ligand
 OpenBabel02271912153D
libRbt.so/2013.1/901 2013/11/27
 10 11  0  0  0  0  0  0  0  0999 V2000
    0.0256  -13.2417   13.0384 N   0  0  0  0  0  0  0  0  0  0  0  0
   -0.5560  -12.2534   13.6829 C   0  0  0  0  0  0  0  0  0  0  0  0
   -0.0898  -10.9506   13.4898 N   0  0  0  0  0  0  0  0  0  0  0  0
    0.9296  -10.7133   12.6677 C   0  0  0  0  0  0  0  0  0  0  0  0
    1.5127  -11.7075   12.0244 C   0  0  0  0  0  0  0  0  0  0  0  0
    1.0933  -12.9477   12.1936 C   0  0  0  0  0  0  0  0  0  0  0  0
    1.6531  -13.8545   11.5935 O   0  0  0  0  0  0  0  0  0  0  0  0
    2.4915  -11.2150   11.2672 N   0  0  0  0  0  0  0  0  0  0  0  0
    2.5013   -9.8988   11.4458 C   0  0  0  0  0  0  0  0  0  0  0  0
    1.5354   -9.5907   12.3150 N   0  0  0  0  0  0  0  0  0  0  0  0
  1  2  1  0  0  0  0
  1  6  1  0  0  0  0
  2  3  2  0  0  0  0
  3  4  1  0  0  0  0
  4  5  2  0  0  0  0
  4 10  1  0  0  0  0
  5  6  1  0  0  0  0
  5  8  1  0  0  0  0
  6  7  2  0  0  0  0
  8  9  1  0  0  0  0
  9 10  2  0  0  0  0
M  END
>  <CHROM.1>
1.11889279,-11.68084287,12.35772933,2.21533860,-0.69518148,-2.99540896

>  <Name>
ligand

>  <RI>
0

>  <Rbt.Current_Directory>
/home/itssahil/PROJECTS/Mol_Feturizer/Test_systems_manuscript/rnas/5c7w

>  <Rbt.Executable>
rbdock ($Id: //depot/dev/client3/rdock/2013.1/src/exe/rbdock.cxx#4 $)

>  <Rbt.Library>
libRbt.so (2013.1, Build901 2013/11/27)

>  <Rbt.Parameter_File>
/export/apps/rDock/src/rDock_2013.1_src/data/scripts/dock_solv.prm

>  <Rbt.Receptor>
prm/blind_docking_40.prm

>  <SCORE>
-14.914

>  <SCORE.INTER>
-14.914

>  <SCORE.INTER.CONST>
1

>  <SCORE.INTER.POLAR>
0

>  <SCORE.INTER.ROT>
0

>  <SCORE.INTER.SOLV>
3.19551

>  <SCORE.INTER.VDW>
-14.6079

>  <SCORE.INTER.norm>
-1.4914

>  <SCORE.INTRA>
0

>  <SCORE.INTRA.DIHEDRAL>
0

>  <SCORE.INTRA.DIHEDRAL.0>
0

>  <SCORE.INTRA.POLAR>
0

>  <SCORE.INTRA.POLAR.0>
0

>  <SCORE.INTRA.REPUL>
0

>  <SCORE.INTRA.REPUL.0>
0

>  <SCORE.INTRA.SOLV>
0

>  <SCORE.INTRA.SOLV.lig_0>
-4.15853

>  <SCORE.INTRA.VDW>
0

>  <SCORE.INTRA.VDW.0>
0

>  <SCORE.INTRA.norm>
0

>  <SCORE.RESTR>
0

>  <SCORE.RESTR.CAVITY>
0

>  <SCORE.RESTR.norm>
0

>  <SCORE.SYSTEM>
0

>  <SCORE.SYSTEM.CONST>
0

>  <SCORE.SYSTEM.DIHEDRAL>
0

>  <SCORE.SYSTEM.SOLV>
0

>  <SCORE.SYSTEM.norm>
0

>  <SCORE.heavy>
10

>  <SCORE.norm>
-1.4914

>  <RMSD>
2.310

$$$$
ligand
 OpenBabel02271912153D
libRbt.so/2013.1/901 2013/11/27
 10 11  0  0  0  0  0  0  0  0999 V2000
    0.0309  -13.2606   13.0215 N   0  0  0  0  0  0  0  0  0  0  0  0
   -0.5756  -12.2726   13.6432 C   0  0  0  0  0  0  0  0  0  0  0  0
   -0.1182  -10.9669   13.4491 N   0  0  0  0  0  0  0  0  0  0  0  0
    0.9178  -10.7265   12.6490 C   0  0  0  0  0  0  0  0  0  0  0  0
    1.5259  -11.7203   12.0285 C   0  0  0  0  0  0  0  0  0  0  0  0
    1.1151  -12.9632   12.1993 C   0  0  0  0  0  0  0  0  0  0  0  0
    1.6979  -13.8695   11.6207 O   0  0  0  0  0  0  0  0  0  0  0  0
    2.5171  -11.2245   11.2900 N   0  0  0  0  0  0  0  0  0  0  0  0
    2.5095   -9.9067   11.4567 C   0  0  0  0  0  0  0  0  0  0  0  0
    1.5204   -9.6009   12.3002 N   0  0  0  0  0  0  0  0  0  0  0  0
  1  2  1  0  0  0  0
  1  6  1  0  0  0  0
  2  3  2  0  0  0  0
  3  4  1  0  0  0  0
  4  5  2  0  0  0  0
  4 10  1  0  0  0  0
  5  6  1  0  0  0  0
  5  8  1  0  0  0  0
  6  7  2  0  0  0  0
  8  9  1  0  0  0  0
  9 10  2  0  0  0  0
M  END
>  <CHROM.1>
1.12405902,-11.69472058,12.35233155,2.19823667,-0.67338198,-3.01523258

>  <Name>
ligand

>  <RI>
0

>  <Rbt.Current_Directory>
/home/itssahil/PROJECTS/Mol_Feturizer/Test_systems_manuscript/rnas/5c7w

>  <Rbt.Executable>
rbdock ($Id: //depot/dev/client3/rdock/2013.1/src/exe/rbdock.cxx#4 $)

>  <Rbt.Library>
libRbt.so (2013.1, Build901 2013/11/27)

>  <Rbt.Parameter_File>
/export/apps/rDock/src/rDock_2013.1_src/data/scripts/dock_solv.prm

>  <Rbt.Receptor>
prm/blind_docking_40.prm

>  <SCORE>
-14.9187

>  <SCORE.INTER>
-14.9187

>  <SCORE.INTER.CONST>
1

>  <SCORE.INTER.POLAR>
0

>  <SCORE.INTER.ROT>
0

>  <SCORE.INTER.SOLV>
3.16962

>  <SCORE.INTER.VDW>
-14.6023

>  <SCORE.INTER.norm>
-1.49187

>  <SCORE.INTRA>
0

>  <SCORE.INTRA.DIHEDRAL>
0

>  <SCORE.INTRA.DIHEDRAL.0>
0

>  <SCORE.INTRA.POLAR>
0

>  <SCORE.INTRA.POLAR.0>
0

>  <SCORE.INTRA.REPUL>
0

>  <SCORE.INTRA.REPUL.0>
0

>  <SCORE.INTRA.SOLV>
0

>  <SCORE.INTRA.SOLV.lig_0>
-4.15853

>  <SCORE.INTRA.VDW>
0

>  <SCORE.INTRA.VDW.0>
0

>  <SCORE.INTRA.norm>
0

>  <SCORE.RESTR>
0

>  <SCORE.RESTR.CAVITY>
0

>  <SCORE.RESTR.norm>
0

>  <SCORE.SYSTEM>
0

>  <SCORE.SYSTEM.CONST>
0

>  <SCORE.SYSTEM.DIHEDRAL>
0

>  <SCORE.SYSTEM.SOLV>
0

>  <SCORE.SYSTEM.norm>
0

>  <SCORE.heavy>
10

>  <SCORE.norm>
-1.49187

>  <RMSD>
2.310

$$$$
ligand
 OpenBabel02271912153D
libRbt.so/2013.1/901 2013/11/27
 10 11  0  0  0  0  0  0  0  0999 V2000
    0.0143  -13.1713   13.0074 N   0  0  0  0  0  0  0  0  0  0  0  0
   -0.5659  -12.2027   13.6824 C   0  0  0  0  0  0  0  0  0  0  0  0
   -0.0826  -10.8987   13.5481 N   0  0  0  0  0  0  0  0  0  0  0  0
    0.9513  -10.6408   12.7507 C   0  0  0  0  0  0  0  0  0  0  0  0
    1.5329  -11.6153   12.0766 C   0  0  0  0  0  0  0  0  0  0  0  0
    1.0975  -12.8563   12.1903 C   0  0  0  0  0  0  0  0  0  0  0  0
    1.6560  -13.7450   11.5626 O   0  0  0  0  0  0  0  0  0  0  0  0
    2.5281  -11.1045   11.3538 N   0  0  0  0  0  0  0  0  0  0  0  0
    2.5497   -9.7966   11.5848 C   0  0  0  0  0  0  0  0  0  0  0  0
    1.5745   -9.5122   12.4517 N   0  0  0  0  0  0  0  0  0  0  0  0
  1  2  1  0  0  0  0
  1  6  1  0  0  0  0
  2  3  2  0  0  0  0
  3  4  1  0  0  0  0
  4  5  2  0  0  0  0
  4 10  1  0  0  0  0
  5  6  1  0  0  0  0
  5  8  1  0  0  0  0
  6  7  2  0  0  0  0
  8  9  1  0  0  0  0
  9 10  2  0  0  0  0
M  END
>  <CHROM.1>
1.13451104,-11.59736622,12.40515092,2.22653336,-0.67900671,-2.94851057

>  <Name>
ligand

>  <RI>
0

>  <Rbt.Current_Directory>
/home/itssahil/PROJECTS/Mol_Feturizer/Test_systems_manuscript/rnas/5c7w

>  <Rbt.Executable>
rbdock ($Id: //depot/dev/client3/rdock/2013.1/src/exe/rbdock.cxx#4 $)

>  <Rbt.Library>
libRbt.so (2013.1, Build901 2013/11/27)

>  <Rbt.Parameter_File>
/export/apps/rDock/src/rDock_2013.1_src/data/scripts/dock_solv.prm

>  <Rbt.Receptor>
prm/pocket_docking_3.prm

>  <SCORE>
-14.8948

>  <SCORE.INTER>
-14.8948

>  <SCORE.INTER.CONST>
1

>  <SCORE.INTER.POLAR>
0

>  <SCORE.INTER.ROT>
0

>  <SCORE.INTER.SOLV>
3.17131

>  <SCORE.INTER.VDW>
-14.587

>  <SCORE.INTER.norm>
-1.48948

>  <SCORE.INTRA>
0

>  <SCORE.INTRA.DIHEDRAL>
0

>  <SCORE.INTRA.DIHEDRAL.0>
0

>  <SCORE.INTRA.POLAR>
0

>  <SCORE.INTRA.POLAR.0>
0

>  <SCORE.INTRA.REPUL>
0

>  <SCORE.INTRA.REPUL.0>
0

>  <SCORE.INTRA.SOLV>
0

>  <SCORE.INTRA.SOLV.lig_0>
-4.15853

>  <SCORE.INTRA.VDW>
0

>  <SCORE.INTRA.VDW.0>
0

>  <SCORE.INTRA.norm>
0

>  <SCORE.RESTR>
0

>  <SCORE.RESTR.CAVITY>
0

>  <SCORE.RESTR.norm>
0

>  <SCORE.SYSTEM>
0

>  <SCORE.SYSTEM.CONST>
0

>  <SCORE.SYSTEM.DIHEDRAL>
0

>  <SCORE.SYSTEM.SOLV>
0

>  <SCORE.SYSTEM.norm>
0

>  <SCORE.heavy>
10

>  <SCORE.norm>
-1.48948

>  <RMSD>
2.310

$$$$
ligand
 OpenBabel02271912153D
libRbt.so/2013.1/901 2013/11/27
 10 11  0  0  0  0  0  0  0  0999 V2000
    0.0163  -13.1457   12.9829 N   0  0  0  0  0  0  0  0  0  0  0  0
   -0.5656  -12.1800   13.6608 C   0  0  0  0  0  0  0  0  0  0  0  0
   -0.0845  -10.8749   13.5304 N   0  0  0  0  0  0  0  0  0  0  0  0
    0.9490  -10.6128   12.7340 C   0  0  0  0  0  0  0  0  0  0  0  0
    1.5323  -11.5843   12.0570 C   0  0  0  0  0  0  0  0  0  0  0  0
    1.0990  -12.8264   12.1669 C   0  0  0  0  0  0  0  0  0  0  0  0
    1.6590  -13.7122   11.5365 O   0  0  0  0  0  0  0  0  0  0  0  0
    2.5267  -11.0696   11.3357 N   0  0  0  0  0  0  0  0  0  0  0  0
    2.5461   -9.7624   11.5707 C   0  0  0  0  0  0  0  0  0  0  0  0
    1.5703   -9.4822   12.4384 N   0  0  0  0  0  0  0  0  0  0  0  0
  1  2  1  0  0  0  0
  1  6  1  0  0  0  0
  2  3  2  0  0  0  0
  3  4  1  0  0  0  0
  4  5  2  0  0  0  0
  4 10  1  0  0  0  0
  5  6  1  0  0  0  0
  5  8  1  0  0  0  0
  6  7  2  0  0  0  0
  8  9  1  0  0  0  0
  9 10  2  0  0  0  0
M  END
>  <CHROM.1>
1.13388061,-11.56801427,12.38550780,2.22440405,-0.67925658,-2.94681311

>  <Name>
ligand

>  <RI>
0

>  <Rbt.Current_Directory>
/home/itssahil/PROJECTS/Mol_Feturizer/Test_systems_manuscript/rnas/5c7w

>  <Rbt.Executable>
rbdock ($Id: //depot/dev/client3/rdock/2013.1/src/exe/rbdock.cxx#4 $)

>  <Rbt.Library>
libRbt.so (2013.1, Build901 2013/11/27)

>  <Rbt.Parameter_File>
/export/apps/rDock/src/rDock_2013.1_src/data/scripts/dock_solv.prm

>  <Rbt.Receptor>
prm/pocket_docking_4.prm

>  <SCORE>
-14.8533

>  <SCORE.INTER>
-14.8533

>  <SCORE.INTER.CONST>
1

>  <SCORE.INTER.POLAR>
0

>  <SCORE.INTER.ROT>
0

>  <SCORE.INTER.SOLV>
3.17958

>  <SCORE.INTER.VDW>
-14.5621

>  <SCORE.INTER.norm>
-1.48533

>  <SCORE.INTRA>
0

>  <SCORE.INTRA.DIHEDRAL>
0

>  <SCORE.INTRA.DIHEDRAL.0>
0

>  <SCORE.INTRA.POLAR>
0

>  <SCORE.INTRA.POLAR.0>
0

>  <SCORE.INTRA.REPUL>
0

>  <SCORE.INTRA.REPUL.0>
0

>  <SCORE.INTRA.SOLV>
0

>  <SCORE.INTRA.SOLV.lig_0>
-4.15853

>  <SCORE.INTRA.VDW>
0

>  <SCORE.INTRA.VDW.0>
0

>  <SCORE.INTRA.norm>
0

>  <SCORE.RESTR>
0

>  <SCORE.RESTR.CAVITY>
0

>  <SCORE.RESTR.norm>
0

>  <SCORE.SYSTEM>
0

>  <SCORE.SYSTEM.CONST>
0

>  <SCORE.SYSTEM.DIHEDRAL>
0

>  <SCORE.SYSTEM.SOLV>
0

>  <SCORE.SYSTEM.norm>
0

>  <SCORE.heavy>
10

>  <SCORE.norm>
-1.48533

>  <RMSD>
2.310

$$$$
ligand
 OpenBabel02271912153D
libRbt.so/2013.1/901 2013/11/27
 10 11  0  0  0  0  0  0  0  0999 V2000
    0.0039  -13.1097   12.9755 N   0  0  0  0  0  0  0  0  0  0  0  0
   -0.5728  -12.1428   13.6561 C   0  0  0  0  0  0  0  0  0  0  0  0
   -0.0893  -10.8387   13.5240 N   0  0  0  0  0  0  0  0  0  0  0  0
    0.9414  -10.5789   12.7231 C   0  0  0  0  0  0  0  0  0  0  0  0
    1.5195  -11.5516   12.0434 C   0  0  0  0  0  0  0  0  0  0  0  0
    1.0838  -12.7926   12.1550 C   0  0  0  0  0  0  0  0  0  0  0  0
    1.6391  -13.6797   11.5220 O   0  0  0  0  0  0  0  0  0  0  0  0
    2.5120  -11.0390   11.3180 N   0  0  0  0  0  0  0  0  0  0  0  0
    2.5354   -9.7319   11.5531 C   0  0  0  0  0  0  0  0  0  0  0  0
    1.5640   -9.4497   12.4251 N   0  0  0  0  0  0  0  0  0  0  0  0
  1  2  1  0  0  0  0
  1  6  1  0  0  0  0
  2  3  2  0  0  0  0
  3  4  1  0  0  0  0
  4  5  2  0  0  0  0
  4 10  1  0  0  0  0
  5  6  1  0  0  0  0
  5  8  1  0  0  0  0
  6  7  2  0  0  0  0
  8  9  1  0  0  0  0
  9 10  2  0  0  0  0
M  END
>  <CHROM.1>
1.12254326,-11.53443367,12.37368432,2.22836348,-0.68303224,-2.94412368

>  <Name>
ligand

>  <RI>
0

>  <Rbt.Current_Directory>
/home/itssahil/PROJECTS/Mol_Feturizer/Test_systems_manuscript/rnas/5c7w

>  <Rbt.Executable>
rbdock ($Id: //depot/dev/client3/rdock/2013.1/src/exe/rbdock.cxx#4 $)

>  <Rbt.Library>
libRbt.so (2013.1, Build901 2013/11/27)

>  <Rbt.Parameter_File>
/export/apps/rDock/src/rDock_2013.1_src/data/scripts/dock_solv.prm

>  <Rbt.Receptor>
prm/pocket_docking_5.prm

>  <SCORE>
-14.8938

>  <SCORE.INTER>
-14.8938

>  <SCORE.INTER.CONST>
1

>  <SCORE.INTER.POLAR>
0

>  <SCORE.INTER.ROT>
0

>  <SCORE.INTER.SOLV>
3.17483

>  <SCORE.INTER.VDW>
-14.5875

>  <SCORE.INTER.norm>
-1.48938

>  <SCORE.INTRA>
0

>  <SCORE.INTRA.DIHEDRAL>
0

>  <SCORE.INTRA.DIHEDRAL.0>
0

>  <SCORE.INTRA.POLAR>
0

>  <SCORE.INTRA.POLAR.0>
0

>  <SCORE.INTRA.REPUL>
0

>  <SCORE.INTRA.REPUL.0>
0

>  <SCORE.INTRA.SOLV>
0

>  <SCORE.INTRA.SOLV.lig_0>
-4.15853

>  <SCORE.INTRA.VDW>
0

>  <SCORE.INTRA.VDW.0>
0

>  <SCORE.INTRA.norm>
0

>  <SCORE.RESTR>
0

>  <SCORE.RESTR.CAVITY>
0

>  <SCORE.RESTR.norm>
0

>  <SCORE.SYSTEM>
0

>  <SCORE.SYSTEM.CONST>
0

>  <SCORE.SYSTEM.DIHEDRAL>
0

>  <SCORE.SYSTEM.SOLV>
0

>  <SCORE.SYSTEM.norm>
0

>  <SCORE.heavy>
10

>  <SCORE.norm>
-1.48938

>  <RMSD>
2.310

$$$$
ligand
 OpenBabel02271912153D
libRbt.so/2013.1/901 2013/11/27
 10 11  0  0  0  0  0  0  0  0999 V2000
    0.0441  -13.2418   13.0518 N   0  0  0  0  0  0  0  0  0  0  0  0
   -0.5370  -12.2565   13.7014 C   0  0  0  0  0  0  0  0  0  0  0  0
   -0.0794  -10.9512   13.5041 N   0  0  0  0  0  0  0  0  0  0  0  0
    0.9313  -10.7087   12.6728 C   0  0  0  0  0  0  0  0  0  0  0  0
    1.5139  -11.6999   12.0244 C   0  0  0  0  0  0  0  0  0  0  0  0
    1.1026  -12.9422   12.1975 C   0  0  0  0  0  0  0  0  0  0  0  0
    1.6617  -13.8462   11.5925 O   0  0  0  0  0  0  0  0  0  0  0  0
    2.4832  -11.2024   11.2584 N   0  0  0  0  0  0  0  0  0  0  0  0
    2.4877   -9.8860   11.4368 C   0  0  0  0  0  0  0  0  0  0  0  0
    1.5279   -9.5830   12.3146 N   0  0  0  0  0  0  0  0  0  0  0  0
  1  2  1  0  0  0  0
  1  6  1  0  0  0  0
  2  3  2  0  0  0  0
  3  4  1  0  0  0  0
  4  5  2  0  0  0  0
  4 10  1  0  0  0  0
  5  6  1  0  0  0  0
  5  8  1  0  0  0  0
  6  7  2  0  0  0  0
  8  9  1  0  0  0  0
  9 10  2  0  0  0  0
M  END
>  <CHROM.1>
1.12291074,-11.67526951,12.36126361,2.21019960,-0.70483533,-2.99882704

>  <Name>
ligand

>  <RI>
0

>  <Rbt.Current_Directory>
/home/itssahil/PROJECTS/Mol_Feturizer/Test_systems_manuscript/rnas/5c7w

>  <Rbt.Executable>
rbdock ($Id: //depot/dev/client3/rdock/2013.1/src/exe/rbdock.cxx#4 $)

>  <Rbt.Library>
libRbt.so (2013.1, Build901 2013/11/27)

>  <Rbt.Parameter_File>
/export/apps/rDock/src/rDock_2013.1_src/data/scripts/dock_solv.prm

>  <Rbt.Receptor>
prm/blind_docking_80.prm

>  <SCORE>
-14.846

>  <SCORE.INTER>
-14.846

>  <SCORE.INTER.CONST>
1

>  <SCORE.INTER.POLAR>
0

>  <SCORE.INTER.ROT>
0

>  <SCORE.INTER.SOLV>
3.21409

>  <SCORE.INTER.VDW>
-14.5687

>  <SCORE.INTER.norm>
-1.4846

>  <SCORE.INTRA>
0

>  <SCORE.INTRA.DIHEDRAL>
0

>  <SCORE.INTRA.DIHEDRAL.0>
0

>  <SCORE.INTRA.POLAR>
0

>  <SCORE.INTRA.POLAR.0>
0

>  <SCORE.INTRA.REPUL>
0

>  <SCORE.INTRA.REPUL.0>
0

>  <SCORE.INTRA.SOLV>
0

>  <SCORE.INTRA.SOLV.lig_0>
-4.15853

>  <SCORE.INTRA.VDW>
0

>  <SCORE.INTRA.VDW.0>
0

>  <SCORE.INTRA.norm>
0

>  <SCORE.RESTR>
0

>  <SCORE.RESTR.CAVITY>
0

>  <SCORE.RESTR.norm>
0

>  <SCORE.SYSTEM>
0

>  <SCORE.SYSTEM.CONST>
0

>  <SCORE.SYSTEM.DIHEDRAL>
0

>  <SCORE.SYSTEM.SOLV>
0

>  <SCORE.SYSTEM.norm>
0

>  <SCORE.heavy>
10

>  <SCORE.norm>
-1.4846

>  <RMSD>
2.311

$$$$
ligand
 OpenBabel02271912153D
libRbt.so/2013.1/901 2013/11/27
 10 11  0  0  0  0  0  0  0  0999 V2000
    0.0365  -13.2915   12.9833 N   0  0  0  0  0  0  0  0  0  0  0  0
   -0.5392  -12.3114   13.6456 C   0  0  0  0  0  0  0  0  0  0  0  0
   -0.0815  -11.0050   13.4570 N   0  0  0  0  0  0  0  0  0  0  0  0
    0.9239  -10.7560   12.6214 C   0  0  0  0  0  0  0  0  0  0  0  0
    1.5011  -11.7419   11.9601 C   0  0  0  0  0  0  0  0  0  0  0  0
    1.0896  -12.9853   12.1247 C   0  0  0  0  0  0  0  0  0  0  0  0
    1.6438  -13.8843   11.5079 O   0  0  0  0  0  0  0  0  0  0  0  0
    2.4659  -11.2384   11.1923 N   0  0  0  0  0  0  0  0  0  0  0  0
    2.4730   -9.9238   11.3825 C   0  0  0  0  0  0  0  0  0  0  0  0
    1.5194   -9.6277   12.2693 N   0  0  0  0  0  0  0  0  0  0  0  0
  1  2  1  0  0  0  0
  1  6  1  0  0  0  0
  2  3  2  0  0  0  0
  3  4  1  0  0  0  0
  4  5  2  0  0  0  0
  4 10  1  0  0  0  0
  5  6  1  0  0  0  0
  5  8  1  0  0  0  0
  6  7  2  0  0  0  0
  8  9  1  0  0  0  0
  9 10  2  0  0  0  0
M  END
>  <CHROM.1>
1.11243360,-11.71987561,12.29979374,2.21286467,-0.71122004,-2.98805812

>  <Name>
ligand

>  <RI>
0

>  <Rbt.Current_Directory>
/home/itssahil/PROJECTS/Mol_Feturizer/Test_systems_manuscript/rnas/5c7w

>  <Rbt.Executable>
rbdock ($Id: //depot/dev/client3/rdock/2013.1/src/exe/rbdock.cxx#4 $)

>  <Rbt.Library>
libRbt.so (2013.1, Build901 2013/11/27)

>  <Rbt.Parameter_File>
/export/apps/rDock/src/rDock_2013.1_src/data/scripts/dock_solv.prm

>  <Rbt.Receptor>
prm/blind_docking_80.prm

>  <SCORE>
-14.8425

>  <SCORE.INTER>
-14.8425

>  <SCORE.INTER.CONST>
1

>  <SCORE.INTER.POLAR>
0

>  <SCORE.INTER.ROT>
0

>  <SCORE.INTER.SOLV>
3.26317

>  <SCORE.INTER.VDW>
-14.5827

>  <SCORE.INTER.norm>
-1.48425

>  <SCORE.INTRA>
0

>  <SCORE.INTRA.DIHEDRAL>
0

>  <SCORE.INTRA.DIHEDRAL.0>
0

>  <SCORE.INTRA.POLAR>
0

>  <SCORE.INTRA.POLAR.0>
0

>  <SCORE.INTRA.REPUL>
0

>  <SCORE.INTRA.REPUL.0>
0

>  <SCORE.INTRA.SOLV>
0

>  <SCORE.INTRA.SOLV.lig_0>
-4.15853

>  <SCORE.INTRA.VDW>
0

>  <SCORE.INTRA.VDW.0>
0

>  <SCORE.INTRA.norm>
0

>  <SCORE.RESTR>
0

>  <SCORE.RESTR.CAVITY>
0

>  <SCORE.RESTR.norm>
0

>  <SCORE.SYSTEM>
0

>  <SCORE.SYSTEM.CONST>
0

>  <SCORE.SYSTEM.DIHEDRAL>
0

>  <SCORE.SYSTEM.SOLV>
0

>  <SCORE.SYSTEM.norm>
0

>  <SCORE.heavy>
10

>  <SCORE.norm>
-1.48425

>  <RMSD>
2.311

$$$$
ligand
 OpenBabel02271912153D
libRbt.so/2013.1/901 2013/11/27
 10 11  0  0  0  0  0  0  0  0999 V2000
    0.0155  -13.1507   12.9884 N   0  0  0  0  0  0  0  0  0  0  0  0
   -0.5419  -12.1594   13.6497 C   0  0  0  0  0  0  0  0  0  0  0  0
   -0.0505  -10.8638   13.4707 N   0  0  0  0  0  0  0  0  0  0  0  0
    0.9682  -10.6364   12.6452 C   0  0  0  0  0  0  0  0  0  0  0  0
    1.5270  -11.6335   11.9850 C   0  0  0  0  0  0  0  0  0  0  0  0
    1.0835  -12.8671   12.1406 C   0  0  0  0  0  0  0  0  0  0  0  0
    1.6209  -13.7770   11.5249 O   0  0  0  0  0  0  0  0  0  0  0  0
    2.5108  -11.1509   11.2279 N   0  0  0  0  0  0  0  0  0  0  0  0
    2.5485   -9.8376   11.4237 C   0  0  0  0  0  0  0  0  0  0  0  0
    1.5945   -9.5217   12.3032 N   0  0  0  0  0  0  0  0  0  0  0  0
  1  2  1  0  0  0  0
  1  6  1  0  0  0  0
  2  3  2  0  0  0  0
  3  4  1  0  0  0  0
  4  5  2  0  0  0  0
  4 10  1  0  0  0  0
  5  6  1  0  0  0  0
  5  8  1  0  0  0  0
  6  7  2  0  0  0  0
  8  9  1  0  0  0  0
  9 10  2  0  0  0  0
M  END
>  <CHROM.1>
1.13589406,-11.60330265,12.32122974,2.24280644,-0.69829556,-2.96454596

>  <Name>
ligand

>  <RI>
0

>  <Rbt.Current_Directory>
/home/itssahil/PROJECTS/Mol_Feturizer/Test_systems_manuscript/rnas/5c7w

>  <Rbt.Executable>
rbdock ($Id: //depot/dev/client3/rdock/2013.1/src/exe/rbdock.cxx#4 $)

>  <Rbt.Library>
libRbt.so (2013.1, Build901 2013/11/27)

>  <Rbt.Parameter_File>
/export/apps/rDock/src/rDock_2013.1_src/data/scripts/dock_solv.prm

>  <Rbt.Receptor>
prm/pocket_docking_5.prm

>  <SCORE>
-14.8654

>  <SCORE.INTER>
-14.8654

>  <SCORE.INTER.CONST>
1

>  <SCORE.INTER.POLAR>
0

>  <SCORE.INTER.ROT>
0

>  <SCORE.INTER.SOLV>
3.19484

>  <SCORE.INTER.VDW>
-14.5752

>  <SCORE.INTER.norm>
-1.48654

>  <SCORE.INTRA>
0

>  <SCORE.INTRA.DIHEDRAL>
0

>  <SCORE.INTRA.DIHEDRAL.0>
0

>  <SCORE.INTRA.POLAR>
0

>  <SCORE.INTRA.POLAR.0>
0

>  <SCORE.INTRA.REPUL>
0

>  <SCORE.INTRA.REPUL.0>
0

>  <SCORE.INTRA.SOLV>
0

>  <SCORE.INTRA.SOLV.lig_0>
-4.15853

>  <SCORE.INTRA.VDW>
0

>  <SCORE.INTRA.VDW.0>
0

>  <SCORE.INTRA.norm>
0

>  <SCORE.RESTR>
0

>  <SCORE.RESTR.CAVITY>
0

>  <SCORE.RESTR.norm>
0

>  <SCORE.SYSTEM>
0

>  <SCORE.SYSTEM.CONST>
0

>  <SCORE.SYSTEM.DIHEDRAL>
0

>  <SCORE.SYSTEM.SOLV>
0

>  <SCORE.SYSTEM.norm>
0

>  <SCORE.heavy>
10

>  <SCORE.norm>
-1.48654

>  <RMSD>
2.311

$$$$
ligand
 OpenBabel02271912153D
libRbt.so/2013.1/901 2013/11/27
 10 11  0  0  0  0  0  0  0  0999 V2000
    0.0144  -13.1332   12.9688 N   0  0  0  0  0  0  0  0  0  0  0  0
   -0.5357  -12.1494   13.6472 C   0  0  0  0  0  0  0  0  0  0  0  0
   -0.0429  -10.8527   13.4813 N   0  0  0  0  0  0  0  0  0  0  0  0
    0.9698  -10.6166   12.6507 C   0  0  0  0  0  0  0  0  0  0  0  0
    1.5212  -11.6062   11.9732 C   0  0  0  0  0  0  0  0  0  0  0  0
    1.0764  -12.8407   12.1163 C   0  0  0  0  0  0  0  0  0  0  0  0
    1.6070  -13.7437   11.4846 O   0  0  0  0  0  0  0  0  0  0  0  0
    2.5001  -11.1158   11.2148 N   0  0  0  0  0  0  0  0  0  0  0  0
    2.5421   -9.8052   11.4273 C   0  0  0  0  0  0  0  0  0  0  0  0
    1.5958   -9.4988   12.3184 N   0  0  0  0  0  0  0  0  0  0  0  0
  1  2  1  0  0  0  0
  1  6  1  0  0  0  0
  2  3  2  0  0  0  0
  3  4  1  0  0  0  0
  4  5  2  0  0  0  0
  4 10  1  0  0  0  0
  5  6  1  0  0  0  0
  5  8  1  0  0  0  0
  6  7  2  0  0  0  0
  8  9  1  0  0  0  0
  9 10  2  0  0  0  0
M  END
>  <CHROM.1>
1.13285525,-11.57955416,12.31291588,2.24739926,-0.70564549,-2.94856712

>  <Name>
ligand

>  <RI>
0

>  <Rbt.Current_Directory>
/home/itssahil/PROJECTS/Mol_Feturizer/Test_systems_manuscript/rnas/5c7w

>  <Rbt.Executable>
rbdock ($Id: //depot/dev/client3/rdock/2013.1/src/exe/rbdock.cxx#4 $)

>  <Rbt.Library>
libRbt.so (2013.1, Build901 2013/11/27)

>  <Rbt.Parameter_File>
/export/apps/rDock/src/rDock_2013.1_src/data/scripts/dock_solv.prm

>  <Rbt.Receptor>
prm/pocket_docking_6.prm

>  <SCORE>
-14.8359

>  <SCORE.INTER>
-14.8359

>  <SCORE.INTER.CONST>
1

>  <SCORE.INTER.POLAR>
0

>  <SCORE.INTER.ROT>
0

>  <SCORE.INTER.SOLV>
3.2156

>  <SCORE.INTER.VDW>
-14.5624

>  <SCORE.INTER.norm>
-1.48359

>  <SCORE.INTRA>
0

>  <SCORE.INTRA.DIHEDRAL>
0

>  <SCORE.INTRA.DIHEDRAL.0>
0

>  <SCORE.INTRA.POLAR>
0

>  <SCORE.INTRA.POLAR.0>
0

>  <SCORE.INTRA.REPUL>
0

>  <SCORE.INTRA.REPUL.0>
0

>  <SCORE.INTRA.SOLV>
0

>  <SCORE.INTRA.SOLV.lig_0>
-4.15853

>  <SCORE.INTRA.VDW>
0

>  <SCORE.INTRA.VDW.0>
0

>  <SCORE.INTRA.norm>
0

>  <SCORE.RESTR>
0

>  <SCORE.RESTR.CAVITY>
0

>  <SCORE.RESTR.norm>
0

>  <SCORE.SYSTEM>
0

>  <SCORE.SYSTEM.CONST>
0

>  <SCORE.SYSTEM.DIHEDRAL>
0

>  <SCORE.SYSTEM.SOLV>
0

>  <SCORE.SYSTEM.norm>
0

>  <SCORE.heavy>
10

>  <SCORE.norm>
-1.48359

>  <RMSD>
2.311

$$$$
ligand
 OpenBabel02271912153D
libRbt.so/2013.1/901 2013/11/27
 10 11  0  0  0  0  0  0  0  0999 V2000
    0.0569  -13.2934   12.9936 N   0  0  0  0  0  0  0  0  0  0  0  0
   -0.5198  -12.3251   13.6722 C   0  0  0  0  0  0  0  0  0  0  0  0
   -0.0723  -11.0135   13.4954 N   0  0  0  0  0  0  0  0  0  0  0  0
    0.9247  -10.7480   12.6547 C   0  0  0  0  0  0  0  0  0  0  0  0
    1.5030  -11.7221   11.9772 C   0  0  0  0  0  0  0  0  0  0  0  0
    1.1010  -12.9701   12.1303 C   0  0  0  0  0  0  0  0  0  0  0  0
    1.6559  -13.8580   11.4983 O   0  0  0  0  0  0  0  0  0  0  0  0
    2.4582  -11.2032   11.2077 N   0  0  0  0  0  0  0  0  0  0  0  0
    2.4582   -9.8909   11.4134 C   0  0  0  0  0  0  0  0  0  0  0  0
    1.5099   -9.6116   12.3113 N   0  0  0  0  0  0  0  0  0  0  0  0
  1  2  1  0  0  0  0
  1  6  1  0  0  0  0
  2  3  2  0  0  0  0
  3  4  1  0  0  0  0
  4  5  2  0  0  0  0
  4 10  1  0  0  0  0
  5  6  1  0  0  0  0
  5  8  1  0  0  0  0
  6  7  2  0  0  0  0
  8  9  1  0  0  0  0
  9 10  2  0  0  0  0
M  END
>  <CHROM.1>
1.11691471,-11.70669489,12.32019867,2.20590808,-0.72024671,-2.98075436

>  <Name>
ligand

>  <RI>
0

>  <Rbt.Current_Directory>
/home/itssahil/PROJECTS/Mol_Feturizer/Test_systems_manuscript/rnas/5c7w

>  <Rbt.Executable>
rbdock ($Id: //depot/dev/client3/rdock/2013.1/src/exe/rbdock.cxx#4 $)

>  <Rbt.Library>
libRbt.so (2013.1, Build901 2013/11/27)

>  <Rbt.Parameter_File>
/export/apps/rDock/src/rDock_2013.1_src/data/scripts/dock_solv.prm

>  <Rbt.Receptor>
prm/pocket_docking_8.prm

>  <SCORE>
-14.8412

>  <SCORE.INTER>
-14.8412

>  <SCORE.INTER.CONST>
1

>  <SCORE.INTER.POLAR>
0

>  <SCORE.INTER.ROT>
0

>  <SCORE.INTER.SOLV>
3.28272

>  <SCORE.INTER.VDW>
-14.5883

>  <SCORE.INTER.norm>
-1.48412

>  <SCORE.INTRA>
0

>  <SCORE.INTRA.DIHEDRAL>
0

>  <SCORE.INTRA.DIHEDRAL.0>
0

>  <SCORE.INTRA.POLAR>
0

>  <SCORE.INTRA.POLAR.0>
0

>  <SCORE.INTRA.REPUL>
0

>  <SCORE.INTRA.REPUL.0>
0

>  <SCORE.INTRA.SOLV>
0

>  <SCORE.INTRA.SOLV.lig_0>
-4.15853

>  <SCORE.INTRA.VDW>
0

>  <SCORE.INTRA.VDW.0>
0

>  <SCORE.INTRA.norm>
0

>  <SCORE.RESTR>
0

>  <SCORE.RESTR.CAVITY>
0

>  <SCORE.RESTR.norm>
0

>  <SCORE.SYSTEM>
0

>  <SCORE.SYSTEM.CONST>
0

>  <SCORE.SYSTEM.DIHEDRAL>
0

>  <SCORE.SYSTEM.SOLV>
0

>  <SCORE.SYSTEM.norm>
0

>  <SCORE.heavy>
10

>  <SCORE.norm>
-1.48412

>  <RMSD>
2.311

$$$$
ligand
 OpenBabel02271912153D
libRbt.so/2013.1/901 2013/11/27
 10 11  0  0  0  0  0  0  0  0999 V2000
    0.0326  -13.3123   12.9701 N   0  0  0  0  0  0  0  0  0  0  0  0
   -0.5317  -12.3355   13.6469 C   0  0  0  0  0  0  0  0  0  0  0  0
   -0.0707  -11.0294   13.4641 N   0  0  0  0  0  0  0  0  0  0  0  0
    0.9264  -10.7775   12.6194 C   0  0  0  0  0  0  0  0  0  0  0  0
    1.4922  -11.7601   11.9437 C   0  0  0  0  0  0  0  0  0  0  0  0
    1.0774  -13.0032   12.1025 C   0  0  0  0  0  0  0  0  0  0  0  0
    1.6210  -13.8993   11.4721 O   0  0  0  0  0  0  0  0  0  0  0  0
    2.4506  -11.2542   11.1694 N   0  0  0  0  0  0  0  0  0  0  0  0
    2.4652   -9.9413   11.3704 C   0  0  0  0  0  0  0  0  0  0  0  0
    1.5227   -9.6487   12.2702 N   0  0  0  0  0  0  0  0  0  0  0  0
  1  2  1  0  0  0  0
  1  6  1  0  0  0  0
  2  3  2  0  0  0  0
  3  4  1  0  0  0  0
  4  5  2  0  0  0  0
  4 10  1  0  0  0  0
  5  6  1  0  0  0  0
  5  8  1  0  0  0  0
  6  7  2  0  0  0  0
  8  9  1  0  0  0  0
  9 10  2  0  0  0  0
M  END
>  <CHROM.1>
1.10739778,-11.73943598,12.28778890,2.22055184,-0.72149710,-2.97469555

>  <Name>
ligand

>  <RI>
0

>  <Rbt.Current_Directory>
/home/itssahil/PROJECTS/Mol_Feturizer/Test_systems_manuscript/rnas/5c7w

>  <Rbt.Executable>
rbdock ($Id: //depot/dev/client3/rdock/2013.1/src/exe/rbdock.cxx#4 $)

>  <Rbt.Library>
libRbt.so (2013.1, Build901 2013/11/27)

>  <Rbt.Parameter_File>
/export/apps/rDock/src/rDock_2013.1_src/data/scripts/dock_solv.prm

>  <Rbt.Receptor>
prm/pocket_docking_8.prm

>  <SCORE>
-14.8744

>  <SCORE.INTER>
-14.8744

>  <SCORE.INTER.CONST>
1

>  <SCORE.INTER.POLAR>
0

>  <SCORE.INTER.ROT>
0

>  <SCORE.INTER.SOLV>
3.29075

>  <SCORE.INTER.VDW>
-14.6132

>  <SCORE.INTER.norm>
-1.48744

>  <SCORE.INTRA>
0

>  <SCORE.INTRA.DIHEDRAL>
0

>  <SCORE.INTRA.DIHEDRAL.0>
0

>  <SCORE.INTRA.POLAR>
0

>  <SCORE.INTRA.POLAR.0>
0

>  <SCORE.INTRA.REPUL>
0

>  <SCORE.INTRA.REPUL.0>
0

>  <SCORE.INTRA.SOLV>
0

>  <SCORE.INTRA.SOLV.lig_0>
-4.15853

>  <SCORE.INTRA.VDW>
0

>  <SCORE.INTRA.VDW.0>
0

>  <SCORE.INTRA.norm>
0

>  <SCORE.RESTR>
0

>  <SCORE.RESTR.CAVITY>
0

>  <SCORE.RESTR.norm>
0

>  <SCORE.SYSTEM>
0

>  <SCORE.SYSTEM.CONST>
0

>  <SCORE.SYSTEM.DIHEDRAL>
0

>  <SCORE.SYSTEM.SOLV>
0

>  <SCORE.SYSTEM.norm>
0

>  <SCORE.heavy>
10

>  <SCORE.norm>
-1.48744

>  <RMSD>
2.311

$$$$
ligand
 OpenBabel02271912153D
libRbt.so/2013.1/901 2013/11/27
 10 11  0  0  0  0  0  0  0  0999 V2000
    0.0476  -13.2440   13.0531 N   0  0  0  0  0  0  0  0  0  0  0  0
   -0.5421  -12.2548   13.6891 C   0  0  0  0  0  0  0  0  0  0  0  0
   -0.0939  -10.9488   13.4761 N   0  0  0  0  0  0  0  0  0  0  0  0
    0.9167  -10.7093   12.6438 C   0  0  0  0  0  0  0  0  0  0  0  0
    1.5079  -11.7042   12.0091 C   0  0  0  0  0  0  0  0  0  0  0  0
    1.1055  -12.9473   12.1971 C   0  0  0  0  0  0  0  0  0  0  0  0
    1.6726  -13.8547   11.6047 O   0  0  0  0  0  0  0  0  0  0  0  0
    2.4751  -11.2092   11.2388 N   0  0  0  0  0  0  0  0  0  0  0  0
    2.4694   -9.8907   11.4004 C   0  0  0  0  0  0  0  0  0  0  0  0
    1.5057   -9.5838   12.2725 N   0  0  0  0  0  0  0  0  0  0  0  0
  1  2  1  0  0  0  0
  1  6  1  0  0  0  0
  2  3  2  0  0  0  0
  3  4  1  0  0  0  0
  4  5  2  0  0  0  0
  4 10  1  0  0  0  0
  5  6  1  0  0  0  0
  5  8  1  0  0  0  0
  6  7  2  0  0  0  0
  8  9  1  0  0  0  0
  9 10  2  0  0  0  0
M  END
>  <CHROM.1>
1.11611537,-11.67825337,12.34487017,2.20016363,-0.70387203,-3.01797941

>  <Name>
ligand

>  <RI>
0

>  <Rbt.Current_Directory>
/home/itssahil/PROJECTS/Mol_Feturizer/Test_systems_manuscript/rnas/5c7w

>  <Rbt.Executable>
rbdock ($Id: //depot/dev/client3/rdock/2013.1/src/exe/rbdock.cxx#4 $)

>  <Rbt.Library>
libRbt.so (2013.1, Build901 2013/11/27)

>  <Rbt.Parameter_File>
/export/apps/rDock/src/rDock_2013.1_src/data/scripts/dock_solv.prm

>  <Rbt.Receptor>
prm/blind_docking_100.prm

>  <SCORE>
-14.8445

>  <SCORE.INTER>
-14.8445

>  <SCORE.INTER.CONST>
1

>  <SCORE.INTER.POLAR>
0

>  <SCORE.INTER.ROT>
0

>  <SCORE.INTER.SOLV>
3.22099

>  <SCORE.INTER.VDW>
-14.57

>  <SCORE.INTER.norm>
-1.48445

>  <SCORE.INTRA>
0

>  <SCORE.INTRA.DIHEDRAL>
0

>  <SCORE.INTRA.DIHEDRAL.0>
0

>  <SCORE.INTRA.POLAR>
0

>  <SCORE.INTRA.POLAR.0>
0

>  <SCORE.INTRA.REPUL>
0

>  <SCORE.INTRA.REPUL.0>
0

>  <SCORE.INTRA.SOLV>
0

>  <SCORE.INTRA.SOLV.lig_0>
-4.15853

>  <SCORE.INTRA.VDW>
0

>  <SCORE.INTRA.VDW.0>
0

>  <SCORE.INTRA.norm>
0

>  <SCORE.RESTR>
0

>  <SCORE.RESTR.CAVITY>
0

>  <SCORE.RESTR.norm>
0

>  <SCORE.SYSTEM>
0

>  <SCORE.SYSTEM.CONST>
0

>  <SCORE.SYSTEM.DIHEDRAL>
0

>  <SCORE.SYSTEM.SOLV>
0

>  <SCORE.SYSTEM.norm>
0

>  <SCORE.heavy>
10

>  <SCORE.norm>
-1.48445

>  <RMSD>
2.312

$$$$
ligand
 OpenBabel02271912153D
libRbt.so/2013.1/901 2013/11/27
 10 11  0  0  0  0  0  0  0  0999 V2000
    0.0350  -13.3217   12.9643 N   0  0  0  0  0  0  0  0  0  0  0  0
   -0.5150  -12.3450   13.6528 C   0  0  0  0  0  0  0  0  0  0  0  0
   -0.0455  -11.0413   13.4740 N   0  0  0  0  0  0  0  0  0  0  0  0
    0.9454  -10.7917   12.6214 C   0  0  0  0  0  0  0  0  0  0  0  0
    1.4969  -11.7742   11.9338 C   0  0  0  0  0  0  0  0  0  0  0  0
    1.0738  -13.0151   12.0886 C   0  0  0  0  0  0  0  0  0  0  0  0
    1.6042  -13.9112   11.4471 O   0  0  0  0  0  0  0  0  0  0  0  0
    2.4516  -11.2707   11.1536 N   0  0  0  0  0  0  0  0  0  0  0  0
    2.4785   -9.9592   11.3629 C   0  0  0  0  0  0  0  0  0  0  0  0
    1.5471   -9.6653   12.2737 N   0  0  0  0  0  0  0  0  0  0  0  0
  1  2  1  0  0  0  0
  1  6  1  0  0  0  0
  2  3  2  0  0  0  0
  3  4  1  0  0  0  0
  4  5  2  0  0  0  0
  4 10  1  0  0  0  0
  5  6  1  0  0  0  0
  5  8  1  0  0  0  0
  6  7  2  0  0  0  0
  8  9  1  0  0  0  0
  9 10  2  0  0  0  0
M  END
>  <CHROM.1>
1.11555209,-11.75276241,12.28176755,2.23311860,-0.72968741,-2.95981531

>  <Name>
ligand

>  <RI>
0

>  <Rbt.Current_Directory>
/home/itssahil/PROJECTS/Mol_Feturizer/Test_systems_manuscript/rnas/5c7w

>  <Rbt.Executable>
rbdock ($Id: //depot/dev/client3/rdock/2013.1/src/exe/rbdock.cxx#4 $)

>  <Rbt.Library>
libRbt.so (2013.1, Build901 2013/11/27)

>  <Rbt.Parameter_File>
/export/apps/rDock/src/rDock_2013.1_src/data/scripts/dock_solv.prm

>  <Rbt.Receptor>
prm/blind_docking_100.prm

>  <SCORE>
-14.8707

>  <SCORE.INTER>
-14.8707

>  <SCORE.INTER.CONST>
1

>  <SCORE.INTER.POLAR>
0

>  <SCORE.INTER.ROT>
0

>  <SCORE.INTER.SOLV>
3.30816

>  <SCORE.INTER.VDW>
-14.6165

>  <SCORE.INTER.norm>
-1.48707

>  <SCORE.INTRA>
0

>  <SCORE.INTRA.DIHEDRAL>
0

>  <SCORE.INTRA.DIHEDRAL.0>
0

>  <SCORE.INTRA.POLAR>
0

>  <SCORE.INTRA.POLAR.0>
0

>  <SCORE.INTRA.REPUL>
0

>  <SCORE.INTRA.REPUL.0>
0

>  <SCORE.INTRA.SOLV>
0

>  <SCORE.INTRA.SOLV.lig_0>
-4.15853

>  <SCORE.INTRA.VDW>
0

>  <SCORE.INTRA.VDW.0>
0

>  <SCORE.INTRA.norm>
0

>  <SCORE.RESTR>
0

>  <SCORE.RESTR.CAVITY>
0

>  <SCORE.RESTR.norm>
0

>  <SCORE.SYSTEM>
0

>  <SCORE.SYSTEM.CONST>
0

>  <SCORE.SYSTEM.DIHEDRAL>
0

>  <SCORE.SYSTEM.SOLV>
0

>  <SCORE.SYSTEM.norm>
0

>  <SCORE.heavy>
10

>  <SCORE.norm>
-1.48707

>  <RMSD>
2.312

$$$$
ligand
 OpenBabel02271912153D
libRbt.so/2013.1/901 2013/11/27
 10 11  0  0  0  0  0  0  0  0999 V2000
    0.0706  -13.3043   12.9573 N   0  0  0  0  0  0  0  0  0  0  0  0
   -0.4965  -12.3499   13.6631 C   0  0  0  0  0  0  0  0  0  0  0  0
   -0.0537  -11.0344   13.5038 N   0  0  0  0  0  0  0  0  0  0  0  0
    0.9292  -10.7514   12.6523 C   0  0  0  0  0  0  0  0  0  0  0  0
    1.4979  -11.7117   11.9474 C   0  0  0  0  0  0  0  0  0  0  0  0
    1.1002  -12.9630   12.0836 C   0  0  0  0  0  0  0  0  0  0  0  0
    1.6462  -13.8380   11.4262 O   0  0  0  0  0  0  0  0  0  0  0  0
    2.4399  -11.1768   11.1725 N   0  0  0  0  0  0  0  0  0  0  0  0
    2.4413   -9.8686   11.4028 C   0  0  0  0  0  0  0  0  0  0  0  0
    1.5072   -9.6079   12.3210 N   0  0  0  0  0  0  0  0  0  0  0  0
  1  2  1  0  0  0  0
  1  6  1  0  0  0  0
  2  3  2  0  0  0  0
  3  4  1  0  0  0  0
  4  5  2  0  0  0  0
  4 10  1  0  0  0  0
  5  6  1  0  0  0  0
  5  8  1  0  0  0  0
  6  7  2  0  0  0  0
  8  9  1  0  0  0  0
  9 10  2  0  0  0  0
M  END
>  <CHROM.1>
1.11740579,-11.70339692,12.29684092,2.20748841,-0.73635528,-2.96095331

>  <Name>
ligand

>  <RI>
0

>  <Rbt.Current_Directory>
/home/itssahil/PROJECTS/Mol_Feturizer/Test_systems_manuscript/rnas/5c7w

>  <Rbt.Executable>
rbdock ($Id: //depot/dev/client3/rdock/2013.1/src/exe/rbdock.cxx#4 $)

>  <Rbt.Library>
libRbt.so (2013.1, Build901 2013/11/27)

>  <Rbt.Parameter_File>
/export/apps/rDock/src/rDock_2013.1_src/data/scripts/dock_solv.prm

>  <Rbt.Receptor>
prm/blind_docking_100.prm

>  <SCORE>
-14.9042

>  <SCORE.INTER>
-14.9042

>  <SCORE.INTER.CONST>
1

>  <SCORE.INTER.POLAR>
0

>  <SCORE.INTER.ROT>
0

>  <SCORE.INTER.SOLV>
3.34208

>  <SCORE.INTER.VDW>
-14.6502

>  <SCORE.INTER.norm>
-1.49042

>  <SCORE.INTRA>
0

>  <SCORE.INTRA.DIHEDRAL>
0

>  <SCORE.INTRA.DIHEDRAL.0>
0

>  <SCORE.INTRA.POLAR>
0

>  <SCORE.INTRA.POLAR.0>
0

>  <SCORE.INTRA.REPUL>
0

>  <SCORE.INTRA.REPUL.0>
0

>  <SCORE.INTRA.SOLV>
0

>  <SCORE.INTRA.SOLV.lig_0>
-4.15853

>  <SCORE.INTRA.VDW>
0

>  <SCORE.INTRA.VDW.0>
0

>  <SCORE.INTRA.norm>
0

>  <SCORE.RESTR>
0

>  <SCORE.RESTR.CAVITY>
0

>  <SCORE.RESTR.norm>
0

>  <SCORE.SYSTEM>
0

>  <SCORE.SYSTEM.CONST>
0

>  <SCORE.SYSTEM.DIHEDRAL>
0

>  <SCORE.SYSTEM.SOLV>
0

>  <SCORE.SYSTEM.norm>
0

>  <SCORE.heavy>
10

>  <SCORE.norm>
-1.49042

>  <RMSD>
2.312

$$$$
ligand
 OpenBabel02271912153D
libRbt.so/2013.1/901 2013/11/27
 10 11  0  0  0  0  0  0  0  0999 V2000
    0.0728  -13.3004   12.9343 N   0  0  0  0  0  0  0  0  0  0  0  0
   -0.4942  -12.3495   13.6448 C   0  0  0  0  0  0  0  0  0  0  0  0
   -0.0456  -11.0345   13.4981 N   0  0  0  0  0  0  0  0  0  0  0  0
    0.9426  -10.7486   12.6538 C   0  0  0  0  0  0  0  0  0  0  0  0
    1.5112  -11.7054   11.9442 C   0  0  0  0  0  0  0  0  0  0  0  0
    1.1081  -12.9562   12.0684 C   0  0  0  0  0  0  0  0  0  0  0  0
    1.6541  -13.8281   11.4069 O   0  0  0  0  0  0  0  0  0  0  0  0
    2.4591  -11.1680   11.1783 N   0  0  0  0  0  0  0  0  0  0  0  0
    2.4643   -9.8617   11.4189 C   0  0  0  0  0  0  0  0  0  0  0  0
    1.5266   -9.6046   12.3344 N   0  0  0  0  0  0  0  0  0  0  0  0
  1  2  1  0  0  0  0
  1  6  1  0  0  0  0
  2  3  2  0  0  0  0
  3  4  1  0  0  0  0
  4  5  2  0  0  0  0
  4 10  1  0  0  0  0
  5  6  1  0  0  0  0
  5  8  1  0  0  0  0
  6  7  2  0  0  0  0
  8  9  1  0  0  0  0
  9 10  2  0  0  0  0
M  END
>  <CHROM.1>
1.12897891,-11.69841010,12.29176061,2.21127461,-0.73073699,-2.95050382

>  <Name>
ligand

>  <RI>
0

>  <Rbt.Current_Directory>
/home/itssahil/PROJECTS/Mol_Feturizer/Test_systems_manuscript/rnas/5c7w

>  <Rbt.Executable>
rbdock ($Id: //depot/dev/client3/rdock/2013.1/src/exe/rbdock.cxx#4 $)

>  <Rbt.Library>
libRbt.so (2013.1, Build901 2013/11/27)

>  <Rbt.Parameter_File>
/export/apps/rDock/src/rDock_2013.1_src/data/scripts/dock_solv.prm

>  <Rbt.Receptor>
prm/blind_docking_40.prm

>  <SCORE>
-14.9341

>  <SCORE.INTER>
-14.9341

>  <SCORE.INTER.CONST>
1

>  <SCORE.INTER.POLAR>
0

>  <SCORE.INTER.ROT>
0

>  <SCORE.INTER.SOLV>
3.34202

>  <SCORE.INTER.VDW>
-14.6701

>  <SCORE.INTER.norm>
-1.49341

>  <SCORE.INTRA>
0

>  <SCORE.INTRA.DIHEDRAL>
0

>  <SCORE.INTRA.DIHEDRAL.0>
0

>  <SCORE.INTRA.POLAR>
0

>  <SCORE.INTRA.POLAR.0>
0

>  <SCORE.INTRA.REPUL>
0

>  <SCORE.INTRA.REPUL.0>
0

>  <SCORE.INTRA.SOLV>
0

>  <SCORE.INTRA.SOLV.lig_0>
-4.15853

>  <SCORE.INTRA.VDW>
0

>  <SCORE.INTRA.VDW.0>
0

>  <SCORE.INTRA.norm>
0

>  <SCORE.RESTR>
0

>  <SCORE.RESTR.CAVITY>
0

>  <SCORE.RESTR.norm>
0

>  <SCORE.SYSTEM>
0

>  <SCORE.SYSTEM.CONST>
0

>  <SCORE.SYSTEM.DIHEDRAL>
0

>  <SCORE.SYSTEM.SOLV>
0

>  <SCORE.SYSTEM.norm>
0

>  <SCORE.heavy>
10

>  <SCORE.norm>
-1.49341

>  <RMSD>
2.312

$$$$
ligand
 OpenBabel02271912153D
libRbt.so/2013.1/901 2013/11/27
 10 11  0  0  0  0  0  0  0  0999 V2000
    0.0421  -13.3216   12.9511 N   0  0  0  0  0  0  0  0  0  0  0  0
   -0.5199  -12.3520   13.6400 C   0  0  0  0  0  0  0  0  0  0  0  0
   -0.0552  -11.0449   13.4743 N   0  0  0  0  0  0  0  0  0  0  0  0
    0.9431  -10.7850   12.6335 C   0  0  0  0  0  0  0  0  0  0  0  0
    1.5067  -11.7603   11.9455 C   0  0  0  0  0  0  0  0  0  0  0  0
    1.0884  -13.0042   12.0881 C   0  0  0  0  0  0  0  0  0  0  0  0
    1.6299  -13.8936   11.4465 O   0  0  0  0  0  0  0  0  0  0  0  0
    2.4669  -11.2471   11.1784 N   0  0  0  0  0  0  0  0  0  0  0  0
    2.4849   -9.9369   11.3962 C   0  0  0  0  0  0  0  0  0  0  0  0
    1.5427   -9.6534   12.2992 N   0  0  0  0  0  0  0  0  0  0  0  0
  1  2  1  0  0  0  0
  1  6  1  0  0  0  0
  2  3  2  0  0  0  0
  3  4  1  0  0  0  0
  4  5  2  0  0  0  0
  4 10  1  0  0  0  0
  5  6  1  0  0  0  0
  5  8  1  0  0  0  0
  6  7  2  0  0  0  0
  8  9  1  0  0  0  0
  9 10  2  0  0  0  0
M  END
>  <CHROM.1>
1.12168092,-11.74300631,12.28965028,2.22401373,-0.72042148,-2.95954423

>  <Name>
ligand

>  <RI>
0

>  <Rbt.Current_Directory>
/home/itssahil/PROJECTS/Mol_Feturizer/Test_systems_manuscript/rnas/5c7w

>  <Rbt.Executable>
rbdock ($Id: //depot/dev/client3/rdock/2013.1/src/exe/rbdock.cxx#4 $)

>  <Rbt.Library>
libRbt.so (2013.1, Build901 2013/11/27)

>  <Rbt.Parameter_File>
/export/apps/rDock/src/rDock_2013.1_src/data/scripts/dock_solv.prm

>  <Rbt.Receptor>
prm/blind_docking_80.prm

>  <SCORE>
-14.9033

>  <SCORE.INTER>
-14.9033

>  <SCORE.INTER.CONST>
1

>  <SCORE.INTER.POLAR>
0

>  <SCORE.INTER.ROT>
0

>  <SCORE.INTER.SOLV>
3.29632

>  <SCORE.INTER.VDW>
-14.6343

>  <SCORE.INTER.norm>
-1.49033

>  <SCORE.INTRA>
0

>  <SCORE.INTRA.DIHEDRAL>
0

>  <SCORE.INTRA.DIHEDRAL.0>
0

>  <SCORE.INTRA.POLAR>
0

>  <SCORE.INTRA.POLAR.0>
0

>  <SCORE.INTRA.REPUL>
0

>  <SCORE.INTRA.REPUL.0>
0

>  <SCORE.INTRA.SOLV>
0

>  <SCORE.INTRA.SOLV.lig_0>
-4.15853

>  <SCORE.INTRA.VDW>
0

>  <SCORE.INTRA.VDW.0>
0

>  <SCORE.INTRA.norm>
0

>  <SCORE.RESTR>
0

>  <SCORE.RESTR.CAVITY>
0

>  <SCORE.RESTR.norm>
0

>  <SCORE.SYSTEM>
0

>  <SCORE.SYSTEM.CONST>
0

>  <SCORE.SYSTEM.DIHEDRAL>
0

>  <SCORE.SYSTEM.SOLV>
0

>  <SCORE.SYSTEM.norm>
0

>  <SCORE.heavy>
10

>  <SCORE.norm>
-1.49033

>  <RMSD>
2.312

$$$$
ligand
 OpenBabel02271912153D
libRbt.so/2013.1/901 2013/11/27
 10 11  0  0  0  0  0  0  0  0999 V2000
    0.0432  -13.3203   12.9490 N   0  0  0  0  0  0  0  0  0  0  0  0
   -0.5144  -12.3514   13.6425 C   0  0  0  0  0  0  0  0  0  0  0  0
   -0.0534  -11.0436   13.4723 N   0  0  0  0  0  0  0  0  0  0  0  0
    0.9372  -10.7823   12.6229 C   0  0  0  0  0  0  0  0  0  0  0  0
    1.4964  -11.7570   11.9303 C   0  0  0  0  0  0  0  0  0  0  0  0
    1.0813  -13.0015   12.0769 C   0  0  0  0  0  0  0  0  0  0  0  0
    1.6187  -13.8902   11.4309 O   0  0  0  0  0  0  0  0  0  0  0  0
    2.4490  -11.2424   11.1547 N   0  0  0  0  0  0  0  0  0  0  0  0
    2.4669   -9.9321   11.3720 C   0  0  0  0  0  0  0  0  0  0  0  0
    1.5320   -9.6499   12.2830 N   0  0  0  0  0  0  0  0  0  0  0  0
  1  2  1  0  0  0  0
  1  6  1  0  0  0  0
  2  3  2  0  0  0  0
  3  4  1  0  0  0  0
  4  5  2  0  0  0  0
  4 10  1  0  0  0  0
  5  6  1  0  0  0  0
  5  8  1  0  0  0  0
  6  7  2  0  0  0  0
  8  9  1  0  0  0  0
  9 10  2  0  0  0  0
M  END
>  <CHROM.1>
1.11435550,-11.74015860,12.27775894,2.22396302,-0.72925094,-2.95988590

>  <Name>
ligand

>  <RI>
0

>  <Rbt.Current_Directory>
/home/itssahil/PROJECTS/Mol_Feturizer/Test_systems_manuscript/rnas/5c7w

>  <Rbt.Executable>
rbdock ($Id: //depot/dev/client3/rdock/2013.1/src/exe/rbdock.cxx#4 $)

>  <Rbt.Library>
libRbt.so (2013.1, Build901 2013/11/27)

>  <Rbt.Parameter_File>
/export/apps/rDock/src/rDock_2013.1_src/data/scripts/dock_solv.prm

>  <Rbt.Receptor>
prm/pocket_docking_6.prm

>  <SCORE>
-14.8741

>  <SCORE.INTER>
-14.8741

>  <SCORE.INTER.CONST>
1

>  <SCORE.INTER.POLAR>
0

>  <SCORE.INTER.ROT>
0

>  <SCORE.INTER.SOLV>
3.3161

>  <SCORE.INTER.VDW>
-14.6214

>  <SCORE.INTER.norm>
-1.48741

>  <SCORE.INTRA>
0

>  <SCORE.INTRA.DIHEDRAL>
0

>  <SCORE.INTRA.DIHEDRAL.0>
0

>  <SCORE.INTRA.POLAR>
0

>  <SCORE.INTRA.POLAR.0>
0

>  <SCORE.INTRA.REPUL>
0

>  <SCORE.INTRA.REPUL.0>
0

>  <SCORE.INTRA.SOLV>
0

>  <SCORE.INTRA.SOLV.lig_0>
-4.15853

>  <SCORE.INTRA.VDW>
0

>  <SCORE.INTRA.VDW.0>
0

>  <SCORE.INTRA.norm>
0

>  <SCORE.RESTR>
0

>  <SCORE.RESTR.CAVITY>
0

>  <SCORE.RESTR.norm>
0

>  <SCORE.SYSTEM>
0

>  <SCORE.SYSTEM.CONST>
0

>  <SCORE.SYSTEM.DIHEDRAL>
0

>  <SCORE.SYSTEM.SOLV>
0

>  <SCORE.SYSTEM.norm>
0

>  <SCORE.heavy>
10

>  <SCORE.norm>
-1.48741

>  <RMSD>
2.312

$$$$
ligand
 OpenBabel02271912153D
libRbt.so/2013.1/901 2013/11/27
 10 11  0  0  0  0  0  0  0  0999 V2000
    0.0674  -13.2968   12.9291 N   0  0  0  0  0  0  0  0  0  0  0  0
   -0.4917  -12.3445   13.6441 C   0  0  0  0  0  0  0  0  0  0  0  0
   -0.0390  -11.0310   13.4961 N   0  0  0  0  0  0  0  0  0  0  0  0
    0.9452  -10.7480   12.6462 C   0  0  0  0  0  0  0  0  0  0  0  0
    1.5058  -11.7062   11.9320 C   0  0  0  0  0  0  0  0  0  0  0  0
    1.0987  -12.9556   12.0574 C   0  0  0  0  0  0  0  0  0  0  0  0
    1.6373  -13.8288   11.3916 O   0  0  0  0  0  0  0  0  0  0  0  0
    2.4510  -11.1715   11.1610 N   0  0  0  0  0  0  0  0  0  0  0  0
    2.4627   -9.8655   11.4030 C   0  0  0  0  0  0  0  0  0  0  0  0
    1.5316   -9.6059   12.3245 N   0  0  0  0  0  0  0  0  0  0  0  0
  1  2  1  0  0  0  0
  1  6  1  0  0  0  0
  2  3  2  0  0  0  0
  3  4  1  0  0  0  0
  4  5  2  0  0  0  0
  4 10  1  0  0  0  0
  5  6  1  0  0  0  0
  5  8  1  0  0  0  0
  6  7  2  0  0  0  0
  8  9  1  0  0  0  0
  9 10  2  0  0  0  0
M  END
>  <CHROM.1>
1.12572108,-11.69811134,12.28193817,2.21788140,-0.73596117,-2.94499390

>  <Name>
ligand

>  <RI>
0

>  <Rbt.Current_Directory>
/home/itssahil/PROJECTS/Mol_Feturizer/Test_systems_manuscript/rnas/5c7w

>  <Rbt.Executable>
rbdock ($Id: //depot/dev/client3/rdock/2013.1/src/exe/rbdock.cxx#4 $)

>  <Rbt.Library>
libRbt.so (2013.1, Build901 2013/11/27)

>  <Rbt.Parameter_File>
/export/apps/rDock/src/rDock_2013.1_src/data/scripts/dock_solv.prm

>  <Rbt.Receptor>
prm/pocket_docking_8.prm

>  <SCORE>
-14.9362

>  <SCORE.INTER>
-14.9362

>  <SCORE.INTER.CONST>
1

>  <SCORE.INTER.POLAR>
0

>  <SCORE.INTER.ROT>
0

>  <SCORE.INTER.SOLV>
3.34918

>  <SCORE.INTER.VDW>
-14.6739

>  <SCORE.INTER.norm>
-1.49362

>  <SCORE.INTRA>
0

>  <SCORE.INTRA.DIHEDRAL>
0

>  <SCORE.INTRA.DIHEDRAL.0>
0

>  <SCORE.INTRA.POLAR>
0

>  <SCORE.INTRA.POLAR.0>
0

>  <SCORE.INTRA.REPUL>
0

>  <SCORE.INTRA.REPUL.0>
0

>  <SCORE.INTRA.SOLV>
0

>  <SCORE.INTRA.SOLV.lig_0>
-4.15853

>  <SCORE.INTRA.VDW>
0

>  <SCORE.INTRA.VDW.0>
0

>  <SCORE.INTRA.norm>
0

>  <SCORE.RESTR>
0

>  <SCORE.RESTR.CAVITY>
0

>  <SCORE.RESTR.norm>
0

>  <SCORE.SYSTEM>
0

>  <SCORE.SYSTEM.CONST>
0

>  <SCORE.SYSTEM.DIHEDRAL>
0

>  <SCORE.SYSTEM.SOLV>
0

>  <SCORE.SYSTEM.norm>
0

>  <SCORE.heavy>
10

>  <SCORE.norm>
-1.49362

>  <RMSD>
2.312

$$$$
ligand
 OpenBabel02271912153D
libRbt.so/2013.1/901 2013/11/27
 10 11  0  0  0  0  0  0  0  0999 V2000
    0.0732  -13.3005   12.9382 N   0  0  0  0  0  0  0  0  0  0  0  0
   -0.5028  -12.3436   13.6333 C   0  0  0  0  0  0  0  0  0  0  0  0
   -0.0642  -11.0275   13.4683 N   0  0  0  0  0  0  0  0  0  0  0  0
    0.9238  -10.7464   12.6221 C   0  0  0  0  0  0  0  0  0  0  0  0
    1.5015  -11.7091   11.9279 C   0  0  0  0  0  0  0  0  0  0  0  0
    1.1078  -12.9611   12.0697 C   0  0  0  0  0  0  0  0  0  0  0  0
    1.6621  -13.8383   11.4224 O   0  0  0  0  0  0  0  0  0  0  0  0
    2.4470  -11.1757   11.1563 N   0  0  0  0  0  0  0  0  0  0  0  0
    2.4415   -9.8659   11.3776 C   0  0  0  0  0  0  0  0  0  0  0  0
    1.4997   -9.6027   12.2871 N   0  0  0  0  0  0  0  0  0  0  0  0
  1  2  1  0  0  0  0
  1  6  1  0  0  0  0
  2  3  2  0  0  0  0
  3  4  1  0  0  0  0
  4  5  2  0  0  0  0
  4 10  1  0  0  0  0
  5  6  1  0  0  0  0
  5  8  1  0  0  0  0
  6  7  2  0  0  0  0
  8  9  1  0  0  0  0
  9 10  2  0  0  0  0
M  END
>  <CHROM.1>
1.11840862,-11.69995282,12.27449305,2.20045434,-0.72986460,-2.97248685

>  <Name>
ligand

>  <RI>
0

>  <Rbt.Current_Directory>
/home/itssahil/PROJECTS/Mol_Feturizer/Test_systems_manuscript/rnas/5c7w

>  <Rbt.Executable>
rbdock ($Id: //depot/dev/client3/rdock/2013.1/src/exe/rbdock.cxx#4 $)

>  <Rbt.Library>
libRbt.so (2013.1, Build901 2013/11/27)

>  <Rbt.Parameter_File>
/export/apps/rDock/src/rDock_2013.1_src/data/scripts/dock_solv.prm

>  <Rbt.Receptor>
prm/blind_docking_100.prm

>  <SCORE>
-14.8903

>  <SCORE.INTER>
-14.8903

>  <SCORE.INTER.CONST>
1

>  <SCORE.INTER.POLAR>
0

>  <SCORE.INTER.ROT>
0

>  <SCORE.INTER.SOLV>
3.34589

>  <SCORE.INTER.VDW>
-14.6421

>  <SCORE.INTER.norm>
-1.48903

>  <SCORE.INTRA>
0

>  <SCORE.INTRA.DIHEDRAL>
0

>  <SCORE.INTRA.DIHEDRAL.0>
0

>  <SCORE.INTRA.POLAR>
0

>  <SCORE.INTRA.POLAR.0>
0

>  <SCORE.INTRA.REPUL>
0

>  <SCORE.INTRA.REPUL.0>
0

>  <SCORE.INTRA.SOLV>
0

>  <SCORE.INTRA.SOLV.lig_0>
-4.15853

>  <SCORE.INTRA.VDW>
0

>  <SCORE.INTRA.VDW.0>
0

>  <SCORE.INTRA.norm>
0

>  <SCORE.RESTR>
0

>  <SCORE.RESTR.CAVITY>
0

>  <SCORE.RESTR.norm>
0

>  <SCORE.SYSTEM>
0

>  <SCORE.SYSTEM.CONST>
0

>  <SCORE.SYSTEM.DIHEDRAL>
0

>  <SCORE.SYSTEM.SOLV>
0

>  <SCORE.SYSTEM.norm>
0

>  <SCORE.heavy>
10

>  <SCORE.norm>
-1.48903

>  <RMSD>
2.313

$$$$
ligand
 OpenBabel02271912153D
libRbt.so/2013.1/901 2013/11/27
 10 11  0  0  0  0  0  0  0  0999 V2000
    0.0524  -13.3240   12.9661 N   0  0  0  0  0  0  0  0  0  0  0  0
   -0.5129  -12.3525   13.6496 C   0  0  0  0  0  0  0  0  0  0  0  0
   -0.0557  -11.0442   13.4732 N   0  0  0  0  0  0  0  0  0  0  0  0
    0.9391  -10.7850   12.6279 C   0  0  0  0  0  0  0  0  0  0  0  0
    1.5059  -11.7623   11.9454 C   0  0  0  0  0  0  0  0  0  0  0  0
    1.0946  -13.0073   12.0981 C   0  0  0  0  0  0  0  0  0  0  0  0
    1.6391  -13.8985   11.4614 O   0  0  0  0  0  0  0  0  0  0  0  0
    2.4613  -11.2496   11.1720 N   0  0  0  0  0  0  0  0  0  0  0  0
    2.4730   -9.9377   11.3803 C   0  0  0  0  0  0  0  0  0  0  0  0
    1.5317   -9.6527   12.2838 N   0  0  0  0  0  0  0  0  0  0  0  0
  1  2  1  0  0  0  0
  1  6  1  0  0  0  0
  2  3  2  0  0  0  0
  3  4  1  0  0  0  0
  4  5  2  0  0  0  0
  4 10  1  0  0  0  0
  5  6  1  0  0  0  0
  5  8  1  0  0  0  0
  6  7  2  0  0  0  0
  8  9  1  0  0  0  0
  9 10  2  0  0  0  0
M  END
>  <CHROM.1>
1.12178582,-11.74452111,12.29042820,2.21766590,-0.72401086,-2.97094612

>  <Name>
ligand

>  <RI>
0

>  <Rbt.Current_Directory>
/home/itssahil/PROJECTS/Mol_Feturizer/Test_systems_manuscript/rnas/5c7w

>  <Rbt.Executable>
rbdock ($Id: //depot/dev/client3/rdock/2013.1/src/exe/rbdock.cxx#4 $)

>  <Rbt.Library>
libRbt.so (2013.1, Build901 2013/11/27)

>  <Rbt.Parameter_File>
/export/apps/rDock/src/rDock_2013.1_src/data/scripts/dock_solv.prm

>  <Rbt.Receptor>
prm/blind_docking_40.prm

>  <SCORE>
-14.8722

>  <SCORE.INTER>
-14.8722

>  <SCORE.INTER.CONST>
1

>  <SCORE.INTER.POLAR>
0

>  <SCORE.INTER.ROT>
0

>  <SCORE.INTER.SOLV>
3.30216

>  <SCORE.INTER.VDW>
-14.6155

>  <SCORE.INTER.norm>
-1.48722

>  <SCORE.INTRA>
0

>  <SCORE.INTRA.DIHEDRAL>
0

>  <SCORE.INTRA.DIHEDRAL.0>
0

>  <SCORE.INTRA.POLAR>
0

>  <SCORE.INTRA.POLAR.0>
0

>  <SCORE.INTRA.REPUL>
0

>  <SCORE.INTRA.REPUL.0>
0

>  <SCORE.INTRA.SOLV>
0

>  <SCORE.INTRA.SOLV.lig_0>
-4.15853

>  <SCORE.INTRA.VDW>
0

>  <SCORE.INTRA.VDW.0>
0

>  <SCORE.INTRA.norm>
0

>  <SCORE.RESTR>
0

>  <SCORE.RESTR.CAVITY>
0

>  <SCORE.RESTR.norm>
0

>  <SCORE.SYSTEM>
0

>  <SCORE.SYSTEM.CONST>
0

>  <SCORE.SYSTEM.DIHEDRAL>
0

>  <SCORE.SYSTEM.SOLV>
0

>  <SCORE.SYSTEM.norm>
0

>  <SCORE.heavy>
10

>  <SCORE.norm>
-1.48722

>  <RMSD>
2.313

$$$$
ligand
 OpenBabel02271912153D
libRbt.so/2013.1/901 2013/11/27
 10 11  0  0  0  0  0  0  0  0999 V2000
    0.0436  -13.2257   12.9468 N   0  0  0  0  0  0  0  0  0  0  0  0
   -0.5078  -12.2432   13.6259 C   0  0  0  0  0  0  0  0  0  0  0  0
   -0.0273  -10.9433   13.4490 N   0  0  0  0  0  0  0  0  0  0  0  0
    0.9753  -10.7030   12.6073 C   0  0  0  0  0  0  0  0  0  0  0  0
    1.5281  -11.6913   11.9291 C   0  0  0  0  0  0  0  0  0  0  0  0
    1.0948  -12.9288   12.0825 C   0  0  0  0  0  0  0  0  0  0  0  0
    1.6265  -13.8304   11.4499 O   0  0  0  0  0  0  0  0  0  0  0  0
    2.4954  -11.1966   11.1588 N   0  0  0  0  0  0  0  0  0  0  0  0
    2.5288   -9.8848   11.3647 C   0  0  0  0  0  0  0  0  0  0  0  0
    1.5887   -9.5818   12.2636 N   0  0  0  0  0  0  0  0  0  0  0  0
  1  2  1  0  0  0  0
  1  6  1  0  0  0  0
  2  3  2  0  0  0  0
  3  4  1  0  0  0  0
  4  5  2  0  0  0  0
  4 10  1  0  0  0  0
  5  6  1  0  0  0  0
  5  8  1  0  0  0  0
  6  7  2  0  0  0  0
  8  9  1  0  0  0  0
  9 10  2  0  0  0  0
M  END
>  <CHROM.1>
1.14284138,-11.66623268,12.27253727,2.23923475,-0.71683747,-2.95868727

>  <Name>
ligand

>  <RI>
0

>  <Rbt.Current_Directory>
/home/itssahil/PROJECTS/Mol_Feturizer/Test_systems_manuscript/rnas/5c7w

>  <Rbt.Executable>
rbdock ($Id: //depot/dev/client3/rdock/2013.1/src/exe/rbdock.cxx#4 $)

>  <Rbt.Library>
libRbt.so (2013.1, Build901 2013/11/27)

>  <Rbt.Parameter_File>
/export/apps/rDock/src/rDock_2013.1_src/data/scripts/dock_solv.prm

>  <Rbt.Receptor>
prm/blind_docking_60.prm

>  <SCORE>
-14.8065

>  <SCORE.INTER>
-14.8065

>  <SCORE.INTER.CONST>
1

>  <SCORE.INTER.POLAR>
0

>  <SCORE.INTER.ROT>
0

>  <SCORE.INTER.SOLV>
3.27797

>  <SCORE.INTER.VDW>
-14.5636

>  <SCORE.INTER.norm>
-1.48065

>  <SCORE.INTRA>
0

>  <SCORE.INTRA.DIHEDRAL>
0

>  <SCORE.INTRA.DIHEDRAL.0>
0

>  <SCORE.INTRA.POLAR>
0

>  <SCORE.INTRA.POLAR.0>
0

>  <SCORE.INTRA.REPUL>
0

>  <SCORE.INTRA.REPUL.0>
0

>  <SCORE.INTRA.SOLV>
0

>  <SCORE.INTRA.SOLV.lig_0>
-4.15853

>  <SCORE.INTRA.VDW>
0

>  <SCORE.INTRA.VDW.0>
0

>  <SCORE.INTRA.norm>
0

>  <SCORE.RESTR>
0

>  <SCORE.RESTR.CAVITY>
0

>  <SCORE.RESTR.norm>
0

>  <SCORE.SYSTEM>
0

>  <SCORE.SYSTEM.CONST>
0

>  <SCORE.SYSTEM.DIHEDRAL>
0

>  <SCORE.SYSTEM.SOLV>
0

>  <SCORE.SYSTEM.norm>
0

>  <SCORE.heavy>
10

>  <SCORE.norm>
-1.48065

>  <RMSD>
2.313

$$$$
ligand
 OpenBabel02271912153D
libRbt.so/2013.1/901 2013/11/27
 10 11  0  0  0  0  0  0  0  0999 V2000
    0.0423  -13.3218   12.9631 N   0  0  0  0  0  0  0  0  0  0  0  0
   -0.5133  -12.3466   13.6493 C   0  0  0  0  0  0  0  0  0  0  0  0
   -0.0456  -11.0419   13.4737 N   0  0  0  0  0  0  0  0  0  0  0  0
    0.9492  -10.7898   12.6264 C   0  0  0  0  0  0  0  0  0  0  0  0
    1.5063  -11.7708   11.9411 C   0  0  0  0  0  0  0  0  0  0  0  0
    1.0850  -13.0126   12.0930 C   0  0  0  0  0  0  0  0  0  0  0  0
    1.6205  -13.9072   11.4538 O   0  0  0  0  0  0  0  0  0  0  0  0
    2.4641  -11.2649   11.1662 N   0  0  0  0  0  0  0  0  0  0  0  0
    2.4872   -9.9535   11.3764 C   0  0  0  0  0  0  0  0  0  0  0  0
    1.5504   -9.6619   12.2825 N   0  0  0  0  0  0  0  0  0  0  0  0
  1  2  1  0  0  0  0
  1  6  1  0  0  0  0
  2  3  2  0  0  0  0
  3  4  1  0  0  0  0
  4  5  2  0  0  0  0
  4 10  1  0  0  0  0
  5  6  1  0  0  0  0
  5  8  1  0  0  0  0
  6  7  2  0  0  0  0
  8  9  1  0  0  0  0
  9 10  2  0  0  0  0
M  END
>  <CHROM.1>
1.12311626,-11.75029453,12.28714493,2.22919156,-0.72491861,-2.96184852

>  <Name>
ligand

>  <RI>
0

>  <Rbt.Current_Directory>
/home/itssahil/PROJECTS/Mol_Feturizer/Test_systems_manuscript/rnas/5c7w

>  <Rbt.Executable>
rbdock ($Id: //depot/dev/client3/rdock/2013.1/src/exe/rbdock.cxx#4 $)

>  <Rbt.Library>
libRbt.so (2013.1, Build901 2013/11/27)

>  <Rbt.Parameter_File>
/export/apps/rDock/src/rDock_2013.1_src/data/scripts/dock_solv.prm

>  <Rbt.Receptor>
prm/pocket_docking_4.prm

>  <SCORE>
-14.9036

>  <SCORE.INTER>
-14.9036

>  <SCORE.INTER.CONST>
1

>  <SCORE.INTER.POLAR>
0

>  <SCORE.INTER.ROT>
0

>  <SCORE.INTER.SOLV>
3.30152

>  <SCORE.INTER.VDW>
-14.6362

>  <SCORE.INTER.norm>
-1.49036

>  <SCORE.INTRA>
0

>  <SCORE.INTRA.DIHEDRAL>
0

>  <SCORE.INTRA.DIHEDRAL.0>
0

>  <SCORE.INTRA.POLAR>
0

>  <SCORE.INTRA.POLAR.0>
0

>  <SCORE.INTRA.REPUL>
0

>  <SCORE.INTRA.REPUL.0>
0

>  <SCORE.INTRA.SOLV>
0

>  <SCORE.INTRA.SOLV.lig_0>
-4.15853

>  <SCORE.INTRA.VDW>
0

>  <SCORE.INTRA.VDW.0>
0

>  <SCORE.INTRA.norm>
0

>  <SCORE.RESTR>
0

>  <SCORE.RESTR.CAVITY>
0

>  <SCORE.RESTR.norm>
0

>  <SCORE.SYSTEM>
0

>  <SCORE.SYSTEM.CONST>
0

>  <SCORE.SYSTEM.DIHEDRAL>
0

>  <SCORE.SYSTEM.SOLV>
0

>  <SCORE.SYSTEM.norm>
0

>  <SCORE.heavy>
10

>  <SCORE.norm>
-1.49036

>  <RMSD>
2.313

$$$$
ligand
 OpenBabel02271912153D
libRbt.so/2013.1/901 2013/11/27
 10 11  0  0  0  0  0  0  0  0999 V2000
    0.0572  -13.3057   12.9874 N   0  0  0  0  0  0  0  0  0  0  0  0
   -0.5161  -12.3288   13.6564 C   0  0  0  0  0  0  0  0  0  0  0  0
   -0.0638  -11.0206   13.4672 N   0  0  0  0  0  0  0  0  0  0  0  0
    0.9344  -10.7668   12.6243 C   0  0  0  0  0  0  0  0  0  0  0  0
    1.5093  -11.7494   11.9563 C   0  0  0  0  0  0  0  0  0  0  0  0
    1.1027  -12.9944   12.1213 C   0  0  0  0  0  0  0  0  0  0  0  0
    1.6546  -13.8904   11.4981 O   0  0  0  0  0  0  0  0  0  0  0  0
    2.4666  -11.2414   11.1821 N   0  0  0  0  0  0  0  0  0  0  0  0
    2.4713   -9.9272   11.3752 C   0  0  0  0  0  0  0  0  0  0  0  0
    1.5238   -9.6359   12.2702 N   0  0  0  0  0  0  0  0  0  0  0  0
  1  2  1  0  0  0  0
  1  6  1  0  0  0  0
  2  3  2  0  0  0  0
  3  4  1  0  0  0  0
  4  5  2  0  0  0  0
  4 10  1  0  0  0  0
  5  6  1  0  0  0  0
  5  8  1  0  0  0  0
  6  7  2  0  0  0  0
  8  9  1  0  0  0  0
  9 10  2  0  0  0  0
M  END
>  <CHROM.1>
1.12318655,-11.72935176,12.29907630,2.21060343,-0.71940502,-2.98728256

>  <Name>
ligand

>  <RI>
0

>  <Rbt.Current_Directory>
/home/itssahil/PROJECTS/Mol_Feturizer/Test_systems_manuscript/rnas/5c7w

>  <Rbt.Executable>
rbdock ($Id: //depot/dev/client3/rdock/2013.1/src/exe/rbdock.cxx#4 $)

>  <Rbt.Library>
libRbt.so (2013.1, Build901 2013/11/27)

>  <Rbt.Parameter_File>
/export/apps/rDock/src/rDock_2013.1_src/data/scripts/dock_solv.prm

>  <Rbt.Receptor>
prm/pocket_docking_4.prm

>  <SCORE>
-14.8433

>  <SCORE.INTER>
-14.8433

>  <SCORE.INTER.CONST>
1

>  <SCORE.INTER.POLAR>
0

>  <SCORE.INTER.ROT>
0

>  <SCORE.INTER.SOLV>
3.2851

>  <SCORE.INTER.VDW>
-14.5906

>  <SCORE.INTER.norm>
-1.48433

>  <SCORE.INTRA>
0

>  <SCORE.INTRA.DIHEDRAL>
0

>  <SCORE.INTRA.DIHEDRAL.0>
0

>  <SCORE.INTRA.POLAR>
0

>  <SCORE.INTRA.POLAR.0>
0

>  <SCORE.INTRA.REPUL>
0

>  <SCORE.INTRA.REPUL.0>
0

>  <SCORE.INTRA.SOLV>
0

>  <SCORE.INTRA.SOLV.lig_0>
-4.15853

>  <SCORE.INTRA.VDW>
0

>  <SCORE.INTRA.VDW.0>
0

>  <SCORE.INTRA.norm>
0

>  <SCORE.RESTR>
0

>  <SCORE.RESTR.CAVITY>
0

>  <SCORE.RESTR.norm>
0

>  <SCORE.SYSTEM>
0

>  <SCORE.SYSTEM.CONST>
0

>  <SCORE.SYSTEM.DIHEDRAL>
0

>  <SCORE.SYSTEM.SOLV>
0

>  <SCORE.SYSTEM.norm>
0

>  <SCORE.heavy>
10

>  <SCORE.norm>
-1.48433

>  <RMSD>
2.313

$$$$
ligand
 OpenBabel02271912153D
libRbt.so/2013.1/901 2013/11/27
 10 11  0  0  0  0  0  0  0  0999 V2000
    0.0288  -13.2153   12.9839 N   0  0  0  0  0  0  0  0  0  0  0  0
   -0.5204  -12.2172   13.6417 C   0  0  0  0  0  0  0  0  0  0  0  0
   -0.0315  -10.9235   13.4431 N   0  0  0  0  0  0  0  0  0  0  0  0
    0.9768  -10.7047   12.6025 C   0  0  0  0  0  0  0  0  0  0  0  0
    1.5274  -11.7086   11.9458 C   0  0  0  0  0  0  0  0  0  0  0  0
    1.0861  -12.9405   12.1199 C   0  0  0  0  0  0  0  0  0  0  0  0
    1.6159  -13.8568   11.5070 O   0  0  0  0  0  0  0  0  0  0  0  0
    2.5016  -11.2340   11.1715 N   0  0  0  0  0  0  0  0  0  0  0  0
    2.5415   -9.9187   11.3531 C   0  0  0  0  0  0  0  0  0  0  0  0
    1.5985   -9.5936   12.2411 N   0  0  0  0  0  0  0  0  0  0  0  0
  1  2  1  0  0  0  0
  1  6  1  0  0  0  0
  2  3  2  0  0  0  0
  3  4  1  0  0  0  0
  4  5  2  0  0  0  0
  4 10  1  0  0  0  0
  5  6  1  0  0  0  0
  5  8  1  0  0  0  0
  6  7  2  0  0  0  0
  8  9  1  0  0  0  0
  9 10  2  0  0  0  0
M  END
>  <CHROM.1>
1.14053819,-11.67495042,12.28657802,2.24551092,-0.71064824,-2.97323144

>  <Name>
ligand

>  <RI>
0

>  <Rbt.Current_Directory>
/home/itssahil/PROJECTS/Mol_Feturizer/Test_systems_manuscript/rnas/5c7w

>  <Rbt.Executable>
rbdock ($Id: //depot/dev/client3/rdock/2013.1/src/exe/rbdock.cxx#4 $)

>  <Rbt.Library>
libRbt.so (2013.1, Build901 2013/11/27)

>  <Rbt.Parameter_File>
/export/apps/rDock/src/rDock_2013.1_src/data/scripts/dock_solv.prm

>  <Rbt.Receptor>
prm/pocket_docking_5.prm

>  <SCORE>
-14.8343

>  <SCORE.INTER>
-14.8343

>  <SCORE.INTER.CONST>
1

>  <SCORE.INTER.POLAR>
0

>  <SCORE.INTER.ROT>
0

>  <SCORE.INTER.SOLV>
3.24358

>  <SCORE.INTER.VDW>
-14.5708

>  <SCORE.INTER.norm>
-1.48343

>  <SCORE.INTRA>
0

>  <SCORE.INTRA.DIHEDRAL>
0

>  <SCORE.INTRA.DIHEDRAL.0>
0

>  <SCORE.INTRA.POLAR>
0

>  <SCORE.INTRA.POLAR.0>
0

>  <SCORE.INTRA.REPUL>
0

>  <SCORE.INTRA.REPUL.0>
0

>  <SCORE.INTRA.SOLV>
0

>  <SCORE.INTRA.SOLV.lig_0>
-4.15853

>  <SCORE.INTRA.VDW>
0

>  <SCORE.INTRA.VDW.0>
0

>  <SCORE.INTRA.norm>
0

>  <SCORE.RESTR>
0

>  <SCORE.RESTR.CAVITY>
0

>  <SCORE.RESTR.norm>
0

>  <SCORE.SYSTEM>
0

>  <SCORE.SYSTEM.CONST>
0

>  <SCORE.SYSTEM.DIHEDRAL>
0

>  <SCORE.SYSTEM.SOLV>
0

>  <SCORE.SYSTEM.norm>
0

>  <SCORE.heavy>
10

>  <SCORE.norm>
-1.48343

>  <RMSD>
2.313

$$$$
ligand
 OpenBabel02271912153D
libRbt.so/2013.1/901 2013/11/27
 10 11  0  0  0  0  0  0  0  0999 V2000
    0.0414  -13.3184   12.9591 N   0  0  0  0  0  0  0  0  0  0  0  0
   -0.5097  -12.3421   13.6474 C   0  0  0  0  0  0  0  0  0  0  0  0
   -0.0370  -11.0389   13.4734 N   0  0  0  0  0  0  0  0  0  0  0  0
    0.9581  -10.7895   12.6256 C   0  0  0  0  0  0  0  0  0  0  0  0
    1.5107  -11.7716   11.9383 C   0  0  0  0  0  0  0  0  0  0  0  0
    1.0846  -13.0120   12.0886 C   0  0  0  0  0  0  0  0  0  0  0  0
    1.6160  -13.9078   11.4475 O   0  0  0  0  0  0  0  0  0  0  0  0
    2.4698  -11.2683   11.1633 N   0  0  0  0  0  0  0  0  0  0  0  0
    2.4983   -9.9574   11.3755 C   0  0  0  0  0  0  0  0  0  0  0  0
    1.5635   -9.6635   12.2829 N   0  0  0  0  0  0  0  0  0  0  0  0
  1  2  1  0  0  0  0
  1  6  1  0  0  0  0
  2  3  2  0  0  0  0
  3  4  1  0  0  0  0
  4  5  2  0  0  0  0
  4 10  1  0  0  0  0
  5  6  1  0  0  0  0
  5  8  1  0  0  0  0
  6  7  2  0  0  0  0
  8  9  1  0  0  0  0
  9 10  2  0  0  0  0
M  END
>  <CHROM.1>
1.12791410,-11.75015938,12.28465420,2.23463223,-0.72505542,-2.95668778

>  <Name>
ligand

>  <RI>
0

>  <Rbt.Current_Directory>
/home/itssahil/PROJECTS/Mol_Feturizer/Test_systems_manuscript/rnas/5c7w

>  <Rbt.Executable>
rbdock ($Id: //depot/dev/client3/rdock/2013.1/src/exe/rbdock.cxx#4 $)

>  <Rbt.Library>
libRbt.so (2013.1, Build901 2013/11/27)

>  <Rbt.Parameter_File>
/export/apps/rDock/src/rDock_2013.1_src/data/scripts/dock_solv.prm

>  <Rbt.Receptor>
prm/pocket_docking_5.prm

>  <SCORE>
-14.9007

>  <SCORE.INTER>
-14.9007

>  <SCORE.INTER.CONST>
1

>  <SCORE.INTER.POLAR>
0

>  <SCORE.INTER.ROT>
0

>  <SCORE.INTER.SOLV>
3.30245

>  <SCORE.INTER.VDW>
-14.6346

>  <SCORE.INTER.norm>
-1.49007

>  <SCORE.INTRA>
0

>  <SCORE.INTRA.DIHEDRAL>
0

>  <SCORE.INTRA.DIHEDRAL.0>
0

>  <SCORE.INTRA.POLAR>
0

>  <SCORE.INTRA.POLAR.0>
0

>  <SCORE.INTRA.REPUL>
0

>  <SCORE.INTRA.REPUL.0>
0

>  <SCORE.INTRA.SOLV>
0

>  <SCORE.INTRA.SOLV.lig_0>
-4.15853

>  <SCORE.INTRA.VDW>
0

>  <SCORE.INTRA.VDW.0>
0

>  <SCORE.INTRA.norm>
0

>  <SCORE.RESTR>
0

>  <SCORE.RESTR.CAVITY>
0

>  <SCORE.RESTR.norm>
0

>  <SCORE.SYSTEM>
0

>  <SCORE.SYSTEM.CONST>
0

>  <SCORE.SYSTEM.DIHEDRAL>
0

>  <SCORE.SYSTEM.SOLV>
0

>  <SCORE.SYSTEM.norm>
0

>  <SCORE.heavy>
10

>  <SCORE.norm>
-1.49007

>  <RMSD>
2.313

$$$$
ligand
 OpenBabel02271912153D
libRbt.so/2013.1/901 2013/11/27
 10 11  0  0  0  0  0  0  0  0999 V2000
    0.0254  -13.1757   12.8797 N   0  0  0  0  0  0  0  0  0  0  0  0
   -0.5161  -12.2044   13.5825 C   0  0  0  0  0  0  0  0  0  0  0  0
   -0.0211  -10.9059   13.4384 N   0  0  0  0  0  0  0  0  0  0  0  0
    0.9852  -10.6558   12.6041 C   0  0  0  0  0  0  0  0  0  0  0  0
    1.5281  -11.6330   11.9022 C   0  0  0  0  0  0  0  0  0  0  0  0
    1.0810  -12.8690   12.0242 C   0  0  0  0  0  0  0  0  0  0  0  0
    1.6036  -13.7605   11.3700 O   0  0  0  0  0  0  0  0  0  0  0  0
    2.5019  -11.1300   11.1454 N   0  0  0  0  0  0  0  0  0  0  0  0
    2.5494   -9.8241   11.3839 C   0  0  0  0  0  0  0  0  0  0  0  0
    1.6115   -9.5332   12.2890 N   0  0  0  0  0  0  0  0  0  0  0  0
  1  2  1  0  0  0  0
  1  6  1  0  0  0  0
  2  3  2  0  0  0  0
  3  4  1  0  0  0  0
  4  5  2  0  0  0  0
  4 10  1  0  0  0  0
  5  6  1  0  0  0  0
  5  8  1  0  0  0  0
  6  7  2  0  0  0  0
  8  9  1  0  0  0  0
  9 10  2  0  0  0  0
M  END
>  <CHROM.1>
1.14267047,-11.61220014,12.24564683,2.25321515,-0.71342510,-2.92467178

>  <Name>
ligand

>  <RI>
0

>  <Rbt.Current_Directory>
/home/itssahil/PROJECTS/Mol_Feturizer/Test_systems_manuscript/rnas/5c7w

>  <Rbt.Executable>
rbdock ($Id: //depot/dev/client3/rdock/2013.1/src/exe/rbdock.cxx#4 $)

>  <Rbt.Library>
libRbt.so (2013.1, Build901 2013/11/27)

>  <Rbt.Parameter_File>
/export/apps/rDock/src/rDock_2013.1_src/data/scripts/dock_solv.prm

>  <Rbt.Receptor>
prm/pocket_docking_6.prm

>  <SCORE>
-14.8303

>  <SCORE.INTER>
-14.8303

>  <SCORE.INTER.CONST>
1

>  <SCORE.INTER.POLAR>
0

>  <SCORE.INTER.ROT>
0

>  <SCORE.INTER.SOLV>
3.29139

>  <SCORE.INTER.VDW>
-14.584

>  <SCORE.INTER.norm>
-1.48303

>  <SCORE.INTRA>
0

>  <SCORE.INTRA.DIHEDRAL>
0

>  <SCORE.INTRA.DIHEDRAL.0>
0

>  <SCORE.INTRA.POLAR>
0

>  <SCORE.INTRA.POLAR.0>
0

>  <SCORE.INTRA.REPUL>
0

>  <SCORE.INTRA.REPUL.0>
0

>  <SCORE.INTRA.SOLV>
0

>  <SCORE.INTRA.SOLV.lig_0>
-4.15853

>  <SCORE.INTRA.VDW>
0

>  <SCORE.INTRA.VDW.0>
0

>  <SCORE.INTRA.norm>
0

>  <SCORE.RESTR>
0

>  <SCORE.RESTR.CAVITY>
0

>  <SCORE.RESTR.norm>
0

>  <SCORE.SYSTEM>
0

>  <SCORE.SYSTEM.CONST>
0

>  <SCORE.SYSTEM.DIHEDRAL>
0

>  <SCORE.SYSTEM.SOLV>
0

>  <SCORE.SYSTEM.norm>
0

>  <SCORE.heavy>
10

>  <SCORE.norm>
-1.48303

>  <RMSD>
2.313

$$$$
ligand
 OpenBabel02271912153D
libRbt.so/2013.1/901 2013/11/27
 10 11  0  0  0  0  0  0  0  0999 V2000
    0.0227  -13.2156   12.9919 N   0  0  0  0  0  0  0  0  0  0  0  0
   -0.5188  -12.2058   13.6381 C   0  0  0  0  0  0  0  0  0  0  0  0
   -0.0102  -10.9203   13.4358 N   0  0  0  0  0  0  0  0  0  0  0  0
    1.0088  -10.7209   12.6033 C   0  0  0  0  0  0  0  0  0  0  0  0
    1.5516  -11.7366   11.9583 C   0  0  0  0  0  0  0  0  0  0  0  0
    1.0917  -12.9611   12.1361 C   0  0  0  0  0  0  0  0  0  0  0  0
    1.6145  -13.8886   11.5342 O   0  0  0  0  0  0  0  0  0  0  0  0
    2.5394  -11.2804   11.1902 N   0  0  0  0  0  0  0  0  0  0  0  0
    2.5959   -9.9647   11.3637 C   0  0  0  0  0  0  0  0  0  0  0  0
    1.6492   -9.6208   12.2407 N   0  0  0  0  0  0  0  0  0  0  0  0
  1  2  1  0  0  0  0
  1  6  1  0  0  0  0
  2  3  2  0  0  0  0
  3  4  1  0  0  0  0
  4  5  2  0  0  0  0
  4 10  1  0  0  0  0
  5  6  1  0  0  0  0
  5  8  1  0  0  0  0
  6  7  2  0  0  0  0
  8  9  1  0  0  0  0
  9 10  2  0  0  0  0
M  END
>  <CHROM.1>
1.16208956,-11.69534450,12.29522581,2.26127336,-0.69906597,-2.96949975

>  <Name>
ligand

>  <RI>
0

>  <Rbt.Current_Directory>
/home/itssahil/PROJECTS/Mol_Feturizer/Test_systems_manuscript/rnas/5c7w

>  <Rbt.Executable>
rbdock ($Id: //depot/dev/client3/rdock/2013.1/src/exe/rbdock.cxx#4 $)

>  <Rbt.Library>
libRbt.so (2013.1, Build901 2013/11/27)

>  <Rbt.Parameter_File>
/export/apps/rDock/src/rDock_2013.1_src/data/scripts/dock_solv.prm

>  <Rbt.Receptor>
prm/blind_docking_100.prm

>  <SCORE>
-14.8234

>  <SCORE.INTER>
-14.8234

>  <SCORE.INTER.CONST>
1

>  <SCORE.INTER.POLAR>
0

>  <SCORE.INTER.ROT>
0

>  <SCORE.INTER.SOLV>
3.2169

>  <SCORE.INTER.VDW>
-14.5545

>  <SCORE.INTER.norm>
-1.48234

>  <SCORE.INTRA>
0

>  <SCORE.INTRA.DIHEDRAL>
0

>  <SCORE.INTRA.DIHEDRAL.0>
0

>  <SCORE.INTRA.POLAR>
0

>  <SCORE.INTRA.POLAR.0>
0

>  <SCORE.INTRA.REPUL>
0

>  <SCORE.INTRA.REPUL.0>
0

>  <SCORE.INTRA.SOLV>
0

>  <SCORE.INTRA.SOLV.lig_0>
-4.15853

>  <SCORE.INTRA.VDW>
0

>  <SCORE.INTRA.VDW.0>
0

>  <SCORE.INTRA.norm>
0

>  <SCORE.RESTR>
0

>  <SCORE.RESTR.CAVITY>
0

>  <SCORE.RESTR.norm>
0

>  <SCORE.SYSTEM>
0

>  <SCORE.SYSTEM.CONST>
0

>  <SCORE.SYSTEM.DIHEDRAL>
0

>  <SCORE.SYSTEM.SOLV>
0

>  <SCORE.SYSTEM.norm>
0

>  <SCORE.heavy>
10

>  <SCORE.norm>
-1.48234

>  <RMSD>
2.314

$$$$
ligand
 OpenBabel02271912153D
libRbt.so/2013.1/901 2013/11/27
 10 11  0  0  0  0  0  0  0  0999 V2000
    0.0861  -13.2872   12.9556 N   0  0  0  0  0  0  0  0  0  0  0  0
   -0.4954  -12.3330   13.6500 C   0  0  0  0  0  0  0  0  0  0  0  0
   -0.0550  -11.0163   13.4940 N   0  0  0  0  0  0  0  0  0  0  0  0
    0.9400  -10.7320   12.6571 C   0  0  0  0  0  0  0  0  0  0  0  0
    1.5231  -11.6920   11.9637 C   0  0  0  0  0  0  0  0  0  0  0  0
    1.1279  -12.9444   12.0970 C   0  0  0  0  0  0  0  0  0  0  0  0
    1.6872  -13.8192   11.4506 O   0  0  0  0  0  0  0  0  0  0  0  0
    2.4750  -11.1557   11.2020 N   0  0  0  0  0  0  0  0  0  0  0  0
    2.4680   -9.8469   11.4288 C   0  0  0  0  0  0  0  0  0  0  0  0
    1.5189   -9.5872   12.3316 N   0  0  0  0  0  0  0  0  0  0  0  0
  1  2  1  0  0  0  0
  1  6  1  0  0  0  0
  2  3  2  0  0  0  0
  3  4  1  0  0  0  0
  4  5  2  0  0  0  0
  4 10  1  0  0  0  0
  5  6  1  0  0  0  0
  5  8  1  0  0  0  0
  6  7  2  0  0  0  0
  8  9  1  0  0  0  0
  9 10  2  0  0  0  0
M  END
>  <CHROM.1>
1.13713834,-11.68419999,12.30714039,2.19897181,-0.72175344,-2.96930836

>  <Name>
ligand

>  <RI>
0

>  <Rbt.Current_Directory>
/home/itssahil/PROJECTS/Mol_Feturizer/Test_systems_manuscript/rnas/5c7w

>  <Rbt.Executable>
rbdock ($Id: //depot/dev/client3/rdock/2013.1/src/exe/rbdock.cxx#4 $)

>  <Rbt.Library>
libRbt.so (2013.1, Build901 2013/11/27)

>  <Rbt.Parameter_File>
/export/apps/rDock/src/rDock_2013.1_src/data/scripts/dock_solv.prm

>  <Rbt.Receptor>
prm/blind_docking_60.prm

>  <SCORE>
-14.827

>  <SCORE.INTER>
-14.827

>  <SCORE.INTER.CONST>
1

>  <SCORE.INTER.POLAR>
0

>  <SCORE.INTER.ROT>
0

>  <SCORE.INTER.SOLV>
3.32359

>  <SCORE.INTER.VDW>
-14.5925

>  <SCORE.INTER.norm>
-1.4827

>  <SCORE.INTRA>
0

>  <SCORE.INTRA.DIHEDRAL>
0

>  <SCORE.INTRA.DIHEDRAL.0>
0

>  <SCORE.INTRA.POLAR>
0

>  <SCORE.INTRA.POLAR.0>
0

>  <SCORE.INTRA.REPUL>
0

>  <SCORE.INTRA.REPUL.0>
0

>  <SCORE.INTRA.SOLV>
0

>  <SCORE.INTRA.SOLV.lig_0>
-4.15853

>  <SCORE.INTRA.VDW>
0

>  <SCORE.INTRA.VDW.0>
0

>  <SCORE.INTRA.norm>
0

>  <SCORE.RESTR>
0

>  <SCORE.RESTR.CAVITY>
0

>  <SCORE.RESTR.norm>
0

>  <SCORE.SYSTEM>
0

>  <SCORE.SYSTEM.CONST>
0

>  <SCORE.SYSTEM.DIHEDRAL>
0

>  <SCORE.SYSTEM.SOLV>
0

>  <SCORE.SYSTEM.norm>
0

>  <SCORE.heavy>
10

>  <SCORE.norm>
-1.4827

>  <RMSD>
2.314

$$$$
ligand
 OpenBabel02271912153D
libRbt.so/2013.1/901 2013/11/27
 10 11  0  0  0  0  0  0  0  0999 V2000
    0.0806  -13.3418   12.9571 N   0  0  0  0  0  0  0  0  0  0  0  0
   -0.4806  -12.3902   13.6715 C   0  0  0  0  0  0  0  0  0  0  0  0
   -0.0297  -11.0761   13.5239 N   0  0  0  0  0  0  0  0  0  0  0  0
    0.9550  -10.7917   12.6749 C   0  0  0  0  0  0  0  0  0  0  0  0
    1.5177  -11.7490   11.9614 C   0  0  0  0  0  0  0  0  0  0  0  0
    1.1122  -12.9991   12.0864 C   0  0  0  0  0  0  0  0  0  0  0  0
    1.6528  -13.8715   11.4211 O   0  0  0  0  0  0  0  0  0  0  0  0
    2.4629  -11.2131   11.1912 N   0  0  0  0  0  0  0  0  0  0  0  0
    2.4724   -9.9070   11.4332 C   0  0  0  0  0  0  0  0  0  0  0  0
    1.5400   -9.6487   12.3538 N   0  0  0  0  0  0  0  0  0  0  0  0
  1  2  1  0  0  0  0
  1  6  1  0  0  0  0
  2  3  2  0  0  0  0
  3  4  1  0  0  0  0
  4  5  2  0  0  0  0
  4 10  1  0  0  0  0
  5  6  1  0  0  0  0
  5  8  1  0  0  0  0
  6  7  2  0  0  0  0
  8  9  1  0  0  0  0
  9 10  2  0  0  0  0
M  END
>  <CHROM.1>
1.13721858,-11.74152906,12.31091361,2.21570546,-0.73527315,-2.94647964

>  <Name>
ligand

>  <RI>
0

>  <Rbt.Current_Directory>
/home/itssahil/PROJECTS/Mol_Feturizer/Test_systems_manuscript/rnas/5c7w

>  <Rbt.Executable>
rbdock ($Id: //depot/dev/client3/rdock/2013.1/src/exe/rbdock.cxx#4 $)

>  <Rbt.Library>
libRbt.so (2013.1, Build901 2013/11/27)

>  <Rbt.Parameter_File>
/export/apps/rDock/src/rDock_2013.1_src/data/scripts/dock_solv.prm

>  <Rbt.Receptor>
prm/blind_docking_80.prm

>  <SCORE>
-14.839

>  <SCORE.INTER>
-14.839

>  <SCORE.INTER.CONST>
1

>  <SCORE.INTER.POLAR>
0

>  <SCORE.INTER.ROT>
0

>  <SCORE.INTER.SOLV>
3.33387

>  <SCORE.INTER.VDW>
-14.604

>  <SCORE.INTER.norm>
-1.4839

>  <SCORE.INTRA>
0

>  <SCORE.INTRA.DIHEDRAL>
0

>  <SCORE.INTRA.DIHEDRAL.0>
0

>  <SCORE.INTRA.POLAR>
0

>  <SCORE.INTRA.POLAR.0>
0

>  <SCORE.INTRA.REPUL>
0

>  <SCORE.INTRA.REPUL.0>
0

>  <SCORE.INTRA.SOLV>
0

>  <SCORE.INTRA.SOLV.lig_0>
-4.15853

>  <SCORE.INTRA.VDW>
0

>  <SCORE.INTRA.VDW.0>
0

>  <SCORE.INTRA.norm>
0

>  <SCORE.RESTR>
0

>  <SCORE.RESTR.CAVITY>
0

>  <SCORE.RESTR.norm>
0

>  <SCORE.SYSTEM>
0

>  <SCORE.SYSTEM.CONST>
0

>  <SCORE.SYSTEM.DIHEDRAL>
0

>  <SCORE.SYSTEM.SOLV>
0

>  <SCORE.SYSTEM.norm>
0

>  <SCORE.heavy>
10

>  <SCORE.norm>
-1.4839

>  <RMSD>
2.314

$$$$
ligand
 OpenBabel02271912153D
libRbt.so/2013.1/901 2013/11/27
 10 11  0  0  0  0  0  0  0  0999 V2000
    0.0652  -13.3164   12.9281 N   0  0  0  0  0  0  0  0  0  0  0  0
   -0.4941  -12.3530   13.6278 C   0  0  0  0  0  0  0  0  0  0  0  0
   -0.0345  -11.0435   13.4670 N   0  0  0  0  0  0  0  0  0  0  0  0
    0.9566  -10.7752   12.6203 C   0  0  0  0  0  0  0  0  0  0  0  0
    1.5175  -11.7444   11.9215 C   0  0  0  0  0  0  0  0  0  0  0  0
    1.1038  -12.9904   12.0592 C   0  0  0  0  0  0  0  0  0  0  0  0
    1.6428  -13.8741   11.4076 O   0  0  0  0  0  0  0  0  0  0  0  0
    2.4703  -11.2235   11.1503 N   0  0  0  0  0  0  0  0  0  0  0  0
    2.4864   -9.9147   11.3767 C   0  0  0  0  0  0  0  0  0  0  0  0
    1.5504   -9.6398   12.2887 N   0  0  0  0  0  0  0  0  0  0  0  0
  1  2  1  0  0  0  0
  1  6  1  0  0  0  0
  2  3  2  0  0  0  0
  3  4  1  0  0  0  0
  4  5  2  0  0  0  0
  4 10  1  0  0  0  0
  5  6  1  0  0  0  0
  5  8  1  0  0  0  0
  6  7  2  0  0  0  0
  8  9  1  0  0  0  0
  9 10  2  0  0  0  0
M  END
>  <CHROM.1>
1.13516079,-11.73045617,12.26873641,2.22221672,-0.72858714,-2.95417767

>  <Name>
ligand

>  <RI>
0

>  <Rbt.Current_Directory>
/home/itssahil/PROJECTS/Mol_Feturizer/Test_systems_manuscript/rnas/5c7w

>  <Rbt.Executable>
rbdock ($Id: //depot/dev/client3/rdock/2013.1/src/exe/rbdock.cxx#4 $)

>  <Rbt.Library>
libRbt.so (2013.1, Build901 2013/11/27)

>  <Rbt.Parameter_File>
/export/apps/rDock/src/rDock_2013.1_src/data/scripts/dock_solv.prm

>  <Rbt.Receptor>
prm/blind_docking_80.prm

>  <SCORE>
-14.8664

>  <SCORE.INTER>
-14.8664

>  <SCORE.INTER.CONST>
1

>  <SCORE.INTER.POLAR>
0

>  <SCORE.INTER.ROT>
0

>  <SCORE.INTER.SOLV>
3.33063

>  <SCORE.INTER.VDW>
-14.6211

>  <SCORE.INTER.norm>
-1.48664

>  <SCORE.INTRA>
0

>  <SCORE.INTRA.DIHEDRAL>
0

>  <SCORE.INTRA.DIHEDRAL.0>
0

>  <SCORE.INTRA.POLAR>
0

>  <SCORE.INTRA.POLAR.0>
0

>  <SCORE.INTRA.REPUL>
0

>  <SCORE.INTRA.REPUL.0>
0

>  <SCORE.INTRA.SOLV>
0

>  <SCORE.INTRA.SOLV.lig_0>
-4.15853

>  <SCORE.INTRA.VDW>
0

>  <SCORE.INTRA.VDW.0>
0

>  <SCORE.INTRA.norm>
0

>  <SCORE.RESTR>
0

>  <SCORE.RESTR.CAVITY>
0

>  <SCORE.RESTR.norm>
0

>  <SCORE.SYSTEM>
0

>  <SCORE.SYSTEM.CONST>
0

>  <SCORE.SYSTEM.DIHEDRAL>
0

>  <SCORE.SYSTEM.SOLV>
0

>  <SCORE.SYSTEM.norm>
0

>  <SCORE.heavy>
10

>  <SCORE.norm>
-1.48664

>  <RMSD>
2.314

$$$$
ligand
 OpenBabel02271912153D
libRbt.so/2013.1/901 2013/11/27
 10 11  0  0  0  0  0  0  0  0999 V2000
    0.0827  -13.3127   12.9098 N   0  0  0  0  0  0  0  0  0  0  0  0
   -0.4913  -12.3650   13.6191 C   0  0  0  0  0  0  0  0  0  0  0  0
   -0.0503  -11.0474   13.4733 N   0  0  0  0  0  0  0  0  0  0  0  0
    0.9378  -10.7557   12.6309 C   0  0  0  0  0  0  0  0  0  0  0  0
    1.5134  -11.7091   11.9224 C   0  0  0  0  0  0  0  0  0  0  0  0
    1.1175  -12.9623   12.0459 C   0  0  0  0  0  0  0  0  0  0  0  0
    1.6699  -13.8310   11.3854 O   0  0  0  0  0  0  0  0  0  0  0  0
    2.4596  -11.1661   11.1583 N   0  0  0  0  0  0  0  0  0  0  0  0
    2.4566   -9.8598   11.3989 C   0  0  0  0  0  0  0  0  0  0  0  0
    1.5156   -9.6083   12.3126 N   0  0  0  0  0  0  0  0  0  0  0  0
  1  2  1  0  0  0  0
  1  6  1  0  0  0  0
  2  3  2  0  0  0  0
  3  4  1  0  0  0  0
  4  5  2  0  0  0  0
  4 10  1  0  0  0  0
  5  6  1  0  0  0  0
  5  8  1  0  0  0  0
  6  7  2  0  0  0  0
  8  9  1  0  0  0  0
  9 10  2  0  0  0  0
M  END
>  <CHROM.1>
1.13050872,-11.70439798,12.26921009,2.20296271,-0.72996776,-2.95608864

>  <Name>
ligand

>  <RI>
0

>  <Rbt.Current_Directory>
/home/itssahil/PROJECTS/Mol_Feturizer/Test_systems_manuscript/rnas/5c7w

>  <Rbt.Executable>
rbdock ($Id: //depot/dev/client3/rdock/2013.1/src/exe/rbdock.cxx#4 $)

>  <Rbt.Library>
libRbt.so (2013.1, Build901 2013/11/27)

>  <Rbt.Parameter_File>
/export/apps/rDock/src/rDock_2013.1_src/data/scripts/dock_solv.prm

>  <Rbt.Receptor>
prm/pocket_docking_5.prm

>  <SCORE>
-14.8702

>  <SCORE.INTER>
-14.8702

>  <SCORE.INTER.CONST>
1

>  <SCORE.INTER.POLAR>
0

>  <SCORE.INTER.ROT>
0

>  <SCORE.INTER.SOLV>
3.36382

>  <SCORE.INTER.VDW>
-14.6348

>  <SCORE.INTER.norm>
-1.48702

>  <SCORE.INTRA>
0

>  <SCORE.INTRA.DIHEDRAL>
0

>  <SCORE.INTRA.DIHEDRAL.0>
0

>  <SCORE.INTRA.POLAR>
0

>  <SCORE.INTRA.POLAR.0>
0

>  <SCORE.INTRA.REPUL>
0

>  <SCORE.INTRA.REPUL.0>
0

>  <SCORE.INTRA.SOLV>
0

>  <SCORE.INTRA.SOLV.lig_0>
-4.15853

>  <SCORE.INTRA.VDW>
0

>  <SCORE.INTRA.VDW.0>
0

>  <SCORE.INTRA.norm>
0

>  <SCORE.RESTR>
0

>  <SCORE.RESTR.CAVITY>
0

>  <SCORE.RESTR.norm>
0

>  <SCORE.SYSTEM>
0

>  <SCORE.SYSTEM.CONST>
0

>  <SCORE.SYSTEM.DIHEDRAL>
0

>  <SCORE.SYSTEM.SOLV>
0

>  <SCORE.SYSTEM.norm>
0

>  <SCORE.heavy>
10

>  <SCORE.norm>
-1.48702

>  <RMSD>
2.314

$$$$
ligand
 OpenBabel02271912153D
libRbt.so/2013.1/901 2013/11/27
 10 11  0  0  0  0  0  0  0  0999 V2000
    0.0622  -13.3258   12.9708 N   0  0  0  0  0  0  0  0  0  0  0  0
   -0.5032  -12.3526   13.6519 C   0  0  0  0  0  0  0  0  0  0  0  0
   -0.0479  -11.0443   13.4703 N   0  0  0  0  0  0  0  0  0  0  0  0
    0.9451  -10.7868   12.6224 C   0  0  0  0  0  0  0  0  0  0  0  0
    1.5120  -11.7657   11.9423 C   0  0  0  0  0  0  0  0  0  0  0  0
    1.1025  -13.0107   12.0999 C   0  0  0  0  0  0  0  0  0  0  0  0
    1.6471  -13.9033   11.4654 O   0  0  0  0  0  0  0  0  0  0  0  0
    2.4655  -11.2544   11.1656 N   0  0  0  0  0  0  0  0  0  0  0  0
    2.4759   -9.9419   11.3695 C   0  0  0  0  0  0  0  0  0  0  0  0
    1.5358   -9.6550   12.2735 N   0  0  0  0  0  0  0  0  0  0  0  0
  1  2  1  0  0  0  0
  1  6  1  0  0  0  0
  2  3  2  0  0  0  0
  3  4  1  0  0  0  0
  4  5  2  0  0  0  0
  4 10  1  0  0  0  0
  5  6  1  0  0  0  0
  5  8  1  0  0  0  0
  6  7  2  0  0  0  0
  8  9  1  0  0  0  0
  9 10  2  0  0  0  0
M  END
>  <CHROM.1>
1.12844484,-11.74725535,12.28794291,2.21643085,-0.72586878,-2.97514599

>  <Name>
ligand

>  <RI>
0

>  <Rbt.Current_Directory>
/home/itssahil/PROJECTS/Mol_Feturizer/Test_systems_manuscript/rnas/5c7w

>  <Rbt.Executable>
rbdock ($Id: //depot/dev/client3/rdock/2013.1/src/exe/rbdock.cxx#4 $)

>  <Rbt.Library>
libRbt.so (2013.1, Build901 2013/11/27)

>  <Rbt.Parameter_File>
/export/apps/rDock/src/rDock_2013.1_src/data/scripts/dock_solv.prm

>  <Rbt.Receptor>
prm/pocket_docking_5.prm

>  <SCORE>
-14.8723

>  <SCORE.INTER>
-14.8723

>  <SCORE.INTER.CONST>
1

>  <SCORE.INTER.POLAR>
0

>  <SCORE.INTER.ROT>
0

>  <SCORE.INTER.SOLV>
3.30766

>  <SCORE.INTER.VDW>
-14.6174

>  <SCORE.INTER.norm>
-1.48723

>  <SCORE.INTRA>
0

>  <SCORE.INTRA.DIHEDRAL>
0

>  <SCORE.INTRA.DIHEDRAL.0>
0

>  <SCORE.INTRA.POLAR>
0

>  <SCORE.INTRA.POLAR.0>
0

>  <SCORE.INTRA.REPUL>
0

>  <SCORE.INTRA.REPUL.0>
0

>  <SCORE.INTRA.SOLV>
0

>  <SCORE.INTRA.SOLV.lig_0>
-4.15853

>  <SCORE.INTRA.VDW>
0

>  <SCORE.INTRA.VDW.0>
0

>  <SCORE.INTRA.norm>
0

>  <SCORE.RESTR>
0

>  <SCORE.RESTR.CAVITY>
0

>  <SCORE.RESTR.norm>
0

>  <SCORE.SYSTEM>
0

>  <SCORE.SYSTEM.CONST>
0

>  <SCORE.SYSTEM.DIHEDRAL>
0

>  <SCORE.SYSTEM.SOLV>
0

>  <SCORE.SYSTEM.norm>
0

>  <SCORE.heavy>
10

>  <SCORE.norm>
-1.48723

>  <RMSD>
2.314

$$$$
ligand
 OpenBabel02271912153D
libRbt.so/2013.1/901 2013/11/27
 10 11  0  0  0  0  0  0  0  0999 V2000
    0.0705  -13.3143   12.9335 N   0  0  0  0  0  0  0  0  0  0  0  0
   -0.4935  -12.3521   13.6313 C   0  0  0  0  0  0  0  0  0  0  0  0
   -0.0392  -11.0410   13.4688 N   0  0  0  0  0  0  0  0  0  0  0  0
    0.9513  -10.7698   12.6223 C   0  0  0  0  0  0  0  0  0  0  0  0
    1.5167  -11.7377   11.9254 C   0  0  0  0  0  0  0  0  0  0  0  0
    1.1082  -12.9852   12.0648 C   0  0  0  0  0  0  0  0  0  0  0  0
    1.6514  -13.8675   11.4149 O   0  0  0  0  0  0  0  0  0  0  0  0
    2.4678  -11.2139   11.1541 N   0  0  0  0  0  0  0  0  0  0  0  0
    2.4782   -9.9047   11.3785 C   0  0  0  0  0  0  0  0  0  0  0  0
    1.5404   -9.6323   12.2895 N   0  0  0  0  0  0  0  0  0  0  0  0
  1  2  1  0  0  0  0
  1  6  1  0  0  0  0
  2  3  2  0  0  0  0
  3  4  1  0  0  0  0
  4  5  2  0  0  0  0
  4 10  1  0  0  0  0
  5  6  1  0  0  0  0
  5  8  1  0  0  0  0
  6  7  2  0  0  0  0
  8  9  1  0  0  0  0
  9 10  2  0  0  0  0
M  END
>  <CHROM.1>
1.13409983,-11.72479305,12.27239559,2.21645307,-0.72869790,-2.95954139

>  <Name>
ligand

>  <RI>
0

>  <Rbt.Current_Directory>
/home/itssahil/PROJECTS/Mol_Feturizer/Test_systems_manuscript/rnas/5c7w

>  <Rbt.Executable>
rbdock ($Id: //depot/dev/client3/rdock/2013.1/src/exe/rbdock.cxx#4 $)

>  <Rbt.Library>
libRbt.so (2013.1, Build901 2013/11/27)

>  <Rbt.Parameter_File>
/export/apps/rDock/src/rDock_2013.1_src/data/scripts/dock_solv.prm

>  <Rbt.Receptor>
prm/pocket_docking_8.prm

>  <SCORE>
-14.868

>  <SCORE.INTER>
-14.868

>  <SCORE.INTER.CONST>
1

>  <SCORE.INTER.POLAR>
0

>  <SCORE.INTER.ROT>
0

>  <SCORE.INTER.SOLV>
3.33257

>  <SCORE.INTER.VDW>
-14.6229

>  <SCORE.INTER.norm>
-1.4868

>  <SCORE.INTRA>
0

>  <SCORE.INTRA.DIHEDRAL>
0

>  <SCORE.INTRA.DIHEDRAL.0>
0

>  <SCORE.INTRA.POLAR>
0

>  <SCORE.INTRA.POLAR.0>
0

>  <SCORE.INTRA.REPUL>
0

>  <SCORE.INTRA.REPUL.0>
0

>  <SCORE.INTRA.SOLV>
0

>  <SCORE.INTRA.SOLV.lig_0>
-4.15853

>  <SCORE.INTRA.VDW>
0

>  <SCORE.INTRA.VDW.0>
0

>  <SCORE.INTRA.norm>
0

>  <SCORE.RESTR>
0

>  <SCORE.RESTR.CAVITY>
0

>  <SCORE.RESTR.norm>
0

>  <SCORE.SYSTEM>
0

>  <SCORE.SYSTEM.CONST>
0

>  <SCORE.SYSTEM.DIHEDRAL>
0

>  <SCORE.SYSTEM.SOLV>
0

>  <SCORE.SYSTEM.norm>
0

>  <SCORE.heavy>
10

>  <SCORE.norm>
-1.4868

>  <RMSD>
2.314

$$$$
ligand
 OpenBabel02271912153D
libRbt.so/2013.1/901 2013/11/27
 10 11  0  0  0  0  0  0  0  0999 V2000
    0.0715  -13.3224   12.9711 N   0  0  0  0  0  0  0  0  0  0  0  0
   -0.4970  -12.3507   13.6516 C   0  0  0  0  0  0  0  0  0  0  0  0
   -0.0424  -11.0417   13.4730 N   0  0  0  0  0  0  0  0  0  0  0  0
    0.9530  -10.7822   12.6286 C   0  0  0  0  0  0  0  0  0  0  0  0
    1.5231  -11.7597   11.9491 C   0  0  0  0  0  0  0  0  0  0  0  0
    1.1143  -13.0053   12.1039 C   0  0  0  0  0  0  0  0  0  0  0  0
    1.6618  -13.8966   11.4701 O   0  0  0  0  0  0  0  0  0  0  0  0
    2.4785  -11.2465   11.1760 N   0  0  0  0  0  0  0  0  0  0  0  0
    2.4869   -9.9342   11.3815 C   0  0  0  0  0  0  0  0  0  0  0  0
    1.5436   -9.6493   12.2829 N   0  0  0  0  0  0  0  0  0  0  0  0
  1  2  1  0  0  0  0
  1  6  1  0  0  0  0
  2  3  2  0  0  0  0
  3  4  1  0  0  0  0
  4  5  2  0  0  0  0
  4 10  1  0  0  0  0
  5  6  1  0  0  0  0
  5  8  1  0  0  0  0
  6  7  2  0  0  0  0
  8  9  1  0  0  0  0
  9 10  2  0  0  0  0
M  END
>  <CHROM.1>
1.13834122,-11.74203271,12.29355286,2.21439115,-0.72291392,-2.97530626

>  <Name>
ligand

>  <RI>
0

>  <Rbt.Current_Directory>
/home/itssahil/PROJECTS/Mol_Feturizer/Test_systems_manuscript/rnas/5c7w

>  <Rbt.Executable>
rbdock ($Id: //depot/dev/client3/rdock/2013.1/src/exe/rbdock.cxx#4 $)

>  <Rbt.Library>
libRbt.so (2013.1, Build901 2013/11/27)

>  <Rbt.Parameter_File>
/export/apps/rDock/src/rDock_2013.1_src/data/scripts/dock_solv.prm

>  <Rbt.Receptor>
prm/blind_docking_40.prm

>  <SCORE>
-14.8715

>  <SCORE.INTER>
-14.8715

>  <SCORE.INTER.CONST>
1

>  <SCORE.INTER.POLAR>
0

>  <SCORE.INTER.ROT>
0

>  <SCORE.INTER.SOLV>
3.30255

>  <SCORE.INTER.VDW>
-14.6152

>  <SCORE.INTER.norm>
-1.48715

>  <SCORE.INTRA>
0

>  <SCORE.INTRA.DIHEDRAL>
0

>  <SCORE.INTRA.DIHEDRAL.0>
0

>  <SCORE.INTRA.POLAR>
0

>  <SCORE.INTRA.POLAR.0>
0

>  <SCORE.INTRA.REPUL>
0

>  <SCORE.INTRA.REPUL.0>
0

>  <SCORE.INTRA.SOLV>
0

>  <SCORE.INTRA.SOLV.lig_0>
-4.15853

>  <SCORE.INTRA.VDW>
0

>  <SCORE.INTRA.VDW.0>
0

>  <SCORE.INTRA.norm>
0

>  <SCORE.RESTR>
0

>  <SCORE.RESTR.CAVITY>
0

>  <SCORE.RESTR.norm>
0

>  <SCORE.SYSTEM>
0

>  <SCORE.SYSTEM.CONST>
0

>  <SCORE.SYSTEM.DIHEDRAL>
0

>  <SCORE.SYSTEM.SOLV>
0

>  <SCORE.SYSTEM.norm>
0

>  <SCORE.heavy>
10

>  <SCORE.norm>
-1.48715

>  <RMSD>
2.315

$$$$
ligand
 OpenBabel02271912153D
libRbt.so/2013.1/901 2013/11/27
 10 11  0  0  0  0  0  0  0  0999 V2000
    0.0776  -13.3134   12.9385 N   0  0  0  0  0  0  0  0  0  0  0  0
   -0.4925  -12.3519   13.6322 C   0  0  0  0  0  0  0  0  0  0  0  0
   -0.0402  -11.0398   13.4713 N   0  0  0  0  0  0  0  0  0  0  0  0
    0.9546  -10.7672   12.6303 C   0  0  0  0  0  0  0  0  0  0  0  0
    1.5263  -11.7345   11.9376 C   0  0  0  0  0  0  0  0  0  0  0  0
    1.1197  -12.9828   12.0756 C   0  0  0  0  0  0  0  0  0  0  0  0
    1.6685  -13.8645   11.4296 O   0  0  0  0  0  0  0  0  0  0  0  0
    2.4807  -11.2092   11.1714 N   0  0  0  0  0  0  0  0  0  0  0  0
    2.4869   -9.8998   11.3946 C   0  0  0  0  0  0  0  0  0  0  0  0
    1.5433   -9.6288   12.2999 N   0  0  0  0  0  0  0  0  0  0  0  0
  1  2  1  0  0  0  0
  1  6  1  0  0  0  0
  2  3  2  0  0  0  0
  3  4  1  0  0  0  0
  4  5  2  0  0  0  0
  4 10  1  0  0  0  0
  5  6  1  0  0  0  0
  5  8  1  0  0  0  0
  6  7  2  0  0  0  0
  8  9  1  0  0  0  0
  9 10  2  0  0  0  0
M  END
>  <CHROM.1>
1.14158941,-11.72212106,12.28228332,2.21219319,-0.72337160,-2.96321741

>  <Name>
ligand

>  <RI>
0

>  <Rbt.Current_Directory>
/home/itssahil/PROJECTS/Mol_Feturizer/Test_systems_manuscript/rnas/5c7w

>  <Rbt.Executable>
rbdock ($Id: //depot/dev/client3/rdock/2013.1/src/exe/rbdock.cxx#4 $)

>  <Rbt.Library>
libRbt.so (2013.1, Build901 2013/11/27)

>  <Rbt.Parameter_File>
/export/apps/rDock/src/rDock_2013.1_src/data/scripts/dock_solv.prm

>  <Rbt.Receptor>
prm/blind_docking_80.prm

>  <SCORE>
-14.8654

>  <SCORE.INTER>
-14.8654

>  <SCORE.INTER.CONST>
1

>  <SCORE.INTER.POLAR>
0

>  <SCORE.INTER.ROT>
0

>  <SCORE.INTER.SOLV>
3.32335

>  <SCORE.INTER.VDW>
-14.618

>  <SCORE.INTER.norm>
-1.48654

>  <SCORE.INTRA>
0

>  <SCORE.INTRA.DIHEDRAL>
0

>  <SCORE.INTRA.DIHEDRAL.0>
0

>  <SCORE.INTRA.POLAR>
0

>  <SCORE.INTRA.POLAR.0>
0

>  <SCORE.INTRA.REPUL>
0

>  <SCORE.INTRA.REPUL.0>
0

>  <SCORE.INTRA.SOLV>
0

>  <SCORE.INTRA.SOLV.lig_0>
-4.15853

>  <SCORE.INTRA.VDW>
0

>  <SCORE.INTRA.VDW.0>
0

>  <SCORE.INTRA.norm>
0

>  <SCORE.RESTR>
0

>  <SCORE.RESTR.CAVITY>
0

>  <SCORE.RESTR.norm>
0

>  <SCORE.SYSTEM>
0

>  <SCORE.SYSTEM.CONST>
0

>  <SCORE.SYSTEM.DIHEDRAL>
0

>  <SCORE.SYSTEM.SOLV>
0

>  <SCORE.SYSTEM.norm>
0

>  <SCORE.heavy>
10

>  <SCORE.norm>
-1.48654

>  <RMSD>
2.315

$$$$
ligand
 OpenBabel02271912153D
libRbt.so/2013.1/901 2013/11/27
 10 11  0  0  0  0  0  0  0  0999 V2000
    0.0783  -13.3175   12.9472 N   0  0  0  0  0  0  0  0  0  0  0  0
   -0.4884  -12.3537   13.6405 C   0  0  0  0  0  0  0  0  0  0  0  0
   -0.0375  -11.0421   13.4725 N   0  0  0  0  0  0  0  0  0  0  0  0
    0.9526  -10.7721   12.6252 C   0  0  0  0  0  0  0  0  0  0  0  0
    1.5209  -11.7416   11.9328 C   0  0  0  0  0  0  0  0  0  0  0  0
    1.1156  -12.9895   12.0775 C   0  0  0  0  0  0  0  0  0  0  0  0
    1.6613  -13.8733   11.4317 O   0  0  0  0  0  0  0  0  0  0  0  0
    2.4709  -11.2187   11.1595 N   0  0  0  0  0  0  0  0  0  0  0  0
    2.4778   -9.9085   11.3781 C   0  0  0  0  0  0  0  0  0  0  0  0
    1.5389   -9.6346   12.2875 N   0  0  0  0  0  0  0  0  0  0  0  0
  1  2  1  0  0  0  0
  1  6  1  0  0  0  0
  2  3  2  0  0  0  0
  3  4  1  0  0  0  0
  4  5  2  0  0  0  0
  4 10  1  0  0  0  0
  5  6  1  0  0  0  0
  5  8  1  0  0  0  0
  6  7  2  0  0  0  0
  8  9  1  0  0  0  0
  9 10  2  0  0  0  0
M  END
>  <CHROM.1>
1.13809783,-11.72814891,12.27952658,2.21290700,-0.72876931,-2.96632649

>  <Name>
ligand

>  <RI>
0

>  <Rbt.Current_Directory>
/home/itssahil/PROJECTS/Mol_Feturizer/Test_systems_manuscript/rnas/5c7w

>  <Rbt.Executable>
rbdock ($Id: //depot/dev/client3/rdock/2013.1/src/exe/rbdock.cxx#4 $)

>  <Rbt.Library>
libRbt.so (2013.1, Build901 2013/11/27)

>  <Rbt.Parameter_File>
/export/apps/rDock/src/rDock_2013.1_src/data/scripts/dock_solv.prm

>  <Rbt.Receptor>
prm/pocket_docking_5.prm

>  <SCORE>
-14.8672

>  <SCORE.INTER>
-14.8672

>  <SCORE.INTER.CONST>
1

>  <SCORE.INTER.POLAR>
0

>  <SCORE.INTER.ROT>
0

>  <SCORE.INTER.SOLV>
3.32957

>  <SCORE.INTER.VDW>
-14.6213

>  <SCORE.INTER.norm>
-1.48672

>  <SCORE.INTRA>
0

>  <SCORE.INTRA.DIHEDRAL>
0

>  <SCORE.INTRA.DIHEDRAL.0>
0

>  <SCORE.INTRA.POLAR>
0

>  <SCORE.INTRA.POLAR.0>
0

>  <SCORE.INTRA.REPUL>
0

>  <SCORE.INTRA.REPUL.0>
0

>  <SCORE.INTRA.SOLV>
0

>  <SCORE.INTRA.SOLV.lig_0>
-4.15853

>  <SCORE.INTRA.VDW>
0

>  <SCORE.INTRA.VDW.0>
0

>  <SCORE.INTRA.norm>
0

>  <SCORE.RESTR>
0

>  <SCORE.RESTR.CAVITY>
0

>  <SCORE.RESTR.norm>
0

>  <SCORE.SYSTEM>
0

>  <SCORE.SYSTEM.CONST>
0

>  <SCORE.SYSTEM.DIHEDRAL>
0

>  <SCORE.SYSTEM.SOLV>
0

>  <SCORE.SYSTEM.norm>
0

>  <SCORE.heavy>
10

>  <SCORE.norm>
-1.48672

>  <RMSD>
2.315

$$$$
ligand
 OpenBabel02271912153D
libRbt.so/2013.1/901 2013/11/27
 10 11  0  0  0  0  0  0  0  0999 V2000
    0.0728  -13.3131   12.9390 N   0  0  0  0  0  0  0  0  0  0  0  0
   -0.4913  -12.3494   13.6345 C   0  0  0  0  0  0  0  0  0  0  0  0
   -0.0366  -11.0386   13.4696 N   0  0  0  0  0  0  0  0  0  0  0  0
    0.9544  -10.7694   12.6231 C   0  0  0  0  0  0  0  0  0  0  0  0
    1.5200  -11.7389   11.9285 C   0  0  0  0  0  0  0  0  0  0  0  0
    1.1111  -12.9861   12.0701 C   0  0  0  0  0  0  0  0  0  0  0  0
    1.6543  -13.8698   11.4223 O   0  0  0  0  0  0  0  0  0  0  0  0
    2.4716  -11.2169   11.1566 N   0  0  0  0  0  0  0  0  0  0  0  0
    2.4822   -9.9073   11.3782 C   0  0  0  0  0  0  0  0  0  0  0  0
    1.5440   -9.6328   12.2882 N   0  0  0  0  0  0  0  0  0  0  0  0
  1  2  1  0  0  0  0
  1  6  1  0  0  0  0
  2  3  2  0  0  0  0
  3  4  1  0  0  0  0
  4  5  2  0  0  0  0
  4 10  1  0  0  0  0
  5  6  1  0  0  0  0
  5  8  1  0  0  0  0
  6  7  2  0  0  0  0
  8  9  1  0  0  0  0
  9 10  2  0  0  0  0
M  END
>  <CHROM.1>
1.13717134,-11.72521931,12.27519565,2.21667539,-0.72813613,-2.96143565

>  <Name>
ligand

>  <RI>
0

>  <Rbt.Current_Directory>
/home/itssahil/PROJECTS/Mol_Feturizer/Test_systems_manuscript/rnas/5c7w

>  <Rbt.Executable>
rbdock ($Id: //depot/dev/client3/rdock/2013.1/src/exe/rbdock.cxx#4 $)

>  <Rbt.Library>
libRbt.so (2013.1, Build901 2013/11/27)

>  <Rbt.Parameter_File>
/export/apps/rDock/src/rDock_2013.1_src/data/scripts/dock_solv.prm

>  <Rbt.Receptor>
prm/pocket_docking_7.prm

>  <SCORE>
-14.8687

>  <SCORE.INTER>
-14.8687

>  <SCORE.INTER.CONST>
1

>  <SCORE.INTER.POLAR>
0

>  <SCORE.INTER.ROT>
0

>  <SCORE.INTER.SOLV>
3.32914

>  <SCORE.INTER.VDW>
-14.6222

>  <SCORE.INTER.norm>
-1.48687

>  <SCORE.INTRA>
0

>  <SCORE.INTRA.DIHEDRAL>
0

>  <SCORE.INTRA.DIHEDRAL.0>
0

>  <SCORE.INTRA.POLAR>
0

>  <SCORE.INTRA.POLAR.0>
0

>  <SCORE.INTRA.REPUL>
0

>  <SCORE.INTRA.REPUL.0>
0

>  <SCORE.INTRA.SOLV>
0

>  <SCORE.INTRA.SOLV.lig_0>
-4.15853

>  <SCORE.INTRA.VDW>
0

>  <SCORE.INTRA.VDW.0>
0

>  <SCORE.INTRA.norm>
0

>  <SCORE.RESTR>
0

>  <SCORE.RESTR.CAVITY>
0

>  <SCORE.RESTR.norm>
0

>  <SCORE.SYSTEM>
0

>  <SCORE.SYSTEM.CONST>
0

>  <SCORE.SYSTEM.DIHEDRAL>
0

>  <SCORE.SYSTEM.SOLV>
0

>  <SCORE.SYSTEM.norm>
0

>  <SCORE.heavy>
10

>  <SCORE.norm>
-1.48687

>  <RMSD>
2.315

$$$$
ligand
 OpenBabel02271912153D
libRbt.so/2013.1/901 2013/11/27
 10 11  0  0  0  0  0  0  0  0999 V2000
    0.0793  -13.1755   12.9696 N   0  0  0  0  0  0  0  0  0  0  0  0
   -0.4829  -12.2011   13.6516 C   0  0  0  0  0  0  0  0  0  0  0  0
   -0.0154  -10.8957   13.4800 N   0  0  0  0  0  0  0  0  0  0  0  0
    0.9860  -10.6423   12.6408 C   0  0  0  0  0  0  0  0  0  0  0  0
    1.5497  -11.6225   11.9598 C   0  0  0  0  0  0  0  0  0  0  0  0
    1.1287  -12.8648   12.1080 C   0  0  0  0  0  0  0  0  0  0  0  0
    1.6704  -13.7587   11.4729 O   0  0  0  0  0  0  0  0  0  0  0  0
    2.5131  -11.1153   11.1927 N   0  0  0  0  0  0  0  0  0  0  0  0
    2.5330   -9.8039   11.4034 C   0  0  0  0  0  0  0  0  0  0  0  0
    1.5886   -9.5137   12.3020 N   0  0  0  0  0  0  0  0  0  0  0  0
  1  2  1  0  0  0  0
  1  6  1  0  0  0  0
  2  3  2  0  0  0  0
  3  4  1  0  0  0  0
  4  5  2  0  0  0  0
  4 10  1  0  0  0  0
  5  6  1  0  0  0  0
  5  8  1  0  0  0  0
  6  7  2  0  0  0  0
  8  9  1  0  0  0  0
  9 10  2  0  0  0  0
M  END
>  <CHROM.1>
1.16374778,-11.60251659,12.30271050,2.22572914,-0.71720286,-2.96391812

>  <Name>
ligand

>  <RI>
0

>  <Rbt.Current_Directory>
/home/itssahil/PROJECTS/Mol_Feturizer/Test_systems_manuscript/rnas/5c7w

>  <Rbt.Executable>
rbdock ($Id: //depot/dev/client3/rdock/2013.1/src/exe/rbdock.cxx#4 $)

>  <Rbt.Library>
libRbt.so (2013.1, Build901 2013/11/27)

>  <Rbt.Parameter_File>
/export/apps/rDock/src/rDock_2013.1_src/data/scripts/dock_solv.prm

>  <Rbt.Receptor>
prm/blind_docking_60.prm

>  <SCORE>
-14.8589

>  <SCORE.INTER>
-14.8589

>  <SCORE.INTER.CONST>
1

>  <SCORE.INTER.POLAR>
0

>  <SCORE.INTER.ROT>
0

>  <SCORE.INTER.SOLV>
3.28024

>  <SCORE.INTER.VDW>
-14.5993

>  <SCORE.INTER.norm>
-1.48589

>  <SCORE.INTRA>
0

>  <SCORE.INTRA.DIHEDRAL>
0

>  <SCORE.INTRA.DIHEDRAL.0>
0

>  <SCORE.INTRA.POLAR>
0

>  <SCORE.INTRA.POLAR.0>
0

>  <SCORE.INTRA.REPUL>
0

>  <SCORE.INTRA.REPUL.0>
0

>  <SCORE.INTRA.SOLV>
0

>  <SCORE.INTRA.SOLV.lig_0>
-4.15853

>  <SCORE.INTRA.VDW>
0

>  <SCORE.INTRA.VDW.0>
0

>  <SCORE.INTRA.norm>
0

>  <SCORE.RESTR>
0

>  <SCORE.RESTR.CAVITY>
0

>  <SCORE.RESTR.norm>
0

>  <SCORE.SYSTEM>
0

>  <SCORE.SYSTEM.CONST>
0

>  <SCORE.SYSTEM.DIHEDRAL>
0

>  <SCORE.SYSTEM.SOLV>
0

>  <SCORE.SYSTEM.norm>
0

>  <SCORE.heavy>
10

>  <SCORE.norm>
-1.48589

>  <RMSD>
2.317

$$$$
ligand
 OpenBabel02271912153D
libRbt.so/2013.1/901 2013/11/27
 10 11  0  0  0  0  0  0  0  0999 V2000
    0.0965  -13.2895   13.0507 N   0  0  0  0  0  0  0  0  0  0  0  0
   -0.5088  -12.3140   13.6930 C   0  0  0  0  0  0  0  0  0  0  0  0
   -0.0796  -11.0000   13.4906 N   0  0  0  0  0  0  0  0  0  0  0  0
    0.9286  -10.7393   12.6619 C   0  0  0  0  0  0  0  0  0  0  0  0
    1.5356  -11.7205   12.0208 C   0  0  0  0  0  0  0  0  0  0  0  0
    1.1513  -12.9708   12.1988 C   0  0  0  0  0  0  0  0  0  0  0  0
    1.7327  -13.8652   11.6005 O   0  0  0  0  0  0  0  0  0  0  0  0
    2.4966  -11.2054   11.2559 N   0  0  0  0  0  0  0  0  0  0  0  0
    2.4711   -9.8884   11.4274 C   0  0  0  0  0  0  0  0  0  0  0  0
    1.5015   -9.6024   12.3001 N   0  0  0  0  0  0  0  0  0  0  0  0
  1  2  1  0  0  0  0
  1  6  1  0  0  0  0
  2  3  2  0  0  0  0
  3  4  1  0  0  0  0
  4  5  2  0  0  0  0
  4 10  1  0  0  0  0
  5  6  1  0  0  0  0
  5  8  1  0  0  0  0
  6  7  2  0  0  0  0
  8  9  1  0  0  0  0
  9 10  2  0  0  0  0
M  END
>  <CHROM.1>
1.14289849,-11.70287508,12.35605799,2.18062401,-0.70398696,-3.02309295

>  <Name>
ligand

>  <RI>
0

>  <Rbt.Current_Directory>
/home/itssahil/PROJECTS/Mol_Feturizer/Test_systems_manuscript/rnas/5c7w

>  <Rbt.Executable>
rbdock ($Id: //depot/dev/client3/rdock/2013.1/src/exe/rbdock.cxx#4 $)

>  <Rbt.Library>
libRbt.so (2013.1, Build901 2013/11/27)

>  <Rbt.Parameter_File>
/export/apps/rDock/src/rDock_2013.1_src/data/scripts/dock_solv.prm

>  <Rbt.Receptor>
prm/pocket_docking_5.prm

>  <SCORE>
-14.8612

>  <SCORE.INTER>
-14.8612

>  <SCORE.INTER.CONST>
1

>  <SCORE.INTER.POLAR>
0

>  <SCORE.INTER.ROT>
0

>  <SCORE.INTER.SOLV>
3.24675

>  <SCORE.INTER.VDW>
-14.5897

>  <SCORE.INTER.norm>
-1.48612

>  <SCORE.INTRA>
0

>  <SCORE.INTRA.DIHEDRAL>
0

>  <SCORE.INTRA.DIHEDRAL.0>
0

>  <SCORE.INTRA.POLAR>
0

>  <SCORE.INTRA.POLAR.0>
0

>  <SCORE.INTRA.REPUL>
0

>  <SCORE.INTRA.REPUL.0>
0

>  <SCORE.INTRA.SOLV>
0

>  <SCORE.INTRA.SOLV.lig_0>
-4.15853

>  <SCORE.INTRA.VDW>
0

>  <SCORE.INTRA.VDW.0>
0

>  <SCORE.INTRA.norm>
0

>  <SCORE.RESTR>
0

>  <SCORE.RESTR.CAVITY>
0

>  <SCORE.RESTR.norm>
0

>  <SCORE.SYSTEM>
0

>  <SCORE.SYSTEM.CONST>
0

>  <SCORE.SYSTEM.DIHEDRAL>
0

>  <SCORE.SYSTEM.SOLV>
0

>  <SCORE.SYSTEM.norm>
0

>  <SCORE.heavy>
10

>  <SCORE.norm>
-1.48612

>  <RMSD>
2.317

$$$$
ligand
 OpenBabel02271912153D
libRbt.so/2013.1/901 2013/11/27
 10 11  0  0  0  0  0  0  0  0999 V2000
    0.1009  -13.3195   12.9804 N   0  0  0  0  0  0  0  0  0  0  0  0
   -0.4768  -12.3578   13.6675 C   0  0  0  0  0  0  0  0  0  0  0  0
   -0.0335  -11.0436   13.4991 N   0  0  0  0  0  0  0  0  0  0  0  0
    0.9603  -10.7691   12.6576 C   0  0  0  0  0  0  0  0  0  0  0  0
    1.5395  -11.7365   11.9714 C   0  0  0  0  0  0  0  0  0  0  0  0
    1.1416  -12.9868   12.1166 C   0  0  0  0  0  0  0  0  0  0  0  0
    1.6974  -13.8685   11.4766 O   0  0  0  0  0  0  0  0  0  0  0  0
    2.4911  -11.2092   11.2031 N   0  0  0  0  0  0  0  0  0  0  0  0
    2.4878   -9.8985   11.4183 C   0  0  0  0  0  0  0  0  0  0  0  0
    1.5413   -9.6286   12.3209 N   0  0  0  0  0  0  0  0  0  0  0  0
  1  2  1  0  0  0  0
  1  6  1  0  0  0  0
  2  3  2  0  0  0  0
  3  4  1  0  0  0  0
  4  5  2  0  0  0  0
  4 10  1  0  0  0  0
  5  6  1  0  0  0  0
  5  8  1  0  0  0  0
  6  7  2  0  0  0  0
  8  9  1  0  0  0  0
  9 10  2  0  0  0  0
M  END
>  <CHROM.1>
1.15437926,-11.72479159,12.31560565,2.20266252,-0.72346341,-2.97562016

>  <Name>
ligand

>  <RI>
0

>  <Rbt.Current_Directory>
/home/itssahil/PROJECTS/Mol_Feturizer/Test_systems_manuscript/rnas/5c7w

>  <Rbt.Executable>
rbdock ($Id: //depot/dev/client3/rdock/2013.1/src/exe/rbdock.cxx#4 $)

>  <Rbt.Library>
libRbt.so (2013.1, Build901 2013/11/27)

>  <Rbt.Parameter_File>
/export/apps/rDock/src/rDock_2013.1_src/data/scripts/dock_solv.prm

>  <Rbt.Receptor>
prm/pocket_docking_8.prm

>  <SCORE>
-14.8127

>  <SCORE.INTER>
-14.8127

>  <SCORE.INTER.CONST>
1

>  <SCORE.INTER.POLAR>
0

>  <SCORE.INTER.ROT>
0

>  <SCORE.INTER.SOLV>
3.31105

>  <SCORE.INTER.VDW>
-14.5788

>  <SCORE.INTER.norm>
-1.48127

>  <SCORE.INTRA>
0

>  <SCORE.INTRA.DIHEDRAL>
0

>  <SCORE.INTRA.DIHEDRAL.0>
0

>  <SCORE.INTRA.POLAR>
0

>  <SCORE.INTRA.POLAR.0>
0

>  <SCORE.INTRA.REPUL>
0

>  <SCORE.INTRA.REPUL.0>
0

>  <SCORE.INTRA.SOLV>
0

>  <SCORE.INTRA.SOLV.lig_0>
-4.15853

>  <SCORE.INTRA.VDW>
0

>  <SCORE.INTRA.VDW.0>
0

>  <SCORE.INTRA.norm>
0

>  <SCORE.RESTR>
0

>  <SCORE.RESTR.CAVITY>
0

>  <SCORE.RESTR.norm>
0

>  <SCORE.SYSTEM>
0

>  <SCORE.SYSTEM.CONST>
0

>  <SCORE.SYSTEM.DIHEDRAL>
0

>  <SCORE.SYSTEM.SOLV>
0

>  <SCORE.SYSTEM.norm>
0

>  <SCORE.heavy>
10

>  <SCORE.norm>
-1.48127

>  <RMSD>
2.317

$$$$
ligand
 OpenBabel02271912153D
libRbt.so/2013.1/901 2013/11/27
 10 11  0  0  0  0  0  0  0  0999 V2000
    0.0946  -13.1909   12.9815 N   0  0  0  0  0  0  0  0  0  0  0  0
   -0.4711  -12.2164   13.6603 C   0  0  0  0  0  0  0  0  0  0  0  0
   -0.0057  -10.9105   13.4874 N   0  0  0  0  0  0  0  0  0  0  0  0
    0.9971  -10.6566   12.6500 C   0  0  0  0  0  0  0  0  0  0  0  0
    1.5643  -11.6370   11.9721 C   0  0  0  0  0  0  0  0  0  0  0  0
    1.1453  -12.8799   12.1217 C   0  0  0  0  0  0  0  0  0  0  0  0
    1.6902  -13.7739   11.4896 O   0  0  0  0  0  0  0  0  0  0  0  0
    2.5284  -11.1294   11.2063 N   0  0  0  0  0  0  0  0  0  0  0  0
    2.5453   -9.8176   11.4146 C   0  0  0  0  0  0  0  0  0  0  0  0
    1.5983   -9.5275   12.3104 N   0  0  0  0  0  0  0  0  0  0  0  0
  1  2  1  0  0  0  0
  1  6  1  0  0  0  0
  2  3  2  0  0  0  0
  3  4  1  0  0  0  0
  4  5  2  0  0  0  0
  4 10  1  0  0  0  0
  5  6  1  0  0  0  0
  5  8  1  0  0  0  0
  6  7  2  0  0  0  0
  8  9  1  0  0  0  0
  9 10  2  0  0  0  0
M  END
>  <CHROM.1>
1.17748505,-11.61716554,12.31413943,2.22267841,-0.71528941,-2.96779821

>  <Name>
ligand

>  <RI>
0

>  <Rbt.Current_Directory>
/home/itssahil/PROJECTS/Mol_Feturizer/Test_systems_manuscript/rnas/5c7w

>  <Rbt.Executable>
rbdock ($Id: //depot/dev/client3/rdock/2013.1/src/exe/rbdock.cxx#4 $)

>  <Rbt.Library>
libRbt.so (2013.1, Build901 2013/11/27)

>  <Rbt.Parameter_File>
/export/apps/rDock/src/rDock_2013.1_src/data/scripts/dock_solv.prm

>  <Rbt.Receptor>
prm/blind_docking_40.prm

>  <SCORE>
-14.8818

>  <SCORE.INTER>
-14.8818

>  <SCORE.INTER.CONST>
1

>  <SCORE.INTER.POLAR>
0

>  <SCORE.INTER.ROT>
0

>  <SCORE.INTER.SOLV>
3.27857

>  <SCORE.INTER.VDW>
-14.6141

>  <SCORE.INTER.norm>
-1.48818

>  <SCORE.INTRA>
0

>  <SCORE.INTRA.DIHEDRAL>
0

>  <SCORE.INTRA.DIHEDRAL.0>
0

>  <SCORE.INTRA.POLAR>
0

>  <SCORE.INTRA.POLAR.0>
0

>  <SCORE.INTRA.REPUL>
0

>  <SCORE.INTRA.REPUL.0>
0

>  <SCORE.INTRA.SOLV>
0

>  <SCORE.INTRA.SOLV.lig_0>
-4.15853

>  <SCORE.INTRA.VDW>
0

>  <SCORE.INTRA.VDW.0>
0

>  <SCORE.INTRA.norm>
0

>  <SCORE.RESTR>
0

>  <SCORE.RESTR.CAVITY>
0

>  <SCORE.RESTR.norm>
0

>  <SCORE.SYSTEM>
0

>  <SCORE.SYSTEM.CONST>
0

>  <SCORE.SYSTEM.DIHEDRAL>
0

>  <SCORE.SYSTEM.SOLV>
0

>  <SCORE.SYSTEM.norm>
0

>  <SCORE.heavy>
10

>  <SCORE.norm>
-1.48818

>  <RMSD>
2.318

$$$$
ligand
 OpenBabel02271912153D
libRbt.so/2013.1/901 2013/11/27
 10 11  0  0  0  0  0  0  0  0999 V2000
    0.0943  -13.2241   12.9517 N   0  0  0  0  0  0  0  0  0  0  0  0
   -0.4643  -12.2536   13.6422 C   0  0  0  0  0  0  0  0  0  0  0  0
   -0.0032  -10.9461   13.4695 N   0  0  0  0  0  0  0  0  0  0  0  0
    0.9884  -10.6867   12.6206 C   0  0  0  0  0  0  0  0  0  0  0  0
    1.5486  -11.6630   11.9311 C   0  0  0  0  0  0  0  0  0  0  0  0
    1.1335  -12.9072   12.0801 C   0  0  0  0  0  0  0  0  0  0  0  0
    1.6718  -13.7974   11.4369 O   0  0  0  0  0  0  0  0  0  0  0  0
    2.5021  -11.1502   11.1554 N   0  0  0  0  0  0  0  0  0  0  0  0
    2.5195   -9.8393   11.3696 C   0  0  0  0  0  0  0  0  0  0  0  0
    1.5835   -9.5550   12.2788 N   0  0  0  0  0  0  0  0  0  0  0  0
  1  2  1  0  0  0  0
  1  6  1  0  0  0  0
  2  3  2  0  0  0  0
  3  4  1  0  0  0  0
  4  5  2  0  0  0  0
  4 10  1  0  0  0  0
  5  6  1  0  0  0  0
  5  8  1  0  0  0  0
  6  7  2  0  0  0  0
  8  9  1  0  0  0  0
  9 10  2  0  0  0  0
M  END
>  <CHROM.1>
1.16611094,-11.64538601,12.27801774,2.22349409,-0.72807029,-2.96259343

>  <Name>
ligand

>  <RI>
0

>  <Rbt.Current_Directory>
/home/itssahil/PROJECTS/Mol_Feturizer/Test_systems_manuscript/rnas/5c7w

>  <Rbt.Executable>
rbdock ($Id: //depot/dev/client3/rdock/2013.1/src/exe/rbdock.cxx#4 $)

>  <Rbt.Library>
libRbt.so (2013.1, Build901 2013/11/27)

>  <Rbt.Parameter_File>
/export/apps/rDock/src/rDock_2013.1_src/data/scripts/dock_solv.prm

>  <Rbt.Receptor>
prm/pocket_docking_4.prm

>  <SCORE>
-14.8264

>  <SCORE.INTER>
-14.8264

>  <SCORE.INTER.CONST>
1

>  <SCORE.INTER.POLAR>
0

>  <SCORE.INTER.ROT>
0

>  <SCORE.INTER.SOLV>
3.32535

>  <SCORE.INTER.VDW>
-14.5927

>  <SCORE.INTER.norm>
-1.48264

>  <SCORE.INTRA>
0

>  <SCORE.INTRA.DIHEDRAL>
0

>  <SCORE.INTRA.DIHEDRAL.0>
0

>  <SCORE.INTRA.POLAR>
0

>  <SCORE.INTRA.POLAR.0>
0

>  <SCORE.INTRA.REPUL>
0

>  <SCORE.INTRA.REPUL.0>
0

>  <SCORE.INTRA.SOLV>
0

>  <SCORE.INTRA.SOLV.lig_0>
-4.15853

>  <SCORE.INTRA.VDW>
0

>  <SCORE.INTRA.VDW.0>
0

>  <SCORE.INTRA.norm>
0

>  <SCORE.RESTR>
0

>  <SCORE.RESTR.CAVITY>
0

>  <SCORE.RESTR.norm>
0

>  <SCORE.SYSTEM>
0

>  <SCORE.SYSTEM.CONST>
0

>  <SCORE.SYSTEM.DIHEDRAL>
0

>  <SCORE.SYSTEM.SOLV>
0

>  <SCORE.SYSTEM.norm>
0

>  <SCORE.heavy>
10

>  <SCORE.norm>
-1.48264

>  <RMSD>
2.318

$$$$
ligand
 OpenBabel02271912153D
libRbt.so/2013.1/901 2013/11/27
 10 11  0  0  0  0  0  0  0  0999 V2000
    0.0850  -13.3440   12.9596 N   0  0  0  0  0  0  0  0  0  0  0  0
   -0.4907  -12.3734   13.6357 C   0  0  0  0  0  0  0  0  0  0  0  0
   -0.0390  -11.0632   13.4589 N   0  0  0  0  0  0  0  0  0  0  0  0
    0.9609  -10.8013   12.6205 C   0  0  0  0  0  0  0  0  0  0  0  0
    1.5381  -11.7777   11.9453 C   0  0  0  0  0  0  0  0  0  0  0  0
    1.1322  -13.0244   12.0986 C   0  0  0  0  0  0  0  0  0  0  0  0
    1.6862  -13.9145   11.4688 O   0  0  0  0  0  0  0  0  0  0  0  0
    2.4967  -11.2622   11.1777 N   0  0  0  0  0  0  0  0  0  0  0  0
    2.4999   -9.9497   11.3822 C   0  0  0  0  0  0  0  0  0  0  0  0
    1.5502   -9.6670   12.2775 N   0  0  0  0  0  0  0  0  0  0  0  0
  1  2  1  0  0  0  0
  1  6  1  0  0  0  0
  2  3  2  0  0  0  0
  3  4  1  0  0  0  0
  4  5  2  0  0  0  0
  4 10  1  0  0  0  0
  5  6  1  0  0  0  0
  5  8  1  0  0  0  0
  6  7  2  0  0  0  0
  8  9  1  0  0  0  0
  9 10  2  0  0  0  0
M  END
>  <CHROM.1>
1.15122745,-11.76089946,12.28735613,2.20906960,-0.71730267,-2.97960625

>  <Name>
ligand

>  <RI>
0

>  <Rbt.Current_Directory>
/home/itssahil/PROJECTS/Mol_Feturizer/Test_systems_manuscript/rnas/5c7w

>  <Rbt.Executable>
rbdock ($Id: //depot/dev/client3/rdock/2013.1/src/exe/rbdock.cxx#4 $)

>  <Rbt.Library>
libRbt.so (2013.1, Build901 2013/11/27)

>  <Rbt.Parameter_File>
/export/apps/rDock/src/rDock_2013.1_src/data/scripts/dock_solv.prm

>  <Rbt.Receptor>
prm/pocket_docking_7.prm

>  <SCORE>
-14.8794

>  <SCORE.INTER>
-14.8794

>  <SCORE.INTER.CONST>
1

>  <SCORE.INTER.POLAR>
0

>  <SCORE.INTER.ROT>
0

>  <SCORE.INTER.SOLV>
3.30517

>  <SCORE.INTER.VDW>
-14.6213

>  <SCORE.INTER.norm>
-1.48794

>  <SCORE.INTRA>
0

>  <SCORE.INTRA.DIHEDRAL>
0

>  <SCORE.INTRA.DIHEDRAL.0>
0

>  <SCORE.INTRA.POLAR>
0

>  <SCORE.INTRA.POLAR.0>
0

>  <SCORE.INTRA.REPUL>
0

>  <SCORE.INTRA.REPUL.0>
0

>  <SCORE.INTRA.SOLV>
0

>  <SCORE.INTRA.SOLV.lig_0>
-4.15853

>  <SCORE.INTRA.VDW>
0

>  <SCORE.INTRA.VDW.0>
0

>  <SCORE.INTRA.norm>
0

>  <SCORE.RESTR>
0

>  <SCORE.RESTR.CAVITY>
0

>  <SCORE.RESTR.norm>
0

>  <SCORE.SYSTEM>
0

>  <SCORE.SYSTEM.CONST>
0

>  <SCORE.SYSTEM.DIHEDRAL>
0

>  <SCORE.SYSTEM.SOLV>
0

>  <SCORE.SYSTEM.norm>
0

>  <SCORE.heavy>
10

>  <SCORE.norm>
-1.48794

>  <RMSD>
2.318

$$$$
ligand
 OpenBabel02271912153D
libRbt.so/2013.1/901 2013/11/27
 10 11  0  0  0  0  0  0  0  0999 V2000
    0.1335  -13.3463   12.9196 N   0  0  0  0  0  0  0  0  0  0  0  0
   -0.4649  -12.4095   13.6231 C   0  0  0  0  0  0  0  0  0  0  0  0
   -0.0499  -11.0834   13.4782 N   0  0  0  0  0  0  0  0  0  0  0  0
    0.9381  -10.7728   12.6423 C   0  0  0  0  0  0  0  0  0  0  0  0
    1.5382  -11.7154   11.9396 C   0  0  0  0  0  0  0  0  0  0  0  0
    1.1671  -12.9762   12.0625 C   0  0  0  0  0  0  0  0  0  0  0  0
    1.7420  -13.8344   11.4075 O   0  0  0  0  0  0  0  0  0  0  0  0
    2.4785  -11.1543   11.1814 N   0  0  0  0  0  0  0  0  0  0  0  0
    2.4470   -9.8479   11.4196 C   0  0  0  0  0  0  0  0  0  0  0  0
    1.4945   -9.6143   12.3262 N   0  0  0  0  0  0  0  0  0  0  0  0
  1  2  1  0  0  0  0
  1  6  1  0  0  0  0
  2  3  2  0  0  0  0
  3  4  1  0  0  0  0
  4  5  2  0  0  0  0
  4 10  1  0  0  0  0
  5  6  1  0  0  0  0
  5  8  1  0  0  0  0
  6  7  2  0  0  0  0
  8  9  1  0  0  0  0
  9 10  2  0  0  0  0
M  END
>  <CHROM.1>
1.15277254,-11.71794351,12.28370833,2.17424890,-0.72647604,-2.97687283

>  <Name>
ligand

>  <RI>
0

>  <Rbt.Current_Directory>
/home/itssahil/PROJECTS/Mol_Feturizer/Test_systems_manuscript/rnas/5c7w

>  <Rbt.Executable>
rbdock ($Id: //depot/dev/client3/rdock/2013.1/src/exe/rbdock.cxx#4 $)

>  <Rbt.Library>
libRbt.so (2013.1, Build901 2013/11/27)

>  <Rbt.Parameter_File>
/export/apps/rDock/src/rDock_2013.1_src/data/scripts/dock_solv.prm

>  <Rbt.Receptor>
prm/pocket_docking_3.prm

>  <SCORE>
-14.8715

>  <SCORE.INTER>
-14.8715

>  <SCORE.INTER.CONST>
1

>  <SCORE.INTER.POLAR>
0

>  <SCORE.INTER.ROT>
0

>  <SCORE.INTER.SOLV>
3.38644

>  <SCORE.INTER.VDW>
-14.6431

>  <SCORE.INTER.norm>
-1.48715

>  <SCORE.INTRA>
0

>  <SCORE.INTRA.DIHEDRAL>
0

>  <SCORE.INTRA.DIHEDRAL.0>
0

>  <SCORE.INTRA.POLAR>
0

>  <SCORE.INTRA.POLAR.0>
0

>  <SCORE.INTRA.REPUL>
0

>  <SCORE.INTRA.REPUL.0>
0

>  <SCORE.INTRA.SOLV>
0

>  <SCORE.INTRA.SOLV.lig_0>
-4.15853

>  <SCORE.INTRA.VDW>
0

>  <SCORE.INTRA.VDW.0>
0

>  <SCORE.INTRA.norm>
0

>  <SCORE.RESTR>
0

>  <SCORE.RESTR.CAVITY>
0

>  <SCORE.RESTR.norm>
0

>  <SCORE.SYSTEM>
0

>  <SCORE.SYSTEM.CONST>
0

>  <SCORE.SYSTEM.DIHEDRAL>
0

>  <SCORE.SYSTEM.SOLV>
0

>  <SCORE.SYSTEM.norm>
0

>  <SCORE.heavy>
10

>  <SCORE.norm>
-1.48715

>  <RMSD>
2.319

$$$$
ligand
 OpenBabel02271912153D
libRbt.so/2013.1/901 2013/11/27
 10 11  0  0  0  0  0  0  0  0999 V2000
    0.1378  -13.3141   13.0143 N   0  0  0  0  0  0  0  0  0  0  0  0
   -0.4755  -12.3633   13.6856 C   0  0  0  0  0  0  0  0  0  0  0  0
   -0.0700  -11.0382   13.5081 N   0  0  0  0  0  0  0  0  0  0  0  0
    0.9240  -10.7424   12.6740 C   0  0  0  0  0  0  0  0  0  0  0  0
    1.5390  -11.6989   12.0037 C   0  0  0  0  0  0  0  0  0  0  0  0
    1.1771  -12.9590   12.1577 C   0  0  0  0  0  0  0  0  0  0  0  0
    1.7656  -13.8300   11.5326 O   0  0  0  0  0  0  0  0  0  0  0  0
    2.4823  -11.1510   11.2396 N   0  0  0  0  0  0  0  0  0  0  0  0
    2.4376   -9.8388   11.4413 C   0  0  0  0  0  0  0  0  0  0  0  0
    1.4740   -9.5884   12.3314 N   0  0  0  0  0  0  0  0  0  0  0  0
  1  2  1  0  0  0  0
  1  6  1  0  0  0  0
  2  3  2  0  0  0  0
  3  4  1  0  0  0  0
  4  5  2  0  0  0  0
  4 10  1  0  0  0  0
  5  6  1  0  0  0  0
  5  8  1  0  0  0  0
  6  7  2  0  0  0  0
  8  9  1  0  0  0  0
  9 10  2  0  0  0  0
M  END
>  <CHROM.1>
1.15006254,-11.69525081,12.34383151,2.16123194,-0.71766797,-3.01314297

>  <Name>
ligand

>  <RI>
0

>  <Rbt.Current_Directory>
/home/itssahil/PROJECTS/Mol_Feturizer/Test_systems_manuscript/rnas/5c7w

>  <Rbt.Executable>
rbdock ($Id: //depot/dev/client3/rdock/2013.1/src/exe/rbdock.cxx#4 $)

>  <Rbt.Library>
libRbt.so (2013.1, Build901 2013/11/27)

>  <Rbt.Parameter_File>
/export/apps/rDock/src/rDock_2013.1_src/data/scripts/dock_solv.prm

>  <Rbt.Receptor>
prm/pocket_docking_3.prm

>  <SCORE>
-14.859

>  <SCORE.INTER>
-14.859

>  <SCORE.INTER.CONST>
1

>  <SCORE.INTER.POLAR>
0

>  <SCORE.INTER.ROT>
0

>  <SCORE.INTER.SOLV>
3.32157

>  <SCORE.INTER.VDW>
-14.6132

>  <SCORE.INTER.norm>
-1.4859

>  <SCORE.INTRA>
0

>  <SCORE.INTRA.DIHEDRAL>
0

>  <SCORE.INTRA.DIHEDRAL.0>
0

>  <SCORE.INTRA.POLAR>
0

>  <SCORE.INTRA.POLAR.0>
0

>  <SCORE.INTRA.REPUL>
0

>  <SCORE.INTRA.REPUL.0>
0

>  <SCORE.INTRA.SOLV>
0

>  <SCORE.INTRA.SOLV.lig_0>
-4.15853

>  <SCORE.INTRA.VDW>
0

>  <SCORE.INTRA.VDW.0>
0

>  <SCORE.INTRA.norm>
0

>  <SCORE.RESTR>
0

>  <SCORE.RESTR.CAVITY>
0

>  <SCORE.RESTR.norm>
0

>  <SCORE.SYSTEM>
0

>  <SCORE.SYSTEM.CONST>
0

>  <SCORE.SYSTEM.DIHEDRAL>
0

>  <SCORE.SYSTEM.SOLV>
0

>  <SCORE.SYSTEM.norm>
0

>  <SCORE.heavy>
10

>  <SCORE.norm>
-1.4859

>  <RMSD>
2.319

$$$$
ligand
 OpenBabel02271912153D
libRbt.so/2013.1/901 2013/11/27
 10 11  0  0  0  0  0  0  0  0999 V2000
    0.1261  -13.3037   13.0101 N   0  0  0  0  0  0  0  0  0  0  0  0
   -0.4901  -12.3377   13.6563 C   0  0  0  0  0  0  0  0  0  0  0  0
   -0.0705  -11.0188   13.4652 N   0  0  0  0  0  0  0  0  0  0  0  0
    0.9397  -10.7443   12.6434 C   0  0  0  0  0  0  0  0  0  0  0  0
    1.5576  -11.7161   11.9983 C   0  0  0  0  0  0  0  0  0  0  0  0
    1.1825  -12.9706   12.1657 C   0  0  0  0  0  0  0  0  0  0  0  0
    1.7740  -13.8560   11.5640 O   0  0  0  0  0  0  0  0  0  0  0  0
    2.5182  -11.1879   11.2419 N   0  0  0  0  0  0  0  0  0  0  0  0
    2.4813   -9.8724   11.4225 C   0  0  0  0  0  0  0  0  0  0  0  0
    1.5051   -9.6003   12.2924 N   0  0  0  0  0  0  0  0  0  0  0  0
  1  2  1  0  0  0  0
  1  6  1  0  0  0  0
  2  3  2  0  0  0  0
  3  4  1  0  0  0  0
  4  5  2  0  0  0  0
  4 10  1  0  0  0  0
  5  6  1  0  0  0  0
  5  8  1  0  0  0  0
  6  7  2  0  0  0  0
  8  9  1  0  0  0  0
  9 10  2  0  0  0  0
M  END
>  <CHROM.1>
1.16313872,-11.70393194,12.33180353,2.16944629,-0.70005375,-3.02327707

>  <Name>
ligand

>  <RI>
0

>  <Rbt.Current_Directory>
/home/itssahil/PROJECTS/Mol_Feturizer/Test_systems_manuscript/rnas/5c7w

>  <Rbt.Executable>
rbdock ($Id: //depot/dev/client3/rdock/2013.1/src/exe/rbdock.cxx#4 $)

>  <Rbt.Library>
libRbt.so (2013.1, Build901 2013/11/27)

>  <Rbt.Parameter_File>
/export/apps/rDock/src/rDock_2013.1_src/data/scripts/dock_solv.prm

>  <Rbt.Receptor>
prm/pocket_docking_7.prm

>  <SCORE>
-14.8796

>  <SCORE.INTER>
-14.8796

>  <SCORE.INTER.CONST>
1

>  <SCORE.INTER.POLAR>
0

>  <SCORE.INTER.ROT>
0

>  <SCORE.INTER.SOLV>
3.27458

>  <SCORE.INTER.VDW>
-14.6112

>  <SCORE.INTER.norm>
-1.48796

>  <SCORE.INTRA>
0

>  <SCORE.INTRA.DIHEDRAL>
0

>  <SCORE.INTRA.DIHEDRAL.0>
0

>  <SCORE.INTRA.POLAR>
0

>  <SCORE.INTRA.POLAR.0>
0

>  <SCORE.INTRA.REPUL>
0

>  <SCORE.INTRA.REPUL.0>
0

>  <SCORE.INTRA.SOLV>
0

>  <SCORE.INTRA.SOLV.lig_0>
-4.15853

>  <SCORE.INTRA.VDW>
0

>  <SCORE.INTRA.VDW.0>
0

>  <SCORE.INTRA.norm>
0

>  <SCORE.RESTR>
0

>  <SCORE.RESTR.CAVITY>
0

>  <SCORE.RESTR.norm>
0

>  <SCORE.SYSTEM>
0

>  <SCORE.SYSTEM.CONST>
0

>  <SCORE.SYSTEM.DIHEDRAL>
0

>  <SCORE.SYSTEM.SOLV>
0

>  <SCORE.SYSTEM.norm>
0

>  <SCORE.heavy>
10

>  <SCORE.norm>
-1.48796

>  <RMSD>
2.320

$$$$
ligand
 OpenBabel02271912153D
libRbt.so/2013.1/901 2013/11/27
 10 11  0  0  0  0  0  0  0  0999 V2000
    0.1159  -13.2332   12.9606 N   0  0  0  0  0  0  0  0  0  0  0  0
   -0.4574  -12.2620   13.6378 C   0  0  0  0  0  0  0  0  0  0  0  0
   -0.0119  -10.9509   13.4519 N   0  0  0  0  0  0  0  0  0  0  0  0
    0.9797  -10.6889   12.6038 C   0  0  0  0  0  0  0  0  0  0  0  0
    1.5546  -11.6659   11.9276 C   0  0  0  0  0  0  0  0  0  0  0  0
    1.1545  -12.9134   12.0894 C   0  0  0  0  0  0  0  0  0  0  0  0
    1.7063  -13.8041   11.4584 O   0  0  0  0  0  0  0  0  0  0  0  0
    2.5048  -11.1501   11.1497 N   0  0  0  0  0  0  0  0  0  0  0  0
    2.5050   -9.8368   11.3490 C   0  0  0  0  0  0  0  0  0  0  0  0
    1.5620   -9.5538   12.2513 N   0  0  0  0  0  0  0  0  0  0  0  0
  1  2  1  0  0  0  0
  1  6  1  0  0  0  0
  2  3  2  0  0  0  0
  3  4  1  0  0  0  0
  4  5  2  0  0  0  0
  4 10  1  0  0  0  0
  5  6  1  0  0  0  0
  5  8  1  0  0  0  0
  6  7  2  0  0  0  0
  8  9  1  0  0  0  0
  9 10  2  0  0  0  0
M  END
>  <CHROM.1>
1.17065271,-11.64909074,12.27289366,2.20619485,-0.72636337,-2.98551475

>  <Name>
ligand

>  <RI>
0

>  <Rbt.Current_Directory>
/home/itssahil/PROJECTS/Mol_Feturizer/Test_systems_manuscript/rnas/5c7w

>  <Rbt.Executable>
rbdock ($Id: //depot/dev/client3/rdock/2013.1/src/exe/rbdock.cxx#4 $)

>  <Rbt.Library>
libRbt.so (2013.1, Build901 2013/11/27)

>  <Rbt.Parameter_File>
/export/apps/rDock/src/rDock_2013.1_src/data/scripts/dock_solv.prm

>  <Rbt.Receptor>
prm/blind_docking_80.prm

>  <SCORE>
-14.8492

>  <SCORE.INTER>
-14.8492

>  <SCORE.INTER.CONST>
1

>  <SCORE.INTER.POLAR>
0

>  <SCORE.INTER.ROT>
0

>  <SCORE.INTER.SOLV>
3.33558

>  <SCORE.INTER.VDW>
-14.6113

>  <SCORE.INTER.norm>
-1.48492

>  <SCORE.INTRA>
0

>  <SCORE.INTRA.DIHEDRAL>
0

>  <SCORE.INTRA.DIHEDRAL.0>
0

>  <SCORE.INTRA.POLAR>
0

>  <SCORE.INTRA.POLAR.0>
0

>  <SCORE.INTRA.REPUL>
0

>  <SCORE.INTRA.REPUL.0>
0

>  <SCORE.INTRA.SOLV>
0

>  <SCORE.INTRA.SOLV.lig_0>
-4.15853

>  <SCORE.INTRA.VDW>
0

>  <SCORE.INTRA.VDW.0>
0

>  <SCORE.INTRA.norm>
0

>  <SCORE.RESTR>
0

>  <SCORE.RESTR.CAVITY>
0

>  <SCORE.RESTR.norm>
0

>  <SCORE.SYSTEM>
0

>  <SCORE.SYSTEM.CONST>
0

>  <SCORE.SYSTEM.DIHEDRAL>
0

>  <SCORE.SYSTEM.SOLV>
0

>  <SCORE.SYSTEM.norm>
0

>  <SCORE.heavy>
10

>  <SCORE.norm>
-1.48492

>  <RMSD>
2.321

$$$$
ligand
 OpenBabel02271912153D
libRbt.so/2013.1/901 2013/11/27
 10 11  0  0  0  0  0  0  0  0999 V2000
    0.1206  -13.2212   12.9638 N   0  0  0  0  0  0  0  0  0  0  0  0
   -0.4718  -12.2516   13.6266 C   0  0  0  0  0  0  0  0  0  0  0  0
   -0.0292  -10.9386   13.4473 N   0  0  0  0  0  0  0  0  0  0  0  0
    0.9789  -10.6733   12.6199 C   0  0  0  0  0  0  0  0  0  0  0  0
    1.5729  -11.6487   11.9581 C   0  0  0  0  0  0  0  0  0  0  0  0
    1.1758  -12.8979   12.1141 C   0  0  0  0  0  0  0  0  0  0  0  0
    1.7453  -13.7871   11.4969 O   0  0  0  0  0  0  0  0  0  0  0  0
    2.5367  -11.1297   11.1994 N   0  0  0  0  0  0  0  0  0  0  0  0
    2.5261   -9.8160   11.3958 C   0  0  0  0  0  0  0  0  0  0  0  0
    1.5628   -9.5360   12.2773 N   0  0  0  0  0  0  0  0  0  0  0  0
  1  2  1  0  0  0  0
  1  6  1  0  0  0  0
  2  3  2  0  0  0  0
  3  4  1  0  0  0  0
  4  5  2  0  0  0  0
  4 10  1  0  0  0  0
  5  6  1  0  0  0  0
  5  8  1  0  0  0  0
  6  7  2  0  0  0  0
  8  9  1  0  0  0  0
  9 10  2  0  0  0  0
M  END
>  <CHROM.1>
1.18163869,-11.63317730,12.29516086,2.19529974,-0.70617836,-2.99480594

>  <Name>
ligand

>  <RI>
0

>  <Rbt.Current_Directory>
/home/itssahil/PROJECTS/Mol_Feturizer/Test_systems_manuscript/rnas/5c7w

>  <Rbt.Executable>
rbdock ($Id: //depot/dev/client3/rdock/2013.1/src/exe/rbdock.cxx#4 $)

>  <Rbt.Library>
libRbt.so (2013.1, Build901 2013/11/27)

>  <Rbt.Parameter_File>
/export/apps/rDock/src/rDock_2013.1_src/data/scripts/dock_solv.prm

>  <Rbt.Receptor>
prm/pocket_docking_7.prm

>  <SCORE>
-14.8532

>  <SCORE.INTER>
-14.8532

>  <SCORE.INTER.CONST>
1

>  <SCORE.INTER.POLAR>
0

>  <SCORE.INTER.ROT>
0

>  <SCORE.INTER.SOLV>
3.29723

>  <SCORE.INTER.VDW>
-14.6012

>  <SCORE.INTER.norm>
-1.48532

>  <SCORE.INTRA>
0

>  <SCORE.INTRA.DIHEDRAL>
0

>  <SCORE.INTRA.DIHEDRAL.0>
0

>  <SCORE.INTRA.POLAR>
0

>  <SCORE.INTRA.POLAR.0>
0

>  <SCORE.INTRA.REPUL>
0

>  <SCORE.INTRA.REPUL.0>
0

>  <SCORE.INTRA.SOLV>
0

>  <SCORE.INTRA.SOLV.lig_0>
-4.15853

>  <SCORE.INTRA.VDW>
0

>  <SCORE.INTRA.VDW.0>
0

>  <SCORE.INTRA.norm>
0

>  <SCORE.RESTR>
0

>  <SCORE.RESTR.CAVITY>
0

>  <SCORE.RESTR.norm>
0

>  <SCORE.SYSTEM>
0

>  <SCORE.SYSTEM.CONST>
0

>  <SCORE.SYSTEM.DIHEDRAL>
0

>  <SCORE.SYSTEM.SOLV>
0

>  <SCORE.SYSTEM.norm>
0

>  <SCORE.heavy>
10

>  <SCORE.norm>
-1.48532

>  <RMSD>
2.321

$$$$
ligand
 OpenBabel02271912153D
libRbt.so/2013.1/901 2013/11/27
 10 11  0  0  0  0  0  0  0  0999 V2000
    0.1308  -13.2599   12.9479 N   0  0  0  0  0  0  0  0  0  0  0  0
   -0.4385  -12.3017   13.6467 C   0  0  0  0  0  0  0  0  0  0  0  0
    0.0055  -10.9872   13.4825 N   0  0  0  0  0  0  0  0  0  0  0  0
    0.9917  -10.7090   12.6332 C   0  0  0  0  0  0  0  0  0  0  0  0
    1.5626  -11.6730   11.9353 C   0  0  0  0  0  0  0  0  0  0  0  0
    1.1638  -12.9235   12.0763 C   0  0  0  0  0  0  0  0  0  0  0  0
    1.7119  -13.8021   11.4254 O   0  0  0  0  0  0  0  0  0  0  0  0
    2.5077  -11.1425   11.1613 N   0  0  0  0  0  0  0  0  0  0  0  0
    2.5089   -9.8331   11.3850 C   0  0  0  0  0  0  0  0  0  0  0  0
    1.5715   -9.5674   12.2983 N   0  0  0  0  0  0  0  0  0  0  0  0
  1  2  1  0  0  0  0
  1  6  1  0  0  0  0
  2  3  2  0  0  0  0
  3  4  1  0  0  0  0
  4  5  2  0  0  0  0
  4 10  1  0  0  0  0
  5  6  1  0  0  0  0
  5  8  1  0  0  0  0
  6  7  2  0  0  0  0
  8  9  1  0  0  0  0
  9 10  2  0  0  0  0
M  END
>  <CHROM.1>
1.18080994,-11.66283061,12.28327526,2.20716955,-0.73259697,-2.96622796

>  <Name>
ligand

>  <RI>
0

>  <Rbt.Current_Directory>
/home/itssahil/PROJECTS/Mol_Feturizer/Test_systems_manuscript/rnas/5c7w

>  <Rbt.Executable>
rbdock ($Id: //depot/dev/client3/rdock/2013.1/src/exe/rbdock.cxx#4 $)

>  <Rbt.Library>
libRbt.so (2013.1, Build901 2013/11/27)

>  <Rbt.Parameter_File>
/export/apps/rDock/src/rDock_2013.1_src/data/scripts/dock_solv.prm

>  <Rbt.Receptor>
prm/pocket_docking_7.prm

>  <SCORE>
-14.847

>  <SCORE.INTER>
-14.847

>  <SCORE.INTER.CONST>
1

>  <SCORE.INTER.POLAR>
0

>  <SCORE.INTER.ROT>
0

>  <SCORE.INTER.SOLV>
3.36095

>  <SCORE.INTER.VDW>
-14.6183

>  <SCORE.INTER.norm>
-1.4847

>  <SCORE.INTRA>
0

>  <SCORE.INTRA.DIHEDRAL>
0

>  <SCORE.INTRA.DIHEDRAL.0>
0

>  <SCORE.INTRA.POLAR>
0

>  <SCORE.INTRA.POLAR.0>
0

>  <SCORE.INTRA.REPUL>
0

>  <SCORE.INTRA.REPUL.0>
0

>  <SCORE.INTRA.SOLV>
0

>  <SCORE.INTRA.SOLV.lig_0>
-4.15853

>  <SCORE.INTRA.VDW>
0

>  <SCORE.INTRA.VDW.0>
0

>  <SCORE.INTRA.norm>
0

>  <SCORE.RESTR>
0

>  <SCORE.RESTR.CAVITY>
0

>  <SCORE.RESTR.norm>
0

>  <SCORE.SYSTEM>
0

>  <SCORE.SYSTEM.CONST>
0

>  <SCORE.SYSTEM.DIHEDRAL>
0

>  <SCORE.SYSTEM.SOLV>
0

>  <SCORE.SYSTEM.norm>
0

>  <SCORE.heavy>
10

>  <SCORE.norm>
-1.4847

>  <RMSD>
2.321

$$$$
ligand
 OpenBabel02271912153D
libRbt.so/2013.1/901 2013/11/27
 10 11  0  0  0  0  0  0  0  0999 V2000
    0.1311  -13.2704   12.9236 N   0  0  0  0  0  0  0  0  0  0  0  0
   -0.4499  -12.3150   13.6166 C   0  0  0  0  0  0  0  0  0  0  0  0
   -0.0104  -10.9984   13.4571 N   0  0  0  0  0  0  0  0  0  0  0  0
    0.9833  -10.7155   12.6182 C   0  0  0  0  0  0  0  0  0  0  0  0
    1.5658  -11.6767   11.9261 C   0  0  0  0  0  0  0  0  0  0  0  0
    1.1714  -12.9290   12.0627 C   0  0  0  0  0  0  0  0  0  0  0  0
    1.7303  -13.8049   11.4174 O   0  0  0  0  0  0  0  0  0  0  0  0
    2.5164  -11.1416   11.1619 N   0  0  0  0  0  0  0  0  0  0  0  0
    2.5091   -9.8323   11.3858 C   0  0  0  0  0  0  0  0  0  0  0  0
    1.5611   -9.5711   12.2894 N   0  0  0  0  0  0  0  0  0  0  0  0
  1  2  1  0  0  0  0
  1  6  1  0  0  0  0
  2  3  2  0  0  0  0
  3  4  1  0  0  0  0
  4  5  2  0  0  0  0
  4 10  1  0  0  0  0
  5  6  1  0  0  0  0
  5  8  1  0  0  0  0
  6  7  2  0  0  0  0
  8  9  1  0  0  0  0
  9 10  2  0  0  0  0
M  END
>  <CHROM.1>
1.18038136,-11.66832076,12.27005646,2.19863437,-0.72322804,-2.97173238

>  <Name>
ligand

>  <RI>
0

>  <Rbt.Current_Directory>
/home/itssahil/PROJECTS/Mol_Feturizer/Test_systems_manuscript/rnas/5c7w

>  <Rbt.Executable>
rbdock ($Id: //depot/dev/client3/rdock/2013.1/src/exe/rbdock.cxx#4 $)

>  <Rbt.Library>
libRbt.so (2013.1, Build901 2013/11/27)

>  <Rbt.Parameter_File>
/export/apps/rDock/src/rDock_2013.1_src/data/scripts/dock_solv.prm

>  <Rbt.Receptor>
prm/blind_docking_40.prm

>  <SCORE>
-14.8296

>  <SCORE.INTER>
-14.8296

>  <SCORE.INTER.CONST>
1

>  <SCORE.INTER.POLAR>
0

>  <SCORE.INTER.ROT>
0

>  <SCORE.INTER.SOLV>
3.36173

>  <SCORE.INTER.VDW>
-14.607

>  <SCORE.INTER.norm>
-1.48296

>  <SCORE.INTRA>
0

>  <SCORE.INTRA.DIHEDRAL>
0

>  <SCORE.INTRA.DIHEDRAL.0>
0

>  <SCORE.INTRA.POLAR>
0

>  <SCORE.INTRA.POLAR.0>
0

>  <SCORE.INTRA.REPUL>
0

>  <SCORE.INTRA.REPUL.0>
0

>  <SCORE.INTRA.SOLV>
0

>  <SCORE.INTRA.SOLV.lig_0>
-4.15853

>  <SCORE.INTRA.VDW>
0

>  <SCORE.INTRA.VDW.0>
0

>  <SCORE.INTRA.norm>
0

>  <SCORE.RESTR>
0

>  <SCORE.RESTR.CAVITY>
0

>  <SCORE.RESTR.norm>
0

>  <SCORE.SYSTEM>
0

>  <SCORE.SYSTEM.CONST>
0

>  <SCORE.SYSTEM.DIHEDRAL>
0

>  <SCORE.SYSTEM.SOLV>
0

>  <SCORE.SYSTEM.norm>
0

>  <SCORE.heavy>
10

>  <SCORE.norm>
-1.48296

>  <RMSD>
2.322

$$$$
ligand
 OpenBabel02271912153D
libRbt.so/2013.1/901 2013/11/27
 10 11  0  0  0  0  0  0  0  0999 V2000
    0.1220  -13.1841   12.9867 N   0  0  0  0  0  0  0  0  0  0  0  0
   -0.4794  -12.2351   13.6710 C   0  0  0  0  0  0  0  0  0  0  0  0
   -0.0320  -10.9179   13.5411 N   0  0  0  0  0  0  0  0  0  0  0  0
    0.9895  -10.6281   12.7387 C   0  0  0  0  0  0  0  0  0  0  0  0
    1.5925  -11.5829   12.0553 C   0  0  0  0  0  0  0  0  0  0  0  0
    1.1910  -12.8357   12.1646 C   0  0  0  0  0  0  0  0  0  0  0  0
    1.7690  -13.7056   11.5281 O   0  0  0  0  0  0  0  0  0  0  0  0
    2.5689  -11.0416   11.3290 N   0  0  0  0  0  0  0  0  0  0  0  0
    2.5571   -9.7349   11.5674 C   0  0  0  0  0  0  0  0  0  0  0  0
    1.5804   -9.4815   12.4422 N   0  0  0  0  0  0  0  0  0  0  0  0
  1  2  1  0  0  0  0
  1  6  1  0  0  0  0
  2  3  2  0  0  0  0
  3  4  1  0  0  0  0
  4  5  2  0  0  0  0
  4 10  1  0  0  0  0
  5  6  1  0  0  0  0
  5  8  1  0  0  0  0
  6  7  2  0  0  0  0
  8  9  1  0  0  0  0
  9 10  2  0  0  0  0
M  END
>  <CHROM.1>
1.19589139,-11.57741264,12.38642095,2.19420578,-0.69029530,-2.96324912

>  <Name>
ligand

>  <RI>
0

>  <Rbt.Current_Directory>
/home/itssahil/PROJECTS/Mol_Feturizer/Test_systems_manuscript/rnas/5c7w

>  <Rbt.Executable>
rbdock ($Id: //depot/dev/client3/rdock/2013.1/src/exe/rbdock.cxx#4 $)

>  <Rbt.Library>
libRbt.so (2013.1, Build901 2013/11/27)

>  <Rbt.Parameter_File>
/export/apps/rDock/src/rDock_2013.1_src/data/scripts/dock_solv.prm

>  <Rbt.Receptor>
prm/pocket_docking_4.prm

>  <SCORE>
-14.8454

>  <SCORE.INTER>
-14.8454

>  <SCORE.INTER.CONST>
1

>  <SCORE.INTER.POLAR>
0

>  <SCORE.INTER.ROT>
0

>  <SCORE.INTER.SOLV>
3.26031

>  <SCORE.INTER.VDW>
-14.5837

>  <SCORE.INTER.norm>
-1.48454

>  <SCORE.INTRA>
0

>  <SCORE.INTRA.DIHEDRAL>
0

>  <SCORE.INTRA.DIHEDRAL.0>
0

>  <SCORE.INTRA.POLAR>
0

>  <SCORE.INTRA.POLAR.0>
0

>  <SCORE.INTRA.REPUL>
0

>  <SCORE.INTRA.REPUL.0>
0

>  <SCORE.INTRA.SOLV>
0

>  <SCORE.INTRA.SOLV.lig_0>
-4.15853

>  <SCORE.INTRA.VDW>
0

>  <SCORE.INTRA.VDW.0>
0

>  <SCORE.INTRA.norm>
0

>  <SCORE.RESTR>
0

>  <SCORE.RESTR.CAVITY>
0

>  <SCORE.RESTR.norm>
0

>  <SCORE.SYSTEM>
0

>  <SCORE.SYSTEM.CONST>
0

>  <SCORE.SYSTEM.DIHEDRAL>
0

>  <SCORE.SYSTEM.SOLV>
0

>  <SCORE.SYSTEM.norm>
0

>  <SCORE.heavy>
10

>  <SCORE.norm>
-1.48454

>  <RMSD>
2.322

$$$$
ligand
 OpenBabel02271912153D
libRbt.so/2013.1/901 2013/11/27
 10 11  0  0  0  0  0  0  0  0999 V2000
    0.1236  -13.1850   12.9862 N   0  0  0  0  0  0  0  0  0  0  0  0
   -0.4757  -12.2365   13.6731 C   0  0  0  0  0  0  0  0  0  0  0  0
   -0.0288  -10.9193   13.5426 N   0  0  0  0  0  0  0  0  0  0  0  0
    0.9899  -10.6288   12.7369 C   0  0  0  0  0  0  0  0  0  0  0  0
    1.5907  -11.5831   12.0509 C   0  0  0  0  0  0  0  0  0  0  0  0
    1.1897  -12.8360   12.1608 C   0  0  0  0  0  0  0  0  0  0  0  0
    1.7656  -13.7055   11.5218 O   0  0  0  0  0  0  0  0  0  0  0  0
    2.5646  -11.0413   11.3217 N   0  0  0  0  0  0  0  0  0  0  0  0
    2.5535   -9.7347   11.5609 C   0  0  0  0  0  0  0  0  0  0  0  0
    1.5796   -9.4819   12.4391 N   0  0  0  0  0  0  0  0  0  0  0  0
  1  2  1  0  0  0  0
  1  6  1  0  0  0  0
  2  3  2  0  0  0  0
  3  4  1  0  0  0  0
  4  5  2  0  0  0  0
  4 10  1  0  0  0  0
  5  6  1  0  0  0  0
  5  8  1  0  0  0  0
  6  7  2  0  0  0  0
  8  9  1  0  0  0  0
  9 10  2  0  0  0  0
M  END
>  <CHROM.1>
1.19520766,-11.57788036,12.38336390,2.19483140,-0.69362213,-2.96224489

>  <Name>
ligand

>  <RI>
0

>  <Rbt.Current_Directory>
/home/itssahil/PROJECTS/Mol_Feturizer/Test_systems_manuscript/rnas/5c7w

>  <Rbt.Executable>
rbdock ($Id: //depot/dev/client3/rdock/2013.1/src/exe/rbdock.cxx#4 $)

>  <Rbt.Library>
libRbt.so (2013.1, Build901 2013/11/27)

>  <Rbt.Parameter_File>
/export/apps/rDock/src/rDock_2013.1_src/data/scripts/dock_solv.prm

>  <Rbt.Receptor>
prm/pocket_docking_5.prm

>  <SCORE>
-14.846

>  <SCORE.INTER>
-14.846

>  <SCORE.INTER.CONST>
1

>  <SCORE.INTER.POLAR>
0

>  <SCORE.INTER.ROT>
0

>  <SCORE.INTER.SOLV>
3.26668

>  <SCORE.INTER.VDW>
-14.5862

>  <SCORE.INTER.norm>
-1.4846

>  <SCORE.INTRA>
0

>  <SCORE.INTRA.DIHEDRAL>
0

>  <SCORE.INTRA.DIHEDRAL.0>
0

>  <SCORE.INTRA.POLAR>
0

>  <SCORE.INTRA.POLAR.0>
0

>  <SCORE.INTRA.REPUL>
0

>  <SCORE.INTRA.REPUL.0>
0

>  <SCORE.INTRA.SOLV>
0

>  <SCORE.INTRA.SOLV.lig_0>
-4.15853

>  <SCORE.INTRA.VDW>
0

>  <SCORE.INTRA.VDW.0>
0

>  <SCORE.INTRA.norm>
0

>  <SCORE.RESTR>
0

>  <SCORE.RESTR.CAVITY>
0

>  <SCORE.RESTR.norm>
0

>  <SCORE.SYSTEM>
0

>  <SCORE.SYSTEM.CONST>
0

>  <SCORE.SYSTEM.DIHEDRAL>
0

>  <SCORE.SYSTEM.SOLV>
0

>  <SCORE.SYSTEM.norm>
0

>  <SCORE.heavy>
10

>  <SCORE.norm>
-1.4846

>  <RMSD>
2.322

$$$$
ligand
 OpenBabel02271912153D
libRbt.so/2013.1/901 2013/11/27
 10 11  0  0  0  0  0  0  0  0999 V2000
    0.1443  -13.2745   12.9717 N   0  0  0  0  0  0  0  0  0  0  0  0
   -0.4698  -12.3170   13.6326 C   0  0  0  0  0  0  0  0  0  0  0  0
   -0.0531  -10.9954   13.4549 N   0  0  0  0  0  0  0  0  0  0  0  0
    0.9521  -10.7096   12.6308 C   0  0  0  0  0  0  0  0  0  0  0  0
    1.5679  -11.6728   11.9709 C   0  0  0  0  0  0  0  0  0  0  0  0
    1.1955  -12.9298   12.1254 C   0  0  0  0  0  0  0  0  0  0  0  0
    1.7849  -13.8072   11.5101 O   0  0  0  0  0  0  0  0  0  0  0  0
    2.5235  -11.1343   11.2154 N   0  0  0  0  0  0  0  0  0  0  0  0
    2.4857   -9.8211   11.4118 C   0  0  0  0  0  0  0  0  0  0  0  0
    1.5140   -9.5607   12.2902 N   0  0  0  0  0  0  0  0  0  0  0  0
  1  2  1  0  0  0  0
  1  6  1  0  0  0  0
  2  3  2  0  0  0  0
  3  4  1  0  0  0  0
  4  5  2  0  0  0  0
  4 10  1  0  0  0  0
  5  6  1  0  0  0  0
  5  8  1  0  0  0  0
  6  7  2  0  0  0  0
  8  9  1  0  0  0  0
  9 10  2  0  0  0  0
M  END
>  <CHROM.1>
1.17523895,-11.66518690,12.30665037,2.16842736,-0.70572228,-3.01210472

>  <Name>
ligand

>  <RI>
0

>  <Rbt.Current_Directory>
/home/itssahil/PROJECTS/Mol_Feturizer/Test_systems_manuscript/rnas/5c7w

>  <Rbt.Executable>
rbdock ($Id: //depot/dev/client3/rdock/2013.1/src/exe/rbdock.cxx#4 $)

>  <Rbt.Library>
libRbt.so (2013.1, Build901 2013/11/27)

>  <Rbt.Parameter_File>
/export/apps/rDock/src/rDock_2013.1_src/data/scripts/dock_solv.prm

>  <Rbt.Receptor>
prm/pocket_docking_5.prm

>  <SCORE>
-14.8427

>  <SCORE.INTER>
-14.8427

>  <SCORE.INTER.CONST>
1

>  <SCORE.INTER.POLAR>
0

>  <SCORE.INTER.ROT>
0

>  <SCORE.INTER.SOLV>
3.31684

>  <SCORE.INTER.VDW>
-14.6007

>  <SCORE.INTER.norm>
-1.48427

>  <SCORE.INTRA>
0

>  <SCORE.INTRA.DIHEDRAL>
0

>  <SCORE.INTRA.DIHEDRAL.0>
0

>  <SCORE.INTRA.POLAR>
0

>  <SCORE.INTRA.POLAR.0>
0

>  <SCORE.INTRA.REPUL>
0

>  <SCORE.INTRA.REPUL.0>
0

>  <SCORE.INTRA.SOLV>
0

>  <SCORE.INTRA.SOLV.lig_0>
-4.15853

>  <SCORE.INTRA.VDW>
0

>  <SCORE.INTRA.VDW.0>
0

>  <SCORE.INTRA.norm>
0

>  <SCORE.RESTR>
0

>  <SCORE.RESTR.CAVITY>
0

>  <SCORE.RESTR.norm>
0

>  <SCORE.SYSTEM>
0

>  <SCORE.SYSTEM.CONST>
0

>  <SCORE.SYSTEM.DIHEDRAL>
0

>  <SCORE.SYSTEM.SOLV>
0

>  <SCORE.SYSTEM.norm>
0

>  <SCORE.heavy>
10

>  <SCORE.norm>
-1.48427

>  <RMSD>
2.322

$$$$
ligand
 OpenBabel02271912153D
libRbt.so/2013.1/901 2013/11/27
 10 11  0  0  0  0  0  0  0  0999 V2000
    0.1406  -13.2677   12.9500 N   0  0  0  0  0  0  0  0  0  0  0  0
   -0.4441  -12.3086   13.6347 C   0  0  0  0  0  0  0  0  0  0  0  0
   -0.0113  -10.9915   13.4621 N   0  0  0  0  0  0  0  0  0  0  0  0
    0.9797  -10.7116   12.6191 C   0  0  0  0  0  0  0  0  0  0  0  0
    1.5661  -11.6765   11.9353 C   0  0  0  0  0  0  0  0  0  0  0  0
    1.1781  -12.9294   12.0844 C   0  0  0  0  0  0  0  0  0  0  0  0
    1.7404  -13.8086   11.4467 O   0  0  0  0  0  0  0  0  0  0  0  0
    2.5129  -11.1440   11.1647 N   0  0  0  0  0  0  0  0  0  0  0  0
    2.4995   -9.8327   11.3761 C   0  0  0  0  0  0  0  0  0  0  0  0
    1.5515   -9.5676   12.2786 N   0  0  0  0  0  0  0  0  0  0  0  0
  1  2  1  0  0  0  0
  1  6  1  0  0  0  0
  2  3  2  0  0  0  0
  3  4  1  0  0  0  0
  4  5  2  0  0  0  0
  4 10  1  0  0  0  0
  5  6  1  0  0  0  0
  5  8  1  0  0  0  0
  6  7  2  0  0  0  0
  8  9  1  0  0  0  0
  9 10  2  0  0  0  0
M  END
>  <CHROM.1>
1.18109211,-11.66678588,12.27973111,2.19244694,-0.72542693,-2.98534814

>  <Name>
ligand

>  <RI>
0

>  <Rbt.Current_Directory>
/home/itssahil/PROJECTS/Mol_Feturizer/Test_systems_manuscript/rnas/5c7w

>  <Rbt.Executable>
rbdock ($Id: //depot/dev/client3/rdock/2013.1/src/exe/rbdock.cxx#4 $)

>  <Rbt.Library>
libRbt.so (2013.1, Build901 2013/11/27)

>  <Rbt.Parameter_File>
/export/apps/rDock/src/rDock_2013.1_src/data/scripts/dock_solv.prm

>  <Rbt.Receptor>
prm/pocket_docking_8.prm

>  <SCORE>
-14.8798

>  <SCORE.INTER>
-14.8798

>  <SCORE.INTER.CONST>
1

>  <SCORE.INTER.POLAR>
0

>  <SCORE.INTER.ROT>
0

>  <SCORE.INTER.SOLV>
3.3578

>  <SCORE.INTER.VDW>
-14.6391

>  <SCORE.INTER.norm>
-1.48798

>  <SCORE.INTRA>
0

>  <SCORE.INTRA.DIHEDRAL>
0

>  <SCORE.INTRA.DIHEDRAL.0>
0

>  <SCORE.INTRA.POLAR>
0

>  <SCORE.INTRA.POLAR.0>
0

>  <SCORE.INTRA.REPUL>
0

>  <SCORE.INTRA.REPUL.0>
0

>  <SCORE.INTRA.SOLV>
0

>  <SCORE.INTRA.SOLV.lig_0>
-4.15853

>  <SCORE.INTRA.VDW>
0

>  <SCORE.INTRA.VDW.0>
0

>  <SCORE.INTRA.norm>
0

>  <SCORE.RESTR>
0

>  <SCORE.RESTR.CAVITY>
0

>  <SCORE.RESTR.norm>
0

>  <SCORE.SYSTEM>
0

>  <SCORE.SYSTEM.CONST>
0

>  <SCORE.SYSTEM.DIHEDRAL>
0

>  <SCORE.SYSTEM.SOLV>
0

>  <SCORE.SYSTEM.norm>
0

>  <SCORE.heavy>
10

>  <SCORE.norm>
-1.48798

>  <RMSD>
2.322

$$$$
ligand
 OpenBabel02271912153D
libRbt.so/2013.1/901 2013/11/27
 10 11  0  0  0  0  0  0  0  0999 V2000
    0.1385  -13.3568   12.9774 N   0  0  0  0  0  0  0  0  0  0  0  0
   -0.4530  -12.3958   13.6536 C   0  0  0  0  0  0  0  0  0  0  0  0
   -0.0280  -11.0775   13.4711 N   0  0  0  0  0  0  0  0  0  0  0  0
    0.9626  -10.7984   12.6272 C   0  0  0  0  0  0  0  0  0  0  0  0
    1.5558  -11.7652   11.9521 C   0  0  0  0  0  0  0  0  0  0  0  0
    1.1752  -13.0192   12.1107 C   0  0  0  0  0  0  0  0  0  0  0  0
    1.7437  -13.9000   11.4808 O   0  0  0  0  0  0  0  0  0  0  0  0
    2.5005  -11.2331   11.1786 N   0  0  0  0  0  0  0  0  0  0  0  0
    2.4789   -9.9203   11.3794 C   0  0  0  0  0  0  0  0  0  0  0  0
    1.5279   -9.6537   12.2784 N   0  0  0  0  0  0  0  0  0  0  0  0
  1  2  1  0  0  0  0
  1  6  1  0  0  0  0
  2  3  2  0  0  0  0
  3  4  1  0  0  0  0
  4  5  2  0  0  0  0
  4 10  1  0  0  0  0
  5  6  1  0  0  0  0
  5  8  1  0  0  0  0
  6  7  2  0  0  0  0
  8  9  1  0  0  0  0
  9 10  2  0  0  0  0
M  END
>  <CHROM.1>
1.17024517,-11.75501982,12.29586110,2.18414461,-0.72489209,-2.99887338

>  <Name>
ligand

>  <RI>
0

>  <Rbt.Current_Directory>
/home/itssahil/PROJECTS/Mol_Feturizer/Test_systems_manuscript/rnas/5c7w

>  <Rbt.Executable>
rbdock ($Id: //depot/dev/client3/rdock/2013.1/src/exe/rbdock.cxx#4 $)

>  <Rbt.Library>
libRbt.so (2013.1, Build901 2013/11/27)

>  <Rbt.Parameter_File>
/export/apps/rDock/src/rDock_2013.1_src/data/scripts/dock_solv.prm

>  <Rbt.Receptor>
prm/blind_docking_40.prm

>  <SCORE>
-14.8668

>  <SCORE.INTER>
-14.8668

>  <SCORE.INTER.CONST>
1

>  <SCORE.INTER.POLAR>
0

>  <SCORE.INTER.ROT>
0

>  <SCORE.INTER.SOLV>
3.34196

>  <SCORE.INTER.VDW>
-14.6252

>  <SCORE.INTER.norm>
-1.48668

>  <SCORE.INTRA>
0

>  <SCORE.INTRA.DIHEDRAL>
0

>  <SCORE.INTRA.DIHEDRAL.0>
0

>  <SCORE.INTRA.POLAR>
0

>  <SCORE.INTRA.POLAR.0>
0

>  <SCORE.INTRA.REPUL>
0

>  <SCORE.INTRA.REPUL.0>
0

>  <SCORE.INTRA.SOLV>
0

>  <SCORE.INTRA.SOLV.lig_0>
-4.15853

>  <SCORE.INTRA.VDW>
0

>  <SCORE.INTRA.VDW.0>
0

>  <SCORE.INTRA.norm>
0

>  <SCORE.RESTR>
0

>  <SCORE.RESTR.CAVITY>
0

>  <SCORE.RESTR.norm>
0

>  <SCORE.SYSTEM>
0

>  <SCORE.SYSTEM.CONST>
0

>  <SCORE.SYSTEM.DIHEDRAL>
0

>  <SCORE.SYSTEM.SOLV>
0

>  <SCORE.SYSTEM.norm>
0

>  <SCORE.heavy>
10

>  <SCORE.norm>
-1.48668

>  <RMSD>
2.323

$$$$
ligand
 OpenBabel02271912153D
libRbt.so/2013.1/901 2013/11/27
 10 11  0  0  0  0  0  0  0  0999 V2000
    0.1328  -13.3574   12.9585 N   0  0  0  0  0  0  0  0  0  0  0  0
   -0.4454  -12.3969   13.6467 C   0  0  0  0  0  0  0  0  0  0  0  0
   -0.0144  -11.0801   13.4673 N   0  0  0  0  0  0  0  0  0  0  0  0
    0.9687  -10.8020   12.6144 C   0  0  0  0  0  0  0  0  0  0  0  0
    1.5486  -11.7682   11.9272 C   0  0  0  0  0  0  0  0  0  0  0  0
    1.1621  -13.0209   12.0825 C   0  0  0  0  0  0  0  0  0  0  0  0
    1.7184  -13.9014   11.4413 O   0  0  0  0  0  0  0  0  0  0  0  0
    2.4882  -11.2373   11.1466 N   0  0  0  0  0  0  0  0  0  0  0  0
    2.4767   -9.9256   11.3554 C   0  0  0  0  0  0  0  0  0  0  0  0
    1.5372   -9.6586   12.2662 N   0  0  0  0  0  0  0  0  0  0  0  0
  1  2  1  0  0  0  0
  1  6  1  0  0  0  0
  2  3  2  0  0  0  0
  3  4  1  0  0  0  0
  4  5  2  0  0  0  0
  4 10  1  0  0  0  0
  5  6  1  0  0  0  0
  5  8  1  0  0  0  0
  6  7  2  0  0  0  0
  8  9  1  0  0  0  0
  9 10  2  0  0  0  0
M  END
>  <CHROM.1>
1.16690117,-11.75780587,12.27517954,2.19437118,-0.73472297,-2.98611442

>  <Name>
ligand

>  <RI>
0

>  <Rbt.Current_Directory>
/home/itssahil/PROJECTS/Mol_Feturizer/Test_systems_manuscript/rnas/5c7w

>  <Rbt.Executable>
rbdock ($Id: //depot/dev/client3/rdock/2013.1/src/exe/rbdock.cxx#4 $)

>  <Rbt.Library>
libRbt.so (2013.1, Build901 2013/11/27)

>  <Rbt.Parameter_File>
/export/apps/rDock/src/rDock_2013.1_src/data/scripts/dock_solv.prm

>  <Rbt.Receptor>
prm/blind_docking_60.prm

>  <SCORE>
-14.838

>  <SCORE.INTER>
-14.838

>  <SCORE.INTER.CONST>
1

>  <SCORE.INTER.POLAR>
0

>  <SCORE.INTER.ROT>
0

>  <SCORE.INTER.SOLV>
3.36712

>  <SCORE.INTER.VDW>
-14.6144

>  <SCORE.INTER.norm>
-1.4838

>  <SCORE.INTRA>
0

>  <SCORE.INTRA.DIHEDRAL>
0

>  <SCORE.INTRA.DIHEDRAL.0>
0

>  <SCORE.INTRA.POLAR>
0

>  <SCORE.INTRA.POLAR.0>
0

>  <SCORE.INTRA.REPUL>
0

>  <SCORE.INTRA.REPUL.0>
0

>  <SCORE.INTRA.SOLV>
0

>  <SCORE.INTRA.SOLV.lig_0>
-4.15853

>  <SCORE.INTRA.VDW>
0

>  <SCORE.INTRA.VDW.0>
0

>  <SCORE.INTRA.norm>
0

>  <SCORE.RESTR>
0

>  <SCORE.RESTR.CAVITY>
0

>  <SCORE.RESTR.norm>
0

>  <SCORE.SYSTEM>
0

>  <SCORE.SYSTEM.CONST>
0

>  <SCORE.SYSTEM.DIHEDRAL>
0

>  <SCORE.SYSTEM.SOLV>
0

>  <SCORE.SYSTEM.norm>
0

>  <SCORE.heavy>
10

>  <SCORE.norm>
-1.4838

>  <RMSD>
2.323

$$$$
ligand
 OpenBabel02271912153D
libRbt.so/2013.1/901 2013/11/27
 10 11  0  0  0  0  0  0  0  0999 V2000
    0.1054  -13.1095   12.9803 N   0  0  0  0  0  0  0  0  0  0  0  0
   -0.4916  -12.1507   13.6548 C   0  0  0  0  0  0  0  0  0  0  0  0
   -0.0326  -10.8382   13.5178 N   0  0  0  0  0  0  0  0  0  0  0  0
    0.9952  -10.5625   12.7185 C   0  0  0  0  0  0  0  0  0  0  0  0
    1.5937  -11.5272   12.0450 C   0  0  0  0  0  0  0  0  0  0  0  0
    1.1813  -12.7758   12.1612 C   0  0  0  0  0  0  0  0  0  0  0  0
    1.7552  -13.6550   11.5339 O   0  0  0  0  0  0  0  0  0  0  0  0
    2.5782  -10.9992   11.3199 N   0  0  0  0  0  0  0  0  0  0  0  0
    2.5761   -9.6908   11.5489 C   0  0  0  0  0  0  0  0  0  0  0  0
    1.5971   -9.4231   12.4169 N   0  0  0  0  0  0  0  0  0  0  0  0
  1  2  1  0  0  0  0
  1  6  1  0  0  0  0
  2  3  2  0  0  0  0
  3  4  1  0  0  0  0
  4  5  2  0  0  0  0
  4 10  1  0  0  0  0
  5  6  1  0  0  0  0
  5  8  1  0  0  0  0
  6  7  2  0  0  0  0
  8  9  1  0  0  0  0
  9 10  2  0  0  0  0
M  END
>  <CHROM.1>
1.19553410,-11.51607466,12.37409354,2.20360480,-0.68386865,-2.96442692

>  <Name>
ligand

>  <RI>
0

>  <Rbt.Current_Directory>
/home/itssahil/PROJECTS/Mol_Feturizer/Test_systems_manuscript/rnas/5c7w

>  <Rbt.Executable>
rbdock ($Id: //depot/dev/client3/rdock/2013.1/src/exe/rbdock.cxx#4 $)

>  <Rbt.Library>
libRbt.so (2013.1, Build901 2013/11/27)

>  <Rbt.Parameter_File>
/export/apps/rDock/src/rDock_2013.1_src/data/scripts/dock_solv.prm

>  <Rbt.Receptor>
prm/blind_docking_80.prm

>  <SCORE>
-14.873

>  <SCORE.INTER>
-14.873

>  <SCORE.INTER.CONST>
1

>  <SCORE.INTER.POLAR>
0

>  <SCORE.INTER.ROT>
0

>  <SCORE.INTER.SOLV>
3.22304

>  <SCORE.INTER.VDW>
-14.5897

>  <SCORE.INTER.norm>
-1.4873

>  <SCORE.INTRA>
0

>  <SCORE.INTRA.DIHEDRAL>
0

>  <SCORE.INTRA.DIHEDRAL.0>
0

>  <SCORE.INTRA.POLAR>
0

>  <SCORE.INTRA.POLAR.0>
0

>  <SCORE.INTRA.REPUL>
0

>  <SCORE.INTRA.REPUL.0>
0

>  <SCORE.INTRA.SOLV>
0

>  <SCORE.INTRA.SOLV.lig_0>
-4.15853

>  <SCORE.INTRA.VDW>
0

>  <SCORE.INTRA.VDW.0>
0

>  <SCORE.INTRA.norm>
0

>  <SCORE.RESTR>
0

>  <SCORE.RESTR.CAVITY>
0

>  <SCORE.RESTR.norm>
0

>  <SCORE.SYSTEM>
0

>  <SCORE.SYSTEM.CONST>
0

>  <SCORE.SYSTEM.DIHEDRAL>
0

>  <SCORE.SYSTEM.SOLV>
0

>  <SCORE.SYSTEM.norm>
0

>  <SCORE.heavy>
10

>  <SCORE.norm>
-1.4873

>  <RMSD>
2.324

$$$$
ligand
 OpenBabel02271912153D
libRbt.so/2013.1/901 2013/11/27
 10 11  0  0  0  0  0  0  0  0999 V2000
    0.1117  -13.1166   12.9768 N   0  0  0  0  0  0  0  0  0  0  0  0
   -0.4907  -12.1638   13.6549 C   0  0  0  0  0  0  0  0  0  0  0  0
   -0.0409  -10.8479   13.5210 N   0  0  0  0  0  0  0  0  0  0  0  0
    0.9838  -10.5629   12.7209 C   0  0  0  0  0  0  0  0  0  0  0  0
    1.5877  -11.5216   12.0437 C   0  0  0  0  0  0  0  0  0  0  0  0
    1.1841  -12.7733   12.1570 C   0  0  0  0  0  0  0  0  0  0  0  0
    1.7630  -13.6468   11.5263 O   0  0  0  0  0  0  0  0  0  0  0  0
    2.5675  -10.9848   11.3186 N   0  0  0  0  0  0  0  0  0  0  0  0
    2.5568   -9.6771   11.5514 C   0  0  0  0  0  0  0  0  0  0  0  0
    1.5774   -9.4185   12.4216 N   0  0  0  0  0  0  0  0  0  0  0  0
  1  2  1  0  0  0  0
  1  6  1  0  0  0  0
  2  3  2  0  0  0  0
  3  4  1  0  0  0  0
  4  5  2  0  0  0  0
  4 10  1  0  0  0  0
  5  6  1  0  0  0  0
  5  8  1  0  0  0  0
  6  7  2  0  0  0  0
  8  9  1  0  0  0  0
  9 10  2  0  0  0  0
M  END
>  <CHROM.1>
1.19001528,-11.51411240,12.37345362,2.19527358,-0.68658186,-2.96686617

>  <Name>
ligand

>  <RI>
0

>  <Rbt.Current_Directory>
/home/itssahil/PROJECTS/Mol_Feturizer/Test_systems_manuscript/rnas/5c7w

>  <Rbt.Executable>
rbdock ($Id: //depot/dev/client3/rdock/2013.1/src/exe/rbdock.cxx#4 $)

>  <Rbt.Library>
libRbt.so (2013.1, Build901 2013/11/27)

>  <Rbt.Parameter_File>
/export/apps/rDock/src/rDock_2013.1_src/data/scripts/dock_solv.prm

>  <Rbt.Receptor>
prm/pocket_docking_6.prm

>  <SCORE>
-14.8735

>  <SCORE.INTER>
-14.8735

>  <SCORE.INTER.CONST>
1

>  <SCORE.INTER.POLAR>
0

>  <SCORE.INTER.ROT>
0

>  <SCORE.INTER.SOLV>
3.23925

>  <SCORE.INTER.VDW>
-14.5954

>  <SCORE.INTER.norm>
-1.48735

>  <SCORE.INTRA>
0

>  <SCORE.INTRA.DIHEDRAL>
0

>  <SCORE.INTRA.DIHEDRAL.0>
0

>  <SCORE.INTRA.POLAR>
0

>  <SCORE.INTRA.POLAR.0>
0

>  <SCORE.INTRA.REPUL>
0

>  <SCORE.INTRA.REPUL.0>
0

>  <SCORE.INTRA.SOLV>
0

>  <SCORE.INTRA.SOLV.lig_0>
-4.15853

>  <SCORE.INTRA.VDW>
0

>  <SCORE.INTRA.VDW.0>
0

>  <SCORE.INTRA.norm>
0

>  <SCORE.RESTR>
0

>  <SCORE.RESTR.CAVITY>
0

>  <SCORE.RESTR.norm>
0

>  <SCORE.SYSTEM>
0

>  <SCORE.SYSTEM.CONST>
0

>  <SCORE.SYSTEM.DIHEDRAL>
0

>  <SCORE.SYSTEM.SOLV>
0

>  <SCORE.SYSTEM.norm>
0

>  <SCORE.heavy>
10

>  <SCORE.norm>
-1.48735

>  <RMSD>
2.324

$$$$
ligand
 OpenBabel02271912153D
libRbt.so/2013.1/901 2013/11/27
 10 11  0  0  0  0  0  0  0  0999 V2000
    0.1157  -13.1168   12.9827 N   0  0  0  0  0  0  0  0  0  0  0  0
   -0.4878  -12.1600   13.6541 C   0  0  0  0  0  0  0  0  0  0  0  0
   -0.0355  -10.8454   13.5157 N   0  0  0  0  0  0  0  0  0  0  0  0
    0.9925  -10.5657   12.7180 C   0  0  0  0  0  0  0  0  0  0  0  0
    1.5975  -11.5284   12.0475 C   0  0  0  0  0  0  0  0  0  0  0  0
    1.1916  -12.7790   12.1652 C   0  0  0  0  0  0  0  0  0  0  0  0
    1.7715  -13.6563   11.5408 O   0  0  0  0  0  0  0  0  0  0  0  0
    2.5808  -10.9965   11.3235 N   0  0  0  0  0  0  0  0  0  0  0  0
    2.5712   -9.6877   11.5501 C   0  0  0  0  0  0  0  0  0  0  0  0
    1.5889   -9.4236   12.4155 N   0  0  0  0  0  0  0  0  0  0  0  0
  1  2  1  0  0  0  0
  1  6  1  0  0  0  0
  2  3  2  0  0  0  0
  3  4  1  0  0  0  0
  4  5  2  0  0  0  0
  4 10  1  0  0  0  0
  5  6  1  0  0  0  0
  5  8  1  0  0  0  0
  6  7  2  0  0  0  0
  8  9  1  0  0  0  0
  9 10  2  0  0  0  0
M  END
>  <CHROM.1>
1.19861634,-11.51879032,12.37577896,2.19636157,-0.68271713,-2.97087787

>  <Name>
ligand

>  <RI>
0

>  <Rbt.Current_Directory>
/home/itssahil/PROJECTS/Mol_Feturizer/Test_systems_manuscript/rnas/5c7w

>  <Rbt.Executable>
rbdock ($Id: //depot/dev/client3/rdock/2013.1/src/exe/rbdock.cxx#4 $)

>  <Rbt.Library>
libRbt.so (2013.1, Build901 2013/11/27)

>  <Rbt.Parameter_File>
/export/apps/rDock/src/rDock_2013.1_src/data/scripts/dock_solv.prm

>  <Rbt.Receptor>
prm/pocket_docking_6.prm

>  <SCORE>
-14.8744

>  <SCORE.INTER>
-14.8744

>  <SCORE.INTER.CONST>
1

>  <SCORE.INTER.POLAR>
0

>  <SCORE.INTER.ROT>
0

>  <SCORE.INTER.SOLV>
3.22773

>  <SCORE.INTER.VDW>
-14.5922

>  <SCORE.INTER.norm>
-1.48744

>  <SCORE.INTRA>
0

>  <SCORE.INTRA.DIHEDRAL>
0

>  <SCORE.INTRA.DIHEDRAL.0>
0

>  <SCORE.INTRA.POLAR>
0

>  <SCORE.INTRA.POLAR.0>
0

>  <SCORE.INTRA.REPUL>
0

>  <SCORE.INTRA.REPUL.0>
0

>  <SCORE.INTRA.SOLV>
0

>  <SCORE.INTRA.SOLV.lig_0>
-4.15853

>  <SCORE.INTRA.VDW>
0

>  <SCORE.INTRA.VDW.0>
0

>  <SCORE.INTRA.norm>
0

>  <SCORE.RESTR>
0

>  <SCORE.RESTR.CAVITY>
0

>  <SCORE.RESTR.norm>
0

>  <SCORE.SYSTEM>
0

>  <SCORE.SYSTEM.CONST>
0

>  <SCORE.SYSTEM.DIHEDRAL>
0

>  <SCORE.SYSTEM.SOLV>
0

>  <SCORE.SYSTEM.norm>
0

>  <SCORE.heavy>
10

>  <SCORE.norm>
-1.48744

>  <RMSD>
2.325

$$$$
ligand
 OpenBabel02271912153D
libRbt.so/2013.1/901 2013/11/27
 10 11  0  0  0  0  0  0  0  0999 V2000
    1.9758  -13.2478   11.0695 N   0  0  0  0  0  0  0  0  0  0  0  0
    1.2971  -14.2658   11.5529 C   0  0  0  0  0  0  0  0  0  0  0  0
    0.2950  -14.0259   12.4963 N   0  0  0  0  0  0  0  0  0  0  0  0
    0.0327  -12.7858   12.9020 C   0  0  0  0  0  0  0  0  0  0  0  0
    0.7172  -11.7667   12.4170 C   0  0  0  0  0  0  0  0  0  0  0  0
    1.6720  -11.9682   11.5279 C   0  0  0  0  0  0  0  0  0  0  0  0
    2.2989  -11.0103   11.0974 O   0  0  0  0  0  0  0  0  0  0  0  0
    0.2658  -10.6425   12.9703 N   0  0  0  0  0  0  0  0  0  0  0  0
   -0.7144  -10.9799   13.8008 C   0  0  0  0  0  0  0  0  0  0  0  0
   -0.8553  -12.3073   13.7589 N   0  0  0  0  0  0  0  0  0  0  0  0
  1  2  1  0  0  0  0
  1  6  1  0  0  0  0
  2  3  2  0  0  0  0
  3  4  1  0  0  0  0
  4  5  2  0  0  0  0
  4 10  1  0  0  0  0
  5  6  1  0  0  0  0
  5  8  1  0  0  0  0
  6  7  2  0  0  0  0
  8  9  1  0  0  0  0
  9 10  2  0  0  0  0
M  END
>  <CHROM.1>
0.73000360,-12.27651653,12.33415655,0.46238789,-0.72886438,-3.00783158

>  <Name>
ligand

>  <RI>
0

>  <Rbt.Current_Directory>
/home/itssahil/PROJECTS/Mol_Feturizer/Test_systems_manuscript/rnas/5c7w

>  <Rbt.Executable>
rbdock ($Id: //depot/dev/client3/rdock/2013.1/src/exe/rbdock.cxx#4 $)

>  <Rbt.Library>
libRbt.so (2013.1, Build901 2013/11/27)

>  <Rbt.Parameter_File>
/export/apps/rDock/src/rDock_2013.1_src/data/scripts/dock_solv.prm

>  <Rbt.Receptor>
prm/blind_docking_60.prm

>  <SCORE>
-13.2751

>  <SCORE.INTER>
-13.2751

>  <SCORE.INTER.CONST>
1

>  <SCORE.INTER.POLAR>
0

>  <SCORE.INTER.ROT>
0

>  <SCORE.INTER.SOLV>
3.25224

>  <SCORE.INTER.VDW>
-13.5341

>  <SCORE.INTER.norm>
-1.32751

>  <SCORE.INTRA>
0

>  <SCORE.INTRA.DIHEDRAL>
0

>  <SCORE.INTRA.DIHEDRAL.0>
0

>  <SCORE.INTRA.POLAR>
0

>  <SCORE.INTRA.POLAR.0>
0

>  <SCORE.INTRA.REPUL>
0

>  <SCORE.INTRA.REPUL.0>
0

>  <SCORE.INTRA.SOLV>
0

>  <SCORE.INTRA.SOLV.lig_0>
-4.15853

>  <SCORE.INTRA.VDW>
0

>  <SCORE.INTRA.VDW.0>
0

>  <SCORE.INTRA.norm>
0

>  <SCORE.RESTR>
0

>  <SCORE.RESTR.CAVITY>
0

>  <SCORE.RESTR.norm>
0

>  <SCORE.SYSTEM>
0

>  <SCORE.SYSTEM.CONST>
0

>  <SCORE.SYSTEM.DIHEDRAL>
0

>  <SCORE.SYSTEM.SOLV>
0

>  <SCORE.SYSTEM.norm>
0

>  <SCORE.heavy>
10

>  <SCORE.norm>
-1.32751

>  <RMSD>
2.805

$$$$
ligand
 OpenBabel02271912153D
libRbt.so/2013.1/901 2013/11/27
 10 11  0  0  0  0  0  0  0  0999 V2000
    2.0011  -13.2724   11.0824 N   0  0  0  0  0  0  0  0  0  0  0  0
    1.3071  -14.2978   11.5267 C   0  0  0  0  0  0  0  0  0  0  0  0
    0.2845  -14.0747   12.4521 N   0  0  0  0  0  0  0  0  0  0  0  0
    0.0181  -12.8428   12.8798 C   0  0  0  0  0  0  0  0  0  0  0  0
    0.7179  -11.8162   12.4339 C   0  0  0  0  0  0  0  0  0  0  0  0
    1.6921  -12.0020   11.5627 C   0  0  0  0  0  0  0  0  0  0  0  0
    2.3328  -11.0376   11.1687 O   0  0  0  0  0  0  0  0  0  0  0  0
    0.2585  -10.7027   13.0022 N   0  0  0  0  0  0  0  0  0  0  0  0
   -0.7420  -11.0543   13.8021 C   0  0  0  0  0  0  0  0  0  0  0  0
   -0.8874  -12.3797   13.7267 N   0  0  0  0  0  0  0  0  0  0  0  0
  1  2  1  0  0  0  0
  1  6  1  0  0  0  0
  2  3  2  0  0  0  0
  3  4  1  0  0  0  0
  4  5  2  0  0  0  0
  4 10  1  0  0  0  0
  5  6  1  0  0  0  0
  5  8  1  0  0  0  0
  6  7  2  0  0  0  0
  8  9  1  0  0  0  0
  9 10  2  0  0  0  0
M  END
>  <CHROM.1>
0.73043750,-12.32413091,12.33986275,0.46377682,-0.70541150,-2.98420070

>  <Name>
ligand

>  <RI>
0

>  <Rbt.Current_Directory>
/home/itssahil/PROJECTS/Mol_Feturizer/Test_systems_manuscript/rnas/5c7w

>  <Rbt.Executable>
rbdock ($Id: //depot/dev/client3/rdock/2013.1/src/exe/rbdock.cxx#4 $)

>  <Rbt.Library>
libRbt.so (2013.1, Build901 2013/11/27)

>  <Rbt.Parameter_File>
/export/apps/rDock/src/rDock_2013.1_src/data/scripts/dock_solv.prm

>  <Rbt.Receptor>
prm/blind_docking_100.prm

>  <SCORE>
-13.218

>  <SCORE.INTER>
-13.218

>  <SCORE.INTER.CONST>
1

>  <SCORE.INTER.POLAR>
0

>  <SCORE.INTER.ROT>
0

>  <SCORE.INTER.SOLV>
3.20797

>  <SCORE.INTER.VDW>
-13.4814

>  <SCORE.INTER.norm>
-1.3218

>  <SCORE.INTRA>
0

>  <SCORE.INTRA.DIHEDRAL>
0

>  <SCORE.INTRA.DIHEDRAL.0>
0

>  <SCORE.INTRA.POLAR>
0

>  <SCORE.INTRA.POLAR.0>
0

>  <SCORE.INTRA.REPUL>
0

>  <SCORE.INTRA.REPUL.0>
0

>  <SCORE.INTRA.SOLV>
0

>  <SCORE.INTRA.SOLV.lig_0>
-4.15853

>  <SCORE.INTRA.VDW>
0

>  <SCORE.INTRA.VDW.0>
0

>  <SCORE.INTRA.norm>
0

>  <SCORE.RESTR>
0

>  <SCORE.RESTR.CAVITY>
0

>  <SCORE.RESTR.norm>
0

>  <SCORE.SYSTEM>
0

>  <SCORE.SYSTEM.CONST>
0

>  <SCORE.SYSTEM.DIHEDRAL>
0

>  <SCORE.SYSTEM.SOLV>
0

>  <SCORE.SYSTEM.norm>
0

>  <SCORE.heavy>
10

>  <SCORE.norm>
-1.3218

>  <RMSD>
2.822

$$$$
ligand
 OpenBabel02271912153D
libRbt.so/2013.1/901 2013/11/27
 10 11  0  0  0  0  0  0  0  0999 V2000
    1.5056   -9.5998   12.3495 N   0  0  0  0  0  0  0  0  0  0  0  0
    2.4574   -9.7406   11.4523 C   0  0  0  0  0  0  0  0  0  0  0  0
    2.7048  -11.0081   10.9194 N   0  0  0  0  0  0  0  0  0  0  0  0
    1.9896  -12.0583   11.3156 C   0  0  0  0  0  0  0  0  0  0  0  0
    1.0369  -11.9142   12.2178 C   0  0  0  0  0  0  0  0  0  0  0  0
    0.7872  -10.7275   12.7394 C   0  0  0  0  0  0  0  0  0  0  0  0
   -0.0949  -10.6182   13.5795 O   0  0  0  0  0  0  0  0  0  0  0  0
    0.4697  -13.0990   12.4378 N   0  0  0  0  0  0  0  0  0  0  0  0
    1.0809  -13.9787   11.6524 C   0  0  0  0  0  0  0  0  0  0  0  0
    2.0231  -13.3328   10.9605 N   0  0  0  0  0  0  0  0  0  0  0  0
  1  2  1  0  0  0  0
  1  6  1  0  0  0  0
  2  3  2  0  0  0  0
  3  4  1  0  0  0  0
  4  5  2  0  0  0  0
  4 10  1  0  0  0  0
  5  6  1  0  0  0  0
  5  8  1  0  0  0  0
  6  7  2  0  0  0  0
  8  9  1  0  0  0  0
  9 10  2  0  0  0  0
M  END
>  <CHROM.1>
1.36791668,-11.58702774,11.99339107,-1.60675066,-0.72626427,-2.89800262

>  <Name>
ligand

>  <RI>
0

>  <Rbt.Current_Directory>
/home/itssahil/PROJECTS/Mol_Feturizer/Test_systems_manuscript/rnas/5c7w

>  <Rbt.Executable>
rbdock ($Id: //depot/dev/client3/rdock/2013.1/src/exe/rbdock.cxx#4 $)

>  <Rbt.Library>
libRbt.so (2013.1, Build901 2013/11/27)

>  <Rbt.Parameter_File>
/export/apps/rDock/src/rDock_2013.1_src/data/scripts/dock_solv.prm

>  <Rbt.Receptor>
prm/blind_docking_20.prm

>  <SCORE>
-14.2087

>  <SCORE.INTER>
-14.2087

>  <SCORE.INTER.CONST>
1

>  <SCORE.INTER.POLAR>
0

>  <SCORE.INTER.ROT>
0

>  <SCORE.INTER.SOLV>
3.30462

>  <SCORE.INTER.VDW>
-14.174

>  <SCORE.INTER.norm>
-1.42087

>  <SCORE.INTRA>
0

>  <SCORE.INTRA.DIHEDRAL>
0

>  <SCORE.INTRA.DIHEDRAL.0>
0

>  <SCORE.INTRA.POLAR>
0

>  <SCORE.INTRA.POLAR.0>
0

>  <SCORE.INTRA.REPUL>
0

>  <SCORE.INTRA.REPUL.0>
0

>  <SCORE.INTRA.SOLV>
0

>  <SCORE.INTRA.SOLV.lig_0>
-4.15853

>  <SCORE.INTRA.VDW>
0

>  <SCORE.INTRA.VDW.0>
0

>  <SCORE.INTRA.norm>
0

>  <SCORE.RESTR>
0

>  <SCORE.RESTR.CAVITY>
0

>  <SCORE.RESTR.norm>
0

>  <SCORE.SYSTEM>
0

>  <SCORE.SYSTEM.CONST>
0

>  <SCORE.SYSTEM.DIHEDRAL>
0

>  <SCORE.SYSTEM.SOLV>
0

>  <SCORE.SYSTEM.norm>
0

>  <SCORE.heavy>
10

>  <SCORE.norm>
-1.42087

>  <RMSD>
2.926

$$$$
ligand
 OpenBabel02271912153D
libRbt.so/2013.1/901 2013/11/27
 10 11  0  0  0  0  0  0  0  0999 V2000
    2.6028  -10.8551   11.1150 N   0  0  0  0  0  0  0  0  0  0  0  0
    2.7103  -12.1339   10.8254 C   0  0  0  0  0  0  0  0  0  0  0  0
    1.8526  -13.0444   11.4477 N   0  0  0  0  0  0  0  0  0  0  0  0
    0.9419  -12.6244   12.3226 C   0  0  0  0  0  0  0  0  0  0  0  0
    0.8382  -11.3409   12.6128 C   0  0  0  0  0  0  0  0  0  0  0  0
    1.6401  -10.4617   12.0414 C   0  0  0  0  0  0  0  0  0  0  0  0
    1.5317   -9.2783   12.3307 O   0  0  0  0  0  0  0  0  0  0  0  0
   -0.1413  -11.1780   13.5005 N   0  0  0  0  0  0  0  0  0  0  0  0
   -0.6481  -12.3801   13.7507 C   0  0  0  0  0  0  0  0  0  0  0  0
    0.0256  -13.2742   13.0224 N   0  0  0  0  0  0  0  0  0  0  0  0
  1  2  1  0  0  0  0
  1  6  1  0  0  0  0
  2  3  2  0  0  0  0
  3  4  1  0  0  0  0
  4  5  2  0  0  0  0
  4 10  1  0  0  0  0
  5  6  1  0  0  0  0
  5  8  1  0  0  0  0
  6  7  2  0  0  0  0
  8  9  1  0  0  0  0
  9 10  2  0  0  0  0
M  END
>  <CHROM.1>
1.14430136,-11.61129621,12.29641352,-0.41199819,-0.71803591,-2.98402840

>  <Name>
ligand

>  <RI>
0

>  <Rbt.Current_Directory>
/home/itssahil/PROJECTS/Mol_Feturizer/Test_systems_manuscript/rnas/5c7w

>  <Rbt.Executable>
rbdock ($Id: //depot/dev/client3/rdock/2013.1/src/exe/rbdock.cxx#4 $)

>  <Rbt.Library>
libRbt.so (2013.1, Build901 2013/11/27)

>  <Rbt.Parameter_File>
/export/apps/rDock/src/rDock_2013.1_src/data/scripts/dock_solv.prm

>  <Rbt.Receptor>
prm/blind_docking_20.prm

>  <SCORE>
-13.928

>  <SCORE.INTER>
-13.928

>  <SCORE.INTER.CONST>
1

>  <SCORE.INTER.POLAR>
0

>  <SCORE.INTER.ROT>
0

>  <SCORE.INTER.SOLV>
3.89378

>  <SCORE.INTER.VDW>
-14.1833

>  <SCORE.INTER.norm>
-1.3928

>  <SCORE.INTRA>
0

>  <SCORE.INTRA.DIHEDRAL>
0

>  <SCORE.INTRA.DIHEDRAL.0>
0

>  <SCORE.INTRA.POLAR>
0

>  <SCORE.INTRA.POLAR.0>
0

>  <SCORE.INTRA.REPUL>
0

>  <SCORE.INTRA.REPUL.0>
0

>  <SCORE.INTRA.SOLV>
0

>  <SCORE.INTRA.SOLV.lig_0>
-4.15853

>  <SCORE.INTRA.VDW>
0

>  <SCORE.INTRA.VDW.0>
0

>  <SCORE.INTRA.norm>
0

>  <SCORE.RESTR>
0

>  <SCORE.RESTR.CAVITY>
0

>  <SCORE.RESTR.norm>
0

>  <SCORE.SYSTEM>
0

>  <SCORE.SYSTEM.CONST>
0

>  <SCORE.SYSTEM.DIHEDRAL>
0

>  <SCORE.SYSTEM.SOLV>
0

>  <SCORE.SYSTEM.norm>
0

>  <SCORE.heavy>
10

>  <SCORE.norm>
-1.3928

>  <RMSD>
2.929

$$$$
ligand
 OpenBabel02271912153D
libRbt.so/2013.1/901 2013/11/27
 10 11  0  0  0  0  0  0  0  0999 V2000
    1.5770   -9.4482   12.4709 N   0  0  0  0  0  0  0  0  0  0  0  0
    2.5543   -9.5567   11.5970 C   0  0  0  0  0  0  0  0  0  0  0  0
    2.8035  -10.7994   11.0092 N   0  0  0  0  0  0  0  0  0  0  0  0
    2.0646  -11.8585   11.3308 C   0  0  0  0  0  0  0  0  0  0  0  0
    1.0863  -11.7471   12.2099 C   0  0  0  0  0  0  0  0  0  0  0  0
    0.8342  -10.5845   12.7823 C   0  0  0  0  0  0  0  0  0  0  0  0
   -0.0721  -10.5055   13.5998 O   0  0  0  0  0  0  0  0  0  0  0  0
    0.4992  -12.9338   12.3535 N   0  0  0  0  0  0  0  0  0  0  0  0
    1.1243  -13.7814   11.5440 C   0  0  0  0  0  0  0  0  0  0  0  0
    2.0945  -13.1143   10.9139 N   0  0  0  0  0  0  0  0  0  0  0  0
  1  2  1  0  0  0  0
  1  6  1  0  0  0  0
  2  3  2  0  0  0  0
  3  4  1  0  0  0  0
  4  5  2  0  0  0  0
  4 10  1  0  0  0  0
  5  6  1  0  0  0  0
  5  8  1  0  0  0  0
  6  7  2  0  0  0  0
  8  9  1  0  0  0  0
  9 10  2  0  0  0  0
M  END
>  <CHROM.1>
1.42777056,-11.41345978,12.01223941,-1.60207820,-0.69367687,-2.84527819

>  <Name>
ligand

>  <RI>
0

>  <Rbt.Current_Directory>
/home/itssahil/PROJECTS/Mol_Feturizer/Test_systems_manuscript/rnas/5c7w

>  <Rbt.Executable>
rbdock ($Id: //depot/dev/client3/rdock/2013.1/src/exe/rbdock.cxx#4 $)

>  <Rbt.Library>
libRbt.so (2013.1, Build901 2013/11/27)

>  <Rbt.Parameter_File>
/export/apps/rDock/src/rDock_2013.1_src/data/scripts/dock_solv.prm

>  <Rbt.Receptor>
prm/pocket_docking_6.prm

>  <SCORE>
-14.2553

>  <SCORE.INTER>
-14.2553

>  <SCORE.INTER.CONST>
1

>  <SCORE.INTER.POLAR>
0

>  <SCORE.INTER.ROT>
0

>  <SCORE.INTER.SOLV>
3.3203

>  <SCORE.INTER.VDW>
-14.2103

>  <SCORE.INTER.norm>
-1.42553

>  <SCORE.INTRA>
0

>  <SCORE.INTRA.DIHEDRAL>
0

>  <SCORE.INTRA.DIHEDRAL.0>
0

>  <SCORE.INTRA.POLAR>
0

>  <SCORE.INTRA.POLAR.0>
0

>  <SCORE.INTRA.REPUL>
0

>  <SCORE.INTRA.REPUL.0>
0

>  <SCORE.INTRA.SOLV>
0

>  <SCORE.INTRA.SOLV.lig_0>
-4.15853

>  <SCORE.INTRA.VDW>
0

>  <SCORE.INTRA.VDW.0>
0

>  <SCORE.INTRA.norm>
0

>  <SCORE.RESTR>
0

>  <SCORE.RESTR.CAVITY>
0

>  <SCORE.RESTR.norm>
0

>  <SCORE.SYSTEM>
0

>  <SCORE.SYSTEM.CONST>
0

>  <SCORE.SYSTEM.DIHEDRAL>
0

>  <SCORE.SYSTEM.SOLV>
0

>  <SCORE.SYSTEM.norm>
0

>  <SCORE.heavy>
10

>  <SCORE.norm>
-1.42553

>  <RMSD>
2.936

$$$$
ligand
 OpenBabel02271912153D
libRbt.so/2013.1/901 2013/11/27
 10 11  0  0  0  0  0  0  0  0999 V2000
    1.5862   -9.4690   12.4721 N   0  0  0  0  0  0  0  0  0  0  0  0
    2.5493   -9.5737   11.5821 C   0  0  0  0  0  0  0  0  0  0  0  0
    2.7984  -10.8171   10.9957 N   0  0  0  0  0  0  0  0  0  0  0  0
    2.0736  -11.8806   11.3346 C   0  0  0  0  0  0  0  0  0  0  0  0
    1.1096  -11.7728   12.2298 C   0  0  0  0  0  0  0  0  0  0  0  0
    0.8580  -10.6097   12.8012 C   0  0  0  0  0  0  0  0  0  0  0  0
   -0.0348  -10.5341   13.6337 O   0  0  0  0  0  0  0  0  0  0  0  0
    0.5345  -12.9635   12.3887 N   0  0  0  0  0  0  0  0  0  0  0  0
    1.1524  -13.8098   11.5724 C   0  0  0  0  0  0  0  0  0  0  0  0
    2.1064  -13.1380   10.9228 N   0  0  0  0  0  0  0  0  0  0  0  0
  1  2  1  0  0  0  0
  1  6  1  0  0  0  0
  2  3  2  0  0  0  0
  3  4  1  0  0  0  0
  4  5  2  0  0  0  0
  4 10  1  0  0  0  0
  5  6  1  0  0  0  0
  5  8  1  0  0  0  0
  6  7  2  0  0  0  0
  8  9  1  0  0  0  0
  9 10  2  0  0  0  0
M  END
>  <CHROM.1>
1.44492081,-11.43742082,12.02479682,-1.60559203,-0.71231885,-2.85206628

>  <Name>
ligand

>  <RI>
0

>  <Rbt.Current_Directory>
/home/itssahil/PROJECTS/Mol_Feturizer/Test_systems_manuscript/rnas/5c7w

>  <Rbt.Executable>
rbdock ($Id: //depot/dev/client3/rdock/2013.1/src/exe/rbdock.cxx#4 $)

>  <Rbt.Library>
libRbt.so (2013.1, Build901 2013/11/27)

>  <Rbt.Parameter_File>
/export/apps/rDock/src/rDock_2013.1_src/data/scripts/dock_solv.prm

>  <Rbt.Receptor>
prm/pocket_docking_5.prm

>  <SCORE>
-14.2669

>  <SCORE.INTER>
-14.2669

>  <SCORE.INTER.CONST>
1

>  <SCORE.INTER.POLAR>
0

>  <SCORE.INTER.ROT>
0

>  <SCORE.INTER.SOLV>
3.37014

>  <SCORE.INTER.VDW>
-14.2347

>  <SCORE.INTER.norm>
-1.42669

>  <SCORE.INTRA>
0

>  <SCORE.INTRA.DIHEDRAL>
0

>  <SCORE.INTRA.DIHEDRAL.0>
0

>  <SCORE.INTRA.POLAR>
0

>  <SCORE.INTRA.POLAR.0>
0

>  <SCORE.INTRA.REPUL>
0

>  <SCORE.INTRA.REPUL.0>
0

>  <SCORE.INTRA.SOLV>
0

>  <SCORE.INTRA.SOLV.lig_0>
-4.15853

>  <SCORE.INTRA.VDW>
0

>  <SCORE.INTRA.VDW.0>
0

>  <SCORE.INTRA.norm>
0

>  <SCORE.RESTR>
0

>  <SCORE.RESTR.CAVITY>
0

>  <SCORE.RESTR.norm>
0

>  <SCORE.SYSTEM>
0

>  <SCORE.SYSTEM.CONST>
0

>  <SCORE.SYSTEM.DIHEDRAL>
0

>  <SCORE.SYSTEM.SOLV>
0

>  <SCORE.SYSTEM.norm>
0

>  <SCORE.heavy>
10

>  <SCORE.norm>
-1.42669

>  <RMSD>
2.938

$$$$
ligand
 OpenBabel02271912153D
libRbt.so/2013.1/901 2013/11/27
 10 11  0  0  0  0  0  0  0  0999 V2000
    1.5906   -9.4756   12.4643 N   0  0  0  0  0  0  0  0  0  0  0  0
    2.5442   -9.5859   11.5648 C   0  0  0  0  0  0  0  0  0  0  0  0
    2.7876  -10.8330   10.9840 N   0  0  0  0  0  0  0  0  0  0  0  0
    2.0668  -11.8945   11.3376 C   0  0  0  0  0  0  0  0  0  0  0  0
    1.1123  -11.7811   12.2423 C   0  0  0  0  0  0  0  0  0  0  0  0
    0.8663  -10.6144   12.8086 C   0  0  0  0  0  0  0  0  0  0  0  0
   -0.0176  -10.5336   13.6501 O   0  0  0  0  0  0  0  0  0  0  0  0
    0.5394  -12.9710   12.4151 N   0  0  0  0  0  0  0  0  0  0  0  0
    1.1490  -13.8225   11.5979 C   0  0  0  0  0  0  0  0  0  0  0  0
    2.0957  -13.1545   10.9338 N   0  0  0  0  0  0  0  0  0  0  0  0
  1  2  1  0  0  0  0
  1  6  1  0  0  0  0
  2  3  2  0  0  0  0
  3  4  1  0  0  0  0
  4  5  2  0  0  0  0
  4 10  1  0  0  0  0
  5  6  1  0  0  0  0
  5  8  1  0  0  0  0
  6  7  2  0  0  0  0
  8  9  1  0  0  0  0
  9 10  2  0  0  0  0
M  END
>  <CHROM.1>
1.44529390,-11.44699993,12.03153281,-1.60206157,-0.72261459,-2.85634452

>  <Name>
ligand

>  <RI>
0

>  <Rbt.Current_Directory>
/home/itssahil/PROJECTS/Mol_Feturizer/Test_systems_manuscript/rnas/5c7w

>  <Rbt.Executable>
rbdock ($Id: //depot/dev/client3/rdock/2013.1/src/exe/rbdock.cxx#4 $)

>  <Rbt.Library>
libRbt.so (2013.1, Build901 2013/11/27)

>  <Rbt.Parameter_File>
/export/apps/rDock/src/rDock_2013.1_src/data/scripts/dock_solv.prm

>  <Rbt.Receptor>
prm/pocket_docking_7.prm

>  <SCORE>
-14.2973

>  <SCORE.INTER>
-14.2973

>  <SCORE.INTER.CONST>
1

>  <SCORE.INTER.POLAR>
0

>  <SCORE.INTER.ROT>
0

>  <SCORE.INTER.SOLV>
3.40186

>  <SCORE.INTER.VDW>
-14.2655

>  <SCORE.INTER.norm>
-1.42973

>  <SCORE.INTRA>
0

>  <SCORE.INTRA.DIHEDRAL>
0

>  <SCORE.INTRA.DIHEDRAL.0>
0

>  <SCORE.INTRA.POLAR>
0

>  <SCORE.INTRA.POLAR.0>
0

>  <SCORE.INTRA.REPUL>
0

>  <SCORE.INTRA.REPUL.0>
0

>  <SCORE.INTRA.SOLV>
0

>  <SCORE.INTRA.SOLV.lig_0>
-4.15853

>  <SCORE.INTRA.VDW>
0

>  <SCORE.INTRA.VDW.0>
0

>  <SCORE.INTRA.norm>
0

>  <SCORE.RESTR>
0

>  <SCORE.RESTR.CAVITY>
0

>  <SCORE.RESTR.norm>
0

>  <SCORE.SYSTEM>
0

>  <SCORE.SYSTEM.CONST>
0

>  <SCORE.SYSTEM.DIHEDRAL>
0

>  <SCORE.SYSTEM.SOLV>
0

>  <SCORE.SYSTEM.norm>
0

>  <SCORE.heavy>
10

>  <SCORE.norm>
-1.42973

>  <RMSD>
2.939

$$$$
ligand
 OpenBabel02271912153D
libRbt.so/2013.1/901 2013/11/27
 10 11  0  0  0  0  0  0  0  0999 V2000
    1.5949   -9.4739   12.4664 N   0  0  0  0  0  0  0  0  0  0  0  0
    2.5463   -9.5784   11.5639 C   0  0  0  0  0  0  0  0  0  0  0  0
    2.7894  -10.8222   10.9758 N   0  0  0  0  0  0  0  0  0  0  0  0
    2.0705  -11.8862   11.3255 C   0  0  0  0  0  0  0  0  0  0  0  0
    1.1182  -11.7786   12.2332 C   0  0  0  0  0  0  0  0  0  0  0  0
    0.8725  -10.6151   12.8064 C   0  0  0  0  0  0  0  0  0  0  0  0
   -0.0093  -10.5397   13.6505 O   0  0  0  0  0  0  0  0  0  0  0  0
    0.5468  -12.9699   12.4010 N   0  0  0  0  0  0  0  0  0  0  0  0
    1.1551  -13.8164   11.5777 C   0  0  0  0  0  0  0  0  0  0  0  0
    2.0996  -13.1440   10.9148 N   0  0  0  0  0  0  0  0  0  0  0  0
  1  2  1  0  0  0  0
  1  6  1  0  0  0  0
  2  3  2  0  0  0  0
  3  4  1  0  0  0  0
  4  5  2  0  0  0  0
  4 10  1  0  0  0  0
  5  6  1  0  0  0  0
  5  8  1  0  0  0  0
  6  7  2  0  0  0  0
  8  9  1  0  0  0  0
  9 10  2  0  0  0  0
M  END
>  <CHROM.1>
1.45032883,-11.44303567,12.02337175,-1.60229588,-0.72529746,-2.85111904

>  <Name>
ligand

>  <RI>
0

>  <Rbt.Current_Directory>
/home/itssahil/PROJECTS/Mol_Feturizer/Test_systems_manuscript/rnas/5c7w

>  <Rbt.Executable>
rbdock ($Id: //depot/dev/client3/rdock/2013.1/src/exe/rbdock.cxx#4 $)

>  <Rbt.Library>
libRbt.so (2013.1, Build901 2013/11/27)

>  <Rbt.Parameter_File>
/export/apps/rDock/src/rDock_2013.1_src/data/scripts/dock_solv.prm

>  <Rbt.Receptor>
prm/blind_docking_80.prm

>  <SCORE>
-14.3009

>  <SCORE.INTER>
-14.3009

>  <SCORE.INTER.CONST>
1

>  <SCORE.INTER.POLAR>
0

>  <SCORE.INTER.ROT>
0

>  <SCORE.INTER.SOLV>
3.40636

>  <SCORE.INTER.VDW>
-14.2694

>  <SCORE.INTER.norm>
-1.43009

>  <SCORE.INTRA>
0

>  <SCORE.INTRA.DIHEDRAL>
0

>  <SCORE.INTRA.DIHEDRAL.0>
0

>  <SCORE.INTRA.POLAR>
0

>  <SCORE.INTRA.POLAR.0>
0

>  <SCORE.INTRA.REPUL>
0

>  <SCORE.INTRA.REPUL.0>
0

>  <SCORE.INTRA.SOLV>
0

>  <SCORE.INTRA.SOLV.lig_0>
-4.15853

>  <SCORE.INTRA.VDW>
0

>  <SCORE.INTRA.VDW.0>
0

>  <SCORE.INTRA.norm>
0

>  <SCORE.RESTR>
0

>  <SCORE.RESTR.CAVITY>
0

>  <SCORE.RESTR.norm>
0

>  <SCORE.SYSTEM>
0

>  <SCORE.SYSTEM.CONST>
0

>  <SCORE.SYSTEM.DIHEDRAL>
0

>  <SCORE.SYSTEM.SOLV>
0

>  <SCORE.SYSTEM.norm>
0

>  <SCORE.heavy>
10

>  <SCORE.norm>
-1.43009

>  <RMSD>
2.940

$$$$
ligand
 OpenBabel02271912153D
libRbt.so/2013.1/901 2013/11/27
 10 11  0  0  0  0  0  0  0  0999 V2000
    2.7137  -10.7669   11.1683 N   0  0  0  0  0  0  0  0  0  0  0  0
    2.7795  -12.0400   10.8435 C   0  0  0  0  0  0  0  0  0  0  0  0
    1.8794  -12.9358   11.4261 N   0  0  0  0  0  0  0  0  0  0  0  0
    0.9705  -12.5077   12.2988 C   0  0  0  0  0  0  0  0  0  0  0  0
    0.9086  -11.2301   12.6246 C   0  0  0  0  0  0  0  0  0  0  0  0
    1.7510  -10.3649   12.0911 C   0  0  0  0  0  0  0  0  0  0  0  0
    1.6809   -9.1871   12.4129 O   0  0  0  0  0  0  0  0  0  0  0  0
   -0.0785  -11.0567   13.5017 N   0  0  0  0  0  0  0  0  0  0  0  0
   -0.6325  -12.2460   13.7092 C   0  0  0  0  0  0  0  0  0  0  0  0
    0.0200  -13.1431   12.9656 N   0  0  0  0  0  0  0  0  0  0  0  0
  1  2  1  0  0  0  0
  1  6  1  0  0  0  0
  2  3  2  0  0  0  0
  3  4  1  0  0  0  0
  4  5  2  0  0  0  0
  4 10  1  0  0  0  0
  5  6  1  0  0  0  0
  5  8  1  0  0  0  0
  6  7  2  0  0  0  0
  8  9  1  0  0  0  0
  9 10  2  0  0  0  0
M  END
>  <CHROM.1>
1.20983813,-11.50239597,12.30511447,-0.36868352,-0.69589682,-2.92716904

>  <Name>
ligand

>  <RI>
0

>  <Rbt.Current_Directory>
/home/itssahil/PROJECTS/Mol_Feturizer/Test_systems_manuscript/rnas/5c7w

>  <Rbt.Executable>
rbdock ($Id: //depot/dev/client3/rdock/2013.1/src/exe/rbdock.cxx#4 $)

>  <Rbt.Library>
libRbt.so (2013.1, Build901 2013/11/27)

>  <Rbt.Parameter_File>
/export/apps/rDock/src/rDock_2013.1_src/data/scripts/dock_solv.prm

>  <Rbt.Receptor>
prm/pocket_docking_7.prm

>  <SCORE>
-13.7991

>  <SCORE.INTER>
-13.7991

>  <SCORE.INTER.CONST>
1

>  <SCORE.INTER.POLAR>
0

>  <SCORE.INTER.ROT>
0

>  <SCORE.INTER.SOLV>
3.8886

>  <SCORE.INTER.VDW>
-14.0956

>  <SCORE.INTER.norm>
-1.37991

>  <SCORE.INTRA>
0

>  <SCORE.INTRA.DIHEDRAL>
0

>  <SCORE.INTRA.DIHEDRAL.0>
0

>  <SCORE.INTRA.POLAR>
0

>  <SCORE.INTRA.POLAR.0>
0

>  <SCORE.INTRA.REPUL>
0

>  <SCORE.INTRA.REPUL.0>
0

>  <SCORE.INTRA.SOLV>
0

>  <SCORE.INTRA.SOLV.lig_0>
-4.15853

>  <SCORE.INTRA.VDW>
0

>  <SCORE.INTRA.VDW.0>
0

>  <SCORE.INTRA.norm>
0

>  <SCORE.RESTR>
0

>  <SCORE.RESTR.CAVITY>
0

>  <SCORE.RESTR.norm>
0

>  <SCORE.SYSTEM>
0

>  <SCORE.SYSTEM.CONST>
0

>  <SCORE.SYSTEM.DIHEDRAL>
0

>  <SCORE.SYSTEM.SOLV>
0

>  <SCORE.SYSTEM.norm>
0

>  <SCORE.heavy>
10

>  <SCORE.norm>
-1.37991

>  <RMSD>
2.941

$$$$
ligand
 OpenBabel02271912153D
libRbt.so/2013.1/901 2013/11/27
 10 11  0  0  0  0  0  0  0  0999 V2000
    1.6019   -9.4412   12.4901 N   0  0  0  0  0  0  0  0  0  0  0  0
    2.5766   -9.5411   11.6122 C   0  0  0  0  0  0  0  0  0  0  0  0
    2.8327  -10.7810   11.0216 N   0  0  0  0  0  0  0  0  0  0  0  0
    2.1029  -11.8461   11.3444 C   0  0  0  0  0  0  0  0  0  0  0  0
    1.1272  -11.7432   12.2274 C   0  0  0  0  0  0  0  0  0  0  0  0
    0.8687  -10.5835   12.8026 C   0  0  0  0  0  0  0  0  0  0  0  0
   -0.0349  -10.5124   13.6237 O   0  0  0  0  0  0  0  0  0  0  0  0
    0.5494  -12.9345   12.3714 N   0  0  0  0  0  0  0  0  0  0  0  0
    1.1777  -13.7762   11.5581 C   0  0  0  0  0  0  0  0  0  0  0  0
    2.1405  -13.1009   10.9253 N   0  0  0  0  0  0  0  0  0  0  0  0
  1  2  1  0  0  0  0
  1  6  1  0  0  0  0
  2  3  2  0  0  0  0
  3  4  1  0  0  0  0
  4  5  2  0  0  0  0
  4 10  1  0  0  0  0
  5  6  1  0  0  0  0
  5  8  1  0  0  0  0
  6  7  2  0  0  0  0
  8  9  1  0  0  0  0
  9 10  2  0  0  0  0
M  END
>  <CHROM.1>
1.46543637,-11.40678582,12.02892474,-1.60985241,-0.69951445,-2.84869890

>  <Name>
ligand

>  <RI>
0

>  <Rbt.Current_Directory>
/home/itssahil/PROJECTS/Mol_Feturizer/Test_systems_manuscript/rnas/5c7w

>  <Rbt.Executable>
rbdock ($Id: //depot/dev/client3/rdock/2013.1/src/exe/rbdock.cxx#4 $)

>  <Rbt.Library>
libRbt.so (2013.1, Build901 2013/11/27)

>  <Rbt.Parameter_File>
/export/apps/rDock/src/rDock_2013.1_src/data/scripts/dock_solv.prm

>  <Rbt.Receptor>
prm/blind_docking_40.prm

>  <SCORE>
-14.285

>  <SCORE.INTER>
-14.285

>  <SCORE.INTER.CONST>
1

>  <SCORE.INTER.POLAR>
0

>  <SCORE.INTER.ROT>
0

>  <SCORE.INTER.SOLV>
3.35687

>  <SCORE.INTER.VDW>
-14.2423

>  <SCORE.INTER.norm>
-1.4285

>  <SCORE.INTRA>
0

>  <SCORE.INTRA.DIHEDRAL>
0

>  <SCORE.INTRA.DIHEDRAL.0>
0

>  <SCORE.INTRA.POLAR>
0

>  <SCORE.INTRA.POLAR.0>
0

>  <SCORE.INTRA.REPUL>
0

>  <SCORE.INTRA.REPUL.0>
0

>  <SCORE.INTRA.SOLV>
0

>  <SCORE.INTRA.SOLV.lig_0>
-4.15853

>  <SCORE.INTRA.VDW>
0

>  <SCORE.INTRA.VDW.0>
0

>  <SCORE.INTRA.norm>
0

>  <SCORE.RESTR>
0

>  <SCORE.RESTR.CAVITY>
0

>  <SCORE.RESTR.norm>
0

>  <SCORE.SYSTEM>
0

>  <SCORE.SYSTEM.CONST>
0

>  <SCORE.SYSTEM.DIHEDRAL>
0

>  <SCORE.SYSTEM.SOLV>
0

>  <SCORE.SYSTEM.norm>
0

>  <SCORE.heavy>
10

>  <SCORE.norm>
-1.4285

>  <RMSD>
2.942

$$$$
ligand
 OpenBabel02271912153D
libRbt.so/2013.1/901 2013/11/27
 10 11  0  0  0  0  0  0  0  0999 V2000
    1.5977   -9.4616   12.4400 N   0  0  0  0  0  0  0  0  0  0  0  0
    2.5520   -9.5815   11.5425 C   0  0  0  0  0  0  0  0  0  0  0  0
    2.7948  -10.8345   10.9742 N   0  0  0  0  0  0  0  0  0  0  0  0
    2.0727  -11.8918   11.3375 C   0  0  0  0  0  0  0  0  0  0  0  0
    1.1175  -11.7687   12.2401 C   0  0  0  0  0  0  0  0  0  0  0  0
    0.8720  -10.5962   12.7948 C   0  0  0  0  0  0  0  0  0  0  0  0
   -0.0126  -10.5064   13.6346 O   0  0  0  0  0  0  0  0  0  0  0  0
    0.5433  -12.9563   12.4241 N   0  0  0  0  0  0  0  0  0  0  0  0
    1.1529  -13.8163   11.6158 C   0  0  0  0  0  0  0  0  0  0  0  0
    2.1009  -13.1557   10.9460 N   0  0  0  0  0  0  0  0  0  0  0  0
  1  2  1  0  0  0  0
  1  6  1  0  0  0  0
  2  3  2  0  0  0  0
  3  4  1  0  0  0  0
  4  5  2  0  0  0  0
  4 10  1  0  0  0  0
  5  6  1  0  0  0  0
  5  8  1  0  0  0  0
  6  7  2  0  0  0  0
  8  9  1  0  0  0  0
  9 10  2  0  0  0  0
M  END
>  <CHROM.1>
1.45100485,-11.43696362,12.02643333,-1.60124534,-0.72148279,-2.86558589

>  <Name>
ligand

>  <RI>
0

>  <Rbt.Current_Directory>
/home/itssahil/PROJECTS/Mol_Feturizer/Test_systems_manuscript/rnas/5c7w

>  <Rbt.Executable>
rbdock ($Id: //depot/dev/client3/rdock/2013.1/src/exe/rbdock.cxx#4 $)

>  <Rbt.Library>
libRbt.so (2013.1, Build901 2013/11/27)

>  <Rbt.Parameter_File>
/export/apps/rDock/src/rDock_2013.1_src/data/scripts/dock_solv.prm

>  <Rbt.Receptor>
prm/pocket_docking_5.prm

>  <SCORE>
-14.3067

>  <SCORE.INTER>
-14.3067

>  <SCORE.INTER.CONST>
1

>  <SCORE.INTER.POLAR>
0

>  <SCORE.INTER.ROT>
0

>  <SCORE.INTER.SOLV>
3.40832

>  <SCORE.INTER.VDW>
-14.2739

>  <SCORE.INTER.norm>
-1.43067

>  <SCORE.INTRA>
0

>  <SCORE.INTRA.DIHEDRAL>
0

>  <SCORE.INTRA.DIHEDRAL.0>
0

>  <SCORE.INTRA.POLAR>
0

>  <SCORE.INTRA.POLAR.0>
0

>  <SCORE.INTRA.REPUL>
0

>  <SCORE.INTRA.REPUL.0>
0

>  <SCORE.INTRA.SOLV>
0

>  <SCORE.INTRA.SOLV.lig_0>
-4.15853

>  <SCORE.INTRA.VDW>
0

>  <SCORE.INTRA.VDW.0>
0

>  <SCORE.INTRA.norm>
0

>  <SCORE.RESTR>
0

>  <SCORE.RESTR.CAVITY>
0

>  <SCORE.RESTR.norm>
0

>  <SCORE.SYSTEM>
0

>  <SCORE.SYSTEM.CONST>
0

>  <SCORE.SYSTEM.DIHEDRAL>
0

>  <SCORE.SYSTEM.SOLV>
0

>  <SCORE.SYSTEM.norm>
0

>  <SCORE.heavy>
10

>  <SCORE.norm>
-1.43067

>  <RMSD>
2.942

$$$$
ligand
 OpenBabel02271912153D
libRbt.so/2013.1/901 2013/11/27
 10 11  0  0  0  0  0  0  0  0999 V2000
    1.6094   -9.4428   12.4902 N   0  0  0  0  0  0  0  0  0  0  0  0
    2.5830   -9.5450   11.6114 C   0  0  0  0  0  0  0  0  0  0  0  0
    2.8365  -10.7859   11.0216 N   0  0  0  0  0  0  0  0  0  0  0  0
    2.1052  -11.8495   11.3460 C   0  0  0  0  0  0  0  0  0  0  0  0
    1.1306  -11.7442   12.2300 C   0  0  0  0  0  0  0  0  0  0  0  0
    0.8746  -10.5835   12.8044 C   0  0  0  0  0  0  0  0  0  0  0  0
   -0.0280  -10.5103   13.6264 O   0  0  0  0  0  0  0  0  0  0  0  0
    0.5510  -12.9344   12.3756 N   0  0  0  0  0  0  0  0  0  0  0  0
    1.1770  -13.7779   11.5624 C   0  0  0  0  0  0  0  0  0  0  0  0
    2.1403  -13.1048   10.9281 N   0  0  0  0  0  0  0  0  0  0  0  0
  1  2  1  0  0  0  0
  1  6  1  0  0  0  0
  2  3  2  0  0  0  0
  3  4  1  0  0  0  0
  4  5  2  0  0  0  0
  4 10  1  0  0  0  0
  5  6  1  0  0  0  0
  5  8  1  0  0  0  0
  6  7  2  0  0  0  0
  8  9  1  0  0  0  0
  9 10  2  0  0  0  0
M  END
>  <CHROM.1>
1.46917889,-11.40853547,12.03086120,-1.60735969,-0.70000843,-2.84796595

>  <Name>
ligand

>  <RI>
0

>  <Rbt.Current_Directory>
/home/itssahil/PROJECTS/Mol_Feturizer/Test_systems_manuscript/rnas/5c7w

>  <Rbt.Executable>
rbdock ($Id: //depot/dev/client3/rdock/2013.1/src/exe/rbdock.cxx#4 $)

>  <Rbt.Library>
libRbt.so (2013.1, Build901 2013/11/27)

>  <Rbt.Parameter_File>
/export/apps/rDock/src/rDock_2013.1_src/data/scripts/dock_solv.prm

>  <Rbt.Receptor>
prm/pocket_docking_8.prm

>  <SCORE>
-14.283

>  <SCORE.INTER>
-14.283

>  <SCORE.INTER.CONST>
1

>  <SCORE.INTER.POLAR>
0

>  <SCORE.INTER.ROT>
0

>  <SCORE.INTER.SOLV>
3.36328

>  <SCORE.INTER.VDW>
-14.2431

>  <SCORE.INTER.norm>
-1.4283

>  <SCORE.INTRA>
0

>  <SCORE.INTRA.DIHEDRAL>
0

>  <SCORE.INTRA.DIHEDRAL.0>
0

>  <SCORE.INTRA.POLAR>
0

>  <SCORE.INTRA.POLAR.0>
0

>  <SCORE.INTRA.REPUL>
0

>  <SCORE.INTRA.REPUL.0>
0

>  <SCORE.INTRA.SOLV>
0

>  <SCORE.INTRA.SOLV.lig_0>
-4.15853

>  <SCORE.INTRA.VDW>
0

>  <SCORE.INTRA.VDW.0>
0

>  <SCORE.INTRA.norm>
0

>  <SCORE.RESTR>
0

>  <SCORE.RESTR.CAVITY>
0

>  <SCORE.RESTR.norm>
0

>  <SCORE.SYSTEM>
0

>  <SCORE.SYSTEM.CONST>
0

>  <SCORE.SYSTEM.DIHEDRAL>
0

>  <SCORE.SYSTEM.SOLV>
0

>  <SCORE.SYSTEM.norm>
0

>  <SCORE.heavy>
10

>  <SCORE.norm>
-1.4283

>  <RMSD>
2.943

$$$$
ligand
 OpenBabel02271912153D
libRbt.so/2013.1/901 2013/11/27
 10 11  0  0  0  0  0  0  0  0999 V2000
    1.6002   -9.4433   12.4799 N   0  0  0  0  0  0  0  0  0  0  0  0
    2.5776   -9.5410   11.6048 C   0  0  0  0  0  0  0  0  0  0  0  0
    2.8433  -10.7820   11.0207 N   0  0  0  0  0  0  0  0  0  0  0  0
    2.1195  -11.8503   11.3468 C   0  0  0  0  0  0  0  0  0  0  0  0
    1.1411  -11.7495   12.2270 C   0  0  0  0  0  0  0  0  0  0  0  0
    0.8736  -10.5888   12.7960 C   0  0  0  0  0  0  0  0  0  0  0  0
   -0.0324  -10.5197   13.6146 O   0  0  0  0  0  0  0  0  0  0  0  0
    0.5706  -12.9439   12.3752 N   0  0  0  0  0  0  0  0  0  0  0  0
    1.2063  -13.7853   11.5675 C   0  0  0  0  0  0  0  0  0  0  0  0
    2.1663  -13.1068   10.9338 N   0  0  0  0  0  0  0  0  0  0  0  0
  1  2  1  0  0  0  0
  1  6  1  0  0  0  0
  2  3  2  0  0  0  0
  3  4  1  0  0  0  0
  4  5  2  0  0  0  0
  4 10  1  0  0  0  0
  5  6  1  0  0  0  0
  5  8  1  0  0  0  0
  6  7  2  0  0  0  0
  8  9  1  0  0  0  0
  9 10  2  0  0  0  0
M  END
>  <CHROM.1>
1.47756118,-11.41186194,12.02771832,-1.61885094,-0.69902194,-2.85924058

>  <Name>
ligand

>  <RI>
0

>  <Rbt.Current_Directory>
/home/itssahil/PROJECTS/Mol_Feturizer/Test_systems_manuscript/rnas/5c7w

>  <Rbt.Executable>
rbdock ($Id: //depot/dev/client3/rdock/2013.1/src/exe/rbdock.cxx#4 $)

>  <Rbt.Library>
libRbt.so (2013.1, Build901 2013/11/27)

>  <Rbt.Parameter_File>
/export/apps/rDock/src/rDock_2013.1_src/data/scripts/dock_solv.prm

>  <Rbt.Receptor>
prm/blind_docking_20.prm

>  <SCORE>
-14.274

>  <SCORE.INTER>
-14.274

>  <SCORE.INTER.CONST>
1

>  <SCORE.INTER.POLAR>
0

>  <SCORE.INTER.ROT>
0

>  <SCORE.INTER.SOLV>
3.35443

>  <SCORE.INTER.VDW>
-14.2341

>  <SCORE.INTER.norm>
-1.4274

>  <SCORE.INTRA>
0

>  <SCORE.INTRA.DIHEDRAL>
0

>  <SCORE.INTRA.DIHEDRAL.0>
0

>  <SCORE.INTRA.POLAR>
0

>  <SCORE.INTRA.POLAR.0>
0

>  <SCORE.INTRA.REPUL>
0

>  <SCORE.INTRA.REPUL.0>
0

>  <SCORE.INTRA.SOLV>
0

>  <SCORE.INTRA.SOLV.lig_0>
-4.15853

>  <SCORE.INTRA.VDW>
0

>  <SCORE.INTRA.VDW.0>
0

>  <SCORE.INTRA.norm>
0

>  <SCORE.RESTR>
0

>  <SCORE.RESTR.CAVITY>
0

>  <SCORE.RESTR.norm>
0

>  <SCORE.SYSTEM>
0

>  <SCORE.SYSTEM.CONST>
0

>  <SCORE.SYSTEM.DIHEDRAL>
0

>  <SCORE.SYSTEM.SOLV>
0

>  <SCORE.SYSTEM.norm>
0

>  <SCORE.heavy>
10

>  <SCORE.norm>
-1.4274

>  <RMSD>
2.944

$$$$
ligand
 OpenBabel02271912153D
libRbt.so/2013.1/901 2013/11/27
 10 11  0  0  0  0  0  0  0  0999 V2000
    1.6082   -9.4609   12.4408 N   0  0  0  0  0  0  0  0  0  0  0  0
    2.5586   -9.5826   11.5394 C   0  0  0  0  0  0  0  0  0  0  0  0
    2.7974  -10.8361   10.9707 N   0  0  0  0  0  0  0  0  0  0  0  0
    2.0755  -11.8923   11.3375 C   0  0  0  0  0  0  0  0  0  0  0  0
    1.1242  -11.7676   12.2441 C   0  0  0  0  0  0  0  0  0  0  0  0
    0.8826  -10.5945   12.7992 C   0  0  0  0  0  0  0  0  0  0  0  0
    0.0016  -10.5031   13.6426 O   0  0  0  0  0  0  0  0  0  0  0  0
    0.5493  -12.9543   12.4310 N   0  0  0  0  0  0  0  0  0  0  0  0
    1.1544  -13.8155   11.6206 C   0  0  0  0  0  0  0  0  0  0  0  0
    2.1004  -13.1565   10.9466 N   0  0  0  0  0  0  0  0  0  0  0  0
  1  2  1  0  0  0  0
  1  6  1  0  0  0  0
  2  3  2  0  0  0  0
  3  4  1  0  0  0  0
  4  5  2  0  0  0  0
  4 10  1  0  0  0  0
  5  6  1  0  0  0  0
  5  8  1  0  0  0  0
  6  7  2  0  0  0  0
  8  9  1  0  0  0  0
  9 10  2  0  0  0  0
M  END
>  <CHROM.1>
1.45726536,-11.43637202,12.02879777,-1.59806878,-0.72513216,-2.86398427

>  <Name>
ligand

>  <RI>
0

>  <Rbt.Current_Directory>
/home/itssahil/PROJECTS/Mol_Feturizer/Test_systems_manuscript/rnas/5c7w

>  <Rbt.Executable>
rbdock ($Id: //depot/dev/client3/rdock/2013.1/src/exe/rbdock.cxx#4 $)

>  <Rbt.Library>
libRbt.so (2013.1, Build901 2013/11/27)

>  <Rbt.Parameter_File>
/export/apps/rDock/src/rDock_2013.1_src/data/scripts/dock_solv.prm

>  <Rbt.Receptor>
prm/pocket_docking_5.prm

>  <SCORE>
-14.3055

>  <SCORE.INTER>
-14.3055

>  <SCORE.INTER.CONST>
1

>  <SCORE.INTER.POLAR>
0

>  <SCORE.INTER.ROT>
0

>  <SCORE.INTER.SOLV>
3.42461

>  <SCORE.INTER.VDW>
-14.2785

>  <SCORE.INTER.norm>
-1.43055

>  <SCORE.INTRA>
0

>  <SCORE.INTRA.DIHEDRAL>
0

>  <SCORE.INTRA.DIHEDRAL.0>
0

>  <SCORE.INTRA.POLAR>
0

>  <SCORE.INTRA.POLAR.0>
0

>  <SCORE.INTRA.REPUL>
0

>  <SCORE.INTRA.REPUL.0>
0

>  <SCORE.INTRA.SOLV>
0

>  <SCORE.INTRA.SOLV.lig_0>
-4.15853

>  <SCORE.INTRA.VDW>
0

>  <SCORE.INTRA.VDW.0>
0

>  <SCORE.INTRA.norm>
0

>  <SCORE.RESTR>
0

>  <SCORE.RESTR.CAVITY>
0

>  <SCORE.RESTR.norm>
0

>  <SCORE.SYSTEM>
0

>  <SCORE.SYSTEM.CONST>
0

>  <SCORE.SYSTEM.DIHEDRAL>
0

>  <SCORE.SYSTEM.SOLV>
0

>  <SCORE.SYSTEM.norm>
0

>  <SCORE.heavy>
10

>  <SCORE.norm>
-1.43055

>  <RMSD>
2.944

$$$$
ligand
 OpenBabel02271912153D
libRbt.so/2013.1/901 2013/11/27
 10 11  0  0  0  0  0  0  0  0999 V2000
    1.6287   -9.4738   12.4487 N   0  0  0  0  0  0  0  0  0  0  0  0
    2.5807   -9.5990   11.5494 C   0  0  0  0  0  0  0  0  0  0  0  0
    2.8082  -10.8510   10.9726 N   0  0  0  0  0  0  0  0  0  0  0  0
    2.0740  -11.9021   11.3295 C   0  0  0  0  0  0  0  0  0  0  0  0
    1.1211  -11.7738   12.2339 C   0  0  0  0  0  0  0  0  0  0  0  0
    0.8900  -10.6022   12.7967 C   0  0  0  0  0  0  0  0  0  0  0  0
    0.0074  -10.5076   13.6379 O   0  0  0  0  0  0  0  0  0  0  0  0
    0.5332  -12.9557   12.4105 N   0  0  0  0  0  0  0  0  0  0  0  0
    1.1318  -13.8174   11.5959 C   0  0  0  0  0  0  0  0  0  0  0  0
    2.0869  -13.1637   10.9297 N   0  0  0  0  0  0  0  0  0  0  0  0
  1  2  1  0  0  0  0
  1  6  1  0  0  0  0
  2  3  2  0  0  0  0
  3  4  1  0  0  0  0
  4  5  2  0  0  0  0
  4 10  1  0  0  0  0
  5  6  1  0  0  0  0
  5  8  1  0  0  0  0
  6  7  2  0  0  0  0
  8  9  1  0  0  0  0
  9 10  2  0  0  0  0
M  END
>  <CHROM.1>
1.45834920,-11.44457997,12.02210700,-1.58582260,-0.71910382,-2.84875804

>  <Name>
ligand

>  <RI>
0

>  <Rbt.Current_Directory>
/home/itssahil/PROJECTS/Mol_Feturizer/Test_systems_manuscript/rnas/5c7w

>  <Rbt.Executable>
rbdock ($Id: //depot/dev/client3/rdock/2013.1/src/exe/rbdock.cxx#4 $)

>  <Rbt.Library>
libRbt.so (2013.1, Build901 2013/11/27)

>  <Rbt.Parameter_File>
/export/apps/rDock/src/rDock_2013.1_src/data/scripts/dock_solv.prm

>  <Rbt.Receptor>
prm/blind_docking_40.prm

>  <SCORE>
-14.3147

>  <SCORE.INTER>
-14.3147

>  <SCORE.INTER.CONST>
1

>  <SCORE.INTER.POLAR>
0

>  <SCORE.INTER.ROT>
0

>  <SCORE.INTER.SOLV>
3.41162

>  <SCORE.INTER.VDW>
-14.2803

>  <SCORE.INTER.norm>
-1.43147

>  <SCORE.INTRA>
0

>  <SCORE.INTRA.DIHEDRAL>
0

>  <SCORE.INTRA.DIHEDRAL.0>
0

>  <SCORE.INTRA.POLAR>
0

>  <SCORE.INTRA.POLAR.0>
0

>  <SCORE.INTRA.REPUL>
0

>  <SCORE.INTRA.REPUL.0>
0

>  <SCORE.INTRA.SOLV>
0

>  <SCORE.INTRA.SOLV.lig_0>
-4.15853

>  <SCORE.INTRA.VDW>
0

>  <SCORE.INTRA.VDW.0>
0

>  <SCORE.INTRA.norm>
0

>  <SCORE.RESTR>
0

>  <SCORE.RESTR.CAVITY>
0

>  <SCORE.RESTR.norm>
0

>  <SCORE.SYSTEM>
0

>  <SCORE.SYSTEM.CONST>
0

>  <SCORE.SYSTEM.DIHEDRAL>
0

>  <SCORE.SYSTEM.SOLV>
0

>  <SCORE.SYSTEM.norm>
0

>  <SCORE.heavy>
10

>  <SCORE.norm>
-1.43147

>  <RMSD>
2.945

$$$$
ligand
 OpenBabel02271912153D
libRbt.so/2013.1/901 2013/11/27
 10 11  0  0  0  0  0  0  0  0999 V2000
    1.6264   -9.4689   12.4562 N   0  0  0  0  0  0  0  0  0  0  0  0
    2.5798   -9.5912   11.5581 C   0  0  0  0  0  0  0  0  0  0  0  0
    2.8077  -10.8411   10.9770 N   0  0  0  0  0  0  0  0  0  0  0  0
    2.0725  -11.8932   11.3289 C   0  0  0  0  0  0  0  0  0  0  0  0
    1.1182  -11.7678   12.2322 C   0  0  0  0  0  0  0  0  0  0  0  0
    0.8866  -10.5982   12.7988 C   0  0  0  0  0  0  0  0  0  0  0  0
    0.0026  -10.5062   13.6389 O   0  0  0  0  0  0  0  0  0  0  0  0
    0.5294  -12.9501   12.4035 N   0  0  0  0  0  0  0  0  0  0  0  0
    1.1290  -13.8091   11.5867 C   0  0  0  0  0  0  0  0  0  0  0  0
    2.0855  -13.1533   10.9244 N   0  0  0  0  0  0  0  0  0  0  0  0
  1  2  1  0  0  0  0
  1  6  1  0  0  0  0
  2  3  2  0  0  0  0
  3  4  1  0  0  0  0
  4  5  2  0  0  0  0
  4 10  1  0  0  0  0
  5  6  1  0  0  0  0
  5  8  1  0  0  0  0
  6  7  2  0  0  0  0
  8  9  1  0  0  0  0
  9 10  2  0  0  0  0
M  END
>  <CHROM.1>
1.45586625,-11.43797884,12.02209384,-1.58590448,-0.71738982,-2.84515166

>  <Name>
ligand

>  <RI>
0

>  <Rbt.Current_Directory>
/home/itssahil/PROJECTS/Mol_Feturizer/Test_systems_manuscript/rnas/5c7w

>  <Rbt.Executable>
rbdock ($Id: //depot/dev/client3/rdock/2013.1/src/exe/rbdock.cxx#4 $)

>  <Rbt.Library>
libRbt.so (2013.1, Build901 2013/11/27)

>  <Rbt.Parameter_File>
/export/apps/rDock/src/rDock_2013.1_src/data/scripts/dock_solv.prm

>  <Rbt.Receptor>
prm/blind_docking_60.prm

>  <SCORE>
-14.3156

>  <SCORE.INTER>
-14.3156

>  <SCORE.INTER.CONST>
1

>  <SCORE.INTER.POLAR>
0

>  <SCORE.INTER.ROT>
0

>  <SCORE.INTER.SOLV>
3.40695

>  <SCORE.INTER.VDW>
-14.2794

>  <SCORE.INTER.norm>
-1.43156

>  <SCORE.INTRA>
0

>  <SCORE.INTRA.DIHEDRAL>
0

>  <SCORE.INTRA.DIHEDRAL.0>
0

>  <SCORE.INTRA.POLAR>
0

>  <SCORE.INTRA.POLAR.0>
0

>  <SCORE.INTRA.REPUL>
0

>  <SCORE.INTRA.REPUL.0>
0

>  <SCORE.INTRA.SOLV>
0

>  <SCORE.INTRA.SOLV.lig_0>
-4.15853

>  <SCORE.INTRA.VDW>
0

>  <SCORE.INTRA.VDW.0>
0

>  <SCORE.INTRA.norm>
0

>  <SCORE.RESTR>
0

>  <SCORE.RESTR.CAVITY>
0

>  <SCORE.RESTR.norm>
0

>  <SCORE.SYSTEM>
0

>  <SCORE.SYSTEM.CONST>
0

>  <SCORE.SYSTEM.DIHEDRAL>
0

>  <SCORE.SYSTEM.SOLV>
0

>  <SCORE.SYSTEM.norm>
0

>  <SCORE.heavy>
10

>  <SCORE.norm>
-1.43156

>  <RMSD>
2.945

$$$$
ligand
 OpenBabel02271912153D
libRbt.so/2013.1/901 2013/11/27
 10 11  0  0  0  0  0  0  0  0999 V2000
    1.6401   -9.4691   12.4561 N   0  0  0  0  0  0  0  0  0  0  0  0
    2.5892   -9.5952   11.5539 C   0  0  0  0  0  0  0  0  0  0  0  0
    2.8124  -10.8470   10.9750 N   0  0  0  0  0  0  0  0  0  0  0  0
    2.0772  -11.8970   11.3330 C   0  0  0  0  0  0  0  0  0  0  0  0
    1.1273  -11.7678   12.2403 C   0  0  0  0  0  0  0  0  0  0  0  0
    0.9002  -10.5964   12.8050 C   0  0  0  0  0  0  0  0  0  0  0  0
    0.0202  -10.5009   13.6490 O   0  0  0  0  0  0  0  0  0  0  0  0
    0.5375  -12.9487   12.4174 N   0  0  0  0  0  0  0  0  0  0  0  0
    1.1320  -13.8107   11.6001 C   0  0  0  0  0  0  0  0  0  0  0  0
    2.0864  -13.1582   10.9317 N   0  0  0  0  0  0  0  0  0  0  0  0
  1  2  1  0  0  0  0
  1  6  1  0  0  0  0
  2  3  2  0  0  0  0
  3  4  1  0  0  0  0
  4  5  2  0  0  0  0
  4 10  1  0  0  0  0
  5  6  1  0  0  0  0
  5  8  1  0  0  0  0
  6  7  2  0  0  0  0
  8  9  1  0  0  0  0
  9 10  2  0  0  0  0
M  END
>  <CHROM.1>
1.46453604,-11.43901457,12.02785391,-1.58211839,-0.72133502,-2.84522024

>  <Name>
ligand

>  <RI>
0

>  <Rbt.Current_Directory>
/home/itssahil/PROJECTS/Mol_Feturizer/Test_systems_manuscript/rnas/5c7w

>  <Rbt.Executable>
rbdock ($Id: //depot/dev/client3/rdock/2013.1/src/exe/rbdock.cxx#4 $)

>  <Rbt.Library>
libRbt.so (2013.1, Build901 2013/11/27)

>  <Rbt.Parameter_File>
/export/apps/rDock/src/rDock_2013.1_src/data/scripts/dock_solv.prm

>  <Rbt.Receptor>
prm/blind_docking_60.prm

>  <SCORE>
-14.3088

>  <SCORE.INTER>
-14.3088

>  <SCORE.INTER.CONST>
1

>  <SCORE.INTER.POLAR>
0

>  <SCORE.INTER.ROT>
0

>  <SCORE.INTER.SOLV>
3.42749

>  <SCORE.INTER.VDW>
-14.2817

>  <SCORE.INTER.norm>
-1.43088

>  <SCORE.INTRA>
0

>  <SCORE.INTRA.DIHEDRAL>
0

>  <SCORE.INTRA.DIHEDRAL.0>
0

>  <SCORE.INTRA.POLAR>
0

>  <SCORE.INTRA.POLAR.0>
0

>  <SCORE.INTRA.REPUL>
0

>  <SCORE.INTRA.REPUL.0>
0

>  <SCORE.INTRA.SOLV>
0

>  <SCORE.INTRA.SOLV.lig_0>
-4.15853

>  <SCORE.INTRA.VDW>
0

>  <SCORE.INTRA.VDW.0>
0

>  <SCORE.INTRA.norm>
0

>  <SCORE.RESTR>
0

>  <SCORE.RESTR.CAVITY>
0

>  <SCORE.RESTR.norm>
0

>  <SCORE.SYSTEM>
0

>  <SCORE.SYSTEM.CONST>
0

>  <SCORE.SYSTEM.DIHEDRAL>
0

>  <SCORE.SYSTEM.SOLV>
0

>  <SCORE.SYSTEM.norm>
0

>  <SCORE.heavy>
10

>  <SCORE.norm>
-1.43088

>  <RMSD>
2.947

$$$$
ligand
 OpenBabel02271912153D
libRbt.so/2013.1/901 2013/11/27
 10 11  0  0  0  0  0  0  0  0999 V2000
    1.6189   -9.4526   12.5261 N   0  0  0  0  0  0  0  0  0  0  0  0
    2.5921   -9.5243   11.6439 C   0  0  0  0  0  0  0  0  0  0  0  0
    2.8588  -10.7488   11.0264 N   0  0  0  0  0  0  0  0  0  0  0  0
    2.1402  -11.8276   11.3283 C   0  0  0  0  0  0  0  0  0  0  0  0
    1.1660  -11.7531   12.2158 C   0  0  0  0  0  0  0  0  0  0  0  0
    0.8978  -10.6084   12.8161 C   0  0  0  0  0  0  0  0  0  0  0  0
   -0.0043  -10.5637   13.6408 O   0  0  0  0  0  0  0  0  0  0  0  0
    0.6002  -12.9528   12.3358 N   0  0  0  0  0  0  0  0  0  0  0  0
    1.2344  -13.7708   11.5033 C   0  0  0  0  0  0  0  0  0  0  0  0
    2.1889  -13.0729   10.8826 N   0  0  0  0  0  0  0  0  0  0  0  0
  1  2  1  0  0  0  0
  1  6  1  0  0  0  0
  2  3  2  0  0  0  0
  3  4  1  0  0  0  0
  4  5  2  0  0  0  0
  4 10  1  0  0  0  0
  5  6  1  0  0  0  0
  5  8  1  0  0  0  0
  6  7  2  0  0  0  0
  8  9  1  0  0  0  0
  9 10  2  0  0  0  0
M  END
>  <CHROM.1>
1.50036869,-11.40923099,12.02362621,-1.62106186,-0.70490454,-2.83469826

>  <Name>
ligand

>  <RI>
0

>  <Rbt.Current_Directory>
/home/itssahil/PROJECTS/Mol_Feturizer/Test_systems_manuscript/rnas/5c7w

>  <Rbt.Executable>
rbdock ($Id: //depot/dev/client3/rdock/2013.1/src/exe/rbdock.cxx#4 $)

>  <Rbt.Library>
libRbt.so (2013.1, Build901 2013/11/27)

>  <Rbt.Parameter_File>
/export/apps/rDock/src/rDock_2013.1_src/data/scripts/dock_solv.prm

>  <Rbt.Receptor>
prm/pocket_docking_8.prm

>  <SCORE>
-14.2776

>  <SCORE.INTER>
-14.2776

>  <SCORE.INTER.CONST>
1

>  <SCORE.INTER.POLAR>
0

>  <SCORE.INTER.ROT>
0

>  <SCORE.INTER.SOLV>
3.37295

>  <SCORE.INTER.VDW>
-14.2427

>  <SCORE.INTER.norm>
-1.42776

>  <SCORE.INTRA>
0

>  <SCORE.INTRA.DIHEDRAL>
0

>  <SCORE.INTRA.DIHEDRAL.0>
0

>  <SCORE.INTRA.POLAR>
0

>  <SCORE.INTRA.POLAR.0>
0

>  <SCORE.INTRA.REPUL>
0

>  <SCORE.INTRA.REPUL.0>
0

>  <SCORE.INTRA.SOLV>
0

>  <SCORE.INTRA.SOLV.lig_0>
-4.15853

>  <SCORE.INTRA.VDW>
0

>  <SCORE.INTRA.VDW.0>
0

>  <SCORE.INTRA.norm>
0

>  <SCORE.RESTR>
0

>  <SCORE.RESTR.CAVITY>
0

>  <SCORE.RESTR.norm>
0

>  <SCORE.SYSTEM>
0

>  <SCORE.SYSTEM.CONST>
0

>  <SCORE.SYSTEM.DIHEDRAL>
0

>  <SCORE.SYSTEM.SOLV>
0

>  <SCORE.SYSTEM.norm>
0

>  <SCORE.heavy>
10

>  <SCORE.norm>
-1.42776

>  <RMSD>
2.947

$$$$
ligand
 OpenBabel02271912153D
libRbt.so/2013.1/901 2013/11/27
 10 11  0  0  0  0  0  0  0  0999 V2000
    1.6549   -9.4655   12.4536 N   0  0  0  0  0  0  0  0  0  0  0  0
    2.5989   -9.5893   11.5457 C   0  0  0  0  0  0  0  0  0  0  0  0
    2.8193  -10.8397   10.9628 N   0  0  0  0  0  0  0  0  0  0  0  0
    2.0864  -11.8908   11.3226 C   0  0  0  0  0  0  0  0  0  0  0  0
    1.1416  -11.7639   12.2356 C   0  0  0  0  0  0  0  0  0  0  0  0
    0.9174  -10.5938   12.8041 C   0  0  0  0  0  0  0  0  0  0  0  0
    0.0422  -10.5005   13.6533 O   0  0  0  0  0  0  0  0  0  0  0  0
    0.5532  -12.9454   12.4133 N   0  0  0  0  0  0  0  0  0  0  0  0
    1.1433  -13.8054   11.5907 C   0  0  0  0  0  0  0  0  0  0  0  0
    2.0937  -13.1510   10.9184 N   0  0  0  0  0  0  0  0  0  0  0  0
  1  2  1  0  0  0  0
  1  6  1  0  0  0  0
  2  3  2  0  0  0  0
  3  4  1  0  0  0  0
  4  5  2  0  0  0  0
  4 10  1  0  0  0  0
  5  6  1  0  0  0  0
  5  8  1  0  0  0  0
  6  7  2  0  0  0  0
  8  9  1  0  0  0  0
  9 10  2  0  0  0  0
M  END
>  <CHROM.1>
1.47756028,-11.43452254,12.02192123,-1.58029344,-0.72686198,-2.84176737

>  <Name>
ligand

>  <RI>
0

>  <Rbt.Current_Directory>
/home/itssahil/PROJECTS/Mol_Feturizer/Test_systems_manuscript/rnas/5c7w

>  <Rbt.Executable>
rbdock ($Id: //depot/dev/client3/rdock/2013.1/src/exe/rbdock.cxx#4 $)

>  <Rbt.Library>
libRbt.so (2013.1, Build901 2013/11/27)

>  <Rbt.Parameter_File>
/export/apps/rDock/src/rDock_2013.1_src/data/scripts/dock_solv.prm

>  <Rbt.Receptor>
prm/blind_docking_20.prm

>  <SCORE>
-14.305

>  <SCORE.INTER>
-14.305

>  <SCORE.INTER.CONST>
1

>  <SCORE.INTER.POLAR>
0

>  <SCORE.INTER.ROT>
0

>  <SCORE.INTER.SOLV>
3.44802

>  <SCORE.INTER.VDW>
-14.286

>  <SCORE.INTER.norm>
-1.4305

>  <SCORE.INTRA>
0

>  <SCORE.INTRA.DIHEDRAL>
0

>  <SCORE.INTRA.DIHEDRAL.0>
0

>  <SCORE.INTRA.POLAR>
0

>  <SCORE.INTRA.POLAR.0>
0

>  <SCORE.INTRA.REPUL>
0

>  <SCORE.INTRA.REPUL.0>
0

>  <SCORE.INTRA.SOLV>
0

>  <SCORE.INTRA.SOLV.lig_0>
-4.15853

>  <SCORE.INTRA.VDW>
0

>  <SCORE.INTRA.VDW.0>
0

>  <SCORE.INTRA.norm>
0

>  <SCORE.RESTR>
0

>  <SCORE.RESTR.CAVITY>
0

>  <SCORE.RESTR.norm>
0

>  <SCORE.SYSTEM>
0

>  <SCORE.SYSTEM.CONST>
0

>  <SCORE.SYSTEM.DIHEDRAL>
0

>  <SCORE.SYSTEM.SOLV>
0

>  <SCORE.SYSTEM.norm>
0

>  <SCORE.heavy>
10

>  <SCORE.norm>
-1.4305

>  <RMSD>
2.951

$$$$
ligand
 OpenBabel02271912153D
libRbt.so/2013.1/901 2013/11/27
 10 11  0  0  0  0  0  0  0  0999 V2000
    1.6370   -9.5790   12.3123 N   0  0  0  0  0  0  0  0  0  0  0  0
    2.5733   -9.7450   11.4033 C   0  0  0  0  0  0  0  0  0  0  0  0
    2.7897  -11.0214   10.8780 N   0  0  0  0  0  0  0  0  0  0  0  0
    2.0608  -12.0547   11.2932 C   0  0  0  0  0  0  0  0  0  0  0  0
    1.1237  -11.8853   12.2072 C   0  0  0  0  0  0  0  0  0  0  0  0
    0.9034  -10.6898   12.7219 C   0  0  0  0  0  0  0  0  0  0  0  0
    0.0353  -10.5570   13.5732 O   0  0  0  0  0  0  0  0  0  0  0  0
    0.5378  -13.0574   12.4454 N   0  0  0  0  0  0  0  0  0  0  0  0
    1.1216  -13.9549   11.6592 C   0  0  0  0  0  0  0  0  0  0  0  0
    2.0657  -13.3326   10.9487 N   0  0  0  0  0  0  0  0  0  0  0  0
  1  2  1  0  0  0  0
  1  6  1  0  0  0  0
  2  3  2  0  0  0  0
  3  4  1  0  0  0  0
  4  5  2  0  0  0  0
  4 10  1  0  0  0  0
  5  6  1  0  0  0  0
  5  8  1  0  0  0  0
  6  7  2  0  0  0  0
  8  9  1  0  0  0  0
  9 10  2  0  0  0  0
M  END
>  <CHROM.1>
1.45754069,-11.56623437,11.97542381,-1.57795149,-0.73523419,-2.88733282

>  <Name>
ligand

>  <RI>
0

>  <Rbt.Current_Directory>
/home/itssahil/PROJECTS/Mol_Feturizer/Test_systems_manuscript/rnas/5c7w

>  <Rbt.Executable>
rbdock ($Id: //depot/dev/client3/rdock/2013.1/src/exe/rbdock.cxx#4 $)

>  <Rbt.Library>
libRbt.so (2013.1, Build901 2013/11/27)

>  <Rbt.Parameter_File>
/export/apps/rDock/src/rDock_2013.1_src/data/scripts/dock_solv.prm

>  <Rbt.Receptor>
prm/pocket_docking_4.prm

>  <SCORE>
-14.2202

>  <SCORE.INTER>
-14.2202

>  <SCORE.INTER.CONST>
1

>  <SCORE.INTER.POLAR>
0

>  <SCORE.INTER.ROT>
0

>  <SCORE.INTER.SOLV>
3.40656

>  <SCORE.INTER.VDW>
-14.2156

>  <SCORE.INTER.norm>
-1.42202

>  <SCORE.INTRA>
0

>  <SCORE.INTRA.DIHEDRAL>
0

>  <SCORE.INTRA.DIHEDRAL.0>
0

>  <SCORE.INTRA.POLAR>
0

>  <SCORE.INTRA.POLAR.0>
0

>  <SCORE.INTRA.REPUL>
0

>  <SCORE.INTRA.REPUL.0>
0

>  <SCORE.INTRA.SOLV>
0

>  <SCORE.INTRA.SOLV.lig_0>
-4.15853

>  <SCORE.INTRA.VDW>
0

>  <SCORE.INTRA.VDW.0>
0

>  <SCORE.INTRA.norm>
0

>  <SCORE.RESTR>
0

>  <SCORE.RESTR.CAVITY>
0

>  <SCORE.RESTR.norm>
0

>  <SCORE.SYSTEM>
0

>  <SCORE.SYSTEM.CONST>
0

>  <SCORE.SYSTEM.DIHEDRAL>
0

>  <SCORE.SYSTEM.SOLV>
0

>  <SCORE.SYSTEM.norm>
0

>  <SCORE.heavy>
10

>  <SCORE.norm>
-1.42202

>  <RMSD>
2.954

$$$$
ligand
 OpenBabel02271912153D
libRbt.so/2013.1/901 2013/11/27
 10 11  0  0  0  0  0  0  0  0999 V2000
    1.6547   -9.3504   12.5488 N   0  0  0  0  0  0  0  0  0  0  0  0
    2.6016   -9.3880   11.6364 C   0  0  0  0  0  0  0  0  0  0  0  0
    2.8839  -10.6002   11.0016 N   0  0  0  0  0  0  0  0  0  0  0  0
    2.2062  -11.7013   11.3173 C   0  0  0  0  0  0  0  0  0  0  0  0
    1.2583  -11.6608   12.2350 C   0  0  0  0  0  0  0  0  0  0  0  0
    0.9762  -10.5284   12.8520 C   0  0  0  0  0  0  0  0  0  0  0  0
    0.0993  -10.5153   13.7045 O   0  0  0  0  0  0  0  0  0  0  0  0
    0.7310  -12.8771   12.3633 N   0  0  0  0  0  0  0  0  0  0  0  0
    1.3622  -13.6709   11.5053 C   0  0  0  0  0  0  0  0  0  0  0  0
    2.2766  -12.9416   10.8608 N   0  0  0  0  0  0  0  0  0  0  0  0
  1  2  1  0  0  0  0
  1  6  1  0  0  0  0
  2  3  2  0  0  0  0
  3  4  1  0  0  0  0
  4  5  2  0  0  0  0
  4 10  1  0  0  0  0
  5  6  1  0  0  0  0
  5  8  1  0  0  0  0
  6  7  2  0  0  0  0
  8  9  1  0  0  0  0
  9 10  2  0  0  0  0
M  END
>  <CHROM.1>
1.57654185,-11.30618409,12.03523014,-1.64531275,-0.74304311,-2.84355578

>  <Name>
ligand

>  <RI>
0

>  <Rbt.Current_Directory>
/home/itssahil/PROJECTS/Mol_Feturizer/Test_systems_manuscript/rnas/5c7w

>  <Rbt.Executable>
rbdock ($Id: //depot/dev/client3/rdock/2013.1/src/exe/rbdock.cxx#4 $)

>  <Rbt.Library>
libRbt.so (2013.1, Build901 2013/11/27)

>  <Rbt.Parameter_File>
/export/apps/rDock/src/rDock_2013.1_src/data/scripts/dock_solv.prm

>  <Rbt.Receptor>
prm/blind_docking_40.prm

>  <SCORE>
-14.3178

>  <SCORE.INTER>
-14.3178

>  <SCORE.INTER.CONST>
1

>  <SCORE.INTER.POLAR>
0

>  <SCORE.INTER.ROT>
0

>  <SCORE.INTER.SOLV>
3.54922

>  <SCORE.INTER.VDW>
-14.3283

>  <SCORE.INTER.norm>
-1.43178

>  <SCORE.INTRA>
0

>  <SCORE.INTRA.DIHEDRAL>
0

>  <SCORE.INTRA.DIHEDRAL.0>
0

>  <SCORE.INTRA.POLAR>
0

>  <SCORE.INTRA.POLAR.0>
0

>  <SCORE.INTRA.REPUL>
0

>  <SCORE.INTRA.REPUL.0>
0

>  <SCORE.INTRA.SOLV>
0

>  <SCORE.INTRA.SOLV.lig_0>
-4.15853

>  <SCORE.INTRA.VDW>
0

>  <SCORE.INTRA.VDW.0>
0

>  <SCORE.INTRA.norm>
0

>  <SCORE.RESTR>
0

>  <SCORE.RESTR.CAVITY>
0

>  <SCORE.RESTR.norm>
0

>  <SCORE.SYSTEM>
0

>  <SCORE.SYSTEM.CONST>
0

>  <SCORE.SYSTEM.DIHEDRAL>
0

>  <SCORE.SYSTEM.SOLV>
0

>  <SCORE.SYSTEM.norm>
0

>  <SCORE.heavy>
10

>  <SCORE.norm>
-1.43178

>  <RMSD>
2.972

$$$$
ligand
 OpenBabel02271912153D
libRbt.so/2013.1/901 2013/11/27
 10 11  0  0  0  0  0  0  0  0999 V2000
    2.7699  -10.4785   11.1268 N   0  0  0  0  0  0  0  0  0  0  0  0
    2.9162  -11.7199   10.7168 C   0  0  0  0  0  0  0  0  0  0  0  0
    2.0923  -12.7126   11.2530 N   0  0  0  0  0  0  0  0  0  0  0  0
    1.1745  -12.4071   12.1671 C   0  0  0  0  0  0  0  0  0  0  0  0
    1.0318  -11.1610   12.5783 C   0  0  0  0  0  0  0  0  0  0  0  0
    1.8014  -10.2060   12.0900 C   0  0  0  0  0  0  0  0  0  0  0  0
    1.6572   -9.0595   12.4907 O   0  0  0  0  0  0  0  0  0  0  0  0
    0.0537  -11.1148   13.4811 N   0  0  0  0  0  0  0  0  0  0  0  0
   -0.4128  -12.3510   13.6179 C   0  0  0  0  0  0  0  0  0  0  0  0
    0.2842  -13.1497   12.8055 N   0  0  0  0  0  0  0  0  0  0  0  0
  1  2  1  0  0  0  0
  1  6  1  0  0  0  0
  2  3  2  0  0  0  0
  3  4  1  0  0  0  0
  4  5  2  0  0  0  0
  4 10  1  0  0  0  0
  5  6  1  0  0  0  0
  5  8  1  0  0  0  0
  6  7  2  0  0  0  0
  8  9  1  0  0  0  0
  9 10  2  0  0  0  0
M  END
>  <CHROM.1>
1.34428368,-11.39009186,12.23650269,-0.45288222,-0.72930914,-2.91610283

>  <Name>
ligand

>  <RI>
0

>  <Rbt.Current_Directory>
/home/itssahil/PROJECTS/Mol_Feturizer/Test_systems_manuscript/rnas/5c7w

>  <Rbt.Executable>
rbdock ($Id: //depot/dev/client3/rdock/2013.1/src/exe/rbdock.cxx#4 $)

>  <Rbt.Library>
libRbt.so (2013.1, Build901 2013/11/27)

>  <Rbt.Parameter_File>
/export/apps/rDock/src/rDock_2013.1_src/data/scripts/dock_solv.prm

>  <Rbt.Receptor>
prm/blind_docking_100.prm

>  <SCORE>
-13.8216

>  <SCORE.INTER>
-13.8216

>  <SCORE.INTER.CONST>
1

>  <SCORE.INTER.POLAR>
0

>  <SCORE.INTER.ROT>
0

>  <SCORE.INTER.SOLV>
4.00889

>  <SCORE.INTER.VDW>
-14.1507

>  <SCORE.INTER.norm>
-1.38216

>  <SCORE.INTRA>
0

>  <SCORE.INTRA.DIHEDRAL>
0

>  <SCORE.INTRA.DIHEDRAL.0>
0

>  <SCORE.INTRA.POLAR>
0

>  <SCORE.INTRA.POLAR.0>
0

>  <SCORE.INTRA.REPUL>
0

>  <SCORE.INTRA.REPUL.0>
0

>  <SCORE.INTRA.SOLV>
0

>  <SCORE.INTRA.SOLV.lig_0>
-4.15853

>  <SCORE.INTRA.VDW>
0

>  <SCORE.INTRA.VDW.0>
0

>  <SCORE.INTRA.norm>
0

>  <SCORE.RESTR>
0

>  <SCORE.RESTR.CAVITY>
0

>  <SCORE.RESTR.norm>
0

>  <SCORE.SYSTEM>
0

>  <SCORE.SYSTEM.CONST>
0

>  <SCORE.SYSTEM.DIHEDRAL>
0

>  <SCORE.SYSTEM.SOLV>
0

>  <SCORE.SYSTEM.norm>
0

>  <SCORE.heavy>
10

>  <SCORE.norm>
-1.38216

>  <RMSD>
2.977

$$$$
ligand
 OpenBabel02271912153D
libRbt.so/2013.1/901 2013/11/27
 10 11  0  0  0  0  0  0  0  0999 V2000
    1.6860   -9.3316   12.5232 N   0  0  0  0  0  0  0  0  0  0  0  0
    2.6327   -9.3907   11.6115 C   0  0  0  0  0  0  0  0  0  0  0  0
    2.9080  -10.6154   10.9983 N   0  0  0  0  0  0  0  0  0  0  0  0
    2.2242  -11.7069   11.3334 C   0  0  0  0  0  0  0  0  0  0  0  0
    1.2767  -11.6450   12.2502 C   0  0  0  0  0  0  0  0  0  0  0  0
    1.0010  -10.5003   12.8472 C   0  0  0  0  0  0  0  0  0  0  0  0
    0.1244  -10.4672   13.6993 O   0  0  0  0  0  0  0  0  0  0  0  0
    0.7427  -12.8558   12.4000 N   0  0  0  0  0  0  0  0  0  0  0  0
    1.3692  -13.6682   11.5562 C   0  0  0  0  0  0  0  0  0  0  0  0
    2.2876  -12.9554   10.8988 N   0  0  0  0  0  0  0  0  0  0  0  0
  1  2  1  0  0  0  0
  1  6  1  0  0  0  0
  2  3  2  0  0  0  0
  3  4  1  0  0  0  0
  4  5  2  0  0  0  0
  4 10  1  0  0  0  0
  5  6  1  0  0  0  0
  5  8  1  0  0  0  0
  6  7  2  0  0  0  0
  8  9  1  0  0  0  0
  9 10  2  0  0  0  0
M  END
>  <CHROM.1>
1.59689548,-11.29569622,12.04422282,-1.63800715,-0.74150378,-2.85627856

>  <Name>
ligand

>  <RI>
0

>  <Rbt.Current_Directory>
/home/itssahil/PROJECTS/Mol_Feturizer/Test_systems_manuscript/rnas/5c7w

>  <Rbt.Executable>
rbdock ($Id: //depot/dev/client3/rdock/2013.1/src/exe/rbdock.cxx#4 $)

>  <Rbt.Library>
libRbt.so (2013.1, Build901 2013/11/27)

>  <Rbt.Parameter_File>
/export/apps/rDock/src/rDock_2013.1_src/data/scripts/dock_solv.prm

>  <Rbt.Receptor>
prm/blind_docking_40.prm

>  <SCORE>
-14.2819

>  <SCORE.INTER>
-14.2819

>  <SCORE.INTER.CONST>
1

>  <SCORE.INTER.POLAR>
0

>  <SCORE.INTER.ROT>
0

>  <SCORE.INTER.SOLV>
3.57152

>  <SCORE.INTER.VDW>
-14.3118

>  <SCORE.INTER.norm>
-1.42819

>  <SCORE.INTRA>
0

>  <SCORE.INTRA.DIHEDRAL>
0

>  <SCORE.INTRA.DIHEDRAL.0>
0

>  <SCORE.INTRA.POLAR>
0

>  <SCORE.INTRA.POLAR.0>
0

>  <SCORE.INTRA.REPUL>
0

>  <SCORE.INTRA.REPUL.0>
0

>  <SCORE.INTRA.SOLV>
0

>  <SCORE.INTRA.SOLV.lig_0>
-4.15853

>  <SCORE.INTRA.VDW>
0

>  <SCORE.INTRA.VDW.0>
0

>  <SCORE.INTRA.norm>
0

>  <SCORE.RESTR>
0

>  <SCORE.RESTR.CAVITY>
0

>  <SCORE.RESTR.norm>
0

>  <SCORE.SYSTEM>
0

>  <SCORE.SYSTEM.CONST>
0

>  <SCORE.SYSTEM.DIHEDRAL>
0

>  <SCORE.SYSTEM.SOLV>
0

>  <SCORE.SYSTEM.norm>
0

>  <SCORE.heavy>
10

>  <SCORE.norm>
-1.42819

>  <RMSD>
2.980

$$$$
ligand
 OpenBabel02271912153D
libRbt.so/2013.1/901 2013/11/27
 10 11  0  0  0  0  0  0  0  0999 V2000
    1.7200   -9.3544   12.5175 N   0  0  0  0  0  0  0  0  0  0  0  0
    2.7025   -9.4272   11.6457 C   0  0  0  0  0  0  0  0  0  0  0  0
    2.9697  -10.6504   11.0258 N   0  0  0  0  0  0  0  0  0  0  0  0
    2.2424  -11.7268   11.3151 C   0  0  0  0  0  0  0  0  0  0  0  0
    1.2589  -11.6511   12.1922 C   0  0  0  0  0  0  0  0  0  0  0  0
    0.9899  -10.5077   12.7945 C   0  0  0  0  0  0  0  0  0  0  0  0
    0.0791  -10.4619   13.6096 O   0  0  0  0  0  0  0  0  0  0  0  0
    0.6858  -12.8484   12.3008 N   0  0  0  0  0  0  0  0  0  0  0  0
    1.3250  -13.6661   11.4717 C   0  0  0  0  0  0  0  0  0  0  0  0
    2.2897  -12.9704   10.8645 N   0  0  0  0  0  0  0  0  0  0  0  0
  1  2  1  0  0  0  0
  1  6  1  0  0  0  0
  2  3  2  0  0  0  0
  3  4  1  0  0  0  0
  4  5  2  0  0  0  0
  4 10  1  0  0  0  0
  5  6  1  0  0  0  0
  5  8  1  0  0  0  0
  6  7  2  0  0  0  0
  8  9  1  0  0  0  0
  9 10  2  0  0  0  0
M  END
>  <CHROM.1>
1.59710488,-11.30814997,12.00523808,-1.61910828,-0.69293058,-2.82910619

>  <Name>
ligand

>  <RI>
0

>  <Rbt.Current_Directory>
/home/itssahil/PROJECTS/Mol_Feturizer/Test_systems_manuscript/rnas/5c7w

>  <Rbt.Executable>
rbdock ($Id: //depot/dev/client3/rdock/2013.1/src/exe/rbdock.cxx#4 $)

>  <Rbt.Library>
libRbt.so (2013.1, Build901 2013/11/27)

>  <Rbt.Parameter_File>
/export/apps/rDock/src/rDock_2013.1_src/data/scripts/dock_solv.prm

>  <Rbt.Receptor>
prm/pocket_docking_6.prm

>  <SCORE>
-14.2316

>  <SCORE.INTER>
-14.2316

>  <SCORE.INTER.CONST>
1

>  <SCORE.INTER.POLAR>
0

>  <SCORE.INTER.ROT>
0

>  <SCORE.INTER.SOLV>
3.45437

>  <SCORE.INTER.VDW>
-14.2392

>  <SCORE.INTER.norm>
-1.42316

>  <SCORE.INTRA>
0

>  <SCORE.INTRA.DIHEDRAL>
0

>  <SCORE.INTRA.DIHEDRAL.0>
0

>  <SCORE.INTRA.POLAR>
0

>  <SCORE.INTRA.POLAR.0>
0

>  <SCORE.INTRA.REPUL>
0

>  <SCORE.INTRA.REPUL.0>
0

>  <SCORE.INTRA.SOLV>
0

>  <SCORE.INTRA.SOLV.lig_0>
-4.15853

>  <SCORE.INTRA.VDW>
0

>  <SCORE.INTRA.VDW.0>
0

>  <SCORE.INTRA.norm>
0

>  <SCORE.RESTR>
0

>  <SCORE.RESTR.CAVITY>
0

>  <SCORE.RESTR.norm>
0

>  <SCORE.SYSTEM>
0

>  <SCORE.SYSTEM.CONST>
0

>  <SCORE.SYSTEM.DIHEDRAL>
0

>  <SCORE.SYSTEM.SOLV>
0

>  <SCORE.SYSTEM.norm>
0

>  <SCORE.heavy>
10

>  <SCORE.norm>
-1.42316

>  <RMSD>
2.982

$$$$
ligand
 OpenBabel02271912153D
libRbt.so/2013.1/901 2013/11/27
 10 11  0  0  0  0  0  0  0  0999 V2000
    1.6888   -9.3258   12.5001 N   0  0  0  0  0  0  0  0  0  0  0  0
    2.6323   -9.3945   11.5860 C   0  0  0  0  0  0  0  0  0  0  0  0
    2.9031  -10.6249   10.9821 N   0  0  0  0  0  0  0  0  0  0  0  0
    2.2181  -11.7121   11.3285 C   0  0  0  0  0  0  0  0  0  0  0  0
    1.2737  -11.6405   12.2478 C   0  0  0  0  0  0  0  0  0  0  0  0
    1.0024  -10.4903   12.8361 C   0  0  0  0  0  0  0  0  0  0  0  0
    0.1285  -10.4482   13.6907 O   0  0  0  0  0  0  0  0  0  0  0  0
    0.7376  -12.8489   12.4094 N   0  0  0  0  0  0  0  0  0  0  0  0
    1.3597  -13.6696   11.5704 C   0  0  0  0  0  0  0  0  0  0  0  0
    2.2775  -12.9644   10.9042 N   0  0  0  0  0  0  0  0  0  0  0  0
  1  2  1  0  0  0  0
  1  6  1  0  0  0  0
  2  3  2  0  0  0  0
  3  4  1  0  0  0  0
  4  5  2  0  0  0  0
  4 10  1  0  0  0  0
  5  6  1  0  0  0  0
  5  8  1  0  0  0  0
  6  7  2  0  0  0  0
  8  9  1  0  0  0  0
  9 10  2  0  0  0  0
M  END
>  <CHROM.1>
1.59394330,-11.29363651,12.03788312,-1.63402690,-0.74400842,-2.86194571

>  <Name>
ligand

>  <RI>
0

>  <Rbt.Current_Directory>
/home/itssahil/PROJECTS/Mol_Feturizer/Test_systems_manuscript/rnas/5c7w

>  <Rbt.Executable>
rbdock ($Id: //depot/dev/client3/rdock/2013.1/src/exe/rbdock.cxx#4 $)

>  <Rbt.Library>
libRbt.so (2013.1, Build901 2013/11/27)

>  <Rbt.Parameter_File>
/export/apps/rDock/src/rDock_2013.1_src/data/scripts/dock_solv.prm

>  <Rbt.Receptor>
prm/pocket_docking_7.prm

>  <SCORE>
-14.2697

>  <SCORE.INTER>
-14.2697

>  <SCORE.INTER.CONST>
1

>  <SCORE.INTER.POLAR>
0

>  <SCORE.INTER.ROT>
0

>  <SCORE.INTER.SOLV>
3.57898

>  <SCORE.INTER.VDW>
-14.3061

>  <SCORE.INTER.norm>
-1.42697

>  <SCORE.INTRA>
0

>  <SCORE.INTRA.DIHEDRAL>
0

>  <SCORE.INTRA.DIHEDRAL.0>
0

>  <SCORE.INTRA.POLAR>
0

>  <SCORE.INTRA.POLAR.0>
0

>  <SCORE.INTRA.REPUL>
0

>  <SCORE.INTRA.REPUL.0>
0

>  <SCORE.INTRA.SOLV>
0

>  <SCORE.INTRA.SOLV.lig_0>
-4.15853

>  <SCORE.INTRA.VDW>
0

>  <SCORE.INTRA.VDW.0>
0

>  <SCORE.INTRA.norm>
0

>  <SCORE.RESTR>
0

>  <SCORE.RESTR.CAVITY>
0

>  <SCORE.RESTR.norm>
0

>  <SCORE.SYSTEM>
0

>  <SCORE.SYSTEM.CONST>
0

>  <SCORE.SYSTEM.DIHEDRAL>
0

>  <SCORE.SYSTEM.SOLV>
0

>  <SCORE.SYSTEM.norm>
0

>  <SCORE.heavy>
10

>  <SCORE.norm>
-1.42697

>  <RMSD>
2.982

$$$$
ligand
 OpenBabel02271912153D
libRbt.so/2013.1/901 2013/11/27
 10 11  0  0  0  0  0  0  0  0999 V2000
    1.6930   -9.3378   12.5232 N   0  0  0  0  0  0  0  0  0  0  0  0
    2.6441   -9.3844   11.6155 C   0  0  0  0  0  0  0  0  0  0  0  0
    2.9192  -10.5996   10.9834 N   0  0  0  0  0  0  0  0  0  0  0  0
    2.2307  -11.6945   11.2969 C   0  0  0  0  0  0  0  0  0  0  0  0
    1.2787  -11.6451   12.2099 C   0  0  0  0  0  0  0  0  0  0  0  0
    1.0032  -10.5097   12.8244 C   0  0  0  0  0  0  0  0  0  0  0  0
    0.1223  -10.4882   13.6726 O   0  0  0  0  0  0  0  0  0  0  0  0
    0.7407  -12.8568   12.3370 N   0  0  0  0  0  0  0  0  0  0  0  0
    1.3693  -13.6568   11.4830 C   0  0  0  0  0  0  0  0  0  0  0  0
    2.2929  -12.9359   10.8421 N   0  0  0  0  0  0  0  0  0  0  0  0
  1  2  1  0  0  0  0
  1  6  1  0  0  0  0
  2  3  2  0  0  0  0
  3  4  1  0  0  0  0
  4  5  2  0  0  0  0
  4 10  1  0  0  0  0
  5  6  1  0  0  0  0
  5  8  1  0  0  0  0
  6  7  2  0  0  0  0
  8  9  1  0  0  0  0
  9 10  2  0  0  0  0
M  END
>  <CHROM.1>
1.60095271,-11.29338313,12.01137458,-1.63640863,-0.73589205,-2.83865175

>  <Name>
ligand

>  <RI>
0

>  <Rbt.Current_Directory>
/home/itssahil/PROJECTS/Mol_Feturizer/Test_systems_manuscript/rnas/5c7w

>  <Rbt.Executable>
rbdock ($Id: //depot/dev/client3/rdock/2013.1/src/exe/rbdock.cxx#4 $)

>  <Rbt.Library>
libRbt.so (2013.1, Build901 2013/11/27)

>  <Rbt.Parameter_File>
/export/apps/rDock/src/rDock_2013.1_src/data/scripts/dock_solv.prm

>  <Rbt.Receptor>
prm/blind_docking_80.prm

>  <SCORE>
-14.2984

>  <SCORE.INTER>
-14.2984

>  <SCORE.INTER.CONST>
1

>  <SCORE.INTER.POLAR>
0

>  <SCORE.INTER.ROT>
0

>  <SCORE.INTER.SOLV>
3.54443

>  <SCORE.INTER.VDW>
-14.3137

>  <SCORE.INTER.norm>
-1.42984

>  <SCORE.INTRA>
0

>  <SCORE.INTRA.DIHEDRAL>
0

>  <SCORE.INTRA.DIHEDRAL.0>
0

>  <SCORE.INTRA.POLAR>
0

>  <SCORE.INTRA.POLAR.0>
0

>  <SCORE.INTRA.REPUL>
0

>  <SCORE.INTRA.REPUL.0>
0

>  <SCORE.INTRA.SOLV>
0

>  <SCORE.INTRA.SOLV.lig_0>
-4.15853

>  <SCORE.INTRA.VDW>
0

>  <SCORE.INTRA.VDW.0>
0

>  <SCORE.INTRA.norm>
0

>  <SCORE.RESTR>
0

>  <SCORE.RESTR.CAVITY>
0

>  <SCORE.RESTR.norm>
0

>  <SCORE.SYSTEM>
0

>  <SCORE.SYSTEM.CONST>
0

>  <SCORE.SYSTEM.DIHEDRAL>
0

>  <SCORE.SYSTEM.SOLV>
0

>  <SCORE.SYSTEM.norm>
0

>  <SCORE.heavy>
10

>  <SCORE.norm>
-1.42984

>  <RMSD>
2.984

$$$$
ligand
 OpenBabel02271912153D
libRbt.so/2013.1/901 2013/11/27
 10 11  0  0  0  0  0  0  0  0999 V2000
    1.6884   -9.2869   12.5748 N   0  0  0  0  0  0  0  0  0  0  0  0
    2.6591   -9.3222   11.6877 C   0  0  0  0  0  0  0  0  0  0  0  0
    2.9476  -10.5292   11.0459 N   0  0  0  0  0  0  0  0  0  0  0  0
    2.2520  -11.6277   11.3299 C   0  0  0  0  0  0  0  0  0  0  0  0
    1.2802  -11.5896   12.2223 C   0  0  0  0  0  0  0  0  0  0  0  0
    0.9917  -10.4621   12.8454 C   0  0  0  0  0  0  0  0  0  0  0  0
    0.0924  -10.4511   13.6743 O   0  0  0  0  0  0  0  0  0  0  0  0
    0.7390  -12.8025   12.3216 N   0  0  0  0  0  0  0  0  0  0  0  0
    1.3858  -13.5917   11.4712 C   0  0  0  0  0  0  0  0  0  0  0  0
    2.3236  -12.8631   10.8603 N   0  0  0  0  0  0  0  0  0  0  0  0
  1  2  1  0  0  0  0
  1  6  1  0  0  0  0
  2  3  2  0  0  0  0
  3  4  1  0  0  0  0
  4  5  2  0  0  0  0
  4 10  1  0  0  0  0
  5  6  1  0  0  0  0
  5  8  1  0  0  0  0
  6  7  2  0  0  0  0
  8  9  1  0  0  0  0
  9 10  2  0  0  0  0
M  END
>  <CHROM.1>
1.60681155,-11.23552145,12.03550783,-1.64454936,-0.71481248,-2.83094662

>  <Name>
ligand

>  <RI>
0

>  <Rbt.Current_Directory>
/home/itssahil/PROJECTS/Mol_Feturizer/Test_systems_manuscript/rnas/5c7w

>  <Rbt.Executable>
rbdock ($Id: //depot/dev/client3/rdock/2013.1/src/exe/rbdock.cxx#4 $)

>  <Rbt.Library>
libRbt.so (2013.1, Build901 2013/11/27)

>  <Rbt.Parameter_File>
/export/apps/rDock/src/rDock_2013.1_src/data/scripts/dock_solv.prm

>  <Rbt.Receptor>
prm/blind_docking_60.prm

>  <SCORE>
-14.3212

>  <SCORE.INTER>
-14.3212

>  <SCORE.INTER.CONST>
1

>  <SCORE.INTER.POLAR>
0

>  <SCORE.INTER.ROT>
0

>  <SCORE.INTER.SOLV>
3.52747

>  <SCORE.INTER.VDW>
-14.3233

>  <SCORE.INTER.norm>
-1.43212

>  <SCORE.INTRA>
0

>  <SCORE.INTRA.DIHEDRAL>
0

>  <SCORE.INTRA.DIHEDRAL.0>
0

>  <SCORE.INTRA.POLAR>
0

>  <SCORE.INTRA.POLAR.0>
0

>  <SCORE.INTRA.REPUL>
0

>  <SCORE.INTRA.REPUL.0>
0

>  <SCORE.INTRA.SOLV>
0

>  <SCORE.INTRA.SOLV.lig_0>
-4.15853

>  <SCORE.INTRA.VDW>
0

>  <SCORE.INTRA.VDW.0>
0

>  <SCORE.INTRA.norm>
0

>  <SCORE.RESTR>
0

>  <SCORE.RESTR.CAVITY>
0

>  <SCORE.RESTR.norm>
0

>  <SCORE.SYSTEM>
0

>  <SCORE.SYSTEM.CONST>
0

>  <SCORE.SYSTEM.DIHEDRAL>
0

>  <SCORE.SYSTEM.SOLV>
0

>  <SCORE.SYSTEM.norm>
0

>  <SCORE.heavy>
10

>  <SCORE.norm>
-1.43212

>  <RMSD>
2.985

$$$$
ligand
 OpenBabel02271912153D
libRbt.so/2013.1/901 2013/11/27
 10 11  0  0  0  0  0  0  0  0999 V2000
    1.8296   -9.8150   12.0776 N   0  0  0  0  0  0  0  0  0  0  0  0
    2.6953  -10.1653   11.1511 C   0  0  0  0  0  0  0  0  0  0  0  0
    2.7451  -11.4994   10.7393 N   0  0  0  0  0  0  0  0  0  0  0  0
    1.9303  -12.4031   11.2784 C   0  0  0  0  0  0  0  0  0  0  0  0
    1.0645  -12.0490   12.2097 C   0  0  0  0  0  0  0  0  0  0  0  0
    1.0014  -10.7954   12.6187 C   0  0  0  0  0  0  0  0  0  0  0  0
    0.1970  -10.4908   13.4882 O   0  0  0  0  0  0  0  0  0  0  0  0
    0.3676  -13.1218   12.5800 N   0  0  0  0  0  0  0  0  0  0  0  0
    0.8101  -14.1455   11.8584 C   0  0  0  0  0  0  0  0  0  0  0  0
    1.7791  -13.6989   11.0552 N   0  0  0  0  0  0  0  0  0  0  0  0
  1  2  1  0  0  0  0
  1  6  1  0  0  0  0
  2  3  2  0  0  0  0
  3  4  1  0  0  0  0
  4  5  2  0  0  0  0
  4 10  1  0  0  0  0
  5  6  1  0  0  0  0
  5  8  1  0  0  0  0
  6  7  2  0  0  0  0
  8  9  1  0  0  0  0
  9 10  2  0  0  0  0
M  END
>  <CHROM.1>
1.41880308,-11.79132750,11.93575640,-1.41632134,-0.75041440,-2.86941270

>  <Name>
ligand

>  <RI>
0

>  <Rbt.Current_Directory>
/home/itssahil/PROJECTS/Mol_Feturizer/Test_systems_manuscript/rnas/5c7w

>  <Rbt.Executable>
rbdock ($Id: //depot/dev/client3/rdock/2013.1/src/exe/rbdock.cxx#4 $)

>  <Rbt.Library>
libRbt.so (2013.1, Build901 2013/11/27)

>  <Rbt.Parameter_File>
/export/apps/rDock/src/rDock_2013.1_src/data/scripts/dock_solv.prm

>  <Rbt.Receptor>
prm/pocket_docking_5.prm

>  <SCORE>
-14.0254

>  <SCORE.INTER>
-14.0254

>  <SCORE.INTER.CONST>
1

>  <SCORE.INTER.POLAR>
0

>  <SCORE.INTER.ROT>
0

>  <SCORE.INTER.SOLV>
3.46005

>  <SCORE.INTER.VDW>
-14.1036

>  <SCORE.INTER.norm>
-1.40254

>  <SCORE.INTRA>
0

>  <SCORE.INTRA.DIHEDRAL>
0

>  <SCORE.INTRA.DIHEDRAL.0>
0

>  <SCORE.INTRA.POLAR>
0

>  <SCORE.INTRA.POLAR.0>
0

>  <SCORE.INTRA.REPUL>
0

>  <SCORE.INTRA.REPUL.0>
0

>  <SCORE.INTRA.SOLV>
0

>  <SCORE.INTRA.SOLV.lig_0>
-4.15853

>  <SCORE.INTRA.VDW>
0

>  <SCORE.INTRA.VDW.0>
0

>  <SCORE.INTRA.norm>
0

>  <SCORE.RESTR>
0

>  <SCORE.RESTR.CAVITY>
0

>  <SCORE.RESTR.norm>
0

>  <SCORE.SYSTEM>
0

>  <SCORE.SYSTEM.CONST>
0

>  <SCORE.SYSTEM.DIHEDRAL>
0

>  <SCORE.SYSTEM.SOLV>
0

>  <SCORE.SYSTEM.norm>
0

>  <SCORE.heavy>
10

>  <SCORE.norm>
-1.40254

>  <RMSD>
2.988

$$$$
ligand
 OpenBabel02271912153D
libRbt.so/2013.1/901 2013/11/27
 10 11  0  0  0  0  0  0  0  0999 V2000
    1.6877   -9.2704   12.5941 N   0  0  0  0  0  0  0  0  0  0  0  0
    2.6626   -9.2873   11.7111 C   0  0  0  0  0  0  0  0  0  0  0  0
    2.9462  -10.4776   11.0368 N   0  0  0  0  0  0  0  0  0  0  0  0
    2.2419  -11.5790   11.2863 C   0  0  0  0  0  0  0  0  0  0  0  0
    1.2658  -11.5594   12.1747 C   0  0  0  0  0  0  0  0  0  0  0  0
    0.9817  -10.4480   12.8280 C   0  0  0  0  0  0  0  0  0  0  0  0
    0.0784  -10.4543   13.6524 O   0  0  0  0  0  0  0  0  0  0  0  0
    0.7160  -12.7709   12.2370 N   0  0  0  0  0  0  0  0  0  0  0  0
    1.3619  -13.5401   11.3678 C   0  0  0  0  0  0  0  0  0  0  0  0
    2.3076  -12.8010   10.7823 N   0  0  0  0  0  0  0  0  0  0  0  0
  1  2  1  0  0  0  0
  1  6  1  0  0  0  0
  2  3  2  0  0  0  0
  3  4  1  0  0  0  0
  4  5  2  0  0  0  0
  4 10  1  0  0  0  0
  5  6  1  0  0  0  0
  5  8  1  0  0  0  0
  6  7  2  0  0  0  0
  8  9  1  0  0  0  0
  9 10  2  0  0  0  0
M  END
>  <CHROM.1>
1.59578141,-11.20243222,11.99953682,-1.63821410,-0.70791359,-2.79855968

>  <Name>
ligand

>  <RI>
0

>  <Rbt.Current_Directory>
/home/itssahil/PROJECTS/Mol_Feturizer/Test_systems_manuscript/rnas/5c7w

>  <Rbt.Executable>
rbdock ($Id: //depot/dev/client3/rdock/2013.1/src/exe/rbdock.cxx#4 $)

>  <Rbt.Library>
libRbt.so (2013.1, Build901 2013/11/27)

>  <Rbt.Parameter_File>
/export/apps/rDock/src/rDock_2013.1_src/data/scripts/dock_solv.prm

>  <Rbt.Receptor>
prm/pocket_docking_8.prm

>  <SCORE>
-14.2603

>  <SCORE.INTER>
-14.2603

>  <SCORE.INTER.CONST>
1

>  <SCORE.INTER.POLAR>
0

>  <SCORE.INTER.ROT>
0

>  <SCORE.INTER.SOLV>
3.52425

>  <SCORE.INTER.VDW>
-14.2816

>  <SCORE.INTER.norm>
-1.42603

>  <SCORE.INTRA>
0

>  <SCORE.INTRA.DIHEDRAL>
0

>  <SCORE.INTRA.DIHEDRAL.0>
0

>  <SCORE.INTRA.POLAR>
0

>  <SCORE.INTRA.POLAR.0>
0

>  <SCORE.INTRA.REPUL>
0

>  <SCORE.INTRA.REPUL.0>
0

>  <SCORE.INTRA.SOLV>
0

>  <SCORE.INTRA.SOLV.lig_0>
-4.15853

>  <SCORE.INTRA.VDW>
0

>  <SCORE.INTRA.VDW.0>
0

>  <SCORE.INTRA.norm>
0

>  <SCORE.RESTR>
0

>  <SCORE.RESTR.CAVITY>
0

>  <SCORE.RESTR.norm>
0

>  <SCORE.SYSTEM>
0

>  <SCORE.SYSTEM.CONST>
0

>  <SCORE.SYSTEM.DIHEDRAL>
0

>  <SCORE.SYSTEM.SOLV>
0

>  <SCORE.SYSTEM.norm>
0

>  <SCORE.heavy>
10

>  <SCORE.norm>
-1.42603

>  <RMSD>
2.988

$$$$
ligand
 OpenBabel02271912153D
libRbt.so/2013.1/901 2013/11/27
 10 11  0  0  0  0  0  0  0  0999 V2000
    1.8477   -9.8581   12.0659 N   0  0  0  0  0  0  0  0  0  0  0  0
    2.7132  -10.2272   11.1465 C   0  0  0  0  0  0  0  0  0  0  0  0
    2.7565  -11.5677   10.7552 N   0  0  0  0  0  0  0  0  0  0  0  0
    1.9358  -12.4586   11.3064 C   0  0  0  0  0  0  0  0  0  0  0  0
    1.0701  -12.0856   12.2305 C   0  0  0  0  0  0  0  0  0  0  0  0
    1.0131  -10.8256   12.6202 C   0  0  0  0  0  0  0  0  0  0  0  0
    0.2088  -10.5034   13.4833 O   0  0  0  0  0  0  0  0  0  0  0  0
    0.3667  -13.1489   12.6158 N   0  0  0  0  0  0  0  0  0  0  0  0
    0.8050  -14.1858   11.9107 C   0  0  0  0  0  0  0  0  0  0  0  0
    1.7779  -13.7568   11.1027 N   0  0  0  0  0  0  0  0  0  0  0  0
  1  2  1  0  0  0  0
  1  6  1  0  0  0  0
  2  3  2  0  0  0  0
  3  4  1  0  0  0  0
  4  5  2  0  0  0  0
  4 10  1  0  0  0  0
  5  6  1  0  0  0  0
  5  8  1  0  0  0  0
  6  7  2  0  0  0  0
  8  9  1  0  0  0  0
  9 10  2  0  0  0  0
M  END
>  <CHROM.1>
1.42638868,-11.83409885,11.95336120,-1.40984247,-0.74712017,-2.88026999

>  <Name>
ligand

>  <RI>
0

>  <Rbt.Current_Directory>
/home/itssahil/PROJECTS/Mol_Feturizer/Test_systems_manuscript/rnas/5c7w

>  <Rbt.Executable>
rbdock ($Id: //depot/dev/client3/rdock/2013.1/src/exe/rbdock.cxx#4 $)

>  <Rbt.Library>
libRbt.so (2013.1, Build901 2013/11/27)

>  <Rbt.Parameter_File>
/export/apps/rDock/src/rDock_2013.1_src/data/scripts/dock_solv.prm

>  <Rbt.Receptor>
prm/pocket_docking_8.prm

>  <SCORE>
-14.058

>  <SCORE.INTER>
-14.058

>  <SCORE.INTER.CONST>
1

>  <SCORE.INTER.POLAR>
0

>  <SCORE.INTER.ROT>
0

>  <SCORE.INTER.SOLV>
3.43779

>  <SCORE.INTER.VDW>
-14.1179

>  <SCORE.INTER.norm>
-1.4058

>  <SCORE.INTRA>
0

>  <SCORE.INTRA.DIHEDRAL>
0

>  <SCORE.INTRA.DIHEDRAL.0>
0

>  <SCORE.INTRA.POLAR>
0

>  <SCORE.INTRA.POLAR.0>
0

>  <SCORE.INTRA.REPUL>
0

>  <SCORE.INTRA.REPUL.0>
0

>  <SCORE.INTRA.SOLV>
0

>  <SCORE.INTRA.SOLV.lig_0>
-4.15853

>  <SCORE.INTRA.VDW>
0

>  <SCORE.INTRA.VDW.0>
0

>  <SCORE.INTRA.norm>
0

>  <SCORE.RESTR>
0

>  <SCORE.RESTR.CAVITY>
0

>  <SCORE.RESTR.norm>
0

>  <SCORE.SYSTEM>
0

>  <SCORE.SYSTEM.CONST>
0

>  <SCORE.SYSTEM.DIHEDRAL>
0

>  <SCORE.SYSTEM.SOLV>
0

>  <SCORE.SYSTEM.norm>
0

>  <SCORE.heavy>
10

>  <SCORE.norm>
-1.4058

>  <RMSD>
2.992

$$$$
ligand
 OpenBabel02271912153D
libRbt.so/2013.1/901 2013/11/27
 10 11  0  0  0  0  0  0  0  0999 V2000
    1.6995   -9.2601   12.5459 N   0  0  0  0  0  0  0  0  0  0  0  0
    2.6564   -9.2841   11.6434 C   0  0  0  0  0  0  0  0  0  0  0  0
    2.9492  -10.4879   10.9976 N   0  0  0  0  0  0  0  0  0  0  0  0
    2.2717  -11.5947   11.2930 C   0  0  0  0  0  0  0  0  0  0  0  0
    1.3139  -11.5679   12.2009 C   0  0  0  0  0  0  0  0  0  0  0  0
    1.0216  -10.4436   12.8280 C   0  0  0  0  0  0  0  0  0  0  0  0
    0.1356  -10.4431   13.6711 O   0  0  0  0  0  0  0  0  0  0  0  0
    0.7892  -12.7872   12.3093 N   0  0  0  0  0  0  0  0  0  0  0  0
    1.4320  -13.5689   11.4490 C   0  0  0  0  0  0  0  0  0  0  0  0
    2.3510  -12.8293   10.8229 N   0  0  0  0  0  0  0  0  0  0  0  0
  1  2  1  0  0  0  0
  1  6  1  0  0  0  0
  2  3  2  0  0  0  0
  3  4  1  0  0  0  0
  4  5  2  0  0  0  0
  4 10  1  0  0  0  0
  5  6  1  0  0  0  0
  5  8  1  0  0  0  0
  6  7  2  0  0  0  0
  8  9  1  0  0  0  0
  9 10  2  0  0  0  0
M  END
>  <CHROM.1>
1.63314854,-11.20994548,12.00871367,-1.65366236,-0.73368641,-2.83748616

>  <Name>
ligand

>  <RI>
0

>  <Rbt.Current_Directory>
/home/itssahil/PROJECTS/Mol_Feturizer/Test_systems_manuscript/rnas/5c7w

>  <Rbt.Executable>
rbdock ($Id: //depot/dev/client3/rdock/2013.1/src/exe/rbdock.cxx#4 $)

>  <Rbt.Library>
libRbt.so (2013.1, Build901 2013/11/27)

>  <Rbt.Parameter_File>
/export/apps/rDock/src/rDock_2013.1_src/data/scripts/dock_solv.prm

>  <Rbt.Receptor>
prm/pocket_docking_3.prm

>  <SCORE>
-14.2701

>  <SCORE.INTER>
-14.2701

>  <SCORE.INTER.CONST>
1

>  <SCORE.INTER.POLAR>
0

>  <SCORE.INTER.ROT>
0

>  <SCORE.INTER.SOLV>
3.58427

>  <SCORE.INTER.VDW>
-14.3082

>  <SCORE.INTER.norm>
-1.42701

>  <SCORE.INTRA>
0

>  <SCORE.INTRA.DIHEDRAL>
0

>  <SCORE.INTRA.DIHEDRAL.0>
0

>  <SCORE.INTRA.POLAR>
0

>  <SCORE.INTRA.POLAR.0>
0

>  <SCORE.INTRA.REPUL>
0

>  <SCORE.INTRA.REPUL.0>
0

>  <SCORE.INTRA.SOLV>
0

>  <SCORE.INTRA.SOLV.lig_0>
-4.15853

>  <SCORE.INTRA.VDW>
0

>  <SCORE.INTRA.VDW.0>
0

>  <SCORE.INTRA.norm>
0

>  <SCORE.RESTR>
0

>  <SCORE.RESTR.CAVITY>
0

>  <SCORE.RESTR.norm>
0

>  <SCORE.SYSTEM>
0

>  <SCORE.SYSTEM.CONST>
0

>  <SCORE.SYSTEM.DIHEDRAL>
0

>  <SCORE.SYSTEM.SOLV>
0

>  <SCORE.SYSTEM.norm>
0

>  <SCORE.heavy>
10

>  <SCORE.norm>
-1.42701

>  <RMSD>
2.999

$$$$
ligand
 OpenBabel02271912153D
libRbt.so/2013.1/901 2013/11/27
 10 11  0  0  0  0  0  0  0  0999 V2000
    1.6809   -9.2545   12.6247 N   0  0  0  0  0  0  0  0  0  0  0  0
    2.6589   -9.2280   11.7453 C   0  0  0  0  0  0  0  0  0  0  0  0
    2.9822  -10.3989   11.0552 N   0  0  0  0  0  0  0  0  0  0  0  0
    2.3121  -11.5254   11.2861 C   0  0  0  0  0  0  0  0  0  0  0  0
    1.3329  -11.5494   12.1709 C   0  0  0  0  0  0  0  0  0  0  0  0
    1.0117  -10.4571   12.8390 C   0  0  0  0  0  0  0  0  0  0  0  0
    0.1062  -10.5036   13.6598 O   0  0  0  0  0  0  0  0  0  0  0  0
    0.8213  -12.7783   12.2138 N   0  0  0  0  0  0  0  0  0  0  0  0
    1.4941  -13.5142   11.3361 C   0  0  0  0  0  0  0  0  0  0  0  0
    2.4180  -12.7373   10.7649 N   0  0  0  0  0  0  0  0  0  0  0  0
  1  2  1  0  0  0  0
  1  6  1  0  0  0  0
  2  3  2  0  0  0  0
  3  4  1  0  0  0  0
  4  5  2  0  0  0  0
  4 10  1  0  0  0  0
  5  6  1  0  0  0  0
  5  8  1  0  0  0  0
  6  7  2  0  0  0  0
  8  9  1  0  0  0  0
  9 10  2  0  0  0  0
M  END
>  <CHROM.1>
1.65200966,-11.17970243,12.00218041,-1.67905046,-0.71490642,-2.81083435

>  <Name>
ligand

>  <RI>
0

>  <Rbt.Current_Directory>
/home/itssahil/PROJECTS/Mol_Feturizer/Test_systems_manuscript/rnas/5c7w

>  <Rbt.Executable>
rbdock ($Id: //depot/dev/client3/rdock/2013.1/src/exe/rbdock.cxx#4 $)

>  <Rbt.Library>
libRbt.so (2013.1, Build901 2013/11/27)

>  <Rbt.Parameter_File>
/export/apps/rDock/src/rDock_2013.1_src/data/scripts/dock_solv.prm

>  <Rbt.Receptor>
prm/pocket_docking_7.prm

>  <SCORE>
-14.3501

>  <SCORE.INTER>
-14.3501

>  <SCORE.INTER.CONST>
1

>  <SCORE.INTER.POLAR>
0

>  <SCORE.INTER.ROT>
0

>  <SCORE.INTER.SOLV>
3.55021

>  <SCORE.INTER.VDW>
-14.3501

>  <SCORE.INTER.norm>
-1.43501

>  <SCORE.INTRA>
0

>  <SCORE.INTRA.DIHEDRAL>
0

>  <SCORE.INTRA.DIHEDRAL.0>
0

>  <SCORE.INTRA.POLAR>
0

>  <SCORE.INTRA.POLAR.0>
0

>  <SCORE.INTRA.REPUL>
0

>  <SCORE.INTRA.REPUL.0>
0

>  <SCORE.INTRA.SOLV>
0

>  <SCORE.INTRA.SOLV.lig_0>
-4.15853

>  <SCORE.INTRA.VDW>
0

>  <SCORE.INTRA.VDW.0>
0

>  <SCORE.INTRA.norm>
0

>  <SCORE.RESTR>
0

>  <SCORE.RESTR.CAVITY>
0

>  <SCORE.RESTR.norm>
0

>  <SCORE.SYSTEM>
0

>  <SCORE.SYSTEM.CONST>
0

>  <SCORE.SYSTEM.DIHEDRAL>
0

>  <SCORE.SYSTEM.SOLV>
0

>  <SCORE.SYSTEM.norm>
0

>  <SCORE.heavy>
10

>  <SCORE.norm>
-1.43501

>  <RMSD>
2.999

$$$$
ligand
 OpenBabel02271912153D
libRbt.so/2013.1/901 2013/11/27
 10 11  0  0  0  0  0  0  0  0999 V2000
    1.7104   -9.2445   12.6145 N   0  0  0  0  0  0  0  0  0  0  0  0
    2.6951   -9.2473   11.7422 C   0  0  0  0  0  0  0  0  0  0  0  0
    2.9966  -10.4309   11.0637 N   0  0  0  0  0  0  0  0  0  0  0  0
    2.2992  -11.5398   11.2985 C   0  0  0  0  0  0  0  0  0  0  0  0
    1.3133  -11.5344   12.1761 C   0  0  0  0  0  0  0  0  0  0  0  0
    1.0123  -10.4297   12.8332 C   0  0  0  0  0  0  0  0  0  0  0  0
    0.0999  -10.4491   13.6475 O   0  0  0  0  0  0  0  0  0  0  0  0
    0.7735  -12.7510   12.2248 N   0  0  0  0  0  0  0  0  0  0  0  0
    1.4356  -13.5091   11.3580 C   0  0  0  0  0  0  0  0  0  0  0  0
    2.3812  -12.7580   10.7876 N   0  0  0  0  0  0  0  0  0  0  0  0
  1  2  1  0  0  0  0
  1  6  1  0  0  0  0
  2  3  2  0  0  0  0
  3  4  1  0  0  0  0
  4  5  2  0  0  0  0
  4 10  1  0  0  0  0
  5  6  1  0  0  0  0
  5  8  1  0  0  0  0
  6  7  2  0  0  0  0
  8  9  1  0  0  0  0
  9 10  2  0  0  0  0
M  END
>  <CHROM.1>
1.64198325,-11.17347070,12.00689122,-1.65386459,-0.70043015,-2.80239924

>  <Name>
ligand

>  <RI>
0

>  <Rbt.Current_Directory>
/home/itssahil/PROJECTS/Mol_Feturizer/Test_systems_manuscript/rnas/5c7w

>  <Rbt.Executable>
rbdock ($Id: //depot/dev/client3/rdock/2013.1/src/exe/rbdock.cxx#4 $)

>  <Rbt.Library>
libRbt.so (2013.1, Build901 2013/11/27)

>  <Rbt.Parameter_File>
/export/apps/rDock/src/rDock_2013.1_src/data/scripts/dock_solv.prm

>  <Rbt.Receptor>
prm/blind_docking_60.prm

>  <SCORE>
-14.3642

>  <SCORE.INTER>
-14.3642

>  <SCORE.INTER.CONST>
1

>  <SCORE.INTER.POLAR>
0

>  <SCORE.INTER.ROT>
0

>  <SCORE.INTER.SOLV>
3.53833

>  <SCORE.INTER.VDW>
-14.3556

>  <SCORE.INTER.norm>
-1.43642

>  <SCORE.INTRA>
0

>  <SCORE.INTRA.DIHEDRAL>
0

>  <SCORE.INTRA.DIHEDRAL.0>
0

>  <SCORE.INTRA.POLAR>
0

>  <SCORE.INTRA.POLAR.0>
0

>  <SCORE.INTRA.REPUL>
0

>  <SCORE.INTRA.REPUL.0>
0

>  <SCORE.INTRA.SOLV>
0

>  <SCORE.INTRA.SOLV.lig_0>
-4.15853

>  <SCORE.INTRA.VDW>
0

>  <SCORE.INTRA.VDW.0>
0

>  <SCORE.INTRA.norm>
0

>  <SCORE.RESTR>
0

>  <SCORE.RESTR.CAVITY>
0

>  <SCORE.RESTR.norm>
0

>  <SCORE.SYSTEM>
0

>  <SCORE.SYSTEM.CONST>
0

>  <SCORE.SYSTEM.DIHEDRAL>
0

>  <SCORE.SYSTEM.SOLV>
0

>  <SCORE.SYSTEM.norm>
0

>  <SCORE.heavy>
10

>  <SCORE.norm>
-1.43642

>  <RMSD>
3.000

$$$$
ligand
 OpenBabel02271912153D
libRbt.so/2013.1/901 2013/11/27
 10 11  0  0  0  0  0  0  0  0999 V2000
    1.6766   -9.2490   12.6151 N   0  0  0  0  0  0  0  0  0  0  0  0
    2.6545   -9.2266   11.7355 C   0  0  0  0  0  0  0  0  0  0  0  0
    2.9888  -10.4046   11.0629 N   0  0  0  0  0  0  0  0  0  0  0  0
    2.3290  -11.5336   11.3104 C   0  0  0  0  0  0  0  0  0  0  0  0
    1.3498  -11.5535   12.1954 C   0  0  0  0  0  0  0  0  0  0  0  0
    1.0184  -10.4544   12.8471 C   0  0  0  0  0  0  0  0  0  0  0  0
    0.1131  -10.4972   13.6684 O   0  0  0  0  0  0  0  0  0  0  0  0
    0.8496  -12.7864   12.2564 N   0  0  0  0  0  0  0  0  0  0  0  0
    1.5294  -13.5290   11.3898 C   0  0  0  0  0  0  0  0  0  0  0  0
    2.4463  -12.7521   10.8073 N   0  0  0  0  0  0  0  0  0  0  0  0
  1  2  1  0  0  0  0
  1  6  1  0  0  0  0
  2  3  2  0  0  0  0
  3  4  1  0  0  0  0
  4  5  2  0  0  0  0
  4 10  1  0  0  0  0
  5  6  1  0  0  0  0
  5  8  1  0  0  0  0
  6  7  2  0  0  0  0
  8  9  1  0  0  0  0
  9 10  2  0  0  0  0
M  END
>  <CHROM.1>
1.66556599,-11.18346565,12.02118660,-1.69075561,-0.71761389,-2.83335523

>  <Name>
ligand

>  <RI>
0

>  <Rbt.Current_Directory>
/home/itssahil/PROJECTS/Mol_Feturizer/Test_systems_manuscript/rnas/5c7w

>  <Rbt.Executable>
rbdock ($Id: //depot/dev/client3/rdock/2013.1/src/exe/rbdock.cxx#4 $)

>  <Rbt.Library>
libRbt.so (2013.1, Build901 2013/11/27)

>  <Rbt.Parameter_File>
/export/apps/rDock/src/rDock_2013.1_src/data/scripts/dock_solv.prm

>  <Rbt.Receptor>
prm/blind_docking_40.prm

>  <SCORE>
-14.2984

>  <SCORE.INTER>
-14.2984

>  <SCORE.INTER.CONST>
1

>  <SCORE.INTER.POLAR>
0

>  <SCORE.INTER.ROT>
0

>  <SCORE.INTER.SOLV>
3.55555

>  <SCORE.INTER.VDW>
-14.3175

>  <SCORE.INTER.norm>
-1.42984

>  <SCORE.INTRA>
0

>  <SCORE.INTRA.DIHEDRAL>
0

>  <SCORE.INTRA.DIHEDRAL.0>
0

>  <SCORE.INTRA.POLAR>
0

>  <SCORE.INTRA.POLAR.0>
0

>  <SCORE.INTRA.REPUL>
0

>  <SCORE.INTRA.REPUL.0>
0

>  <SCORE.INTRA.SOLV>
0

>  <SCORE.INTRA.SOLV.lig_0>
-4.15853

>  <SCORE.INTRA.VDW>
0

>  <SCORE.INTRA.VDW.0>
0

>  <SCORE.INTRA.norm>
0

>  <SCORE.RESTR>
0

>  <SCORE.RESTR.CAVITY>
0

>  <SCORE.RESTR.norm>
0

>  <SCORE.SYSTEM>
0

>  <SCORE.SYSTEM.CONST>
0

>  <SCORE.SYSTEM.DIHEDRAL>
0

>  <SCORE.SYSTEM.SOLV>
0

>  <SCORE.SYSTEM.norm>
0

>  <SCORE.heavy>
10

>  <SCORE.norm>
-1.42984

>  <RMSD>
3.001

$$$$
ligand
 OpenBabel02271912153D
libRbt.so/2013.1/901 2013/11/27
 10 11  0  0  0  0  0  0  0  0999 V2000
    1.6863   -9.2615   12.5888 N   0  0  0  0  0  0  0  0  0  0  0  0
    2.6515   -9.2491   11.6950 C   0  0  0  0  0  0  0  0  0  0  0  0
    2.9684  -10.4322   11.0228 N   0  0  0  0  0  0  0  0  0  0  0  0
    2.3050  -11.5559   11.2849 C   0  0  0  0  0  0  0  0  0  0  0  0
    1.3388  -11.5656   12.1841 C   0  0  0  0  0  0  0  0  0  0  0  0
    1.0239  -10.4615   12.8357 C   0  0  0  0  0  0  0  0  0  0  0  0
    0.1304  -10.4948   13.6702 O   0  0  0  0  0  0  0  0  0  0  0  0
    0.8316  -12.7949   12.2579 N   0  0  0  0  0  0  0  0  0  0  0  0
    1.4939  -13.5457   11.3849 C   0  0  0  0  0  0  0  0  0  0  0  0
    2.4071  -12.7773   10.7856 N   0  0  0  0  0  0  0  0  0  0  0  0
  1  2  1  0  0  0  0
  1  6  1  0  0  0  0
  2  3  2  0  0  0  0
  3  4  1  0  0  0  0
  4  5  2  0  0  0  0
  4 10  1  0  0  0  0
  5  6  1  0  0  0  0
  5  8  1  0  0  0  0
  6  7  2  0  0  0  0
  8  9  1  0  0  0  0
  9 10  2  0  0  0  0
M  END
>  <CHROM.1>
1.65429424,-11.19833658,12.00374454,-1.67663282,-0.72950222,-2.82842556

>  <Name>
ligand

>  <RI>
0

>  <Rbt.Current_Directory>
/home/itssahil/PROJECTS/Mol_Feturizer/Test_systems_manuscript/rnas/5c7w

>  <Rbt.Executable>
rbdock ($Id: //depot/dev/client3/rdock/2013.1/src/exe/rbdock.cxx#4 $)

>  <Rbt.Library>
libRbt.so (2013.1, Build901 2013/11/27)

>  <Rbt.Parameter_File>
/export/apps/rDock/src/rDock_2013.1_src/data/scripts/dock_solv.prm

>  <Rbt.Receptor>
prm/pocket_docking_4.prm

>  <SCORE>
-14.3628

>  <SCORE.INTER>
-14.3628

>  <SCORE.INTER.CONST>
1

>  <SCORE.INTER.POLAR>
0

>  <SCORE.INTER.ROT>
0

>  <SCORE.INTER.SOLV>
3.57487

>  <SCORE.INTER.VDW>
-14.3669

>  <SCORE.INTER.norm>
-1.43628

>  <SCORE.INTRA>
0

>  <SCORE.INTRA.DIHEDRAL>
0

>  <SCORE.INTRA.DIHEDRAL.0>
0

>  <SCORE.INTRA.POLAR>
0

>  <SCORE.INTRA.POLAR.0>
0

>  <SCORE.INTRA.REPUL>
0

>  <SCORE.INTRA.REPUL.0>
0

>  <SCORE.INTRA.SOLV>
0

>  <SCORE.INTRA.SOLV.lig_0>
-4.15853

>  <SCORE.INTRA.VDW>
0

>  <SCORE.INTRA.VDW.0>
0

>  <SCORE.INTRA.norm>
0

>  <SCORE.RESTR>
0

>  <SCORE.RESTR.CAVITY>
0

>  <SCORE.RESTR.norm>
0

>  <SCORE.SYSTEM>
0

>  <SCORE.SYSTEM.CONST>
0

>  <SCORE.SYSTEM.DIHEDRAL>
0

>  <SCORE.SYSTEM.SOLV>
0

>  <SCORE.SYSTEM.norm>
0

>  <SCORE.heavy>
10

>  <SCORE.norm>
-1.43628

>  <RMSD>
3.001

$$$$
ligand
 OpenBabel02271912153D
libRbt.so/2013.1/901 2013/11/27
 10 11  0  0  0  0  0  0  0  0999 V2000
    1.7016   -9.2556   12.5868 N   0  0  0  0  0  0  0  0  0  0  0  0
    2.6703   -9.2595   11.6967 C   0  0  0  0  0  0  0  0  0  0  0  0
    2.9860  -10.4533   11.0432 N   0  0  0  0  0  0  0  0  0  0  0  0
    2.3179  -11.5708   11.3189 C   0  0  0  0  0  0  0  0  0  0  0  0
    1.3480  -11.5643   12.2143 C   0  0  0  0  0  0  0  0  0  0  0  0
    1.0342  -10.4498   12.8484 C   0  0  0  0  0  0  0  0  0  0  0  0
    0.1373  -10.4681   13.6797 O   0  0  0  0  0  0  0  0  0  0  0  0
    0.8365  -12.7907   12.3039 N   0  0  0  0  0  0  0  0  0  0  0  0
    1.4998  -13.5563   11.4446 C   0  0  0  0  0  0  0  0  0  0  0  0
    2.4180  -12.7997   10.8379 N   0  0  0  0  0  0  0  0  0  0  0  0
  1  2  1  0  0  0  0
  1  6  1  0  0  0  0
  2  3  2  0  0  0  0
  3  4  1  0  0  0  0
  4  5  2  0  0  0  0
  4 10  1  0  0  0  0
  5  6  1  0  0  0  0
  5  8  1  0  0  0  0
  6  7  2  0  0  0  0
  8  9  1  0  0  0  0
  9 10  2  0  0  0  0
M  END
>  <CHROM.1>
1.66547548,-11.20072710,12.02983180,-1.67407118,-0.72469040,-2.84128325

>  <Name>
ligand

>  <RI>
0

>  <Rbt.Current_Directory>
/home/itssahil/PROJECTS/Mol_Feturizer/Test_systems_manuscript/rnas/5c7w

>  <Rbt.Executable>
rbdock ($Id: //depot/dev/client3/rdock/2013.1/src/exe/rbdock.cxx#4 $)

>  <Rbt.Library>
libRbt.so (2013.1, Build901 2013/11/27)

>  <Rbt.Parameter_File>
/export/apps/rDock/src/rDock_2013.1_src/data/scripts/dock_solv.prm

>  <Rbt.Receptor>
prm/blind_docking_100.prm

>  <SCORE>
-14.3161

>  <SCORE.INTER>
-14.3161

>  <SCORE.INTER.CONST>
1

>  <SCORE.INTER.POLAR>
0

>  <SCORE.INTER.ROT>
0

>  <SCORE.INTER.SOLV>
3.57674

>  <SCORE.INTER.VDW>
-14.3363

>  <SCORE.INTER.norm>
-1.43161

>  <SCORE.INTRA>
0

>  <SCORE.INTRA.DIHEDRAL>
0

>  <SCORE.INTRA.DIHEDRAL.0>
0

>  <SCORE.INTRA.POLAR>
0

>  <SCORE.INTRA.POLAR.0>
0

>  <SCORE.INTRA.REPUL>
0

>  <SCORE.INTRA.REPUL.0>
0

>  <SCORE.INTRA.SOLV>
0

>  <SCORE.INTRA.SOLV.lig_0>
-4.15853

>  <SCORE.INTRA.VDW>
0

>  <SCORE.INTRA.VDW.0>
0

>  <SCORE.INTRA.norm>
0

>  <SCORE.RESTR>
0

>  <SCORE.RESTR.CAVITY>
0

>  <SCORE.RESTR.norm>
0

>  <SCORE.SYSTEM>
0

>  <SCORE.SYSTEM.CONST>
0

>  <SCORE.SYSTEM.DIHEDRAL>
0

>  <SCORE.SYSTEM.SOLV>
0

>  <SCORE.SYSTEM.norm>
0

>  <SCORE.heavy>
10

>  <SCORE.norm>
-1.43161

>  <RMSD>
3.002

$$$$
ligand
 OpenBabel02271912153D
libRbt.so/2013.1/901 2013/11/27
 10 11  0  0  0  0  0  0  0  0999 V2000
    1.7128   -9.2709   12.5781 N   0  0  0  0  0  0  0  0  0  0  0  0
    2.6939   -9.2737   11.7017 C   0  0  0  0  0  0  0  0  0  0  0  0
    2.9932  -10.4574   11.0226 N   0  0  0  0  0  0  0  0  0  0  0  0
    2.2973  -11.5666   11.2608 C   0  0  0  0  0  0  0  0  0  0  0  0
    1.3151  -11.5613   12.1425 C   0  0  0  0  0  0  0  0  0  0  0  0
    1.0162  -10.4564   12.8002 C   0  0  0  0  0  0  0  0  0  0  0  0
    0.1072  -10.4758   13.6183 O   0  0  0  0  0  0  0  0  0  0  0  0
    0.7761  -12.7781   12.1940 N   0  0  0  0  0  0  0  0  0  0  0  0
    1.4350  -13.5363   11.3249 C   0  0  0  0  0  0  0  0  0  0  0  0
    2.3779  -12.7850   10.7502 N   0  0  0  0  0  0  0  0  0  0  0  0
  1  2  1  0  0  0  0
  1  6  1  0  0  0  0
  2  3  2  0  0  0  0
  3  4  1  0  0  0  0
  4  5  2  0  0  0  0
  4 10  1  0  0  0  0
  5  6  1  0  0  0  0
  5  8  1  0  0  0  0
  6  7  2  0  0  0  0
  8  9  1  0  0  0  0
  9 10  2  0  0  0  0
M  END
>  <CHROM.1>
1.64288715,-11.20024276,11.97172307,-1.65270856,-0.70447703,-2.80216199

>  <Name>
ligand

>  <RI>
0

>  <Rbt.Current_Directory>
/home/itssahil/PROJECTS/Mol_Feturizer/Test_systems_manuscript/rnas/5c7w

>  <Rbt.Executable>
rbdock ($Id: //depot/dev/client3/rdock/2013.1/src/exe/rbdock.cxx#4 $)

>  <Rbt.Library>
libRbt.so (2013.1, Build901 2013/11/27)

>  <Rbt.Parameter_File>
/export/apps/rDock/src/rDock_2013.1_src/data/scripts/dock_solv.prm

>  <Rbt.Receptor>
prm/pocket_docking_3.prm

>  <SCORE>
-14.3242

>  <SCORE.INTER>
-14.3242

>  <SCORE.INTER.CONST>
1

>  <SCORE.INTER.POLAR>
0

>  <SCORE.INTER.ROT>
0

>  <SCORE.INTER.SOLV>
3.52984

>  <SCORE.INTER.VDW>
-14.3261

>  <SCORE.INTER.norm>
-1.43242

>  <SCORE.INTRA>
0

>  <SCORE.INTRA.DIHEDRAL>
0

>  <SCORE.INTRA.DIHEDRAL.0>
0

>  <SCORE.INTRA.POLAR>
0

>  <SCORE.INTRA.POLAR.0>
0

>  <SCORE.INTRA.REPUL>
0

>  <SCORE.INTRA.REPUL.0>
0

>  <SCORE.INTRA.SOLV>
0

>  <SCORE.INTRA.SOLV.lig_0>
-4.15853

>  <SCORE.INTRA.VDW>
0

>  <SCORE.INTRA.VDW.0>
0

>  <SCORE.INTRA.norm>
0

>  <SCORE.RESTR>
0

>  <SCORE.RESTR.CAVITY>
0

>  <SCORE.RESTR.norm>
0

>  <SCORE.SYSTEM>
0

>  <SCORE.SYSTEM.CONST>
0

>  <SCORE.SYSTEM.DIHEDRAL>
0

>  <SCORE.SYSTEM.SOLV>
0

>  <SCORE.SYSTEM.norm>
0

>  <SCORE.heavy>
10

>  <SCORE.norm>
-1.43242

>  <RMSD>
3.002

$$$$
ligand
 OpenBabel02271912153D
libRbt.so/2013.1/901 2013/11/27
 10 11  0  0  0  0  0  0  0  0999 V2000
    1.6961   -9.2558   12.5952 N   0  0  0  0  0  0  0  0  0  0  0  0
    2.6660   -9.2443   11.7065 C   0  0  0  0  0  0  0  0  0  0  0  0
    2.9746  -10.4238   11.0243 N   0  0  0  0  0  0  0  0  0  0  0  0
    2.2987  -11.5433   11.2718 C   0  0  0  0  0  0  0  0  0  0  0  0
    1.3277  -11.5522   12.1658 C   0  0  0  0  0  0  0  0  0  0  0  0
    1.0204  -10.4515   12.8267 C   0  0  0  0  0  0  0  0  0  0  0  0
    0.1223  -10.4842   13.6563 O   0  0  0  0  0  0  0  0  0  0  0  0
    0.8079  -12.7770   12.2248 N   0  0  0  0  0  0  0  0  0  0  0  0
    1.4673  -13.5257   11.3478 C   0  0  0  0  0  0  0  0  0  0  0  0
    2.3913  -12.7607   10.7609 N   0  0  0  0  0  0  0  0  0  0  0  0
  1  2  1  0  0  0  0
  1  6  1  0  0  0  0
  2  3  2  0  0  0  0
  3  4  1  0  0  0  0
  4  5  2  0  0  0  0
  4 10  1  0  0  0  0
  5  6  1  0  0  0  0
  5  8  1  0  0  0  0
  6  7  2  0  0  0  0
  8  9  1  0  0  0  0
  9 10  2  0  0  0  0
M  END
>  <CHROM.1>
1.64782539,-11.18638106,11.99075085,-1.66615144,-0.72140243,-2.81155461

>  <Name>
ligand

>  <RI>
0

>  <Rbt.Current_Directory>
/home/itssahil/PROJECTS/Mol_Feturizer/Test_systems_manuscript/rnas/5c7w

>  <Rbt.Executable>
rbdock ($Id: //depot/dev/client3/rdock/2013.1/src/exe/rbdock.cxx#4 $)

>  <Rbt.Library>
libRbt.so (2013.1, Build901 2013/11/27)

>  <Rbt.Parameter_File>
/export/apps/rDock/src/rDock_2013.1_src/data/scripts/dock_solv.prm

>  <Rbt.Receptor>
prm/pocket_docking_7.prm

>  <SCORE>
-14.4173

>  <SCORE.INTER>
-14.4173

>  <SCORE.INTER.CONST>
1

>  <SCORE.INTER.POLAR>
0

>  <SCORE.INTER.ROT>
0

>  <SCORE.INTER.SOLV>
3.56527

>  <SCORE.INTER.VDW>
-14.4

>  <SCORE.INTER.norm>
-1.44173

>  <SCORE.INTRA>
0

>  <SCORE.INTRA.DIHEDRAL>
0

>  <SCORE.INTRA.DIHEDRAL.0>
0

>  <SCORE.INTRA.POLAR>
0

>  <SCORE.INTRA.POLAR.0>
0

>  <SCORE.INTRA.REPUL>
0

>  <SCORE.INTRA.REPUL.0>
0

>  <SCORE.INTRA.SOLV>
0

>  <SCORE.INTRA.SOLV.lig_0>
-4.15853

>  <SCORE.INTRA.VDW>
0

>  <SCORE.INTRA.VDW.0>
0

>  <SCORE.INTRA.norm>
0

>  <SCORE.RESTR>
0

>  <SCORE.RESTR.CAVITY>
0

>  <SCORE.RESTR.norm>
0

>  <SCORE.SYSTEM>
0

>  <SCORE.SYSTEM.CONST>
0

>  <SCORE.SYSTEM.DIHEDRAL>
0

>  <SCORE.SYSTEM.SOLV>
0

>  <SCORE.SYSTEM.norm>
0

>  <SCORE.heavy>
10

>  <SCORE.norm>
-1.44173

>  <RMSD>
3.002

$$$$
ligand
 OpenBabel02271912153D
libRbt.so/2013.1/901 2013/11/27
 10 11  0  0  0  0  0  0  0  0999 V2000
    1.6997   -9.2536   12.6051 N   0  0  0  0  0  0  0  0  0  0  0  0
    2.6753   -9.2411   11.7226 C   0  0  0  0  0  0  0  0  0  0  0  0
    2.9882  -10.4200   11.0412 N   0  0  0  0  0  0  0  0  0  0  0  0
    2.3108  -11.5397   11.2832 C   0  0  0  0  0  0  0  0  0  0  0  0
    1.3341  -11.5495   12.1711 C   0  0  0  0  0  0  0  0  0  0  0  0
    1.0226  -10.4496   12.8311 C   0  0  0  0  0  0  0  0  0  0  0  0
    0.1193  -10.4831   13.6549 O   0  0  0  0  0  0  0  0  0  0  0  0
    0.8140  -12.7744   12.2255 N   0  0  0  0  0  0  0  0  0  0  0  0
    1.4789  -13.5222   11.3519 C   0  0  0  0  0  0  0  0  0  0  0  0
    2.4066  -12.7566   10.7717 N   0  0  0  0  0  0  0  0  0  0  0  0
  1  2  1  0  0  0  0
  1  6  1  0  0  0  0
  2  3  2  0  0  0  0
  3  4  1  0  0  0  0
  4  5  2  0  0  0  0
  4 10  1  0  0  0  0
  5  6  1  0  0  0  0
  5  8  1  0  0  0  0
  6  7  2  0  0  0  0
  8  9  1  0  0  0  0
  9 10  2  0  0  0  0
M  END
>  <CHROM.1>
1.65533265,-11.18352704,11.99841636,-1.66891512,-0.71541433,-2.81234356

>  <Name>
ligand

>  <RI>
0

>  <Rbt.Current_Directory>
/home/itssahil/PROJECTS/Mol_Feturizer/Test_systems_manuscript/rnas/5c7w

>  <Rbt.Executable>
rbdock ($Id: //depot/dev/client3/rdock/2013.1/src/exe/rbdock.cxx#4 $)

>  <Rbt.Library>
libRbt.so (2013.1, Build901 2013/11/27)

>  <Rbt.Parameter_File>
/export/apps/rDock/src/rDock_2013.1_src/data/scripts/dock_solv.prm

>  <Rbt.Receptor>
prm/blind_docking_100.prm

>  <SCORE>
-14.3707

>  <SCORE.INTER>
-14.3707

>  <SCORE.INTER.CONST>
1

>  <SCORE.INTER.POLAR>
0

>  <SCORE.INTER.ROT>
0

>  <SCORE.INTER.SOLV>
3.55756

>  <SCORE.INTER.VDW>
-14.3663

>  <SCORE.INTER.norm>
-1.43707

>  <SCORE.INTRA>
0

>  <SCORE.INTRA.DIHEDRAL>
0

>  <SCORE.INTRA.DIHEDRAL.0>
0

>  <SCORE.INTRA.POLAR>
0

>  <SCORE.INTRA.POLAR.0>
0

>  <SCORE.INTRA.REPUL>
0

>  <SCORE.INTRA.REPUL.0>
0

>  <SCORE.INTRA.SOLV>
0

>  <SCORE.INTRA.SOLV.lig_0>
-4.15853

>  <SCORE.INTRA.VDW>
0

>  <SCORE.INTRA.VDW.0>
0

>  <SCORE.INTRA.norm>
0

>  <SCORE.RESTR>
0

>  <SCORE.RESTR.CAVITY>
0

>  <SCORE.RESTR.norm>
0

>  <SCORE.SYSTEM>
0

>  <SCORE.SYSTEM.CONST>
0

>  <SCORE.SYSTEM.DIHEDRAL>
0

>  <SCORE.SYSTEM.SOLV>
0

>  <SCORE.SYSTEM.norm>
0

>  <SCORE.heavy>
10

>  <SCORE.norm>
-1.43707

>  <RMSD>
3.003

$$$$
ligand
 OpenBabel02271912153D
libRbt.so/2013.1/901 2013/11/27
 10 11  0  0  0  0  0  0  0  0999 V2000
    1.7056   -9.2585   12.6025 N   0  0  0  0  0  0  0  0  0  0  0  0
    2.6677   -9.2452   11.7055 C   0  0  0  0  0  0  0  0  0  0  0  0
    2.9674  -10.4223   11.0151 N   0  0  0  0  0  0  0  0  0  0  0  0
    2.2911  -11.5413   11.2634 C   0  0  0  0  0  0  0  0  0  0  0  0
    1.3279  -11.5520   12.1659 C   0  0  0  0  0  0  0  0  0  0  0  0
    1.0291  -10.4537   12.8345 C   0  0  0  0  0  0  0  0  0  0  0  0
    0.1382  -10.4880   13.6717 O   0  0  0  0  0  0  0  0  0  0  0  0
    0.8057  -12.7759   12.2238 N   0  0  0  0  0  0  0  0  0  0  0  0
    1.4556  -13.5221   11.3376 C   0  0  0  0  0  0  0  0  0  0  0  0
    2.3762  -12.7565   10.7461 N   0  0  0  0  0  0  0  0  0  0  0  0
  1  2  1  0  0  0  0
  1  6  1  0  0  0  0
  2  3  2  0  0  0  0
  3  4  1  0  0  0  0
  4  5  2  0  0  0  0
  4 10  1  0  0  0  0
  5  6  1  0  0  0  0
  5  8  1  0  0  0  0
  6  7  2  0  0  0  0
  8  9  1  0  0  0  0
  9 10  2  0  0  0  0
M  END
>  <CHROM.1>
1.64734102,-11.18617003,11.98969868,-1.65930379,-0.72890753,-2.80240741

>  <Name>
ligand

>  <RI>
0

>  <Rbt.Current_Directory>
/home/itssahil/PROJECTS/Mol_Feturizer/Test_systems_manuscript/rnas/5c7w

>  <Rbt.Executable>
rbdock ($Id: //depot/dev/client3/rdock/2013.1/src/exe/rbdock.cxx#4 $)

>  <Rbt.Library>
libRbt.so (2013.1, Build901 2013/11/27)

>  <Rbt.Parameter_File>
/export/apps/rDock/src/rDock_2013.1_src/data/scripts/dock_solv.prm

>  <Rbt.Receptor>
prm/pocket_docking_8.prm

>  <SCORE>
-14.3782

>  <SCORE.INTER>
-14.3782

>  <SCORE.INTER.CONST>
1

>  <SCORE.INTER.POLAR>
0

>  <SCORE.INTER.ROT>
0

>  <SCORE.INTER.SOLV>
3.58483

>  <SCORE.INTER.VDW>
-14.3804

>  <SCORE.INTER.norm>
-1.43782

>  <SCORE.INTRA>
0

>  <SCORE.INTRA.DIHEDRAL>
0

>  <SCORE.INTRA.DIHEDRAL.0>
0

>  <SCORE.INTRA.POLAR>
0

>  <SCORE.INTRA.POLAR.0>
0

>  <SCORE.INTRA.REPUL>
0

>  <SCORE.INTRA.REPUL.0>
0

>  <SCORE.INTRA.SOLV>
0

>  <SCORE.INTRA.SOLV.lig_0>
-4.15853

>  <SCORE.INTRA.VDW>
0

>  <SCORE.INTRA.VDW.0>
0

>  <SCORE.INTRA.norm>
0

>  <SCORE.RESTR>
0

>  <SCORE.RESTR.CAVITY>
0

>  <SCORE.RESTR.norm>
0

>  <SCORE.SYSTEM>
0

>  <SCORE.SYSTEM.CONST>
0

>  <SCORE.SYSTEM.DIHEDRAL>
0

>  <SCORE.SYSTEM.SOLV>
0

>  <SCORE.SYSTEM.norm>
0

>  <SCORE.heavy>
10

>  <SCORE.norm>
-1.43782

>  <RMSD>
3.003

$$$$
ligand
 OpenBabel02271912153D
libRbt.so/2013.1/901 2013/11/27
 10 11  0  0  0  0  0  0  0  0999 V2000
    1.6342   -9.2616   12.7081 N   0  0  0  0  0  0  0  0  0  0  0  0
    2.6135   -9.1439   11.8377 C   0  0  0  0  0  0  0  0  0  0  0  0
    2.9868  -10.2583   11.0822 N   0  0  0  0  0  0  0  0  0  0  0  0
    2.3623  -11.4225   11.2426 C   0  0  0  0  0  0  0  0  0  0  0  0
    1.3816  -11.5380   12.1186 C   0  0  0  0  0  0  0  0  0  0  0  0
    1.0137  -10.5007   12.8474 C   0  0  0  0  0  0  0  0  0  0  0  0
    0.1077  -10.6321   13.6586 O   0  0  0  0  0  0  0  0  0  0  0  0
    0.9204  -12.7870   12.0862 N   0  0  0  0  0  0  0  0  0  0  0  0
    1.6258  -13.4423   11.1711 C   0  0  0  0  0  0  0  0  0  0  0  0
    2.5195  -12.5964   10.6520 N   0  0  0  0  0  0  0  0  0  0  0  0
  1  2  1  0  0  0  0
  1  6  1  0  0  0  0
  2  3  2  0  0  0  0
  3  4  1  0  0  0  0
  4  5  2  0  0  0  0
  4 10  1  0  0  0  0
  5  6  1  0  0  0  0
  5  8  1  0  0  0  0
  6  7  2  0  0  0  0
  8  9  1  0  0  0  0
  9 10  2  0  0  0  0
M  END
>  <CHROM.1>
1.68600766,-11.14647842,11.97371001,-1.73212468,-0.72392213,-2.78709752

>  <Name>
ligand

>  <RI>
0

>  <Rbt.Current_Directory>
/home/itssahil/PROJECTS/Mol_Feturizer/Test_systems_manuscript/rnas/5c7w

>  <Rbt.Executable>
rbdock ($Id: //depot/dev/client3/rdock/2013.1/src/exe/rbdock.cxx#4 $)

>  <Rbt.Library>
libRbt.so (2013.1, Build901 2013/11/27)

>  <Rbt.Parameter_File>
/export/apps/rDock/src/rDock_2013.1_src/data/scripts/dock_solv.prm

>  <Rbt.Receptor>
prm/blind_docking_100.prm

>  <SCORE>
-14.3625

>  <SCORE.INTER>
-14.3625

>  <SCORE.INTER.CONST>
1

>  <SCORE.INTER.POLAR>
0

>  <SCORE.INTER.ROT>
0

>  <SCORE.INTER.SOLV>
3.56018

>  <SCORE.INTER.VDW>
-14.3617

>  <SCORE.INTER.norm>
-1.43625

>  <SCORE.INTRA>
0

>  <SCORE.INTRA.DIHEDRAL>
0

>  <SCORE.INTRA.DIHEDRAL.0>
0

>  <SCORE.INTRA.POLAR>
0

>  <SCORE.INTRA.POLAR.0>
0

>  <SCORE.INTRA.REPUL>
0

>  <SCORE.INTRA.REPUL.0>
0

>  <SCORE.INTRA.SOLV>
0

>  <SCORE.INTRA.SOLV.lig_0>
-4.15853

>  <SCORE.INTRA.VDW>
0

>  <SCORE.INTRA.VDW.0>
0

>  <SCORE.INTRA.norm>
0

>  <SCORE.RESTR>
0

>  <SCORE.RESTR.CAVITY>
0

>  <SCORE.RESTR.norm>
0

>  <SCORE.SYSTEM>
0

>  <SCORE.SYSTEM.CONST>
0

>  <SCORE.SYSTEM.DIHEDRAL>
0

>  <SCORE.SYSTEM.SOLV>
0

>  <SCORE.SYSTEM.norm>
0

>  <SCORE.heavy>
10

>  <SCORE.norm>
-1.43625

>  <RMSD>
3.004

$$$$
ligand
 OpenBabel02271912153D
libRbt.so/2013.1/901 2013/11/27
 10 11  0  0  0  0  0  0  0  0999 V2000
    1.7270   -9.2517   12.6322 N   0  0  0  0  0  0  0  0  0  0  0  0
    2.6946   -9.2455   11.7409 C   0  0  0  0  0  0  0  0  0  0  0  0
    2.9890  -10.4244   11.0514 N   0  0  0  0  0  0  0  0  0  0  0  0
    2.3021  -11.5381   11.2947 C   0  0  0  0  0  0  0  0  0  0  0  0
    1.3335  -11.5417   12.1914 C   0  0  0  0  0  0  0  0  0  0  0  0
    1.0395  -10.4416   12.8591 C   0  0  0  0  0  0  0  0  0  0  0  0
    0.1434  -10.4693   13.6909 O   0  0  0  0  0  0  0  0  0  0  0  0
    0.8011  -12.7614   12.2451 N   0  0  0  0  0  0  0  0  0  0  0  0
    1.4502  -13.5121   11.3622 C   0  0  0  0  0  0  0  0  0  0  0  0
    2.3806  -12.7536   10.7769 N   0  0  0  0  0  0  0  0  0  0  0  0
  1  2  1  0  0  0  0
  1  6  1  0  0  0  0
  2  3  2  0  0  0  0
  3  4  1  0  0  0  0
  4  5  2  0  0  0  0
  4 10  1  0  0  0  0
  5  6  1  0  0  0  0
  5  8  1  0  0  0  0
  6  7  2  0  0  0  0
  8  9  1  0  0  0  0
  9 10  2  0  0  0  0
M  END
>  <CHROM.1>
1.65695142,-11.17833777,12.01741143,-1.65183444,-0.72054223,-2.79665982

>  <Name>
ligand

>  <RI>
0

>  <Rbt.Current_Directory>
/home/itssahil/PROJECTS/Mol_Feturizer/Test_systems_manuscript/rnas/5c7w

>  <Rbt.Executable>
rbdock ($Id: //depot/dev/client3/rdock/2013.1/src/exe/rbdock.cxx#4 $)

>  <Rbt.Library>
libRbt.so (2013.1, Build901 2013/11/27)

>  <Rbt.Parameter_File>
/export/apps/rDock/src/rDock_2013.1_src/data/scripts/dock_solv.prm

>  <Rbt.Receptor>
prm/pocket_docking_5.prm

>  <SCORE>
-14.3782

>  <SCORE.INTER>
-14.3782

>  <SCORE.INTER.CONST>
1

>  <SCORE.INTER.POLAR>
0

>  <SCORE.INTER.ROT>
0

>  <SCORE.INTER.SOLV>
3.58759

>  <SCORE.INTER.VDW>
-14.3813

>  <SCORE.INTER.norm>
-1.43782

>  <SCORE.INTRA>
0

>  <SCORE.INTRA.DIHEDRAL>
0

>  <SCORE.INTRA.DIHEDRAL.0>
0

>  <SCORE.INTRA.POLAR>
0

>  <SCORE.INTRA.POLAR.0>
0

>  <SCORE.INTRA.REPUL>
0

>  <SCORE.INTRA.REPUL.0>
0

>  <SCORE.INTRA.SOLV>
0

>  <SCORE.INTRA.SOLV.lig_0>
-4.15853

>  <SCORE.INTRA.VDW>
0

>  <SCORE.INTRA.VDW.0>
0

>  <SCORE.INTRA.norm>
0

>  <SCORE.RESTR>
0

>  <SCORE.RESTR.CAVITY>
0

>  <SCORE.RESTR.norm>
0

>  <SCORE.SYSTEM>
0

>  <SCORE.SYSTEM.CONST>
0

>  <SCORE.SYSTEM.DIHEDRAL>
0

>  <SCORE.SYSTEM.SOLV>
0

>  <SCORE.SYSTEM.norm>
0

>  <SCORE.heavy>
10

>  <SCORE.norm>
-1.43782

>  <RMSD>
3.004

$$$$
ligand
 OpenBabel02271912153D
libRbt.so/2013.1/901 2013/11/27
 10 11  0  0  0  0  0  0  0  0999 V2000
    1.7154   -9.2551   12.6201 N   0  0  0  0  0  0  0  0  0  0  0  0
    2.6872   -9.2413   11.7336 C   0  0  0  0  0  0  0  0  0  0  0  0
    2.9929  -10.4175   11.0442 N   0  0  0  0  0  0  0  0  0  0  0  0
    2.3125  -11.5361   11.2830 C   0  0  0  0  0  0  0  0  0  0  0  0
    1.3396  -11.5473   12.1750 C   0  0  0  0  0  0  0  0  0  0  0  0
    1.0349  -10.4499   12.8424 C   0  0  0  0  0  0  0  0  0  0  0  0
    0.1349  -10.4847   13.6699 O   0  0  0  0  0  0  0  0  0  0  0  0
    0.8153  -12.7706   12.2248 N   0  0  0  0  0  0  0  0  0  0  0  0
    1.4737  -13.5159   11.3442 C   0  0  0  0  0  0  0  0  0  0  0  0
    2.4017  -12.7504   10.7643 N   0  0  0  0  0  0  0  0  0  0  0  0
  1  2  1  0  0  0  0
  1  6  1  0  0  0  0
  2  3  2  0  0  0  0
  3  4  1  0  0  0  0
  4  5  2  0  0  0  0
  4 10  1  0  0  0  0
  5  6  1  0  0  0  0
  5  8  1  0  0  0  0
  6  7  2  0  0  0  0
  8  9  1  0  0  0  0
  9 10  2  0  0  0  0
M  END
>  <CHROM.1>
1.66137901,-11.18152172,12.00292674,-1.66251327,-0.71826885,-2.80258553

>  <Name>
ligand

>  <RI>
0

>  <Rbt.Current_Directory>
/home/itssahil/PROJECTS/Mol_Feturizer/Test_systems_manuscript/rnas/5c7w

>  <Rbt.Executable>
rbdock ($Id: //depot/dev/client3/rdock/2013.1/src/exe/rbdock.cxx#4 $)

>  <Rbt.Library>
libRbt.so (2013.1, Build901 2013/11/27)

>  <Rbt.Parameter_File>
/export/apps/rDock/src/rDock_2013.1_src/data/scripts/dock_solv.prm

>  <Rbt.Receptor>
prm/blind_docking_80.prm

>  <SCORE>
-14.3666

>  <SCORE.INTER>
-14.3666

>  <SCORE.INTER.CONST>
1

>  <SCORE.INTER.POLAR>
0

>  <SCORE.INTER.ROT>
0

>  <SCORE.INTER.SOLV>
3.57187

>  <SCORE.INTER.VDW>
-14.3683

>  <SCORE.INTER.norm>
-1.43666

>  <SCORE.INTRA>
0

>  <SCORE.INTRA.DIHEDRAL>
0

>  <SCORE.INTRA.DIHEDRAL.0>
0

>  <SCORE.INTRA.POLAR>
0

>  <SCORE.INTRA.POLAR.0>
0

>  <SCORE.INTRA.REPUL>
0

>  <SCORE.INTRA.REPUL.0>
0

>  <SCORE.INTRA.SOLV>
0

>  <SCORE.INTRA.SOLV.lig_0>
-4.15853

>  <SCORE.INTRA.VDW>
0

>  <SCORE.INTRA.VDW.0>
0

>  <SCORE.INTRA.norm>
0

>  <SCORE.RESTR>
0

>  <SCORE.RESTR.CAVITY>
0

>  <SCORE.RESTR.norm>
0

>  <SCORE.SYSTEM>
0

>  <SCORE.SYSTEM.CONST>
0

>  <SCORE.SYSTEM.DIHEDRAL>
0

>  <SCORE.SYSTEM.SOLV>
0

>  <SCORE.SYSTEM.norm>
0

>  <SCORE.heavy>
10

>  <SCORE.norm>
-1.43666

>  <RMSD>
3.005

$$$$
ligand
 OpenBabel02271912153D
libRbt.so/2013.1/901 2013/11/27
 10 11  0  0  0  0  0  0  0  0999 V2000
    1.7209   -9.2397   12.6261 N   0  0  0  0  0  0  0  0  0  0  0  0
    2.6925   -9.2376   11.7392 C   0  0  0  0  0  0  0  0  0  0  0  0
    2.9957  -10.4218   11.0627 N   0  0  0  0  0  0  0  0  0  0  0  0
    2.3131  -11.5363   11.3138 C   0  0  0  0  0  0  0  0  0  0  0  0
    1.3404  -11.5359   12.2061 C   0  0  0  0  0  0  0  0  0  0  0  0
    1.0381  -10.4306   12.8616 C   0  0  0  0  0  0  0  0  0  0  0  0
    0.1383  -10.4546   13.6896 O   0  0  0  0  0  0  0  0  0  0  0  0
    0.8136  -12.7575   12.2694 N   0  0  0  0  0  0  0  0  0  0  0  0
    1.4704  -13.5137   11.3969 C   0  0  0  0  0  0  0  0  0  0  0  0
    2.3997  -12.7565   10.8084 N   0  0  0  0  0  0  0  0  0  0  0  0
  1  2  1  0  0  0  0
  1  6  1  0  0  0  0
  2  3  2  0  0  0  0
  3  4  1  0  0  0  0
  4  5  2  0  0  0  0
  4 10  1  0  0  0  0
  5  6  1  0  0  0  0
  5  8  1  0  0  0  0
  6  7  2  0  0  0  0
  8  9  1  0  0  0  0
  9 10  2  0  0  0  0
M  END
>  <CHROM.1>
1.66286432,-11.17262700,12.03002764,-1.65990282,-0.71785070,-2.81180766

>  <Name>
ligand

>  <RI>
0

>  <Rbt.Current_Directory>
/home/itssahil/PROJECTS/Mol_Feturizer/Test_systems_manuscript/rnas/5c7w

>  <Rbt.Executable>
rbdock ($Id: //depot/dev/client3/rdock/2013.1/src/exe/rbdock.cxx#4 $)

>  <Rbt.Library>
libRbt.so (2013.1, Build901 2013/11/27)

>  <Rbt.Parameter_File>
/export/apps/rDock/src/rDock_2013.1_src/data/scripts/dock_solv.prm

>  <Rbt.Receptor>
prm/pocket_docking_7.prm

>  <SCORE>
-14.3553

>  <SCORE.INTER>
-14.3553

>  <SCORE.INTER.CONST>
1

>  <SCORE.INTER.POLAR>
0

>  <SCORE.INTER.ROT>
0

>  <SCORE.INTER.SOLV>
3.5827

>  <SCORE.INTER.VDW>
-14.3644

>  <SCORE.INTER.norm>
-1.43553

>  <SCORE.INTRA>
0

>  <SCORE.INTRA.DIHEDRAL>
0

>  <SCORE.INTRA.DIHEDRAL.0>
0

>  <SCORE.INTRA.POLAR>
0

>  <SCORE.INTRA.POLAR.0>
0

>  <SCORE.INTRA.REPUL>
0

>  <SCORE.INTRA.REPUL.0>
0

>  <SCORE.INTRA.SOLV>
0

>  <SCORE.INTRA.SOLV.lig_0>
-4.15853

>  <SCORE.INTRA.VDW>
0

>  <SCORE.INTRA.VDW.0>
0

>  <SCORE.INTRA.norm>
0

>  <SCORE.RESTR>
0

>  <SCORE.RESTR.CAVITY>
0

>  <SCORE.RESTR.norm>
0

>  <SCORE.SYSTEM>
0

>  <SCORE.SYSTEM.CONST>
0

>  <SCORE.SYSTEM.DIHEDRAL>
0

>  <SCORE.SYSTEM.SOLV>
0

>  <SCORE.SYSTEM.norm>
0

>  <SCORE.heavy>
10

>  <SCORE.norm>
-1.43553

>  <RMSD>
3.005

$$$$
ligand
 OpenBabel02271912153D
libRbt.so/2013.1/901 2013/11/27
 10 11  0  0  0  0  0  0  0  0999 V2000
    1.7221   -9.2530   12.6242 N   0  0  0  0  0  0  0  0  0  0  0  0
    2.6970   -9.2418   11.7410 C   0  0  0  0  0  0  0  0  0  0  0  0
    3.0032  -10.4192   11.0541 N   0  0  0  0  0  0  0  0  0  0  0  0
    2.3200  -11.5364   11.2917 C   0  0  0  0  0  0  0  0  0  0  0  0
    1.3440  -11.5451   12.1803 C   0  0  0  0  0  0  0  0  0  0  0  0
    1.0389  -10.4464   12.8455 C   0  0  0  0  0  0  0  0  0  0  0  0
    0.1360  -10.4788   13.6698 O   0  0  0  0  0  0  0  0  0  0  0  0
    0.8175  -12.7674   12.2296 N   0  0  0  0  0  0  0  0  0  0  0  0
    1.4778  -13.5148   11.3522 C   0  0  0  0  0  0  0  0  0  0  0  0
    2.4091  -12.7515   10.7746 N   0  0  0  0  0  0  0  0  0  0  0  0
  1  2  1  0  0  0  0
  1  6  1  0  0  0  0
  2  3  2  0  0  0  0
  3  4  1  0  0  0  0
  4  5  2  0  0  0  0
  4 10  1  0  0  0  0
  5  6  1  0  0  0  0
  5  8  1  0  0  0  0
  6  7  2  0  0  0  0
  8  9  1  0  0  0  0
  9 10  2  0  0  0  0
M  END
>  <CHROM.1>
1.66703343,-11.18001323,12.00895752,-1.66196340,-0.71442894,-2.80332432

>  <Name>
ligand

>  <RI>
0

>  <Rbt.Current_Directory>
/home/itssahil/PROJECTS/Mol_Feturizer/Test_systems_manuscript/rnas/5c7w

>  <Rbt.Executable>
rbdock ($Id: //depot/dev/client3/rdock/2013.1/src/exe/rbdock.cxx#4 $)

>  <Rbt.Library>
libRbt.so (2013.1, Build901 2013/11/27)

>  <Rbt.Parameter_File>
/export/apps/rDock/src/rDock_2013.1_src/data/scripts/dock_solv.prm

>  <Rbt.Receptor>
prm/blind_docking_60.prm

>  <SCORE>
-14.3905

>  <SCORE.INTER>
-14.3905

>  <SCORE.INTER.CONST>
1

>  <SCORE.INTER.POLAR>
0

>  <SCORE.INTER.ROT>
0

>  <SCORE.INTER.SOLV>
3.56896

>  <SCORE.INTER.VDW>
-14.3833

>  <SCORE.INTER.norm>
-1.43905

>  <SCORE.INTRA>
0

>  <SCORE.INTRA.DIHEDRAL>
0

>  <SCORE.INTRA.DIHEDRAL.0>
0

>  <SCORE.INTRA.POLAR>
0

>  <SCORE.INTRA.POLAR.0>
0

>  <SCORE.INTRA.REPUL>
0

>  <SCORE.INTRA.REPUL.0>
0

>  <SCORE.INTRA.SOLV>
0

>  <SCORE.INTRA.SOLV.lig_0>
-4.15853

>  <SCORE.INTRA.VDW>
0

>  <SCORE.INTRA.VDW.0>
0

>  <SCORE.INTRA.norm>
0

>  <SCORE.RESTR>
0

>  <SCORE.RESTR.CAVITY>
0

>  <SCORE.RESTR.norm>
0

>  <SCORE.SYSTEM>
0

>  <SCORE.SYSTEM.CONST>
0

>  <SCORE.SYSTEM.DIHEDRAL>
0

>  <SCORE.SYSTEM.SOLV>
0

>  <SCORE.SYSTEM.norm>
0

>  <SCORE.heavy>
10

>  <SCORE.norm>
-1.43905

>  <RMSD>
3.006

$$$$
ligand
 OpenBabel02271912153D
libRbt.so/2013.1/901 2013/11/27
 10 11  0  0  0  0  0  0  0  0999 V2000
    1.6993   -9.2506   12.6221 N   0  0  0  0  0  0  0  0  0  0  0  0
    2.6734   -9.2203   11.7384 C   0  0  0  0  0  0  0  0  0  0  0  0
    2.9966  -10.3894   11.0451 N   0  0  0  0  0  0  0  0  0  0  0  0
    2.3303  -11.5178   11.2772 C   0  0  0  0  0  0  0  0  0  0  0  0
    1.3551  -11.5457   12.1663 C   0  0  0  0  0  0  0  0  0  0  0  0
    1.0340  -10.4552   12.8374 C   0  0  0  0  0  0  0  0  0  0  0  0
    0.1322  -10.5053   13.6621 O   0  0  0  0  0  0  0  0  0  0  0  0
    0.8468  -12.7760   12.2095 N   0  0  0  0  0  0  0  0  0  0  0  0
    1.5176  -13.5088   11.3278 C   0  0  0  0  0  0  0  0  0  0  0  0
    2.4371  -12.7287   10.7537 N   0  0  0  0  0  0  0  0  0  0  0  0
  1  2  1  0  0  0  0
  1  6  1  0  0  0  0
  2  3  2  0  0  0  0
  3  4  1  0  0  0  0
  4  5  2  0  0  0  0
  4 10  1  0  0  0  0
  5  6  1  0  0  0  0
  5  8  1  0  0  0  0
  6  7  2  0  0  0  0
  8  9  1  0  0  0  0
  9 10  2  0  0  0  0
M  END
>  <CHROM.1>
1.67251314,-11.17492804,11.99674373,-1.68035170,-0.71986338,-2.81015972

>  <Name>
ligand

>  <RI>
0

>  <Rbt.Current_Directory>
/home/itssahil/PROJECTS/Mol_Feturizer/Test_systems_manuscript/rnas/5c7w

>  <Rbt.Executable>
rbdock ($Id: //depot/dev/client3/rdock/2013.1/src/exe/rbdock.cxx#4 $)

>  <Rbt.Library>
libRbt.so (2013.1, Build901 2013/11/27)

>  <Rbt.Parameter_File>
/export/apps/rDock/src/rDock_2013.1_src/data/scripts/dock_solv.prm

>  <Rbt.Receptor>
prm/blind_docking_60.prm

>  <SCORE>
-14.3556

>  <SCORE.INTER>
-14.3556

>  <SCORE.INTER.CONST>
1

>  <SCORE.INTER.POLAR>
0

>  <SCORE.INTER.ROT>
0

>  <SCORE.INTER.SOLV>
3.57058

>  <SCORE.INTER.VDW>
-14.3606

>  <SCORE.INTER.norm>
-1.43556

>  <SCORE.INTRA>
0

>  <SCORE.INTRA.DIHEDRAL>
0

>  <SCORE.INTRA.DIHEDRAL.0>
0

>  <SCORE.INTRA.POLAR>
0

>  <SCORE.INTRA.POLAR.0>
0

>  <SCORE.INTRA.REPUL>
0

>  <SCORE.INTRA.REPUL.0>
0

>  <SCORE.INTRA.SOLV>
0

>  <SCORE.INTRA.SOLV.lig_0>
-4.15853

>  <SCORE.INTRA.VDW>
0

>  <SCORE.INTRA.VDW.0>
0

>  <SCORE.INTRA.norm>
0

>  <SCORE.RESTR>
0

>  <SCORE.RESTR.CAVITY>
0

>  <SCORE.RESTR.norm>
0

>  <SCORE.SYSTEM>
0

>  <SCORE.SYSTEM.CONST>
0

>  <SCORE.SYSTEM.DIHEDRAL>
0

>  <SCORE.SYSTEM.SOLV>
0

>  <SCORE.SYSTEM.norm>
0

>  <SCORE.heavy>
10

>  <SCORE.norm>
-1.43556

>  <RMSD>
3.007

$$$$
ligand
 OpenBabel02271912153D
libRbt.so/2013.1/901 2013/11/27
 10 11  0  0  0  0  0  0  0  0999 V2000
    1.6554   -9.2146   12.6458 N   0  0  0  0  0  0  0  0  0  0  0  0
    2.6384   -9.1564   11.7735 C   0  0  0  0  0  0  0  0  0  0  0  0
    2.9891  -10.3108   11.0690 N   0  0  0  0  0  0  0  0  0  0  0  0
    2.3398  -11.4533   11.2794 C   0  0  0  0  0  0  0  0  0  0  0  0
    1.3555  -11.5091   12.1571 C   0  0  0  0  0  0  0  0  0  0  0  0
    1.0085  -10.4330   12.8384 C   0  0  0  0  0  0  0  0  0  0  0  0
    0.0988  -10.5091   13.6523 O   0  0  0  0  0  0  0  0  0  0  0  0
    0.8680  -12.7484   12.1790 N   0  0  0  0  0  0  0  0  0  0  0  0
    1.5608  -13.4583   11.2956 C   0  0  0  0  0  0  0  0  0  0  0  0
    2.4730  -12.6553   10.7418 N   0  0  0  0  0  0  0  0  0  0  0  0
  1  2  1  0  0  0  0
  1  6  1  0  0  0  0
  2  3  2  0  0  0  0
  3  4  1  0  0  0  0
  4  5  2  0  0  0  0
  4 10  1  0  0  0  0
  5  6  1  0  0  0  0
  5  8  1  0  0  0  0
  6  7  2  0  0  0  0
  8  9  1  0  0  0  0
  9 10  2  0  0  0  0
M  END
>  <CHROM.1>
1.66840718,-11.13092080,11.99580326,-1.70651937,-0.71496468,-2.81458018

>  <Name>
ligand

>  <RI>
0

>  <Rbt.Current_Directory>
/home/itssahil/PROJECTS/Mol_Feturizer/Test_systems_manuscript/rnas/5c7w

>  <Rbt.Executable>
rbdock ($Id: //depot/dev/client3/rdock/2013.1/src/exe/rbdock.cxx#4 $)

>  <Rbt.Library>
libRbt.so (2013.1, Build901 2013/11/27)

>  <Rbt.Parameter_File>
/export/apps/rDock/src/rDock_2013.1_src/data/scripts/dock_solv.prm

>  <Rbt.Receptor>
prm/pocket_docking_7.prm

>  <SCORE>
-14.3155

>  <SCORE.INTER>
-14.3155

>  <SCORE.INTER.CONST>
1

>  <SCORE.INTER.POLAR>
0

>  <SCORE.INTER.ROT>
0

>  <SCORE.INTER.SOLV>
3.55361

>  <SCORE.INTER.VDW>
-14.3282

>  <SCORE.INTER.norm>
-1.43155

>  <SCORE.INTRA>
0

>  <SCORE.INTRA.DIHEDRAL>
0

>  <SCORE.INTRA.DIHEDRAL.0>
0

>  <SCORE.INTRA.POLAR>
0

>  <SCORE.INTRA.POLAR.0>
0

>  <SCORE.INTRA.REPUL>
0

>  <SCORE.INTRA.REPUL.0>
0

>  <SCORE.INTRA.SOLV>
0

>  <SCORE.INTRA.SOLV.lig_0>
-4.15853

>  <SCORE.INTRA.VDW>
0

>  <SCORE.INTRA.VDW.0>
0

>  <SCORE.INTRA.norm>
0

>  <SCORE.RESTR>
0

>  <SCORE.RESTR.CAVITY>
0

>  <SCORE.RESTR.norm>
0

>  <SCORE.SYSTEM>
0

>  <SCORE.SYSTEM.CONST>
0

>  <SCORE.SYSTEM.DIHEDRAL>
0

>  <SCORE.SYSTEM.SOLV>
0

>  <SCORE.SYSTEM.norm>
0

>  <SCORE.heavy>
10

>  <SCORE.norm>
-1.43155

>  <RMSD>
3.007

$$$$
ligand
 OpenBabel02271912153D
libRbt.so/2013.1/901 2013/11/27
 10 11  0  0  0  0  0  0  0  0999 V2000
    1.7091   -9.2383   12.5820 N   0  0  0  0  0  0  0  0  0  0  0  0
    2.6724   -9.2330   11.6861 C   0  0  0  0  0  0  0  0  0  0  0  0
    2.9828  -10.4197   11.0173 N   0  0  0  0  0  0  0  0  0  0  0  0
    2.3153  -11.5396   11.2845 C   0  0  0  0  0  0  0  0  0  0  0  0
    1.3509  -11.5422   12.1858 C   0  0  0  0  0  0  0  0  0  0  0  0
    1.0421  -10.4347   12.8343 C   0  0  0  0  0  0  0  0  0  0  0  0
    0.1503  -10.4614   13.6708 O   0  0  0  0  0  0  0  0  0  0  0  0
    0.8387  -12.7691   12.2647 N   0  0  0  0  0  0  0  0  0  0  0  0
    1.4960  -13.5256   11.3929 C   0  0  0  0  0  0  0  0  0  0  0  0
    2.4112  -12.7632   10.7891 N   0  0  0  0  0  0  0  0  0  0  0  0
  1  2  1  0  0  0  0
  1  6  1  0  0  0  0
  2  3  2  0  0  0  0
  3  4  1  0  0  0  0
  4  5  2  0  0  0  0
  4 10  1  0  0  0  0
  5  6  1  0  0  0  0
  5  8  1  0  0  0  0
  6  7  2  0  0  0  0
  8  9  1  0  0  0  0
  9 10  2  0  0  0  0
M  END
>  <CHROM.1>
1.66763101,-11.17694250,12.00350282,-1.67034534,-0.73020098,-2.82757770

>  <Name>
ligand

>  <RI>
0

>  <Rbt.Current_Directory>
/home/itssahil/PROJECTS/Mol_Feturizer/Test_systems_manuscript/rnas/5c7w

>  <Rbt.Executable>
rbdock ($Id: //depot/dev/client3/rdock/2013.1/src/exe/rbdock.cxx#4 $)

>  <Rbt.Library>
libRbt.so (2013.1, Build901 2013/11/27)

>  <Rbt.Parameter_File>
/export/apps/rDock/src/rDock_2013.1_src/data/scripts/dock_solv.prm

>  <Rbt.Receptor>
prm/blind_docking_20.prm

>  <SCORE>
-14.3952

>  <SCORE.INTER>
-14.3952

>  <SCORE.INTER.CONST>
1

>  <SCORE.INTER.POLAR>
0

>  <SCORE.INTER.ROT>
0

>  <SCORE.INTER.SOLV>
3.59599

>  <SCORE.INTER.VDW>
-14.3954

>  <SCORE.INTER.norm>
-1.43952

>  <SCORE.INTRA>
0

>  <SCORE.INTRA.DIHEDRAL>
0

>  <SCORE.INTRA.DIHEDRAL.0>
0

>  <SCORE.INTRA.POLAR>
0

>  <SCORE.INTRA.POLAR.0>
0

>  <SCORE.INTRA.REPUL>
0

>  <SCORE.INTRA.REPUL.0>
0

>  <SCORE.INTRA.SOLV>
0

>  <SCORE.INTRA.SOLV.lig_0>
-4.15853

>  <SCORE.INTRA.VDW>
0

>  <SCORE.INTRA.VDW.0>
0

>  <SCORE.INTRA.norm>
0

>  <SCORE.RESTR>
0

>  <SCORE.RESTR.CAVITY>
0

>  <SCORE.RESTR.norm>
0

>  <SCORE.SYSTEM>
0

>  <SCORE.SYSTEM.CONST>
0

>  <SCORE.SYSTEM.DIHEDRAL>
0

>  <SCORE.SYSTEM.SOLV>
0

>  <SCORE.SYSTEM.norm>
0

>  <SCORE.heavy>
10

>  <SCORE.norm>
-1.43952

>  <RMSD>
3.009

$$$$
ligand
 OpenBabel02271912153D
libRbt.so/2013.1/901 2013/11/27
 10 11  0  0  0  0  0  0  0  0999 V2000
    1.7172   -9.2505   12.6212 N   0  0  0  0  0  0  0  0  0  0  0  0
    2.6888   -9.2268   11.7346 C   0  0  0  0  0  0  0  0  0  0  0  0
    3.0042  -10.3989   11.0428 N   0  0  0  0  0  0  0  0  0  0  0  0
    2.3330  -11.5236   11.2792 C   0  0  0  0  0  0  0  0  0  0  0  0
    1.3603  -11.5448   12.1712 C   0  0  0  0  0  0  0  0  0  0  0  0
    1.0466  -10.4513   12.8409 C   0  0  0  0  0  0  0  0  0  0  0  0
    0.1470  -10.4953   13.6684 O   0  0  0  0  0  0  0  0  0  0  0  0
    0.8461  -12.7724   12.2184 N   0  0  0  0  0  0  0  0  0  0  0  0
    1.5106  -13.5104   11.3362 C   0  0  0  0  0  0  0  0  0  0  0  0
    2.4322  -12.7361   10.7579 N   0  0  0  0  0  0  0  0  0  0  0  0
  1  2  1  0  0  0  0
  1  6  1  0  0  0  0
  2  3  2  0  0  0  0
  3  4  1  0  0  0  0
  4  5  2  0  0  0  0
  4 10  1  0  0  0  0
  5  6  1  0  0  0  0
  5  8  1  0  0  0  0
  6  7  2  0  0  0  0
  8  9  1  0  0  0  0
  9 10  2  0  0  0  0
M  END
>  <CHROM.1>
1.67905883,-11.17595527,11.99989400,-1.67283029,-0.72101456,-2.80726653

>  <Name>
ligand

>  <RI>
0

>  <Rbt.Current_Directory>
/home/itssahil/PROJECTS/Mol_Feturizer/Test_systems_manuscript/rnas/5c7w

>  <Rbt.Executable>
rbdock ($Id: //depot/dev/client3/rdock/2013.1/src/exe/rbdock.cxx#4 $)

>  <Rbt.Library>
libRbt.so (2013.1, Build901 2013/11/27)

>  <Rbt.Parameter_File>
/export/apps/rDock/src/rDock_2013.1_src/data/scripts/dock_solv.prm

>  <Rbt.Receptor>
prm/blind_docking_100.prm

>  <SCORE>
-14.4117

>  <SCORE.INTER>
-14.4117

>  <SCORE.INTER.CONST>
1

>  <SCORE.INTER.POLAR>
0

>  <SCORE.INTER.ROT>
0

>  <SCORE.INTER.SOLV>
3.58182

>  <SCORE.INTER.VDW>
-14.4018

>  <SCORE.INTER.norm>
-1.44117

>  <SCORE.INTRA>
0

>  <SCORE.INTRA.DIHEDRAL>
0

>  <SCORE.INTRA.DIHEDRAL.0>
0

>  <SCORE.INTRA.POLAR>
0

>  <SCORE.INTRA.POLAR.0>
0

>  <SCORE.INTRA.REPUL>
0

>  <SCORE.INTRA.REPUL.0>
0

>  <SCORE.INTRA.SOLV>
0

>  <SCORE.INTRA.SOLV.lig_0>
-4.15853

>  <SCORE.INTRA.VDW>
0

>  <SCORE.INTRA.VDW.0>
0

>  <SCORE.INTRA.norm>
0

>  <SCORE.RESTR>
0

>  <SCORE.RESTR.CAVITY>
0

>  <SCORE.RESTR.norm>
0

>  <SCORE.SYSTEM>
0

>  <SCORE.SYSTEM.CONST>
0

>  <SCORE.SYSTEM.DIHEDRAL>
0

>  <SCORE.SYSTEM.SOLV>
0

>  <SCORE.SYSTEM.norm>
0

>  <SCORE.heavy>
10

>  <SCORE.norm>
-1.44117

>  <RMSD>
3.010

$$$$
ligand
 OpenBabel02271912153D
libRbt.so/2013.1/901 2013/11/27
 10 11  0  0  0  0  0  0  0  0999 V2000
    1.7203   -9.2454   12.6222 N   0  0  0  0  0  0  0  0  0  0  0  0
    2.6929   -9.2266   11.7367 C   0  0  0  0  0  0  0  0  0  0  0  0
    3.0076  -10.4020   11.0501 N   0  0  0  0  0  0  0  0  0  0  0  0
    2.3346  -11.5248   11.2903 C   0  0  0  0  0  0  0  0  0  0  0  0
    1.3608  -11.5410   12.1812 C   0  0  0  0  0  0  0  0  0  0  0  0
    1.0478  -10.4444   12.8461 C   0  0  0  0  0  0  0  0  0  0  0  0
    0.1472  -10.4837   13.6727 O   0  0  0  0  0  0  0  0  0  0  0  0
    0.8449  -12.7678   12.2329 N   0  0  0  0  0  0  0  0  0  0  0  0
    1.5095  -13.5103   11.3546 C   0  0  0  0  0  0  0  0  0  0  0  0
    2.4328  -12.7395   10.7742 N   0  0  0  0  0  0  0  0  0  0  0  0
  1  2  1  0  0  0  0
  1  6  1  0  0  0  0
  2  3  2  0  0  0  0
  3  4  1  0  0  0  0
  4  5  2  0  0  0  0
  4 10  1  0  0  0  0
  5  6  1  0  0  0  0
  5  8  1  0  0  0  0
  6  7  2  0  0  0  0
  8  9  1  0  0  0  0
  9 10  2  0  0  0  0
M  END
>  <CHROM.1>
1.68028161,-11.17330509,12.00883253,-1.67168307,-0.71947685,-2.81064306

>  <Name>
ligand

>  <RI>
0

>  <Rbt.Current_Directory>
/home/itssahil/PROJECTS/Mol_Feturizer/Test_systems_manuscript/rnas/5c7w

>  <Rbt.Executable>
rbdock ($Id: //depot/dev/client3/rdock/2013.1/src/exe/rbdock.cxx#4 $)

>  <Rbt.Library>
libRbt.so (2013.1, Build901 2013/11/27)

>  <Rbt.Parameter_File>
/export/apps/rDock/src/rDock_2013.1_src/data/scripts/dock_solv.prm

>  <Rbt.Receptor>
prm/pocket_docking_5.prm

>  <SCORE>
-14.4026

>  <SCORE.INTER>
-14.4026

>  <SCORE.INTER.CONST>
1

>  <SCORE.INTER.POLAR>
0

>  <SCORE.INTER.ROT>
0

>  <SCORE.INTER.SOLV>
3.58206

>  <SCORE.INTER.VDW>
-14.3957

>  <SCORE.INTER.norm>
-1.44026

>  <SCORE.INTRA>
0

>  <SCORE.INTRA.DIHEDRAL>
0

>  <SCORE.INTRA.DIHEDRAL.0>
0

>  <SCORE.INTRA.POLAR>
0

>  <SCORE.INTRA.POLAR.0>
0

>  <SCORE.INTRA.REPUL>
0

>  <SCORE.INTRA.REPUL.0>
0

>  <SCORE.INTRA.SOLV>
0

>  <SCORE.INTRA.SOLV.lig_0>
-4.15853

>  <SCORE.INTRA.VDW>
0

>  <SCORE.INTRA.VDW.0>
0

>  <SCORE.INTRA.norm>
0

>  <SCORE.RESTR>
0

>  <SCORE.RESTR.CAVITY>
0

>  <SCORE.RESTR.norm>
0

>  <SCORE.SYSTEM>
0

>  <SCORE.SYSTEM.CONST>
0

>  <SCORE.SYSTEM.DIHEDRAL>
0

>  <SCORE.SYSTEM.SOLV>
0

>  <SCORE.SYSTEM.norm>
0

>  <SCORE.heavy>
10

>  <SCORE.norm>
-1.44026

>  <RMSD>
3.010

$$$$
ligand
 OpenBabel02271912153D
libRbt.so/2013.1/901 2013/11/27
 10 11  0  0  0  0  0  0  0  0999 V2000
    1.7378   -9.2457   12.6310 N   0  0  0  0  0  0  0  0  0  0  0  0
    2.7029   -9.2240   11.7373 C   0  0  0  0  0  0  0  0  0  0  0  0
    3.0078  -10.3956   11.0400 N   0  0  0  0  0  0  0  0  0  0  0  0
    2.3334  -11.5179   11.2784 C   0  0  0  0  0  0  0  0  0  0  0  0
    1.3672  -11.5371   12.1776 C   0  0  0  0  0  0  0  0  0  0  0  0
    1.0635  -10.4441   12.8526 C   0  0  0  0  0  0  0  0  0  0  0  0
    0.1699  -10.4863   13.6866 O   0  0  0  0  0  0  0  0  0  0  0  0
    0.8479  -12.7626   12.2254 N   0  0  0  0  0  0  0  0  0  0  0  0
    1.5025  -13.5012   11.3363 C   0  0  0  0  0  0  0  0  0  0  0  0
    2.4232  -12.7294   10.7532 N   0  0  0  0  0  0  0  0  0  0  0  0
  1  2  1  0  0  0  0
  1  6  1  0  0  0  0
  2  3  2  0  0  0  0
  3  4  1  0  0  0  0
  4  5  2  0  0  0  0
  4 10  1  0  0  0  0
  5  6  1  0  0  0  0
  5  8  1  0  0  0  0
  6  7  2  0  0  0  0
  8  9  1  0  0  0  0
  9 10  2  0  0  0  0
M  END
>  <CHROM.1>
1.68635939,-11.16928195,12.00490428,-1.66388364,-0.72656183,-2.79867064

>  <Name>
ligand

>  <RI>
0

>  <Rbt.Current_Directory>
/home/itssahil/PROJECTS/Mol_Feturizer/Test_systems_manuscript/rnas/5c7w

>  <Rbt.Executable>
rbdock ($Id: //depot/dev/client3/rdock/2013.1/src/exe/rbdock.cxx#4 $)

>  <Rbt.Library>
libRbt.so (2013.1, Build901 2013/11/27)

>  <Rbt.Parameter_File>
/export/apps/rDock/src/rDock_2013.1_src/data/scripts/dock_solv.prm

>  <Rbt.Receptor>
prm/pocket_docking_5.prm

>  <SCORE>
-14.3884

>  <SCORE.INTER>
-14.3884

>  <SCORE.INTER.CONST>
1

>  <SCORE.INTER.POLAR>
0

>  <SCORE.INTER.ROT>
0

>  <SCORE.INTER.SOLV>
3.60916

>  <SCORE.INTER.VDW>
-14.3953

>  <SCORE.INTER.norm>
-1.43884

>  <SCORE.INTRA>
0

>  <SCORE.INTRA.DIHEDRAL>
0

>  <SCORE.INTRA.DIHEDRAL.0>
0

>  <SCORE.INTRA.POLAR>
0

>  <SCORE.INTRA.POLAR.0>
0

>  <SCORE.INTRA.REPUL>
0

>  <SCORE.INTRA.REPUL.0>
0

>  <SCORE.INTRA.SOLV>
0

>  <SCORE.INTRA.SOLV.lig_0>
-4.15853

>  <SCORE.INTRA.VDW>
0

>  <SCORE.INTRA.VDW.0>
0

>  <SCORE.INTRA.norm>
0

>  <SCORE.RESTR>
0

>  <SCORE.RESTR.CAVITY>
0

>  <SCORE.RESTR.norm>
0

>  <SCORE.SYSTEM>
0

>  <SCORE.SYSTEM.CONST>
0

>  <SCORE.SYSTEM.DIHEDRAL>
0

>  <SCORE.SYSTEM.SOLV>
0

>  <SCORE.SYSTEM.norm>
0

>  <SCORE.heavy>
10

>  <SCORE.norm>
-1.43884

>  <RMSD>
3.013

$$$$
ligand
 OpenBabel02271912153D
libRbt.so/2013.1/901 2013/11/27
 10 11  0  0  0  0  0  0  0  0999 V2000
    2.8793   -9.9308   11.0546 N   0  0  0  0  0  0  0  0  0  0  0  0
    3.0990  -11.0482   10.3962 C   0  0  0  0  0  0  0  0  0  0  0  0
    2.4034  -12.2017   10.7670 N   0  0  0  0  0  0  0  0  0  0  0  0
    1.5331  -12.1709   11.7734 C   0  0  0  0  0  0  0  0  0  0  0  0
    1.3167  -11.0487   12.4338 C   0  0  0  0  0  0  0  0  0  0  0  0
    1.9650   -9.9467   12.1052 C   0  0  0  0  0  0  0  0  0  0  0  0
    1.7548   -8.9198   12.7354 O   0  0  0  0  0  0  0  0  0  0  0  0
    0.4075  -11.2746   13.3804 N   0  0  0  0  0  0  0  0  0  0  0  0
    0.0581  -12.5531   13.2918 C   0  0  0  0  0  0  0  0  0  0  0  0
    0.7579  -13.1066   12.2981 N   0  0  0  0  0  0  0  0  0  0  0  0
  1  2  1  0  0  0  0
  1  6  1  0  0  0  0
  2  3  2  0  0  0  0
  3  4  1  0  0  0  0
  4  5  2  0  0  0  0
  4 10  1  0  0  0  0
  5  6  1  0  0  0  0
  5  8  1  0  0  0  0
  6  7  2  0  0  0  0
  8  9  1  0  0  0  0
  9 10  2  0  0  0  0
M  END
>  <CHROM.1>
1.62130623,-11.17531160,12.03611252,-0.54894092,-0.81803520,-2.78347339

>  <Name>
ligand

>  <RI>
0

>  <Rbt.Current_Directory>
/home/itssahil/PROJECTS/Mol_Feturizer/Test_systems_manuscript/rnas/5c7w

>  <Rbt.Executable>
rbdock ($Id: //depot/dev/client3/rdock/2013.1/src/exe/rbdock.cxx#4 $)

>  <Rbt.Library>
libRbt.so (2013.1, Build901 2013/11/27)

>  <Rbt.Parameter_File>
/export/apps/rDock/src/rDock_2013.1_src/data/scripts/dock_solv.prm

>  <Rbt.Receptor>
prm/pocket_docking_4.prm

>  <SCORE>
-14.2094

>  <SCORE.INTER>
-14.2094

>  <SCORE.INTER.CONST>
1

>  <SCORE.INTER.POLAR>
0

>  <SCORE.INTER.ROT>
0

>  <SCORE.INTER.SOLV>
4.15802

>  <SCORE.INTER.VDW>
-14.4589

>  <SCORE.INTER.norm>
-1.42094

>  <SCORE.INTRA>
0

>  <SCORE.INTRA.DIHEDRAL>
0

>  <SCORE.INTRA.DIHEDRAL.0>
0

>  <SCORE.INTRA.POLAR>
0

>  <SCORE.INTRA.POLAR.0>
0

>  <SCORE.INTRA.REPUL>
0

>  <SCORE.INTRA.REPUL.0>
0

>  <SCORE.INTRA.SOLV>
0

>  <SCORE.INTRA.SOLV.lig_0>
-4.15853

>  <SCORE.INTRA.VDW>
0

>  <SCORE.INTRA.VDW.0>
0

>  <SCORE.INTRA.norm>
0

>  <SCORE.RESTR>
0

>  <SCORE.RESTR.CAVITY>
0

>  <SCORE.RESTR.norm>
0

>  <SCORE.SYSTEM>
0

>  <SCORE.SYSTEM.CONST>
0

>  <SCORE.SYSTEM.DIHEDRAL>
0

>  <SCORE.SYSTEM.SOLV>
0

>  <SCORE.SYSTEM.norm>
0

>  <SCORE.heavy>
10

>  <SCORE.norm>
-1.42094

>  <RMSD>
3.096

$$$$
ligand
 OpenBabel02271912153D
libRbt.so/2013.1/901 2013/11/27
 10 11  0  0  0  0  0  0  0  0999 V2000
    2.9036   -9.9232   11.0693 N   0  0  0  0  0  0  0  0  0  0  0  0
    3.1295  -11.0357   10.4045 C   0  0  0  0  0  0  0  0  0  0  0  0
    2.4300  -12.1918   10.7595 N   0  0  0  0  0  0  0  0  0  0  0  0
    1.5497  -12.1684   11.7574 C   0  0  0  0  0  0  0  0  0  0  0  0
    1.3270  -11.0512   12.4242 C   0  0  0  0  0  0  0  0  0  0  0  0
    1.9788   -9.9469   12.1106 C   0  0  0  0  0  0  0  0  0  0  0  0
    1.7626   -8.9248   12.7465 O   0  0  0  0  0  0  0  0  0  0  0  0
    0.4083  -11.2841   13.3599 N   0  0  0  0  0  0  0  0  0  0  0  0
    0.0595  -12.5617   13.2580 C   0  0  0  0  0  0  0  0  0  0  0  0
    0.7691  -13.1078   12.2671 N   0  0  0  0  0  0  0  0  0  0  0  0
  1  2  1  0  0  0  0
  1  6  1  0  0  0  0
  2  3  2  0  0  0  0
  3  4  1  0  0  0  0
  4  5  2  0  0  0  0
  4 10  1  0  0  0  0
  5  6  1  0  0  0  0
  5  8  1  0  0  0  0
  6  7  2  0  0  0  0
  8  9  1  0  0  0  0
  9 10  2  0  0  0  0
M  END
>  <CHROM.1>
1.63551263,-11.17487161,12.02859456,-0.55364135,-0.80860790,-2.77920589

>  <Name>
ligand

>  <RI>
0

>  <Rbt.Current_Directory>
/home/itssahil/PROJECTS/Mol_Feturizer/Test_systems_manuscript/rnas/5c7w

>  <Rbt.Executable>
rbdock ($Id: //depot/dev/client3/rdock/2013.1/src/exe/rbdock.cxx#4 $)

>  <Rbt.Library>
libRbt.so (2013.1, Build901 2013/11/27)

>  <Rbt.Parameter_File>
/export/apps/rDock/src/rDock_2013.1_src/data/scripts/dock_solv.prm

>  <Rbt.Receptor>
prm/pocket_docking_7.prm

>  <SCORE>
-14.2248

>  <SCORE.INTER>
-14.2248

>  <SCORE.INTER.CONST>
1

>  <SCORE.INTER.POLAR>
0

>  <SCORE.INTER.ROT>
0

>  <SCORE.INTER.SOLV>
4.13412

>  <SCORE.INTER.VDW>
-14.4612

>  <SCORE.INTER.norm>
-1.42248

>  <SCORE.INTRA>
0

>  <SCORE.INTRA.DIHEDRAL>
0

>  <SCORE.INTRA.DIHEDRAL.0>
0

>  <SCORE.INTRA.POLAR>
0

>  <SCORE.INTRA.POLAR.0>
0

>  <SCORE.INTRA.REPUL>
0

>  <SCORE.INTRA.REPUL.0>
0

>  <SCORE.INTRA.SOLV>
0

>  <SCORE.INTRA.SOLV.lig_0>
-4.15853

>  <SCORE.INTRA.VDW>
0

>  <SCORE.INTRA.VDW.0>
0

>  <SCORE.INTRA.norm>
0

>  <SCORE.RESTR>
0

>  <SCORE.RESTR.CAVITY>
0

>  <SCORE.RESTR.norm>
0

>  <SCORE.SYSTEM>
0

>  <SCORE.SYSTEM.CONST>
0

>  <SCORE.SYSTEM.DIHEDRAL>
0

>  <SCORE.SYSTEM.SOLV>
0

>  <SCORE.SYSTEM.norm>
0

>  <SCORE.heavy>
10

>  <SCORE.norm>
-1.42248

>  <RMSD>
3.101

$$$$
ligand
 OpenBabel02271912153D
libRbt.so/2013.1/901 2013/11/27
 10 11  0  0  0  0  0  0  0  0999 V2000
    2.9352   -9.8924   11.0804 N   0  0  0  0  0  0  0  0  0  0  0  0
    3.1135  -11.0287   10.4420 C   0  0  0  0  0  0  0  0  0  0  0  0
    2.3643  -12.1450   10.8222 N   0  0  0  0  0  0  0  0  0  0  0  0
    1.4848  -12.0605   11.8175 C   0  0  0  0  0  0  0  0  0  0  0  0
    1.3100  -10.9196   12.4578 C   0  0  0  0  0  0  0  0  0  0  0  0
    2.0092   -9.8520   12.1201 C   0  0  0  0  0  0  0  0  0  0  0  0
    1.8367   -8.8071   12.7318 O   0  0  0  0  0  0  0  0  0  0  0  0
    0.3811  -11.0908   13.3968 N   0  0  0  0  0  0  0  0  0  0  0  0
   -0.0225  -12.3542   13.3238 C   0  0  0  0  0  0  0  0  0  0  0  0
    0.6639  -12.9533   12.3472 N   0  0  0  0  0  0  0  0  0  0  0  0
  1  2  1  0  0  0  0
  1  6  1  0  0  0  0
  2  3  2  0  0  0  0
  3  4  1  0  0  0  0
  4  5  2  0  0  0  0
  4 10  1  0  0  0  0
  5  6  1  0  0  0  0
  5  8  1  0  0  0  0
  6  7  2  0  0  0  0
  8  9  1  0  0  0  0
  9 10  2  0  0  0  0
M  END
>  <CHROM.1>
1.61324285,-11.06558674,12.06583204,-0.49663771,-0.79150669,-2.76146505

>  <Name>
ligand

>  <RI>
0

>  <Rbt.Current_Directory>
/home/itssahil/PROJECTS/Mol_Feturizer/Test_systems_manuscript/rnas/5c7w

>  <Rbt.Executable>
rbdock ($Id: //depot/dev/client3/rdock/2013.1/src/exe/rbdock.cxx#4 $)

>  <Rbt.Library>
libRbt.so (2013.1, Build901 2013/11/27)

>  <Rbt.Parameter_File>
/export/apps/rDock/src/rDock_2013.1_src/data/scripts/dock_solv.prm

>  <Rbt.Receptor>
prm/blind_docking_20.prm

>  <SCORE>
-14.163

>  <SCORE.INTER>
-14.163

>  <SCORE.INTER.CONST>
1

>  <SCORE.INTER.POLAR>
0

>  <SCORE.INTER.ROT>
0

>  <SCORE.INTER.SOLV>
4.1967

>  <SCORE.INTER.VDW>
-14.4409

>  <SCORE.INTER.norm>
-1.4163

>  <SCORE.INTRA>
0

>  <SCORE.INTRA.DIHEDRAL>
0

>  <SCORE.INTRA.DIHEDRAL.0>
0

>  <SCORE.INTRA.POLAR>
0

>  <SCORE.INTRA.POLAR.0>
0

>  <SCORE.INTRA.REPUL>
0

>  <SCORE.INTRA.REPUL.0>
0

>  <SCORE.INTRA.SOLV>
0

>  <SCORE.INTRA.SOLV.lig_0>
-4.15853

>  <SCORE.INTRA.VDW>
0

>  <SCORE.INTRA.VDW.0>
0

>  <SCORE.INTRA.norm>
0

>  <SCORE.RESTR>
0

>  <SCORE.RESTR.CAVITY>
0

>  <SCORE.RESTR.norm>
0

>  <SCORE.SYSTEM>
0

>  <SCORE.SYSTEM.CONST>
0

>  <SCORE.SYSTEM.DIHEDRAL>
0

>  <SCORE.SYSTEM.SOLV>
0

>  <SCORE.SYSTEM.norm>
0

>  <SCORE.heavy>
10

>  <SCORE.norm>
-1.4163

>  <RMSD>
3.106

$$$$
ligand
 OpenBabel02271912153D
libRbt.so/2013.1/901 2013/11/27
 10 11  0  0  0  0  0  0  0  0999 V2000
    2.9259   -9.9156   11.0618 N   0  0  0  0  0  0  0  0  0  0  0  0
    3.1584  -11.0288   10.4004 C   0  0  0  0  0  0  0  0  0  0  0  0
    2.4623  -12.1868   10.7560 N   0  0  0  0  0  0  0  0  0  0  0  0
    1.5788  -12.1645   11.7510 C   0  0  0  0  0  0  0  0  0  0  0  0
    1.3495  -11.0466   12.4144 C   0  0  0  0  0  0  0  0  0  0  0  0
    1.9979   -9.9405   12.1002 C   0  0  0  0  0  0  0  0  0  0  0  0
    1.7756   -8.9178   12.7330 O   0  0  0  0  0  0  0  0  0  0  0  0
    0.4287  -11.2810   13.3477 N   0  0  0  0  0  0  0  0  0  0  0  0
    0.0854  -12.5603   13.2478 C   0  0  0  0  0  0  0  0  0  0  0  0
    0.8003  -13.1058   12.2605 N   0  0  0  0  0  0  0  0  0  0  0  0
  1  2  1  0  0  0  0
  1  6  1  0  0  0  0
  2  3  2  0  0  0  0
  3  4  1  0  0  0  0
  4  5  2  0  0  0  0
  4 10  1  0  0  0  0
  5  6  1  0  0  0  0
  5  8  1  0  0  0  0
  6  7  2  0  0  0  0
  8  9  1  0  0  0  0
  9 10  2  0  0  0  0
M  END
>  <CHROM.1>
1.65975154,-11.17002376,12.02008255,-0.56070555,-0.80701910,-2.78671479

>  <Name>
ligand

>  <RI>
0

>  <Rbt.Current_Directory>
/home/itssahil/PROJECTS/Mol_Feturizer/Test_systems_manuscript/rnas/5c7w

>  <Rbt.Executable>
rbdock ($Id: //depot/dev/client3/rdock/2013.1/src/exe/rbdock.cxx#4 $)

>  <Rbt.Library>
libRbt.so (2013.1, Build901 2013/11/27)

>  <Rbt.Parameter_File>
/export/apps/rDock/src/rDock_2013.1_src/data/scripts/dock_solv.prm

>  <Rbt.Receptor>
prm/blind_docking_80.prm

>  <SCORE>
-14.246

>  <SCORE.INTER>
-14.246

>  <SCORE.INTER.CONST>
1

>  <SCORE.INTER.POLAR>
0

>  <SCORE.INTER.ROT>
0

>  <SCORE.INTER.SOLV>
4.13733

>  <SCORE.INTER.VDW>
-14.4765

>  <SCORE.INTER.norm>
-1.4246

>  <SCORE.INTRA>
0

>  <SCORE.INTRA.DIHEDRAL>
0

>  <SCORE.INTRA.DIHEDRAL.0>
0

>  <SCORE.INTRA.POLAR>
0

>  <SCORE.INTRA.POLAR.0>
0

>  <SCORE.INTRA.REPUL>
0

>  <SCORE.INTRA.REPUL.0>
0

>  <SCORE.INTRA.SOLV>
0

>  <SCORE.INTRA.SOLV.lig_0>
-4.15853

>  <SCORE.INTRA.VDW>
0

>  <SCORE.INTRA.VDW.0>
0

>  <SCORE.INTRA.norm>
0

>  <SCORE.RESTR>
0

>  <SCORE.RESTR.CAVITY>
0

>  <SCORE.RESTR.norm>
0

>  <SCORE.SYSTEM>
0

>  <SCORE.SYSTEM.CONST>
0

>  <SCORE.SYSTEM.DIHEDRAL>
0

>  <SCORE.SYSTEM.SOLV>
0

>  <SCORE.SYSTEM.norm>
0

>  <SCORE.heavy>
10

>  <SCORE.norm>
-1.4246

>  <RMSD>
3.109

$$$$
ligand
 OpenBabel02271912153D
libRbt.so/2013.1/901 2013/11/27
 10 11  0  0  0  0  0  0  0  0999 V2000
    2.9221   -9.9145   11.0543 N   0  0  0  0  0  0  0  0  0  0  0  0
    3.1475  -11.0267   10.3888 C   0  0  0  0  0  0  0  0  0  0  0  0
    2.4509  -12.1838   10.7461 N   0  0  0  0  0  0  0  0  0  0  0  0
    1.5740  -12.1618   11.7470 C   0  0  0  0  0  0  0  0  0  0  0  0
    1.3518  -11.0449   12.4145 C   0  0  0  0  0  0  0  0  0  0  0  0
    2.0009   -9.9396   12.0987 C   0  0  0  0  0  0  0  0  0  0  0  0
    1.7853   -8.9179   12.7354 O   0  0  0  0  0  0  0  0  0  0  0  0
    0.4366  -11.2792   13.3533 N   0  0  0  0  0  0  0  0  0  0  0  0
    0.0895  -12.5574   13.2526 C   0  0  0  0  0  0  0  0  0  0  0  0
    0.7965  -13.1024   12.2594 N   0  0  0  0  0  0  0  0  0  0  0  0
  1  2  1  0  0  0  0
  1  6  1  0  0  0  0
  2  3  2  0  0  0  0
  3  4  1  0  0  0  0
  4  5  2  0  0  0  0
  4 10  1  0  0  0  0
  5  6  1  0  0  0  0
  5  8  1  0  0  0  0
  6  7  2  0  0  0  0
  8  9  1  0  0  0  0
  9 10  2  0  0  0  0
M  END
>  <CHROM.1>
1.65919041,-11.16810906,12.01789510,-0.55399377,-0.81230758,-2.77947007

>  <Name>
ligand

>  <RI>
0

>  <Rbt.Current_Directory>
/home/itssahil/PROJECTS/Mol_Feturizer/Test_systems_manuscript/rnas/5c7w

>  <Rbt.Executable>
rbdock ($Id: //depot/dev/client3/rdock/2013.1/src/exe/rbdock.cxx#4 $)

>  <Rbt.Library>
libRbt.so (2013.1, Build901 2013/11/27)

>  <Rbt.Parameter_File>
/export/apps/rDock/src/rDock_2013.1_src/data/scripts/dock_solv.prm

>  <Rbt.Receptor>
prm/blind_docking_100.prm

>  <SCORE>
-14.2488

>  <SCORE.INTER>
-14.2488

>  <SCORE.INTER.CONST>
1

>  <SCORE.INTER.POLAR>
0

>  <SCORE.INTER.ROT>
0

>  <SCORE.INTER.SOLV>
4.14896

>  <SCORE.INTER.VDW>
-14.4822

>  <SCORE.INTER.norm>
-1.42488

>  <SCORE.INTRA>
0

>  <SCORE.INTRA.DIHEDRAL>
0

>  <SCORE.INTRA.DIHEDRAL.0>
0

>  <SCORE.INTRA.POLAR>
0

>  <SCORE.INTRA.POLAR.0>
0

>  <SCORE.INTRA.REPUL>
0

>  <SCORE.INTRA.REPUL.0>
0

>  <SCORE.INTRA.SOLV>
0

>  <SCORE.INTRA.SOLV.lig_0>
-4.15853

>  <SCORE.INTRA.VDW>
0

>  <SCORE.INTRA.VDW.0>
0

>  <SCORE.INTRA.norm>
0

>  <SCORE.RESTR>
0

>  <SCORE.RESTR.CAVITY>
0

>  <SCORE.RESTR.norm>
0

>  <SCORE.SYSTEM>
0

>  <SCORE.SYSTEM.CONST>
0

>  <SCORE.SYSTEM.DIHEDRAL>
0

>  <SCORE.SYSTEM.SOLV>
0

>  <SCORE.SYSTEM.norm>
0

>  <SCORE.heavy>
10

>  <SCORE.norm>
-1.42488

>  <RMSD>
3.110

$$$$
ligand
 OpenBabel02271912153D
libRbt.so/2013.1/901 2013/11/27
 10 11  0  0  0  0  0  0  0  0999 V2000
    2.9282   -9.9133   11.0699 N   0  0  0  0  0  0  0  0  0  0  0  0
    3.1526  -11.0218   10.3980 C   0  0  0  0  0  0  0  0  0  0  0  0
    2.4521  -12.1793   10.7463 N   0  0  0  0  0  0  0  0  0  0  0  0
    1.5724  -12.1612   11.7448 C   0  0  0  0  0  0  0  0  0  0  0  0
    1.3513  -11.0480   12.4186 C   0  0  0  0  0  0  0  0  0  0  0  0
    2.0041   -9.9425   12.1115 C   0  0  0  0  0  0  0  0  0  0  0  0
    1.7893   -8.9241   12.7539 O   0  0  0  0  0  0  0  0  0  0  0  0
    0.4329  -11.2857   13.3534 N   0  0  0  0  0  0  0  0  0  0  0  0
    0.0827  -12.5624   13.2438 C   0  0  0  0  0  0  0  0  0  0  0  0
    0.7912  -13.1030   12.2491 N   0  0  0  0  0  0  0  0  0  0  0  0
  1  2  1  0  0  0  0
  1  6  1  0  0  0  0
  2  3  2  0  0  0  0
  3  4  1  0  0  0  0
  4  5  2  0  0  0  0
  4 10  1  0  0  0  0
  5  6  1  0  0  0  0
  5  8  1  0  0  0  0
  6  7  2  0  0  0  0
  8  9  1  0  0  0  0
  9 10  2  0  0  0  0
M  END
>  <CHROM.1>
1.65943211,-11.16952558,12.02211650,-0.55195451,-0.80878847,-2.77177005

>  <Name>
ligand

>  <RI>
0

>  <Rbt.Current_Directory>
/home/itssahil/PROJECTS/Mol_Feturizer/Test_systems_manuscript/rnas/5c7w

>  <Rbt.Executable>
rbdock ($Id: //depot/dev/client3/rdock/2013.1/src/exe/rbdock.cxx#4 $)

>  <Rbt.Library>
libRbt.so (2013.1, Build901 2013/11/27)

>  <Rbt.Parameter_File>
/export/apps/rDock/src/rDock_2013.1_src/data/scripts/dock_solv.prm

>  <Rbt.Receptor>
prm/blind_docking_20.prm

>  <SCORE>
-14.2459

>  <SCORE.INTER>
-14.2459

>  <SCORE.INTER.CONST>
1

>  <SCORE.INTER.POLAR>
0

>  <SCORE.INTER.ROT>
0

>  <SCORE.INTER.SOLV>
4.13576

>  <SCORE.INTER.VDW>
-14.4759

>  <SCORE.INTER.norm>
-1.42459

>  <SCORE.INTRA>
0

>  <SCORE.INTRA.DIHEDRAL>
0

>  <SCORE.INTRA.DIHEDRAL.0>
0

>  <SCORE.INTRA.POLAR>
0

>  <SCORE.INTRA.POLAR.0>
0

>  <SCORE.INTRA.REPUL>
0

>  <SCORE.INTRA.REPUL.0>
0

>  <SCORE.INTRA.SOLV>
0

>  <SCORE.INTRA.SOLV.lig_0>
-4.15853

>  <SCORE.INTRA.VDW>
0

>  <SCORE.INTRA.VDW.0>
0

>  <SCORE.INTRA.norm>
0

>  <SCORE.RESTR>
0

>  <SCORE.RESTR.CAVITY>
0

>  <SCORE.RESTR.norm>
0

>  <SCORE.SYSTEM>
0

>  <SCORE.SYSTEM.CONST>
0

>  <SCORE.SYSTEM.DIHEDRAL>
0

>  <SCORE.SYSTEM.SOLV>
0

>  <SCORE.SYSTEM.norm>
0

>  <SCORE.heavy>
10

>  <SCORE.norm>
-1.42459

>  <RMSD>
3.110

$$$$
ligand
 OpenBabel02271912153D
libRbt.so/2013.1/901 2013/11/27
 10 11  0  0  0  0  0  0  0  0999 V2000
    2.9369   -9.8944   11.1042 N   0  0  0  0  0  0  0  0  0  0  0  0
    3.1777  -10.9970   10.4282 C   0  0  0  0  0  0  0  0  0  0  0  0
    2.4795  -12.1611   10.7588 N   0  0  0  0  0  0  0  0  0  0  0  0
    1.5857  -12.1551   11.7449 C   0  0  0  0  0  0  0  0  0  0  0  0
    1.3481  -11.0477   12.4229 C   0  0  0  0  0  0  0  0  0  0  0  0
    1.9983   -9.9362   12.1324 C   0  0  0  0  0  0  0  0  0  0  0  0
    1.7682   -8.9235   12.7784 O   0  0  0  0  0  0  0  0  0  0  0  0
    0.4181  -11.2973   13.3430 N   0  0  0  0  0  0  0  0  0  0  0  0
    0.0774  -12.5753   13.2200 C   0  0  0  0  0  0  0  0  0  0  0  0
    0.8032  -13.1050   12.2319 N   0  0  0  0  0  0  0  0  0  0  0  0
  1  2  1  0  0  0  0
  1  6  1  0  0  0  0
  2  3  2  0  0  0  0
  3  4  1  0  0  0  0
  4  5  2  0  0  0  0
  4 10  1  0  0  0  0
  5  6  1  0  0  0  0
  5  8  1  0  0  0  0
  6  7  2  0  0  0  0
  8  9  1  0  0  0  0
  9 10  2  0  0  0  0
M  END
>  <CHROM.1>
1.66259866,-11.16471222,12.02999630,-0.56755517,-0.79779484,-2.77633541

>  <Name>
ligand

>  <RI>
0

>  <Rbt.Current_Directory>
/home/itssahil/PROJECTS/Mol_Feturizer/Test_systems_manuscript/rnas/5c7w

>  <Rbt.Executable>
rbdock ($Id: //depot/dev/client3/rdock/2013.1/src/exe/rbdock.cxx#4 $)

>  <Rbt.Library>
libRbt.so (2013.1, Build901 2013/11/27)

>  <Rbt.Parameter_File>
/export/apps/rDock/src/rDock_2013.1_src/data/scripts/dock_solv.prm

>  <Rbt.Receptor>
prm/pocket_docking_8.prm

>  <SCORE>
-14.1786

>  <SCORE.INTER>
-14.1786

>  <SCORE.INTER.CONST>
1

>  <SCORE.INTER.POLAR>
0

>  <SCORE.INTER.ROT>
0

>  <SCORE.INTER.SOLV>
4.10703

>  <SCORE.INTER.VDW>
-14.4214

>  <SCORE.INTER.norm>
-1.41786

>  <SCORE.INTRA>
0

>  <SCORE.INTRA.DIHEDRAL>
0

>  <SCORE.INTRA.DIHEDRAL.0>
0

>  <SCORE.INTRA.POLAR>
0

>  <SCORE.INTRA.POLAR.0>
0

>  <SCORE.INTRA.REPUL>
0

>  <SCORE.INTRA.REPUL.0>
0

>  <SCORE.INTRA.SOLV>
0

>  <SCORE.INTRA.SOLV.lig_0>
-4.15853

>  <SCORE.INTRA.VDW>
0

>  <SCORE.INTRA.VDW.0>
0

>  <SCORE.INTRA.norm>
0

>  <SCORE.RESTR>
0

>  <SCORE.RESTR.CAVITY>
0

>  <SCORE.RESTR.norm>
0

>  <SCORE.SYSTEM>
0

>  <SCORE.SYSTEM.CONST>
0

>  <SCORE.SYSTEM.DIHEDRAL>
0

>  <SCORE.SYSTEM.SOLV>
0

>  <SCORE.SYSTEM.norm>
0

>  <SCORE.heavy>
10

>  <SCORE.norm>
-1.41786

>  <RMSD>
3.111

$$$$
ligand
 OpenBabel02271912153D
libRbt.so/2013.1/901 2013/11/27
 10 11  0  0  0  0  0  0  0  0999 V2000
    3.0037   -9.8768   11.0840 N   0  0  0  0  0  0  0  0  0  0  0  0
    3.0225  -11.0603   10.5099 C   0  0  0  0  0  0  0  0  0  0  0  0
    2.1312  -12.0419   10.9505 N   0  0  0  0  0  0  0  0  0  0  0  0
    1.2773  -11.7839   11.9382 C   0  0  0  0  0  0  0  0  0  0  0  0
    1.2626  -10.5962   12.5138 C   0  0  0  0  0  0  0  0  0  0  0  0
    2.0980   -9.6538   12.1184 C   0  0  0  0  0  0  0  0  0  0  0  0
    2.0725   -8.5629   12.6708 O   0  0  0  0  0  0  0  0  0  0  0  0
    0.3247  -10.5877   13.4595 N   0  0  0  0  0  0  0  0  0  0  0  0
   -0.2468  -11.7868   13.4561 C   0  0  0  0  0  0  0  0  0  0  0  0
    0.3461  -12.5264   12.5155 N   0  0  0  0  0  0  0  0  0  0  0  0
  1  2  1  0  0  0  0
  1  6  1  0  0  0  0
  2  3  2  0  0  0  0
  3  4  1  0  0  0  0
  4  5  2  0  0  0  0
  4 10  1  0  0  0  0
  5  6  1  0  0  0  0
  5  8  1  0  0  0  0
  6  7  2  0  0  0  0
  8  9  1  0  0  0  0
  9 10  2  0  0  0  0
M  END
>  <CHROM.1>
1.54086659,-10.80347986,12.13103574,-0.32244767,-0.73882100,-2.69631842

>  <Name>
ligand

>  <RI>
0

>  <Rbt.Current_Directory>
/home/itssahil/PROJECTS/Mol_Feturizer/Test_systems_manuscript/rnas/5c7w

>  <Rbt.Executable>
rbdock ($Id: //depot/dev/client3/rdock/2013.1/src/exe/rbdock.cxx#4 $)

>  <Rbt.Library>
libRbt.so (2013.1, Build901 2013/11/27)

>  <Rbt.Parameter_File>
/export/apps/rDock/src/rDock_2013.1_src/data/scripts/dock_solv.prm

>  <Rbt.Receptor>
prm/blind_docking_80.prm

>  <SCORE>
-14.0916

>  <SCORE.INTER>
-14.0916

>  <SCORE.INTER.CONST>
1

>  <SCORE.INTER.POLAR>
0

>  <SCORE.INTER.ROT>
0

>  <SCORE.INTER.SOLV>
4.26248

>  <SCORE.INTER.VDW>
-14.4152

>  <SCORE.INTER.norm>
-1.40916

>  <SCORE.INTRA>
0

>  <SCORE.INTRA.DIHEDRAL>
0

>  <SCORE.INTRA.DIHEDRAL.0>
0

>  <SCORE.INTRA.POLAR>
0

>  <SCORE.INTRA.POLAR.0>
0

>  <SCORE.INTRA.REPUL>
0

>  <SCORE.INTRA.REPUL.0>
0

>  <SCORE.INTRA.SOLV>
0

>  <SCORE.INTRA.SOLV.lig_0>
-4.15853

>  <SCORE.INTRA.VDW>
0

>  <SCORE.INTRA.VDW.0>
0

>  <SCORE.INTRA.norm>
0

>  <SCORE.RESTR>
0

>  <SCORE.RESTR.CAVITY>
0

>  <SCORE.RESTR.norm>
0

>  <SCORE.SYSTEM>
0

>  <SCORE.SYSTEM.CONST>
0

>  <SCORE.SYSTEM.DIHEDRAL>
0

>  <SCORE.SYSTEM.SOLV>
0

>  <SCORE.SYSTEM.norm>
0

>  <SCORE.heavy>
10

>  <SCORE.norm>
-1.40916

>  <RMSD>
3.131

$$$$
ligand
 OpenBabel02271912153D
libRbt.so/2013.1/901 2013/11/27
 10 11  0  0  0  0  0  0  0  0999 V2000
    2.5417  -12.0194   10.9731 N   0  0  0  0  0  0  0  0  0  0  0  0
    2.4311  -10.7167   11.1200 C   0  0  0  0  0  0  0  0  0  0  0  0
    1.4537  -10.2120   11.9813 N   0  0  0  0  0  0  0  0  0  0  0  0
    0.6447  -11.0371   12.6416 C   0  0  0  0  0  0  0  0  0  0  0  0
    0.7565  -12.3436   12.4902 C   0  0  0  0  0  0  0  0  0  0  0  0
    1.6692  -12.8446   11.6787 C   0  0  0  0  0  0  0  0  0  0  0  0
    1.7503  -14.0579   11.5475 O   0  0  0  0  0  0  0  0  0  0  0  0
   -0.1532  -12.9450   13.2548 N   0  0  0  0  0  0  0  0  0  0  0  0
   -0.8261  -11.9909   13.8883 C   0  0  0  0  0  0  0  0  0  0  0  0
   -0.3323  -10.8107   13.5052 N   0  0  0  0  0  0  0  0  0  0  0  0
  1  2  1  0  0  0  0
  1  6  1  0  0  0  0
  2  3  2  0  0  0  0
  3  4  1  0  0  0  0
  4  5  2  0  0  0  0
  4 10  1  0  0  0  0
  5  6  1  0  0  0  0
  5  8  1  0  0  0  0
  6  7  2  0  0  0  0
  8  9  1  0  0  0  0
  9 10  2  0  0  0  0
M  END
>  <CHROM.1>
1.00940279,-11.93877783,12.29237645,-0.20053313,0.71314081,0.04578692

>  <Name>
ligand

>  <RI>
0

>  <Rbt.Current_Directory>
/home/itssahil/PROJECTS/Mol_Feturizer/Test_systems_manuscript/rnas/5c7w

>  <Rbt.Executable>
rbdock ($Id: //depot/dev/client3/rdock/2013.1/src/exe/rbdock.cxx#4 $)

>  <Rbt.Library>
libRbt.so (2013.1, Build901 2013/11/27)

>  <Rbt.Parameter_File>
/export/apps/rDock/src/rDock_2013.1_src/data/scripts/dock_solv.prm

>  <Rbt.Receptor>
prm/blind_docking_80.prm

>  <SCORE>
-14.024

>  <SCORE.INTER>
-14.024

>  <SCORE.INTER.CONST>
1

>  <SCORE.INTER.POLAR>
0

>  <SCORE.INTER.ROT>
0

>  <SCORE.INTER.SOLV>
3.53029

>  <SCORE.INTER.VDW>
-14.1261

>  <SCORE.INTER.norm>
-1.4024

>  <SCORE.INTRA>
0

>  <SCORE.INTRA.DIHEDRAL>
0

>  <SCORE.INTRA.DIHEDRAL.0>
0

>  <SCORE.INTRA.POLAR>
0

>  <SCORE.INTRA.POLAR.0>
0

>  <SCORE.INTRA.REPUL>
0

>  <SCORE.INTRA.REPUL.0>
0

>  <SCORE.INTRA.SOLV>
0

>  <SCORE.INTRA.SOLV.lig_0>
-4.15853

>  <SCORE.INTRA.VDW>
0

>  <SCORE.INTRA.VDW.0>
0

>  <SCORE.INTRA.norm>
0

>  <SCORE.RESTR>
0

>  <SCORE.RESTR.CAVITY>
0

>  <SCORE.RESTR.norm>
0

>  <SCORE.SYSTEM>
0

>  <SCORE.SYSTEM.CONST>
0

>  <SCORE.SYSTEM.DIHEDRAL>
0

>  <SCORE.SYSTEM.SOLV>
0

>  <SCORE.SYSTEM.norm>
0

>  <SCORE.heavy>
10

>  <SCORE.norm>
-1.4024

>  <RMSD>
3.371

$$$$
ligand
 OpenBabel02271912153D
libRbt.so/2013.1/901 2013/11/27
 10 11  0  0  0  0  0  0  0  0999 V2000
    2.5714  -12.0573   10.9424 N   0  0  0  0  0  0  0  0  0  0  0  0
    2.4547  -10.7545   11.0832 C   0  0  0  0  0  0  0  0  0  0  0  0
    1.4735  -10.2504   11.9406 N   0  0  0  0  0  0  0  0  0  0  0  0
    0.6672  -11.0762   12.6033 C   0  0  0  0  0  0  0  0  0  0  0  0
    0.7853  -12.3828   12.4580 C   0  0  0  0  0  0  0  0  0  0  0  0
    1.7016  -12.8833   11.6502 C   0  0  0  0  0  0  0  0  0  0  0  0
    1.7884  -14.0968   11.5246 O   0  0  0  0  0  0  0  0  0  0  0  0
   -0.1229  -12.9850   13.2238 N   0  0  0  0  0  0  0  0  0  0  0  0
   -0.8012  -12.0311   13.8519 C   0  0  0  0  0  0  0  0  0  0  0  0
   -0.3122  -10.8504   13.4643 N   0  0  0  0  0  0  0  0  0  0  0  0
  1  2  1  0  0  0  0
  1  6  1  0  0  0  0
  2  3  2  0  0  0  0
  3  4  1  0  0  0  0
  4  5  2  0  0  0  0
  4 10  1  0  0  0  0
  5  6  1  0  0  0  0
  5  8  1  0  0  0  0
  6  7  2  0  0  0  0
  8  9  1  0  0  0  0
  9 10  2  0  0  0  0
M  END
>  <CHROM.1>
1.03662480,-11.97778001,12.25874784,-0.19440146,0.71170379,0.03727088

>  <Name>
ligand

>  <RI>
0

>  <Rbt.Current_Directory>
/home/itssahil/PROJECTS/Mol_Feturizer/Test_systems_manuscript/rnas/5c7w

>  <Rbt.Executable>
rbdock ($Id: //depot/dev/client3/rdock/2013.1/src/exe/rbdock.cxx#4 $)

>  <Rbt.Library>
libRbt.so (2013.1, Build901 2013/11/27)

>  <Rbt.Parameter_File>
/export/apps/rDock/src/rDock_2013.1_src/data/scripts/dock_solv.prm

>  <Rbt.Receptor>
prm/blind_docking_40.prm

>  <SCORE>
-14.0307

>  <SCORE.INTER>
-14.0307

>  <SCORE.INTER.CONST>
1

>  <SCORE.INTER.POLAR>
0

>  <SCORE.INTER.ROT>
0

>  <SCORE.INTER.SOLV>
3.56602

>  <SCORE.INTER.VDW>
-14.1424

>  <SCORE.INTER.norm>
-1.40307

>  <SCORE.INTRA>
0

>  <SCORE.INTRA.DIHEDRAL>
0

>  <SCORE.INTRA.DIHEDRAL.0>
0

>  <SCORE.INTRA.POLAR>
0

>  <SCORE.INTRA.POLAR.0>
0

>  <SCORE.INTRA.REPUL>
0

>  <SCORE.INTRA.REPUL.0>
0

>  <SCORE.INTRA.SOLV>
0

>  <SCORE.INTRA.SOLV.lig_0>
-4.15853

>  <SCORE.INTRA.VDW>
0

>  <SCORE.INTRA.VDW.0>
0

>  <SCORE.INTRA.norm>
0

>  <SCORE.RESTR>
0

>  <SCORE.RESTR.CAVITY>
0

>  <SCORE.RESTR.norm>
0

>  <SCORE.SYSTEM>
0

>  <SCORE.SYSTEM.CONST>
0

>  <SCORE.SYSTEM.DIHEDRAL>
0

>  <SCORE.SYSTEM.SOLV>
0

>  <SCORE.SYSTEM.norm>
0

>  <SCORE.heavy>
10

>  <SCORE.norm>
-1.40307

>  <RMSD>
3.377

$$$$
ligand
 OpenBabel02271912153D
libRbt.so/2013.1/901 2013/11/27
 10 11  0  0  0  0  0  0  0  0999 V2000
    2.5885  -12.0054   10.9800 N   0  0  0  0  0  0  0  0  0  0  0  0
    2.4243  -10.7043   11.0840 C   0  0  0  0  0  0  0  0  0  0  0  0
    1.4176  -10.2124   11.9185 N   0  0  0  0  0  0  0  0  0  0  0  0
    0.6345  -11.0481   12.5964 C   0  0  0  0  0  0  0  0  0  0  0  0
    0.8001  -12.3532   12.4881 C   0  0  0  0  0  0  0  0  0  0  0  0
    1.7414  -12.8424   11.7025 C   0  0  0  0  0  0  0  0  0  0  0  0
    1.8724  -14.0550   11.6110 O   0  0  0  0  0  0  0  0  0  0  0  0
   -0.0937  -12.9663   13.2620 N   0  0  0  0  0  0  0  0  0  0  0  0
   -0.8115  -12.0205   13.8577 C   0  0  0  0  0  0  0  0  0  0  0  0
   -0.3607  -10.8341   13.4423 N   0  0  0  0  0  0  0  0  0  0  0  0
  1  2  1  0  0  0  0
  1  6  1  0  0  0  0
  2  3  2  0  0  0  0
  3  4  1  0  0  0  0
  4  5  2  0  0  0  0
  4 10  1  0  0  0  0
  5  6  1  0  0  0  0
  5  8  1  0  0  0  0
  6  7  2  0  0  0  0
  8  9  1  0  0  0  0
  9 10  2  0  0  0  0
M  END
>  <CHROM.1>
1.03893079,-11.94497072,12.28005031,-0.14760994,0.70264731,-0.02040665

>  <Name>
ligand

>  <RI>
0

>  <Rbt.Current_Directory>
/home/itssahil/PROJECTS/Mol_Feturizer/Test_systems_manuscript/rnas/5c7w

>  <Rbt.Executable>
rbdock ($Id: //depot/dev/client3/rdock/2013.1/src/exe/rbdock.cxx#4 $)

>  <Rbt.Library>
libRbt.so (2013.1, Build901 2013/11/27)

>  <Rbt.Parameter_File>
/export/apps/rDock/src/rDock_2013.1_src/data/scripts/dock_solv.prm

>  <Rbt.Receptor>
prm/blind_docking_100.prm

>  <SCORE>
-14.0281

>  <SCORE.INTER>
-14.0281

>  <SCORE.INTER.CONST>
1

>  <SCORE.INTER.POLAR>
0

>  <SCORE.INTER.ROT>
0

>  <SCORE.INTER.SOLV>
3.54651

>  <SCORE.INTER.VDW>
-14.1342

>  <SCORE.INTER.norm>
-1.40281

>  <SCORE.INTRA>
0

>  <SCORE.INTRA.DIHEDRAL>
0

>  <SCORE.INTRA.DIHEDRAL.0>
0

>  <SCORE.INTRA.POLAR>
0

>  <SCORE.INTRA.POLAR.0>
0

>  <SCORE.INTRA.REPUL>
0

>  <SCORE.INTRA.REPUL.0>
0

>  <SCORE.INTRA.SOLV>
0

>  <SCORE.INTRA.SOLV.lig_0>
-4.15853

>  <SCORE.INTRA.VDW>
0

>  <SCORE.INTRA.VDW.0>
0

>  <SCORE.INTRA.norm>
0

>  <SCORE.RESTR>
0

>  <SCORE.RESTR.CAVITY>
0

>  <SCORE.RESTR.norm>
0

>  <SCORE.SYSTEM>
0

>  <SCORE.SYSTEM.CONST>
0

>  <SCORE.SYSTEM.DIHEDRAL>
0

>  <SCORE.SYSTEM.SOLV>
0

>  <SCORE.SYSTEM.norm>
0

>  <SCORE.heavy>
10

>  <SCORE.norm>
-1.40281

>  <RMSD>
3.382

$$$$
ligand
 OpenBabel02271912153D
libRbt.so/2013.1/901 2013/11/27
 10 11  0  0  0  0  0  0  0  0999 V2000
    2.5878  -11.9762   10.9344 N   0  0  0  0  0  0  0  0  0  0  0  0
    2.4620  -10.6756   11.0872 C   0  0  0  0  0  0  0  0  0  0  0  0
    1.4844  -10.1865   11.9573 N   0  0  0  0  0  0  0  0  0  0  0  0
    0.6904  -11.0242   12.6199 C   0  0  0  0  0  0  0  0  0  0  0  0
    0.8174  -12.3286   12.4625 C   0  0  0  0  0  0  0  0  0  0  0  0
    1.7306  -12.8150   11.6427 C   0  0  0  0  0  0  0  0  0  0  0  0
    1.8259  -14.0266   11.5061 O   0  0  0  0  0  0  0  0  0  0  0  0
   -0.0793  -12.9444   13.2310 N   0  0  0  0  0  0  0  0  0  0  0  0
   -0.7596  -12.0012   13.8729 C   0  0  0  0  0  0  0  0  0  0  0  0
   -0.2833  -10.8134   13.4912 N   0  0  0  0  0  0  0  0  0  0  0  0
  1  2  1  0  0  0  0
  1  6  1  0  0  0  0
  2  3  2  0  0  0  0
  3  4  1  0  0  0  0
  4  5  2  0  0  0  0
  4 10  1  0  0  0  0
  5  6  1  0  0  0  0
  5  8  1  0  0  0  0
  6  7  2  0  0  0  0
  8  9  1  0  0  0  0
  9 10  2  0  0  0  0
M  END
>  <CHROM.1>
1.06388495,-11.91991490,12.26456497,-0.18439441,0.72061973,0.03913886

>  <Name>
ligand

>  <RI>
0

>  <Rbt.Current_Directory>
/home/itssahil/PROJECTS/Mol_Feturizer/Test_systems_manuscript/rnas/5c7w

>  <Rbt.Executable>
rbdock ($Id: //depot/dev/client3/rdock/2013.1/src/exe/rbdock.cxx#4 $)

>  <Rbt.Library>
libRbt.so (2013.1, Build901 2013/11/27)

>  <Rbt.Parameter_File>
/export/apps/rDock/src/rDock_2013.1_src/data/scripts/dock_solv.prm

>  <Rbt.Receptor>
prm/blind_docking_100.prm

>  <SCORE>
-14.0029

>  <SCORE.INTER>
-14.0029

>  <SCORE.INTER.CONST>
1

>  <SCORE.INTER.POLAR>
0

>  <SCORE.INTER.ROT>
0

>  <SCORE.INTER.SOLV>
3.59145

>  <SCORE.INTER.VDW>
-14.1324

>  <SCORE.INTER.norm>
-1.40029

>  <SCORE.INTRA>
0

>  <SCORE.INTRA.DIHEDRAL>
0

>  <SCORE.INTRA.DIHEDRAL.0>
0

>  <SCORE.INTRA.POLAR>
0

>  <SCORE.INTRA.POLAR.0>
0

>  <SCORE.INTRA.REPUL>
0

>  <SCORE.INTRA.REPUL.0>
0

>  <SCORE.INTRA.SOLV>
0

>  <SCORE.INTRA.SOLV.lig_0>
-4.15853

>  <SCORE.INTRA.VDW>
0

>  <SCORE.INTRA.VDW.0>
0

>  <SCORE.INTRA.norm>
0

>  <SCORE.RESTR>
0

>  <SCORE.RESTR.CAVITY>
0

>  <SCORE.RESTR.norm>
0

>  <SCORE.SYSTEM>
0

>  <SCORE.SYSTEM.CONST>
0

>  <SCORE.SYSTEM.DIHEDRAL>
0

>  <SCORE.SYSTEM.SOLV>
0

>  <SCORE.SYSTEM.norm>
0

>  <SCORE.heavy>
10

>  <SCORE.norm>
-1.40029

>  <RMSD>
3.382

$$$$
ligand
 OpenBabel02271912153D
libRbt.so/2013.1/901 2013/11/27
 10 11  0  0  0  0  0  0  0  0999 V2000
    2.5614  -11.9888   10.9424 N   0  0  0  0  0  0  0  0  0  0  0  0
    2.4279  -10.6892   11.0964 C   0  0  0  0  0  0  0  0  0  0  0  0
    1.4392  -10.2064   11.9574 N   0  0  0  0  0  0  0  0  0  0  0  0
    0.6424  -11.0492   12.6103 C   0  0  0  0  0  0  0  0  0  0  0  0
    0.7772  -12.3526   12.4517 C   0  0  0  0  0  0  0  0  0  0  0  0
    1.7010  -12.8330   11.6402 C   0  0  0  0  0  0  0  0  0  0  0  0
    1.8034  -14.0440   11.5023 O   0  0  0  0  0  0  0  0  0  0  0  0
   -0.1243  -12.9741   13.2098 N   0  0  0  0  0  0  0  0  0  0  0  0
   -0.8156  -12.0355   13.8466 C   0  0  0  0  0  0  0  0  0  0  0  0
   -0.3410  -10.8447   13.4720 N   0  0  0  0  0  0  0  0  0  0  0  0
  1  2  1  0  0  0  0
  1  6  1  0  0  0  0
  2  3  2  0  0  0  0
  3  4  1  0  0  0  0
  4  5  2  0  0  0  0
  4 10  1  0  0  0  0
  5  6  1  0  0  0  0
  5  8  1  0  0  0  0
  6  7  2  0  0  0  0
  8  9  1  0  0  0  0
  9 10  2  0  0  0  0
M  END
>  <CHROM.1>
1.02374478,-11.94237721,12.25703683,-0.17760213,0.71064916,0.03663058

>  <Name>
ligand

>  <RI>
0

>  <Rbt.Current_Directory>
/home/itssahil/PROJECTS/Mol_Feturizer/Test_systems_manuscript/rnas/5c7w

>  <Rbt.Executable>
rbdock ($Id: //depot/dev/client3/rdock/2013.1/src/exe/rbdock.cxx#4 $)

>  <Rbt.Library>
libRbt.so (2013.1, Build901 2013/11/27)

>  <Rbt.Parameter_File>
/export/apps/rDock/src/rDock_2013.1_src/data/scripts/dock_solv.prm

>  <Rbt.Receptor>
prm/pocket_docking_4.prm

>  <SCORE>
-13.9874

>  <SCORE.INTER>
-13.9874

>  <SCORE.INTER.CONST>
1

>  <SCORE.INTER.POLAR>
0

>  <SCORE.INTER.ROT>
0

>  <SCORE.INTER.SOLV>
3.57443

>  <SCORE.INTER.VDW>
-14.1164

>  <SCORE.INTER.norm>
-1.39874

>  <SCORE.INTRA>
0

>  <SCORE.INTRA.DIHEDRAL>
0

>  <SCORE.INTRA.DIHEDRAL.0>
0

>  <SCORE.INTRA.POLAR>
0

>  <SCORE.INTRA.POLAR.0>
0

>  <SCORE.INTRA.REPUL>
0

>  <SCORE.INTRA.REPUL.0>
0

>  <SCORE.INTRA.SOLV>
0

>  <SCORE.INTRA.SOLV.lig_0>
-4.15853

>  <SCORE.INTRA.VDW>
0

>  <SCORE.INTRA.VDW.0>
0

>  <SCORE.INTRA.norm>
0

>  <SCORE.RESTR>
0

>  <SCORE.RESTR.CAVITY>
0

>  <SCORE.RESTR.norm>
0

>  <SCORE.SYSTEM>
0

>  <SCORE.SYSTEM.CONST>
0

>  <SCORE.SYSTEM.DIHEDRAL>
0

>  <SCORE.SYSTEM.SOLV>
0

>  <SCORE.SYSTEM.norm>
0

>  <SCORE.heavy>
10

>  <SCORE.norm>
-1.39874

>  <RMSD>
3.386

$$$$
ligand
 OpenBabel02271912153D
libRbt.so/2013.1/901 2013/11/27
 10 11  0  0  0  0  0  0  0  0999 V2000
    2.5615  -11.9997   10.9316 N   0  0  0  0  0  0  0  0  0  0  0  0
    2.4240  -10.7008   11.0881 C   0  0  0  0  0  0  0  0  0  0  0  0
    1.4368  -10.2228   11.9533 N   0  0  0  0  0  0  0  0  0  0  0  0
    0.6453  -11.0692   12.6078 C   0  0  0  0  0  0  0  0  0  0  0  0
    0.7840  -12.3720   12.4468 C   0  0  0  0  0  0  0  0  0  0  0  0
    1.7065  -12.8480   11.6313 C   0  0  0  0  0  0  0  0  0  0  0  0
    1.8126  -14.0583   11.4912 O   0  0  0  0  0  0  0  0  0  0  0  0
   -0.1127  -12.9977   13.2071 N   0  0  0  0  0  0  0  0  0  0  0  0
   -0.8049  -12.0624   13.8478 C   0  0  0  0  0  0  0  0  0  0  0  0
   -0.3358  -10.8694   13.4734 N   0  0  0  0  0  0  0  0  0  0  0  0
  1  2  1  0  0  0  0
  1  6  1  0  0  0  0
  2  3  2  0  0  0  0
  3  4  1  0  0  0  0
  4  5  2  0  0  0  0
  4 10  1  0  0  0  0
  5  6  1  0  0  0  0
  5  8  1  0  0  0  0
  6  7  2  0  0  0  0
  8  9  1  0  0  0  0
  9 10  2  0  0  0  0
M  END
>  <CHROM.1>
1.02840351,-11.96057169,12.25184849,-0.17322117,0.71433871,0.03526895

>  <Name>
ligand

>  <RI>
0

>  <Rbt.Current_Directory>
/home/itssahil/PROJECTS/Mol_Feturizer/Test_systems_manuscript/rnas/5c7w

>  <Rbt.Executable>
rbdock ($Id: //depot/dev/client3/rdock/2013.1/src/exe/rbdock.cxx#4 $)

>  <Rbt.Library>
libRbt.so (2013.1, Build901 2013/11/27)

>  <Rbt.Parameter_File>
/export/apps/rDock/src/rDock_2013.1_src/data/scripts/dock_solv.prm

>  <Rbt.Receptor>
prm/blind_docking_80.prm

>  <SCORE>
-14.0235

>  <SCORE.INTER>
-14.0235

>  <SCORE.INTER.CONST>
1

>  <SCORE.INTER.POLAR>
0

>  <SCORE.INTER.ROT>
0

>  <SCORE.INTER.SOLV>
3.59915

>  <SCORE.INTER.VDW>
-14.1487

>  <SCORE.INTER.norm>
-1.40235

>  <SCORE.INTRA>
0

>  <SCORE.INTRA.DIHEDRAL>
0

>  <SCORE.INTRA.DIHEDRAL.0>
0

>  <SCORE.INTRA.POLAR>
0

>  <SCORE.INTRA.POLAR.0>
0

>  <SCORE.INTRA.REPUL>
0

>  <SCORE.INTRA.REPUL.0>
0

>  <SCORE.INTRA.SOLV>
0

>  <SCORE.INTRA.SOLV.lig_0>
-4.15853

>  <SCORE.INTRA.VDW>
0

>  <SCORE.INTRA.VDW.0>
0

>  <SCORE.INTRA.norm>
0

>  <SCORE.RESTR>
0

>  <SCORE.RESTR.CAVITY>
0

>  <SCORE.RESTR.norm>
0

>  <SCORE.SYSTEM>
0

>  <SCORE.SYSTEM.CONST>
0

>  <SCORE.SYSTEM.DIHEDRAL>
0

>  <SCORE.SYSTEM.SOLV>
0

>  <SCORE.SYSTEM.norm>
0

>  <SCORE.heavy>
10

>  <SCORE.norm>
-1.40235

>  <RMSD>
3.390

$$$$
ligand
 OpenBabel02271912153D
libRbt.so/2013.1/901 2013/11/27
 10 11  0  0  0  0  0  0  0  0999 V2000
    2.5640  -11.9988   10.9259 N   0  0  0  0  0  0  0  0  0  0  0  0
    2.4258  -10.6998   11.0807 C   0  0  0  0  0  0  0  0  0  0  0  0
    1.4405  -10.2212   11.9479 N   0  0  0  0  0  0  0  0  0  0  0  0
    0.6515  -11.0673   12.6058 C   0  0  0  0  0  0  0  0  0  0  0  0
    0.7910  -12.3702   12.4465 C   0  0  0  0  0  0  0  0  0  0  0  0
    1.7117  -12.8467   11.6292 C   0  0  0  0  0  0  0  0  0  0  0  0
    1.8185  -14.0572   11.4907 O   0  0  0  0  0  0  0  0  0  0  0  0
   -0.1030  -12.9955   13.2103 N   0  0  0  0  0  0  0  0  0  0  0  0
   -0.7944  -12.0598   13.8514 C   0  0  0  0  0  0  0  0  0  0  0  0
   -0.3273  -10.8670   13.4737 N   0  0  0  0  0  0  0  0  0  0  0  0
  1  2  1  0  0  0  0
  1  6  1  0  0  0  0
  2  3  2  0  0  0  0
  3  4  1  0  0  0  0
  4  5  2  0  0  0  0
  4 10  1  0  0  0  0
  5  6  1  0  0  0  0
  5  8  1  0  0  0  0
  6  7  2  0  0  0  0
  8  9  1  0  0  0  0
  9 10  2  0  0  0  0
M  END
>  <CHROM.1>
1.03450722,-11.95891321,12.25023185,-0.17216242,0.71710048,0.03298637

>  <Name>
ligand

>  <RI>
0

>  <Rbt.Current_Directory>
/home/itssahil/PROJECTS/Mol_Feturizer/Test_systems_manuscript/rnas/5c7w

>  <Rbt.Executable>
rbdock ($Id: //depot/dev/client3/rdock/2013.1/src/exe/rbdock.cxx#4 $)

>  <Rbt.Library>
libRbt.so (2013.1, Build901 2013/11/27)

>  <Rbt.Parameter_File>
/export/apps/rDock/src/rDock_2013.1_src/data/scripts/dock_solv.prm

>  <Rbt.Receptor>
prm/pocket_docking_5.prm

>  <SCORE>
-13.9896

>  <SCORE.INTER>
-13.9896

>  <SCORE.INTER.CONST>
1

>  <SCORE.INTER.POLAR>
0

>  <SCORE.INTER.ROT>
0

>  <SCORE.INTER.SOLV>
3.60631

>  <SCORE.INTER.VDW>
-14.1285

>  <SCORE.INTER.norm>
-1.39896

>  <SCORE.INTRA>
0

>  <SCORE.INTRA.DIHEDRAL>
0

>  <SCORE.INTRA.DIHEDRAL.0>
0

>  <SCORE.INTRA.POLAR>
0

>  <SCORE.INTRA.POLAR.0>
0

>  <SCORE.INTRA.REPUL>
0

>  <SCORE.INTRA.REPUL.0>
0

>  <SCORE.INTRA.SOLV>
0

>  <SCORE.INTRA.SOLV.lig_0>
-4.15853

>  <SCORE.INTRA.VDW>
0

>  <SCORE.INTRA.VDW.0>
0

>  <SCORE.INTRA.norm>
0

>  <SCORE.RESTR>
0

>  <SCORE.RESTR.CAVITY>
0

>  <SCORE.RESTR.norm>
0

>  <SCORE.SYSTEM>
0

>  <SCORE.SYSTEM.CONST>
0

>  <SCORE.SYSTEM.DIHEDRAL>
0

>  <SCORE.SYSTEM.SOLV>
0

>  <SCORE.SYSTEM.norm>
0

>  <SCORE.heavy>
10

>  <SCORE.norm>
-1.39896

>  <RMSD>
3.390

$$$$
ligand
 OpenBabel02271912153D
libRbt.so/2013.1/901 2013/11/27
 10 11  0  0  0  0  0  0  0  0999 V2000
    2.5281  -11.9769   10.9146 N   0  0  0  0  0  0  0  0  0  0  0  0
    2.3834  -10.6788   11.0713 C   0  0  0  0  0  0  0  0  0  0  0  0
    1.3994  -10.2066   11.9436 N   0  0  0  0  0  0  0  0  0  0  0  0
    0.6182  -11.0577   12.6043 C   0  0  0  0  0  0  0  0  0  0  0  0
    0.7642  -12.3597   12.4430 C   0  0  0  0  0  0  0  0  0  0  0  0
    1.6838  -12.8302   11.6210 C   0  0  0  0  0  0  0  0  0  0  0  0
    1.7967  -14.0399   11.4808 O   0  0  0  0  0  0  0  0  0  0  0  0
   -0.1228  -12.9907   13.2103 N   0  0  0  0  0  0  0  0  0  0  0  0
   -0.8163  -12.0595   13.8555 C   0  0  0  0  0  0  0  0  0  0  0  0
   -0.3577  -10.8637   13.4770 N   0  0  0  0  0  0  0  0  0  0  0  0
  1  2  1  0  0  0  0
  1  6  1  0  0  0  0
  2  3  2  0  0  0  0
  3  4  1  0  0  0  0
  4  5  2  0  0  0  0
  4 10  1  0  0  0  0
  5  6  1  0  0  0  0
  5  8  1  0  0  0  0
  6  7  2  0  0  0  0
  8  9  1  0  0  0  0
  9 10  2  0  0  0  0
M  END
>  <CHROM.1>
1.00451643,-11.94681619,12.24606235,-0.16493759,0.72190058,0.02921792

>  <Name>
ligand

>  <RI>
0

>  <Rbt.Current_Directory>
/home/itssahil/PROJECTS/Mol_Feturizer/Test_systems_manuscript/rnas/5c7w

>  <Rbt.Executable>
rbdock ($Id: //depot/dev/client3/rdock/2013.1/src/exe/rbdock.cxx#4 $)

>  <Rbt.Library>
libRbt.so (2013.1, Build901 2013/11/27)

>  <Rbt.Parameter_File>
/export/apps/rDock/src/rDock_2013.1_src/data/scripts/dock_solv.prm

>  <Rbt.Receptor>
prm/blind_docking_80.prm

>  <SCORE>
-13.9956

>  <SCORE.INTER>
-13.9956

>  <SCORE.INTER.CONST>
1

>  <SCORE.INTER.POLAR>
0

>  <SCORE.INTER.ROT>
0

>  <SCORE.INTER.SOLV>
3.61091

>  <SCORE.INTER.VDW>
-14.1341

>  <SCORE.INTER.norm>
-1.39956

>  <SCORE.INTRA>
0

>  <SCORE.INTRA.DIHEDRAL>
0

>  <SCORE.INTRA.DIHEDRAL.0>
0

>  <SCORE.INTRA.POLAR>
0

>  <SCORE.INTRA.POLAR.0>
0

>  <SCORE.INTRA.REPUL>
0

>  <SCORE.INTRA.REPUL.0>
0

>  <SCORE.INTRA.SOLV>
0

>  <SCORE.INTRA.SOLV.lig_0>
-4.15853

>  <SCORE.INTRA.VDW>
0

>  <SCORE.INTRA.VDW.0>
0

>  <SCORE.INTRA.norm>
0

>  <SCORE.RESTR>
0

>  <SCORE.RESTR.CAVITY>
0

>  <SCORE.RESTR.norm>
0

>  <SCORE.SYSTEM>
0

>  <SCORE.SYSTEM.CONST>
0

>  <SCORE.SYSTEM.DIHEDRAL>
0

>  <SCORE.SYSTEM.SOLV>
0

>  <SCORE.SYSTEM.norm>
0

>  <SCORE.heavy>
10

>  <SCORE.norm>
-1.39956

>  <RMSD>
3.391

$$$$
ligand
 OpenBabel02271912153D
libRbt.so/2013.1/901 2013/11/27
 10 11  0  0  0  0  0  0  0  0999 V2000
    2.5805  -11.9643   10.9549 N   0  0  0  0  0  0  0  0  0  0  0  0
    2.4520  -10.6676   11.1364 C   0  0  0  0  0  0  0  0  0  0  0  0
    1.4640  -10.1993   12.0061 N   0  0  0  0  0  0  0  0  0  0  0  0
    0.6629  -11.0525   12.6397 C   0  0  0  0  0  0  0  0  0  0  0  0
    0.7927  -12.3528   12.4537 C   0  0  0  0  0  0  0  0  0  0  0  0
    1.7157  -12.8196   11.6335 C   0  0  0  0  0  0  0  0  0  0  0  0
    1.8135  -14.0277   11.4700 O   0  0  0  0  0  0  0  0  0  0  0  0
   -0.1125  -12.9866   13.1971 N   0  0  0  0  0  0  0  0  0  0  0  0
   -0.8009  -12.0589   13.8528 C   0  0  0  0  0  0  0  0  0  0  0  0
   -0.3210  -10.8623   13.5043 N   0  0  0  0  0  0  0  0  0  0  0  0
  1  2  1  0  0  0  0
  1  6  1  0  0  0  0
  2  3  2  0  0  0  0
  3  4  1  0  0  0  0
  4  5  2  0  0  0  0
  4 10  1  0  0  0  0
  5  6  1  0  0  0  0
  5  8  1  0  0  0  0
  6  7  2  0  0  0  0
  8  9  1  0  0  0  0
  9 10  2  0  0  0  0
M  END
>  <CHROM.1>
1.04114657,-11.93950219,12.26813426,-0.18285599,0.70900021,0.06131604

>  <Name>
ligand

>  <RI>
0

>  <Rbt.Current_Directory>
/home/itssahil/PROJECTS/Mol_Feturizer/Test_systems_manuscript/rnas/5c7w

>  <Rbt.Executable>
rbdock ($Id: //depot/dev/client3/rdock/2013.1/src/exe/rbdock.cxx#4 $)

>  <Rbt.Library>
libRbt.so (2013.1, Build901 2013/11/27)

>  <Rbt.Parameter_File>
/export/apps/rDock/src/rDock_2013.1_src/data/scripts/dock_solv.prm

>  <Rbt.Receptor>
prm/blind_docking_80.prm

>  <SCORE>
-13.9753

>  <SCORE.INTER>
-13.9753

>  <SCORE.INTER.CONST>
1

>  <SCORE.INTER.POLAR>
0

>  <SCORE.INTER.ROT>
0

>  <SCORE.INTER.SOLV>
3.60187

>  <SCORE.INTER.VDW>
-14.1175

>  <SCORE.INTER.norm>
-1.39753

>  <SCORE.INTRA>
0

>  <SCORE.INTRA.DIHEDRAL>
0

>  <SCORE.INTRA.DIHEDRAL.0>
0

>  <SCORE.INTRA.POLAR>
0

>  <SCORE.INTRA.POLAR.0>
0

>  <SCORE.INTRA.REPUL>
0

>  <SCORE.INTRA.REPUL.0>
0

>  <SCORE.INTRA.SOLV>
0

>  <SCORE.INTRA.SOLV.lig_0>
-4.15853

>  <SCORE.INTRA.VDW>
0

>  <SCORE.INTRA.VDW.0>
0

>  <SCORE.INTRA.norm>
0

>  <SCORE.RESTR>
0

>  <SCORE.RESTR.CAVITY>
0

>  <SCORE.RESTR.norm>
0

>  <SCORE.SYSTEM>
0

>  <SCORE.SYSTEM.CONST>
0

>  <SCORE.SYSTEM.DIHEDRAL>
0

>  <SCORE.SYSTEM.SOLV>
0

>  <SCORE.SYSTEM.norm>
0

>  <SCORE.heavy>
10

>  <SCORE.norm>
-1.39753

>  <RMSD>
3.395

$$$$
ligand
 OpenBabel02271912153D
libRbt.so/2013.1/901 2013/11/27
 10 11  0  0  0  0  0  0  0  0999 V2000
    1.7777  -10.2440   12.0886 N   0  0  0  0  0  0  0  0  0  0  0  0
    0.8298  -10.3419   12.9956 C   0  0  0  0  0  0  0  0  0  0  0  0
    0.2171  -11.5799   13.2052 N   0  0  0  0  0  0  0  0  0  0  0  0
    0.5854  -12.6440   12.4958 C   0  0  0  0  0  0  0  0  0  0  0  0
    1.5350  -12.5420   11.5847 C   0  0  0  0  0  0  0  0  0  0  0  0
    2.1258  -11.3821   11.3651 C   0  0  0  0  0  0  0  0  0  0  0  0
    2.9979  -11.3085   10.5108 O   0  0  0  0  0  0  0  0  0  0  0  0
    1.7223  -13.7349   11.0227 N   0  0  0  0  0  0  0  0  0  0  0  0
    0.8788  -14.5798   11.6049 C   0  0  0  0  0  0  0  0  0  0  0  0
    0.1742  -13.9019   12.5146 N   0  0  0  0  0  0  0  0  0  0  0  0
  1  2  1  0  0  0  0
  1  6  1  0  0  0  0
  2  3  2  0  0  0  0
  3  4  1  0  0  0  0
  4  5  2  0  0  0  0
  4 10  1  0  0  0  0
  5  6  1  0  0  0  0
  5  8  1  0  0  0  0
  6  7  2  0  0  0  0
  8  9  1  0  0  0  0
  9 10  2  0  0  0  0
M  END
>  <CHROM.1>
1.31731725,-12.20660017,11.91193179,1.12454808,0.76116254,0.30808497

>  <Name>
ligand

>  <RI>
0

>  <Rbt.Current_Directory>
/home/itssahil/PROJECTS/Mol_Feturizer/Test_systems_manuscript/rnas/5c7w

>  <Rbt.Executable>
rbdock ($Id: //depot/dev/client3/rdock/2013.1/src/exe/rbdock.cxx#4 $)

>  <Rbt.Library>
libRbt.so (2013.1, Build901 2013/11/27)

>  <Rbt.Parameter_File>
/export/apps/rDock/src/rDock_2013.1_src/data/scripts/dock_solv.prm

>  <Rbt.Receptor>
prm/pocket_docking_6.prm

>  <SCORE>
-13.5224

>  <SCORE.INTER>
-13.5224

>  <SCORE.INTER.CONST>
1

>  <SCORE.INTER.POLAR>
0

>  <SCORE.INTER.ROT>
0

>  <SCORE.INTER.SOLV>
3.74035

>  <SCORE.INTER.VDW>
-13.8617

>  <SCORE.INTER.norm>
-1.35224

>  <SCORE.INTRA>
0

>  <SCORE.INTRA.DIHEDRAL>
0

>  <SCORE.INTRA.DIHEDRAL.0>
0

>  <SCORE.INTRA.POLAR>
0

>  <SCORE.INTRA.POLAR.0>
0

>  <SCORE.INTRA.REPUL>
0

>  <SCORE.INTRA.REPUL.0>
0

>  <SCORE.INTRA.SOLV>
0

>  <SCORE.INTRA.SOLV.lig_0>
-4.15853

>  <SCORE.INTRA.VDW>
0

>  <SCORE.INTRA.VDW.0>
0

>  <SCORE.INTRA.norm>
0

>  <SCORE.RESTR>
0

>  <SCORE.RESTR.CAVITY>
0

>  <SCORE.RESTR.norm>
0

>  <SCORE.SYSTEM>
0

>  <SCORE.SYSTEM.CONST>
0

>  <SCORE.SYSTEM.DIHEDRAL>
0

>  <SCORE.SYSTEM.SOLV>
0

>  <SCORE.SYSTEM.norm>
0

>  <SCORE.heavy>
10

>  <SCORE.norm>
-1.35224

>  <RMSD>
3.656

$$$$
ligand
 OpenBabel02271912153D
libRbt.so/2013.1/901 2013/11/27
 10 11  0  0  0  0  0  0  0  0999 V2000
    1.7807  -10.2453   12.0724 N   0  0  0  0  0  0  0  0  0  0  0  0
    0.8439  -10.3432   12.9909 C   0  0  0  0  0  0  0  0  0  0  0  0
    0.2400  -11.5831   13.2140 N   0  0  0  0  0  0  0  0  0  0  0  0
    0.6053  -12.6491   12.5058 C   0  0  0  0  0  0  0  0  0  0  0  0
    1.5438  -12.5471   11.5832 C   0  0  0  0  0  0  0  0  0  0  0  0
    2.1261  -11.3855   11.3508 C   0  0  0  0  0  0  0  0  0  0  0  0
    2.9879  -11.3119   10.4860 O   0  0  0  0  0  0  0  0  0  0  0  0
    1.7306  -13.7419   11.0253 N   0  0  0  0  0  0  0  0  0  0  0  0
    0.8981  -14.5880   11.6216 C   0  0  0  0  0  0  0  0  0  0  0  0
    0.2007  -13.9089   12.5359 N   0  0  0  0  0  0  0  0  0  0  0  0
  1  2  1  0  0  0  0
  1  6  1  0  0  0  0
  2  3  2  0  0  0  0
  3  4  1  0  0  0  0
  4  5  2  0  0  0  0
  4 10  1  0  0  0  0
  5  6  1  0  0  0  0
  5  8  1  0  0  0  0
  6  7  2  0  0  0  0
  8  9  1  0  0  0  0
  9 10  2  0  0  0  0
M  END
>  <CHROM.1>
1.32820572,-12.21108628,11.91123380,1.12634625,0.77375496,0.30164857

>  <Name>
ligand

>  <RI>
0

>  <Rbt.Current_Directory>
/home/itssahil/PROJECTS/Mol_Feturizer/Test_systems_manuscript/rnas/5c7w

>  <Rbt.Executable>
rbdock ($Id: //depot/dev/client3/rdock/2013.1/src/exe/rbdock.cxx#4 $)

>  <Rbt.Library>
libRbt.so (2013.1, Build901 2013/11/27)

>  <Rbt.Parameter_File>
/export/apps/rDock/src/rDock_2013.1_src/data/scripts/dock_solv.prm

>  <Rbt.Receptor>
prm/blind_docking_40.prm

>  <SCORE>
-13.5164

>  <SCORE.INTER>
-13.5164

>  <SCORE.INTER.CONST>
1

>  <SCORE.INTER.POLAR>
0

>  <SCORE.INTER.ROT>
0

>  <SCORE.INTER.SOLV>
3.77732

>  <SCORE.INTER.VDW>
-13.8701

>  <SCORE.INTER.norm>
-1.35164

>  <SCORE.INTRA>
0

>  <SCORE.INTRA.DIHEDRAL>
0

>  <SCORE.INTRA.DIHEDRAL.0>
0

>  <SCORE.INTRA.POLAR>
0

>  <SCORE.INTRA.POLAR.0>
0

>  <SCORE.INTRA.REPUL>
0

>  <SCORE.INTRA.REPUL.0>
0

>  <SCORE.INTRA.SOLV>
0

>  <SCORE.INTRA.SOLV.lig_0>
-4.15853

>  <SCORE.INTRA.VDW>
0

>  <SCORE.INTRA.VDW.0>
0

>  <SCORE.INTRA.norm>
0

>  <SCORE.RESTR>
0

>  <SCORE.RESTR.CAVITY>
0

>  <SCORE.RESTR.norm>
0

>  <SCORE.SYSTEM>
0

>  <SCORE.SYSTEM.CONST>
0

>  <SCORE.SYSTEM.DIHEDRAL>
0

>  <SCORE.SYSTEM.SOLV>
0

>  <SCORE.SYSTEM.norm>
0

>  <SCORE.heavy>
10

>  <SCORE.norm>
-1.35164

>  <RMSD>
3.658

$$$$
ligand
 OpenBabel02271912153D
libRbt.so/2013.1/901 2013/11/27
 10 11  0  0  0  0  0  0  0  0999 V2000
    2.9764  -10.3461   11.0778 N   0  0  0  0  0  0  0  0  0  0  0  0
    2.6712   -9.2724   11.7740 C   0  0  0  0  0  0  0  0  0  0  0  0
    1.6092   -9.3308   12.6798 N   0  0  0  0  0  0  0  0  0  0  0  0
    0.9148  -10.4556   12.8342 C   0  0  0  0  0  0  0  0  0  0  0  0
    1.2218  -11.5305   12.1323 C   0  0  0  0  0  0  0  0  0  0  0  0
    2.2181  -11.4990   11.2669 C   0  0  0  0  0  0  0  0  0  0  0  0
    2.4805  -12.5042   10.6215 O   0  0  0  0  0  0  0  0  0  0  0  0
    0.3923  -12.5164   12.4696 N   0  0  0  0  0  0  0  0  0  0  0  0
   -0.4293  -12.0379   13.3972 C   0  0  0  0  0  0  0  0  0  0  0  0
   -0.1058  -10.7614   13.6194 N   0  0  0  0  0  0  0  0  0  0  0  0
  1  2  1  0  0  0  0
  1  6  1  0  0  0  0
  2  3  2  0  0  0  0
  3  4  1  0  0  0  0
  4  5  2  0  0  0  0
  4 10  1  0  0  0  0
  5  6  1  0  0  0  0
  5  8  1  0  0  0  0
  6  7  2  0  0  0  0
  8  9  1  0  0  0  0
  9 10  2  0  0  0  0
M  END
>  <CHROM.1>
1.41702169,-11.05274990,12.15656227,-0.00742358,0.68594370,0.38553061

>  <Name>
ligand

>  <RI>
0

>  <Rbt.Current_Directory>
/home/itssahil/PROJECTS/Mol_Feturizer/Test_systems_manuscript/rnas/5c7w

>  <Rbt.Executable>
rbdock ($Id: //depot/dev/client3/rdock/2013.1/src/exe/rbdock.cxx#4 $)

>  <Rbt.Library>
libRbt.so (2013.1, Build901 2013/11/27)

>  <Rbt.Parameter_File>
/export/apps/rDock/src/rDock_2013.1_src/data/scripts/dock_solv.prm

>  <Rbt.Receptor>
prm/pocket_docking_7.prm

>  <SCORE>
-14.3299

>  <SCORE.INTER>
-14.3299

>  <SCORE.INTER.CONST>
1

>  <SCORE.INTER.POLAR>
0

>  <SCORE.INTER.ROT>
0

>  <SCORE.INTER.SOLV>
3.70356

>  <SCORE.INTER.VDW>
-14.3878

>  <SCORE.INTER.norm>
-1.43299

>  <SCORE.INTRA>
0

>  <SCORE.INTRA.DIHEDRAL>
0

>  <SCORE.INTRA.DIHEDRAL.0>
0

>  <SCORE.INTRA.POLAR>
0

>  <SCORE.INTRA.POLAR.0>
0

>  <SCORE.INTRA.REPUL>
0

>  <SCORE.INTRA.REPUL.0>
0

>  <SCORE.INTRA.SOLV>
0

>  <SCORE.INTRA.SOLV.lig_0>
-4.15853

>  <SCORE.INTRA.VDW>
0

>  <SCORE.INTRA.VDW.0>
0

>  <SCORE.INTRA.norm>
0

>  <SCORE.RESTR>
0

>  <SCORE.RESTR.CAVITY>
0

>  <SCORE.RESTR.norm>
0

>  <SCORE.SYSTEM>
0

>  <SCORE.SYSTEM.CONST>
0

>  <SCORE.SYSTEM.DIHEDRAL>
0

>  <SCORE.SYSTEM.SOLV>
0

>  <SCORE.SYSTEM.norm>
0

>  <SCORE.heavy>
10

>  <SCORE.norm>
-1.43299

>  <RMSD>
3.704

$$$$
ligand
 OpenBabel02271912153D
libRbt.so/2013.1/901 2013/11/27
 10 11  0  0  0  0  0  0  0  0999 V2000
    2.9955  -10.3470   11.0608 N   0  0  0  0  0  0  0  0  0  0  0  0
    2.7065   -9.2669   11.7539 C   0  0  0  0  0  0  0  0  0  0  0  0
    1.6518   -9.3106   12.6691 N   0  0  0  0  0  0  0  0  0  0  0  0
    0.9481  -10.4280   12.8352 C   0  0  0  0  0  0  0  0  0  0  0  0
    1.2390  -11.5093   12.1364 C   0  0  0  0  0  0  0  0  0  0  0  0
    2.2281  -11.4917   11.2623 C   0  0  0  0  0  0  0  0  0  0  0  0
    2.4754  -12.5027   10.6200 O   0  0  0  0  0  0  0  0  0  0  0  0
    0.4031  -12.4856   12.4859 N   0  0  0  0  0  0  0  0  0  0  0  0
   -0.4060  -11.9945   13.4179 C   0  0  0  0  0  0  0  0  0  0  0  0
   -0.0686  -10.7200   13.6307 N   0  0  0  0  0  0  0  0  0  0  0  0
  1  2  1  0  0  0  0
  1  6  1  0  0  0  0
  2  3  2  0  0  0  0
  3  4  1  0  0  0  0
  4  5  2  0  0  0  0
  4 10  1  0  0  0  0
  5  6  1  0  0  0  0
  5  8  1  0  0  0  0
  6  7  2  0  0  0  0
  8  9  1  0  0  0  0
  9 10  2  0  0  0  0
M  END
>  <CHROM.1>
1.43886532,-11.03332298,12.15647705,-0.02295692,0.69026650,0.39021038

>  <Name>
ligand

>  <RI>
0

>  <Rbt.Current_Directory>
/home/itssahil/PROJECTS/Mol_Feturizer/Test_systems_manuscript/rnas/5c7w

>  <Rbt.Executable>
rbdock ($Id: //depot/dev/client3/rdock/2013.1/src/exe/rbdock.cxx#4 $)

>  <Rbt.Library>
libRbt.so (2013.1, Build901 2013/11/27)

>  <Rbt.Parameter_File>
/export/apps/rDock/src/rDock_2013.1_src/data/scripts/dock_solv.prm

>  <Rbt.Receptor>
prm/blind_docking_100.prm

>  <SCORE>
-14.2858

>  <SCORE.INTER>
-14.2858

>  <SCORE.INTER.CONST>
1

>  <SCORE.INTER.POLAR>
0

>  <SCORE.INTER.ROT>
0

>  <SCORE.INTER.SOLV>
3.71204

>  <SCORE.INTER.VDW>
-14.3612

>  <SCORE.INTER.norm>
-1.42858

>  <SCORE.INTRA>
0

>  <SCORE.INTRA.DIHEDRAL>
0

>  <SCORE.INTRA.DIHEDRAL.0>
0

>  <SCORE.INTRA.POLAR>
0

>  <SCORE.INTRA.POLAR.0>
0

>  <SCORE.INTRA.REPUL>
0

>  <SCORE.INTRA.REPUL.0>
0

>  <SCORE.INTRA.SOLV>
0

>  <SCORE.INTRA.SOLV.lig_0>
-4.15853

>  <SCORE.INTRA.VDW>
0

>  <SCORE.INTRA.VDW.0>
0

>  <SCORE.INTRA.norm>
0

>  <SCORE.RESTR>
0

>  <SCORE.RESTR.CAVITY>
0

>  <SCORE.RESTR.norm>
0

>  <SCORE.SYSTEM>
0

>  <SCORE.SYSTEM.CONST>
0

>  <SCORE.SYSTEM.DIHEDRAL>
0

>  <SCORE.SYSTEM.SOLV>
0

>  <SCORE.SYSTEM.norm>
0

>  <SCORE.heavy>
10

>  <SCORE.norm>
-1.42858

>  <RMSD>
3.705

$$$$
ligand
 OpenBabel02271912153D
libRbt.so/2013.1/901 2013/11/27
 10 11  0  0  0  0  0  0  0  0999 V2000
    2.9854  -10.3475   11.0652 N   0  0  0  0  0  0  0  0  0  0  0  0
    2.6878   -9.2750   11.7664 C   0  0  0  0  0  0  0  0  0  0  0  0
    1.6282   -9.3315   12.6752 N   0  0  0  0  0  0  0  0  0  0  0  0
    0.9285  -10.4534   12.8274 C   0  0  0  0  0  0  0  0  0  0  0  0
    1.2280  -11.5271   12.1205 C   0  0  0  0  0  0  0  0  0  0  0  0
    2.2218  -11.4973   11.2522 C   0  0  0  0  0  0  0  0  0  0  0  0
    2.4772  -12.5014   10.6022 O   0  0  0  0  0  0  0  0  0  0  0  0
    0.3945  -12.5101   12.4566 N   0  0  0  0  0  0  0  0  0  0  0  0
   -0.4220  -12.0309   13.3884 C   0  0  0  0  0  0  0  0  0  0  0  0
   -0.0913  -10.7570   13.6145 N   0  0  0  0  0  0  0  0  0  0  0  0
  1  2  1  0  0  0  0
  1  6  1  0  0  0  0
  2  3  2  0  0  0  0
  3  4  1  0  0  0  0
  4  5  2  0  0  0  0
  4 10  1  0  0  0  0
  5  6  1  0  0  0  0
  5  8  1  0  0  0  0
  6  7  2  0  0  0  0
  8  9  1  0  0  0  0
  9 10  2  0  0  0  0
M  END
>  <CHROM.1>
1.42567440,-11.05044835,12.14598574,-0.01496411,0.68678678,0.39413423

>  <Name>
ligand

>  <RI>
0

>  <Rbt.Current_Directory>
/home/itssahil/PROJECTS/Mol_Feturizer/Test_systems_manuscript/rnas/5c7w

>  <Rbt.Executable>
rbdock ($Id: //depot/dev/client3/rdock/2013.1/src/exe/rbdock.cxx#4 $)

>  <Rbt.Library>
libRbt.so (2013.1, Build901 2013/11/27)

>  <Rbt.Parameter_File>
/export/apps/rDock/src/rDock_2013.1_src/data/scripts/dock_solv.prm

>  <Rbt.Receptor>
prm/blind_docking_100.prm

>  <SCORE>
-14.3551

>  <SCORE.INTER>
-14.3551

>  <SCORE.INTER.CONST>
1

>  <SCORE.INTER.POLAR>
0

>  <SCORE.INTER.ROT>
0

>  <SCORE.INTER.SOLV>
3.7135

>  <SCORE.INTER.VDW>
-14.4079

>  <SCORE.INTER.norm>
-1.43551

>  <SCORE.INTRA>
0

>  <SCORE.INTRA.DIHEDRAL>
0

>  <SCORE.INTRA.DIHEDRAL.0>
0

>  <SCORE.INTRA.POLAR>
0

>  <SCORE.INTRA.POLAR.0>
0

>  <SCORE.INTRA.REPUL>
0

>  <SCORE.INTRA.REPUL.0>
0

>  <SCORE.INTRA.SOLV>
0

>  <SCORE.INTRA.SOLV.lig_0>
-4.15853

>  <SCORE.INTRA.VDW>
0

>  <SCORE.INTRA.VDW.0>
0

>  <SCORE.INTRA.norm>
0

>  <SCORE.RESTR>
0

>  <SCORE.RESTR.CAVITY>
0

>  <SCORE.RESTR.norm>
0

>  <SCORE.SYSTEM>
0

>  <SCORE.SYSTEM.CONST>
0

>  <SCORE.SYSTEM.DIHEDRAL>
0

>  <SCORE.SYSTEM.SOLV>
0

>  <SCORE.SYSTEM.norm>
0

>  <SCORE.heavy>
10

>  <SCORE.norm>
-1.43551

>  <RMSD>
3.705

$$$$
ligand
 OpenBabel02271912153D
libRbt.so/2013.1/901 2013/11/27
 10 11  0  0  0  0  0  0  0  0999 V2000
    2.9901  -10.3524   11.0628 N   0  0  0  0  0  0  0  0  0  0  0  0
    2.6988   -9.2842   11.7733 C   0  0  0  0  0  0  0  0  0  0  0  0
    1.6429   -9.3443   12.6861 N   0  0  0  0  0  0  0  0  0  0  0  0
    0.9404  -10.4651   12.8328 C   0  0  0  0  0  0  0  0  0  0  0  0
    1.2335  -11.5345   12.1166 C   0  0  0  0  0  0  0  0  0  0  0  0
    2.2238  -11.5012   11.2443 C   0  0  0  0  0  0  0  0  0  0  0  0
    2.4733  -12.5011   10.5857 O   0  0  0  0  0  0  0  0  0  0  0  0
    0.3984  -12.5174   12.4488 N   0  0  0  0  0  0  0  0  0  0  0  0
   -0.4126  -12.0427   13.3876 C   0  0  0  0  0  0  0  0  0  0  0  0
   -0.0771  -10.7715   13.6219 N   0  0  0  0  0  0  0  0  0  0  0  0
  1  2  1  0  0  0  0
  1  6  1  0  0  0  0
  2  3  2  0  0  0  0
  3  4  1  0  0  0  0
  4  5  2  0  0  0  0
  4 10  1  0  0  0  0
  5  6  1  0  0  0  0
  5  8  1  0  0  0  0
  6  7  2  0  0  0  0
  8  9  1  0  0  0  0
  9 10  2  0  0  0  0
M  END
>  <CHROM.1>
1.43280624,-11.05859701,12.14481971,-0.02077289,0.68945752,0.40532998

>  <Name>
ligand

>  <RI>
0

>  <Rbt.Current_Directory>
/home/itssahil/PROJECTS/Mol_Feturizer/Test_systems_manuscript/rnas/5c7w

>  <Rbt.Executable>
rbdock ($Id: //depot/dev/client3/rdock/2013.1/src/exe/rbdock.cxx#4 $)

>  <Rbt.Library>
libRbt.so (2013.1, Build901 2013/11/27)

>  <Rbt.Parameter_File>
/export/apps/rDock/src/rDock_2013.1_src/data/scripts/dock_solv.prm

>  <Rbt.Receptor>
prm/blind_docking_20.prm

>  <SCORE>
-14.3366

>  <SCORE.INTER>
-14.3366

>  <SCORE.INTER.CONST>
1

>  <SCORE.INTER.POLAR>
0

>  <SCORE.INTER.ROT>
0

>  <SCORE.INTER.SOLV>
3.72651

>  <SCORE.INTER.VDW>
-14.3999

>  <SCORE.INTER.norm>
-1.43366

>  <SCORE.INTRA>
0

>  <SCORE.INTRA.DIHEDRAL>
0

>  <SCORE.INTRA.DIHEDRAL.0>
0

>  <SCORE.INTRA.POLAR>
0

>  <SCORE.INTRA.POLAR.0>
0

>  <SCORE.INTRA.REPUL>
0

>  <SCORE.INTRA.REPUL.0>
0

>  <SCORE.INTRA.SOLV>
0

>  <SCORE.INTRA.SOLV.lig_0>
-4.15853

>  <SCORE.INTRA.VDW>
0

>  <SCORE.INTRA.VDW.0>
0

>  <SCORE.INTRA.norm>
0

>  <SCORE.RESTR>
0

>  <SCORE.RESTR.CAVITY>
0

>  <SCORE.RESTR.norm>
0

>  <SCORE.SYSTEM>
0

>  <SCORE.SYSTEM.CONST>
0

>  <SCORE.SYSTEM.DIHEDRAL>
0

>  <SCORE.SYSTEM.SOLV>
0

>  <SCORE.SYSTEM.norm>
0

>  <SCORE.heavy>
10

>  <SCORE.norm>
-1.43366

>  <RMSD>
3.705

$$$$
ligand
 OpenBabel02271912153D
libRbt.so/2013.1/901 2013/11/27
 10 11  0  0  0  0  0  0  0  0999 V2000
    2.9903  -10.3488   11.0718 N   0  0  0  0  0  0  0  0  0  0  0  0
    2.6910   -9.2756   11.7712 C   0  0  0  0  0  0  0  0  0  0  0  0
    1.6291   -9.3311   12.6774 N   0  0  0  0  0  0  0  0  0  0  0  0
    0.9290  -10.4528   12.8289 C   0  0  0  0  0  0  0  0  0  0  0  0
    1.2303  -11.5273   12.1239 C   0  0  0  0  0  0  0  0  0  0  0  0
    2.2263  -11.4984   11.2581 C   0  0  0  0  0  0  0  0  0  0  0  0
    2.4833  -12.5031   10.6098 O   0  0  0  0  0  0  0  0  0  0  0  0
    0.3960  -12.5099   12.4589 N   0  0  0  0  0  0  0  0  0  0  0  0
   -0.4229  -12.0298   13.3882 C   0  0  0  0  0  0  0  0  0  0  0  0
   -0.0927  -10.7556   13.6138 N   0  0  0  0  0  0  0  0  0  0  0  0
  1  2  1  0  0  0  0
  1  6  1  0  0  0  0
  2  3  2  0  0  0  0
  3  4  1  0  0  0  0
  4  5  2  0  0  0  0
  4 10  1  0  0  0  0
  5  6  1  0  0  0  0
  5  8  1  0  0  0  0
  6  7  2  0  0  0  0
  8  9  1  0  0  0  0
  9 10  2  0  0  0  0
M  END
>  <CHROM.1>
1.42790466,-11.05059497,12.14941681,-0.01371774,0.68445754,0.39230272

>  <Name>
ligand

>  <RI>
0

>  <Rbt.Current_Directory>
/home/itssahil/PROJECTS/Mol_Feturizer/Test_systems_manuscript/rnas/5c7w

>  <Rbt.Executable>
rbdock ($Id: //depot/dev/client3/rdock/2013.1/src/exe/rbdock.cxx#4 $)

>  <Rbt.Library>
libRbt.so (2013.1, Build901 2013/11/27)

>  <Rbt.Parameter_File>
/export/apps/rDock/src/rDock_2013.1_src/data/scripts/dock_solv.prm

>  <Rbt.Receptor>
prm/pocket_docking_8.prm

>  <SCORE>
-14.3574

>  <SCORE.INTER>
-14.3574

>  <SCORE.INTER.CONST>
1

>  <SCORE.INTER.POLAR>
0

>  <SCORE.INTER.ROT>
0

>  <SCORE.INTER.SOLV>
3.70712

>  <SCORE.INTER.VDW>
-14.4073

>  <SCORE.INTER.norm>
-1.43574

>  <SCORE.INTRA>
0

>  <SCORE.INTRA.DIHEDRAL>
0

>  <SCORE.INTRA.DIHEDRAL.0>
0

>  <SCORE.INTRA.POLAR>
0

>  <SCORE.INTRA.POLAR.0>
0

>  <SCORE.INTRA.REPUL>
0

>  <SCORE.INTRA.REPUL.0>
0

>  <SCORE.INTRA.SOLV>
0

>  <SCORE.INTRA.SOLV.lig_0>
-4.15853

>  <SCORE.INTRA.VDW>
0

>  <SCORE.INTRA.VDW.0>
0

>  <SCORE.INTRA.norm>
0

>  <SCORE.RESTR>
0

>  <SCORE.RESTR.CAVITY>
0

>  <SCORE.RESTR.norm>
0

>  <SCORE.SYSTEM>
0

>  <SCORE.SYSTEM.CONST>
0

>  <SCORE.SYSTEM.DIHEDRAL>
0

>  <SCORE.SYSTEM.SOLV>
0

>  <SCORE.SYSTEM.norm>
0

>  <SCORE.heavy>
10

>  <SCORE.norm>
-1.43574

>  <RMSD>
3.705

$$$$
ligand
 OpenBabel02271912153D
libRbt.so/2013.1/901 2013/11/27
 10 11  0  0  0  0  0  0  0  0999 V2000
    2.9923  -10.3470   11.0746 N   0  0  0  0  0  0  0  0  0  0  0  0
    2.6906   -9.2730   11.7717 C   0  0  0  0  0  0  0  0  0  0  0  0
    1.6270   -9.3281   12.6759 N   0  0  0  0  0  0  0  0  0  0  0  0
    0.9277  -10.4502   12.8279 C   0  0  0  0  0  0  0  0  0  0  0  0
    1.2313  -11.5255   12.1251 C   0  0  0  0  0  0  0  0  0  0  0  0
    2.2289  -11.4970   11.2611 C   0  0  0  0  0  0  0  0  0  0  0  0
    2.4881  -12.5025   10.6149 O   0  0  0  0  0  0  0  0  0  0  0  0
    0.3972  -12.5083   12.4600 N   0  0  0  0  0  0  0  0  0  0  0  0
   -0.4238  -12.0275   13.3869 C   0  0  0  0  0  0  0  0  0  0  0  0
   -0.0953  -10.7527   13.6112 N   0  0  0  0  0  0  0  0  0  0  0  0
  1  2  1  0  0  0  0
  1  6  1  0  0  0  0
  2  3  2  0  0  0  0
  3  4  1  0  0  0  0
  4  5  2  0  0  0  0
  4 10  1  0  0  0  0
  5  6  1  0  0  0  0
  5  8  1  0  0  0  0
  6  7  2  0  0  0  0
  8  9  1  0  0  0  0
  9 10  2  0  0  0  0
M  END
>  <CHROM.1>
1.42841038,-11.04855608,12.15023220,-0.01168828,0.68303087,0.38947057

>  <Name>
ligand

>  <RI>
0

>  <Rbt.Current_Directory>
/home/itssahil/PROJECTS/Mol_Feturizer/Test_systems_manuscript/rnas/5c7w

>  <Rbt.Executable>
rbdock ($Id: //depot/dev/client3/rdock/2013.1/src/exe/rbdock.cxx#4 $)

>  <Rbt.Library>
libRbt.so (2013.1, Build901 2013/11/27)

>  <Rbt.Parameter_File>
/export/apps/rDock/src/rDock_2013.1_src/data/scripts/dock_solv.prm

>  <Rbt.Receptor>
prm/blind_docking_40.prm

>  <SCORE>
-14.3579

>  <SCORE.INTER>
-14.3579

>  <SCORE.INTER.CONST>
1

>  <SCORE.INTER.POLAR>
0

>  <SCORE.INTER.ROT>
0

>  <SCORE.INTER.SOLV>
3.70203

>  <SCORE.INTER.VDW>
-14.4059

>  <SCORE.INTER.norm>
-1.43579

>  <SCORE.INTRA>
0

>  <SCORE.INTRA.DIHEDRAL>
0

>  <SCORE.INTRA.DIHEDRAL.0>
0

>  <SCORE.INTRA.POLAR>
0

>  <SCORE.INTRA.POLAR.0>
0

>  <SCORE.INTRA.REPUL>
0

>  <SCORE.INTRA.REPUL.0>
0

>  <SCORE.INTRA.SOLV>
0

>  <SCORE.INTRA.SOLV.lig_0>
-4.15853

>  <SCORE.INTRA.VDW>
0

>  <SCORE.INTRA.VDW.0>
0

>  <SCORE.INTRA.norm>
0

>  <SCORE.RESTR>
0

>  <SCORE.RESTR.CAVITY>
0

>  <SCORE.RESTR.norm>
0

>  <SCORE.SYSTEM>
0

>  <SCORE.SYSTEM.CONST>
0

>  <SCORE.SYSTEM.DIHEDRAL>
0

>  <SCORE.SYSTEM.SOLV>
0

>  <SCORE.SYSTEM.norm>
0

>  <SCORE.heavy>
10

>  <SCORE.norm>
-1.43579

>  <RMSD>
3.706

$$$$
ligand
 OpenBabel02271912153D
libRbt.so/2013.1/901 2013/11/27
 10 11  0  0  0  0  0  0  0  0999 V2000
    2.9799  -10.3422   11.0549 N   0  0  0  0  0  0  0  0  0  0  0  0
    2.6787   -9.2689   11.7534 C   0  0  0  0  0  0  0  0  0  0  0  0
    1.6283   -9.3306   12.6725 N   0  0  0  0  0  0  0  0  0  0  0  0
    0.9408  -10.4582   12.8370 C   0  0  0  0  0  0  0  0  0  0  0  0
    1.2438  -11.5328   12.1329 C   0  0  0  0  0  0  0  0  0  0  0  0
    2.2291  -11.4981   11.2550 C   0  0  0  0  0  0  0  0  0  0  0  0
    2.4878  -12.5031   10.6078 O   0  0  0  0  0  0  0  0  0  0  0  0
    0.4229  -12.5218   12.4818 N   0  0  0  0  0  0  0  0  0  0  0  0
   -0.3893  -12.0455   13.4189 C   0  0  0  0  0  0  0  0  0  0  0  0
   -0.0686  -10.7673   13.6353 N   0  0  0  0  0  0  0  0  0  0  0  0
  1  2  1  0  0  0  0
  1  6  1  0  0  0  0
  2  3  2  0  0  0  0
  3  4  1  0  0  0  0
  4  5  2  0  0  0  0
  4 10  1  0  0  0  0
  5  6  1  0  0  0  0
  5  8  1  0  0  0  0
  6  7  2  0  0  0  0
  8  9  1  0  0  0  0
  9 10  2  0  0  0  0
M  END
>  <CHROM.1>
1.43714227,-11.05414445,12.15401276,-0.00822506,0.69911738,0.38463287

>  <Name>
ligand

>  <RI>
0

>  <Rbt.Current_Directory>
/home/itssahil/PROJECTS/Mol_Feturizer/Test_systems_manuscript/rnas/5c7w

>  <Rbt.Executable>
rbdock ($Id: //depot/dev/client3/rdock/2013.1/src/exe/rbdock.cxx#4 $)

>  <Rbt.Library>
libRbt.so (2013.1, Build901 2013/11/27)

>  <Rbt.Parameter_File>
/export/apps/rDock/src/rDock_2013.1_src/data/scripts/dock_solv.prm

>  <Rbt.Receptor>
prm/blind_docking_40.prm

>  <SCORE>
-14.2666

>  <SCORE.INTER>
-14.2666

>  <SCORE.INTER.CONST>
1

>  <SCORE.INTER.POLAR>
0

>  <SCORE.INTER.ROT>
0

>  <SCORE.INTER.SOLV>
3.73613

>  <SCORE.INTER.VDW>
-14.3564

>  <SCORE.INTER.norm>
-1.42666

>  <SCORE.INTRA>
0

>  <SCORE.INTRA.DIHEDRAL>
0

>  <SCORE.INTRA.DIHEDRAL.0>
0

>  <SCORE.INTRA.POLAR>
0

>  <SCORE.INTRA.POLAR.0>
0

>  <SCORE.INTRA.REPUL>
0

>  <SCORE.INTRA.REPUL.0>
0

>  <SCORE.INTRA.SOLV>
0

>  <SCORE.INTRA.SOLV.lig_0>
-4.15853

>  <SCORE.INTRA.VDW>
0

>  <SCORE.INTRA.VDW.0>
0

>  <SCORE.INTRA.norm>
0

>  <SCORE.RESTR>
0

>  <SCORE.RESTR.CAVITY>
0

>  <SCORE.RESTR.norm>
0

>  <SCORE.SYSTEM>
0

>  <SCORE.SYSTEM.CONST>
0

>  <SCORE.SYSTEM.DIHEDRAL>
0

>  <SCORE.SYSTEM.SOLV>
0

>  <SCORE.SYSTEM.norm>
0

>  <SCORE.heavy>
10

>  <SCORE.norm>
-1.42666

>  <RMSD>
3.706

$$$$
ligand
 OpenBabel02271912153D
libRbt.so/2013.1/901 2013/11/27
 10 11  0  0  0  0  0  0  0  0999 V2000
    2.5254   -9.8745   11.6096 N   0  0  0  0  0  0  0  0  0  0  0  0
    1.8197   -9.3433   12.5845 C   0  0  0  0  0  0  0  0  0  0  0  0
    0.8930  -10.1392   13.2624 N   0  0  0  0  0  0  0  0  0  0  0  0
    0.7248  -11.4156   12.9250 C   0  0  0  0  0  0  0  0  0  0  0  0
    1.4326  -11.9451   11.9447 C   0  0  0  0  0  0  0  0  0  0  0  0
    2.3112  -11.2122   11.2862 C   0  0  0  0  0  0  0  0  0  0  0  0
    2.9508  -11.7210   10.3762 O   0  0  0  0  0  0  0  0  0  0  0  0
    1.0878  -13.2241   11.8068 N   0  0  0  0  0  0  0  0  0  0  0  0
    0.1601  -13.4813   12.7221 C   0  0  0  0  0  0  0  0  0  0  0  0
   -0.0649  -12.3598   13.4114 N   0  0  0  0  0  0  0  0  0  0  0  0
  1  2  1  0  0  0  0
  1  6  1  0  0  0  0
  2  3  2  0  0  0  0
  3  4  1  0  0  0  0
  4  5  2  0  0  0  0
  4 10  1  0  0  0  0
  5  6  1  0  0  0  0
  5  8  1  0  0  0  0
  6  7  2  0  0  0  0
  8  9  1  0  0  0  0
  9 10  2  0  0  0  0
M  END
>  <CHROM.1>
1.41483396,-11.47478463,12.15796702,0.55185508,0.79050774,0.38546284

>  <Name>
ligand

>  <RI>
0

>  <Rbt.Current_Directory>
/home/itssahil/PROJECTS/Mol_Feturizer/Test_systems_manuscript/rnas/5c7w

>  <Rbt.Executable>
rbdock ($Id: //depot/dev/client3/rdock/2013.1/src/exe/rbdock.cxx#4 $)

>  <Rbt.Library>
libRbt.so (2013.1, Build901 2013/11/27)

>  <Rbt.Parameter_File>
/export/apps/rDock/src/rDock_2013.1_src/data/scripts/dock_solv.prm

>  <Rbt.Receptor>
prm/pocket_docking_5.prm

>  <SCORE>
-13.8544

>  <SCORE.INTER>
-13.8544

>  <SCORE.INTER.CONST>
1

>  <SCORE.INTER.POLAR>
0

>  <SCORE.INTER.ROT>
0

>  <SCORE.INTER.SOLV>
3.79379

>  <SCORE.INTER.VDW>
-14.1008

>  <SCORE.INTER.norm>
-1.38544

>  <SCORE.INTRA>
0

>  <SCORE.INTRA.DIHEDRAL>
0

>  <SCORE.INTRA.DIHEDRAL.0>
0

>  <SCORE.INTRA.POLAR>
0

>  <SCORE.INTRA.POLAR.0>
0

>  <SCORE.INTRA.REPUL>
0

>  <SCORE.INTRA.REPUL.0>
0

>  <SCORE.INTRA.SOLV>
0

>  <SCORE.INTRA.SOLV.lig_0>
-4.15853

>  <SCORE.INTRA.VDW>
0

>  <SCORE.INTRA.VDW.0>
0

>  <SCORE.INTRA.norm>
0

>  <SCORE.RESTR>
0

>  <SCORE.RESTR.CAVITY>
0

>  <SCORE.RESTR.norm>
0

>  <SCORE.SYSTEM>
0

>  <SCORE.SYSTEM.CONST>
0

>  <SCORE.SYSTEM.DIHEDRAL>
0

>  <SCORE.SYSTEM.SOLV>
0

>  <SCORE.SYSTEM.norm>
0

>  <SCORE.heavy>
10

>  <SCORE.norm>
-1.38544

>  <RMSD>
3.756

$$$$
ligand
 OpenBabel02271912153D
libRbt.so/2013.1/901 2013/11/27
 10 11  0  0  0  0  0  0  0  0999 V2000
    2.5658   -9.3653   11.5467 N   0  0  0  0  0  0  0  0  0  0  0  0
    1.8265   -9.2555   12.6293 C   0  0  0  0  0  0  0  0  0  0  0  0
    1.1745  -10.3882   13.1229 N   0  0  0  0  0  0  0  0  0  0  0  0
    1.2977  -11.5607   12.5054 C   0  0  0  0  0  0  0  0  0  0  0  0
    2.0382  -11.6672   11.4180 C   0  0  0  0  0  0  0  0  0  0  0  0
    2.6605  -10.6103   10.9296 C   0  0  0  0  0  0  0  0  0  0  0  0
    3.3353  -10.7299    9.9165 O   0  0  0  0  0  0  0  0  0  0  0  0
    2.0060  -12.9304   10.9971 N   0  0  0  0  0  0  0  0  0  0  0  0
    1.2396  -13.6071   11.8450 C   0  0  0  0  0  0  0  0  0  0  0  0
    0.8001  -12.7568   12.7764 N   0  0  0  0  0  0  0  0  0  0  0  0
  1  2  1  0  0  0  0
  1  6  1  0  0  0  0
  2  3  2  0  0  0  0
  3  4  1  0  0  0  0
  4  5  2  0  0  0  0
  4 10  1  0  0  0  0
  5  6  1  0  0  0  0
  5  8  1  0  0  0  0
  6  7  2  0  0  0  0
  8  9  1  0  0  0  0
  9 10  2  0  0  0  0
M  END
>  <CHROM.1>
1.92234356,-11.27472880,11.73344325,0.88780637,0.92751481,0.35808839

>  <Name>
ligand

>  <RI>
0

>  <Rbt.Current_Directory>
/home/itssahil/PROJECTS/Mol_Feturizer/Test_systems_manuscript/rnas/5c7w

>  <Rbt.Executable>
rbdock ($Id: //depot/dev/client3/rdock/2013.1/src/exe/rbdock.cxx#4 $)

>  <Rbt.Library>
libRbt.so (2013.1, Build901 2013/11/27)

>  <Rbt.Parameter_File>
/export/apps/rDock/src/rDock_2013.1_src/data/scripts/dock_solv.prm

>  <Rbt.Receptor>
prm/blind_docking_60.prm

>  <SCORE>
-14.8906

>  <SCORE.INTER>
-14.8906

>  <SCORE.INTER.CONST>
1

>  <SCORE.INTER.POLAR>
0

>  <SCORE.INTER.ROT>
0

>  <SCORE.INTER.SOLV>
4.6343

>  <SCORE.INTER.VDW>
-15.0719

>  <SCORE.INTER.norm>
-1.48906

>  <SCORE.INTRA>
0

>  <SCORE.INTRA.DIHEDRAL>
0

>  <SCORE.INTRA.DIHEDRAL.0>
0

>  <SCORE.INTRA.POLAR>
0

>  <SCORE.INTRA.POLAR.0>
0

>  <SCORE.INTRA.REPUL>
0

>  <SCORE.INTRA.REPUL.0>
0

>  <SCORE.INTRA.SOLV>
0

>  <SCORE.INTRA.SOLV.lig_0>
-4.15853

>  <SCORE.INTRA.VDW>
0

>  <SCORE.INTRA.VDW.0>
0

>  <SCORE.INTRA.norm>
0

>  <SCORE.RESTR>
0

>  <SCORE.RESTR.CAVITY>
0

>  <SCORE.RESTR.norm>
0

>  <SCORE.SYSTEM>
0

>  <SCORE.SYSTEM.CONST>
0

>  <SCORE.SYSTEM.DIHEDRAL>
0

>  <SCORE.SYSTEM.SOLV>
0

>  <SCORE.SYSTEM.norm>
0

>  <SCORE.heavy>
10

>  <SCORE.norm>
-1.48906

>  <RMSD>
3.842

$$$$
ligand
 OpenBabel02271912153D
libRbt.so/2013.1/901 2013/11/27
 10 11  0  0  0  0  0  0  0  0999 V2000
    2.5381   -9.3614   11.5090 N   0  0  0  0  0  0  0  0  0  0  0  0
    1.8104   -9.2672   12.6009 C   0  0  0  0  0  0  0  0  0  0  0  0
    1.1910  -10.4140   13.1040 N   0  0  0  0  0  0  0  0  0  0  0  0
    1.3330  -11.5842   12.4860 C   0  0  0  0  0  0  0  0  0  0  0  0
    2.0618  -11.6749   11.3892 C   0  0  0  0  0  0  0  0  0  0  0  0
    2.6533  -10.6047   10.8919 C   0  0  0  0  0  0  0  0  0  0  0  0
    3.3176  -10.7100    9.8703 O   0  0  0  0  0  0  0  0  0  0  0  0
    2.0532  -12.9390   10.9699 N   0  0  0  0  0  0  0  0  0  0  0  0
    1.3133  -13.6321   11.8283 C   0  0  0  0  0  0  0  0  0  0  0  0
    0.8665  -12.7910   12.7645 N   0  0  0  0  0  0  0  0  0  0  0  0
  1  2  1  0  0  0  0
  1  6  1  0  0  0  0
  2  3  2  0  0  0  0
  3  4  1  0  0  0  0
  4  5  2  0  0  0  0
  4 10  1  0  0  0  0
  5  6  1  0  0  0  0
  5  8  1  0  0  0  0
  6  7  2  0  0  0  0
  8  9  1  0  0  0  0
  9 10  2  0  0  0  0
M  END
>  <CHROM.1>
1.94100207,-11.28485358,11.70578337,0.91686077,0.94739544,0.33360319

>  <Name>
ligand

>  <RI>
0

>  <Rbt.Current_Directory>
/home/itssahil/PROJECTS/Mol_Feturizer/Test_systems_manuscript/rnas/5c7w

>  <Rbt.Executable>
rbdock ($Id: //depot/dev/client3/rdock/2013.1/src/exe/rbdock.cxx#4 $)

>  <Rbt.Library>
libRbt.so (2013.1, Build901 2013/11/27)

>  <Rbt.Parameter_File>
/export/apps/rDock/src/rDock_2013.1_src/data/scripts/dock_solv.prm

>  <Rbt.Receptor>
prm/blind_docking_100.prm

>  <SCORE>
-14.9469

>  <SCORE.INTER>
-14.9469

>  <SCORE.INTER.CONST>
1

>  <SCORE.INTER.POLAR>
0

>  <SCORE.INTER.ROT>
0

>  <SCORE.INTER.SOLV>
4.71249

>  <SCORE.INTER.VDW>
-15.1355

>  <SCORE.INTER.norm>
-1.49469

>  <SCORE.INTRA>
0

>  <SCORE.INTRA.DIHEDRAL>
0

>  <SCORE.INTRA.DIHEDRAL.0>
0

>  <SCORE.INTRA.POLAR>
0

>  <SCORE.INTRA.POLAR.0>
0

>  <SCORE.INTRA.REPUL>
0

>  <SCORE.INTRA.REPUL.0>
0

>  <SCORE.INTRA.SOLV>
0

>  <SCORE.INTRA.SOLV.lig_0>
-4.15853

>  <SCORE.INTRA.VDW>
0

>  <SCORE.INTRA.VDW.0>
0

>  <SCORE.INTRA.norm>
0

>  <SCORE.RESTR>
0

>  <SCORE.RESTR.CAVITY>
0

>  <SCORE.RESTR.norm>
0

>  <SCORE.SYSTEM>
0

>  <SCORE.SYSTEM.CONST>
0

>  <SCORE.SYSTEM.DIHEDRAL>
0

>  <SCORE.SYSTEM.SOLV>
0

>  <SCORE.SYSTEM.norm>
0

>  <SCORE.heavy>
10

>  <SCORE.norm>
-1.49469

>  <RMSD>
3.844

$$$$
ligand
 OpenBabel02271912153D
libRbt.so/2013.1/901 2013/11/27
 10 11  0  0  0  0  0  0  0  0999 V2000
    2.5234   -9.3576   11.5325 N   0  0  0  0  0  0  0  0  0  0  0  0
    1.7985   -9.3257   12.6298 C   0  0  0  0  0  0  0  0  0  0  0  0
    1.2122  -10.5075   13.0897 N   0  0  0  0  0  0  0  0  0  0  0  0
    1.3826  -11.6484   12.4259 C   0  0  0  0  0  0  0  0  0  0  0  0
    2.1086  -11.6766   11.3238 C   0  0  0  0  0  0  0  0  0  0  0  0
    2.6690  -10.5723   10.8667 C   0  0  0  0  0  0  0  0  0  0  0  0
    3.3312  -10.6197    9.8395 O   0  0  0  0  0  0  0  0  0  0  0  0
    2.1318  -12.9231   10.8553 N   0  0  0  0  0  0  0  0  0  0  0  0
    1.4147  -13.6689   11.6885 C   0  0  0  0  0  0  0  0  0  0  0  0
    0.9498  -12.8773   12.6584 N   0  0  0  0  0  0  0  0  0  0  0  0
  1  2  1  0  0  0  0
  1  6  1  0  0  0  0
  2  3  2  0  0  0  0
  3  4  1  0  0  0  0
  4  5  2  0  0  0  0
  4 10  1  0  0  0  0
  5  6  1  0  0  0  0
  5  8  1  0  0  0  0
  6  7  2  0  0  0  0
  8  9  1  0  0  0  0
  9 10  2  0  0  0  0
M  END
>  <CHROM.1>
1.97883023,-11.30257445,11.65580685,0.95828717,0.96005659,0.33895445

>  <Name>
ligand

>  <RI>
0

>  <Rbt.Current_Directory>
/home/itssahil/PROJECTS/Mol_Feturizer/Test_systems_manuscript/rnas/5c7w

>  <Rbt.Executable>
rbdock ($Id: //depot/dev/client3/rdock/2013.1/src/exe/rbdock.cxx#4 $)

>  <Rbt.Library>
libRbt.so (2013.1, Build901 2013/11/27)

>  <Rbt.Parameter_File>
/export/apps/rDock/src/rDock_2013.1_src/data/scripts/dock_solv.prm

>  <Rbt.Receptor>
prm/blind_docking_60.prm

>  <SCORE>
-14.9319

>  <SCORE.INTER>
-14.9319

>  <SCORE.INTER.CONST>
1

>  <SCORE.INTER.POLAR>
0

>  <SCORE.INTER.ROT>
0

>  <SCORE.INTER.SOLV>
4.79349

>  <SCORE.INTER.VDW>
-15.1524

>  <SCORE.INTER.norm>
-1.49319

>  <SCORE.INTRA>
0

>  <SCORE.INTRA.DIHEDRAL>
0

>  <SCORE.INTRA.DIHEDRAL.0>
0

>  <SCORE.INTRA.POLAR>
0

>  <SCORE.INTRA.POLAR.0>
0

>  <SCORE.INTRA.REPUL>
0

>  <SCORE.INTRA.REPUL.0>
0

>  <SCORE.INTRA.SOLV>
0

>  <SCORE.INTRA.SOLV.lig_0>
-4.15853

>  <SCORE.INTRA.VDW>
0

>  <SCORE.INTRA.VDW.0>
0

>  <SCORE.INTRA.norm>
0

>  <SCORE.RESTR>
0

>  <SCORE.RESTR.CAVITY>
0

>  <SCORE.RESTR.norm>
0

>  <SCORE.SYSTEM>
0

>  <SCORE.SYSTEM.CONST>
0

>  <SCORE.SYSTEM.DIHEDRAL>
0

>  <SCORE.SYSTEM.SOLV>
0

>  <SCORE.SYSTEM.norm>
0

>  <SCORE.heavy>
10

>  <SCORE.norm>
-1.49319

>  <RMSD>
3.844

$$$$
ligand
 OpenBabel02271912153D
libRbt.so/2013.1/901 2013/11/27
 10 11  0  0  0  0  0  0  0  0999 V2000
    2.5275   -9.3619   11.5291 N   0  0  0  0  0  0  0  0  0  0  0  0
    1.7997   -9.3268   12.6243 C   0  0  0  0  0  0  0  0  0  0  0  0
    1.2120  -10.5072   13.0860 N   0  0  0  0  0  0  0  0  0  0  0  0
    1.3839  -11.6500   12.4258 C   0  0  0  0  0  0  0  0  0  0  0  0
    2.1128  -11.6814   11.3257 C   0  0  0  0  0  0  0  0  0  0  0  0
    2.6746  -10.5784   10.8670 C   0  0  0  0  0  0  0  0  0  0  0  0
    3.3395  -10.6288    9.8417 O   0  0  0  0  0  0  0  0  0  0  0  0
    2.1370  -12.9292   10.8608 N   0  0  0  0  0  0  0  0  0  0  0  0
    1.4176  -13.6725   11.6941 C   0  0  0  0  0  0  0  0  0  0  0  0
    0.9503  -12.8782   12.6607 N   0  0  0  0  0  0  0  0  0  0  0  0
  1  2  1  0  0  0  0
  1  6  1  0  0  0  0
  2  3  2  0  0  0  0
  3  4  1  0  0  0  0
  4  5  2  0  0  0  0
  4 10  1  0  0  0  0
  5  6  1  0  0  0  0
  5  8  1  0  0  0  0
  6  7  2  0  0  0  0
  8  9  1  0  0  0  0
  9 10  2  0  0  0  0
M  END
>  <CHROM.1>
1.98222988,-11.30642729,11.65636840,0.95950067,0.95751275,0.33518478

>  <Name>
ligand

>  <RI>
0

>  <Rbt.Current_Directory>
/home/itssahil/PROJECTS/Mol_Feturizer/Test_systems_manuscript/rnas/5c7w

>  <Rbt.Executable>
rbdock ($Id: //depot/dev/client3/rdock/2013.1/src/exe/rbdock.cxx#4 $)

>  <Rbt.Library>
libRbt.so (2013.1, Build901 2013/11/27)

>  <Rbt.Parameter_File>
/export/apps/rDock/src/rDock_2013.1_src/data/scripts/dock_solv.prm

>  <Rbt.Receptor>
prm/pocket_docking_7.prm

>  <SCORE>
-14.9325

>  <SCORE.INTER>
-14.9325

>  <SCORE.INTER.CONST>
1

>  <SCORE.INTER.POLAR>
0

>  <SCORE.INTER.ROT>
0

>  <SCORE.INTER.SOLV>
4.79214

>  <SCORE.INTER.VDW>
-15.1524

>  <SCORE.INTER.norm>
-1.49325

>  <SCORE.INTRA>
0

>  <SCORE.INTRA.DIHEDRAL>
0

>  <SCORE.INTRA.DIHEDRAL.0>
0

>  <SCORE.INTRA.POLAR>
0

>  <SCORE.INTRA.POLAR.0>
0

>  <SCORE.INTRA.REPUL>
0

>  <SCORE.INTRA.REPUL.0>
0

>  <SCORE.INTRA.SOLV>
0

>  <SCORE.INTRA.SOLV.lig_0>
-4.15853

>  <SCORE.INTRA.VDW>
0

>  <SCORE.INTRA.VDW.0>
0

>  <SCORE.INTRA.norm>
0

>  <SCORE.RESTR>
0

>  <SCORE.RESTR.CAVITY>
0

>  <SCORE.RESTR.norm>
0

>  <SCORE.SYSTEM>
0

>  <SCORE.SYSTEM.CONST>
0

>  <SCORE.SYSTEM.DIHEDRAL>
0

>  <SCORE.SYSTEM.SOLV>
0

>  <SCORE.SYSTEM.norm>
0

>  <SCORE.heavy>
10

>  <SCORE.norm>
-1.49325

>  <RMSD>
3.846

$$$$
ligand
 OpenBabel02271912153D
libRbt.so/2013.1/901 2013/11/27
 10 11  0  0  0  0  0  0  0  0999 V2000
    2.5257   -9.3584   11.5234 N   0  0  0  0  0  0  0  0  0  0  0  0
    1.7971   -9.3227   12.6182 C   0  0  0  0  0  0  0  0  0  0  0  0
    1.2117  -10.5035   13.0819 N   0  0  0  0  0  0  0  0  0  0  0  0
    1.3866  -11.6471   12.4241 C   0  0  0  0  0  0  0  0  0  0  0  0
    2.1162  -11.6792   11.3246 C   0  0  0  0  0  0  0  0  0  0  0  0
    2.6759  -10.5759   10.8640 C   0  0  0  0  0  0  0  0  0  0  0  0
    3.3415  -10.6270    9.8392 O   0  0  0  0  0  0  0  0  0  0  0  0
    2.1434  -12.9279   10.8622 N   0  0  0  0  0  0  0  0  0  0  0  0
    1.4251  -13.6711   11.6966 C   0  0  0  0  0  0  0  0  0  0  0  0
    0.9555  -12.8758   12.6612 N   0  0  0  0  0  0  0  0  0  0  0  0
  1  2  1  0  0  0  0
  1  6  1  0  0  0  0
  2  3  2  0  0  0  0
  3  4  1  0  0  0  0
  4  5  2  0  0  0  0
  4 10  1  0  0  0  0
  5  6  1  0  0  0  0
  5  8  1  0  0  0  0
  6  7  2  0  0  0  0
  8  9  1  0  0  0  0
  9 10  2  0  0  0  0
M  END
>  <CHROM.1>
1.98460640,-11.30385901,11.65436720,0.96347633,0.95763555,0.32989448

>  <Name>
ligand

>  <RI>
0

>  <Rbt.Current_Directory>
/home/itssahil/PROJECTS/Mol_Feturizer/Test_systems_manuscript/rnas/5c7w

>  <Rbt.Executable>
rbdock ($Id: //depot/dev/client3/rdock/2013.1/src/exe/rbdock.cxx#4 $)

>  <Rbt.Library>
libRbt.so (2013.1, Build901 2013/11/27)

>  <Rbt.Parameter_File>
/export/apps/rDock/src/rDock_2013.1_src/data/scripts/dock_solv.prm

>  <Rbt.Receptor>
prm/blind_docking_100.prm

>  <SCORE>
-14.9299

>  <SCORE.INTER>
-14.9299

>  <SCORE.INTER.CONST>
1

>  <SCORE.INTER.POLAR>
0

>  <SCORE.INTER.ROT>
0

>  <SCORE.INTER.SOLV>
4.79823

>  <SCORE.INTER.VDW>
-15.1527

>  <SCORE.INTER.norm>
-1.49299

>  <SCORE.INTRA>
0

>  <SCORE.INTRA.DIHEDRAL>
0

>  <SCORE.INTRA.DIHEDRAL.0>
0

>  <SCORE.INTRA.POLAR>
0

>  <SCORE.INTRA.POLAR.0>
0

>  <SCORE.INTRA.REPUL>
0

>  <SCORE.INTRA.REPUL.0>
0

>  <SCORE.INTRA.SOLV>
0

>  <SCORE.INTRA.SOLV.lig_0>
-4.15853

>  <SCORE.INTRA.VDW>
0

>  <SCORE.INTRA.VDW.0>
0

>  <SCORE.INTRA.norm>
0

>  <SCORE.RESTR>
0

>  <SCORE.RESTR.CAVITY>
0

>  <SCORE.RESTR.norm>
0

>  <SCORE.SYSTEM>
0

>  <SCORE.SYSTEM.CONST>
0

>  <SCORE.SYSTEM.DIHEDRAL>
0

>  <SCORE.SYSTEM.SOLV>
0

>  <SCORE.SYSTEM.norm>
0

>  <SCORE.heavy>
10

>  <SCORE.norm>
-1.49299

>  <RMSD>
3.847

$$$$
ligand
 OpenBabel02271912153D
libRbt.so/2013.1/901 2013/11/27
 10 11  0  0  0  0  0  0  0  0999 V2000
    2.5321   -9.3656   11.5322 N   0  0  0  0  0  0  0  0  0  0  0  0
    1.7970   -9.3296   12.6226 C   0  0  0  0  0  0  0  0  0  0  0  0
    1.2043  -10.5092   13.0800 N   0  0  0  0  0  0  0  0  0  0  0  0
    1.3788  -11.6520   12.4207 C   0  0  0  0  0  0  0  0  0  0  0  0
    2.1149  -11.6843   11.3255 C   0  0  0  0  0  0  0  0  0  0  0  0
    2.6816  -10.5822   10.8708 C   0  0  0  0  0  0  0  0  0  0  0  0
    3.3533  -10.6334    9.8500 O   0  0  0  0  0  0  0  0  0  0  0  0
    2.1402  -12.9321   10.8604 N   0  0  0  0  0  0  0  0  0  0  0  0
    1.4139  -13.6744   11.6887 C   0  0  0  0  0  0  0  0  0  0  0  0
    0.9415  -12.8795   12.6523 N   0  0  0  0  0  0  0  0  0  0  0  0
  1  2  1  0  0  0  0
  1  6  1  0  0  0  0
  2  3  2  0  0  0  0
  3  4  1  0  0  0  0
  4  5  2  0  0  0  0
  4 10  1  0  0  0  0
  5  6  1  0  0  0  0
  5  8  1  0  0  0  0
  6  7  2  0  0  0  0
  8  9  1  0  0  0  0
  9 10  2  0  0  0  0
M  END
>  <CHROM.1>
1.98278406,-11.30924983,11.65534365,0.96060144,0.95063935,0.33454422

>  <Name>
ligand

>  <RI>
0

>  <Rbt.Current_Directory>
/home/itssahil/PROJECTS/Mol_Feturizer/Test_systems_manuscript/rnas/5c7w

>  <Rbt.Executable>
rbdock ($Id: //depot/dev/client3/rdock/2013.1/src/exe/rbdock.cxx#4 $)

>  <Rbt.Library>
libRbt.so (2013.1, Build901 2013/11/27)

>  <Rbt.Parameter_File>
/export/apps/rDock/src/rDock_2013.1_src/data/scripts/dock_solv.prm

>  <Rbt.Receptor>
prm/blind_docking_80.prm

>  <SCORE>
-14.93

>  <SCORE.INTER>
-14.93

>  <SCORE.INTER.CONST>
1

>  <SCORE.INTER.POLAR>
0

>  <SCORE.INTER.ROT>
0

>  <SCORE.INTER.SOLV>
4.7842

>  <SCORE.INTER.VDW>
-15.1481

>  <SCORE.INTER.norm>
-1.493

>  <SCORE.INTRA>
0

>  <SCORE.INTRA.DIHEDRAL>
0

>  <SCORE.INTRA.DIHEDRAL.0>
0

>  <SCORE.INTRA.POLAR>
0

>  <SCORE.INTRA.POLAR.0>
0

>  <SCORE.INTRA.REPUL>
0

>  <SCORE.INTRA.REPUL.0>
0

>  <SCORE.INTRA.SOLV>
0

>  <SCORE.INTRA.SOLV.lig_0>
-4.15853

>  <SCORE.INTRA.VDW>
0

>  <SCORE.INTRA.VDW.0>
0

>  <SCORE.INTRA.norm>
0

>  <SCORE.RESTR>
0

>  <SCORE.RESTR.CAVITY>
0

>  <SCORE.RESTR.norm>
0

>  <SCORE.SYSTEM>
0

>  <SCORE.SYSTEM.CONST>
0

>  <SCORE.SYSTEM.DIHEDRAL>
0

>  <SCORE.SYSTEM.SOLV>
0

>  <SCORE.SYSTEM.norm>
0

>  <SCORE.heavy>
10

>  <SCORE.norm>
-1.493

>  <RMSD>
3.847

$$$$
ligand
 OpenBabel02271912153D
libRbt.so/2013.1/901 2013/11/27
 10 11  0  0  0  0  0  0  0  0999 V2000
    2.5457   -9.3573   11.4989 N   0  0  0  0  0  0  0  0  0  0  0  0
    1.8206   -9.2620   12.5924 C   0  0  0  0  0  0  0  0  0  0  0  0
    1.2010  -10.4079   13.0972 N   0  0  0  0  0  0  0  0  0  0  0  0
    1.3404  -11.5784   12.4793 C   0  0  0  0  0  0  0  0  0  0  0  0
    2.0665  -11.6703   11.3809 C   0  0  0  0  0  0  0  0  0  0  0  0
    2.6581  -10.6009   10.8819 C   0  0  0  0  0  0  0  0  0  0  0  0
    3.3199  -10.7073    9.8588 O   0  0  0  0  0  0  0  0  0  0  0  0
    2.0555  -12.9346   10.9621 N   0  0  0  0  0  0  0  0  0  0  0  0
    1.3169  -13.6265   11.8224 C   0  0  0  0  0  0  0  0  0  0  0  0
    0.8731  -12.7846   12.7592 N   0  0  0  0  0  0  0  0  0  0  0  0
  1  2  1  0  0  0  0
  1  6  1  0  0  0  0
  2  3  2  0  0  0  0
  3  4  1  0  0  0  0
  4  5  2  0  0  0  0
  4 10  1  0  0  0  0
  5  6  1  0  0  0  0
  5  8  1  0  0  0  0
  6  7  2  0  0  0  0
  8  9  1  0  0  0  0
  9 10  2  0  0  0  0
M  END
>  <CHROM.1>
1.94687920,-11.28002700,11.69761492,0.91375684,0.94918759,0.33579565

>  <Name>
ligand

>  <RI>
0

>  <Rbt.Current_Directory>
/home/itssahil/PROJECTS/Mol_Feturizer/Test_systems_manuscript/rnas/5c7w

>  <Rbt.Executable>
rbdock ($Id: //depot/dev/client3/rdock/2013.1/src/exe/rbdock.cxx#4 $)

>  <Rbt.Library>
libRbt.so (2013.1, Build901 2013/11/27)

>  <Rbt.Parameter_File>
/export/apps/rDock/src/rDock_2013.1_src/data/scripts/dock_solv.prm

>  <Rbt.Receptor>
prm/blind_docking_60.prm

>  <SCORE>
-14.9496

>  <SCORE.INTER>
-14.9496

>  <SCORE.INTER.CONST>
1

>  <SCORE.INTER.POLAR>
0

>  <SCORE.INTER.ROT>
0

>  <SCORE.INTER.SOLV>
4.72866

>  <SCORE.INTER.VDW>
-15.1426

>  <SCORE.INTER.norm>
-1.49496

>  <SCORE.INTRA>
0

>  <SCORE.INTRA.DIHEDRAL>
0

>  <SCORE.INTRA.DIHEDRAL.0>
0

>  <SCORE.INTRA.POLAR>
0

>  <SCORE.INTRA.POLAR.0>
0

>  <SCORE.INTRA.REPUL>
0

>  <SCORE.INTRA.REPUL.0>
0

>  <SCORE.INTRA.SOLV>
0

>  <SCORE.INTRA.SOLV.lig_0>
-4.15853

>  <SCORE.INTRA.VDW>
0

>  <SCORE.INTRA.VDW.0>
0

>  <SCORE.INTRA.norm>
0

>  <SCORE.RESTR>
0

>  <SCORE.RESTR.CAVITY>
0

>  <SCORE.RESTR.norm>
0

>  <SCORE.SYSTEM>
0

>  <SCORE.SYSTEM.CONST>
0

>  <SCORE.SYSTEM.DIHEDRAL>
0

>  <SCORE.SYSTEM.SOLV>
0

>  <SCORE.SYSTEM.norm>
0

>  <SCORE.heavy>
10

>  <SCORE.norm>
-1.49496

>  <RMSD>
3.848

$$$$
ligand
 OpenBabel02271912153D
libRbt.so/2013.1/901 2013/11/27
 10 11  0  0  0  0  0  0  0  0999 V2000
    2.5427   -9.3521   11.4922 N   0  0  0  0  0  0  0  0  0  0  0  0
    1.8168   -9.2552   12.5850 C   0  0  0  0  0  0  0  0  0  0  0  0
    1.1978  -10.4006   13.0917 N   0  0  0  0  0  0  0  0  0  0  0  0
    1.3384  -11.5722   12.4761 C   0  0  0  0  0  0  0  0  0  0  0  0
    2.0654  -11.6657   11.3783 C   0  0  0  0  0  0  0  0  0  0  0  0
    2.6565  -10.5968   10.8776 C   0  0  0  0  0  0  0  0  0  0  0  0
    3.3191  -10.7046    9.8553 O   0  0  0  0  0  0  0  0  0  0  0  0
    2.0557  -12.9307   10.9619 N   0  0  0  0  0  0  0  0  0  0  0  0
    1.3170  -13.6216   11.8230 C   0  0  0  0  0  0  0  0  0  0  0  0
    0.8719  -12.7783   12.7580 N   0  0  0  0  0  0  0  0  0  0  0  0
  1  2  1  0  0  0  0
  1  6  1  0  0  0  0
  2  3  2  0  0  0  0
  3  4  1  0  0  0  0
  4  5  2  0  0  0  0
  4 10  1  0  0  0  0
  5  6  1  0  0  0  0
  5  8  1  0  0  0  0
  6  7  2  0  0  0  0
  8  9  1  0  0  0  0
  9 10  2  0  0  0  0
M  END
>  <CHROM.1>
1.94525871,-11.27486708,11.69421832,0.91539301,0.94879452,0.33254772

>  <Name>
ligand

>  <RI>
0

>  <Rbt.Current_Directory>
/home/itssahil/PROJECTS/Mol_Feturizer/Test_systems_manuscript/rnas/5c7w

>  <Rbt.Executable>
rbdock ($Id: //depot/dev/client3/rdock/2013.1/src/exe/rbdock.cxx#4 $)

>  <Rbt.Library>
libRbt.so (2013.1, Build901 2013/11/27)

>  <Rbt.Parameter_File>
/export/apps/rDock/src/rDock_2013.1_src/data/scripts/dock_solv.prm

>  <Rbt.Receptor>
prm/pocket_docking_8.prm

>  <SCORE>
-14.9458

>  <SCORE.INTER>
-14.9458

>  <SCORE.INTER.CONST>
1

>  <SCORE.INTER.POLAR>
0

>  <SCORE.INTER.ROT>
0

>  <SCORE.INTER.SOLV>
4.73316

>  <SCORE.INTER.VDW>
-15.1416

>  <SCORE.INTER.norm>
-1.49458

>  <SCORE.INTRA>
0

>  <SCORE.INTRA.DIHEDRAL>
0

>  <SCORE.INTRA.DIHEDRAL.0>
0

>  <SCORE.INTRA.POLAR>
0

>  <SCORE.INTRA.POLAR.0>
0

>  <SCORE.INTRA.REPUL>
0

>  <SCORE.INTRA.REPUL.0>
0

>  <SCORE.INTRA.SOLV>
0

>  <SCORE.INTRA.SOLV.lig_0>
-4.15853

>  <SCORE.INTRA.VDW>
0

>  <SCORE.INTRA.VDW.0>
0

>  <SCORE.INTRA.norm>
0

>  <SCORE.RESTR>
0

>  <SCORE.RESTR.CAVITY>
0

>  <SCORE.RESTR.norm>
0

>  <SCORE.SYSTEM>
0

>  <SCORE.SYSTEM.CONST>
0

>  <SCORE.SYSTEM.DIHEDRAL>
0

>  <SCORE.SYSTEM.SOLV>
0

>  <SCORE.SYSTEM.norm>
0

>  <SCORE.heavy>
10

>  <SCORE.norm>
-1.49458

>  <RMSD>
3.849

$$$$
ligand
 OpenBabel02271912153D
libRbt.so/2013.1/901 2013/11/27
 10 11  0  0  0  0  0  0  0  0999 V2000
    2.5513   -9.3557   11.5183 N   0  0  0  0  0  0  0  0  0  0  0  0
    1.8131   -9.2935   12.6054 C   0  0  0  0  0  0  0  0  0  0  0  0
    1.1920  -10.4553   13.0706 N   0  0  0  0  0  0  0  0  0  0  0  0
    1.3430  -11.6075   12.4218 C   0  0  0  0  0  0  0  0  0  0  0  0
    2.0824  -11.6661   11.3299 C   0  0  0  0  0  0  0  0  0  0  0  0
    2.6757  -10.5811   10.8681 C   0  0  0  0  0  0  0  0  0  0  0  0
    3.3499  -10.6564    9.8504 O   0  0  0  0  0  0  0  0  0  0  0  0
    2.0811  -12.9181   10.8758 N   0  0  0  0  0  0  0  0  0  0  0  0
    1.3350  -13.6365   11.7075 C   0  0  0  0  0  0  0  0  0  0  0  0
    0.8771  -12.8227   12.6623 N   0  0  0  0  0  0  0  0  0  0  0  0
  1  2  1  0  0  0  0
  1  6  1  0  0  0  0
  2  3  2  0  0  0  0
  3  4  1  0  0  0  0
  4  5  2  0  0  0  0
  4 10  1  0  0  0  0
  5  6  1  0  0  0  0
  5  8  1  0  0  0  0
  6  7  2  0  0  0  0
  8  9  1  0  0  0  0
  9 10  2  0  0  0  0
M  END
>  <CHROM.1>
1.95756163,-11.28524601,11.65601420,0.92637874,0.93930933,0.35360699

>  <Name>
ligand

>  <RI>
0

>  <Rbt.Current_Directory>
/home/itssahil/PROJECTS/Mol_Feturizer/Test_systems_manuscript/rnas/5c7w

>  <Rbt.Executable>
rbdock ($Id: //depot/dev/client3/rdock/2013.1/src/exe/rbdock.cxx#4 $)

>  <Rbt.Library>
libRbt.so (2013.1, Build901 2013/11/27)

>  <Rbt.Parameter_File>
/export/apps/rDock/src/rDock_2013.1_src/data/scripts/dock_solv.prm

>  <Rbt.Receptor>
prm/blind_docking_20.prm

>  <SCORE>
-14.9533

>  <SCORE.INTER>
-14.9533

>  <SCORE.INTER.CONST>
1

>  <SCORE.INTER.POLAR>
0

>  <SCORE.INTER.ROT>
0

>  <SCORE.INTER.SOLV>
4.75956

>  <SCORE.INTER.VDW>
-15.1554

>  <SCORE.INTER.norm>
-1.49533

>  <SCORE.INTRA>
0

>  <SCORE.INTRA.DIHEDRAL>
0

>  <SCORE.INTRA.DIHEDRAL.0>
0

>  <SCORE.INTRA.POLAR>
0

>  <SCORE.INTRA.POLAR.0>
0

>  <SCORE.INTRA.REPUL>
0

>  <SCORE.INTRA.REPUL.0>
0

>  <SCORE.INTRA.SOLV>
0

>  <SCORE.INTRA.SOLV.lig_0>
-4.15853

>  <SCORE.INTRA.VDW>
0

>  <SCORE.INTRA.VDW.0>
0

>  <SCORE.INTRA.norm>
0

>  <SCORE.RESTR>
0

>  <SCORE.RESTR.CAVITY>
0

>  <SCORE.RESTR.norm>
0

>  <SCORE.SYSTEM>
0

>  <SCORE.SYSTEM.CONST>
0

>  <SCORE.SYSTEM.DIHEDRAL>
0

>  <SCORE.SYSTEM.SOLV>
0

>  <SCORE.SYSTEM.norm>
0

>  <SCORE.heavy>
10

>  <SCORE.norm>
-1.49533

>  <RMSD>
3.850

$$$$
ligand
 OpenBabel02271912153D
libRbt.so/2013.1/901 2013/11/27
 10 11  0  0  0  0  0  0  0  0999 V2000
    2.5556   -9.3493   11.5080 N   0  0  0  0  0  0  0  0  0  0  0  0
    1.8253   -9.2544   12.5981 C   0  0  0  0  0  0  0  0  0  0  0  0
    1.2018  -10.4001   13.0985 N   0  0  0  0  0  0  0  0  0  0  0  0
    1.3426  -11.5700   12.4798 C   0  0  0  0  0  0  0  0  0  0  0  0
    2.0741  -11.6615   11.3848 C   0  0  0  0  0  0  0  0  0  0  0  0
    2.6695  -10.5923   10.8900 C   0  0  0  0  0  0  0  0  0  0  0  0
    3.3362  -10.6983    9.8702 O   0  0  0  0  0  0  0  0  0  0  0  0
    2.0635  -12.9252   10.9644 N   0  0  0  0  0  0  0  0  0  0  0  0
    1.3198  -13.6173   11.8202 C   0  0  0  0  0  0  0  0  0  0  0  0
    0.8725  -12.7760   12.7559 N   0  0  0  0  0  0  0  0  0  0  0  0
  1  2  1  0  0  0  0
  1  6  1  0  0  0  0
  2  3  2  0  0  0  0
  3  4  1  0  0  0  0
  4  5  2  0  0  0  0
  4 10  1  0  0  0  0
  5  6  1  0  0  0  0
  5  8  1  0  0  0  0
  6  7  2  0  0  0  0
  8  9  1  0  0  0  0
  9 10  2  0  0  0  0
M  END
>  <CHROM.1>
1.95339604,-11.27148074,11.70144682,0.91446578,0.94411628,0.33646147

>  <Name>
ligand

>  <RI>
0

>  <Rbt.Current_Directory>
/home/itssahil/PROJECTS/Mol_Feturizer/Test_systems_manuscript/rnas/5c7w

>  <Rbt.Executable>
rbdock ($Id: //depot/dev/client3/rdock/2013.1/src/exe/rbdock.cxx#4 $)

>  <Rbt.Library>
libRbt.so (2013.1, Build901 2013/11/27)

>  <Rbt.Parameter_File>
/export/apps/rDock/src/rDock_2013.1_src/data/scripts/dock_solv.prm

>  <Rbt.Receptor>
prm/blind_docking_40.prm

>  <SCORE>
-14.9304

>  <SCORE.INTER>
-14.9304

>  <SCORE.INTER.CONST>
1

>  <SCORE.INTER.POLAR>
0

>  <SCORE.INTER.ROT>
0

>  <SCORE.INTER.SOLV>
4.72127

>  <SCORE.INTER.VDW>
-15.1273

>  <SCORE.INTER.norm>
-1.49304

>  <SCORE.INTRA>
0

>  <SCORE.INTRA.DIHEDRAL>
0

>  <SCORE.INTRA.DIHEDRAL.0>
0

>  <SCORE.INTRA.POLAR>
0

>  <SCORE.INTRA.POLAR.0>
0

>  <SCORE.INTRA.REPUL>
0

>  <SCORE.INTRA.REPUL.0>
0

>  <SCORE.INTRA.SOLV>
0

>  <SCORE.INTRA.SOLV.lig_0>
-4.15853

>  <SCORE.INTRA.VDW>
0

>  <SCORE.INTRA.VDW.0>
0

>  <SCORE.INTRA.norm>
0

>  <SCORE.RESTR>
0

>  <SCORE.RESTR.CAVITY>
0

>  <SCORE.RESTR.norm>
0

>  <SCORE.SYSTEM>
0

>  <SCORE.SYSTEM.CONST>
0

>  <SCORE.SYSTEM.DIHEDRAL>
0

>  <SCORE.SYSTEM.SOLV>
0

>  <SCORE.SYSTEM.norm>
0

>  <SCORE.heavy>
10

>  <SCORE.norm>
-1.49304

>  <RMSD>
3.850

$$$$
ligand
 OpenBabel02271912153D
libRbt.so/2013.1/901 2013/11/27
 10 11  0  0  0  0  0  0  0  0999 V2000
    2.5513   -9.3494   11.5131 N   0  0  0  0  0  0  0  0  0  0  0  0
    1.8222   -9.2890   12.6064 C   0  0  0  0  0  0  0  0  0  0  0  0
    1.2077  -10.4523   13.0768 N   0  0  0  0  0  0  0  0  0  0  0  0
    1.3558  -11.6041   12.4266 C   0  0  0  0  0  0  0  0  0  0  0  0
    2.0860  -11.6609   11.3284 C   0  0  0  0  0  0  0  0  0  0  0  0
    2.6729  -10.5745   10.8617 C   0  0  0  0  0  0  0  0  0  0  0  0
    3.3385  -10.6482    9.8383 O   0  0  0  0  0  0  0  0  0  0  0  0
    2.0836  -12.9128   10.8741 N   0  0  0  0  0  0  0  0  0  0  0  0
    1.3463  -13.6330   11.7121 C   0  0  0  0  0  0  0  0  0  0  0  0
    0.8947  -12.8204   12.6709 N   0  0  0  0  0  0  0  0  0  0  0  0
  1  2  1  0  0  0  0
  1  6  1  0  0  0  0
  2  3  2  0  0  0  0
  3  4  1  0  0  0  0
  4  5  2  0  0  0  0
  4 10  1  0  0  0  0
  5  6  1  0  0  0  0
  5  8  1  0  0  0  0
  6  7  2  0  0  0  0
  8  9  1  0  0  0  0
  9 10  2  0  0  0  0
M  END
>  <CHROM.1>
1.96305917,-11.28031912,11.65562540,0.92494894,0.94808976,0.35487424

>  <Name>
ligand

>  <RI>
0

>  <Rbt.Current_Directory>
/home/itssahil/PROJECTS/Mol_Feturizer/Test_systems_manuscript/rnas/5c7w

>  <Rbt.Executable>
rbdock ($Id: //depot/dev/client3/rdock/2013.1/src/exe/rbdock.cxx#4 $)

>  <Rbt.Library>
libRbt.so (2013.1, Build901 2013/11/27)

>  <Rbt.Parameter_File>
/export/apps/rDock/src/rDock_2013.1_src/data/scripts/dock_solv.prm

>  <Rbt.Receptor>
prm/blind_docking_100.prm

>  <SCORE>
-14.9535

>  <SCORE.INTER>
-14.9535

>  <SCORE.INTER.CONST>
1

>  <SCORE.INTER.POLAR>
0

>  <SCORE.INTER.ROT>
0

>  <SCORE.INTER.SOLV>
4.7754

>  <SCORE.INTER.VDW>
-15.1608

>  <SCORE.INTER.norm>
-1.49535

>  <SCORE.INTRA>
0

>  <SCORE.INTRA.DIHEDRAL>
0

>  <SCORE.INTRA.DIHEDRAL.0>
0

>  <SCORE.INTRA.POLAR>
0

>  <SCORE.INTRA.POLAR.0>
0

>  <SCORE.INTRA.REPUL>
0

>  <SCORE.INTRA.REPUL.0>
0

>  <SCORE.INTRA.SOLV>
0

>  <SCORE.INTRA.SOLV.lig_0>
-4.15853

>  <SCORE.INTRA.VDW>
0

>  <SCORE.INTRA.VDW.0>
0

>  <SCORE.INTRA.norm>
0

>  <SCORE.RESTR>
0

>  <SCORE.RESTR.CAVITY>
0

>  <SCORE.RESTR.norm>
0

>  <SCORE.SYSTEM>
0

>  <SCORE.SYSTEM.CONST>
0

>  <SCORE.SYSTEM.DIHEDRAL>
0

>  <SCORE.SYSTEM.SOLV>
0

>  <SCORE.SYSTEM.norm>
0

>  <SCORE.heavy>
10

>  <SCORE.norm>
-1.49535

>  <RMSD>
3.851

$$$$
ligand
 OpenBabel02271912153D
libRbt.so/2013.1/901 2013/11/27
 10 11  0  0  0  0  0  0  0  0999 V2000
    2.5526   -9.3464   11.4920 N   0  0  0  0  0  0  0  0  0  0  0  0
    1.8351   -9.2492   12.5903 C   0  0  0  0  0  0  0  0  0  0  0  0
    1.2200  -10.3945   13.1020 N   0  0  0  0  0  0  0  0  0  0  0  0
    1.3561  -11.5662   12.4859 C   0  0  0  0  0  0  0  0  0  0  0  0
    2.0747  -11.6601   11.3826 C   0  0  0  0  0  0  0  0  0  0  0  0
    2.6619  -10.5914   10.8771 C   0  0  0  0  0  0  0  0  0  0  0  0
    3.3167  -10.6995    9.8497 O   0  0  0  0  0  0  0  0  0  0  0  0
    2.0619  -12.9253   10.9668 N   0  0  0  0  0  0  0  0  0  0  0  0
    1.3299  -13.6159   11.8338 C   0  0  0  0  0  0  0  0  0  0  0  0
    0.8919  -12.7722   12.7718 N   0  0  0  0  0  0  0  0  0  0  0  0
  1  2  1  0  0  0  0
  1  6  1  0  0  0  0
  2  3  2  0  0  0  0
  3  4  1  0  0  0  0
  4  5  2  0  0  0  0
  4 10  1  0  0  0  0
  5  6  1  0  0  0  0
  5  8  1  0  0  0  0
  6  7  2  0  0  0  0
  8  9  1  0  0  0  0
  9 10  2  0  0  0  0
M  END
>  <CHROM.1>
1.95693403,-11.26916364,11.69928054,0.91124156,0.95600450,0.33553928

>  <Name>
ligand

>  <RI>
0

>  <Rbt.Current_Directory>
/home/itssahil/PROJECTS/Mol_Feturizer/Test_systems_manuscript/rnas/5c7w

>  <Rbt.Executable>
rbdock ($Id: //depot/dev/client3/rdock/2013.1/src/exe/rbdock.cxx#4 $)

>  <Rbt.Library>
libRbt.so (2013.1, Build901 2013/11/27)

>  <Rbt.Parameter_File>
/export/apps/rDock/src/rDock_2013.1_src/data/scripts/dock_solv.prm

>  <Rbt.Receptor>
prm/blind_docking_40.prm

>  <SCORE>
-14.9408

>  <SCORE.INTER>
-14.9408

>  <SCORE.INTER.CONST>
1

>  <SCORE.INTER.POLAR>
0

>  <SCORE.INTER.ROT>
0

>  <SCORE.INTER.SOLV>
4.74334

>  <SCORE.INTER.VDW>
-15.1416

>  <SCORE.INTER.norm>
-1.49408

>  <SCORE.INTRA>
0

>  <SCORE.INTRA.DIHEDRAL>
0

>  <SCORE.INTRA.DIHEDRAL.0>
0

>  <SCORE.INTRA.POLAR>
0

>  <SCORE.INTRA.POLAR.0>
0

>  <SCORE.INTRA.REPUL>
0

>  <SCORE.INTRA.REPUL.0>
0

>  <SCORE.INTRA.SOLV>
0

>  <SCORE.INTRA.SOLV.lig_0>
-4.15853

>  <SCORE.INTRA.VDW>
0

>  <SCORE.INTRA.VDW.0>
0

>  <SCORE.INTRA.norm>
0

>  <SCORE.RESTR>
0

>  <SCORE.RESTR.CAVITY>
0

>  <SCORE.RESTR.norm>
0

>  <SCORE.SYSTEM>
0

>  <SCORE.SYSTEM.CONST>
0

>  <SCORE.SYSTEM.DIHEDRAL>
0

>  <SCORE.SYSTEM.SOLV>
0

>  <SCORE.SYSTEM.norm>
0

>  <SCORE.heavy>
10

>  <SCORE.norm>
-1.49408

>  <RMSD>
3.851

$$$$
ligand
 OpenBabel02271912153D
libRbt.so/2013.1/901 2013/11/27
 10 11  0  0  0  0  0  0  0  0999 V2000
    2.5552   -9.3495   11.5147 N   0  0  0  0  0  0  0  0  0  0  0  0
    1.8246   -9.2884   12.6070 C   0  0  0  0  0  0  0  0  0  0  0  0
    1.2070  -10.4507   13.0755 N   0  0  0  0  0  0  0  0  0  0  0  0
    1.3537  -11.6024   12.4247 C   0  0  0  0  0  0  0  0  0  0  0  0
    2.0854  -11.6598   11.3276 C   0  0  0  0  0  0  0  0  0  0  0  0
    2.6752  -10.5743   10.8625 C   0  0  0  0  0  0  0  0  0  0  0  0
    3.3423  -10.6487    9.8401 O   0  0  0  0  0  0  0  0  0  0  0  0
    2.0811  -12.9115   10.8724 N   0  0  0  0  0  0  0  0  0  0  0  0
    1.3411  -13.6307   11.7087 C   0  0  0  0  0  0  0  0  0  0  0  0
    0.8897  -12.8179   12.6674 N   0  0  0  0  0  0  0  0  0  0  0  0
  1  2  1  0  0  0  0
  1  6  1  0  0  0  0
  2  3  2  0  0  0  0
  3  4  1  0  0  0  0
  4  5  2  0  0  0  0
  4 10  1  0  0  0  0
  5  6  1  0  0  0  0
  5  8  1  0  0  0  0
  6  7  2  0  0  0  0
  8  9  1  0  0  0  0
  9 10  2  0  0  0  0
M  END
>  <CHROM.1>
1.96275698,-11.27930093,11.65486528,0.92253852,0.94595076,0.35757250

>  <Name>
ligand

>  <RI>
0

>  <Rbt.Current_Directory>
/home/itssahil/PROJECTS/Mol_Feturizer/Test_systems_manuscript/rnas/5c7w

>  <Rbt.Executable>
rbdock ($Id: //depot/dev/client3/rdock/2013.1/src/exe/rbdock.cxx#4 $)

>  <Rbt.Library>
libRbt.so (2013.1, Build901 2013/11/27)

>  <Rbt.Parameter_File>
/export/apps/rDock/src/rDock_2013.1_src/data/scripts/dock_solv.prm

>  <Rbt.Receptor>
prm/pocket_docking_7.prm

>  <SCORE>
-14.9524

>  <SCORE.INTER>
-14.9524

>  <SCORE.INTER.CONST>
1

>  <SCORE.INTER.POLAR>
0

>  <SCORE.INTER.ROT>
0

>  <SCORE.INTER.SOLV>
4.77281

>  <SCORE.INTER.VDW>
-15.1592

>  <SCORE.INTER.norm>
-1.49524

>  <SCORE.INTRA>
0

>  <SCORE.INTRA.DIHEDRAL>
0

>  <SCORE.INTRA.DIHEDRAL.0>
0

>  <SCORE.INTRA.POLAR>
0

>  <SCORE.INTRA.POLAR.0>
0

>  <SCORE.INTRA.REPUL>
0

>  <SCORE.INTRA.REPUL.0>
0

>  <SCORE.INTRA.SOLV>
0

>  <SCORE.INTRA.SOLV.lig_0>
-4.15853

>  <SCORE.INTRA.VDW>
0

>  <SCORE.INTRA.VDW.0>
0

>  <SCORE.INTRA.norm>
0

>  <SCORE.RESTR>
0

>  <SCORE.RESTR.CAVITY>
0

>  <SCORE.RESTR.norm>
0

>  <SCORE.SYSTEM>
0

>  <SCORE.SYSTEM.CONST>
0

>  <SCORE.SYSTEM.DIHEDRAL>
0

>  <SCORE.SYSTEM.SOLV>
0

>  <SCORE.SYSTEM.norm>
0

>  <SCORE.heavy>
10

>  <SCORE.norm>
-1.49524

>  <RMSD>
3.852

$$$$
ligand
 OpenBabel02271912153D
libRbt.so/2013.1/901 2013/11/27
 10 11  0  0  0  0  0  0  0  0999 V2000
    2.5541   -9.3427   11.5150 N   0  0  0  0  0  0  0  0  0  0  0  0
    1.8229   -9.2852   12.6071 C   0  0  0  0  0  0  0  0  0  0  0  0
    1.2118  -10.4508   13.0760 N   0  0  0  0  0  0  0  0  0  0  0  0
    1.3652  -11.6019   12.4258 C   0  0  0  0  0  0  0  0  0  0  0  0
    2.0975  -11.6558   11.3289 C   0  0  0  0  0  0  0  0  0  0  0  0
    2.6813  -10.5671   10.8635 C   0  0  0  0  0  0  0  0  0  0  0  0
    3.3491  -10.6382    9.8412 O   0  0  0  0  0  0  0  0  0  0  0  0
    2.1005  -12.9076   10.8743 N   0  0  0  0  0  0  0  0  0  0  0  0
    1.3643  -13.6307   11.7108 C   0  0  0  0  0  0  0  0  0  0  0  0
    0.9080  -12.8199   12.6689 N   0  0  0  0  0  0  0  0  0  0  0  0
  1  2  1  0  0  0  0
  1  6  1  0  0  0  0
  2  3  2  0  0  0  0
  3  4  1  0  0  0  0
  4  5  2  0  0  0  0
  4 10  1  0  0  0  0
  5  6  1  0  0  0  0
  5  8  1  0  0  0  0
  6  7  2  0  0  0  0
  8  9  1  0  0  0  0
  9 10  2  0  0  0  0
M  END
>  <CHROM.1>
1.97262729,-11.27575792,11.65596465,0.93181907,0.94765257,0.34956059

>  <Name>
ligand

>  <RI>
0

>  <Rbt.Current_Directory>
/home/itssahil/PROJECTS/Mol_Feturizer/Test_systems_manuscript/rnas/5c7w

>  <Rbt.Executable>
rbdock ($Id: //depot/dev/client3/rdock/2013.1/src/exe/rbdock.cxx#4 $)

>  <Rbt.Library>
libRbt.so (2013.1, Build901 2013/11/27)

>  <Rbt.Parameter_File>
/export/apps/rDock/src/rDock_2013.1_src/data/scripts/dock_solv.prm

>  <Rbt.Receptor>
prm/blind_docking_60.prm

>  <SCORE>
-14.9498

>  <SCORE.INTER>
-14.9498

>  <SCORE.INTER.CONST>
1

>  <SCORE.INTER.POLAR>
0

>  <SCORE.INTER.ROT>
0

>  <SCORE.INTER.SOLV>
4.78063

>  <SCORE.INTER.VDW>
-15.1601

>  <SCORE.INTER.norm>
-1.49498

>  <SCORE.INTRA>
0

>  <SCORE.INTRA.DIHEDRAL>
0

>  <SCORE.INTRA.DIHEDRAL.0>
0

>  <SCORE.INTRA.POLAR>
0

>  <SCORE.INTRA.POLAR.0>
0

>  <SCORE.INTRA.REPUL>
0

>  <SCORE.INTRA.REPUL.0>
0

>  <SCORE.INTRA.SOLV>
0

>  <SCORE.INTRA.SOLV.lig_0>
-4.15853

>  <SCORE.INTRA.VDW>
0

>  <SCORE.INTRA.VDW.0>
0

>  <SCORE.INTRA.norm>
0

>  <SCORE.RESTR>
0

>  <SCORE.RESTR.CAVITY>
0

>  <SCORE.RESTR.norm>
0

>  <SCORE.SYSTEM>
0

>  <SCORE.SYSTEM.CONST>
0

>  <SCORE.SYSTEM.DIHEDRAL>
0

>  <SCORE.SYSTEM.SOLV>
0

>  <SCORE.SYSTEM.norm>
0

>  <SCORE.heavy>
10

>  <SCORE.norm>
-1.49498

>  <RMSD>
3.853

$$$$
ligand
 OpenBabel02271912153D
libRbt.so/2013.1/901 2013/11/27
 10 11  0  0  0  0  0  0  0  0999 V2000
    2.5471   -9.3352   11.5114 N   0  0  0  0  0  0  0  0  0  0  0  0
    1.8057   -9.2748   12.5964 C   0  0  0  0  0  0  0  0  0  0  0  0
    1.1875  -10.4384   13.0609 N   0  0  0  0  0  0  0  0  0  0  0  0
    1.3445  -11.5906   12.4136 C   0  0  0  0  0  0  0  0  0  0  0  0
    2.0871  -11.6475   11.3238 C   0  0  0  0  0  0  0  0  0  0  0  0
    2.6778  -10.5608   10.8626 C   0  0  0  0  0  0  0  0  0  0  0  0
    3.3550  -10.6346    9.8469 O   0  0  0  0  0  0  0  0  0  0  0  0
    2.0915  -12.8999   10.8708 N   0  0  0  0  0  0  0  0  0  0  0  0
    1.3458  -13.6203   11.7011 C   0  0  0  0  0  0  0  0  0  0  0  0
    0.8823  -12.8073   12.6539 N   0  0  0  0  0  0  0  0  0  0  0  0
  1  2  1  0  0  0  0
  1  6  1  0  0  0  0
  2  3  2  0  0  0  0
  3  4  1  0  0  0  0
  4  5  2  0  0  0  0
  4 10  1  0  0  0  0
  5  6  1  0  0  0  0
  5  8  1  0  0  0  0
  6  7  2  0  0  0  0
  8  9  1  0  0  0  0
  9 10  2  0  0  0  0
M  END
>  <CHROM.1>
1.95994774,-11.26683609,11.64918690,0.93372741,0.93793988,0.34677331

>  <Name>
ligand

>  <RI>
0

>  <Rbt.Current_Directory>
/home/itssahil/PROJECTS/Mol_Feturizer/Test_systems_manuscript/rnas/5c7w

>  <Rbt.Executable>
rbdock ($Id: //depot/dev/client3/rdock/2013.1/src/exe/rbdock.cxx#4 $)

>  <Rbt.Library>
libRbt.so (2013.1, Build901 2013/11/27)

>  <Rbt.Parameter_File>
/export/apps/rDock/src/rDock_2013.1_src/data/scripts/dock_solv.prm

>  <Rbt.Receptor>
prm/pocket_docking_3.prm

>  <SCORE>
-14.9346

>  <SCORE.INTER>
-14.9346

>  <SCORE.INTER.CONST>
1

>  <SCORE.INTER.POLAR>
0

>  <SCORE.INTER.ROT>
0

>  <SCORE.INTER.SOLV>
4.77108

>  <SCORE.INTER.VDW>
-15.1467

>  <SCORE.INTER.norm>
-1.49346

>  <SCORE.INTRA>
0

>  <SCORE.INTRA.DIHEDRAL>
0

>  <SCORE.INTRA.DIHEDRAL.0>
0

>  <SCORE.INTRA.POLAR>
0

>  <SCORE.INTRA.POLAR.0>
0

>  <SCORE.INTRA.REPUL>
0

>  <SCORE.INTRA.REPUL.0>
0

>  <SCORE.INTRA.SOLV>
0

>  <SCORE.INTRA.SOLV.lig_0>
-4.15853

>  <SCORE.INTRA.VDW>
0

>  <SCORE.INTRA.VDW.0>
0

>  <SCORE.INTRA.norm>
0

>  <SCORE.RESTR>
0

>  <SCORE.RESTR.CAVITY>
0

>  <SCORE.RESTR.norm>
0

>  <SCORE.SYSTEM>
0

>  <SCORE.SYSTEM.CONST>
0

>  <SCORE.SYSTEM.DIHEDRAL>
0

>  <SCORE.SYSTEM.SOLV>
0

>  <SCORE.SYSTEM.norm>
0

>  <SCORE.heavy>
10

>  <SCORE.norm>
-1.49346

>  <RMSD>
3.853

$$$$
ligand
 OpenBabel02271912153D
libRbt.so/2013.1/901 2013/11/27
 10 11  0  0  0  0  0  0  0  0999 V2000
    2.5519   -9.3515   11.5053 N   0  0  0  0  0  0  0  0  0  0  0  0
    1.8204   -9.2880   12.5969 C   0  0  0  0  0  0  0  0  0  0  0  0
    1.2041  -10.4497   13.0687 N   0  0  0  0  0  0  0  0  0  0  0  0
    1.3529  -11.6031   12.4217 C   0  0  0  0  0  0  0  0  0  0  0  0
    2.0855  -11.6631   11.3253 C   0  0  0  0  0  0  0  0  0  0  0  0
    2.6742  -10.5783   10.8572 C   0  0  0  0  0  0  0  0  0  0  0  0
    3.3421  -10.6549    9.8355 O   0  0  0  0  0  0  0  0  0  0  0  0
    2.0833  -12.9162   10.8741 N   0  0  0  0  0  0  0  0  0  0  0  0
    1.3436  -13.6338   11.7122 C   0  0  0  0  0  0  0  0  0  0  0  0
    0.8904  -12.8185   12.6679 N   0  0  0  0  0  0  0  0  0  0  0  0
  1  2  1  0  0  0  0
  1  6  1  0  0  0  0
  2  3  2  0  0  0  0
  3  4  1  0  0  0  0
  4  5  2  0  0  0  0
  4 10  1  0  0  0  0
  5  6  1  0  0  0  0
  5  8  1  0  0  0  0
  6  7  2  0  0  0  0
  8  9  1  0  0  0  0
  9 10  2  0  0  0  0
M  END
>  <CHROM.1>
1.96208743,-11.28170121,11.65127768,0.92522446,0.94572977,0.35219562

>  <Name>
ligand

>  <RI>
0

>  <Rbt.Current_Directory>
/home/itssahil/PROJECTS/Mol_Feturizer/Test_systems_manuscript/rnas/5c7w

>  <Rbt.Executable>
rbdock ($Id: //depot/dev/client3/rdock/2013.1/src/exe/rbdock.cxx#4 $)

>  <Rbt.Library>
libRbt.so (2013.1, Build901 2013/11/27)

>  <Rbt.Parameter_File>
/export/apps/rDock/src/rDock_2013.1_src/data/scripts/dock_solv.prm

>  <Rbt.Receptor>
prm/pocket_docking_3.prm

>  <SCORE>
-14.9516

>  <SCORE.INTER>
-14.9516

>  <SCORE.INTER.CONST>
1

>  <SCORE.INTER.POLAR>
0

>  <SCORE.INTER.ROT>
0

>  <SCORE.INTER.SOLV>
4.77825

>  <SCORE.INTER.VDW>
-15.1605

>  <SCORE.INTER.norm>
-1.49516

>  <SCORE.INTRA>
0

>  <SCORE.INTRA.DIHEDRAL>
0

>  <SCORE.INTRA.DIHEDRAL.0>
0

>  <SCORE.INTRA.POLAR>
0

>  <SCORE.INTRA.POLAR.0>
0

>  <SCORE.INTRA.REPUL>
0

>  <SCORE.INTRA.REPUL.0>
0

>  <SCORE.INTRA.SOLV>
0

>  <SCORE.INTRA.SOLV.lig_0>
-4.15853

>  <SCORE.INTRA.VDW>
0

>  <SCORE.INTRA.VDW.0>
0

>  <SCORE.INTRA.norm>
0

>  <SCORE.RESTR>
0

>  <SCORE.RESTR.CAVITY>
0

>  <SCORE.RESTR.norm>
0

>  <SCORE.SYSTEM>
0

>  <SCORE.SYSTEM.CONST>
0

>  <SCORE.SYSTEM.DIHEDRAL>
0

>  <SCORE.SYSTEM.SOLV>
0

>  <SCORE.SYSTEM.norm>
0

>  <SCORE.heavy>
10

>  <SCORE.norm>
-1.49516

>  <RMSD>
3.853

$$$$
ligand
 OpenBabel02271912153D
libRbt.so/2013.1/901 2013/11/27
 10 11  0  0  0  0  0  0  0  0999 V2000
    2.5542   -9.3482   11.5115 N   0  0  0  0  0  0  0  0  0  0  0  0
    1.8224   -9.2877   12.6030 C   0  0  0  0  0  0  0  0  0  0  0  0
    1.2086  -10.4513   13.0732 N   0  0  0  0  0  0  0  0  0  0  0  0
    1.3600  -11.6036   12.4247 C   0  0  0  0  0  0  0  0  0  0  0  0
    2.0928  -11.6606   11.3283 C   0  0  0  0  0  0  0  0  0  0  0  0
    2.6792  -10.5738   10.8617 C   0  0  0  0  0  0  0  0  0  0  0  0
    3.3474  -10.6477    9.8400 O   0  0  0  0  0  0  0  0  0  0  0  0
    2.0934  -12.9131   10.8754 N   0  0  0  0  0  0  0  0  0  0  0  0
    1.3552  -13.6334   11.7125 C   0  0  0  0  0  0  0  0  0  0  0  0
    0.9001  -12.8204   12.6692 N   0  0  0  0  0  0  0  0  0  0  0  0
  1  2  1  0  0  0  0
  1  6  1  0  0  0  0
  2  3  2  0  0  0  0
  3  4  1  0  0  0  0
  4  5  2  0  0  0  0
  4 10  1  0  0  0  0
  5  6  1  0  0  0  0
  5  8  1  0  0  0  0
  6  7  2  0  0  0  0
  8  9  1  0  0  0  0
  9 10  2  0  0  0  0
M  END
>  <CHROM.1>
1.96855229,-11.27985286,11.65477042,0.92878591,0.94637309,0.35062868

>  <Name>
ligand

>  <RI>
0

>  <Rbt.Current_Directory>
/home/itssahil/PROJECTS/Mol_Feturizer/Test_systems_manuscript/rnas/5c7w

>  <Rbt.Executable>
rbdock ($Id: //depot/dev/client3/rdock/2013.1/src/exe/rbdock.cxx#4 $)

>  <Rbt.Library>
libRbt.so (2013.1, Build901 2013/11/27)

>  <Rbt.Parameter_File>
/export/apps/rDock/src/rDock_2013.1_src/data/scripts/dock_solv.prm

>  <Rbt.Receptor>
prm/pocket_docking_8.prm

>  <SCORE>
-14.9527

>  <SCORE.INTER>
-14.9527

>  <SCORE.INTER.CONST>
1

>  <SCORE.INTER.POLAR>
0

>  <SCORE.INTER.ROT>
0

>  <SCORE.INTER.SOLV>
4.77818

>  <SCORE.INTER.VDW>
-15.1612

>  <SCORE.INTER.norm>
-1.49527

>  <SCORE.INTRA>
0

>  <SCORE.INTRA.DIHEDRAL>
0

>  <SCORE.INTRA.DIHEDRAL.0>
0

>  <SCORE.INTRA.POLAR>
0

>  <SCORE.INTRA.POLAR.0>
0

>  <SCORE.INTRA.REPUL>
0

>  <SCORE.INTRA.REPUL.0>
0

>  <SCORE.INTRA.SOLV>
0

>  <SCORE.INTRA.SOLV.lig_0>
-4.15853

>  <SCORE.INTRA.VDW>
0

>  <SCORE.INTRA.VDW.0>
0

>  <SCORE.INTRA.norm>
0

>  <SCORE.RESTR>
0

>  <SCORE.RESTR.CAVITY>
0

>  <SCORE.RESTR.norm>
0

>  <SCORE.SYSTEM>
0

>  <SCORE.SYSTEM.CONST>
0

>  <SCORE.SYSTEM.DIHEDRAL>
0

>  <SCORE.SYSTEM.SOLV>
0

>  <SCORE.SYSTEM.norm>
0

>  <SCORE.heavy>
10

>  <SCORE.norm>
-1.49527

>  <RMSD>
3.853

$$$$
ligand
 OpenBabel02271912153D
libRbt.so/2013.1/901 2013/11/27
 10 11  0  0  0  0  0  0  0  0999 V2000
    2.5546   -9.3505   11.5055 N   0  0  0  0  0  0  0  0  0  0  0  0
    1.8247   -9.2876   12.5981 C   0  0  0  0  0  0  0  0  0  0  0  0
    1.2110  -10.4500   13.0715 N   0  0  0  0  0  0  0  0  0  0  0  0
    1.3607  -11.6036   12.4250 C   0  0  0  0  0  0  0  0  0  0  0  0
    2.0918  -11.6630   11.3275 C   0  0  0  0  0  0  0  0  0  0  0  0
    2.6779  -10.5775   10.8579 C   0  0  0  0  0  0  0  0  0  0  0  0
    3.3444  -10.6536    9.8352 O   0  0  0  0  0  0  0  0  0  0  0  0
    2.0910  -12.9164   10.8771 N   0  0  0  0  0  0  0  0  0  0  0  0
    1.3539  -13.6347   11.7167 C   0  0  0  0  0  0  0  0  0  0  0  0
    0.9007  -12.8196   12.6726 N   0  0  0  0  0  0  0  0  0  0  0  0
  1  2  1  0  0  0  0
  1  6  1  0  0  0  0
  2  3  2  0  0  0  0
  3  4  1  0  0  0  0
  4  5  2  0  0  0  0
  4 10  1  0  0  0  0
  5  6  1  0  0  0  0
  5  8  1  0  0  0  0
  6  7  2  0  0  0  0
  8  9  1  0  0  0  0
  9 10  2  0  0  0  0
M  END
>  <CHROM.1>
1.96824401,-11.28161865,11.65346403,0.92703391,0.94774133,0.35013472

>  <Name>
ligand

>  <RI>
0

>  <Rbt.Current_Directory>
/home/itssahil/PROJECTS/Mol_Feturizer/Test_systems_manuscript/rnas/5c7w

>  <Rbt.Executable>
rbdock ($Id: //depot/dev/client3/rdock/2013.1/src/exe/rbdock.cxx#4 $)

>  <Rbt.Library>
libRbt.so (2013.1, Build901 2013/11/27)

>  <Rbt.Parameter_File>
/export/apps/rDock/src/rDock_2013.1_src/data/scripts/dock_solv.prm

>  <Rbt.Receptor>
prm/blind_docking_100.prm

>  <SCORE>
-14.9534

>  <SCORE.INTER>
-14.9534

>  <SCORE.INTER.CONST>
1

>  <SCORE.INTER.POLAR>
0

>  <SCORE.INTER.ROT>
0

>  <SCORE.INTER.SOLV>
4.78207

>  <SCORE.INTER.VDW>
-15.1629

>  <SCORE.INTER.norm>
-1.49534

>  <SCORE.INTRA>
0

>  <SCORE.INTRA.DIHEDRAL>
0

>  <SCORE.INTRA.DIHEDRAL.0>
0

>  <SCORE.INTRA.POLAR>
0

>  <SCORE.INTRA.POLAR.0>
0

>  <SCORE.INTRA.REPUL>
0

>  <SCORE.INTRA.REPUL.0>
0

>  <SCORE.INTRA.SOLV>
0

>  <SCORE.INTRA.SOLV.lig_0>
-4.15853

>  <SCORE.INTRA.VDW>
0

>  <SCORE.INTRA.VDW.0>
0

>  <SCORE.INTRA.norm>
0

>  <SCORE.RESTR>
0

>  <SCORE.RESTR.CAVITY>
0

>  <SCORE.RESTR.norm>
0

>  <SCORE.SYSTEM>
0

>  <SCORE.SYSTEM.CONST>
0

>  <SCORE.SYSTEM.DIHEDRAL>
0

>  <SCORE.SYSTEM.SOLV>
0

>  <SCORE.SYSTEM.norm>
0

>  <SCORE.heavy>
10

>  <SCORE.norm>
-1.49534

>  <RMSD>
3.854

$$$$
ligand
 OpenBabel02271912153D
libRbt.so/2013.1/901 2013/11/27
 10 11  0  0  0  0  0  0  0  0999 V2000
    2.5614   -9.3480   11.5128 N   0  0  0  0  0  0  0  0  0  0  0  0
    1.8343   -9.2872   12.6074 C   0  0  0  0  0  0  0  0  0  0  0  0
    1.2196  -10.4500   13.0786 N   0  0  0  0  0  0  0  0  0  0  0  0
    1.3654  -11.6017   12.4279 C   0  0  0  0  0  0  0  0  0  0  0  0
    2.0936  -11.6590   11.3284 C   0  0  0  0  0  0  0  0  0  0  0  0
    2.6807  -10.5731   10.8609 C   0  0  0  0  0  0  0  0  0  0  0  0
    3.3445  -10.6472    9.8363 O   0  0  0  0  0  0  0  0  0  0  0  0
    2.0892  -12.9109   10.8739 N   0  0  0  0  0  0  0  0  0  0  0  0
    1.3527  -13.6305   11.7130 C   0  0  0  0  0  0  0  0  0  0  0  0
    0.9036  -12.8177   12.6727 N   0  0  0  0  0  0  0  0  0  0  0  0
  1  2  1  0  0  0  0
  1  6  1  0  0  0  0
  2  3  2  0  0  0  0
  3  4  1  0  0  0  0
  4  5  2  0  0  0  0
  4 10  1  0  0  0  0
  5  6  1  0  0  0  0
  5  8  1  0  0  0  0
  6  7  2  0  0  0  0
  8  9  1  0  0  0  0
  9 10  2  0  0  0  0
M  END
>  <CHROM.1>
1.97159956,-11.27841348,11.65591096,0.92234965,0.94941945,0.35720980

>  <Name>
ligand

>  <RI>
0

>  <Rbt.Current_Directory>
/home/itssahil/PROJECTS/Mol_Feturizer/Test_systems_manuscript/rnas/5c7w

>  <Rbt.Executable>
rbdock ($Id: //depot/dev/client3/rdock/2013.1/src/exe/rbdock.cxx#4 $)

>  <Rbt.Library>
libRbt.so (2013.1, Build901 2013/11/27)

>  <Rbt.Parameter_File>
/export/apps/rDock/src/rDock_2013.1_src/data/scripts/dock_solv.prm

>  <Rbt.Receptor>
prm/blind_docking_20.prm

>  <SCORE>
-14.952

>  <SCORE.INTER>
-14.952

>  <SCORE.INTER.CONST>
1

>  <SCORE.INTER.POLAR>
0

>  <SCORE.INTER.ROT>
0

>  <SCORE.INTER.SOLV>
4.78128

>  <SCORE.INTER.VDW>
-15.1617

>  <SCORE.INTER.norm>
-1.4952

>  <SCORE.INTRA>
0

>  <SCORE.INTRA.DIHEDRAL>
0

>  <SCORE.INTRA.DIHEDRAL.0>
0

>  <SCORE.INTRA.POLAR>
0

>  <SCORE.INTRA.POLAR.0>
0

>  <SCORE.INTRA.REPUL>
0

>  <SCORE.INTRA.REPUL.0>
0

>  <SCORE.INTRA.SOLV>
0

>  <SCORE.INTRA.SOLV.lig_0>
-4.15853

>  <SCORE.INTRA.VDW>
0

>  <SCORE.INTRA.VDW.0>
0

>  <SCORE.INTRA.norm>
0

>  <SCORE.RESTR>
0

>  <SCORE.RESTR.CAVITY>
0

>  <SCORE.RESTR.norm>
0

>  <SCORE.SYSTEM>
0

>  <SCORE.SYSTEM.CONST>
0

>  <SCORE.SYSTEM.DIHEDRAL>
0

>  <SCORE.SYSTEM.SOLV>
0

>  <SCORE.SYSTEM.norm>
0

>  <SCORE.heavy>
10

>  <SCORE.norm>
-1.4952

>  <RMSD>
3.854

$$$$
ligand
 OpenBabel02271912153D
libRbt.so/2013.1/901 2013/11/27
 10 11  0  0  0  0  0  0  0  0999 V2000
    2.5611   -9.3517   11.5128 N   0  0  0  0  0  0  0  0  0  0  0  0
    1.8253   -9.2878   12.6015 C   0  0  0  0  0  0  0  0  0  0  0  0
    1.2043  -10.4485   13.0693 N   0  0  0  0  0  0  0  0  0  0  0  0
    1.3530  -11.6016   12.4216 C   0  0  0  0  0  0  0  0  0  0  0  0
    2.0900  -11.6620   11.3282 C   0  0  0  0  0  0  0  0  0  0  0  0
    2.6831  -10.5780   10.8638 C   0  0  0  0  0  0  0  0  0  0  0  0
    3.3550  -10.6551    9.8447 O   0  0  0  0  0  0  0  0  0  0  0  0
    2.0867  -12.9146   10.8755 N   0  0  0  0  0  0  0  0  0  0  0  0
    1.3419  -13.6314   11.7097 C   0  0  0  0  0  0  0  0  0  0  0  0
    0.8867  -12.8162   12.6645 N   0  0  0  0  0  0  0  0  0  0  0  0
  1  2  1  0  0  0  0
  1  6  1  0  0  0  0
  2  3  2  0  0  0  0
  3  4  1  0  0  0  0
  4  5  2  0  0  0  0
  4 10  1  0  0  0  0
  5  6  1  0  0  0  0
  5  8  1  0  0  0  0
  6  7  2  0  0  0  0
  8  9  1  0  0  0  0
  9 10  2  0  0  0  0
M  END
>  <CHROM.1>
1.96613095,-11.28069853,11.65408870,0.92387954,0.94108098,0.35446139

>  <Name>
ligand

>  <RI>
0

>  <Rbt.Current_Directory>
/home/itssahil/PROJECTS/Mol_Feturizer/Test_systems_manuscript/rnas/5c7w

>  <Rbt.Executable>
rbdock ($Id: //depot/dev/client3/rdock/2013.1/src/exe/rbdock.cxx#4 $)

>  <Rbt.Library>
libRbt.so (2013.1, Build901 2013/11/27)

>  <Rbt.Parameter_File>
/export/apps/rDock/src/rDock_2013.1_src/data/scripts/dock_solv.prm

>  <Rbt.Receptor>
prm/pocket_docking_3.prm

>  <SCORE>
-14.9517

>  <SCORE.INTER>
-14.9517

>  <SCORE.INTER.CONST>
1

>  <SCORE.INTER.POLAR>
0

>  <SCORE.INTER.ROT>
0

>  <SCORE.INTER.SOLV>
4.77001

>  <SCORE.INTER.VDW>
-15.1578

>  <SCORE.INTER.norm>
-1.49517

>  <SCORE.INTRA>
0

>  <SCORE.INTRA.DIHEDRAL>
0

>  <SCORE.INTRA.DIHEDRAL.0>
0

>  <SCORE.INTRA.POLAR>
0

>  <SCORE.INTRA.POLAR.0>
0

>  <SCORE.INTRA.REPUL>
0

>  <SCORE.INTRA.REPUL.0>
0

>  <SCORE.INTRA.SOLV>
0

>  <SCORE.INTRA.SOLV.lig_0>
-4.15853

>  <SCORE.INTRA.VDW>
0

>  <SCORE.INTRA.VDW.0>
0

>  <SCORE.INTRA.norm>
0

>  <SCORE.RESTR>
0

>  <SCORE.RESTR.CAVITY>
0

>  <SCORE.RESTR.norm>
0

>  <SCORE.SYSTEM>
0

>  <SCORE.SYSTEM.CONST>
0

>  <SCORE.SYSTEM.DIHEDRAL>
0

>  <SCORE.SYSTEM.SOLV>
0

>  <SCORE.SYSTEM.norm>
0

>  <SCORE.heavy>
10

>  <SCORE.norm>
-1.49517

>  <RMSD>
3.854

$$$$
ligand
 OpenBabel02271912153D
libRbt.so/2013.1/901 2013/11/27
 10 11  0  0  0  0  0  0  0  0999 V2000
    2.5604   -9.3457   11.4983 N   0  0  0  0  0  0  0  0  0  0  0  0
    1.8277   -9.2654   12.5880 C   0  0  0  0  0  0  0  0  0  0  0  0
    1.2065  -10.4186   13.0738 N   0  0  0  0  0  0  0  0  0  0  0  0
    1.3518  -11.5809   12.4419 C   0  0  0  0  0  0  0  0  0  0  0  0
    2.0856  -11.6576   11.3474 C   0  0  0  0  0  0  0  0  0  0  0  0
    2.6790  -10.5811   10.8662 C   0  0  0  0  0  0  0  0  0  0  0  0
    3.3479  -10.6734    9.8465 O   0  0  0  0  0  0  0  0  0  0  0  0
    2.0794  -12.9164   10.9123 N   0  0  0  0  0  0  0  0  0  0  0  0
    1.3360  -13.6204   11.7585 C   0  0  0  0  0  0  0  0  0  0  0  0
    0.8845  -12.7913   12.7031 N   0  0  0  0  0  0  0  0  0  0  0  0
  1  2  1  0  0  0  0
  1  6  1  0  0  0  0
  2  3  2  0  0  0  0
  3  4  1  0  0  0  0
  4  5  2  0  0  0  0
  4 10  1  0  0  0  0
  5  6  1  0  0  0  0
  5  8  1  0  0  0  0
  6  7  2  0  0  0  0
  8  9  1  0  0  0  0
  9 10  2  0  0  0  0
M  END
>  <CHROM.1>
1.96323573,-11.27160688,11.66826617,0.92004266,0.94321500,0.34354067

>  <Name>
ligand

>  <RI>
0

>  <Rbt.Current_Directory>
/home/itssahil/PROJECTS/Mol_Feturizer/Test_systems_manuscript/rnas/5c7w

>  <Rbt.Executable>
rbdock ($Id: //depot/dev/client3/rdock/2013.1/src/exe/rbdock.cxx#4 $)

>  <Rbt.Library>
libRbt.so (2013.1, Build901 2013/11/27)

>  <Rbt.Parameter_File>
/export/apps/rDock/src/rDock_2013.1_src/data/scripts/dock_solv.prm

>  <Rbt.Receptor>
prm/blind_docking_100.prm

>  <SCORE>
-14.9221

>  <SCORE.INTER>
-14.9221

>  <SCORE.INTER.CONST>
1

>  <SCORE.INTER.POLAR>
0

>  <SCORE.INTER.ROT>
0

>  <SCORE.INTER.SOLV>
4.76152

>  <SCORE.INTER.VDW>
-15.1352

>  <SCORE.INTER.norm>
-1.49221

>  <SCORE.INTRA>
0

>  <SCORE.INTRA.DIHEDRAL>
0

>  <SCORE.INTRA.DIHEDRAL.0>
0

>  <SCORE.INTRA.POLAR>
0

>  <SCORE.INTRA.POLAR.0>
0

>  <SCORE.INTRA.REPUL>
0

>  <SCORE.INTRA.REPUL.0>
0

>  <SCORE.INTRA.SOLV>
0

>  <SCORE.INTRA.SOLV.lig_0>
-4.15853

>  <SCORE.INTRA.VDW>
0

>  <SCORE.INTRA.VDW.0>
0

>  <SCORE.INTRA.norm>
0

>  <SCORE.RESTR>
0

>  <SCORE.RESTR.CAVITY>
0

>  <SCORE.RESTR.norm>
0

>  <SCORE.SYSTEM>
0

>  <SCORE.SYSTEM.CONST>
0

>  <SCORE.SYSTEM.DIHEDRAL>
0

>  <SCORE.SYSTEM.SOLV>
0

>  <SCORE.SYSTEM.norm>
0

>  <SCORE.heavy>
10

>  <SCORE.norm>
-1.49221

>  <RMSD>
3.855

$$$$
ligand
 OpenBabel02271912153D
libRbt.so/2013.1/901 2013/11/27
 10 11  0  0  0  0  0  0  0  0999 V2000
    2.5562   -9.3491   11.5038 N   0  0  0  0  0  0  0  0  0  0  0  0
    1.8230   -9.2850   12.5942 C   0  0  0  0  0  0  0  0  0  0  0  0
    1.2066  -10.4466   13.0661 N   0  0  0  0  0  0  0  0  0  0  0  0
    1.3569  -11.6005   12.4203 C   0  0  0  0  0  0  0  0  0  0  0  0
    2.0912  -11.6611   11.3250 C   0  0  0  0  0  0  0  0  0  0  0  0
    2.6800  -10.5763   10.8569 C   0  0  0  0  0  0  0  0  0  0  0  0
    3.3495  -10.6535    9.8363 O   0  0  0  0  0  0  0  0  0  0  0  0
    2.0904  -12.9145   10.8749 N   0  0  0  0  0  0  0  0  0  0  0  0
    1.3498  -13.6318   11.7124 C   0  0  0  0  0  0  0  0  0  0  0  0
    0.8947  -12.8160   12.6668 N   0  0  0  0  0  0  0  0  0  0  0  0
  1  2  1  0  0  0  0
  1  6  1  0  0  0  0
  2  3  2  0  0  0  0
  3  4  1  0  0  0  0
  4  5  2  0  0  0  0
  4 10  1  0  0  0  0
  5  6  1  0  0  0  0
  5  8  1  0  0  0  0
  6  7  2  0  0  0  0
  8  9  1  0  0  0  0
  9 10  2  0  0  0  0
M  END
>  <CHROM.1>
1.96712303,-11.27942109,11.65050474,0.92692868,0.94450692,0.34997434

>  <Name>
ligand

>  <RI>
0

>  <Rbt.Current_Directory>
/home/itssahil/PROJECTS/Mol_Feturizer/Test_systems_manuscript/rnas/5c7w

>  <Rbt.Executable>
rbdock ($Id: //depot/dev/client3/rdock/2013.1/src/exe/rbdock.cxx#4 $)

>  <Rbt.Library>
libRbt.so (2013.1, Build901 2013/11/27)

>  <Rbt.Parameter_File>
/export/apps/rDock/src/rDock_2013.1_src/data/scripts/dock_solv.prm

>  <Rbt.Receptor>
prm/blind_docking_100.prm

>  <SCORE>
-14.9503

>  <SCORE.INTER>
-14.9503

>  <SCORE.INTER.CONST>
1

>  <SCORE.INTER.POLAR>
0

>  <SCORE.INTER.ROT>
0

>  <SCORE.INTER.SOLV>
4.78119

>  <SCORE.INTER.VDW>
-15.1606

>  <SCORE.INTER.norm>
-1.49503

>  <SCORE.INTRA>
0

>  <SCORE.INTRA.DIHEDRAL>
0

>  <SCORE.INTRA.DIHEDRAL.0>
0

>  <SCORE.INTRA.POLAR>
0

>  <SCORE.INTRA.POLAR.0>
0

>  <SCORE.INTRA.REPUL>
0

>  <SCORE.INTRA.REPUL.0>
0

>  <SCORE.INTRA.SOLV>
0

>  <SCORE.INTRA.SOLV.lig_0>
-4.15853

>  <SCORE.INTRA.VDW>
0

>  <SCORE.INTRA.VDW.0>
0

>  <SCORE.INTRA.norm>
0

>  <SCORE.RESTR>
0

>  <SCORE.RESTR.CAVITY>
0

>  <SCORE.RESTR.norm>
0

>  <SCORE.SYSTEM>
0

>  <SCORE.SYSTEM.CONST>
0

>  <SCORE.SYSTEM.DIHEDRAL>
0

>  <SCORE.SYSTEM.SOLV>
0

>  <SCORE.SYSTEM.norm>
0

>  <SCORE.heavy>
10

>  <SCORE.norm>
-1.49503

>  <RMSD>
3.855

$$$$
ligand
 OpenBabel02271912153D
libRbt.so/2013.1/901 2013/11/27
 10 11  0  0  0  0  0  0  0  0999 V2000
    2.5519   -9.3458   11.5025 N   0  0  0  0  0  0  0  0  0  0  0  0
    1.8193   -9.2838   12.5934 C   0  0  0  0  0  0  0  0  0  0  0  0
    1.2088  -10.4477   13.0672 N   0  0  0  0  0  0  0  0  0  0  0  0
    1.3640  -11.6018   12.4228 C   0  0  0  0  0  0  0  0  0  0  0  0
    2.0976  -11.6602   11.3270 C   0  0  0  0  0  0  0  0  0  0  0  0
    2.6809  -10.5733   10.8570 C   0  0  0  0  0  0  0  0  0  0  0  0
    3.3499  -10.6486    9.8359 O   0  0  0  0  0  0  0  0  0  0  0  0
    2.1023  -12.9142   10.8784 N   0  0  0  0  0  0  0  0  0  0  0  0
    1.3658  -13.6340   11.7175 C   0  0  0  0  0  0  0  0  0  0  0  0
    0.9077  -12.8190   12.6713 N   0  0  0  0  0  0  0  0  0  0  0  0
  1  2  1  0  0  0  0
  1  6  1  0  0  0  0
  2  3  2  0  0  0  0
  3  4  1  0  0  0  0
  4  5  2  0  0  0  0
  4 10  1  0  0  0  0
  5  6  1  0  0  0  0
  5  8  1  0  0  0  0
  6  7  2  0  0  0  0
  8  9  1  0  0  0  0
  9 10  2  0  0  0  0
M  END
>  <CHROM.1>
1.97201461,-11.27877497,11.65209385,0.93398504,0.94691426,0.34298443

>  <Name>
ligand

>  <RI>
0

>  <Rbt.Current_Directory>
/home/itssahil/PROJECTS/Mol_Feturizer/Test_systems_manuscript/rnas/5c7w

>  <Rbt.Executable>
rbdock ($Id: //depot/dev/client3/rdock/2013.1/src/exe/rbdock.cxx#4 $)

>  <Rbt.Library>
libRbt.so (2013.1, Build901 2013/11/27)

>  <Rbt.Parameter_File>
/export/apps/rDock/src/rDock_2013.1_src/data/scripts/dock_solv.prm

>  <Rbt.Receptor>
prm/blind_docking_100.prm

>  <SCORE>
-14.9492

>  <SCORE.INTER>
-14.9492

>  <SCORE.INTER.CONST>
1

>  <SCORE.INTER.POLAR>
0

>  <SCORE.INTER.ROT>
0

>  <SCORE.INTER.SOLV>
4.78656

>  <SCORE.INTER.VDW>
-15.1616

>  <SCORE.INTER.norm>
-1.49492

>  <SCORE.INTRA>
0

>  <SCORE.INTRA.DIHEDRAL>
0

>  <SCORE.INTRA.DIHEDRAL.0>
0

>  <SCORE.INTRA.POLAR>
0

>  <SCORE.INTRA.POLAR.0>
0

>  <SCORE.INTRA.REPUL>
0

>  <SCORE.INTRA.REPUL.0>
0

>  <SCORE.INTRA.SOLV>
0

>  <SCORE.INTRA.SOLV.lig_0>
-4.15853

>  <SCORE.INTRA.VDW>
0

>  <SCORE.INTRA.VDW.0>
0

>  <SCORE.INTRA.norm>
0

>  <SCORE.RESTR>
0

>  <SCORE.RESTR.CAVITY>
0

>  <SCORE.RESTR.norm>
0

>  <SCORE.SYSTEM>
0

>  <SCORE.SYSTEM.CONST>
0

>  <SCORE.SYSTEM.DIHEDRAL>
0

>  <SCORE.SYSTEM.SOLV>
0

>  <SCORE.SYSTEM.norm>
0

>  <SCORE.heavy>
10

>  <SCORE.norm>
-1.49492

>  <RMSD>
3.855

$$$$
ligand
 OpenBabel02271912153D
libRbt.so/2013.1/901 2013/11/27
 10 11  0  0  0  0  0  0  0  0999 V2000
    2.5619   -9.3531   11.5048 N   0  0  0  0  0  0  0  0  0  0  0  0
    1.8327   -9.2878   12.5978 C   0  0  0  0  0  0  0  0  0  0  0  0
    1.2156  -10.4483   13.0715 N   0  0  0  0  0  0  0  0  0  0  0  0
    1.3613  -11.6023   12.4249 C   0  0  0  0  0  0  0  0  0  0  0  0
    2.0915  -11.6641   11.3271 C   0  0  0  0  0  0  0  0  0  0  0  0
    2.6809  -10.5804   10.8571 C   0  0  0  0  0  0  0  0  0  0  0  0
    3.3466  -10.6587    9.8341 O   0  0  0  0  0  0  0  0  0  0  0  0
    2.0866  -12.9174   10.8766 N   0  0  0  0  0  0  0  0  0  0  0  0
    1.3475  -13.6334   11.7166 C   0  0  0  0  0  0  0  0  0  0  0  0
    0.8975  -12.8169   12.6728 N   0  0  0  0  0  0  0  0  0  0  0  0
  1  2  1  0  0  0  0
  1  6  1  0  0  0  0
  2  3  2  0  0  0  0
  3  4  1  0  0  0  0
  4  5  2  0  0  0  0
  4 10  1  0  0  0  0
  5  6  1  0  0  0  0
  5  8  1  0  0  0  0
  6  7  2  0  0  0  0
  8  9  1  0  0  0  0
  9 10  2  0  0  0  0
M  END
>  <CHROM.1>
1.96939555,-11.28227135,11.65306551,0.92157417,0.94712323,0.35457642

>  <Name>
ligand

>  <RI>
0

>  <Rbt.Current_Directory>
/home/itssahil/PROJECTS/Mol_Feturizer/Test_systems_manuscript/rnas/5c7w

>  <Rbt.Executable>
rbdock ($Id: //depot/dev/client3/rdock/2013.1/src/exe/rbdock.cxx#4 $)

>  <Rbt.Library>
libRbt.so (2013.1, Build901 2013/11/27)

>  <Rbt.Parameter_File>
/export/apps/rDock/src/rDock_2013.1_src/data/scripts/dock_solv.prm

>  <Rbt.Receptor>
prm/blind_docking_60.prm

>  <SCORE>
-14.953

>  <SCORE.INTER>
-14.953

>  <SCORE.INTER.CONST>
1

>  <SCORE.INTER.POLAR>
0

>  <SCORE.INTER.ROT>
0

>  <SCORE.INTER.SOLV>
4.78167

>  <SCORE.INTER.VDW>
-15.1626

>  <SCORE.INTER.norm>
-1.4953

>  <SCORE.INTRA>
0

>  <SCORE.INTRA.DIHEDRAL>
0

>  <SCORE.INTRA.DIHEDRAL.0>
0

>  <SCORE.INTRA.POLAR>
0

>  <SCORE.INTRA.POLAR.0>
0

>  <SCORE.INTRA.REPUL>
0

>  <SCORE.INTRA.REPUL.0>
0

>  <SCORE.INTRA.SOLV>
0

>  <SCORE.INTRA.SOLV.lig_0>
-4.15853

>  <SCORE.INTRA.VDW>
0

>  <SCORE.INTRA.VDW.0>
0

>  <SCORE.INTRA.norm>
0

>  <SCORE.RESTR>
0

>  <SCORE.RESTR.CAVITY>
0

>  <SCORE.RESTR.norm>
0

>  <SCORE.SYSTEM>
0

>  <SCORE.SYSTEM.CONST>
0

>  <SCORE.SYSTEM.DIHEDRAL>
0

>  <SCORE.SYSTEM.SOLV>
0

>  <SCORE.SYSTEM.norm>
0

>  <SCORE.heavy>
10

>  <SCORE.norm>
-1.4953

>  <RMSD>
3.855

$$$$
ligand
 OpenBabel02271912153D
libRbt.so/2013.1/901 2013/11/27
 10 11  0  0  0  0  0  0  0  0999 V2000
    2.5601   -9.3487   11.5053 N   0  0  0  0  0  0  0  0  0  0  0  0
    1.8327   -9.2852   12.5996 C   0  0  0  0  0  0  0  0  0  0  0  0
    1.2167  -10.4466   13.0727 N   0  0  0  0  0  0  0  0  0  0  0  0
    1.3617  -11.5997   12.4241 C   0  0  0  0  0  0  0  0  0  0  0  0
    2.0902  -11.6596   11.3250 C   0  0  0  0  0  0  0  0  0  0  0  0
    2.6785  -10.5750   10.8557 C   0  0  0  0  0  0  0  0  0  0  0  0
    3.3425  -10.6516    9.8314 O   0  0  0  0  0  0  0  0  0  0  0  0
    2.0849  -12.9123   10.8727 N   0  0  0  0  0  0  0  0  0  0  0  0
    1.3474  -13.6297   11.7129 C   0  0  0  0  0  0  0  0  0  0  0  0
    0.8987  -12.8147   12.6710 N   0  0  0  0  0  0  0  0  0  0  0  0
  1  2  1  0  0  0  0
  1  6  1  0  0  0  0
  2  3  2  0  0  0  0
  3  4  1  0  0  0  0
  4  5  2  0  0  0  0
  4 10  1  0  0  0  0
  5  6  1  0  0  0  0
  5  8  1  0  0  0  0
  6  7  2  0  0  0  0
  8  9  1  0  0  0  0
  9 10  2  0  0  0  0
M  END
>  <CHROM.1>
1.96846392,-11.27828664,11.65175814,0.92109888,0.94879006,0.35640761

>  <Name>
ligand

>  <RI>
0

>  <Rbt.Current_Directory>
/home/itssahil/PROJECTS/Mol_Feturizer/Test_systems_manuscript/rnas/5c7w

>  <Rbt.Executable>
rbdock ($Id: //depot/dev/client3/rdock/2013.1/src/exe/rbdock.cxx#4 $)

>  <Rbt.Library>
libRbt.so (2013.1, Build901 2013/11/27)

>  <Rbt.Parameter_File>
/export/apps/rDock/src/rDock_2013.1_src/data/scripts/dock_solv.prm

>  <Rbt.Receptor>
prm/pocket_docking_3.prm

>  <SCORE>
-14.9508

>  <SCORE.INTER>
-14.9508

>  <SCORE.INTER.CONST>
1

>  <SCORE.INTER.POLAR>
0

>  <SCORE.INTER.ROT>
0

>  <SCORE.INTER.SOLV>
4.78475

>  <SCORE.INTER.VDW>
-15.1621

>  <SCORE.INTER.norm>
-1.49508

>  <SCORE.INTRA>
0

>  <SCORE.INTRA.DIHEDRAL>
0

>  <SCORE.INTRA.DIHEDRAL.0>
0

>  <SCORE.INTRA.POLAR>
0

>  <SCORE.INTRA.POLAR.0>
0

>  <SCORE.INTRA.REPUL>
0

>  <SCORE.INTRA.REPUL.0>
0

>  <SCORE.INTRA.SOLV>
0

>  <SCORE.INTRA.SOLV.lig_0>
-4.15853

>  <SCORE.INTRA.VDW>
0

>  <SCORE.INTRA.VDW.0>
0

>  <SCORE.INTRA.norm>
0

>  <SCORE.RESTR>
0

>  <SCORE.RESTR.CAVITY>
0

>  <SCORE.RESTR.norm>
0

>  <SCORE.SYSTEM>
0

>  <SCORE.SYSTEM.CONST>
0

>  <SCORE.SYSTEM.DIHEDRAL>
0

>  <SCORE.SYSTEM.SOLV>
0

>  <SCORE.SYSTEM.norm>
0

>  <SCORE.heavy>
10

>  <SCORE.norm>
-1.49508

>  <RMSD>
3.855

$$$$
ligand
 OpenBabel02271912153D
libRbt.so/2013.1/901 2013/11/27
 10 11  0  0  0  0  0  0  0  0999 V2000
    2.5594   -9.3504   11.4995 N   0  0  0  0  0  0  0  0  0  0  0  0
    1.8200   -9.2838   12.5855 C   0  0  0  0  0  0  0  0  0  0  0  0
    1.1993  -10.4438   13.0554 N   0  0  0  0  0  0  0  0  0  0  0  0
    1.3518  -11.5989   12.4121 C   0  0  0  0  0  0  0  0  0  0  0  0
    2.0924  -11.6620   11.3213 C   0  0  0  0  0  0  0  0  0  0  0  0
    2.6855  -10.5787   10.8551 C   0  0  0  0  0  0  0  0  0  0  0  0
    3.3608  -10.6583    9.8385 O   0  0  0  0  0  0  0  0  0  0  0  0
    2.0925  -12.9161   10.8730 N   0  0  0  0  0  0  0  0  0  0  0  0
    1.3461  -13.6312   11.7072 C   0  0  0  0  0  0  0  0  0  0  0  0
    0.8866  -12.8134   12.6577 N   0  0  0  0  0  0  0  0  0  0  0  0
  1  2  1  0  0  0  0
  1  6  1  0  0  0  0
  2  3  2  0  0  0  0
  3  4  1  0  0  0  0
  4  5  2  0  0  0  0
  4 10  1  0  0  0  0
  5  6  1  0  0  0  0
  5  8  1  0  0  0  0
  6  7  2  0  0  0  0
  8  9  1  0  0  0  0
  9 10  2  0  0  0  0
M  END
>  <CHROM.1>
1.96695969,-11.27976711,11.64549024,0.92819724,0.93854834,0.34749180

>  <Name>
ligand

>  <RI>
0

>  <Rbt.Current_Directory>
/home/itssahil/PROJECTS/Mol_Feturizer/Test_systems_manuscript/rnas/5c7w

>  <Rbt.Executable>
rbdock ($Id: //depot/dev/client3/rdock/2013.1/src/exe/rbdock.cxx#4 $)

>  <Rbt.Library>
libRbt.so (2013.1, Build901 2013/11/27)

>  <Rbt.Parameter_File>
/export/apps/rDock/src/rDock_2013.1_src/data/scripts/dock_solv.prm

>  <Rbt.Receptor>
prm/blind_docking_100.prm

>  <SCORE>
-14.969

>  <SCORE.INTER>
-14.969

>  <SCORE.INTER.CONST>
1

>  <SCORE.INTER.POLAR>
0

>  <SCORE.INTER.ROT>
0

>  <SCORE.INTER.SOLV>
4.77997

>  <SCORE.INTER.VDW>
-15.1727

>  <SCORE.INTER.norm>
-1.4969

>  <SCORE.INTRA>
0

>  <SCORE.INTRA.DIHEDRAL>
0

>  <SCORE.INTRA.DIHEDRAL.0>
0

>  <SCORE.INTRA.POLAR>
0

>  <SCORE.INTRA.POLAR.0>
0

>  <SCORE.INTRA.REPUL>
0

>  <SCORE.INTRA.REPUL.0>
0

>  <SCORE.INTRA.SOLV>
0

>  <SCORE.INTRA.SOLV.lig_0>
-4.15853

>  <SCORE.INTRA.VDW>
0

>  <SCORE.INTRA.VDW.0>
0

>  <SCORE.INTRA.norm>
0

>  <SCORE.RESTR>
0

>  <SCORE.RESTR.CAVITY>
0

>  <SCORE.RESTR.norm>
0

>  <SCORE.SYSTEM>
0

>  <SCORE.SYSTEM.CONST>
0

>  <SCORE.SYSTEM.DIHEDRAL>
0

>  <SCORE.SYSTEM.SOLV>
0

>  <SCORE.SYSTEM.norm>
0

>  <SCORE.heavy>
10

>  <SCORE.norm>
-1.4969

>  <RMSD>
3.856

$$$$
ligand
 OpenBabel02271912153D
libRbt.so/2013.1/901 2013/11/27
 10 11  0  0  0  0  0  0  0  0999 V2000
    2.5599   -9.3537   11.4935 N   0  0  0  0  0  0  0  0  0  0  0  0
    1.8306   -9.2845   12.5862 C   0  0  0  0  0  0  0  0  0  0  0  0
    1.2124  -10.4430   13.0633 N   0  0  0  0  0  0  0  0  0  0  0  0
    1.3572  -11.5991   12.4202 C   0  0  0  0  0  0  0  0  0  0  0  0
    2.0875  -11.6648   11.3226 C   0  0  0  0  0  0  0  0  0  0  0  0
    2.6779  -10.5830   10.8495 C   0  0  0  0  0  0  0  0  0  0  0  0
    3.3437  -10.6650    9.8268 O   0  0  0  0  0  0  0  0  0  0  0  0
    2.0815  -12.9194   10.8759 N   0  0  0  0  0  0  0  0  0  0  0  0
    1.3417  -13.6323   11.7180 C   0  0  0  0  0  0  0  0  0  0  0  0
    0.8922  -12.8125   12.6716 N   0  0  0  0  0  0  0  0  0  0  0  0
  1  2  1  0  0  0  0
  1  6  1  0  0  0  0
  2  3  2  0  0  0  0
  3  4  1  0  0  0  0
  4  5  2  0  0  0  0
  4 10  1  0  0  0  0
  5  6  1  0  0  0  0
  5  8  1  0  0  0  0
  6  7  2  0  0  0  0
  8  9  1  0  0  0  0
  9 10  2  0  0  0  0
M  END
>  <CHROM.1>
1.96566039,-11.28189476,11.64748166,0.92021622,0.94669119,0.35268464

>  <Name>
ligand

>  <RI>
0

>  <Rbt.Current_Directory>
/home/itssahil/PROJECTS/Mol_Feturizer/Test_systems_manuscript/rnas/5c7w

>  <Rbt.Executable>
rbdock ($Id: //depot/dev/client3/rdock/2013.1/src/exe/rbdock.cxx#4 $)

>  <Rbt.Library>
libRbt.so (2013.1, Build901 2013/11/27)

>  <Rbt.Parameter_File>
/export/apps/rDock/src/rDock_2013.1_src/data/scripts/dock_solv.prm

>  <Rbt.Receptor>
prm/blind_docking_100.prm

>  <SCORE>
-14.9766

>  <SCORE.INTER>
-14.9766

>  <SCORE.INTER.CONST>
1

>  <SCORE.INTER.POLAR>
0

>  <SCORE.INTER.ROT>
0

>  <SCORE.INTER.SOLV>
4.78736

>  <SCORE.INTER.VDW>
-15.1802

>  <SCORE.INTER.norm>
-1.49766

>  <SCORE.INTRA>
0

>  <SCORE.INTRA.DIHEDRAL>
0

>  <SCORE.INTRA.DIHEDRAL.0>
0

>  <SCORE.INTRA.POLAR>
0

>  <SCORE.INTRA.POLAR.0>
0

>  <SCORE.INTRA.REPUL>
0

>  <SCORE.INTRA.REPUL.0>
0

>  <SCORE.INTRA.SOLV>
0

>  <SCORE.INTRA.SOLV.lig_0>
-4.15853

>  <SCORE.INTRA.VDW>
0

>  <SCORE.INTRA.VDW.0>
0

>  <SCORE.INTRA.norm>
0

>  <SCORE.RESTR>
0

>  <SCORE.RESTR.CAVITY>
0

>  <SCORE.RESTR.norm>
0

>  <SCORE.SYSTEM>
0

>  <SCORE.SYSTEM.CONST>
0

>  <SCORE.SYSTEM.DIHEDRAL>
0

>  <SCORE.SYSTEM.SOLV>
0

>  <SCORE.SYSTEM.norm>
0

>  <SCORE.heavy>
10

>  <SCORE.norm>
-1.49766

>  <RMSD>
3.856

$$$$
ligand
 OpenBabel02271912153D
libRbt.so/2013.1/901 2013/11/27
 10 11  0  0  0  0  0  0  0  0999 V2000
    2.5510   -9.3502   11.4847 N   0  0  0  0  0  0  0  0  0  0  0  0
    1.8158   -9.2799   12.5734 C   0  0  0  0  0  0  0  0  0  0  0  0
    1.1997  -10.4390   13.0516 N   0  0  0  0  0  0  0  0  0  0  0  0
    1.3523  -11.5969   12.4135 C   0  0  0  0  0  0  0  0  0  0  0  0
    2.0886  -11.6637   11.3199 C   0  0  0  0  0  0  0  0  0  0  0  0
    2.6772  -10.5814   10.8459 C   0  0  0  0  0  0  0  0  0  0  0  0
    3.3485  -10.6644    9.8270 O   0  0  0  0  0  0  0  0  0  0  0  0
    2.0898  -12.9200   10.8778 N   0  0  0  0  0  0  0  0  0  0  0  0
    1.3485  -13.6327   11.7186 C   0  0  0  0  0  0  0  0  0  0  0  0
    0.8909  -12.8112   12.6670 N   0  0  0  0  0  0  0  0  0  0  0  0
  1  2  1  0  0  0  0
  1  6  1  0  0  0  0
  2  3  2  0  0  0  0
  3  4  1  0  0  0  0
  4  5  2  0  0  0  0
  4 10  1  0  0  0  0
  5  6  1  0  0  0  0
  5  8  1  0  0  0  0
  6  7  2  0  0  0  0
  8  9  1  0  0  0  0
  9 10  2  0  0  0  0
M  END
>  <CHROM.1>
1.96356340,-11.28014410,11.64272787,0.92955267,0.94318601,0.34145506

>  <Name>
ligand

>  <RI>
0

>  <Rbt.Current_Directory>
/home/itssahil/PROJECTS/Mol_Feturizer/Test_systems_manuscript/rnas/5c7w

>  <Rbt.Executable>
rbdock ($Id: //depot/dev/client3/rdock/2013.1/src/exe/rbdock.cxx#4 $)

>  <Rbt.Library>
libRbt.so (2013.1, Build901 2013/11/27)

>  <Rbt.Parameter_File>
/export/apps/rDock/src/rDock_2013.1_src/data/scripts/dock_solv.prm

>  <Rbt.Receptor>
prm/blind_docking_20.prm

>  <SCORE>
-14.9669

>  <SCORE.INTER>
-14.9669

>  <SCORE.INTER.CONST>
1

>  <SCORE.INTER.POLAR>
0

>  <SCORE.INTER.ROT>
0

>  <SCORE.INTER.SOLV>
4.79045

>  <SCORE.INTER.VDW>
-15.1747

>  <SCORE.INTER.norm>
-1.49669

>  <SCORE.INTRA>
0

>  <SCORE.INTRA.DIHEDRAL>
0

>  <SCORE.INTRA.DIHEDRAL.0>
0

>  <SCORE.INTRA.POLAR>
0

>  <SCORE.INTRA.POLAR.0>
0

>  <SCORE.INTRA.REPUL>
0

>  <SCORE.INTRA.REPUL.0>
0

>  <SCORE.INTRA.SOLV>
0

>  <SCORE.INTRA.SOLV.lig_0>
-4.15853

>  <SCORE.INTRA.VDW>
0

>  <SCORE.INTRA.VDW.0>
0

>  <SCORE.INTRA.norm>
0

>  <SCORE.RESTR>
0

>  <SCORE.RESTR.CAVITY>
0

>  <SCORE.RESTR.norm>
0

>  <SCORE.SYSTEM>
0

>  <SCORE.SYSTEM.CONST>
0

>  <SCORE.SYSTEM.DIHEDRAL>
0

>  <SCORE.SYSTEM.SOLV>
0

>  <SCORE.SYSTEM.norm>
0

>  <SCORE.heavy>
10

>  <SCORE.norm>
-1.49669

>  <RMSD>
3.856

$$$$
ligand
 OpenBabel02271912153D
libRbt.so/2013.1/901 2013/11/27
 10 11  0  0  0  0  0  0  0  0999 V2000
    2.5554   -9.3528   11.4907 N   0  0  0  0  0  0  0  0  0  0  0  0
    1.8191   -9.2823   12.5787 C   0  0  0  0  0  0  0  0  0  0  0  0
    1.1990  -10.4405   13.0539 N   0  0  0  0  0  0  0  0  0  0  0  0
    1.3489  -11.5977   12.4138 C   0  0  0  0  0  0  0  0  0  0  0  0
    2.0862  -11.6646   11.3210 C   0  0  0  0  0  0  0  0  0  0  0  0
    2.6786  -10.5832   10.8497 C   0  0  0  0  0  0  0  0  0  0  0  0
    3.3509  -10.6663    9.8314 O   0  0  0  0  0  0  0  0  0  0  0  0
    2.0841  -12.9201   10.8765 N   0  0  0  0  0  0  0  0  0  0  0  0
    1.3397  -13.6321   11.7151 C   0  0  0  0  0  0  0  0  0  0  0  0
    0.8835  -12.8110   12.6644 N   0  0  0  0  0  0  0  0  0  0  0  0
  1  2  1  0  0  0  0
  1  6  1  0  0  0  0
  2  3  2  0  0  0  0
  3  4  1  0  0  0  0
  4  5  2  0  0  0  0
  4 10  1  0  0  0  0
  5  6  1  0  0  0  0
  5  8  1  0  0  0  0
  6  7  2  0  0  0  0
  8  9  1  0  0  0  0
  9 10  2  0  0  0  0
M  END
>  <CHROM.1>
1.96194742,-11.28129362,11.64436670,0.92538370,0.94106034,0.34671106

>  <Name>
ligand

>  <RI>
0

>  <Rbt.Current_Directory>
/home/itssahil/PROJECTS/Mol_Feturizer/Test_systems_manuscript/rnas/5c7w

>  <Rbt.Executable>
rbdock ($Id: //depot/dev/client3/rdock/2013.1/src/exe/rbdock.cxx#4 $)

>  <Rbt.Library>
libRbt.so (2013.1, Build901 2013/11/27)

>  <Rbt.Parameter_File>
/export/apps/rDock/src/rDock_2013.1_src/data/scripts/dock_solv.prm

>  <Rbt.Receptor>
prm/blind_docking_40.prm

>  <SCORE>
-14.971

>  <SCORE.INTER>
-14.971

>  <SCORE.INTER.CONST>
1

>  <SCORE.INTER.POLAR>
0

>  <SCORE.INTER.ROT>
0

>  <SCORE.INTER.SOLV>
4.78313

>  <SCORE.INTER.VDW>
-15.175

>  <SCORE.INTER.norm>
-1.4971

>  <SCORE.INTRA>
0

>  <SCORE.INTRA.DIHEDRAL>
0

>  <SCORE.INTRA.DIHEDRAL.0>
0

>  <SCORE.INTRA.POLAR>
0

>  <SCORE.INTRA.POLAR.0>
0

>  <SCORE.INTRA.REPUL>
0

>  <SCORE.INTRA.REPUL.0>
0

>  <SCORE.INTRA.SOLV>
0

>  <SCORE.INTRA.SOLV.lig_0>
-4.15853

>  <SCORE.INTRA.VDW>
0

>  <SCORE.INTRA.VDW.0>
0

>  <SCORE.INTRA.norm>
0

>  <SCORE.RESTR>
0

>  <SCORE.RESTR.CAVITY>
0

>  <SCORE.RESTR.norm>
0

>  <SCORE.SYSTEM>
0

>  <SCORE.SYSTEM.CONST>
0

>  <SCORE.SYSTEM.DIHEDRAL>
0

>  <SCORE.SYSTEM.SOLV>
0

>  <SCORE.SYSTEM.norm>
0

>  <SCORE.heavy>
10

>  <SCORE.norm>
-1.4971

>  <RMSD>
3.856

$$$$
ligand
 OpenBabel02271912153D
libRbt.so/2013.1/901 2013/11/27
 10 11  0  0  0  0  0  0  0  0999 V2000
    2.5687   -9.3435   11.5017 N   0  0  0  0  0  0  0  0  0  0  0  0
    1.8394   -9.2626   12.5936 C   0  0  0  0  0  0  0  0  0  0  0  0
    1.2161  -10.4146   13.0796 N   0  0  0  0  0  0  0  0  0  0  0  0
    1.3563  -11.5764   12.4457 C   0  0  0  0  0  0  0  0  0  0  0  0
    2.0868  -11.6539   11.3490 C   0  0  0  0  0  0  0  0  0  0  0  0
    2.6819  -10.5784   10.8676 C   0  0  0  0  0  0  0  0  0  0  0  0
    3.3477  -10.6712    9.8458 O   0  0  0  0  0  0  0  0  0  0  0  0
    2.0757  -12.9120   10.9123 N   0  0  0  0  0  0  0  0  0  0  0  0
    1.3326  -13.6151   11.7597 C   0  0  0  0  0  0  0  0  0  0  0  0
    0.8862  -12.7858   12.7066 N   0  0  0  0  0  0  0  0  0  0  0  0
  1  2  1  0  0  0  0
  1  6  1  0  0  0  0
  2  3  2  0  0  0  0
  3  4  1  0  0  0  0
  4  5  2  0  0  0  0
  4 10  1  0  0  0  0
  5  6  1  0  0  0  0
  5  8  1  0  0  0  0
  6  7  2  0  0  0  0
  8  9  1  0  0  0  0
  9 10  2  0  0  0  0
M  END
>  <CHROM.1>
1.96640820,-11.26793176,11.67077749,0.91374787,0.94490155,0.34998109

>  <Name>
ligand

>  <RI>
0

>  <Rbt.Current_Directory>
/home/itssahil/PROJECTS/Mol_Feturizer/Test_systems_manuscript/rnas/5c7w

>  <Rbt.Executable>
rbdock ($Id: //depot/dev/client3/rdock/2013.1/src/exe/rbdock.cxx#4 $)

>  <Rbt.Library>
libRbt.so (2013.1, Build901 2013/11/27)

>  <Rbt.Parameter_File>
/export/apps/rDock/src/rDock_2013.1_src/data/scripts/dock_solv.prm

>  <Rbt.Receptor>
prm/pocket_docking_8.prm

>  <SCORE>
-14.9254

>  <SCORE.INTER>
-14.9254

>  <SCORE.INTER.CONST>
1

>  <SCORE.INTER.POLAR>
0

>  <SCORE.INTER.ROT>
0

>  <SCORE.INTER.SOLV>
4.76149

>  <SCORE.INTER.VDW>
-15.1374

>  <SCORE.INTER.norm>
-1.49254

>  <SCORE.INTRA>
0

>  <SCORE.INTRA.DIHEDRAL>
0

>  <SCORE.INTRA.DIHEDRAL.0>
0

>  <SCORE.INTRA.POLAR>
0

>  <SCORE.INTRA.POLAR.0>
0

>  <SCORE.INTRA.REPUL>
0

>  <SCORE.INTRA.REPUL.0>
0

>  <SCORE.INTRA.SOLV>
0

>  <SCORE.INTRA.SOLV.lig_0>
-4.15853

>  <SCORE.INTRA.VDW>
0

>  <SCORE.INTRA.VDW.0>
0

>  <SCORE.INTRA.norm>
0

>  <SCORE.RESTR>
0

>  <SCORE.RESTR.CAVITY>
0

>  <SCORE.RESTR.norm>
0

>  <SCORE.SYSTEM>
0

>  <SCORE.SYSTEM.CONST>
0

>  <SCORE.SYSTEM.DIHEDRAL>
0

>  <SCORE.SYSTEM.SOLV>
0

>  <SCORE.SYSTEM.norm>
0

>  <SCORE.heavy>
10

>  <SCORE.norm>
-1.49254

>  <RMSD>
3.856

$$$$
ligand
 OpenBabel02271912153D
libRbt.so/2013.1/901 2013/11/27
 10 11  0  0  0  0  0  0  0  0999 V2000
    2.5690   -9.3380   11.5006 N   0  0  0  0  0  0  0  0  0  0  0  0
    1.8387   -9.2534   12.5915 C   0  0  0  0  0  0  0  0  0  0  0  0
    1.2152  -10.4039   13.0809 N   0  0  0  0  0  0  0  0  0  0  0  0
    1.3561  -11.5678   12.4512 C   0  0  0  0  0  0  0  0  0  0  0  0
    2.0875  -11.6489   11.3554 C   0  0  0  0  0  0  0  0  0  0  0  0
    2.6829  -10.5750   10.8708 C   0  0  0  0  0  0  0  0  0  0  0  0
    3.3496  -10.6713    9.8499 O   0  0  0  0  0  0  0  0  0  0  0  0
    2.0770  -12.9086   10.9229 N   0  0  0  0  0  0  0  0  0  0  0  0
    1.3332  -13.6088   11.7721 C   0  0  0  0  0  0  0  0  0  0  0  0
    0.8860  -12.7764   12.7158 N   0  0  0  0  0  0  0  0  0  0  0  0
  1  2  1  0  0  0  0
  1  6  1  0  0  0  0
  2  3  2  0  0  0  0
  3  4  1  0  0  0  0
  4  5  2  0  0  0  0
  4 10  1  0  0  0  0
  5  6  1  0  0  0  0
  5  8  1  0  0  0  0
  6  7  2  0  0  0  0
  8  9  1  0  0  0  0
  9 10  2  0  0  0  0
M  END
>  <CHROM.1>
1.96683275,-11.26189448,11.67568500,0.91447199,0.94413520,0.34596956

>  <Name>
ligand

>  <RI>
0

>  <Rbt.Current_Directory>
/home/itssahil/PROJECTS/Mol_Feturizer/Test_systems_manuscript/rnas/5c7w

>  <Rbt.Executable>
rbdock ($Id: //depot/dev/client3/rdock/2013.1/src/exe/rbdock.cxx#4 $)

>  <Rbt.Library>
libRbt.so (2013.1, Build901 2013/11/27)

>  <Rbt.Parameter_File>
/export/apps/rDock/src/rDock_2013.1_src/data/scripts/dock_solv.prm

>  <Rbt.Receptor>
prm/blind_docking_40.prm

>  <SCORE>
-14.9261

>  <SCORE.INTER>
-14.9261

>  <SCORE.INTER.CONST>
1

>  <SCORE.INTER.POLAR>
0

>  <SCORE.INTER.ROT>
0

>  <SCORE.INTER.SOLV>
4.75692

>  <SCORE.INTER.VDW>
-15.1364

>  <SCORE.INTER.norm>
-1.49261

>  <SCORE.INTRA>
0

>  <SCORE.INTRA.DIHEDRAL>
0

>  <SCORE.INTRA.DIHEDRAL.0>
0

>  <SCORE.INTRA.POLAR>
0

>  <SCORE.INTRA.POLAR.0>
0

>  <SCORE.INTRA.REPUL>
0

>  <SCORE.INTRA.REPUL.0>
0

>  <SCORE.INTRA.SOLV>
0

>  <SCORE.INTRA.SOLV.lig_0>
-4.15853

>  <SCORE.INTRA.VDW>
0

>  <SCORE.INTRA.VDW.0>
0

>  <SCORE.INTRA.norm>
0

>  <SCORE.RESTR>
0

>  <SCORE.RESTR.CAVITY>
0

>  <SCORE.RESTR.norm>
0

>  <SCORE.SYSTEM>
0

>  <SCORE.SYSTEM.CONST>
0

>  <SCORE.SYSTEM.DIHEDRAL>
0

>  <SCORE.SYSTEM.SOLV>
0

>  <SCORE.SYSTEM.norm>
0

>  <SCORE.heavy>
10

>  <SCORE.norm>
-1.49261

>  <RMSD>
3.857

$$$$
ligand
 OpenBabel02271912153D
libRbt.so/2013.1/901 2013/11/27
 10 11  0  0  0  0  0  0  0  0999 V2000
    2.5625   -9.3445   11.5024 N   0  0  0  0  0  0  0  0  0  0  0  0
    1.8169   -9.2785   12.5842 C   0  0  0  0  0  0  0  0  0  0  0  0
    1.1957  -10.4395   13.0515 N   0  0  0  0  0  0  0  0  0  0  0  0
    1.3541  -11.5947   12.4100 C   0  0  0  0  0  0  0  0  0  0  0  0
    2.1008  -11.6572   11.3234 C   0  0  0  0  0  0  0  0  0  0  0  0
    2.6944  -10.5731   10.8596 C   0  0  0  0  0  0  0  0  0  0  0  0
    3.3755  -10.6521    9.8469 O   0  0  0  0  0  0  0  0  0  0  0  0
    2.1058  -12.9116   10.8759 N   0  0  0  0  0  0  0  0  0  0  0  0
    1.3561  -13.6275   11.7065 C   0  0  0  0  0  0  0  0  0  0  0  0
    0.8897  -12.8099   12.6539 N   0  0  0  0  0  0  0  0  0  0  0  0
  1  2  1  0  0  0  0
  1  6  1  0  0  0  0
  2  3  2  0  0  0  0
  3  4  1  0  0  0  0
  4  5  2  0  0  0  0
  4 10  1  0  0  0  0
  5  6  1  0  0  0  0
  5  8  1  0  0  0  0
  6  7  2  0  0  0  0
  8  9  1  0  0  0  0
  9 10  2  0  0  0  0
M  END
>  <CHROM.1>
1.97283532,-11.27493290,11.64656330,0.93438044,0.93394471,0.34179509

>  <Name>
ligand

>  <RI>
0

>  <Rbt.Current_Directory>
/home/itssahil/PROJECTS/Mol_Feturizer/Test_systems_manuscript/rnas/5c7w

>  <Rbt.Executable>
rbdock ($Id: //depot/dev/client3/rdock/2013.1/src/exe/rbdock.cxx#4 $)

>  <Rbt.Library>
libRbt.so (2013.1, Build901 2013/11/27)

>  <Rbt.Parameter_File>
/export/apps/rDock/src/rDock_2013.1_src/data/scripts/dock_solv.prm

>  <Rbt.Receptor>
prm/pocket_docking_8.prm

>  <SCORE>
-14.9561

>  <SCORE.INTER>
-14.9561

>  <SCORE.INTER.CONST>
1

>  <SCORE.INTER.POLAR>
0

>  <SCORE.INTER.ROT>
0

>  <SCORE.INTER.SOLV>
4.77699

>  <SCORE.INTER.VDW>
-15.163

>  <SCORE.INTER.norm>
-1.49561

>  <SCORE.INTRA>
0

>  <SCORE.INTRA.DIHEDRAL>
0

>  <SCORE.INTRA.DIHEDRAL.0>
0

>  <SCORE.INTRA.POLAR>
0

>  <SCORE.INTRA.POLAR.0>
0

>  <SCORE.INTRA.REPUL>
0

>  <SCORE.INTRA.REPUL.0>
0

>  <SCORE.INTRA.SOLV>
0

>  <SCORE.INTRA.SOLV.lig_0>
-4.15853

>  <SCORE.INTRA.VDW>
0

>  <SCORE.INTRA.VDW.0>
0

>  <SCORE.INTRA.norm>
0

>  <SCORE.RESTR>
0

>  <SCORE.RESTR.CAVITY>
0

>  <SCORE.RESTR.norm>
0

>  <SCORE.SYSTEM>
0

>  <SCORE.SYSTEM.CONST>
0

>  <SCORE.SYSTEM.DIHEDRAL>
0

>  <SCORE.SYSTEM.SOLV>
0

>  <SCORE.SYSTEM.norm>
0

>  <SCORE.heavy>
10

>  <SCORE.norm>
-1.49561

>  <RMSD>
3.858

$$$$
ligand
 OpenBabel02271912153D
libRbt.so/2013.1/901 2013/11/27
 10 11  0  0  0  0  0  0  0  0999 V2000
    2.5546   -9.3462   11.4810 N   0  0  0  0  0  0  0  0  0  0  0  0
    1.8235   -9.2776   12.5725 C   0  0  0  0  0  0  0  0  0  0  0  0
    1.2133  -10.4384   13.0540 N   0  0  0  0  0  0  0  0  0  0  0  0
    1.3673  -11.5963   12.4162 C   0  0  0  0  0  0  0  0  0  0  0  0
    2.0995  -11.6615   11.3199 C   0  0  0  0  0  0  0  0  0  0  0  0
    2.6825  -10.5775   10.8426 C   0  0  0  0  0  0  0  0  0  0  0  0
    3.3501  -10.6591    9.8211 O   0  0  0  0  0  0  0  0  0  0  0  0
    2.1032  -12.9182   10.8787 N   0  0  0  0  0  0  0  0  0  0  0  0
    1.3677  -13.6327   11.7231 C   0  0  0  0  0  0  0  0  0  0  0  0
    0.9111  -12.8120   12.6725 N   0  0  0  0  0  0  0  0  0  0  0  0
  1  2  1  0  0  0  0
  1  6  1  0  0  0  0
  2  3  2  0  0  0  0
  3  4  1  0  0  0  0
  4  5  2  0  0  0  0
  4 10  1  0  0  0  0
  5  6  1  0  0  0  0
  5  8  1  0  0  0  0
  6  7  2  0  0  0  0
  8  9  1  0  0  0  0
  9 10  2  0  0  0  0
M  END
>  <CHROM.1>
1.97442922,-11.27807811,11.64284198,0.93278135,0.94804942,0.33802813

>  <Name>
ligand

>  <RI>
0

>  <Rbt.Current_Directory>
/home/itssahil/PROJECTS/Mol_Feturizer/Test_systems_manuscript/rnas/5c7w

>  <Rbt.Executable>
rbdock ($Id: //depot/dev/client3/rdock/2013.1/src/exe/rbdock.cxx#4 $)

>  <Rbt.Library>
libRbt.so (2013.1, Build901 2013/11/27)

>  <Rbt.Parameter_File>
/export/apps/rDock/src/rDock_2013.1_src/data/scripts/dock_solv.prm

>  <Rbt.Receptor>
prm/blind_docking_60.prm

>  <SCORE>
-14.9649

>  <SCORE.INTER>
-14.9649

>  <SCORE.INTER.CONST>
1

>  <SCORE.INTER.POLAR>
0

>  <SCORE.INTER.ROT>
0

>  <SCORE.INTER.SOLV>
4.80364

>  <SCORE.INTER.VDW>
-15.1778

>  <SCORE.INTER.norm>
-1.49649

>  <SCORE.INTRA>
0

>  <SCORE.INTRA.DIHEDRAL>
0

>  <SCORE.INTRA.DIHEDRAL.0>
0

>  <SCORE.INTRA.POLAR>
0

>  <SCORE.INTRA.POLAR.0>
0

>  <SCORE.INTRA.REPUL>
0

>  <SCORE.INTRA.REPUL.0>
0

>  <SCORE.INTRA.SOLV>
0

>  <SCORE.INTRA.SOLV.lig_0>
-4.15853

>  <SCORE.INTRA.VDW>
0

>  <SCORE.INTRA.VDW.0>
0

>  <SCORE.INTRA.norm>
0

>  <SCORE.RESTR>
0

>  <SCORE.RESTR.CAVITY>
0

>  <SCORE.RESTR.norm>
0

>  <SCORE.SYSTEM>
0

>  <SCORE.SYSTEM.CONST>
0

>  <SCORE.SYSTEM.DIHEDRAL>
0

>  <SCORE.SYSTEM.SOLV>
0

>  <SCORE.SYSTEM.norm>
0

>  <SCORE.heavy>
10

>  <SCORE.norm>
-1.49649

>  <RMSD>
3.859

$$$$
ligand
 OpenBabel02271912153D
libRbt.so/2013.1/901 2013/11/27
 10 11  0  0  0  0  0  0  0  0999 V2000
    2.5658   -9.3443   11.4835 N   0  0  0  0  0  0  0  0  0  0  0  0
    1.8378   -9.2739   12.5770 C   0  0  0  0  0  0  0  0  0  0  0  0
    1.2230  -10.4326   13.0580 N   0  0  0  0  0  0  0  0  0  0  0  0
    1.3697  -11.5901   12.4178 C   0  0  0  0  0  0  0  0  0  0  0  0
    2.0987  -11.6570   11.3195 C   0  0  0  0  0  0  0  0  0  0  0  0
    2.6860  -10.5751   10.8427 C   0  0  0  0  0  0  0  0  0  0  0  0
    3.3506  -10.6582    9.8194 O   0  0  0  0  0  0  0  0  0  0  0  0
    2.0951  -12.9129   10.8761 N   0  0  0  0  0  0  0  0  0  0  0  0
    1.3581  -13.6252   11.7211 C   0  0  0  0  0  0  0  0  0  0  0  0
    0.9080  -12.8039   12.6732 N   0  0  0  0  0  0  0  0  0  0  0  0
  1  2  1  0  0  0  0
  1  6  1  0  0  0  0
  2  3  2  0  0  0  0
  3  4  1  0  0  0  0
  4  5  2  0  0  0  0
  4 10  1  0  0  0  0
  5  6  1  0  0  0  0
  5  8  1  0  0  0  0
  6  7  2  0  0  0  0
  8  9  1  0  0  0  0
  9 10  2  0  0  0  0
M  END
>  <CHROM.1>
1.97640704,-11.27353943,11.64346270,0.92326564,0.94875063,0.34751719

>  <Name>
ligand

>  <RI>
0

>  <Rbt.Current_Directory>
/home/itssahil/PROJECTS/Mol_Feturizer/Test_systems_manuscript/rnas/5c7w

>  <Rbt.Executable>
rbdock ($Id: //depot/dev/client3/rdock/2013.1/src/exe/rbdock.cxx#4 $)

>  <Rbt.Library>
libRbt.so (2013.1, Build901 2013/11/27)

>  <Rbt.Parameter_File>
/export/apps/rDock/src/rDock_2013.1_src/data/scripts/dock_solv.prm

>  <Rbt.Receptor>
prm/blind_docking_20.prm

>  <SCORE>
-14.969

>  <SCORE.INTER>
-14.969

>  <SCORE.INTER.CONST>
1

>  <SCORE.INTER.POLAR>
0

>  <SCORE.INTER.ROT>
0

>  <SCORE.INTER.SOLV>
4.80351

>  <SCORE.INTER.VDW>
-15.1805

>  <SCORE.INTER.norm>
-1.4969

>  <SCORE.INTRA>
0

>  <SCORE.INTRA.DIHEDRAL>
0

>  <SCORE.INTRA.DIHEDRAL.0>
0

>  <SCORE.INTRA.POLAR>
0

>  <SCORE.INTRA.POLAR.0>
0

>  <SCORE.INTRA.REPUL>
0

>  <SCORE.INTRA.REPUL.0>
0

>  <SCORE.INTRA.SOLV>
0

>  <SCORE.INTRA.SOLV.lig_0>
-4.15853

>  <SCORE.INTRA.VDW>
0

>  <SCORE.INTRA.VDW.0>
0

>  <SCORE.INTRA.norm>
0

>  <SCORE.RESTR>
0

>  <SCORE.RESTR.CAVITY>
0

>  <SCORE.RESTR.norm>
0

>  <SCORE.SYSTEM>
0

>  <SCORE.SYSTEM.CONST>
0

>  <SCORE.SYSTEM.DIHEDRAL>
0

>  <SCORE.SYSTEM.SOLV>
0

>  <SCORE.SYSTEM.norm>
0

>  <SCORE.heavy>
10

>  <SCORE.norm>
-1.4969

>  <RMSD>
3.860

$$$$
ligand
 OpenBabel02271912153D
libRbt.so/2013.1/901 2013/11/27
 10 11  0  0  0  0  0  0  0  0999 V2000
    2.7025   -9.3207   11.5337 N   0  0  0  0  0  0  0  0  0  0  0  0
    1.9818   -9.0676   12.6047 C   0  0  0  0  0  0  0  0  0  0  0  0
    1.2132  -10.0923   13.1626 N   0  0  0  0  0  0  0  0  0  0  0  0
    1.2084  -11.3061   12.6169 C   0  0  0  0  0  0  0  0  0  0  0  0
    1.9307  -11.5563   11.5408 C   0  0  0  0  0  0  0  0  0  0  0  0
    2.6616  -10.6035   10.9926 C   0  0  0  0  0  0  0  0  0  0  0  0
    3.3173  -10.8552    9.9913 O   0  0  0  0  0  0  0  0  0  0  0  0
    1.7622  -12.8317   11.1961 N   0  0  0  0  0  0  0  0  0  0  0  0
    0.9295  -13.3703   12.0799 C   0  0  0  0  0  0  0  0  0  0  0  0
    0.5860  -12.4235   12.9569 N   0  0  0  0  0  0  0  0  0  0  0  0
  1  2  1  0  0  0  0
  1  6  1  0  0  0  0
  2  3  2  0  0  0  0
  3  4  1  0  0  0  0
  4  5  2  0  0  0  0
  4 10  1  0  0  0  0
  5  6  1  0  0  0  0
  5  8  1  0  0  0  0
  6  7  2  0  0  0  0
  8  9  1  0  0  0  0
  9 10  2  0  0  0  0
M  END
>  <CHROM.1>
1.85834845,-11.13550037,11.83170878,0.72702108,0.88558165,0.42473546

>  <Name>
ligand

>  <RI>
0

>  <Rbt.Current_Directory>
/home/itssahil/PROJECTS/Mol_Feturizer/Test_systems_manuscript/rnas/5c7w

>  <Rbt.Executable>
rbdock ($Id: //depot/dev/client3/rdock/2013.1/src/exe/rbdock.cxx#4 $)

>  <Rbt.Library>
libRbt.so (2013.1, Build901 2013/11/27)

>  <Rbt.Parameter_File>
/export/apps/rDock/src/rDock_2013.1_src/data/scripts/dock_solv.prm

>  <Rbt.Receptor>
prm/pocket_docking_6.prm

>  <SCORE>
-14.6802

>  <SCORE.INTER>
-14.6802

>  <SCORE.INTER.CONST>
1

>  <SCORE.INTER.POLAR>
0

>  <SCORE.INTER.ROT>
0

>  <SCORE.INTER.SOLV>
4.4224

>  <SCORE.INTER.VDW>
-14.8609

>  <SCORE.INTER.norm>
-1.46802

>  <SCORE.INTRA>
0

>  <SCORE.INTRA.DIHEDRAL>
0

>  <SCORE.INTRA.DIHEDRAL.0>
0

>  <SCORE.INTRA.POLAR>
0

>  <SCORE.INTRA.POLAR.0>
0

>  <SCORE.INTRA.REPUL>
0

>  <SCORE.INTRA.REPUL.0>
0

>  <SCORE.INTRA.SOLV>
0

>  <SCORE.INTRA.SOLV.lig_0>
-4.15853

>  <SCORE.INTRA.VDW>
0

>  <SCORE.INTRA.VDW.0>
0

>  <SCORE.INTRA.norm>
0

>  <SCORE.RESTR>
0

>  <SCORE.RESTR.CAVITY>
0

>  <SCORE.RESTR.norm>
0

>  <SCORE.SYSTEM>
0

>  <SCORE.SYSTEM.CONST>
0

>  <SCORE.SYSTEM.DIHEDRAL>
0

>  <SCORE.SYSTEM.SOLV>
0

>  <SCORE.SYSTEM.norm>
0

>  <SCORE.heavy>
10

>  <SCORE.norm>
-1.46802

>  <RMSD>
3.863

$$$$
ligand
 OpenBabel02271912153D
libRbt.so/2013.1/901 2013/11/27
 10 11  0  0  0  0  0  0  0  0999 V2000
    2.6286   -9.2894   11.4669 N   0  0  0  0  0  0  0  0  0  0  0  0
    1.9222   -9.1787   12.5712 C   0  0  0  0  0  0  0  0  0  0  0  0
    1.2963  -10.3138   13.0924 N   0  0  0  0  0  0  0  0  0  0  0  0
    1.4110  -11.4894   12.4792 C   0  0  0  0  0  0  0  0  0  0  0  0
    2.1185  -11.5968   11.3700 C   0  0  0  0  0  0  0  0  0  0  0  0
    2.7155  -10.5378   10.8554 C   0  0  0  0  0  0  0  0  0  0  0  0
    3.3597  -10.6584    9.8227 O   0  0  0  0  0  0  0  0  0  0  0  0
    2.0848  -12.8631   10.9587 N   0  0  0  0  0  0  0  0  0  0  0  0
    1.3512  -13.5408   11.8345 C   0  0  0  0  0  0  0  0  0  0  0  0
    0.9331  -12.6880   12.7734 N   0  0  0  0  0  0  0  0  0  0  0  0
  1  2  1  0  0  0  0
  1  6  1  0  0  0  0
  2  3  2  0  0  0  0
  3  4  1  0  0  0  0
  4  5  2  0  0  0  0
  4 10  1  0  0  0  0
  5  6  1  0  0  0  0
  5  8  1  0  0  0  0
  6  7  2  0  0  0  0
  8  9  1  0  0  0  0
  9 10  2  0  0  0  0
M  END
>  <CHROM.1>
2.00879862,-11.20320487,11.68625311,0.88383158,0.95976996,0.35450229

>  <Name>
ligand

>  <RI>
0

>  <Rbt.Current_Directory>
/home/itssahil/PROJECTS/Mol_Feturizer/Test_systems_manuscript/rnas/5c7w

>  <Rbt.Executable>
rbdock ($Id: //depot/dev/client3/rdock/2013.1/src/exe/rbdock.cxx#4 $)

>  <Rbt.Library>
libRbt.so (2013.1, Build901 2013/11/27)

>  <Rbt.Parameter_File>
/export/apps/rDock/src/rDock_2013.1_src/data/scripts/dock_solv.prm

>  <Rbt.Receptor>
prm/blind_docking_60.prm

>  <SCORE>
-14.928

>  <SCORE.INTER>
-14.928

>  <SCORE.INTER.CONST>
1

>  <SCORE.INTER.POLAR>
0

>  <SCORE.INTER.ROT>
0

>  <SCORE.INTER.SOLV>
4.79956

>  <SCORE.INTER.VDW>
-15.1519

>  <SCORE.INTER.norm>
-1.4928

>  <SCORE.INTRA>
0

>  <SCORE.INTRA.DIHEDRAL>
0

>  <SCORE.INTRA.DIHEDRAL.0>
0

>  <SCORE.INTRA.POLAR>
0

>  <SCORE.INTRA.POLAR.0>
0

>  <SCORE.INTRA.REPUL>
0

>  <SCORE.INTRA.REPUL.0>
0

>  <SCORE.INTRA.SOLV>
0

>  <SCORE.INTRA.SOLV.lig_0>
-4.15853

>  <SCORE.INTRA.VDW>
0

>  <SCORE.INTRA.VDW.0>
0

>  <SCORE.INTRA.norm>
0

>  <SCORE.RESTR>
0

>  <SCORE.RESTR.CAVITY>
0

>  <SCORE.RESTR.norm>
0

>  <SCORE.SYSTEM>
0

>  <SCORE.SYSTEM.CONST>
0

>  <SCORE.SYSTEM.DIHEDRAL>
0

>  <SCORE.SYSTEM.SOLV>
0

>  <SCORE.SYSTEM.norm>
0

>  <SCORE.heavy>
10

>  <SCORE.norm>
-1.4928

>  <RMSD>
3.879

$$$$
ligand
 OpenBabel02271912153D
libRbt.so/2013.1/901 2013/11/27
 10 11  0  0  0  0  0  0  0  0999 V2000
   -1.5461  -11.5700   11.7579 N   0  0  0  0  0  0  0  0  0  0  0  0
   -1.0486  -12.7063   12.1960 C   0  0  0  0  0  0  0  0  0  0  0  0
   -1.2964  -13.8775   11.4758 N   0  0  0  0  0  0  0  0  0  0  0  0
   -2.0272  -13.8443   10.3640 C   0  0  0  0  0  0  0  0  0  0  0  0
   -2.5271  -12.7030    9.9283 C   0  0  0  0  0  0  0  0  0  0  0  0
   -2.3107  -11.5837   10.5938 C   0  0  0  0  0  0  0  0  0  0  0  0
   -2.7897  -10.5386   10.1763 O   0  0  0  0  0  0  0  0  0  0  0  0
   -3.2074  -12.9313    8.8063 N   0  0  0  0  0  0  0  0  0  0  0  0
   -3.1154  -14.2313    8.5493 C   0  0  0  0  0  0  0  0  0  0  0  0
   -2.3866  -14.7949    9.5161 N   0  0  0  0  0  0  0  0  0  0  0  0
  1  2  1  0  0  0  0
  1  6  1  0  0  0  0
  2  3  2  0  0  0  0
  3  4  1  0  0  0  0
  4  5  2  0  0  0  0
  4 10  1  0  0  0  0
  5  6  1  0  0  0  0
  5  8  1  0  0  0  0
  6  7  2  0  0  0  0
  8  9  1  0  0  0  0
  9 10  2  0  0  0  0
M  END
>  <CHROM.1>
-2.23553011,-12.83253778,10.33474017,-1.05696390,0.97501342,-2.85100220

>  <Name>
ligand

>  <RI>
0

>  <Rbt.Current_Directory>
/home/itssahil/PROJECTS/Mol_Feturizer/Test_systems_manuscript/rnas/5c7w

>  <Rbt.Executable>
rbdock ($Id: //depot/dev/client3/rdock/2013.1/src/exe/rbdock.cxx#4 $)

>  <Rbt.Library>
libRbt.so (2013.1, Build901 2013/11/27)

>  <Rbt.Parameter_File>
/export/apps/rDock/src/rDock_2013.1_src/data/scripts/dock_solv.prm

>  <Rbt.Receptor>
prm/blind_docking_80.prm

>  <SCORE>
-10.7332

>  <SCORE.INTER>
-10.7332

>  <SCORE.INTER.CONST>
1

>  <SCORE.INTER.POLAR>
0

>  <SCORE.INTER.ROT>
0

>  <SCORE.INTER.SOLV>
4.05502

>  <SCORE.INTER.VDW>
-12.1072

>  <SCORE.INTER.norm>
-1.07332

>  <SCORE.INTRA>
0

>  <SCORE.INTRA.DIHEDRAL>
0

>  <SCORE.INTRA.DIHEDRAL.0>
0

>  <SCORE.INTRA.POLAR>
0

>  <SCORE.INTRA.POLAR.0>
0

>  <SCORE.INTRA.REPUL>
0

>  <SCORE.INTRA.REPUL.0>
0

>  <SCORE.INTRA.SOLV>
0

>  <SCORE.INTRA.SOLV.lig_0>
-4.15853

>  <SCORE.INTRA.VDW>
0

>  <SCORE.INTRA.VDW.0>
0

>  <SCORE.INTRA.norm>
0

>  <SCORE.RESTR>
0

>  <SCORE.RESTR.CAVITY>
0

>  <SCORE.RESTR.norm>
0

>  <SCORE.SYSTEM>
0

>  <SCORE.SYSTEM.CONST>
0

>  <SCORE.SYSTEM.DIHEDRAL>
0

>  <SCORE.SYSTEM.SOLV>
0

>  <SCORE.SYSTEM.norm>
0

>  <SCORE.heavy>
10

>  <SCORE.norm>
-1.07332

>  <RMSD>
4.751

$$$$
ligand
 OpenBabel02271912153D
libRbt.so/2013.1/901 2013/11/27
 10 11  0  0  0  0  0  0  0  0999 V2000
   -1.3963  -11.7683   11.8427 N   0  0  0  0  0  0  0  0  0  0  0  0
   -2.1171  -10.8789   11.1946 C   0  0  0  0  0  0  0  0  0  0  0  0
   -2.8561  -11.2862   10.0811 N   0  0  0  0  0  0  0  0  0  0  0  0
   -2.8291  -12.5551    9.6805 C   0  0  0  0  0  0  0  0  0  0  0  0
   -2.1029  -13.4446   10.3314 C   0  0  0  0  0  0  0  0  0  0  0  0
   -1.3925  -13.0833   11.3838 C   0  0  0  0  0  0  0  0  0  0  0  0
   -0.7208  -13.9223   11.9674 O   0  0  0  0  0  0  0  0  0  0  0  0
   -2.2474  -14.6312    9.7441 N   0  0  0  0  0  0  0  0  0  0  0  0
   -3.0804  -14.4648    8.7229 C   0  0  0  0  0  0  0  0  0  0  0  0
   -3.4372  -13.1784    8.6839 N   0  0  0  0  0  0  0  0  0  0  0  0
  1  2  1  0  0  0  0
  1  6  1  0  0  0  0
  2  3  2  0  0  0  0
  3  4  1  0  0  0  0
  4  5  2  0  0  0  0
  4 10  1  0  0  0  0
  5  6  1  0  0  0  0
  5  8  1  0  0  0  0
  6  7  2  0  0  0  0
  8  9  1  0  0  0  0
  9 10  2  0  0  0  0
M  END
>  <CHROM.1>
-2.18884885,-12.93912112,10.39505129,0.76147207,-0.89013523,0.32860841

>  <Name>
ligand

>  <RI>
0

>  <Rbt.Current_Directory>
/home/itssahil/PROJECTS/Mol_Feturizer/Test_systems_manuscript/rnas/5c7w

>  <Rbt.Executable>
rbdock ($Id: //depot/dev/client3/rdock/2013.1/src/exe/rbdock.cxx#4 $)

>  <Rbt.Library>
libRbt.so (2013.1, Build901 2013/11/27)

>  <Rbt.Parameter_File>
/export/apps/rDock/src/rDock_2013.1_src/data/scripts/dock_solv.prm

>  <Rbt.Receptor>
prm/blind_docking_100.prm

>  <SCORE>
-10.6544

>  <SCORE.INTER>
-10.6544

>  <SCORE.INTER.CONST>
1

>  <SCORE.INTER.POLAR>
0

>  <SCORE.INTER.ROT>
0

>  <SCORE.INTER.SOLV>
4.06502

>  <SCORE.INTER.VDW>
-12.0579

>  <SCORE.INTER.norm>
-1.06544

>  <SCORE.INTRA>
0

>  <SCORE.INTRA.DIHEDRAL>
0

>  <SCORE.INTRA.DIHEDRAL.0>
0

>  <SCORE.INTRA.POLAR>
0

>  <SCORE.INTRA.POLAR.0>
0

>  <SCORE.INTRA.REPUL>
0

>  <SCORE.INTRA.REPUL.0>
0

>  <SCORE.INTRA.SOLV>
0

>  <SCORE.INTRA.SOLV.lig_0>
-4.15853

>  <SCORE.INTRA.VDW>
0

>  <SCORE.INTRA.VDW.0>
0

>  <SCORE.INTRA.norm>
0

>  <SCORE.RESTR>
0

>  <SCORE.RESTR.CAVITY>
0

>  <SCORE.RESTR.norm>
0

>  <SCORE.SYSTEM>
0

>  <SCORE.SYSTEM.CONST>
0

>  <SCORE.SYSTEM.DIHEDRAL>
0

>  <SCORE.SYSTEM.SOLV>
0

>  <SCORE.SYSTEM.norm>
0

>  <SCORE.heavy>
10

>  <SCORE.norm>
-1.06544

>  <RMSD>
5.040

$$$$
ligand
 OpenBabel02271912153D
libRbt.so/2013.1/901 2013/11/27
 10 11  0  0  0  0  0  0  0  0999 V2000
   -5.1333   -5.5638   -6.7695 N   0  0  0  0  0  0  0  0  0  0  0  0
   -4.9564   -4.3559   -6.2794 C   0  0  0  0  0  0  0  0  0  0  0  0
   -4.6483   -4.2123   -4.9242 N   0  0  0  0  0  0  0  0  0  0  0  0
   -4.5379   -5.2820   -4.1401 C   0  0  0  0  0  0  0  0  0  0  0  0
   -4.7184   -6.4926   -4.6343 C   0  0  0  0  0  0  0  0  0  0  0  0
   -5.0148   -6.6539   -5.9106 C   0  0  0  0  0  0  0  0  0  0  0  0
   -5.1854   -7.7841   -6.3458 O   0  0  0  0  0  0  0  0  0  0  0  0
   -4.5491   -7.3849   -3.6602 N   0  0  0  0  0  0  0  0  0  0  0  0
   -4.2535   -6.7088   -2.5557 C   0  0  0  0  0  0  0  0  0  0  0  0
   -4.2497   -5.4072   -2.8545 N   0  0  0  0  0  0  0  0  0  0  0  0
  1  2  1  0  0  0  0
  1  6  1  0  0  0  0
  2  3  2  0  0  0  0
  3  4  1  0  0  0  0
  4  5  2  0  0  0  0
  4 10  1  0  0  0  0
  5  6  1  0  0  0  0
  5  8  1  0  0  0  0
  6  7  2  0  0  0  0
  8  9  1  0  0  0  0
  9 10  2  0  0  0  0
M  END
>  <CHROM.1>
-4.73378891,-6.01820636,-4.83845383,-2.79025618,1.34132312,2.87996527

>  <Name>
ligand

>  <RI>
0

>  <Rbt.Current_Directory>
/home/itssahil/PROJECTS/Mol_Feturizer/Test_systems_manuscript/rnas/5c7w

>  <Rbt.Executable>
rbdock ($Id: //depot/dev/client3/rdock/2013.1/src/exe/rbdock.cxx#4 $)

>  <Rbt.Library>
libRbt.so (2013.1, Build901 2013/11/27)

>  <Rbt.Parameter_File>
/export/apps/rDock/src/rDock_2013.1_src/data/scripts/dock_solv.prm

>  <Rbt.Receptor>
prm/blind_docking_80.prm

>  <SCORE>
-9.70433

>  <SCORE.INTER>
-9.70433

>  <SCORE.INTER.CONST>
1

>  <SCORE.INTER.POLAR>
0

>  <SCORE.INTER.ROT>
0

>  <SCORE.INTER.SOLV>
2.07474

>  <SCORE.INTER.VDW>
-10.7611

>  <SCORE.INTER.norm>
-0.970433

>  <SCORE.INTRA>
0

>  <SCORE.INTRA.DIHEDRAL>
0

>  <SCORE.INTRA.DIHEDRAL.0>
0

>  <SCORE.INTRA.POLAR>
0

>  <SCORE.INTRA.POLAR.0>
0

>  <SCORE.INTRA.REPUL>
0

>  <SCORE.INTRA.REPUL.0>
0

>  <SCORE.INTRA.SOLV>
0

>  <SCORE.INTRA.SOLV.lig_0>
-4.15853

>  <SCORE.INTRA.VDW>
0

>  <SCORE.INTRA.VDW.0>
0

>  <SCORE.INTRA.norm>
0

>  <SCORE.RESTR>
0

>  <SCORE.RESTR.CAVITY>
0

>  <SCORE.RESTR.norm>
0

>  <SCORE.SYSTEM>
0

>  <SCORE.SYSTEM.CONST>
0

>  <SCORE.SYSTEM.DIHEDRAL>
0

>  <SCORE.SYSTEM.SOLV>
0

>  <SCORE.SYSTEM.norm>
0

>  <SCORE.heavy>
10

>  <SCORE.norm>
-0.970433

>  <RMSD>
19.178

$$$$
ligand
 OpenBabel02271912153D
libRbt.so/2013.1/901 2013/11/27
 10 11  0  0  0  0  0  0  0  0999 V2000
  -14.8996   -9.3165   -6.4229 N   0  0  0  0  0  0  0  0  0  0  0  0
  -14.1450  -10.3711   -6.2017 C   0  0  0  0  0  0  0  0  0  0  0  0
  -13.5016  -10.9828   -7.2805 N   0  0  0  0  0  0  0  0  0  0  0  0
  -13.6520  -10.5069   -8.5142 C   0  0  0  0  0  0  0  0  0  0  0  0
  -14.4118   -9.4499   -8.7332 C   0  0  0  0  0  0  0  0  0  0  0  0
  -15.0337   -8.8572   -7.7310 C   0  0  0  0  0  0  0  0  0  0  0  0
  -15.7389   -7.8839   -7.9575 O   0  0  0  0  0  0  0  0  0  0  0  0
  -14.3950   -9.1699  -10.0352 N   0  0  0  0  0  0  0  0  0  0  0  0
  -13.6068  -10.0657  -10.6191 C   0  0  0  0  0  0  0  0  0  0  0  0
  -13.1501  -10.8938   -9.6762 N   0  0  0  0  0  0  0  0  0  0  0  0
  1  2  1  0  0  0  0
  1  6  1  0  0  0  0
  2  3  2  0  0  0  0
  3  4  1  0  0  0  0
  4  5  2  0  0  0  0
  4 10  1  0  0  0  0
  5  6  1  0  0  0  0
  5  8  1  0  0  0  0
  6  7  2  0  0  0  0
  8  9  1  0  0  0  0
  9 10  2  0  0  0  0
M  END
>  <CHROM.1>
-14.28218864,-9.71402473,-8.30850618,-2.22744029,0.90901229,-1.34682072

>  <Name>
ligand

>  <RI>
0

>  <Rbt.Current_Directory>
/home/itssahil/PROJECTS/Mol_Feturizer/Test_systems_manuscript/rnas/5c7w

>  <Rbt.Executable>
rbdock ($Id: //depot/dev/client3/rdock/2013.1/src/exe/rbdock.cxx#4 $)

>  <Rbt.Library>
libRbt.so (2013.1, Build901 2013/11/27)

>  <Rbt.Parameter_File>
/export/apps/rDock/src/rDock_2013.1_src/data/scripts/dock_solv.prm

>  <Rbt.Receptor>
prm/blind_docking_40.prm

>  <SCORE>
-10.8607

>  <SCORE.INTER>
-10.8607

>  <SCORE.INTER.CONST>
1

>  <SCORE.INTER.POLAR>
0

>  <SCORE.INTER.ROT>
0

>  <SCORE.INTER.SOLV>
4.04855

>  <SCORE.INTER.VDW>
-12.19

>  <SCORE.INTER.norm>
-1.08607

>  <SCORE.INTRA>
0

>  <SCORE.INTRA.DIHEDRAL>
0

>  <SCORE.INTRA.DIHEDRAL.0>
0

>  <SCORE.INTRA.POLAR>
0

>  <SCORE.INTRA.POLAR.0>
0

>  <SCORE.INTRA.REPUL>
0

>  <SCORE.INTRA.REPUL.0>
0

>  <SCORE.INTRA.SOLV>
0

>  <SCORE.INTRA.SOLV.lig_0>
-4.15853

>  <SCORE.INTRA.VDW>
0

>  <SCORE.INTRA.VDW.0>
0

>  <SCORE.INTRA.norm>
0

>  <SCORE.RESTR>
0

>  <SCORE.RESTR.CAVITY>
0

>  <SCORE.RESTR.norm>
0

>  <SCORE.SYSTEM>
0

>  <SCORE.SYSTEM.CONST>
0

>  <SCORE.SYSTEM.DIHEDRAL>
0

>  <SCORE.SYSTEM.SOLV>
0

>  <SCORE.SYSTEM.norm>
0

>  <SCORE.heavy>
10

>  <SCORE.norm>
-1.08607

>  <RMSD>
25.743

$$$$
ligand
 OpenBabel02271912153D
libRbt.so/2013.1/901 2013/11/27
 10 11  0  0  0  0  0  0  0  0999 V2000
  -14.6794   -9.5728   -6.8942 N   0  0  0  0  0  0  0  0  0  0  0  0
  -15.3691   -8.5885   -7.4290 C   0  0  0  0  0  0  0  0  0  0  0  0
  -15.0082   -8.1164   -8.6935 N   0  0  0  0  0  0  0  0  0  0  0  0
  -13.9800   -8.6531   -9.3461 C   0  0  0  0  0  0  0  0  0  0  0  0
  -13.2883   -9.6389   -8.8057 C   0  0  0  0  0  0  0  0  0  0  0  0
  -13.6070  -10.0992   -7.6102 C   0  0  0  0  0  0  0  0  0  0  0  0
  -12.9479  -11.0081   -7.1251 O   0  0  0  0  0  0  0  0  0  0  0  0
  -12.3249  -10.0025   -9.6504 N   0  0  0  0  0  0  0  0  0  0  0  0
  -12.4347   -9.2313  -10.7263 C   0  0  0  0  0  0  0  0  0  0  0  0
  -13.4582   -8.3950  -10.5347 N   0  0  0  0  0  0  0  0  0  0  0  0
  1  2  1  0  0  0  0
  1  6  1  0  0  0  0
  2  3  2  0  0  0  0
  3  4  1  0  0  0  0
  4  5  2  0  0  0  0
  4 10  1  0  0  0  0
  5  6  1  0  0  0  0
  5  8  1  0  0  0  0
  6  7  2  0  0  0  0
  8  9  1  0  0  0  0
  9 10  2  0  0  0  0
M  END
>  <CHROM.1>
-13.69630622,-9.36256128,-8.65033543,2.10042408,-0.66379231,2.13290577

>  <Name>
ligand

>  <RI>
0

>  <Rbt.Current_Directory>
/home/itssahil/PROJECTS/Mol_Feturizer/Test_systems_manuscript/rnas/5c7w

>  <Rbt.Executable>
rbdock ($Id: //depot/dev/client3/rdock/2013.1/src/exe/rbdock.cxx#4 $)

>  <Rbt.Library>
libRbt.so (2013.1, Build901 2013/11/27)

>  <Rbt.Parameter_File>
/export/apps/rDock/src/rDock_2013.1_src/data/scripts/dock_solv.prm

>  <Rbt.Receptor>
prm/blind_docking_60.prm

>  <SCORE>
-11.2245

>  <SCORE.INTER>
-11.2245

>  <SCORE.INTER.CONST>
1

>  <SCORE.INTER.POLAR>
0

>  <SCORE.INTER.ROT>
0

>  <SCORE.INTER.SOLV>
1.90012

>  <SCORE.INTER.VDW>
-11.7164

>  <SCORE.INTER.norm>
-1.12245

>  <SCORE.INTRA>
0

>  <SCORE.INTRA.DIHEDRAL>
0

>  <SCORE.INTRA.DIHEDRAL.0>
0

>  <SCORE.INTRA.POLAR>
0

>  <SCORE.INTRA.POLAR.0>
0

>  <SCORE.INTRA.REPUL>
0

>  <SCORE.INTRA.REPUL.0>
0

>  <SCORE.INTRA.SOLV>
0

>  <SCORE.INTRA.SOLV.lig_0>
-4.15853

>  <SCORE.INTRA.VDW>
0

>  <SCORE.INTRA.VDW.0>
0

>  <SCORE.INTRA.norm>
0

>  <SCORE.RESTR>
0

>  <SCORE.RESTR.CAVITY>
0

>  <SCORE.RESTR.norm>
0

>  <SCORE.SYSTEM>
0

>  <SCORE.SYSTEM.CONST>
0

>  <SCORE.SYSTEM.DIHEDRAL>
0

>  <SCORE.SYSTEM.SOLV>
0

>  <SCORE.SYSTEM.norm>
0

>  <SCORE.heavy>
10

>  <SCORE.norm>
-1.12245

>  <RMSD>
25.801

$$$$
ligand
 OpenBabel02271912153D
libRbt.so/2013.1/901 2013/11/27
 10 11  0  0  0  0  0  0  0  0999 V2000
  -12.7755   -9.8826  -10.6362 N   0  0  0  0  0  0  0  0  0  0  0  0
  -12.9991  -10.9633   -9.9201 C   0  0  0  0  0  0  0  0  0  0  0  0
  -13.8720  -10.8871   -8.8319 N   0  0  0  0  0  0  0  0  0  0  0  0
  -14.4666   -9.7372   -8.5229 C   0  0  0  0  0  0  0  0  0  0  0  0
  -14.2382   -8.6540   -9.2418 C   0  0  0  0  0  0  0  0  0  0  0  0
  -13.4141   -8.6996  -10.2720 C   0  0  0  0  0  0  0  0  0  0  0  0
  -13.2110   -7.6823  -10.9198 O   0  0  0  0  0  0  0  0  0  0  0  0
  -14.9487   -7.6459   -8.7391 N   0  0  0  0  0  0  0  0  0  0  0  0
  -15.6269   -8.1230   -7.7013 C   0  0  0  0  0  0  0  0  0  0  0  0
  -15.3250   -9.4170   -7.5678 N   0  0  0  0  0  0  0  0  0  0  0  0
  1  2  1  0  0  0  0
  1  6  1  0  0  0  0
  2  3  2  0  0  0  0
  3  4  1  0  0  0  0
  4  5  2  0  0  0  0
  4 10  1  0  0  0  0
  5  6  1  0  0  0  0
  5  8  1  0  0  0  0
  6  7  2  0  0  0  0
  8  9  1  0  0  0  0
  9 10  2  0  0  0  0
M  END
>  <CHROM.1>
-14.06983792,-9.14176167,-9.26854030,-0.03521706,-0.86868223,2.76969087

>  <Name>
ligand

>  <RI>
0

>  <Rbt.Current_Directory>
/home/itssahil/PROJECTS/Mol_Feturizer/Test_systems_manuscript/rnas/5c7w

>  <Rbt.Executable>
rbdock ($Id: //depot/dev/client3/rdock/2013.1/src/exe/rbdock.cxx#4 $)

>  <Rbt.Library>
libRbt.so (2013.1, Build901 2013/11/27)

>  <Rbt.Parameter_File>
/export/apps/rDock/src/rDock_2013.1_src/data/scripts/dock_solv.prm

>  <Rbt.Receptor>
prm/blind_docking_80.prm

>  <SCORE>
-9.86807

>  <SCORE.INTER>
-9.86807

>  <SCORE.INTER.CONST>
1

>  <SCORE.INTER.POLAR>
0

>  <SCORE.INTER.ROT>
0

>  <SCORE.INTER.SOLV>
3.90478

>  <SCORE.INTER.VDW>
-11.4803

>  <SCORE.INTER.norm>
-0.986807

>  <SCORE.INTRA>
0

>  <SCORE.INTRA.DIHEDRAL>
0

>  <SCORE.INTRA.DIHEDRAL.0>
0

>  <SCORE.INTRA.POLAR>
0

>  <SCORE.INTRA.POLAR.0>
0

>  <SCORE.INTRA.REPUL>
0

>  <SCORE.INTRA.REPUL.0>
0

>  <SCORE.INTRA.SOLV>
0

>  <SCORE.INTRA.SOLV.lig_0>
-4.15853

>  <SCORE.INTRA.VDW>
0

>  <SCORE.INTRA.VDW.0>
0

>  <SCORE.INTRA.norm>
0

>  <SCORE.RESTR>
0

>  <SCORE.RESTR.CAVITY>
0

>  <SCORE.RESTR.norm>
0

>  <SCORE.SYSTEM>
0

>  <SCORE.SYSTEM.CONST>
0

>  <SCORE.SYSTEM.DIHEDRAL>
0

>  <SCORE.SYSTEM.SOLV>
0

>  <SCORE.SYSTEM.norm>
0

>  <SCORE.heavy>
10

>  <SCORE.norm>
-0.986807

>  <RMSD>
26.509

$$$$
ligand
 OpenBabel02271912153D
libRbt.so/2013.1/901 2013/11/27
 10 11  0  0  0  0  0  0  0  0999 V2000
  -12.7829   -9.8822  -10.6453 N   0  0  0  0  0  0  0  0  0  0  0  0
  -13.0027  -10.9623   -9.9272 C   0  0  0  0  0  0  0  0  0  0  0  0
  -13.8711  -10.8857   -8.8355 N   0  0  0  0  0  0  0  0  0  0  0  0
  -14.4652   -9.7360   -8.5250 C   0  0  0  0  0  0  0  0  0  0  0  0
  -14.2408   -8.6533   -9.2459 C   0  0  0  0  0  0  0  0  0  0  0  0
  -13.4209   -8.6993  -10.2795 C   0  0  0  0  0  0  0  0  0  0  0  0
  -13.2213   -7.6824  -10.9291 O   0  0  0  0  0  0  0  0  0  0  0  0
  -14.9499   -7.6453   -8.7412 N   0  0  0  0  0  0  0  0  0  0  0  0
  -15.6234   -8.1218   -7.7001 C   0  0  0  0  0  0  0  0  0  0  0  0
  -15.3199   -9.4155   -7.5666 N   0  0  0  0  0  0  0  0  0  0  0  0
  1  2  1  0  0  0  0
  1  6  1  0  0  0  0
  2  3  2  0  0  0  0
  3  4  1  0  0  0  0
  4  5  2  0  0  0  0
  4 10  1  0  0  0  0
  5  6  1  0  0  0  0
  5  8  1  0  0  0  0
  6  7  2  0  0  0  0
  8  9  1  0  0  0  0
  9 10  2  0  0  0  0
M  END
>  <CHROM.1>
-14.07210018,-9.14096925,-9.27290724,-0.03870151,-0.87231025,2.76606220

>  <Name>
ligand

>  <RI>
0

>  <Rbt.Current_Directory>
/home/itssahil/PROJECTS/Mol_Feturizer/Test_systems_manuscript/rnas/5c7w

>  <Rbt.Executable>
rbdock ($Id: //depot/dev/client3/rdock/2013.1/src/exe/rbdock.cxx#4 $)

>  <Rbt.Library>
libRbt.so (2013.1, Build901 2013/11/27)

>  <Rbt.Parameter_File>
/export/apps/rDock/src/rDock_2013.1_src/data/scripts/dock_solv.prm

>  <Rbt.Receptor>
prm/blind_docking_60.prm

>  <SCORE>
-9.86769

>  <SCORE.INTER>
-9.86769

>  <SCORE.INTER.CONST>
1

>  <SCORE.INTER.POLAR>
0

>  <SCORE.INTER.ROT>
0

>  <SCORE.INTER.SOLV>
3.90412

>  <SCORE.INTER.VDW>
-11.4798

>  <SCORE.INTER.norm>
-0.986769

>  <SCORE.INTRA>
0

>  <SCORE.INTRA.DIHEDRAL>
0

>  <SCORE.INTRA.DIHEDRAL.0>
0

>  <SCORE.INTRA.POLAR>
0

>  <SCORE.INTRA.POLAR.0>
0

>  <SCORE.INTRA.REPUL>
0

>  <SCORE.INTRA.REPUL.0>
0

>  <SCORE.INTRA.SOLV>
0

>  <SCORE.INTRA.SOLV.lig_0>
-4.15853

>  <SCORE.INTRA.VDW>
0

>  <SCORE.INTRA.VDW.0>
0

>  <SCORE.INTRA.norm>
0

>  <SCORE.RESTR>
0

>  <SCORE.RESTR.CAVITY>
0

>  <SCORE.RESTR.norm>
0

>  <SCORE.SYSTEM>
0

>  <SCORE.SYSTEM.CONST>
0

>  <SCORE.SYSTEM.DIHEDRAL>
0

>  <SCORE.SYSTEM.SOLV>
0

>  <SCORE.SYSTEM.norm>
0

>  <SCORE.heavy>
10

>  <SCORE.norm>
-0.986769

>  <RMSD>
26.513

$$$$
ligand
 OpenBabel02271912153D
libRbt.so/2013.1/901 2013/11/27
 10 11  0  0  0  0  0  0  0  0999 V2000
  -12.7922   -9.8898  -10.6435 N   0  0  0  0  0  0  0  0  0  0  0  0
  -13.0132  -10.9699   -9.9258 C   0  0  0  0  0  0  0  0  0  0  0  0
  -13.8814  -10.8926   -8.8339 N   0  0  0  0  0  0  0  0  0  0  0  0
  -14.4741   -9.7422   -8.5229 C   0  0  0  0  0  0  0  0  0  0  0  0
  -14.2484   -8.6596   -9.2436 C   0  0  0  0  0  0  0  0  0  0  0  0
  -13.4287   -8.7063  -10.2773 C   0  0  0  0  0  0  0  0  0  0  0  0
  -13.2280   -7.6894  -10.9266 O   0  0  0  0  0  0  0  0  0  0  0  0
  -14.9562   -7.6508   -8.7384 N   0  0  0  0  0  0  0  0  0  0  0  0
  -15.6301   -8.1269   -7.6974 C   0  0  0  0  0  0  0  0  0  0  0  0
  -15.3282   -9.4210   -7.5643 N   0  0  0  0  0  0  0  0  0  0  0  0
  1  2  1  0  0  0  0
  1  6  1  0  0  0  0
  2  3  2  0  0  0  0
  3  4  1  0  0  0  0
  4  5  2  0  0  0  0
  4 10  1  0  0  0  0
  5  6  1  0  0  0  0
  5  8  1  0  0  0  0
  6  7  2  0  0  0  0
  8  9  1  0  0  0  0
  9 10  2  0  0  0  0
M  END
>  <CHROM.1>
-14.08032047,-9.14743934,-9.27069260,-0.03699754,-0.87287697,2.76769763

>  <Name>
ligand

>  <RI>
0

>  <Rbt.Current_Directory>
/home/itssahil/PROJECTS/Mol_Feturizer/Test_systems_manuscript/rnas/5c7w

>  <Rbt.Executable>
rbdock ($Id: //depot/dev/client3/rdock/2013.1/src/exe/rbdock.cxx#4 $)

>  <Rbt.Library>
libRbt.so (2013.1, Build901 2013/11/27)

>  <Rbt.Parameter_File>
/export/apps/rDock/src/rDock_2013.1_src/data/scripts/dock_solv.prm

>  <Rbt.Receptor>
prm/blind_docking_40.prm

>  <SCORE>
-9.86109

>  <SCORE.INTER>
-9.86109

>  <SCORE.INTER.CONST>
1

>  <SCORE.INTER.POLAR>
0

>  <SCORE.INTER.ROT>
0

>  <SCORE.INTER.SOLV>
3.89855

>  <SCORE.INTER.VDW>
-11.4736

>  <SCORE.INTER.norm>
-0.986109

>  <SCORE.INTRA>
0

>  <SCORE.INTRA.DIHEDRAL>
0

>  <SCORE.INTRA.DIHEDRAL.0>
0

>  <SCORE.INTRA.POLAR>
0

>  <SCORE.INTRA.POLAR.0>
0

>  <SCORE.INTRA.REPUL>
0

>  <SCORE.INTRA.REPUL.0>
0

>  <SCORE.INTRA.SOLV>
0

>  <SCORE.INTRA.SOLV.lig_0>
-4.15853

>  <SCORE.INTRA.VDW>
0

>  <SCORE.INTRA.VDW.0>
0

>  <SCORE.INTRA.norm>
0

>  <SCORE.RESTR>
0

>  <SCORE.RESTR.CAVITY>
0

>  <SCORE.RESTR.norm>
0

>  <SCORE.SYSTEM>
0

>  <SCORE.SYSTEM.CONST>
0

>  <SCORE.SYSTEM.DIHEDRAL>
0

>  <SCORE.SYSTEM.SOLV>
0

>  <SCORE.SYSTEM.norm>
0

>  <SCORE.heavy>
10

>  <SCORE.norm>
-0.986109

>  <RMSD>
26.516

$$$$
ligand
 OpenBabel02271912153D
libRbt.so/2013.1/901 2013/11/27
 10 11  0  0  0  0  0  0  0  0999 V2000
  -12.7895   -9.8677  -10.6655 N   0  0  0  0  0  0  0  0  0  0  0  0
  -13.0067  -10.9482   -9.9473 C   0  0  0  0  0  0  0  0  0  0  0  0
  -13.8698  -10.8719   -8.8513 N   0  0  0  0  0  0  0  0  0  0  0  0
  -14.4616   -9.7220   -8.5371 C   0  0  0  0  0  0  0  0  0  0  0  0
  -14.2397   -8.6389   -9.2582 C   0  0  0  0  0  0  0  0  0  0  0  0
  -13.4249   -8.6846  -10.2957 C   0  0  0  0  0  0  0  0  0  0  0  0
  -13.2277   -7.6674  -10.9454 O   0  0  0  0  0  0  0  0  0  0  0  0
  -14.9457   -7.6307   -8.7492 N   0  0  0  0  0  0  0  0  0  0  0  0
  -15.6145   -8.1077   -7.7053 C   0  0  0  0  0  0  0  0  0  0  0  0
  -15.3114   -9.4017   -7.5743 N   0  0  0  0  0  0  0  0  0  0  0  0
  1  2  1  0  0  0  0
  1  6  1  0  0  0  0
  2  3  2  0  0  0  0
  3  4  1  0  0  0  0
  4  5  2  0  0  0  0
  4 10  1  0  0  0  0
  5  6  1  0  0  0  0
  5  8  1  0  0  0  0
  6  7  2  0  0  0  0
  8  9  1  0  0  0  0
  9 10  2  0  0  0  0
M  END
>  <CHROM.1>
-14.07158418,-9.12663617,-9.28634174,-0.04036197,-0.87704361,2.76561649

>  <Name>
ligand

>  <RI>
0

>  <Rbt.Current_Directory>
/home/itssahil/PROJECTS/Mol_Feturizer/Test_systems_manuscript/rnas/5c7w

>  <Rbt.Executable>
rbdock ($Id: //depot/dev/client3/rdock/2013.1/src/exe/rbdock.cxx#4 $)

>  <Rbt.Library>
libRbt.so (2013.1, Build901 2013/11/27)

>  <Rbt.Parameter_File>
/export/apps/rDock/src/rDock_2013.1_src/data/scripts/dock_solv.prm

>  <Rbt.Receptor>
prm/blind_docking_60.prm

>  <SCORE>
-9.89355

>  <SCORE.INTER>
-9.89355

>  <SCORE.INTER.CONST>
1

>  <SCORE.INTER.POLAR>
0

>  <SCORE.INTER.ROT>
0

>  <SCORE.INTER.SOLV>
3.92047

>  <SCORE.INTER.VDW>
-11.5025

>  <SCORE.INTER.norm>
-0.989355

>  <SCORE.INTRA>
0

>  <SCORE.INTRA.DIHEDRAL>
0

>  <SCORE.INTRA.DIHEDRAL.0>
0

>  <SCORE.INTRA.POLAR>
0

>  <SCORE.INTRA.POLAR.0>
0

>  <SCORE.INTRA.REPUL>
0

>  <SCORE.INTRA.REPUL.0>
0

>  <SCORE.INTRA.SOLV>
0

>  <SCORE.INTRA.SOLV.lig_0>
-4.15853

>  <SCORE.INTRA.VDW>
0

>  <SCORE.INTRA.VDW.0>
0

>  <SCORE.INTRA.norm>
0

>  <SCORE.RESTR>
0

>  <SCORE.RESTR.CAVITY>
0

>  <SCORE.RESTR.norm>
0

>  <SCORE.SYSTEM>
0

>  <SCORE.SYSTEM.CONST>
0

>  <SCORE.SYSTEM.DIHEDRAL>
0

>  <SCORE.SYSTEM.SOLV>
0

>  <SCORE.SYSTEM.norm>
0

>  <SCORE.heavy>
10

>  <SCORE.norm>
-0.989355

>  <RMSD>
26.525

$$$$
ligand
 OpenBabel02271912153D
libRbt.so/2013.1/901 2013/11/27
 10 11  0  0  0  0  0  0  0  0999 V2000
  -13.1409  -10.6021  -10.4416 N   0  0  0  0  0  0  0  0  0  0  0  0
  -12.7135   -9.4018  -10.7687 C   0  0  0  0  0  0  0  0  0  0  0  0
  -13.3072   -8.2853  -10.1746 N   0  0  0  0  0  0  0  0  0  0  0  0
  -14.2925   -8.4340   -9.2924 C   0  0  0  0  0  0  0  0  0  0  0  0
  -14.7208   -9.6397   -8.9681 C   0  0  0  0  0  0  0  0  0  0  0  0
  -14.1789  -10.7099   -9.5191 C   0  0  0  0  0  0  0  0  0  0  0  0
  -14.5964  -11.8171   -9.2099 O   0  0  0  0  0  0  0  0  0  0  0  0
  -15.6981   -9.5224   -8.0708 N   0  0  0  0  0  0  0  0  0  0  0  0
  -15.8640   -8.2251   -7.8385 C   0  0  0  0  0  0  0  0  0  0  0  0
  -14.9947   -7.5532   -8.5976 N   0  0  0  0  0  0  0  0  0  0  0  0
  1  2  1  0  0  0  0
  1  6  1  0  0  0  0
  2  3  2  0  0  0  0
  3  4  1  0  0  0  0
  4  5  2  0  0  0  0
  4 10  1  0  0  0  0
  5  6  1  0  0  0  0
  5  8  1  0  0  0  0
  6  7  2  0  0  0  0
  8  9  1  0  0  0  0
  9 10  2  0  0  0  0
M  END
>  <CHROM.1>
-14.35415406,-9.46557864,-9.28777601,-0.76624874,0.73561573,0.05750301

>  <Name>
ligand

>  <RI>
0

>  <Rbt.Current_Directory>
/home/itssahil/PROJECTS/Mol_Feturizer/Test_systems_manuscript/rnas/5c7w

>  <Rbt.Executable>
rbdock ($Id: //depot/dev/client3/rdock/2013.1/src/exe/rbdock.cxx#4 $)

>  <Rbt.Library>
libRbt.so (2013.1, Build901 2013/11/27)

>  <Rbt.Parameter_File>
/export/apps/rDock/src/rDock_2013.1_src/data/scripts/dock_solv.prm

>  <Rbt.Receptor>
prm/blind_docking_60.prm

>  <SCORE>
-10.8043

>  <SCORE.INTER>
-10.8043

>  <SCORE.INTER.CONST>
1

>  <SCORE.INTER.POLAR>
0

>  <SCORE.INTER.ROT>
0

>  <SCORE.INTER.SOLV>
4.15796

>  <SCORE.INTER.VDW>
-12.1889

>  <SCORE.INTER.norm>
-1.08043

>  <SCORE.INTRA>
0

>  <SCORE.INTRA.DIHEDRAL>
0

>  <SCORE.INTRA.DIHEDRAL.0>
0

>  <SCORE.INTRA.POLAR>
0

>  <SCORE.INTRA.POLAR.0>
0

>  <SCORE.INTRA.REPUL>
0

>  <SCORE.INTRA.REPUL.0>
0

>  <SCORE.INTRA.SOLV>
0

>  <SCORE.INTRA.SOLV.lig_0>
-4.15853

>  <SCORE.INTRA.VDW>
0

>  <SCORE.INTRA.VDW.0>
0

>  <SCORE.INTRA.norm>
0

>  <SCORE.RESTR>
0

>  <SCORE.RESTR.CAVITY>
0

>  <SCORE.RESTR.norm>
0

>  <SCORE.SYSTEM>
0

>  <SCORE.SYSTEM.CONST>
0

>  <SCORE.SYSTEM.DIHEDRAL>
0

>  <SCORE.SYSTEM.SOLV>
0

>  <SCORE.SYSTEM.norm>
0

>  <SCORE.heavy>
10

>  <SCORE.norm>
-1.08043

>  <RMSD>
26.683

$$$$
ligand
 OpenBabel02271912153D
libRbt.so/2013.1/901 2013/11/27
 10 11  0  0  0  0  0  0  0  0999 V2000
  -13.1461  -10.5993  -10.4503 N   0  0  0  0  0  0  0  0  0  0  0  0
  -12.7179   -9.3983  -10.7741 C   0  0  0  0  0  0  0  0  0  0  0  0
  -13.3095   -8.2832  -10.1754 N   0  0  0  0  0  0  0  0  0  0  0  0
  -14.2936   -8.4338   -9.2922 C   0  0  0  0  0  0  0  0  0  0  0  0
  -14.7228   -9.6401   -8.9713 C   0  0  0  0  0  0  0  0  0  0  0  0
  -14.1829  -10.7090   -9.5267 C   0  0  0  0  0  0  0  0  0  0  0  0
  -14.6011  -11.8168   -9.2206 O   0  0  0  0  0  0  0  0  0  0  0  0
  -15.6986   -9.5248   -8.0722 N   0  0  0  0  0  0  0  0  0  0  0  0
  -15.8628   -8.2281   -7.8353 C   0  0  0  0  0  0  0  0  0  0  0  0
  -14.9938   -7.5546   -8.5934 N   0  0  0  0  0  0  0  0  0  0  0  0
  1  2  1  0  0  0  0
  1  6  1  0  0  0  0
  2  3  2  0  0  0  0
  3  4  1  0  0  0  0
  4  5  2  0  0  0  0
  4 10  1  0  0  0  0
  5  6  1  0  0  0  0
  5  8  1  0  0  0  0
  6  7  2  0  0  0  0
  8  9  1  0  0  0  0
  9 10  2  0  0  0  0
M  END
>  <CHROM.1>
-14.35641817,-9.46533835,-9.29093178,-0.76782382,0.73702913,0.06191736

>  <Name>
ligand

>  <RI>
0

>  <Rbt.Current_Directory>
/home/itssahil/PROJECTS/Mol_Feturizer/Test_systems_manuscript/rnas/5c7w

>  <Rbt.Executable>
rbdock ($Id: //depot/dev/client3/rdock/2013.1/src/exe/rbdock.cxx#4 $)

>  <Rbt.Library>
libRbt.so (2013.1, Build901 2013/11/27)

>  <Rbt.Parameter_File>
/export/apps/rDock/src/rDock_2013.1_src/data/scripts/dock_solv.prm

>  <Rbt.Receptor>
prm/blind_docking_80.prm

>  <SCORE>
-10.8054

>  <SCORE.INTER>
-10.8061

>  <SCORE.INTER.CONST>
1

>  <SCORE.INTER.POLAR>
0

>  <SCORE.INTER.ROT>
0

>  <SCORE.INTER.SOLV>
4.1591

>  <SCORE.INTER.VDW>
-12.1904

>  <SCORE.INTER.norm>
-1.08061

>  <SCORE.INTRA>
0

>  <SCORE.INTRA.DIHEDRAL>
0

>  <SCORE.INTRA.DIHEDRAL.0>
0

>  <SCORE.INTRA.POLAR>
0

>  <SCORE.INTRA.POLAR.0>
0

>  <SCORE.INTRA.REPUL>
0

>  <SCORE.INTRA.REPUL.0>
0

>  <SCORE.INTRA.SOLV>
0

>  <SCORE.INTRA.SOLV.lig_0>
-4.15853

>  <SCORE.INTRA.VDW>
0

>  <SCORE.INTRA.VDW.0>
0

>  <SCORE.INTRA.norm>
0

>  <SCORE.RESTR>
0.000706184

>  <SCORE.RESTR.CAVITY>
0.000706184

>  <SCORE.RESTR.norm>
7.06184e-05

>  <SCORE.SYSTEM>
0

>  <SCORE.SYSTEM.CONST>
0

>  <SCORE.SYSTEM.DIHEDRAL>
0

>  <SCORE.SYSTEM.SOLV>
0

>  <SCORE.SYSTEM.norm>
0

>  <SCORE.heavy>
10

>  <SCORE.norm>
-1.08054

>  <RMSD>
26.687

$$$$
ligand
 OpenBabel02271912153D
libRbt.so/2013.1/901 2013/11/27
 10 11  0  0  0  0  0  0  0  0999 V2000
  -13.1466  -10.6024  -10.4474 N   0  0  0  0  0  0  0  0  0  0  0  0
  -12.7209   -9.4020  -10.7768 C   0  0  0  0  0  0  0  0  0  0  0  0
  -13.3136   -8.2854  -10.1819 N   0  0  0  0  0  0  0  0  0  0  0  0
  -14.2963   -8.4341   -9.2967 C   0  0  0  0  0  0  0  0  0  0  0  0
  -14.7228   -9.6398   -8.9701 C   0  0  0  0  0  0  0  0  0  0  0  0
  -14.1818  -10.7101   -9.5218 C   0  0  0  0  0  0  0  0  0  0  0  0
  -14.5976  -11.8173   -9.2104 O   0  0  0  0  0  0  0  0  0  0  0  0
  -15.6976   -9.5225   -8.0701 N   0  0  0  0  0  0  0  0  0  0  0  0
  -15.8637   -8.2251   -7.8384 C   0  0  0  0  0  0  0  0  0  0  0  0
  -14.9971   -7.5532   -8.6006 N   0  0  0  0  0  0  0  0  0  0  0  0
  1  2  1  0  0  0  0
  1  6  1  0  0  0  0
  2  3  2  0  0  0  0
  3  4  1  0  0  0  0
  4  5  2  0  0  0  0
  4 10  1  0  0  0  0
  5  6  1  0  0  0  0
  5  8  1  0  0  0  0
  6  7  2  0  0  0  0
  8  9  1  0  0  0  0
  9 10  2  0  0  0  0
M  END
>  <CHROM.1>
-14.35723581,-9.46572681,-9.29100545,-0.76553049,0.73855640,0.05619235

>  <Name>
ligand

>  <RI>
0

>  <Rbt.Current_Directory>
/home/itssahil/PROJECTS/Mol_Feturizer/Test_systems_manuscript/rnas/5c7w

>  <Rbt.Executable>
rbdock ($Id: //depot/dev/client3/rdock/2013.1/src/exe/rbdock.cxx#4 $)

>  <Rbt.Library>
libRbt.so (2013.1, Build901 2013/11/27)

>  <Rbt.Parameter_File>
/export/apps/rDock/src/rDock_2013.1_src/data/scripts/dock_solv.prm

>  <Rbt.Receptor>
prm/blind_docking_80.prm

>  <SCORE>
-10.8018

>  <SCORE.INTER>
-10.8018

>  <SCORE.INTER.CONST>
1

>  <SCORE.INTER.POLAR>
0

>  <SCORE.INTER.ROT>
0

>  <SCORE.INTER.SOLV>
4.15575

>  <SCORE.INTER.VDW>
-12.1865

>  <SCORE.INTER.norm>
-1.08018

>  <SCORE.INTRA>
0

>  <SCORE.INTRA.DIHEDRAL>
0

>  <SCORE.INTRA.DIHEDRAL.0>
0

>  <SCORE.INTRA.POLAR>
0

>  <SCORE.INTRA.POLAR.0>
0

>  <SCORE.INTRA.REPUL>
0

>  <SCORE.INTRA.REPUL.0>
0

>  <SCORE.INTRA.SOLV>
0

>  <SCORE.INTRA.SOLV.lig_0>
-4.15853

>  <SCORE.INTRA.VDW>
0

>  <SCORE.INTRA.VDW.0>
0

>  <SCORE.INTRA.norm>
0

>  <SCORE.RESTR>
0

>  <SCORE.RESTR.CAVITY>
0

>  <SCORE.RESTR.norm>
0

>  <SCORE.SYSTEM>
0

>  <SCORE.SYSTEM.CONST>
0

>  <SCORE.SYSTEM.DIHEDRAL>
0

>  <SCORE.SYSTEM.SOLV>
0

>  <SCORE.SYSTEM.norm>
0

>  <SCORE.heavy>
10

>  <SCORE.norm>
-1.08018

>  <RMSD>
26.687

$$$$
ligand
 OpenBabel02271912153D
libRbt.so/2013.1/901 2013/11/27
 10 11  0  0  0  0  0  0  0  0999 V2000
  -13.1396  -10.6051  -10.4533 N   0  0  0  0  0  0  0  0  0  0  0  0
  -12.7079   -9.4052  -10.7766 C   0  0  0  0  0  0  0  0  0  0  0  0
  -13.2996   -8.2885  -10.1810 N   0  0  0  0  0  0  0  0  0  0  0  0
  -14.2873   -8.4365   -9.3013 C   0  0  0  0  0  0  0  0  0  0  0  0
  -14.7199   -9.6417   -8.9809 C   0  0  0  0  0  0  0  0  0  0  0  0
  -14.1799  -10.7121   -9.5334 C   0  0  0  0  0  0  0  0  0  0  0  0
  -14.6013  -11.8189   -9.2278 O   0  0  0  0  0  0  0  0  0  0  0  0
  -15.6987   -9.5239   -8.0855 N   0  0  0  0  0  0  0  0  0  0  0  0
  -15.8613   -8.2267   -7.8503 C   0  0  0  0  0  0  0  0  0  0  0  0
  -14.9884   -7.5554   -8.6059 N   0  0  0  0  0  0  0  0  0  0  0  0
  1  2  1  0  0  0  0
  1  6  1  0  0  0  0
  2  3  2  0  0  0  0
  3  4  1  0  0  0  0
  4  5  2  0  0  0  0
  4 10  1  0  0  0  0
  5  6  1  0  0  0  0
  5  8  1  0  0  0  0
  6  7  2  0  0  0  0
  8  9  1  0  0  0  0
  9 10  2  0  0  0  0
M  END
>  <CHROM.1>
-14.35199476,-9.46793469,-9.29935976,-0.76998823,0.73328054,0.06247676

>  <Name>
ligand

>  <RI>
0

>  <Rbt.Current_Directory>
/home/itssahil/PROJECTS/Mol_Feturizer/Test_systems_manuscript/rnas/5c7w

>  <Rbt.Executable>
rbdock ($Id: //depot/dev/client3/rdock/2013.1/src/exe/rbdock.cxx#4 $)

>  <Rbt.Library>
libRbt.so (2013.1, Build901 2013/11/27)

>  <Rbt.Parameter_File>
/export/apps/rDock/src/rDock_2013.1_src/data/scripts/dock_solv.prm

>  <Rbt.Receptor>
prm/blind_docking_40.prm

>  <SCORE>
-10.7718

>  <SCORE.INTER>
-10.7718

>  <SCORE.INTER.CONST>
1

>  <SCORE.INTER.POLAR>
0

>  <SCORE.INTER.ROT>
0

>  <SCORE.INTER.SOLV>
4.16742

>  <SCORE.INTER.VDW>
-12.1703

>  <SCORE.INTER.norm>
-1.07718

>  <SCORE.INTRA>
0

>  <SCORE.INTRA.DIHEDRAL>
0

>  <SCORE.INTRA.DIHEDRAL.0>
0

>  <SCORE.INTRA.POLAR>
0

>  <SCORE.INTRA.POLAR.0>
0

>  <SCORE.INTRA.REPUL>
0

>  <SCORE.INTRA.REPUL.0>
0

>  <SCORE.INTRA.SOLV>
0

>  <SCORE.INTRA.SOLV.lig_0>
-4.15853

>  <SCORE.INTRA.VDW>
0

>  <SCORE.INTRA.VDW.0>
0

>  <SCORE.INTRA.norm>
0

>  <SCORE.RESTR>
0

>  <SCORE.RESTR.CAVITY>
0

>  <SCORE.RESTR.norm>
0

>  <SCORE.SYSTEM>
0

>  <SCORE.SYSTEM.CONST>
0

>  <SCORE.SYSTEM.DIHEDRAL>
0

>  <SCORE.SYSTEM.SOLV>
0

>  <SCORE.SYSTEM.norm>
0

>  <SCORE.heavy>
10

>  <SCORE.norm>
-1.07718

>  <RMSD>
26.691

$$$$
ligand
 OpenBabel02271912153D
libRbt.so/2013.1/901 2013/11/27
 10 11  0  0  0  0  0  0  0  0999 V2000
  -13.1914  -10.6186  -10.4696 N   0  0  0  0  0  0  0  0  0  0  0  0
  -12.7366   -9.4197  -10.7638 C   0  0  0  0  0  0  0  0  0  0  0  0
  -13.3156   -8.3057  -10.1510 N   0  0  0  0  0  0  0  0  0  0  0  0
  -14.3144   -8.4551   -9.2842 C   0  0  0  0  0  0  0  0  0  0  0  0
  -14.7701   -9.6591   -8.9929 C   0  0  0  0  0  0  0  0  0  0  0  0
  -14.2425  -10.7269   -9.5622 C   0  0  0  0  0  0  0  0  0  0  0  0
  -14.6852  -11.8325   -9.2836 O   0  0  0  0  0  0  0  0  0  0  0  0
  -15.7557   -9.5432   -8.1047 N   0  0  0  0  0  0  0  0  0  0  0  0
  -15.8991   -8.2486   -7.8444 C   0  0  0  0  0  0  0  0  0  0  0  0
  -15.0077   -7.5767   -8.5775 N   0  0  0  0  0  0  0  0  0  0  0  0
  1  2  1  0  0  0  0
  1  6  1  0  0  0  0
  2  3  2  0  0  0  0
  3  4  1  0  0  0  0
  4  5  2  0  0  0  0
  4 10  1  0  0  0  0
  5  6  1  0  0  0  0
  5  8  1  0  0  0  0
  6  7  2  0  0  0  0
  8  9  1  0  0  0  0
  9 10  2  0  0  0  0
M  END
>  <CHROM.1>
-14.39620462,-9.48504563,-9.30415553,-0.79126520,0.72213412,0.09723687

>  <Name>
ligand

>  <RI>
0

>  <Rbt.Current_Directory>
/home/itssahil/PROJECTS/Mol_Feturizer/Test_systems_manuscript/rnas/5c7w

>  <Rbt.Executable>
rbdock ($Id: //depot/dev/client3/rdock/2013.1/src/exe/rbdock.cxx#4 $)

>  <Rbt.Library>
libRbt.so (2013.1, Build901 2013/11/27)

>  <Rbt.Parameter_File>
/export/apps/rDock/src/rDock_2013.1_src/data/scripts/dock_solv.prm

>  <Rbt.Receptor>
prm/blind_docking_60.prm

>  <SCORE>
-10.7796

>  <SCORE.INTER>
-10.7796

>  <SCORE.INTER.CONST>
1

>  <SCORE.INTER.POLAR>
0

>  <SCORE.INTER.ROT>
0

>  <SCORE.INTER.SOLV>
4.22355

>  <SCORE.INTER.VDW>
-12.1942

>  <SCORE.INTER.norm>
-1.07796

>  <SCORE.INTRA>
0

>  <SCORE.INTRA.DIHEDRAL>
0

>  <SCORE.INTRA.DIHEDRAL.0>
0

>  <SCORE.INTRA.POLAR>
0

>  <SCORE.INTRA.POLAR.0>
0

>  <SCORE.INTRA.REPUL>
0

>  <SCORE.INTRA.REPUL.0>
0

>  <SCORE.INTRA.SOLV>
0

>  <SCORE.INTRA.SOLV.lig_0>
-4.15853

>  <SCORE.INTRA.VDW>
0

>  <SCORE.INTRA.VDW.0>
0

>  <SCORE.INTRA.norm>
0

>  <SCORE.RESTR>
0

>  <SCORE.RESTR.CAVITY>
0

>  <SCORE.RESTR.norm>
0

>  <SCORE.SYSTEM>
0

>  <SCORE.SYSTEM.CONST>
0

>  <SCORE.SYSTEM.DIHEDRAL>
0

>  <SCORE.SYSTEM.SOLV>
0

>  <SCORE.SYSTEM.norm>
0

>  <SCORE.heavy>
10

>  <SCORE.norm>
-1.07796

>  <RMSD>
26.717

$$$$
ligand
 OpenBabel02271912153D
libRbt.so/2013.1/901 2013/11/27
 10 11  0  0  0  0  0  0  0  0999 V2000
  -13.1992  -10.6136  -10.4792 N   0  0  0  0  0  0  0  0  0  0  0  0
  -12.7432   -9.4151  -10.7728 C   0  0  0  0  0  0  0  0  0  0  0  0
  -13.3181   -8.3010  -10.1561 N   0  0  0  0  0  0  0  0  0  0  0  0
  -14.3142   -8.4501   -9.2862 C   0  0  0  0  0  0  0  0  0  0  0  0
  -14.7711   -9.6538   -8.9955 C   0  0  0  0  0  0  0  0  0  0  0  0
  -14.2474  -10.7216   -9.5684 C   0  0  0  0  0  0  0  0  0  0  0  0
  -14.6913  -11.8268   -9.2903 O   0  0  0  0  0  0  0  0  0  0  0  0
  -15.7536   -9.5376   -8.1038 N   0  0  0  0  0  0  0  0  0  0  0  0
  -15.8937   -8.2432   -7.8407 C   0  0  0  0  0  0  0  0  0  0  0  0
  -15.0035   -7.5717   -8.5756 N   0  0  0  0  0  0  0  0  0  0  0  0
  1  2  1  0  0  0  0
  1  6  1  0  0  0  0
  2  3  2  0  0  0  0
  3  4  1  0  0  0  0
  4  5  2  0  0  0  0
  4 10  1  0  0  0  0
  5  6  1  0  0  0  0
  5  8  1  0  0  0  0
  6  7  2  0  0  0  0
  8  9  1  0  0  0  0
  9 10  2  0  0  0  0
M  END
>  <CHROM.1>
-14.39798309,-9.47988247,-9.30768528,-0.79416824,0.72528690,0.10091373

>  <Name>
ligand

>  <RI>
0

>  <Rbt.Current_Directory>
/home/itssahil/PROJECTS/Mol_Feturizer/Test_systems_manuscript/rnas/5c7w

>  <Rbt.Executable>
rbdock ($Id: //depot/dev/client3/rdock/2013.1/src/exe/rbdock.cxx#4 $)

>  <Rbt.Library>
libRbt.so (2013.1, Build901 2013/11/27)

>  <Rbt.Parameter_File>
/export/apps/rDock/src/rDock_2013.1_src/data/scripts/dock_solv.prm

>  <Rbt.Receptor>
prm/blind_docking_60.prm

>  <SCORE>
-10.7803

>  <SCORE.INTER>
-10.7803

>  <SCORE.INTER.CONST>
1

>  <SCORE.INTER.POLAR>
0

>  <SCORE.INTER.ROT>
0

>  <SCORE.INTER.SOLV>
4.22078

>  <SCORE.INTER.VDW>
-12.1938

>  <SCORE.INTER.norm>
-1.07803

>  <SCORE.INTRA>
0

>  <SCORE.INTRA.DIHEDRAL>
0

>  <SCORE.INTRA.DIHEDRAL.0>
0

>  <SCORE.INTRA.POLAR>
0

>  <SCORE.INTRA.POLAR.0>
0

>  <SCORE.INTRA.REPUL>
0

>  <SCORE.INTRA.REPUL.0>
0

>  <SCORE.INTRA.SOLV>
0

>  <SCORE.INTRA.SOLV.lig_0>
-4.15853

>  <SCORE.INTRA.VDW>
0

>  <SCORE.INTRA.VDW.0>
0

>  <SCORE.INTRA.norm>
0

>  <SCORE.RESTR>
0

>  <SCORE.RESTR.CAVITY>
0

>  <SCORE.RESTR.norm>
0

>  <SCORE.SYSTEM>
0

>  <SCORE.SYSTEM.CONST>
0

>  <SCORE.SYSTEM.DIHEDRAL>
0

>  <SCORE.SYSTEM.SOLV>
0

>  <SCORE.SYSTEM.norm>
0

>  <SCORE.heavy>
10

>  <SCORE.norm>
-1.07803

>  <RMSD>
26.721

$$$$
ligand
 OpenBabel02271912153D
libRbt.so/2013.1/901 2013/11/27
 10 11  0  0  0  0  0  0  0  0999 V2000
  -13.4337  -10.5069  -10.6662 N   0  0  0  0  0  0  0  0  0  0  0  0
  -12.8671   -9.3242  -10.7694 C   0  0  0  0  0  0  0  0  0  0  0  0
  -13.3772   -8.2602  -10.0213 N   0  0  0  0  0  0  0  0  0  0  0  0
  -14.4228   -8.4402   -9.2178 C   0  0  0  0  0  0  0  0  0  0  0  0
  -14.9907   -9.6276   -9.1182 C   0  0  0  0  0  0  0  0  0  0  0  0
  -14.5298  -10.6474   -9.8184 C   0  0  0  0  0  0  0  0  0  0  0  0
  -15.0760  -11.7370   -9.7167 O   0  0  0  0  0  0  0  0  0  0  0  0
  -16.0019   -9.5501   -8.2550 N   0  0  0  0  0  0  0  0  0  0  0  0
  -16.0475   -8.2975   -7.8153 C   0  0  0  0  0  0  0  0  0  0  0  0
  -15.0707   -7.6117   -8.4145 N   0  0  0  0  0  0  0  0  0  0  0  0
  1  2  1  0  0  0  0
  1  6  1  0  0  0  0
  2  3  2  0  0  0  0
  3  4  1  0  0  0  0
  4  5  2  0  0  0  0
  4 10  1  0  0  0  0
  5  6  1  0  0  0  0
  5  8  1  0  0  0  0
  6  7  2  0  0  0  0
  8  9  1  0  0  0  0
  9 10  2  0  0  0  0
M  END
>  <CHROM.1>
-14.58995815,-9.44558819,-9.38886839,-0.89240906,0.66670548,0.30548958

>  <Name>
ligand

>  <RI>
0

>  <Rbt.Current_Directory>
/home/itssahil/PROJECTS/Mol_Feturizer/Test_systems_manuscript/rnas/5c7w

>  <Rbt.Executable>
rbdock ($Id: //depot/dev/client3/rdock/2013.1/src/exe/rbdock.cxx#4 $)

>  <Rbt.Library>
libRbt.so (2013.1, Build901 2013/11/27)

>  <Rbt.Parameter_File>
/export/apps/rDock/src/rDock_2013.1_src/data/scripts/dock_solv.prm

>  <Rbt.Receptor>
prm/blind_docking_100.prm

>  <SCORE>
-10.5754

>  <SCORE.INTER>
-10.5754

>  <SCORE.INTER.CONST>
1

>  <SCORE.INTER.POLAR>
0

>  <SCORE.INTER.ROT>
0

>  <SCORE.INTER.SOLV>
4.68249

>  <SCORE.INTER.VDW>
-12.2111

>  <SCORE.INTER.norm>
-1.05754

>  <SCORE.INTRA>
0

>  <SCORE.INTRA.DIHEDRAL>
0

>  <SCORE.INTRA.DIHEDRAL.0>
0

>  <SCORE.INTRA.POLAR>
0

>  <SCORE.INTRA.POLAR.0>
0

>  <SCORE.INTRA.REPUL>
0

>  <SCORE.INTRA.REPUL.0>
0

>  <SCORE.INTRA.SOLV>
0

>  <SCORE.INTRA.SOLV.lig_0>
-4.15853

>  <SCORE.INTRA.VDW>
0

>  <SCORE.INTRA.VDW.0>
0

>  <SCORE.INTRA.norm>
0

>  <SCORE.RESTR>
0

>  <SCORE.RESTR.CAVITY>
0

>  <SCORE.RESTR.norm>
0

>  <SCORE.SYSTEM>
0

>  <SCORE.SYSTEM.CONST>
0

>  <SCORE.SYSTEM.DIHEDRAL>
0

>  <SCORE.SYSTEM.SOLV>
0

>  <SCORE.SYSTEM.norm>
0

>  <SCORE.heavy>
10

>  <SCORE.norm>
-1.05754

>  <RMSD>
26.895

$$$$
ligand
 OpenBabel02271912153D
libRbt.so/2013.1/901 2013/11/27
 10 11  0  0  0  0  0  0  0  0999 V2000
  -13.4320  -10.5094  -10.6670 N   0  0  0  0  0  0  0  0  0  0  0  0
  -12.8623   -9.3282  -10.7707 C   0  0  0  0  0  0  0  0  0  0  0  0
  -13.3706   -8.2623  -10.0241 N   0  0  0  0  0  0  0  0  0  0  0  0
  -14.4176   -8.4388   -9.2217 C   0  0  0  0  0  0  0  0  0  0  0  0
  -14.9886   -9.6247   -9.1217 C   0  0  0  0  0  0  0  0  0  0  0  0
  -14.5295  -10.6463   -9.8203 C   0  0  0  0  0  0  0  0  0  0  0  0
  -15.0786  -11.7344   -9.7183 O   0  0  0  0  0  0  0  0  0  0  0  0
  -16.0007   -9.5439   -8.2597 N   0  0  0  0  0  0  0  0  0  0  0  0
  -16.0436   -8.2907   -7.8212 C   0  0  0  0  0  0  0  0  0  0  0  0
  -15.0644   -7.6079   -8.4199 N   0  0  0  0  0  0  0  0  0  0  0  0
  1  2  1  0  0  0  0
  1  6  1  0  0  0  0
  2  3  2  0  0  0  0
  3  4  1  0  0  0  0
  4  5  2  0  0  0  0
  4 10  1  0  0  0  0
  5  6  1  0  0  0  0
  5  8  1  0  0  0  0
  6  7  2  0  0  0  0
  8  9  1  0  0  0  0
  9 10  2  0  0  0  0
M  END
>  <CHROM.1>
-14.58710852,-9.44394329,-9.39201640,-0.89503149,0.66480488,0.30617279

>  <Name>
ligand

>  <RI>
0

>  <Rbt.Current_Directory>
/home/itssahil/PROJECTS/Mol_Feturizer/Test_systems_manuscript/rnas/5c7w

>  <Rbt.Executable>
rbdock ($Id: //depot/dev/client3/rdock/2013.1/src/exe/rbdock.cxx#4 $)

>  <Rbt.Library>
libRbt.so (2013.1, Build901 2013/11/27)

>  <Rbt.Parameter_File>
/export/apps/rDock/src/rDock_2013.1_src/data/scripts/dock_solv.prm

>  <Rbt.Receptor>
prm/blind_docking_80.prm

>  <SCORE>
-10.5758

>  <SCORE.INTER>
-10.5758

>  <SCORE.INTER.CONST>
1

>  <SCORE.INTER.POLAR>
0

>  <SCORE.INTER.ROT>
0

>  <SCORE.INTER.SOLV>
4.6863

>  <SCORE.INTER.VDW>
-12.2127

>  <SCORE.INTER.norm>
-1.05758

>  <SCORE.INTRA>
0

>  <SCORE.INTRA.DIHEDRAL>
0

>  <SCORE.INTRA.DIHEDRAL.0>
0

>  <SCORE.INTRA.POLAR>
0

>  <SCORE.INTRA.POLAR.0>
0

>  <SCORE.INTRA.REPUL>
0

>  <SCORE.INTRA.REPUL.0>
0

>  <SCORE.INTRA.SOLV>
0

>  <SCORE.INTRA.SOLV.lig_0>
-4.15853

>  <SCORE.INTRA.VDW>
0

>  <SCORE.INTRA.VDW.0>
0

>  <SCORE.INTRA.norm>
0

>  <SCORE.RESTR>
0

>  <SCORE.RESTR.CAVITY>
0

>  <SCORE.RESTR.norm>
0

>  <SCORE.SYSTEM>
0

>  <SCORE.SYSTEM.CONST>
0

>  <SCORE.SYSTEM.DIHEDRAL>
0

>  <SCORE.SYSTEM.SOLV>
0

>  <SCORE.SYSTEM.norm>
0

>  <SCORE.heavy>
10

>  <SCORE.norm>
-1.05758

>  <RMSD>
26.896

$$$$
ligand
 OpenBabel02271912153D
libRbt.so/2013.1/901 2013/11/27
 10 11  0  0  0  0  0  0  0  0999 V2000
  -13.9454  -10.5154  -10.7909 N   0  0  0  0  0  0  0  0  0  0  0  0
  -14.8889  -11.3343  -10.3788 C   0  0  0  0  0  0  0  0  0  0  0  0
  -15.7738  -10.9048   -9.3866 N   0  0  0  0  0  0  0  0  0  0  0  0
  -15.6621   -9.6858   -8.8642 C   0  0  0  0  0  0  0  0  0  0  0  0
  -14.7128   -8.8674   -9.2780 C   0  0  0  0  0  0  0  0  0  0  0  0
  -13.8619   -9.2517  -10.2112 C   0  0  0  0  0  0  0  0  0  0  0  0
  -12.9852   -8.4800  -10.5743 O   0  0  0  0  0  0  0  0  0  0  0  0
  -14.8152   -7.7180   -8.6129 N   0  0  0  0  0  0  0  0  0  0  0  0
  -15.8476   -7.8342   -7.7852 C   0  0  0  0  0  0  0  0  0  0  0  0
  -16.3687   -9.0539   -7.9406 N   0  0  0  0  0  0  0  0  0  0  0  0
  1  2  1  0  0  0  0
  1  6  1  0  0  0  0
  2  3  2  0  0  0  0
  3  4  1  0  0  0  0
  4  5  2  0  0  0  0
  4 10  1  0  0  0  0
  5  6  1  0  0  0  0
  5  8  1  0  0  0  0
  6  7  2  0  0  0  0
  8  9  1  0  0  0  0
  9 10  2  0  0  0  0
M  END
>  <CHROM.1>
-14.84928778,-9.34892807,-9.40621044,0.83617404,-0.65790734,-2.67338518

>  <Name>
ligand

>  <RI>
0

>  <Rbt.Current_Directory>
/home/itssahil/PROJECTS/Mol_Feturizer/Test_systems_manuscript/rnas/5c7w

>  <Rbt.Executable>
rbdock ($Id: //depot/dev/client3/rdock/2013.1/src/exe/rbdock.cxx#4 $)

>  <Rbt.Library>
libRbt.so (2013.1, Build901 2013/11/27)

>  <Rbt.Parameter_File>
/export/apps/rDock/src/rDock_2013.1_src/data/scripts/dock_solv.prm

>  <Rbt.Receptor>
prm/blind_docking_40.prm

>  <SCORE>
-4.76729

>  <SCORE.INTER>
-4.76734

>  <SCORE.INTER.CONST>
1

>  <SCORE.INTER.POLAR>
0

>  <SCORE.INTER.ROT>
0

>  <SCORE.INTER.SOLV>
3.91634

>  <SCORE.INTER.VDW>
-8.08367

>  <SCORE.INTER.norm>
-0.476734

>  <SCORE.INTRA>
0

>  <SCORE.INTRA.DIHEDRAL>
0

>  <SCORE.INTRA.DIHEDRAL.0>
0

>  <SCORE.INTRA.POLAR>
0

>  <SCORE.INTRA.POLAR.0>
0

>  <SCORE.INTRA.REPUL>
0

>  <SCORE.INTRA.REPUL.0>
0

>  <SCORE.INTRA.SOLV>
0

>  <SCORE.INTRA.SOLV.lig_0>
-4.15853

>  <SCORE.INTRA.VDW>
0

>  <SCORE.INTRA.VDW.0>
0

>  <SCORE.INTRA.norm>
0

>  <SCORE.RESTR>
5.35309e-05

>  <SCORE.RESTR.CAVITY>
5.35309e-05

>  <SCORE.RESTR.norm>
5.35309e-06

>  <SCORE.SYSTEM>
0

>  <SCORE.SYSTEM.CONST>
0

>  <SCORE.SYSTEM.DIHEDRAL>
0

>  <SCORE.SYSTEM.SOLV>
0

>  <SCORE.SYSTEM.norm>
0

>  <SCORE.heavy>
10

>  <SCORE.norm>
-0.476729

>  <RMSD>
27.060

$$$$
ligand
 OpenBabel02271912153D
libRbt.so/2013.1/901 2013/11/27
 10 11  0  0  0  0  0  0  0  0999 V2000
  -13.9753  -10.5251  -10.8038 N   0  0  0  0  0  0  0  0  0  0  0  0
  -14.9180  -11.3400  -10.3819 C   0  0  0  0  0  0  0  0  0  0  0  0
  -15.7918  -10.9060   -9.3819 N   0  0  0  0  0  0  0  0  0  0  0  0
  -15.6706   -9.6869   -8.8620 C   0  0  0  0  0  0  0  0  0  0  0  0
  -14.7221   -8.8725   -9.2856 C   0  0  0  0  0  0  0  0  0  0  0  0
  -13.8814   -9.2611  -10.2263 C   0  0  0  0  0  0  0  0  0  0  0  0
  -13.0052   -8.4932  -10.5985 O   0  0  0  0  0  0  0  0  0  0  0  0
  -14.8138   -7.7221   -8.6209 N   0  0  0  0  0  0  0  0  0  0  0  0
  -15.8388   -7.8334   -7.7834 C   0  0  0  0  0  0  0  0  0  0  0  0
  -16.3661   -9.0513   -7.9325 N   0  0  0  0  0  0  0  0  0  0  0  0
  1  2  1  0  0  0  0
  1  6  1  0  0  0  0
  2  3  2  0  0  0  0
  3  4  1  0  0  0  0
  4  5  2  0  0  0  0
  4 10  1  0  0  0  0
  5  6  1  0  0  0  0
  5  8  1  0  0  0  0
  6  7  2  0  0  0  0
  8  9  1  0  0  0  0
  9 10  2  0  0  0  0
M  END
>  <CHROM.1>
-14.86158498,-9.35371173,-9.41198071,0.84590978,-0.66452093,-2.66850140

>  <Name>
ligand

>  <RI>
0

>  <Rbt.Current_Directory>
/home/itssahil/PROJECTS/Mol_Feturizer/Test_systems_manuscript/rnas/5c7w

>  <Rbt.Executable>
rbdock ($Id: //depot/dev/client3/rdock/2013.1/src/exe/rbdock.cxx#4 $)

>  <Rbt.Library>
libRbt.so (2013.1, Build901 2013/11/27)

>  <Rbt.Parameter_File>
/export/apps/rDock/src/rDock_2013.1_src/data/scripts/dock_solv.prm

>  <Rbt.Receptor>
prm/blind_docking_80.prm

>  <SCORE>
-4.76734

>  <SCORE.INTER>
-4.76996

>  <SCORE.INTER.CONST>
1

>  <SCORE.INTER.POLAR>
0

>  <SCORE.INTER.ROT>
0

>  <SCORE.INTER.SOLV>
3.9247

>  <SCORE.INTER.VDW>
-8.0882

>  <SCORE.INTER.norm>
-0.476996

>  <SCORE.INTRA>
0

>  <SCORE.INTRA.DIHEDRAL>
0

>  <SCORE.INTRA.DIHEDRAL.0>
0

>  <SCORE.INTRA.POLAR>
0

>  <SCORE.INTRA.POLAR.0>
0

>  <SCORE.INTRA.REPUL>
0

>  <SCORE.INTRA.REPUL.0>
0

>  <SCORE.INTRA.SOLV>
0

>  <SCORE.INTRA.SOLV.lig_0>
-4.15853

>  <SCORE.INTRA.VDW>
0

>  <SCORE.INTRA.VDW.0>
0

>  <SCORE.INTRA.norm>
0

>  <SCORE.RESTR>
0.00261796

>  <SCORE.RESTR.CAVITY>
0.00261796

>  <SCORE.RESTR.norm>
0.000261796

>  <SCORE.SYSTEM>
0

>  <SCORE.SYSTEM.CONST>
0

>  <SCORE.SYSTEM.DIHEDRAL>
0

>  <SCORE.SYSTEM.SOLV>
0

>  <SCORE.SYSTEM.norm>
0

>  <SCORE.heavy>
10

>  <SCORE.norm>
-0.476734

>  <RMSD>
27.071

$$$$
ligand
 OpenBabel02271912153D
libRbt.so/2013.1/901 2013/11/27
 10 11  0  0  0  0  0  0  0  0999 V2000
  -16.0074   -9.6473   -8.3668 N   0  0  0  0  0  0  0  0  0  0  0  0
  -15.7015   -8.4070   -8.0528 C   0  0  0  0  0  0  0  0  0  0  0  0
  -14.6985   -7.7530   -8.7726 N   0  0  0  0  0  0  0  0  0  0  0  0
  -14.0601   -8.3767   -9.7600 C   0  0  0  0  0  0  0  0  0  0  0  0
  -14.3677   -9.6221  -10.0710 C   0  0  0  0  0  0  0  0  0  0  0  0
  -15.3086  -10.2628   -9.4026 C   0  0  0  0  0  0  0  0  0  0  0  0
  -15.5723  -11.4189   -9.7025 O   0  0  0  0  0  0  0  0  0  0  0  0
  -13.6000  -10.0145  -11.0861 N   0  0  0  0  0  0  0  0  0  0  0  0
  -12.8164   -8.9902  -11.4044 C   0  0  0  0  0  0  0  0  0  0  0  0
  -13.1012   -7.9784  -10.5806 N   0  0  0  0  0  0  0  0  0  0  0  0
  1  2  1  0  0  0  0
  1  6  1  0  0  0  0
  2  3  2  0  0  0  0
  3  4  1  0  0  0  0
  4  5  2  0  0  0  0
  4 10  1  0  0  0  0
  5  6  1  0  0  0  0
  5  8  1  0  0  0  0
  6  7  2  0  0  0  0
  8  9  1  0  0  0  0
  9 10  2  0  0  0  0
M  END
>  <CHROM.1>
-14.54468050,-9.28858251,-9.71830356,-3.12871421,-0.75615747,-2.67330406

>  <Name>
ligand

>  <RI>
0

>  <Rbt.Current_Directory>
/home/itssahil/PROJECTS/Mol_Feturizer/Test_systems_manuscript/rnas/5c7w

>  <Rbt.Executable>
rbdock ($Id: //depot/dev/client3/rdock/2013.1/src/exe/rbdock.cxx#4 $)

>  <Rbt.Library>
libRbt.so (2013.1, Build901 2013/11/27)

>  <Rbt.Parameter_File>
/export/apps/rDock/src/rDock_2013.1_src/data/scripts/dock_solv.prm

>  <Rbt.Receptor>
prm/blind_docking_40.prm

>  <SCORE>
-9.63289

>  <SCORE.INTER>
-9.63289

>  <SCORE.INTER.CONST>
1

>  <SCORE.INTER.POLAR>
0

>  <SCORE.INTER.ROT>
0

>  <SCORE.INTER.SOLV>
4.67066

>  <SCORE.INTER.VDW>
-11.5788

>  <SCORE.INTER.norm>
-0.963289

>  <SCORE.INTRA>
0

>  <SCORE.INTRA.DIHEDRAL>
0

>  <SCORE.INTRA.DIHEDRAL.0>
0

>  <SCORE.INTRA.POLAR>
0

>  <SCORE.INTRA.POLAR.0>
0

>  <SCORE.INTRA.REPUL>
0

>  <SCORE.INTRA.REPUL.0>
0

>  <SCORE.INTRA.SOLV>
0

>  <SCORE.INTRA.SOLV.lig_0>
-4.15853

>  <SCORE.INTRA.VDW>
0

>  <SCORE.INTRA.VDW.0>
0

>  <SCORE.INTRA.norm>
0

>  <SCORE.RESTR>
0

>  <SCORE.RESTR.CAVITY>
0

>  <SCORE.RESTR.norm>
0

>  <SCORE.SYSTEM>
0

>  <SCORE.SYSTEM.CONST>
0

>  <SCORE.SYSTEM.DIHEDRAL>
0

>  <SCORE.SYSTEM.SOLV>
0

>  <SCORE.SYSTEM.norm>
0

>  <SCORE.heavy>
10

>  <SCORE.norm>
-0.963289

>  <RMSD>
27.104

$$$$
ligand
 OpenBabel02271912153D
libRbt.so/2013.1/901 2013/11/27
 10 11  0  0  0  0  0  0  0  0999 V2000
  -16.0204   -9.6385   -8.3615 N   0  0  0  0  0  0  0  0  0  0  0  0
  -15.7066   -8.4000   -8.0480 C   0  0  0  0  0  0  0  0  0  0  0  0
  -14.7012   -7.7518   -8.7698 N   0  0  0  0  0  0  0  0  0  0  0  0
  -14.0684   -8.3791   -9.7584 C   0  0  0  0  0  0  0  0  0  0  0  0
  -14.3839   -9.6227  -10.0689 C   0  0  0  0  0  0  0  0  0  0  0  0
  -15.3272  -10.2579   -9.3987 C   0  0  0  0  0  0  0  0  0  0  0  0
  -15.5981  -11.4124   -9.6982 O   0  0  0  0  0  0  0  0  0  0  0  0
  -13.6204  -10.0194  -11.0855 N   0  0  0  0  0  0  0  0  0  0  0  0
  -12.8316   -8.9997  -11.4052 C   0  0  0  0  0  0  0  0  0  0  0  0
  -13.1088   -7.9863  -10.5808 N   0  0  0  0  0  0  0  0  0  0  0  0
  1  2  1  0  0  0  0
  1  6  1  0  0  0  0
  2  3  2  0  0  0  0
  3  4  1  0  0  0  0
  4  5  2  0  0  0  0
  4 10  1  0  0  0  0
  5  6  1  0  0  0  0
  5  8  1  0  0  0  0
  6  7  2  0  0  0  0
  8  9  1  0  0  0  0
  9 10  2  0  0  0  0
M  END
>  <CHROM.1>
-14.55819273,-9.28813492,-9.71582544,-3.12035875,-0.75525493,-2.66749375

>  <Name>
ligand

>  <RI>
0

>  <Rbt.Current_Directory>
/home/itssahil/PROJECTS/Mol_Feturizer/Test_systems_manuscript/rnas/5c7w

>  <Rbt.Executable>
rbdock ($Id: //depot/dev/client3/rdock/2013.1/src/exe/rbdock.cxx#4 $)

>  <Rbt.Library>
libRbt.so (2013.1, Build901 2013/11/27)

>  <Rbt.Parameter_File>
/export/apps/rDock/src/rDock_2013.1_src/data/scripts/dock_solv.prm

>  <Rbt.Receptor>
prm/blind_docking_40.prm

>  <SCORE>
-9.62677

>  <SCORE.INTER>
-9.62698

>  <SCORE.INTER.CONST>
1

>  <SCORE.INTER.POLAR>
0

>  <SCORE.INTER.ROT>
0

>  <SCORE.INTER.SOLV>
4.69265

>  <SCORE.INTER.VDW>
-11.5822

>  <SCORE.INTER.norm>
-0.962698

>  <SCORE.INTRA>
0

>  <SCORE.INTRA.DIHEDRAL>
0

>  <SCORE.INTRA.DIHEDRAL.0>
0

>  <SCORE.INTRA.POLAR>
0

>  <SCORE.INTRA.POLAR.0>
0

>  <SCORE.INTRA.REPUL>
0

>  <SCORE.INTRA.REPUL.0>
0

>  <SCORE.INTRA.SOLV>
0

>  <SCORE.INTRA.SOLV.lig_0>
-4.15853

>  <SCORE.INTRA.VDW>
0

>  <SCORE.INTRA.VDW.0>
0

>  <SCORE.INTRA.norm>
0

>  <SCORE.RESTR>
0.000206852

>  <SCORE.RESTR.CAVITY>
0.000206852

>  <SCORE.RESTR.norm>
2.06852e-05

>  <SCORE.SYSTEM>
0

>  <SCORE.SYSTEM.CONST>
0

>  <SCORE.SYSTEM.DIHEDRAL>
0

>  <SCORE.SYSTEM.SOLV>
0

>  <SCORE.SYSTEM.norm>
0

>  <SCORE.heavy>
10

>  <SCORE.norm>
-0.962677

>  <RMSD>
27.109

$$$$
ligand
 OpenBabel02271912153D
libRbt.so/2013.1/901 2013/11/27
 10 11  0  0  0  0  0  0  0  0999 V2000
  -15.6204   -9.9606   -8.7240 N   0  0  0  0  0  0  0  0  0  0  0  0
  -15.4353  -10.9572   -9.5625 C   0  0  0  0  0  0  0  0  0  0  0  0
  -14.5615  -10.7844  -10.6388 N   0  0  0  0  0  0  0  0  0  0  0  0
  -13.9276   -9.6274  -10.8146 C   0  0  0  0  0  0  0  0  0  0  0  0
  -14.1174   -8.6285   -9.9730 C   0  0  0  0  0  0  0  0  0  0  0  0
  -14.9415   -8.7658   -8.9509 C   0  0  0  0  0  0  0  0  0  0  0  0
  -15.1084   -7.8248   -8.1877 O   0  0  0  0  0  0  0  0  0  0  0  0
  -13.3729   -7.5935  -10.3582 N   0  0  0  0  0  0  0  0  0  0  0  0
  -12.7128   -7.9691  -11.4481 C   0  0  0  0  0  0  0  0  0  0  0  0
  -13.0597   -9.2275  -11.7302 N   0  0  0  0  0  0  0  0  0  0  0  0
  1  2  1  0  0  0  0
  1  6  1  0  0  0  0
  2  3  2  0  0  0  0
  3  4  1  0  0  0  0
  4  5  2  0  0  0  0
  4 10  1  0  0  0  0
  5  6  1  0  0  0  0
  5  8  1  0  0  0  0
  6  7  2  0  0  0  0
  8  9  1  0  0  0  0
  9 10  2  0  0  0  0
M  END
>  <CHROM.1>
-14.30259451,-9.10991504,-10.00249596,3.05634167,0.85647477,0.52701326

>  <Name>
ligand

>  <RI>
0

>  <Rbt.Current_Directory>
/home/itssahil/PROJECTS/Mol_Feturizer/Test_systems_manuscript/rnas/5c7w

>  <Rbt.Executable>
rbdock ($Id: //depot/dev/client3/rdock/2013.1/src/exe/rbdock.cxx#4 $)

>  <Rbt.Library>
libRbt.so (2013.1, Build901 2013/11/27)

>  <Rbt.Parameter_File>
/export/apps/rDock/src/rDock_2013.1_src/data/scripts/dock_solv.prm

>  <Rbt.Receptor>
prm/blind_docking_40.prm

>  <SCORE>
-6.82117

>  <SCORE.INTER>
-7.19649

>  <SCORE.INTER.CONST>
1

>  <SCORE.INTER.POLAR>
0

>  <SCORE.INTER.ROT>
0

>  <SCORE.INTER.SOLV>
4.90228

>  <SCORE.INTER.VDW>
-10.0318

>  <SCORE.INTER.norm>
-0.719649

>  <SCORE.INTRA>
0

>  <SCORE.INTRA.DIHEDRAL>
0

>  <SCORE.INTRA.DIHEDRAL.0>
0

>  <SCORE.INTRA.POLAR>
0

>  <SCORE.INTRA.POLAR.0>
0

>  <SCORE.INTRA.REPUL>
0

>  <SCORE.INTRA.REPUL.0>
0

>  <SCORE.INTRA.SOLV>
0

>  <SCORE.INTRA.SOLV.lig_0>
-4.15853

>  <SCORE.INTRA.VDW>
0

>  <SCORE.INTRA.VDW.0>
0

>  <SCORE.INTRA.norm>
0

>  <SCORE.RESTR>
0.375323

>  <SCORE.RESTR.CAVITY>
0.375323

>  <SCORE.RESTR.norm>
0.0375323

>  <SCORE.SYSTEM>
0

>  <SCORE.SYSTEM.CONST>
0

>  <SCORE.SYSTEM.DIHEDRAL>
0

>  <SCORE.SYSTEM.SOLV>
0

>  <SCORE.SYSTEM.norm>
0

>  <SCORE.heavy>
10

>  <SCORE.norm>
-0.682117

>  <RMSD>
27.158

$$$$
