@<TRIPOS>MOLECULE
5c7w_rdock.pdb
 1428 1595 0 0 0
SMALL
GASTEIGER

@<TRIPOS>ATOM
      1  P          0.9130  -29.2240   25.4080 P.3    15  G15         0.1280
      2  C5'        0.1620  -26.7250   25.9410 C.3    15  G15         0.1795
      3  O5'        0.8520  -27.9150   26.3380 O.3    15  G15        -0.3259
      4  C4'       -0.8680  -26.3610   26.9790 C.3    15  G15         0.1772
      5  O4'       -0.3280  -26.6160   28.3140 O.3    15  G15        -0.3307
      6  C3'       -1.3050  -24.9060   27.0610 C.3    15  G15         0.1860
      7  O3'       -2.1330  -24.4730   25.9870 O.3    15  G15        -0.3112
      8  C2'       -1.8730  -24.8520   28.4740 C.3    15  G15         0.2309
      9  O2'       -3.0510  -25.6390   28.5690 O.3    15  G15        -0.2156
     10  C1'       -0.7720  -25.6040   29.2110 C.3    15  G15         0.2408
     11  N1         1.0590  -21.6000   31.9580 N.ar   15  G15        -0.1709
     12  C2        -0.1320  -22.2500   32.1020 C.ar   15  G15         0.2606
     13  N2        -0.9340  -21.7480   33.0550 N.pl3  15  G15        -0.0859
     14  N3        -0.5000  -23.2890   31.3520 N.ar   15  G15        -0.1918
     15  C4         0.4230  -23.6350   30.4180 C.ar   15  G15         0.1723
     16  C5         1.6470  -23.0370   30.2150 C.ar   15  G15         0.1748
     17  C6         2.0380  -21.9310   31.0280 C.ar   15  G15         0.3023
     18  O6         3.0850  -21.2660   30.9970 O.2    15  G15        -0.2633
     19  N7         2.3210  -23.6500   29.1760 N.ar   15  G15        -0.2173
     20  C8         1.5280  -24.5920   28.7740 C.ar   15  G15         0.1817
     21  N9         0.3520  -24.6660   29.4840 N.ar   15  G15        -0.2693
     22  OP1        1.3840  -28.6560   24.0960 O.3    15  G15        -0.1955
     23  OP2        1.5520  -30.4280   26.0770 O.co2  15  G15        -0.7863
     24  P         -3.4980  -23.6010   26.1160 P.3    16  G16         0.2141
     25  C5'       -4.7420  -22.2840   27.9050 C.3    16  G16         0.1812
     26  O5'       -3.4760  -22.6940   27.4120 O.3    16  G16        -0.3114
     27  C4'       -4.6790  -21.6540   29.2630 C.3    16  G16         0.1773
     28  O4'       -3.4220  -21.9700   29.9080 O.3    16  G16        -0.3307
     29  C3'       -4.7230  -20.1350   29.2360 C.3    16  G16         0.1860
     30  O3'       -6.0400  -19.6530   29.1210 O.3    16  G16        -0.3112
     31  C2'       -4.0190  -19.7370   30.5290 C.3    16  G16         0.2309
     32  O2'       -4.8950  -19.7850   31.6550 O.3    16  G16        -0.2156
     33  C1'       -2.9640  -20.8420   30.6480 C.3    16  G16         0.2408
     34  N1         1.0040  -17.6450   31.0030 N.ar   16  G16        -0.1709
     35  C2        -0.1290  -17.6750   31.7940 C.ar   16  G16         0.2606
     36  N2        -0.2080  -16.7400   32.7660 N.pl3  16  G16        -0.0859
     37  N3        -1.1060  -18.5740   31.6200 N.ar   16  G16        -0.1918
     38  C4        -0.8490  -19.4000   30.5830 C.ar   16  G16         0.1723
     39  C5         0.2480  -19.4310   29.7620 C.ar   16  G16         0.1748
     40  C6         1.2790  -18.5190   29.9470 C.ar   16  G16         0.3023
     41  O6         2.3080  -18.4610   29.2770 O.2    16  G16        -0.2633
     42  N7         0.1700  -20.4190   28.8110 N.ar   16  G16        -0.2173
     43  C8        -0.9740  -20.9900   29.0570 C.ar   16  G16         0.1817
     44  N9        -1.6510  -20.4100   30.1140 N.ar   16  G16        -0.2693
     45  OP1       -4.5780  -24.5900   26.3700 O.3    16  G16        -0.4373
     46  OP2       -3.5450  -22.5930   25.0340 O.co2  16  G16        -0.5172
     47  P         -6.5760  -19.0920   27.7230 P.3    17  A17         0.2141
     48  C5'       -7.2370  -17.3480   29.5190 C.3    17  A17         0.1812
     49  O5'       -6.9790  -17.6200   28.1490 O.3    17  A17        -0.3114
     50  C4'       -6.3420  -16.2590   30.0500 C.3    17  A17         0.1773
     51  O4'       -5.0350  -16.7810   30.3740 O.3    17  A17        -0.3307
     52  C3'       -6.0310  -15.1210   29.1020 C.3    17  A17         0.1860
     53  O3'       -7.0900  -14.2020   28.9690 O.3    17  A17        -0.3112
     54  C2'       -4.7650  -14.5100   29.7040 C.3    17  A17         0.2309
     55  O2'       -5.0690  -13.6250   30.7700 O.3    17  A17        -0.2156
     56  C1'       -4.0810  -15.7330   30.2990 C.3    17  A17         0.2408
     57  N1         0.6560  -14.3010   28.9920 N.ar   17  A17        -0.2040
     58  C2        -0.3160  -13.7390   29.7140 C.ar   17  A17         0.2016
     59  N3        -1.5430  -14.1800   29.9930 N.ar   17  A17        -0.2048
     60  C4        -1.7480  -15.3830   29.4460 C.ar   17  A17         0.1692
     61  C5        -0.8510  -16.1120   28.6750 C.ar   17  A17         0.1518
     62  C6         0.4210  -15.5150   28.4520 C.ar   17  A17         0.1919
     63  N6         1.4100  -16.0610   27.7350 N.pl3  17  A17        -0.1054
     64  N7        -1.4350  -17.3380   28.2860 N.ar   17  A17        -0.2193
     65  C8        -2.6400  -17.3050   28.8210 C.ar   17  A17         0.1816
     66  N9        -2.8910  -16.1450   29.5320 N.ar   17  A17        -0.2693
     67  OP1       -7.7920  -19.8770   27.4430 O.3    17  A17        -0.4373
     68  OP2       -5.5470  -19.0300   26.6540 O.co2  17  A17        -0.5172
     69  P1        -7.1820  -13.3430   27.6250 P.3    18  50N18       0.2141
     70  C1        -0.3640  -11.2670   27.5720 C.2    18  50N18       0.3585
     71  N1         0.3070  -11.9970   26.6740 N.am   18  50N18       0.0358
     72  O1         0.2010  -10.1590   28.1540 O.2    18  50N18      -0.2424
     73  C2        -0.2650  -13.0690   26.0910 C.2    18  50N18       0.4311
     74  N2         0.4030  -13.7980   25.1980 N.pl3  18  50N18       0.2160
     75  C3        -1.5650  -13.4680   26.3990 C.2    18  50N18       0.2273
     76  N3        -2.0320  -14.5810   25.8000 N.pl3  18  50N18       0.0649
     77  C4        -2.2960  -12.7360   27.3330 C.2    18  50N18       0.0195
     78  O4        -5.9600  -12.2990   27.7430 O.3    18  50N18      -0.3114
     79  C5        -5.9750  -11.2890   28.7430 C.3    18  50N18       0.1811
     80  O5        -3.5640  -11.3990   29.2560 O.3    18  50N18      -0.3499
     81  C6        -4.6670  -10.5330   28.8830 C.3    18  50N18       0.1751
     82  O6        -4.8680   -8.5740   27.4040 O.3    18  50N18      -0.3113
     83  C7        -4.1440   -9.7690   27.6690 C.3    18  50N18       0.1838
     84  O7        -2.5320   -8.4030   28.8810 O.3    18  50N18      -0.2178
     85  C8        -2.6790   -9.5300   28.0360 C.3    18  50N18       0.2095
     86  O8        -1.2600  -15.2610   24.7400 O.2    18  50N18      -0.1259
     87  C9        -2.3420  -10.8150   28.8270 C.3    18  50N18       0.1632
     88  O9        -3.2090  -15.2050   26.3160 O.2    18  50N18      -0.1259
     89  C10       -1.6760  -11.6240   27.9230 C.3    18  50N18       0.1591
     90  OP1       -7.0090  -14.3360   26.5270 O.co2  18  50N18      -0.5172
     91  OP2       -8.4550  -12.5980   27.6800 O.3    18  50N18      -0.4373
     92  P         -4.6870   -7.7600   26.0290 P.3    19  A19         0.2141
     93  C5'       -2.7380   -6.0300   26.3880 C.3    19  A19         0.1812
     94  O5'       -3.1490   -7.3450   26.0320 O.3    19  A19        -0.3114
     95  C4'       -1.2450   -5.8690   26.2710 C.3    19  A19         0.1773
     96  O4'       -0.5820   -7.1110   26.6520 O.3    19  A19        -0.3307
     97  C3'       -0.7070   -5.5890   24.8790 C.3    19  A19         0.1860
     98  O3'       -0.8690   -4.2410   24.4760 O.3    19  A19        -0.3112
     99  C2'        0.7430   -6.0200   25.0090 C.3    19  A19         0.2309
    100  O2'        1.4980   -5.0450   25.6990 O.3    19  A19        -0.2156
    101  C1'        0.6080   -7.2540   25.9010 C.3    19  A19         0.2408
    102  N1         3.3420  -10.3510   22.9750 N.ar   19  A19        -0.2040
    103  C2         3.6570   -9.2570   23.6830 C.ar   19  A19         0.2016
    104  N3         2.8540   -8.5100   24.4300 N.ar   19  A19        -0.2048
    105  C4         1.5920   -8.9870   24.4000 C.ar   19  A19         0.1692
    106  C5         1.1070  -10.0920   23.7240 C.ar   19  A19         0.1518
    107  C6         2.0570  -10.8280   22.9590 C.ar   19  A19         0.1919
    108  N6         1.7780  -11.9480   22.2360 N.pl3  19  A19        -0.1054
    109  N7        -0.2620  -10.2500   23.9650 N.ar   19  A19        -0.2193
    110  C8        -0.5670   -9.2520   24.7600 C.ar   19  A19         0.1816
    111  N9         0.5170   -8.4670   25.0710 N.ar   19  A19        -0.2693
    112  OP1       -5.5250   -6.5400   26.1240 O.3    19  A19        -0.4373
    113  OP2       -4.8970   -8.6670   24.8750 O.co2  19  A19        -0.5172
    114  P         -0.9270   -3.8140   22.9110 P.3    20  U20         0.2141
    115  C5'        1.7120   -3.6900   22.6630 C.3    20  U20         0.1812
    116  O5'        0.4740   -4.2960   22.2890 O.3    20  U20        -0.3114
    117  C4'        2.9010   -4.2300   21.8910 C.3    20  U20         0.1773
    118  O4'        3.1290   -5.6310   22.2020 O.3    20  U20        -0.3307
    119  C3'        2.7880   -4.1900   20.3730 C.3    20  U20         0.1860
    120  O3'        3.0910   -2.9080   19.8400 O.3    20  U20        -0.3112
    121  C2'        3.7410   -5.3030   19.9180 C.3    20  U20         0.2309
    122  O2'        5.0940   -4.8730   19.8250 O.3    20  U20        -0.2156
    123  C1'        3.6080   -6.3160   21.0550 C.3    20  U20         0.2420
    124  N1         2.6500   -7.3870   20.6940 N.ar   20  U20        -0.2534
    125  C2         3.0320   -8.3110   19.7300 C.ar   20  U20         0.3546
    126  O2         4.1190   -8.3170   19.1570 O.2    20  U20        -0.2443
    127  N3         2.0690   -9.2460   19.4780 N.ar   20  U20        -0.1530
    128  C4         0.8170   -9.3500   20.0500 C.ar   20  U20         0.2846
    129  O4         0.0660  -10.2550   19.6980 O.2    20  U20        -0.2650
    130  C5         0.5050   -8.3630   21.0270 C.ar   20  U20         0.0814
    131  C6         1.4160   -7.4370   21.3060 C.ar   20  U20         0.0870
    132  OP1       -0.9350   -2.3210   22.9510 O.3    20  U20        -0.4373
    133  OP2       -2.0260   -4.5330   22.1750 O.co2  20  U20        -0.5172
    134  P          2.3450   -2.3580   18.5180 P.3    21  A21         0.2141
    135  C5'        3.8910   -3.6950   16.8840 C.3    21  A21         0.1812
    136  O5'        2.5880   -3.5020   17.4090 O.3    21  A21        -0.3114
    137  C4'        4.0670   -4.9950   16.1440 C.3    21  A21         0.1773
    138  O4'        3.6790   -6.1330   16.9350 O.3    21  A21        -0.3307
    139  C3'        3.2830   -5.2060   14.8730 C.3    21  A21         0.1860
    140  O3'        3.6980   -4.3670   13.8070 O.3    21  A21        -0.3112
    141  C2'        3.5220   -6.6880   14.6320 C.3    21  A21         0.2309
    142  O2'        4.8570   -6.8810   14.1950 O.3    21  A21        -0.2156
    143  C1'        3.4570   -7.2210   16.0610 C.3    21  A21         0.2408
    144  N1         1.3570  -11.7830   15.9830 N.ar   21  A21        -0.2040
    145  C2         2.5310  -11.2830   15.5610 C.ar   21  A21         0.2016
    146  N3         3.0010  -10.0380   15.6080 N.ar   21  A21        -0.2048
    147  C4         2.0710   -9.2590   16.1900 C.ar   21  A21         0.1692
    148  C5         0.8030   -9.6110   16.6770 C.ar   21  A21         0.1518
    149  C6         0.4390  -10.9760   16.5550 C.ar   21  A21         0.1919
    150  N6        -0.7160  -11.5310   16.9450 N.pl3  21  A21        -0.1054
    151  N7         0.1610   -8.4760   17.1950 N.ar   21  A21        -0.2193
    152  C8         1.0450   -7.5010   17.0260 C.ar   21  A21         0.1816
    153  N9         2.2070   -7.9150   16.4050 N.ar   21  A21        -0.2693
    154  OP1        3.0730   -1.0710   18.2200 O.2    21  A21        -0.5172
    155  OP2        0.8570   -2.4280   18.6800 O.co2  21  A21        -0.4373
    156  P          2.7470   -3.1550   13.3170 P.3    22  U22         0.2141
    157  C5'        0.1850   -3.3530   13.0030 C.3    22  U22         0.1812
    158  O5'        1.4680   -3.8840   12.7350 O.3    22  U22        -0.3114
    159  C4'       -0.8630   -4.3970   12.8070 C.3    22  U22         0.1773
    160  O4'       -0.6290   -5.0690   11.5400 O.3    22  U22        -0.3307
    161  C3'       -0.8840   -5.4790   13.8680 C.3    22  U22         0.1860
    162  O3'       -2.2390   -5.8660   14.0500 O.3    22  U22        -0.3112
    163  C2'       -0.0750   -6.6170   13.2210 C.3    22  U22         0.2309
    164  O2'       -0.3980   -7.9160   13.6830 O.3    22  U22        -0.2156
    165  C1'       -0.4410   -6.4580   11.7510 C.3    22  U22         0.2420
    166  N1         0.5580   -6.9440   10.7740 N.ar   22  U22        -0.2534
    167  C2         0.1560   -8.0060    9.9680 C.ar   22  U22         0.3546
    168  O2        -0.9330   -8.5470   10.1010 O.2    22  U22        -0.2443
    169  N3         1.0520   -8.4440    9.0170 N.ar   22  U22        -0.1530
    170  C4         2.2990   -7.9160    8.7800 C.ar   22  U22         0.2846
    171  O4         3.0020   -8.4140    7.8880 O.2    22  U22        -0.2650
    172  C5         2.6340   -6.8130    9.6490 C.ar   22  U22         0.0814
    173  C6         1.7890   -6.3630   10.5900 C.ar   22  U22         0.0870
    174  OP1        3.4130   -2.4820   12.1700 O.2    22  U22        -0.5172
    175  OP2        2.2120   -2.4170   14.5000 O.co2  22  U22        -0.4373
    176  P         -3.1970   -5.0050   15.0010 P.3    23  A23         0.2141
    177  C5'       -4.7360   -5.3610   12.8780 C.3    23  A23         0.1812
    178  O5'       -4.4270   -4.6290   14.0540 O.3    23  A23        -0.3114
    179  C4'       -5.2980   -4.4570   11.8050 C.3    23  A23         0.1773
    180  O4'       -4.2590   -3.5560   11.3440 O.3    23  A23        -0.3307
    181  C3'       -5.7810   -5.1470   10.5380 C.3    23  A23         0.1860
    182  O3'       -7.1020   -5.6460   10.6530 O.3    23  A23        -0.3112
    183  C2'       -5.6160   -4.0750    9.4450 C.3    23  A23         0.2309
    184  O2'       -6.7500   -3.2270    9.3440 O.3    23  A23        -0.2156
    185  C1'       -4.4410   -3.2450    9.9720 C.3    23  A23         0.2408
    186  N1        -1.2500   -6.5050    7.4520 N.ar   23  A23        -0.2040
    187  C2        -2.4040   -6.7190    8.0900 C.ar   23  A23         0.2016
    188  N3        -3.1720   -5.8490    8.7240 N.ar   23  A23        -0.2048
    189  C4        -2.6560   -4.6100    8.6680 C.ar   23  A23         0.1692
    190  C5        -1.4670   -4.2390    8.0530 C.ar   23  A23         0.1518
    191  C6        -0.7380   -5.2560    7.4200 C.ar   23  A23         0.1919
    192  N6         0.4230   -5.0610    6.7870 N.pl3  23  A23        -0.1054
    193  N7        -1.2200   -2.8760    8.1960 N.ar   23  A23        -0.2193
    194  C8        -2.2630   -2.4610    8.8820 C.ar   23  A23         0.1816
    195  N9        -3.1800   -3.4480    9.2080 N.ar   23  A23        -0.2693
    196  OP1       -2.4040   -3.8120   15.4210 O.2    23  A23        -0.5172
    197  OP2       -3.7290   -5.8190   16.1140 O.co2  23  A23        -0.4373
    198  P         -7.3830   -7.2280   10.6470 P.3    24  A24         0.2141
    199  C5'       -5.7020   -7.9120    8.7080 C.3    24  A24         0.1812
    200  O5'       -7.0390   -7.6910    9.1540 O.3    24  A24        -0.3114
    201  C4'       -5.4700   -9.3400    8.2800 C.3    24  A24         0.1773
    202  O4'       -5.3510  -10.1900    9.4520 O.3    24  A24        -0.3307
    203  C3'       -6.5730  -10.0020    7.4670 C.3    24  A24         0.1860
    204  O3'       -6.5920   -9.6220    6.1010 O.3    24  A24        -0.3112
    205  C2'       -6.2900  -11.4780    7.6860 C.3    24  A24         0.2309
    206  O2'       -5.2040  -11.8980    6.8680 O.3    24  A24        -0.2156
    207  C1'       -5.8340  -11.4830    9.1540 C.3    24  A24         0.2408
    208  N1        -9.1910  -15.1360   11.0220 N.ar   24  A24        -0.2040
    209  C2        -8.2360  -15.2000   10.0760 C.ar   24  A24         0.2016
    210  N3        -7.3980  -14.2520    9.6360 N.ar   24  A24        -0.2048
    211  C4        -7.5840  -13.0490   10.2710 C.ar   24  A24         0.1692
    212  C5        -8.5350  -12.8200   11.2720 C.ar   24  A24         0.1518
    213  C6        -9.3750  -13.9390   11.6460 C.ar   24  A24         0.1919
    214  N6       -10.3290  -13.8790   12.5890 N.pl3  24  A24        -0.1054
    215  N7        -8.4460  -11.4710   11.6990 N.ar   24  A24        -0.2193
    216  C8        -7.5000  -10.9270   10.9720 C.ar   24  A24         0.1816
    217  N9        -6.9310  -11.8110   10.0910 N.ar   24  A24        -0.2693
    218  OP1       -8.8470   -7.4520   10.8340 O.2    24  A24        -0.5172
    219  OP2       -6.4500   -7.8540   11.6130 O.co2  24  A24        -0.4373
    220  P         -7.8200   -8.7540    5.5340 P.3    25  U25         0.2141
    221  C5'       -7.2920   -6.2780    6.0730 C.3    25  U25         0.1812
    222  O5'       -7.1670   -7.3570    5.1650 O.3    25  U25        -0.3114
    223  C4'       -6.2030   -5.2650    5.8780 C.3    25  U25         0.1773
    224  O4'       -4.9320   -5.8420    6.2540 O.3    25  U25        -0.3307
    225  C3'       -5.9850   -4.8010    4.4490 C.3    25  U25         0.1860
    226  O3'       -6.8990   -3.7890    4.0680 O.3    25  U25        -0.3112
    227  C2'       -4.5500   -4.3210    4.4970 C.3    25  U25         0.2309
    228  O2'       -4.4650   -3.0890    5.1990 O.3    25  U25        -0.2156
    229  C1'       -3.9260   -5.3740    5.3890 C.3    25  U25         0.2420
    230  N1        -3.3890   -6.5100    4.6140 N.ar   25  U25        -0.2534
    231  C2        -2.1520   -6.3000    4.0650 C.ar   25  U25         0.3546
    232  O2        -1.5520   -5.2450    4.1900 O.2    25  U25        -0.2443
    233  N3        -1.6460   -7.3570    3.3680 N.ar   25  U25        -0.1530
    234  C4        -2.2440   -8.5750    3.1820 C.ar   25  U25         0.2846
    235  O4        -1.6420   -9.4130    2.5200 O.2    25  U25        -0.2650
    236  C5        -3.5290   -8.7280    3.7840 C.ar   25  U25         0.0814
    237  C6        -4.0440   -7.7050    4.4690 C.ar   25  U25         0.0870
    238  OP1       -8.7180   -8.3650    6.6520 O.3    25  U25        -0.4373
    239  OP2       -8.3720   -9.4300    4.3410 O.co2  25  U25        -0.5172
    240  P         -7.4970   -3.7140    2.5810 P.3    26  C26         0.2141
    241  C5'       -5.5470   -2.2600    1.6940 C.3    26  C26         0.1812
    242  O5'       -6.2200   -3.4980    1.6480 O.3    26  C26        -0.3114
    243  C4'       -4.1730   -2.3230    1.1020 C.3    26  C26         0.1773
    244  O4'       -3.3970   -3.3800    1.7090 O.3    26  C26        -0.3307
    245  C3'       -4.0790   -2.6360   -0.3690 C.3    26  C26         0.1860
    246  O3'       -4.4490   -1.5650   -1.1950 O.3    26  C26        -0.3112
    247  C2'       -2.6200   -3.0300   -0.5040 C.3    26  C26         0.2309
    248  O2'       -1.7750   -1.8840   -0.4630 O.3    26  C26        -0.2156
    249  C1'       -2.4350   -3.8440    0.7820 C.3    26  C26         0.2420
    250  N1        -2.6790   -5.2740    0.5180 N.ar   26  C26        -0.2535
    251  C2        -1.6750   -5.9620   -0.1650 C.ar   26  C26         0.3532
    252  O2        -0.6430   -5.3610   -0.4820 O.2    26  C26        -0.2443
    253  N3        -1.8220   -7.2690   -0.4750 N.ar   26  C26        -0.1739
    254  C4        -2.9470   -7.9120   -0.1370 C.ar   26  C26         0.1759
    255  N4        -3.0380   -9.2180   -0.4820 N.pl3  26  C26        -0.1070
    256  C5        -4.0000   -7.2110    0.5660 C.ar   26  C26         0.0566
    257  C6        -3.8360   -5.9040    0.8660 C.ar   26  C26         0.0850
    258  OP1       -8.3180   -2.4600    2.6540 O.3    26  C26        -0.4373
    259  OP2       -8.1220   -5.0130    2.1750 O.co2  26  C26        -0.5172
    260  P         -5.2700   -1.8790   -2.5210 P.3    27  G27         0.2141
    261  C5'       -3.5700   -0.7380   -4.1630 C.3    27  G27         0.1812
    262  O5'       -4.1430   -1.9380   -3.6540 O.3    27  G27        -0.3114
    263  C4'       -2.2990   -0.9810   -4.9470 C.3    27  G27         0.1773
    264  O4'       -1.3460   -1.7440   -4.1570 O.3    27  G27        -0.3307
    265  C3'       -2.4410   -1.7900   -6.2190 C.3    27  G27         0.1860
    266  O3'       -2.9540   -1.0590   -7.3190 O.3    27  G27        -0.3112
    267  C2'       -1.0300   -2.3500   -6.4450 C.3    27  G27         0.2309
    268  O2'       -0.1880   -1.4840   -7.2020 O.3    27  G27        -0.2156
    269  C1'       -0.5160   -2.5090   -5.0080 C.3    27  G27         0.2408
    270  N1         0.8770   -7.2540   -6.0080 N.ar   27  G27        -0.1709
    271  C2         1.3060   -6.0880   -6.6000 C.ar   27  G27         0.2606
    272  N2         2.2130   -6.2570   -7.5870 N.pl3  27  G27        -0.0859
    273  N3         0.8680   -4.8800   -6.2430 N.ar   27  G27        -0.1918
    274  C4        -0.0300   -4.9520   -5.2340 C.ar   27  G27         0.1723
    275  C5        -0.5190   -6.0650   -4.5780 C.ar   27  G27         0.1748
    276  C6        -0.0500   -7.3490   -4.9750 C.ar   27  G27         0.3023
    277  O6        -0.3500   -8.4620   -4.5310 O.2    27  G27        -0.2633
    278  N7        -1.4440   -5.6920   -3.5950 N.ar   27  G27        -0.2173
    279  C8        -1.5070   -4.3860   -3.6650 C.ar   27  G27         0.1817
    280  N9        -0.6570   -3.9010   -4.6200 N.ar   27  G27        -0.2693
    281  OP1       -6.1840   -0.7520   -2.7560 O.2    27  G27        -0.5172
    282  OP2       -5.9030   -3.2020   -2.3360 O.co2  27  G27        -0.4373
    283  P         -3.1860   -1.8420   -8.7110 P.3    28  C28         0.2141
    284  C5'       -1.6340   -1.9770  -10.7860 C.3    28  C28         0.1812
    285  O5'       -1.7440   -1.8500   -9.3880 O.3    28  C28        -0.3114
    286  C4'       -0.6450   -3.0380  -11.1360 C.3    28  C28         0.1773
    287  O4'       -0.2170   -3.7270   -9.9380 O.3    28  C28        -0.3307
    288  C3'       -1.1740   -4.1490  -12.0140 C.3    28  C28         0.1860
    289  O3'       -1.2590   -3.7770  -13.3740 O.3    28  C28        -0.3112
    290  C2'       -0.1910   -5.2800  -11.7450 C.3    28  C28         0.2309
    291  O2'        1.0070   -5.0970  -12.4920 O.3    28  C28        -0.2156
    292  C1'        0.1180   -5.0650  -10.2620 C.3    28  C28         0.2420
    293  N1        -0.6240   -5.9890   -9.3770 N.ar   28  C28        -0.2535
    294  C2        -0.3460   -7.3670   -9.4090 C.ar   28  C28         0.3532
    295  O2         0.4910   -7.8220  -10.2060 O.2    28  C28        -0.2443
    296  N3        -1.0240   -8.1940   -8.5710 N.ar   28  C28        -0.1739
    297  C4        -1.9230   -7.6970   -7.7120 C.ar   28  C28         0.1759
    298  N4        -2.5550   -8.5520   -6.9010 N.pl3  28  C28        -0.1070
    299  C5        -2.2120   -6.3010   -7.6510 C.ar   28  C28         0.0566
    300  C6        -1.5400   -5.4970   -8.4860 C.ar   28  C28         0.0850
    301  OP1       -4.1870   -1.1340   -9.5470 O.2    28  C28        -0.5172
    302  OP2       -3.5610   -3.2390   -8.3800 O.co2  28  C28        -0.4373
    303  P         -2.4130   -4.4130  -14.2920 P.3    29  G29         0.2141
    304  C5'       -0.6130   -6.0890  -15.1290 C.3    29  G29         0.1812
    305  O5'       -1.8940   -5.8840  -14.5820 O.3    29  G29        -0.3114
    306  C4'       -0.2540   -7.5390  -15.0630 C.3    29  G29         0.1773
    307  O4'       -0.0420   -7.9440  -13.6920 O.3    29  G29        -0.3307
    308  C3'       -1.3130   -8.4970  -15.5510 C.3    29  G29         0.1860
    309  O3'       -1.3670   -8.5550  -16.9630 O.3    29  G29        -0.3112
    310  C2'       -0.8880   -9.8060  -14.9020 C.3    29  G29         0.2309
    311  O2'        0.1650  -10.4010  -15.6490 O.3    29  G29        -0.2156
    312  C1'       -0.3160   -9.3190  -13.5650 C.3    29  G29         0.2408
    313  N1        -2.5300  -12.7650  -10.5430 N.ar   29  G29        -0.1709
    314  C2        -1.6470  -12.9410  -11.5790 C.ar   29  G29         0.2606
    315  N2        -1.3080  -14.2030  -11.8410 N.pl3  29  G29        -0.0859
    316  N3        -1.1320  -11.9560  -12.3010 N.ar   29  G29        -0.1918
    317  C4        -1.5800  -10.7420  -11.8980 C.ar   29  G29         0.1723
    318  C5        -2.4650  -10.4520  -10.8750 C.ar   29  G29         0.1748
    319  C6        -3.0050  -11.5240  -10.1210 C.ar   29  G29         0.3023
    320  O6        -3.7910  -11.4640   -9.1770 O.2    29  G29        -0.2633
    321  N7        -2.6760   -9.0880  -10.7740 N.ar   29  G29        -0.2173
    322  C8        -1.9300   -8.5810  -11.7240 C.ar   29  G29         0.1817
    323  N9        -1.2390   -9.5260  -12.4410 N.ar   29  G29        -0.2693
    324  OP1       -2.4200   -3.7140  -15.6160 O.2    29  G29        -0.5172
    325  OP2       -3.6270   -4.5320  -13.4220 O.co2  29  G29        -0.4373
    326  P         -2.7910   -8.5400  -17.6920 P.3    30  U30         0.2141
    327  C5'       -1.9880  -10.9900  -18.0900 C.3    30  U30         0.1812
    328  O5'       -3.0630  -10.0740  -18.0010 O.3    30  U30        -0.3114
    329  C4'       -2.3930  -12.3620  -17.6220 C.3    30  U30         0.1773
    330  O4'       -2.1870  -12.4970  -16.1900 O.3    30  U30        -0.3307
    331  C3'       -3.8520  -12.7360  -17.7980 C.3    30  U30         0.1860
    332  O3'       -4.2210  -13.0480  -19.1320 O.3    30  U30        -0.3112
    333  C2'       -3.9970  -13.8990  -16.8280 C.3    30  U30         0.2309
    334  O2'       -3.4480  -15.0880  -17.3730 O.3    30  U30        -0.2156
    335  C1'       -3.1100  -13.4410  -15.6700 C.3    30  U30         0.2420
    336  N1        -3.9260  -12.8490  -14.5760 N.ar   30  U30        -0.2534
    337  C2        -4.3240  -13.7200  -13.5570 C.ar   30  U30         0.3546
    338  O2        -4.0250  -14.9020  -13.4890 O.2    30  U30        -0.2443
    339  N3        -5.0930  -13.1720  -12.5650 N.ar   30  U30        -0.1530
    340  C4        -5.5220  -11.8710  -12.4740 C.ar   30  U30         0.2846
    341  O4        -6.2140  -11.5710  -11.4990 O.2    30  U30        -0.2650
    342  C5        -5.0900  -11.0290  -13.5630 C.ar   30  U30         0.0814
    343  C6        -4.3350  -11.5300  -14.5570 C.ar   30  U30         0.0870
    344  OP1       -2.7240   -7.8190  -18.9860 O.2    30  U30        -0.5172
    345  OP2       -3.7500   -8.1080  -16.6400 O.co2  30  U30        -0.4373
    346  P         -5.6730  -12.6130  -19.6890 P.3    31  G31         0.2141
    347  C5'       -6.8870  -14.9240  -19.5300 C.3    31  G31         0.1812
    348  O5'       -6.6700  -13.6430  -18.9910 O.3    31  G31        -0.3114
    349  C4'       -7.0450  -15.9670  -18.4490 C.3    31  G31         0.1773
    350  O4'       -6.2600  -15.6420  -17.2690 O.3    31  G31        -0.3307
    351  C3'       -8.4410  -16.1850  -17.8810 C.3    31  G31         0.1860
    352  O3'       -9.3250  -16.8680  -18.7530 O.3    31  G31        -0.3112
    353  C2'       -8.1250  -16.9470  -16.6070 C.3    31  G31         0.2309
    354  O2'       -7.7000  -18.2720  -16.9110 O.3    31  G31        -0.2156
    355  C1'       -6.9140  -16.1580  -16.1150 C.3    31  G31         0.2408
    356  N1        -9.4710  -14.8120  -11.9560 N.ar   31  G31        -0.1709
    357  C2        -9.2670  -16.0370  -12.4870 C.ar   31  G31         0.2606
    358  N2        -9.8240  -17.0690  -11.8480 N.pl3  31  G31        -0.0859
    359  N3        -8.5800  -16.2460  -13.5710 N.ar   31  G31        -0.1918
    360  C4        -8.1100  -15.1250  -14.1070 C.ar   31  G31         0.1723
    361  C5        -8.2640  -13.8490  -13.6500 C.ar   31  G31         0.1748
    362  C6        -9.0090  -13.6250  -12.4730 C.ar   31  G31         0.3023
    363  O6        -9.2760  -12.5670  -11.8890 O.2    31  G31        -0.2633
    364  N7        -7.6120  -12.9580  -14.4860 N.ar   31  G31        -0.2173
    365  C8        -7.0830  -13.7020  -15.4150 C.ar   31  G31         0.1817
    366  N9        -7.3450  -15.0370  -15.2480 N.ar   31  G31        -0.2693
    367  OP1       -5.6830  -12.8290  -21.1650 O.2    31  G31        -0.5172
    368  OP2       -5.9990  -11.2450  -19.1760 O.co2  31  G31        -0.4373
    369  P        -10.7110  -16.1760  -19.1870 P.3    32  G32         0.2141
    370  C5'      -11.3380  -18.1630  -17.6460 C.3    32  G32         0.1812
    371  O5'      -11.7750  -17.0240  -18.3580 O.3    32  G32        -0.3114
    372  C4'      -11.9450  -18.2420  -16.2740 C.3    32  G32         0.1773
    373  O4'      -11.1950  -17.4520  -15.3230 O.3    32  G32        -0.3307
    374  C3'      -13.3520  -17.7190  -16.1260 C.3    32  G32         0.1860
    375  O3'      -14.3100  -18.6110  -16.6460 O.3    32  G32        -0.3112
    376  C2'      -13.4590  -17.5380  -14.6250 C.3    32  G32         0.2309
    377  O2'      -13.6340  -18.8100  -14.0230 O.3    32  G32        -0.2156
    378  C1'      -12.0550  -17.0250  -14.2860 C.3    32  G32         0.2408
    379  N1       -13.5960  -12.8460  -11.8640 N.ar   32  G32        -0.1709
    380  C2       -13.8880  -14.1430  -11.5700 C.ar   32  G32         0.2606
    381  N2       -14.6930  -14.3610  -10.5170 N.pl3  32  G32        -0.0859
    382  N3       -13.4220  -15.1530  -12.2840 N.ar   32  G32        -0.1918
    383  C4       -12.6410  -14.7430  -13.3080 C.ar   32  G32         0.1723
    384  C5       -12.2970  -13.4720  -13.6560 C.ar   32  G32         0.1748
    385  C6       -12.8000  -12.4140  -12.9040 C.ar   32  G32         0.3023
    386  O6       -12.6320  -11.2080  -13.0660 O.2    32  G32        -0.2633
    387  N7       -11.4680  -13.4610  -14.7520 N.ar   32  G32        -0.2173
    388  C8       -11.3170  -14.7150  -15.0540 C.ar   32  G32         0.1817
    389  N9       -12.0070  -15.5520  -14.2160 N.ar   32  G32        -0.2693
    390  OP1      -10.9320  -16.4070  -20.6550 O.2    32  G32        -0.5172
    391  OP2      -10.6750  -14.7630  -18.6710 O.co2  32  G32        -0.4373
    392  P        -15.5860  -18.0280  -17.4160 P.3    33  A33         0.2141
    393  C5'      -16.6710  -18.7070  -15.1350 C.3    33  A33         0.1812
    394  O5'      -16.6100  -17.7870  -16.2180 O.3    33  A33        -0.3114
    395  C4'      -17.4510  -18.1600  -13.9630 C.3    33  A33         0.1773
    396  O4'      -16.6240  -17.2830  -13.1520 O.3    33  A33        -0.3307
    397  C3'      -18.6610  -17.3050  -14.2920 C.3    33  A33         0.1860
    398  O3'      -19.7930  -18.0510  -14.7310 O.3    33  A33        -0.3112
    399  C2'      -18.8850  -16.5590  -12.9870 C.3    33  A33         0.2309
    400  O2'      -19.5490  -17.3990  -12.0490 O.3    33  A33        -0.2156
    401  C1'      -17.4420  -16.3280  -12.5120 C.3    33  A33         0.2408
    402  N1       -17.5790  -11.2420  -11.5360 N.ar   33  A33        -0.2040
    403  C2       -18.2170  -12.2780  -10.9380 C.ar   33  A33         0.2016
    404  N3       -18.1670  -13.5800  -11.2070 N.ar   33  A33        -0.2048
    405  C4       -17.3080  -13.7780  -12.2450 C.ar   33  A33         0.1692
    406  C5       -16.5790  -12.8080  -12.9450 C.ar   33  A33         0.1518
    407  C6       -16.7280  -11.4740  -12.5770 C.ar   33  A33         0.1919
    408  N6       -16.0760  -10.4750  -13.1990 N.pl3  33  A33        -0.1054
    409  N7       -15.8040  -13.3570  -13.9390 N.ar   33  A33        -0.2193
    410  C8       -16.0760  -14.6380  -13.8430 C.ar   33  A33         0.1816
    411  N9       -16.9620  -14.9750  -12.8500 N.ar   33  A33        -0.2693
    412  OP1      -16.1390  -19.0750  -18.3420 O.2    33  A33        -0.5172
    413  OP2      -15.1770  -16.6930  -17.9640 O.co2  33  A33        -0.4373
    414  P        -20.7820  -17.4430  -15.8650 P.3    34  U34         0.2141
    415  C5'      -22.3190  -16.7050  -13.8760 C.3    34  U34         0.1812
    416  O5'      -21.6390  -16.3720  -15.0650 O.3    34  U34        -0.3114
    417  C4'      -22.7940  -15.4520  -13.2050 C.3    34  U34         0.1773
    418  O4'      -21.6560  -14.5810  -12.9530 O.3    34  U34        -0.3307
    419  C3'      -23.8090  -14.6340  -13.9900 C.3    34  U34         0.1860
    420  O3'      -24.8300  -14.2350  -13.1130 O.3    34  U34        -0.3112
    421  C2'      -23.0060  -13.4150  -14.4460 C.3    34  U34         0.2309
    422  O2'      -23.7120  -12.2020  -14.6580 O.3    34  U34        -0.2156
    423  C1'      -21.9620  -13.2720  -13.3530 C.3    34  U34         0.2420
    424  N1       -20.7540  -12.6620  -13.9150 N.ar   34  U34        -0.2534
    425  C2       -20.3740  -11.3230  -13.6440 C.ar   34  U34         0.3546
    426  O2       -20.9330  -10.5640  -12.8390 O.2    34  U34        -0.2443
    427  N3       -19.2300  -10.9070  -14.3060 N.ar   34  U34        -0.1530
    428  C4       -18.4970  -11.6800  -15.1890 C.ar   34  U34         0.2846
    429  O4       -17.5010  -11.2190  -15.7420 O.2    34  U34        -0.2650
    430  C5       -18.9610  -13.0170  -15.3890 C.ar   34  U34         0.0814
    431  C6       -20.0450  -13.4620  -14.7700 C.ar   34  U34         0.0870
    432  OP1      -21.6990  -18.5460  -16.2610 O.3    34  U34        -0.4373
    433  OP2      -20.0420  -16.6380  -16.9220 O.co2  34  U34        -0.5172
    434  P        -26.1210  -15.1650  -12.9350 P.3    35  A35         0.2141
    435  C5'      -26.3940  -15.2000  -10.3280 C.3    35  A35         0.1812
    436  O5'      -26.8040  -14.6630  -11.5820 O.3    35  A35        -0.3114
    437  C4'      -27.2640  -14.7130   -9.1930 C.3    35  A35         0.1773
    438  O4'      -26.9090  -13.3360   -8.8430 O.3    35  A35        -0.3307
    439  C3'      -28.7640  -14.7150   -9.4700 C.3    35  A35         0.1860
    440  O3'      -29.4430  -15.0670   -8.2640 O.3    35  A35        -0.3112
    441  C2'      -29.0450  -13.2480   -9.8480 C.3    35  A35         0.2309
    442  O2'      -30.3750  -12.8060   -9.6420 O.3    35  A35        -0.2156
    443  C1'      -28.0430  -12.4900   -8.9650 C.3    35  A35         0.2408
    444  N1       -28.3100   -7.2020   -9.1390 N.ar   35  A35        -0.2040
    445  C2       -28.9630   -8.1020   -8.3850 C.ar   35  A35         0.2016
    446  N3       -28.8700   -9.4450   -8.3680 N.ar   35  A35        -0.2048
    447  C4       -27.9620   -9.9100   -9.2550 C.ar   35  A35         0.1692
    448  C5       -27.2060   -9.0960  -10.1020 C.ar   35  A35         0.1518
    449  C6       -27.3930   -7.6860  -10.0240 C.ar   35  A35         0.1919
    450  N6       -26.7110   -6.8190  -10.7900 N.pl3  35  A35        -0.1054
    451  N7       -26.3590   -9.8760  -10.8880 N.ar   35  A35        -0.2193
    452  C8       -26.6260  -11.1060  -10.5090 C.ar   35  A35         0.1816
    453  N9       -27.5860  -11.2180   -9.5360 N.ar   35  A35        -0.2693
    454  OP1      -25.6200  -16.5200  -12.5860 O.3    35  A35        -0.4373
    455  OP2      -27.0010  -14.9330  -14.1240 O.co2  35  A35        -0.5172
    456  P        -30.1830  -16.4900   -8.1080 P.3    36  U36         0.2141
    457  C5'      -27.9650  -17.5430   -7.2010 C.3    36  U36         0.1812
    458  O5'      -29.0250  -17.5830   -8.1540 O.3    36  U36        -0.3114
    459  C4'      -27.3290  -18.8950   -6.9630 C.3    36  U36         0.1773
    460  O4'      -28.2120  -19.9410   -7.4420 O.3    36  U36        -0.3307
    461  C3'      -25.9830  -19.1220   -7.6540 C.3    36  U36         0.1860
    462  O3'      -25.1650  -19.9380   -6.8350 O.3    36  U36        -0.3112
    463  C2'      -26.3700  -19.9230   -8.8830 C.3    36  U36         0.2309
    464  O2'      -25.3230  -20.7090   -9.4180 O.3    36  U36        -0.2156
    465  C1'      -27.5020  -20.7810   -8.3310 C.3    36  U36         0.2420
    466  N1       -28.4280  -21.3060   -9.3540 N.ar   36  U36        -0.2534
    467  C2       -28.4080  -22.6680   -9.6330 C.ar   36  U36         0.3546
    468  O2       -27.6650  -23.4770   -9.0930 O.2    36  U36        -0.2443
    469  N3       -29.3020  -23.0750  -10.5870 N.ar   36  U36        -0.1530
    470  C4       -30.1940  -22.3000  -11.2960 C.ar   36  U36         0.2846
    471  O4       -30.9280  -22.8260  -12.1470 O.2    36  U36        -0.2650
    472  C5       -30.1480  -20.9110  -10.9470 C.ar   36  U36         0.0814
    473  C6       -29.2890  -20.4710  -10.0210 C.ar   36  U36         0.0870
    474  OP1      -31.0970  -16.7240   -9.2580 O.2    36  U36        -0.5172
    475  OP2      -30.7040  -16.4790   -6.7150 O.co2  36  U36        -0.4373
    476  P        -23.5850  -19.6530   -6.7000 P.3    37  G37         0.2141
    477  C5'      -22.6610  -19.0010   -9.0570 C.3    37  G37         0.1812
    478  O5'      -23.2780  -18.5960   -7.8470 O.3    37  G37        -0.3114
    479  C4'      -21.7520  -17.9350   -9.5840 C.3    37  G37         0.1773
    480  O4'      -22.5600  -16.8240  -10.0330 O.3    37  G37        -0.3307
    481  C3'      -20.8470  -17.3360   -8.5380 C.3    37  G37         0.1860
    482  O3'      -19.6820  -18.0900   -8.3080 O.3    37  G37        -0.3112
    483  C2'      -20.6060  -15.9270   -9.0560 C.3    37  G37         0.2309
    484  O2'      -19.6680  -15.9080  -10.1130 O.3    37  G37        -0.2156
    485  C1'      -21.9710  -15.6000   -9.6350 C.3    37  G37         0.2408
    486  N1       -23.9720  -11.2000   -7.9440 N.ar   37  G37        -0.1709
    487  C2       -23.0190  -11.4080   -8.9070 C.ar   37  G37         0.2606
    488  N2       -22.5450  -10.2930   -9.5290 N.pl3  37  G37        -0.0859
    489  N3       -22.5870  -12.6230   -9.2470 N.ar   37  G37        -0.1918
    490  C4       -23.1470  -13.6010   -8.5270 C.ar   37  G37         0.1723
    491  C5       -24.0860  -13.4920   -7.5280 C.ar   37  G37         0.1748
    492  C6       -24.5690  -12.1840   -7.1910 C.ar   37  G37         0.3023
    493  O6       -25.3930  -11.8210   -6.3420 O.2    37  G37        -0.2633
    494  N7       -24.4310  -14.7630   -7.0350 N.ar   37  G37        -0.2173
    495  C8       -23.6990  -15.5790   -7.7320 C.ar   37  G37         0.1817
    496  N9       -22.8860  -14.9460   -8.6600 N.ar   37  G37        -0.2693
    497  OP1      -22.8780  -20.8950   -7.0970 O.2    37  G37        -0.5172
    498  OP2      -23.2880  -19.0720   -5.3530 O.co2  37  G37        -0.4373
    499  P        -18.9460  -17.9550   -6.8850 P.3    38  G38         0.2141
    500  C5'      -17.3720  -15.9780   -7.5840 C.3    38  G38         0.1812
    501  O5'      -18.5060  -16.4200   -6.8550 O.3    38  G38        -0.3114
    502  C4'      -17.2370  -14.4750   -7.5290 C.3    38  G38         0.1773
    503  O4'      -18.4690  -13.8560   -7.9300 O.3    38  G38        -0.3307
    504  C3'      -16.9400  -13.8310   -6.1930 C.3    38  G38         0.1860
    505  O3'      -15.5710  -13.9070   -5.9010 O.3    38  G38        -0.3112
    506  C2'      -17.3610  -12.4000   -6.4400 C.3    38  G38         0.2309
    507  O2'      -16.3750  -11.7580   -7.2380 O.3    38  G38        -0.2156
    508  C1'      -18.5940  -12.6060   -7.3060 C.3    38  G38         0.2408
    509  N1       -22.4370   -9.9060   -5.2980 N.ar   38  G38        -0.1709
    510  C2       -21.3480   -9.4900   -6.0540 C.ar   38  G38         0.2606
    511  N2       -21.3450   -8.1760   -6.2530 N.pl3  38  G38        -0.0859
    512  N3       -20.3710  -10.2680   -6.5630 N.ar   38  G38        -0.1918
    513  C4       -20.6050  -11.5670   -6.2210 C.ar   38  G38         0.1723
    514  C5       -21.6670  -12.1140   -5.4830 C.ar   38  G38         0.1748
    515  C6       -22.6820  -11.2440   -4.9680 C.ar   38  G38         0.3023
    516  O6       -23.6890  -11.5480   -4.3290 O.2    38  G38        -0.2633
    517  N7       -21.5500  -13.4900   -5.3840 N.ar   38  G38        -0.2173
    518  C8       -20.4430  -13.7520   -6.0220 C.ar   38  G38         0.1817
    519  N9       -19.8280  -12.6400   -6.5310 N.ar   38  G38        -0.2693
    520  OP1      -17.6320  -18.6760   -6.8550 O.2    38  G38        -0.5172
    521  OP2      -20.0090  -18.1880   -5.8500 O.co2  38  G38        -0.4373
    522  P        -15.0380  -14.5420   -4.5320 P.3    39  C39         0.2141
    523  C5'      -13.8460  -16.8240   -4.7110 C.3    39  C39         0.1812
    524  O5'      -15.0480  -16.0920   -4.7930 O.3    39  C39        -0.3114
    525  C4'      -13.7600  -17.7710   -5.8570 C.3    39  C39         0.1773
    526  O4'      -14.1620  -17.0580   -7.0550 O.3    39  C39        -0.3307
    527  C3'      -12.3640  -18.2950   -6.1540 C.3    39  C39         0.1860
    528  O3'      -12.0570  -19.4470   -5.3800 O.3    39  C39        -0.3112
    529  C2'      -12.4090  -18.5520   -7.6610 C.3    39  C39         0.2309
    530  O2'      -13.0350  -19.8080   -7.9550 O.3    39  C39        -0.2156
    531  C1'      -13.3250  -17.4090   -8.1370 C.3    39  C39         0.2420
    532  N1       -12.6120  -16.1690   -8.5570 N.ar   39  C39        -0.2535
    533  C2       -11.5810  -16.1390   -9.4920 C.ar   39  C39         0.3532
    534  O2       -11.2010  -17.2010   -9.9980 O.2    39  C39        -0.2443
    535  N3       -11.0160  -14.9430   -9.8100 N.ar   39  C39        -0.1739
    536  C4       -11.4520  -13.8080   -9.2790 C.ar   39  C39         0.1759
    537  N4       -10.8890  -12.6600   -9.6180 N.pl3  39  C39        -0.1070
    538  C5       -12.5080  -13.8110   -8.3470 C.ar   39  C39         0.0566
    539  C6       -13.0510  -14.9920   -8.0180 C.ar   39  C39         0.0850
    540  OP1      -15.8900  -14.3690   -3.3160 O.3    39  C39        -0.4373
    541  OP2      -13.6050  -14.1950   -4.6460 O.co2  39  C39        -0.5172
    542  P        -10.8910  -19.4060   -4.2760 P.3    40  A40         0.2141
    543  C5'       -9.6860  -21.0440   -5.9080 C.3    40  A40         0.1812
    544  O5'       -9.6140  -19.8920   -5.0900 O.3    40  A40        -0.3114
    545  C4'       -8.7120  -20.9760   -7.0560 C.3    40  A40         0.1773
    546  O4'       -9.1960  -20.0940   -8.1060 O.3    40  A40        -0.3307
    547  C3'       -7.3480  -20.4060   -6.7550 C.3    40  A40         0.1860
    548  O3'       -6.5160  -21.2530   -6.0000 O.3    40  A40        -0.3112
    549  C2'       -6.8290  -20.1000   -8.1520 C.3    40  A40         0.2309
    550  O2'       -6.4630  -21.2940   -8.8300 O.3    40  A40        -0.2156
    551  C1'       -8.0890  -19.5350   -8.7970 C.3    40  A40         0.2408
    552  N1        -6.2420  -15.2390  -10.7680 N.ar   40  A40        -0.2040
    553  C2        -6.1070  -16.5270  -11.0930 C.ar   40  A40         0.2016
    554  N3        -6.6270  -17.6000  -10.5060 N.ar   40  A40        -0.2048
    555  C4        -7.3840  -17.2350   -9.4640 C.ar   40  A40         0.1692
    556  C5        -7.6240  -15.9550   -9.0100 C.ar   40  A40         0.1518
    557  C6        -7.0050  -14.9070   -9.7110 C.ar   40  A40         0.1919
    558  N6        -7.1000  -13.6200   -9.4060 N.pl3  40  A40        -0.1054
    559  N7        -8.4710  -16.0080   -7.9100 N.ar   40  A40        -0.2193
    560  C8        -8.7240  -17.2860   -7.7160 C.ar   40  A40         0.1816
    561  N9        -8.1000  -18.0730   -8.6490 N.ar   40  A40        -0.2693
    562  OP1      -11.2350  -20.4580   -3.2630 O.3    40  A40        -0.4373
    563  OP2      -10.6150  -17.9810   -3.9120 O.co2  40  A40        -0.5172
    564  P         -5.2880  -20.5980   -5.1970 P.3    41  C41         0.2141
    565  C5'       -3.7300  -21.1850   -7.1930 C.3    41  C41         0.1812
    566  O5'       -4.2760  -20.1810   -6.3600 O.3    41  C41        -0.3114
    567  C4'       -3.0390  -20.6120   -8.3930 C.3    41  C41         0.1773
    568  O4'       -3.9370  -19.7450   -9.1180 O.3    41  C41        -0.3307
    569  C3'       -1.8490  -19.7270   -8.1140 C.3    41  C41         0.1860
    570  O3'       -0.6840  -20.4390   -7.7750 O.3    41  C41        -0.3112
    571  C2'       -1.7340  -18.9490   -9.4050 C.3    41  C41         0.2309
    572  O2'       -1.2170  -19.7750  -10.4360 O.3    41  C41        -0.2156
    573  C1'       -3.2020  -18.6960   -9.7030 C.3    41  C41         0.2420
    574  N1        -3.6480  -17.4420   -9.0880 N.ar   41  C41        -0.2535
    575  C2        -3.2340  -16.2560   -9.6820 C.ar   41  C41         0.3532
    576  O2        -2.5180  -16.3120  -10.6920 O.2    41  C41        -0.2443
    577  N3        -3.6350  -15.0830   -9.1430 N.ar   41  C41        -0.1739
    578  C4        -4.4110  -15.0880   -8.0550 C.ar   41  C41         0.1759
    579  N4        -4.7910  -13.9060   -7.5590 N.pl3  41  C41        -0.1070
    580  C5        -4.8440  -16.3000   -7.4370 C.ar   41  C41         0.0566
    581  C6        -4.4420  -17.4520   -7.9820 C.ar   41  C41         0.0850
    582  OP1       -4.6900  -21.6890   -4.3790 O.3    41  C41        -0.4373
    583  OP2       -5.7460  -19.3700   -4.4910 O.co2  41  C41        -0.5172
    584  P          0.3100  -19.7770   -6.7180 P.3    42  G42         0.2141
    585  C5'        1.7980  -18.9500   -8.7120 C.3    42  G42         0.1812
    586  O5'        1.0310  -18.6340   -7.5620 O.3    42  G42        -0.3114
    587  C4'        2.2870  -17.7150   -9.4370 C.3    42  G42         0.1773
    588  O4'        1.1800  -16.9850  -10.0270 O.3    42  G42        -0.3307
    589  C3'        3.0180  -16.6630   -8.6180 C.3    42  G42         0.1860
    590  O3'        4.3600  -17.0060   -8.3140 O.3    42  G42        -0.3112
    591  C2'        2.8980  -15.4300   -9.5010 C.3    42  G42         0.2309
    592  O2'        3.8550  -15.4350  -10.5540 O.3    42  G42        -0.2156
    593  C1'        1.4970  -15.6130  -10.0850 C.3    42  G42         0.2408
    594  N1        -0.2010  -11.0970   -8.5960 N.ar   42  G42        -0.1709
    595  C2         0.8140  -11.3900   -9.4770 C.ar   42  G42         0.2606
    596  N2         1.4460  -10.3420  -10.0370 N.pl3  42  G42        -0.0859
    597  N3         1.1680  -12.6200   -9.7980 N.ar   42  G42        -0.1918
    598  C4         0.4160  -13.5320   -9.1500 C.ar   42  G42         0.1723
    599  C5        -0.6100  -13.3410   -8.2580 C.ar   42  G42         0.1748
    600  C6        -0.9910  -12.0320   -7.9270 C.ar   42  G42         0.3023
    601  O6        -1.8900  -11.6810   -7.1480 O.2    42  G42        -0.2633
    602  N7        -1.1280  -14.5440   -7.8140 N.ar   42  G42        -0.2173
    603  C8        -0.4130  -15.4480   -8.4290 C.ar   42  G42         0.1817
    604  N9         0.5240  -14.8950   -9.2630 N.ar   42  G42        -0.2693
    605  OP1        1.3090  -20.7310   -6.2100 O.2    42  G42        -0.5172
    606  OP2       -0.5770  -19.1550   -5.7250 O.co2  42  G42        -0.4373
    607  P          5.0220  -16.4860   -6.9450 P.3    43  C43         0.2141
    608  C5'        6.6450  -14.8260   -8.2020 C.3    43  C43         0.1812
    609  O5'        5.5700  -15.0260   -7.2970 O.3    43  C43        -0.3114
    610  C4'        6.8230  -13.3600   -8.5270 C.3    43  C43         0.1773
    611  O4'        5.6070  -12.8560   -9.1450 O.3    43  C43        -0.3307
    612  C3'        7.0510  -12.4190   -7.3450 C.3    43  C43         0.1860
    613  O3'        8.3870  -12.3890   -6.8630 O.3    43  C43        -0.3112
    614  C2'        6.5560  -11.0800   -7.8850 C.3    43  C43         0.2309
    615  O2'        7.5080  -10.4810   -8.7500 O.3    43  C43        -0.2156
    616  C1'        5.3610  -11.5270   -8.7220 C.3    43  C43         0.2420
    617  N1         4.1170  -11.5220   -7.9220 N.ar   43  C43        -0.2535
    618  C2         3.4820  -10.3120   -7.6470 C.ar   43  C43         0.3532
    619  O2         3.9860   -9.2620   -8.0920 O.2    43  C43        -0.2443
    620  N3         2.3410  -10.3210   -6.9140 N.ar   43  C43        -0.1739
    621  C4         1.8500  -11.4630   -6.4570 C.ar   43  C43         0.1759
    622  N4         0.7380  -11.4260   -5.7310 N.pl3  43  C43        -0.1070
    623  C5         2.4760  -12.6990   -6.7150 C.ar   43  C43         0.0566
    624  C6         3.5960  -12.6790   -7.4380 C.ar   43  C43         0.0850
    625  OP1        6.1330  -17.4020   -6.5830 O.2    43  C43        -0.5172
    626  OP2        3.9170  -16.2910   -5.9770 O.co2  43  C43        -0.4373
    627  P          8.6620  -12.2670   -5.2800 P.3    44  A44         0.2141
    628  C5'        8.8570   -9.6710   -5.2270 C.3    44  A44         0.1812
    629  O5'        8.1140  -10.8260   -4.8940 O.3    44  A44        -0.3114
    630  C4'        8.1030   -8.4000   -4.9290 C.3    44  A44         0.1773
    631  O4'        6.7660   -8.4290   -5.5120 O.3    44  A44        -0.3307
    632  C3'        7.8300   -8.0640   -3.4690 C.3    44  A44         0.1860
    633  O3'        8.9680   -7.6160   -2.7410 O.3    44  A44        -0.3112
    634  C2'        6.7420   -7.0080   -3.6070 C.3    44  A44         0.2309
    635  O2'        7.3100   -5.7870   -4.0620 O.3    44  A44        -0.2156
    636  C1'        5.9030   -7.6000   -4.7430 C.3    44  A44         0.2408
    637  N1         1.3100   -7.5860   -2.2240 N.ar   44  A44        -0.2040
    638  C2         2.1170   -6.5840   -2.6110 C.ar   44  A44         0.2016
    639  N3         3.3000   -6.6460   -3.2610 N.ar   44  A44        -0.2048
    640  C4         3.6660   -7.9250   -3.5440 C.ar   44  A44         0.1692
    641  C5         2.9330   -9.0450   -3.2040 C.ar   44  A44         0.1518
    642  C6         1.7170   -8.8480   -2.5170 C.ar   44  A44         0.1919
    643  N6         0.9480   -9.8700   -2.1560 N.pl3  44  A44        -0.1054
    644  N7         3.5790  -10.1940   -3.6330 N.ar   44  A44        -0.2193
    645  C8         4.6690   -9.7580   -4.2100 C.ar   44  A44         0.1816
    646  N9         4.7880   -8.3990   -4.2030 N.ar   44  A44        -0.2693
    647  OP1       10.1350  -12.2680   -5.0650 O.2    44  A44        -0.5172
    648  OP2        7.7890  -13.2300   -4.5660 O.co2  44  A44        -0.4373
    649  P          9.0320   -7.8060   -1.1390 P.3    45  A45         0.2141
    650  C5'        8.3170   -5.2550   -1.0040 C.3    45  A45         0.1812
    651  O5'        8.1610   -6.5970   -0.5560 O.3    45  A45        -0.3114
    652  C4'        7.0470   -4.4600   -0.7850 C.3    45  A45         0.1773
    653  O4'        5.9070   -5.1710   -1.3340 O.3    45  A45        -0.3307
    654  C3'        6.6540   -4.2210    0.6570 C.3    45  A45         0.1860
    655  O3'        7.3660   -3.1580    1.2440 O.3    45  A45        -0.3112
    656  C2'        5.1540   -3.9670    0.5690 C.3    45  A45         0.2309
    657  O2'        4.8980   -2.6340    0.1710 O.3    45  A45        -0.2156
    658  C1'        4.7520   -4.8790   -0.5830 C.3    45  A45         0.2408
    659  N1         0.9120   -7.0510    2.1290 N.ar   45  A45        -0.2040
    660  C2         1.2980   -5.7660    1.9880 C.ar   45  A45         0.2016
    661  N3         2.3120   -5.2680    1.2680 N.ar   45  A45        -0.2048
    662  C4         2.9970   -6.2600    0.6490 C.ar   45  A45         0.1692
    663  C5         2.7210   -7.6170    0.7190 C.ar   45  A45         0.1518
    664  C6         1.6190   -8.0060    1.5040 C.ar   45  A45         0.1919
    665  N6         1.2070   -9.2570    1.6890 N.pl3  45  A45        -0.1054
    666  N7         3.6300   -8.3340   -0.0380 N.ar   45  A45        -0.2193
    667  C8         4.4260   -7.4140   -0.5360 C.ar   45  A45         0.1816
    668  N9         4.1050   -6.1340   -0.1590 N.ar   45  A45        -0.2693
    669  OP1       10.4270   -7.5770   -0.6660 O.3    45  A45        -0.4373
    670  OP2        8.3160   -9.0780   -0.8310 O.co2  45  A45        -0.5172
    671  P          8.1740   -3.4410    2.5920 P.3    46  G46         0.2141
    672  C5'        6.4070   -2.4180    4.2640 C.3    46  G46         0.1812
    673  O5'        7.0360   -3.5610    3.7070 O.3    46  G46        -0.3114
    674  C4'        5.1540   -2.8110    4.9960 C.3    46  G46         0.1773
    675  O4'        4.3660   -3.6750    4.1280 O.3    46  G46        -0.3307
    676  C3'        5.3500   -3.6380    6.2690 C.3    46  G46         0.1860
    677  O3'        5.6620   -2.8630    7.4340 O.3    46  G46        -0.3112
    678  C2'        4.0330   -4.4110    6.3790 C.3    46  G46         0.2309
    679  O2'        3.0410   -3.5910    6.9780 O.3    46  G46        -0.2156
    680  C1'        3.6700   -4.6440    4.8980 C.3    46  G46         0.2408
    681  N1         2.2150   -9.5940    4.3270 N.ar   46  G46        -0.1709
    682  C2         1.5060   -8.5530    4.8580 C.ar   46  G46         0.2606
    683  N2         0.2690   -8.8570    5.2860 N.pl3  46  G46        -0.0859
    684  N3         1.9940   -7.3060    4.9530 N.ar   46  G46        -0.1918
    685  C4         3.2540   -7.1670    4.4680 C.ar   46  G46         0.1723
    686  C5         4.0380   -8.1600    3.9120 C.ar   46  G46         0.1748
    687  C6         3.5160   -9.4850    3.8210 C.ar   46  G46         0.3023
    688  O6         4.0740  -10.4950    3.3570 O.2    46  G46        -0.2633
    689  N7         5.2660   -7.6650    3.5140 N.ar   46  G46        -0.2173
    690  C8         5.2070   -6.4020    3.8360 C.ar   46  G46         0.1817
    691  N9         4.0180   -6.0110    4.4200 N.ar   46  G46        -0.2693
    692  OP1        9.0960   -2.3070    2.8910 O.3    46  G46        -0.4373
    693  OP2        8.7130   -4.8150    2.3990 O.co2  46  G46        -0.5172
    694  P          7.0500   -3.0990    8.2450 P.3    47  U47         0.2141
    695  C5'        6.0390   -3.6090   10.6240 C.3    47  U47         0.1812
    696  O5'        6.6830   -4.0840    9.4460 O.3    47  U47        -0.3114
    697  C4'        6.0890   -4.6180   11.7550 C.3    47  U47         0.1773
    698  O4'        5.5430   -5.8890   11.3030 O.3    47  U47        -0.3307
    699  C3'        7.4720   -4.9390   12.3090 C.3    47  U47         0.1860
    700  O3'        7.3280   -5.3120   13.6820 O.3    47  U47        -0.3112
    701  C2'        7.8530   -6.1720   11.5000 C.3    47  U47         0.2309
    702  O2'        8.8800   -6.9670   12.0540 O.3    47  U47        -0.2156
    703  C1'        6.5190   -6.9040   11.4500 C.3    47  U47         0.2420
    704  N1         6.3910   -7.8180   10.3110 N.ar   47  U47        -0.2534
    705  C2         5.9080   -9.1080   10.4970 C.ar   47  U47         0.3546
    706  O2         5.5570   -9.5790   11.5730 O.2    47  U47        -0.2443
    707  N3         5.8480   -9.8440    9.3330 N.ar   47  U47        -0.1530
    708  C4         6.2090   -9.4400    8.0510 C.ar   47  U47         0.2846
    709  O4         6.0990  -10.2170    7.0950 O.2    47  U47        -0.2650
    710  C5         6.6930   -8.0930    7.9660 C.ar   47  U47         0.0814
    711  C6         6.7640   -7.3540    9.0730 C.ar   47  U47         0.0870
    712  OP1        7.4850   -1.8470    8.8900 O.3    47  U47        -0.4373
    713  OP2        7.9950   -3.7870    7.3350 O.co2  47  U47        -0.5172
    714  P          8.1920   -4.5880   14.8340 P.3    48  U48         0.2141
    715  C5'       10.6470   -4.4860   13.9610 C.3    48  U48         0.1812
    716  O5'        9.6470   -5.2020   14.6700 O.3    48  U48        -0.3114
    717  C4'       11.9770   -5.1830   14.0360 C.3    48  U48         0.1773
    718  O4'       12.4830   -5.1310   15.3930 O.3    48  U48        -0.3307
    719  C3'       11.9600   -6.6490   13.6500 C.3    48  U48         0.1860
    720  O3'       13.1690   -6.9440   12.9830 O.3    48  U48        -0.3112
    721  C2'       11.9490   -7.3600   14.9910 C.3    48  U48         0.2309
    722  O2'       12.4870   -8.6650   14.9740 O.3    48  U48        -0.2156
    723  C1'       12.8000   -6.4310   15.8280 C.3    48  U48         0.2420
    724  N1        12.4730   -6.5170   17.2400 N.ar   48  U48        -0.2534
    725  C2        13.5340   -6.5360   18.0970 C.ar   48  U48         0.3546
    726  O2        14.6880   -6.4610   17.7060 O.2    48  U48        -0.2443
    727  N3        13.1580   -6.6290   19.4070 N.ar   48  U48        -0.1530
    728  C4        11.8630   -6.7150   19.8910 C.ar   48  U48         0.2846
    729  O4        11.6890   -6.7980   21.1060 O.2    48  U48        -0.2650
    730  C5        10.8190   -6.7000   18.9140 C.ar   48  U48         0.0814
    731  C6        11.1610   -6.6050   17.6350 C.ar   48  U48         0.0870
    732  OP1        7.6730   -5.0720   16.1450 O.3    48  U48        -0.4373
    733  OP2        8.3170   -3.1330   14.5350 O.co2  48  U48        -0.5172
    734  P         13.0940   -7.2630   11.4220 P.3    49  U49         0.2141
    735  C5'       12.7020   -9.8270   11.9080 C.3    49  U49         0.1812
    736  O5'       12.2040   -8.6030   11.3570 O.3    49  U49        -0.3114
    737  C4'       11.6570  -10.9190   12.0480 C.3    49  U49         0.1773
    738  O4'       10.9450  -10.7960   13.3150 O.3    49  U49        -0.3307
    739  C3'       10.5910  -11.0090   10.9520 C.3    49  U49         0.1860
    740  O3'       10.4850  -12.3400   10.4490 O.3    49  U49        -0.3112
    741  C2'        9.2900  -10.6440   11.6740 C.3    49  U49         0.2309
    742  O2'        8.1570  -11.3140   11.1590 O.3    49  U49        -0.2156
    743  C1'        9.5830  -11.0770   13.1080 C.3    49  U49         0.2420
    744  N1         8.7780  -10.4060   14.1500 N.ar   49  U49        -0.2534
    745  C2         7.9460  -11.2230   14.9000 C.ar   49  U49         0.3546
    746  O2         7.8810  -12.4150   14.7090 O.2    49  U49        -0.2443
    747  N3         7.1960  -10.6090   15.8830 N.ar   49  U49        -0.1530
    748  C4         7.1700   -9.2610   16.1940 C.ar   49  U49         0.2846
    749  O4         6.4370   -8.8650   17.1110 O.2    49  U49        -0.2650
    750  C5         8.0520   -8.4710   15.3710 C.ar   49  U49         0.0814
    751  C6         8.8050   -9.0490   14.4070 C.ar   49  U49         0.0870
    752  OP1       14.4860   -7.6030   11.0040 O.3    49  U49        -0.4373
    753  OP2       12.3390   -6.1130   10.8110 O.co2  49  U49        -0.5172
    754  P         10.1900  -12.5490    8.8800 P.3    50  C50         0.2141
    755  C5'       11.0300  -15.0060    8.5510 C.3    50  C50         0.1812
    756  O5'        9.9470  -14.1080    8.7170 O.3    50  C50        -0.3114
    757  C4'       10.6390  -16.3710    9.0340 C.3    50  C50         0.1773
    758  O4'       10.3500  -16.3010   10.4540 O.3    50  C50        -0.3307
    759  C3'        9.3690  -16.9140    8.4040 C.3    50  C50         0.1860
    760  O3'        9.6290  -17.5680    7.1740 O.3    50  C50        -0.3112
    761  C2'        8.7930  -17.8250    9.4870 C.3    50  C50         0.2309
    762  O2'        9.3180  -19.1420    9.4080 O.3    50  C50        -0.2156
    763  C1'        9.2810  -17.1510   10.7800 C.3    50  C50         0.2420
    764  N1         8.2230  -16.3350   11.4010 N.ar   50  C50        -0.2535
    765  C2         7.1190  -16.9830   11.9610 C.ar   50  C50         0.3532
    766  O2         7.0580  -18.2360   11.9530 O.2    50  C50        -0.2443
    767  N3         6.1290  -16.2310   12.4950 N.ar   50  C50        -0.1739
    768  C4         6.2090  -14.9030   12.4810 C.ar   50  C50         0.1759
    769  N4         5.1940  -14.2130   13.0190 N.pl3  50  C50        -0.1070
    770  C5         7.3340  -14.2310   11.9140 C.ar   50  C50         0.0566
    771  C6         8.3110  -14.9790   11.3870 C.ar   50  C50         0.0850
    772  OP1       11.4270  -12.2040    8.1280 O.2    50  C50        -0.5172
    773  OP2        8.9060  -11.8790    8.5430 O.co2  50  C50        -0.4373
    774  P          8.6430  -17.3780    5.9190 P.3    51  U51         0.2141
    775  C5'        6.9470  -19.2280    6.6980 C.3    51  U51         0.1812
    776  O5'        7.2240  -17.8530    6.4810 O.3    51  U51        -0.3114
    777  C4'        5.7360  -19.4150    7.5760 C.3    51  U51         0.1773
    778  O4'        5.9080  -18.6840    8.8120 O.3    51  U51        -0.3307
    779  C3'        4.4450  -18.8770    7.0040 C.3    51  U51         0.1860
    780  O3'        3.8520  -19.7680    6.0810 O.3    51  U51        -0.3112
    781  C2'        3.6090  -18.5630    8.2440 C.3    51  U51         0.2309
    782  O2'        2.9460  -19.6930    8.7720 O.3    51  U51        -0.2156
    783  C1'        4.6810  -18.1280    9.2280 C.3    51  U51         0.2420
    784  N1         4.8240  -16.6580    9.2300 N.ar   51  U51        -0.2534
    785  C2         3.9700  -15.9470   10.0620 C.ar   51  U51         0.3546
    786  O2         3.1280  -16.4740   10.7810 O.2    51  U51        -0.2443
    787  N3         4.1460  -14.5930   10.0180 N.ar   51  U51        -0.1530
    788  C4         5.0550  -13.9010    9.2500 C.ar   51  U51         0.2846
    789  O4         5.0840  -12.6730    9.3440 O.2    51  U51        -0.2650
    790  C5         5.8960  -14.7000    8.4110 C.ar   51  U51         0.0814
    791  C6         5.7550  -16.0250    8.4310 C.ar   51  U51         0.0870
    792  OP1        8.9880  -18.3820    4.8680 O.2    51  U51        -0.5172
    793  OP2        8.6290  -15.9150    5.5950 O.co2  51  U51        -0.4373
    794  P          3.2830  -19.1780    4.7100 P.3    52  A52         0.2141
    795  C5'        0.9130  -19.3290    5.7380 C.3    52  A52         0.1812
    796  O5'        1.9300  -18.4980    5.1950 O.3    52  A52        -0.3114
    797  C4'       -0.0260  -18.5730    6.6390 C.3    52  A52         0.1773
    798  O4'        0.7380  -17.8490    7.6250 O.3    52  A52        -0.3307
    799  C3'       -0.8840  -17.5130    5.9650 C.3    52  A52         0.1860
    800  O3'       -2.0730  -18.0510    5.4190 O.3    52  A52        -0.3112
    801  C2'       -1.1650  -16.5490    7.0970 C.3    52  A52         0.2309
    802  O2'       -2.1780  -17.0830    7.9270 O.3    52  A52        -0.2156
    803  C1'        0.1420  -16.6020    7.8710 C.3    52  A52         0.2408
    804  N1         1.3070  -11.5980    8.1580 N.ar   52  A52        -0.2040
    805  C2         0.2700  -12.3080    8.6220 C.ar   52  A52         0.2016
    806  N3         0.0200  -13.6170    8.4990 N.ar   52  A52        -0.2048
    807  C4         1.0030  -14.2190    7.8050 C.ar   52  A52         0.1692
    808  C5         2.1300  -13.6270    7.2640 C.ar   52  A52         0.1518
    809  C6         2.2700  -12.2490    7.4510 C.ar   52  A52         0.1919
    810  N6         3.3140  -11.5780    6.9560 N.pl3  52  A52        -0.1054
    811  N7         2.9210  -14.5570    6.6060 N.ar   52  A52        -0.2193
    812  C8         2.2610  -15.6910    6.7510 C.ar   52  A52         0.1816
    813  N9         1.0920  -15.5510    7.4700 N.ar   52  A52        -0.2693
    814  OP1        2.9350  -20.3080    3.8060 O.2    52  A52        -0.5172
    815  OP2        4.2190  -18.1010    4.2940 O.co2  52  A52        -0.4373
    816  P         -2.2930  -18.1140    3.8300 P.3    53  C53         0.2141
    817  C5'       -4.3220  -16.5300    4.1850 C.3    53  C53         0.1812
    818  O5'       -3.0920  -16.7810    3.5300 O.3    53  C53        -0.3114
    819  C4'       -4.4570  -15.0760    4.5250 C.3    53  C53         0.1773
    820  O4'       -3.3670  -14.7020    5.3980 O.3    53  C53        -0.3307
    821  C3'       -4.3270  -14.1170    3.3540 C.3    53  C53         0.1860
    822  O3'       -5.5130  -13.9870    2.5950 O.3    53  C53        -0.3112
    823  C2'       -3.8760  -12.8280    4.0270 C.3    53  C53         0.2309
    824  O2'       -4.9690  -12.1490    4.6370 O.3    53  C53        -0.2156
    825  C1'       -2.9620  -13.3760    5.1200 C.3    53  C53         0.2420
    826  N1        -1.5540  -13.3580    4.6790 N.ar   53  C53        -0.2535
    827  C2        -0.9090  -12.1950    5.0200 C.ar   53  C53         0.3532
    828  O2        -1.5590  -11.3560    5.6640 O.2    53  C53        -0.2443
    829  N3         0.3720  -12.0190    4.6590 N.ar   53  C53        -0.1739
    830  C4         0.9930  -12.9590    3.9700 C.ar   53  C53         0.1759
    831  N4         2.2650  -12.7040    3.6540 N.pl3  53  C53        -0.1070
    832  C5         0.3470  -14.1750    3.6010 C.ar   53  C53         0.0566
    833  C6        -0.9290  -14.3300    3.9650 C.ar   53  C53         0.0850
    834  OP1       -3.2330  -19.2500    3.6070 O.3    53  C53        -0.4373
    835  OP2       -1.0210  -18.0480    3.0580 O.co2  53  C53        -0.5172
    836  P         -5.7090  -14.8660    1.2630 P.3    54  C54         0.2141
    837  C5'       -7.6820  -16.2470    2.1570 C.3    54  C54         0.1812
    838  O5'       -6.3120  -16.2220    1.8180 O.3    54  C54        -0.3114
    839  C4'       -7.9400  -16.8650    3.5030 C.3    54  C54         0.1773
    840  O4'       -7.5460  -15.9790    4.5740 O.3    54  C54        -0.3307
    841  C3'       -9.3960  -17.1230    3.8040 C.3    54  C54         0.1860
    842  O3'       -9.8910  -18.2280    3.1170 O.3    54  C54        -0.3112
    843  C2'       -9.3780  -17.3110    5.2940 C.3    54  C54         0.2309
    844  O2'       -8.8170  -18.5760    5.5910 O.3    54  C54        -0.2156
    845  C1'       -8.3710  -16.2330    5.6990 C.3    54  C54         0.2420
    846  N1        -9.0160  -14.9740    6.1210 N.ar   54  C54        -0.2535
    847  C2       -10.0550  -14.9470    7.0800 C.ar   54  C54         0.3532
    848  O2       -10.5110  -15.9810    7.6100 O.2    54  C54        -0.2443
    849  N3       -10.5900  -13.7430    7.4090 N.ar   54  C54        -0.1739
    850  C4       -10.1250  -12.6110    6.8630 C.ar   54  C54         0.1759
    851  N4       -10.6880  -11.4750    7.2530 N.pl3  54  C54        -0.1070
    852  C5        -9.0640  -12.5930    5.9090 C.ar   54  C54         0.0566
    853  C6        -8.5570  -13.8000    5.5790 C.ar   54  C54         0.0850
    854  OP1       -4.3890  -15.0970    0.5970 O.3    54  C54        -0.4373
    855  OP2       -6.8310  -14.2210    0.5190 O.co2  54  C54        -0.5172
    856  P        -11.2080  -18.0710    2.2430 P.3    55  G55         0.2141
    857  C5'      -12.2840  -19.6260    4.0230 C.3    55  G55         0.1812
    858  O5'      -12.3590  -18.4260    3.2720 O.3    55  G55        -0.3114
    859  C4'      -13.2340  -19.6100    5.1850 C.3    55  G55         0.1773
    860  O4'      -12.7680  -18.6690    6.1870 O.3    55  G55        -0.3307
    861  C3'      -14.6330  -19.1210    4.8760 C.3    55  G55         0.1860
    862  O3'      -15.4490  -20.0590    4.2190 O.3    55  G55        -0.3112
    863  C2'      -15.1340  -18.7210    6.2450 C.3    55  G55         0.2309
    864  O2'      -15.3920  -19.8930    7.0130 O.3    55  G55        -0.2156
    865  C1'      -13.8820  -18.0530    6.8030 C.3    55  G55         0.2408
    866  N1       -15.0620  -13.3720    8.4200 N.ar   55  G55        -0.1709
    867  C2       -15.3510  -14.5920    8.9810 C.ar   55  G55         0.2606
    868  N2       -16.0380  -14.5810   10.1340 N.pl3  55  G55        -0.0859
    869  N3       -14.9940  -15.7490    8.4430 N.ar   55  G55        -0.1918
    870  C4       -14.3060  -15.5980    7.2880 C.ar   55  G55         0.1723
    871  C5       -13.9550  -14.4320    6.6430 C.ar   55  G55         0.1748
    872  C6       -14.3510  -13.1810    7.2310 C.ar   55  G55         0.3023
    873  O6       -14.1480  -12.0180    6.8250 O.2    55  G55        -0.2633
    874  N7       -13.2510  -14.7190    5.4740 N.ar   55  G55        -0.2173
    875  C8       -13.1840  -16.0200    5.4490 C.ar   55  G55         0.1817
    876  N9       -13.8130  -16.6120    6.5110 N.ar   55  G55        -0.2693
    877  OP1      -11.0130  -19.2090    1.2910 O.2    55  G55        -0.5172
    878  OP2      -11.4970  -16.6770    1.8250 O.co2  55  G55        -0.4373
    879  P        -16.5660  -19.4900    3.2370 P.3    56  G56         0.2141
    880  C5'      -18.6400  -19.5230    4.8910 C.3    56  G56         0.1812
    881  O5'      -17.6470  -18.7740    4.1890 O.3    56  G56        -0.3114
    882  C4'      -19.1270  -18.8330    6.1430 C.3    56  G56         0.1773
    883  O4'      -18.0580  -18.0670    6.7570 O.3    56  G56        -0.3307
    884  C3'      -20.2360  -17.8130    5.9700 C.3    56  G56         0.1860
    885  O3'      -21.5120  -18.3880    5.7630 O.3    56  G56        -0.3112
    886  C2'      -20.1190  -16.9860    7.2510 C.3    56  G56         0.2309
    887  O2'      -20.6740  -17.6590    8.3790 O.3    56  G56        -0.2156
    888  C1'      -18.6030  -16.9450    7.4330 C.3    56  G56         0.2408
    889  N1       -18.3340  -11.8550    7.7290 N.ar   56  G56        -0.1709
    890  C2       -19.0350  -12.7000    8.5230 C.ar   56  G56         0.2606
    891  N2       -19.7100  -12.0350    9.4780 N.pl3  56  G56        -0.0859
    892  N3       -19.0440  -14.0340    8.3740 N.ar   56  G56        -0.1918
    893  C4       -18.2750  -14.4230    7.3190 C.ar   56  G56         0.1723
    894  C5       -17.5380  -13.6300    6.4660 C.ar   56  G56         0.1748
    895  C6       -17.5460  -12.2290    6.6670 C.ar   56  G56         0.3023
    896  O6       -16.9730  -11.3390    6.0440 O.2    56  G56        -0.2633
    897  N7       -16.8670  -14.3930    5.5160 N.ar   56  G56        -0.2173
    898  C8       -17.1990  -15.6230    5.7890 C.ar   56  G56         0.1817
    899  N9       -18.0430  -15.7090    6.8660 N.ar   56  G56        -0.2693
    900  OP1      -17.1170  -20.6320    2.4530 O.2    56  G56        -0.5172
    901  OP2      -15.9000  -18.3240    2.6110 O.co2  56  G56        -0.4373
    902  P        -22.5700  -17.6750    4.7820 P.3    57  G57         0.2141
    903  C5'      -23.9810  -16.3750    6.4920 C.3    57  G57         0.1812
    904  O5'      -22.9560  -16.3310    5.5270 O.3    57  G57        -0.3114
    905  C4'      -24.0540  -15.1120    7.2930 C.3    57  G57         0.1773
    906  O4'      -22.7270  -14.6710    7.6390 O.3    57  G57        -0.3307
    907  C3'      -24.6590  -13.9240    6.5820 C.3    57  G57         0.1860
    908  O3'      -26.0650  -13.9600    6.5460 O.3    57  G57        -0.3112
    909  C2'      -24.0950  -12.7560    7.3570 C.3    57  G57         0.2309
    910  O2'      -24.7670  -12.5970    8.5970 O.3    57  G57        -0.2156
    911  C1'      -22.6870  -13.2600    7.6400 C.3    57  G57         0.2408
    912  N1       -20.3740   -9.2620    5.5750 N.ar   57  G57        -0.1709
    913  C2       -21.3220   -9.3110    6.5670 C.ar   57  G57         0.2606
    914  N2       -21.6770   -8.1400    7.0880 N.pl3  57  G57        -0.0859
    915  N3       -21.8630  -10.4330    7.0120 N.ar   57  G57        -0.1918
    916  C4       -21.3720  -11.5200    6.3730 C.ar   57  G57         0.1723
    917  C5       -20.4360  -11.5900    5.3630 C.ar   57  G57         0.1748
    918  C6       -19.8690  -10.3710    4.8950 C.ar   57  G57         0.3023
    919  O6       -19.0280  -10.2080    4.0100 O.2    57  G57        -0.2633
    920  N7       -20.2070  -12.9120    4.9760 N.ar   57  G57        -0.2173
    921  C8       -20.9930  -13.6120    5.7490 C.ar   57  G57         0.1817
    922  N9       -21.7290  -12.8210    6.6100 N.ar   57  G57        -0.2693
    923  OP1      -23.8610  -18.3850    4.8530 O.3    57  G57        -0.4373
    924  OP2      -21.9590  -17.4480    3.4480 O.co2  57  G57        -0.5172
    925  P        -26.7700  -13.9760    5.1050 P.3    58  C58         0.2141
    926  C5'      -27.5670  -11.5900    5.7420 C.3    58  C58         0.1812
    927  O5'      -26.9190  -12.4130    4.7910 O.3    58  C58        -0.3114
    928  C4'      -26.9910  -10.2000    5.8730 C.3    58  C58         0.1773
    929  O4'      -25.5660  -10.2170    6.1420 O.3    58  C58        -0.3307
    930  C3'      -27.1290   -9.2700    4.6870 C.3    58  C58         0.1860
    931  O3'      -28.4390   -8.7510    4.5660 O.3    58  C58        -0.3112
    932  C2'      -26.0900   -8.2020    5.0000 C.3    58  C58         0.2309
    933  O2'      -26.5830   -7.2740    5.9480 O.3    58  C58        -0.2156
    934  C1'      -24.9730   -9.0390    5.6330 C.3    58  C58         0.2420
    935  N1       -23.9880   -9.4690    4.6200 N.ar   58  C58        -0.2535
    936  C2       -23.1820   -8.5460    3.9000 C.ar   58  C58         0.3532
    937  O2       -23.2500   -7.3020    4.1030 O.2    58  C58        -0.2443
    938  N3       -22.3280   -9.0700    2.9780 N.ar   58  C58        -0.1739
    939  C4       -22.2700  -10.3990    2.7810 C.ar   58  C58         0.1759
    940  N4       -21.4110  -10.8700    1.8790 N.pl3  58  C58        -0.1070
    941  C5       -23.0800  -11.3210    3.4910 C.ar   58  C58         0.0566
    942  C6       -23.9170  -10.8160    4.3890 C.ar   58  C58         0.0850
    943  OP1      -28.1230  -14.5840    5.2250 O.3    58  C58        -0.4373
    944  OP2      -25.8110  -14.6480    4.1670 O.co2  58  C58        -0.5172
    945  P        -29.0700   -8.4400    3.1150 P.3    59  A59         0.2141
    946  C5'      -28.2960   -6.2530    1.9310 C.3    59  A59         0.1812
    947  O5'      -27.9650   -7.5370    2.4210 O.3    59  A59        -0.3114
    948  C4'      -27.0900   -5.3810    1.9300 C.3    59  A59         0.1773
    949  O4'      -25.9350   -6.1790    2.2660 O.3    59  A59        -0.3307
    950  C3'      -26.7290   -4.7840    0.5910 C.3    59  A59         0.1860
    951  O3'      -27.5070   -3.6720    0.2730 O.3    59  A59        -0.3112
    952  C2'      -25.2490   -4.4640    0.7570 C.3    59  A59         0.2309
    953  O2'      -25.0490   -3.2280    1.4590 O.3    59  A59        -0.2156
    954  C1'      -24.7950   -5.6560    1.6190 C.3    59  A59         0.2408
    955  N1       -21.2180   -7.0830   -1.8360 N.ar   59  A59        -0.2040
    956  C2       -21.4770   -5.9020   -1.2530 C.ar   59  A59         0.2016
    957  N3       -22.4150   -5.5580   -0.3770 N.ar   59  A59        -0.2048
    958  C4       -23.1600   -6.6380   -0.0750 C.ar   59  A59         0.1692
    959  C5       -23.0240   -7.9210   -0.5920 C.ar   59  A59         0.1518
    960  C6       -21.9920   -8.1400   -1.5170 C.ar   59  A59         0.1919
    961  N6       -21.7700   -9.3160   -2.0860 N.pl3  59  A59        -0.1054
    962  N7       -23.9990   -8.7750   -0.0500 N.ar   59  A59        -0.2193
    963  C8       -24.6960   -8.0230    0.7850 C.ar   59  A59         0.1816
    964  N9       -24.2310   -6.7350    0.8020 N.ar   59  A59        -0.2693
    965  OP1      -30.2750   -7.6070    3.3950 O.3    59  A59        -0.4373
    966  OP2      -29.1560   -9.6210    2.2040 O.co2  59  A59        -0.5172
    967  P        -28.2940   -3.7000   -1.1030 P.3    60  C60         0.2141
    968  C5'      -26.3290   -2.3570   -2.2620 C.3    60  C60         0.1812
    969  O5'      -27.1530   -3.5280   -2.2170 O.3    60  C60        -0.3114
    970  C4'      -25.0570   -2.5780   -3.0690 C.3    60  C60         0.1773
    971  O4'      -24.2610   -3.6490   -2.4810 O.3    60  C60        -0.3307
    972  C3'      -25.2480   -3.0170   -4.5010 C.3    60  C60         0.1860
    973  O3'      -25.5410   -1.9530   -5.3430 O.3    60  C60        -0.3112
    974  C2'      -23.9580   -3.7660   -4.8270 C.3    60  C60         0.2309
    975  O2'      -22.8660   -2.9120   -5.0630 O.3    60  C60        -0.2156
    976  C1'      -23.6750   -4.4390   -3.5070 C.3    60  C60         0.2420
    977  N1       -24.2450   -5.7920   -3.4220 N.ar   60  C60        -0.2535
    978  C2       -23.6610   -6.7900   -4.1950 C.ar   60  C60         0.3532
    979  O2       -22.7050   -6.4370   -4.9450 O.2    60  C60        -0.2443
    980  N3       -24.1690   -8.0620   -4.0770 N.ar   60  C60        -0.1739
    981  C4       -25.1930   -8.2790   -3.2210 C.ar   60  C60         0.1759
    982  N4       -25.7280   -9.4950   -3.0610 N.pl3  60  C60        -0.1070
    983  C5       -25.7460   -7.2350   -2.4440 C.ar   60  C60         0.0566
    984  C6       -25.2520   -6.0230   -2.5570 C.ar   60  C60         0.0850
    985  OP1      -29.0550   -2.4040   -1.0900 O.3    60  C60        -0.4373
    986  OP2      -28.9450   -5.0320   -1.2040 O.co2  60  C60        -0.5172
    987  P        -26.7470   -2.1680   -6.3510 P.3    61  C61         0.2141
    988  C5'      -24.9140   -2.0170   -8.2010 C.3    61  C61         0.1812
    989  O5'      -26.0150   -2.7370   -7.6650 O.3    61  C61        -0.3114
    990  C4'      -24.0390   -2.8890   -9.0110 C.3    61  C61         0.1773
    991  O4'      -23.5590   -3.9310   -8.1770 O.3    61  C61        -0.3307
    992  C3'      -24.7600   -3.6260  -10.1000 C.3    61  C61         0.1860
    993  O3'      -25.0200   -2.8110  -11.2170 O.3    61  C61        -0.3112
    994  C2'      -23.8600   -4.8350  -10.3460 C.3    61  C61         0.2309
    995  O2'      -22.7030   -4.5220  -11.1360 O.3    61  C61        -0.2156
    996  C1'      -23.4200   -5.1260   -8.9210 C.3    61  C61         0.2420
    997  N1       -24.2460   -6.1650   -8.2750 N.ar   61  C61        -0.2535
    998  C2       -23.8830   -7.5000   -8.4250 C.ar   61  C61         0.3532
    999  O2       -22.9040   -7.7830   -9.1270 O.2    61  C61        -0.2443
   1000  N3       -24.5880   -8.4540   -7.8210 N.ar   61  C61        -0.1739
   1001  C4       -25.6200   -8.1010   -7.1040 C.ar   61  C61         0.1759
   1002  N4       -26.3060   -9.0790   -6.5400 N.pl3  61  C61        -0.1070
   1003  C5       -26.0270   -6.7610   -6.9180 C.ar   61  C61         0.0566
   1004  C6       -25.3160   -5.8110   -7.5150 C.ar   61  C61         0.0850
   1005  OP1      -27.3760   -0.8300   -6.5140 O.2    61  C61        -0.5172
   1006  OP2      -27.5560   -3.3120   -5.8660 O.co2  61  C61        -0.4373
   1007  P        -26.5390   -2.5140  -11.5810 P.3    62  G62         0.2141
   1008  C5'      -27.7210   -3.1170  -13.7910 C.3    62  G62         0.1812
   1009  O5'      -26.5210   -2.8070  -13.1240 O.3    62  G62        -0.3114
   1010  C4'      -27.6800   -4.5270  -14.2660 C.3    62  G62         0.1773
   1011  O4'      -28.0110   -5.3920  -13.1610 O.3    62  G62        -0.3307
   1012  C3'      -28.6720   -4.8180  -15.3690 C.3    62  G62         0.1860
   1013  O3'      -28.0930   -5.7240  -16.2870 O.3    62  G62        -0.3112
   1014  C2'      -29.8370   -5.4690  -14.6480 C.3    62  G62         0.2309
   1015  O2'      -30.5290   -6.4080  -15.4520 O.3    62  G62        -0.2156
   1016  C1'      -29.1580   -6.1560  -13.4680 C.3    62  G62         0.2408
   1017  N1       -31.6480   -8.9600   -9.9940 N.ar   62  G62        -0.1709
   1018  C2       -30.8850   -9.3720  -11.0630 C.ar   62  G62         0.2606
   1019  N2       -30.7990  -10.6960  -11.1780 N.pl3  62  G62        -0.0859
   1020  N3       -30.2710   -8.5800  -11.9360 N.ar   62  G62        -0.1918
   1021  C4       -30.4920   -7.2890  -11.6180 C.ar   62  G62         0.1723
   1022  C5       -31.2110   -6.7550  -10.5620 C.ar   62  G62         0.1748
   1023  C6       -31.8670   -7.6270   -9.6680 C.ar   62  G62         0.3023
   1024  O6       -32.5580   -7.3110   -8.7000 O.2    62  G62        -0.2633
   1025  N7       -31.1800   -5.3630  -10.5570 N.ar   62  G62        -0.2173
   1026  C8       -30.4640   -5.0700  -11.6050 C.ar   62  G62         0.1817
   1027  N9       -30.0090   -6.1870  -12.2790 N.ar   62  G62        -0.2693
   1028  OP1      -26.7220   -1.0540  -11.4270 O.2    62  G62        -0.5172
   1029  OP2      -27.4610   -3.4610  -10.8670 O.co2  62  G62        -0.4373
   1030  P        -27.4550   -5.1240  -17.6280 P.3    63  U63         0.2141
   1031  C5'      -25.1810   -6.5020  -17.3890 C.3    63  U63         0.1812
   1032  O5'      -26.3920   -6.2360  -18.0890 O.3    63  U63        -0.3114
   1033  C4'      -24.6530   -7.8880  -17.6750 C.3    63  U63         0.1773
   1034  O4'      -24.8780   -8.7350  -16.5200 O.3    63  U63        -0.3307
   1035  C3'      -25.2570   -8.6190  -18.8740 C.3    63  U63         0.1860
   1036  O3'      -24.2670   -9.4070  -19.5110 O.3    63  U63        -0.3112
   1037  C2'      -26.2220   -9.6000  -18.2350 C.3    63  U63         0.2309
   1038  O2'      -26.4150  -10.7710  -19.0010 O.3    63  U63        -0.2156
   1039  C1'      -25.5240   -9.9220  -16.9130 C.3    63  U63         0.2420
   1040  N1       -26.4790  -10.3070  -15.8690 N.ar   63  U63        -0.2534
   1041  C2       -26.6960  -11.6320  -15.6200 C.ar   63  U63         0.3546
   1042  O2       -26.0970  -12.5220  -16.1720 O.2    63  U63        -0.2443
   1043  N3       -27.6340  -11.9190  -14.6810 N.ar   63  U63        -0.1530
   1044  C4       -28.3970  -11.0150  -13.9790 C.ar   63  U63         0.2846
   1045  O4       -29.2230  -11.4240  -13.1410 O.2    63  U63        -0.2650
   1046  C5       -28.1160   -9.6370  -14.3060 C.ar   63  U63         0.0814
   1047  C6       -27.1950   -9.3430  -15.2260 C.ar   63  U63         0.0870
   1048  OP1      -26.8370   -3.7940  -17.2620 O.3    63  U63        -0.4373
   1049  OP2      -28.5450   -5.2340  -18.6650 O.co2  63  U63        -0.5172
   1050  P        -23.3160   -8.8010  -20.6370 P.3    64  A64         0.2141
   1051  C5'      -21.2660   -7.2150  -20.2850 C.3    64  A64         0.1812
   1052  O5'      -22.6070   -7.5420  -19.9650 O.3    64  A64        -0.3114
   1053  C4'      -20.7440   -6.1280  -19.3870 C.3    64  A64         0.1773
   1054  O4'      -21.6380   -5.9490  -18.2660 O.3    64  A64        -0.3307
   1055  C3'      -19.3650   -6.3730  -18.7880 C.3    64  A64         0.1860
   1056  O3'      -18.4130   -5.7330  -19.6110 O.3    64  A64        -0.3112
   1057  C2'      -19.4510   -5.7190  -17.4180 C.3    64  A64         0.2309
   1058  O2'      -19.2430   -4.3150  -17.5510 O.3    64  A64        -0.2156
   1059  C1'      -20.9160   -5.9110  -17.0600 C.3    64  A64         0.2408
   1060  N1       -23.6960   -7.9390  -13.2620 N.ar   64  A64        -0.2040
   1061  C2       -23.4390   -6.6710  -13.6020 C.ar   64  A64         0.2016
   1062  N3       -22.6690   -6.2400  -14.5980 N.ar   64  A64        -0.2048
   1063  C4       -22.1320   -7.2490  -15.3080 C.ar   64  A64         0.1692
   1064  C5       -22.3170   -8.5880  -15.0790 C.ar   64  A64         0.1518
   1065  C6       -23.1400   -8.9410  -14.0050 C.ar   64  A64         0.1919
   1066  N6       -23.3710  -10.2260  -13.7040 N.pl3  64  A64        -0.1054
   1067  N7       -21.6210   -9.3510  -15.9910 N.ar   64  A64        -0.2193
   1068  C8       -21.0280   -8.4550  -16.7640 C.ar   64  A64         0.1816
   1069  N9       -21.2670   -7.1680  -16.3770 N.ar   64  A64        -0.2693
   1070  OP1      -24.1660   -8.2530  -21.7360 O.2    64  A64        -0.5172
   1071  OP2      -22.3070   -9.8930  -20.8110 O.co2  64  A64        -0.4373
   1072  P        -16.8420   -6.0390  -19.5530 P.3    65  A65         0.2141
   1073  C5'      -16.0500   -4.4670  -17.6880 C.3    65  A65         0.1812
   1074  O5'      -16.4580   -5.7810  -18.0410 O.3    65  A65        -0.3114
   1075  C4'      -15.6760   -4.3510  -16.2410 C.3    65  A65         0.1773
   1076  O4'      -16.7920   -4.7720  -15.4230 O.3    65  A65        -0.3307
   1077  C3'      -14.4840   -5.1760  -15.7780 C.3    65  A65         0.1860
   1078  O3'      -13.8940   -4.4390  -14.7190 O.3    65  A65        -0.3112
   1079  C2'      -15.1540   -6.3820  -15.1630 C.3    65  A65         0.2309
   1080  O2'      -14.3460   -7.0600  -14.2280 O.3    65  A65        -0.2156
   1081  C1'      -16.3350   -5.7080  -14.4890 C.3    65  A65         0.2408
   1082  N1       -20.4540   -5.7710  -11.4360 N.ar   65  A65        -0.2040
   1083  C2       -19.5040   -4.8760  -11.7380 C.ar   65  A65         0.2016
   1084  N3       -18.4420   -4.9660  -12.5660 N.ar   65  A65        -0.2048
   1085  C4       -18.3860   -6.1390  -13.1820 C.ar   65  A65         0.1692
   1086  C5       -19.2640   -7.1710  -13.0080 C.ar   65  A65         0.1518
   1087  C6       -20.3480   -6.9620  -12.0850 C.ar   65  A65         0.1919
   1088  N6       -21.2820   -7.8890  -11.8010 N.pl3  65  A65        -0.1054
   1089  N7       -18.8600   -8.2510  -13.7970 N.ar   65  A65        -0.2193
   1090  C8       -17.7860   -7.8230  -14.4040 C.ar   65  A65         0.1816
   1091  N9       -17.4500   -6.5480  -14.0690 N.ar   65  A65        -0.2693
   1092  OP1      -16.2670   -4.8020  -20.1610 O.2    65  A65        -0.5172
   1093  OP2      -16.4530   -7.3980  -20.0650 O.co2  65  A65        -0.4373
   1094  P        -12.3030   -4.3370  -14.5300 P.3    66  A66         0.2141
   1095  C5'      -12.7090   -4.9510  -12.0530 C.3    66  A66         0.1812
   1096  O5'      -12.1490   -4.0530  -12.9850 O.3    66  A66        -0.3114
   1097  C4'      -13.6160   -4.2240  -11.1180 C.3    66  A66         0.1773
   1098  O4'      -14.9660   -4.4090  -11.5730 O.3    66  A66        -0.3307
   1099  C3'      -13.6420   -4.7820   -9.7240 C.3    66  A66         0.1860
   1100  O3'      -12.4990   -4.5040   -8.9330 O.3    66  A66        -0.3112
   1101  C2'      -14.9840   -4.3090   -9.2030 C.3    66  A66         0.2309
   1102  O2'      -14.9730   -2.9540   -8.7370 O.3    66  A66        -0.2156
   1103  C1'      -15.8310   -4.4670  -10.4720 C.3    66  A66         0.2408
   1104  N1       -19.5210   -7.1500   -8.2960 N.ar   66  A66        -0.2040
   1105  C2       -19.1740   -5.8970   -8.1580 C.ar   66  A66         0.2016
   1106  N3       -18.1740   -5.3040   -8.7940 N.ar   66  A66        -0.2048
   1107  C4       -17.5040   -6.1180   -9.6470 C.ar   66  A66         0.1692
   1108  C5       -17.7570   -7.4340   -9.8900 C.ar   66  A66         0.1518
   1109  C6       -18.8110   -7.9570   -9.1540 C.ar   66  A66         0.1919
   1110  N6       -19.1540   -9.2460   -9.2780 N.pl3  66  A66        -0.1054
   1111  N7       -16.8870   -7.9570  -10.8110 N.ar   66  A66        -0.2193
   1112  C8       -16.1110   -6.9330  -11.1200 C.ar   66  A66         0.1816
   1113  N9       -16.4470   -5.7910  -10.4650 N.ar   66  A66        -0.2693
   1114  OP1      -11.8160   -3.0510  -15.1710 O.2    66  A66        -0.5172
   1115  OP2      -11.7230   -5.7310  -14.6360 O.co2  66  A66        -0.4373
   1116  P        -11.8510   -5.7700   -8.1780 P.3    67  U67         0.2141
   1117  C5'      -13.3280   -6.2820   -6.1180 C.3    67  U67         0.1812
   1118  O5'      -13.1400   -6.4170   -7.5140 O.3    67  U67        -0.3114
   1119  C4'      -14.4210   -5.3080   -5.7970 C.3    67  U67         0.1773
   1120  O4'      -15.6910   -5.8280   -6.2590 O.3    67  U67        -0.3307
   1121  C3'      -14.6690   -5.0430   -4.3220 C.3    67  U67         0.1860
   1122  O3'      -13.7370   -4.1520   -3.7710 O.3    67  U67        -0.3112
   1123  C2'      -16.0810   -4.4860   -4.3190 C.3    67  U67         0.2309
   1124  O2'      -16.1000   -3.1100   -4.6560 O.3    67  U67        -0.2156
   1125  C1'      -16.7260   -5.2770   -5.4580 C.3    67  U67         0.2420
   1126  N1       -17.5370   -6.3670   -4.9460 N.ar   67  U67        -0.2534
   1127  C2       -18.5910   -6.0400   -4.1240 C.ar   67  U67         0.3546
   1128  O2       -18.8840   -4.8770   -3.8390 O.2    67  U67        -0.2443
   1129  N3       -19.2700   -7.1520   -3.6810 N.ar   67  U67        -0.1530
   1130  C4       -18.9750   -8.4810   -4.0330 C.ar   67  U67         0.2846
   1131  O4       -19.6680   -9.4290   -3.6470 O.2    67  U67        -0.2650
   1132  C5       -17.8460   -8.6820   -4.8770 C.ar   67  U67         0.0814
   1133  C6       -17.1730   -7.6210   -5.3090 C.ar   67  U67         0.0870
   1134  OP1      -10.9970   -5.1790   -7.1130 O.3    67  U67        -0.4373
   1135  OP2      -11.4100   -6.8620   -9.1140 O.co2  67  U67        -0.5172
   1136  P        -13.2380   -4.3070   -2.2490 P.3    68  G68         0.2141
   1137  C5'      -14.6070   -2.2890   -1.2980 C.3    68  G68         0.1812
   1138  O5'      -14.4200   -3.6870   -1.4120 O.3    68  G68        -0.3114
   1139  C4'      -15.9510   -2.0740   -0.6560 C.3    68  G68         0.1773
   1140  O4'      -16.8430   -3.0920   -1.1680 O.3    68  G68        -0.3307
   1141  C3'      -16.0050   -2.3340    0.8210 C.3    68  G68         0.1860
   1142  O3'      -15.4470   -1.3130    1.6160 O.3    68  G68        -0.3112
   1143  C2'      -17.4740   -2.6550    1.0590 C.3    68  G68         0.2309
   1144  O2'      -18.2480   -1.4950    1.0600 O.3    68  G68        -0.2156
   1145  C1'      -17.8320   -3.3730   -0.2160 C.3    68  G68         0.2408
   1146  N1       -20.3580   -7.0930    2.0840 N.ar   68  G68        -0.1709
   1147  C2       -20.4840   -5.7050    2.2090 C.ar   68  G68         0.2606
   1148  N2       -21.4260   -5.2700    3.0530 N.pl3  68  G68        -0.0859
   1149  N3       -19.7550   -4.7820    1.5580 N.ar   68  G68        -0.1918
   1150  C4       -18.8610   -5.4150    0.7400 C.ar   68  G68         0.1723
   1151  C5       -18.6340   -6.7610    0.5600 C.ar   68  G68         0.1748
   1152  C6       -19.4140   -7.7110    1.2460 C.ar   68  G68         0.3023
   1153  O6       -19.3150   -8.9430    1.1230 O.2    68  G68        -0.2633
   1154  N7       -17.6330   -6.9720   -0.3510 N.ar   68  G68        -0.2173
   1155  C8       -17.2680   -5.7720   -0.7040 C.ar   68  G68         0.1817
   1156  N9       -17.9580   -4.8080   -0.0620 N.ar   68  G68        -0.2693
   1157  OP1      -11.9860   -3.4800   -2.1880 O.2    68  G68        -0.5172
   1158  OP2      -13.2700   -5.7050   -1.7890 O.co2  68  G68        -0.4373
   1159  P        -14.5470   -1.7900    2.8580 P.3    69  U69         0.2141
   1160  C5'      -16.5730   -1.3340    4.4870 C.3    69  U69         0.1812
   1161  O5'      -15.6530   -2.2560    3.9160 O.3    69  U69        -0.3114
   1162  C4'      -17.7230   -2.0560    5.1650 C.3    69  U69         0.1773
   1163  O4'      -18.3460   -2.9820    4.2420 O.3    69  U69        -0.3307
   1164  C3'      -17.3800   -2.9150    6.3630 C.3    69  U69         0.1860
   1165  O3'      -17.3470   -2.1470    7.5240 O.3    69  U69        -0.3112
   1166  C2'      -18.5070   -3.9290    6.3930 C.3    69  U69         0.2309
   1167  O2'      -19.6850   -3.3440    6.9290 O.3    69  U69        -0.2156
   1168  C1'      -18.7440   -4.1520    4.9150 C.3    69  U69         0.2420
   1169  N1       -17.9540   -5.2570    4.3560 N.ar   69  U69        -0.2534
   1170  C2       -18.4650   -6.5090    4.5280 C.ar   69  U69         0.3546
   1171  O2       -19.4750   -6.6740    5.1700 O.2    69  U69        -0.2443
   1172  N3       -17.7420   -7.5260    3.9510 N.ar   69  U69        -0.1530
   1173  C4       -16.5750   -7.3730    3.2110 C.ar   69  U69         0.2846
   1174  O4       -16.0040   -8.3690    2.7390 O.2    69  U69        -0.2650
   1175  C5       -16.1190   -6.0080    3.0760 C.ar   69  U69         0.0814
   1176  C6       -16.8080   -5.0160    3.6320 C.ar   69  U69         0.0870
   1177  OP1      -13.7410   -0.6380    3.3380 O.3    69  U69        -0.4373
   1178  OP2      -13.7470   -2.9520    2.4380 O.co2  69  U69        -0.5172
   1179  P        -16.1690   -2.3230    8.5790 P.3    70  C70         0.2141
   1180  C5'      -18.2430   -3.0840    9.9960 C.3    70  C70         0.1812
   1181  O5'      -16.8920   -3.2960    9.6110 O.3    70  C70        -0.3114
   1182  C4'      -18.8690   -4.3410   10.5420 C.3    70  C70         0.1773
   1183  O4'      -19.2710   -5.1390    9.4270 O.3    70  C70        -0.3307
   1184  C3'      -17.9760   -5.2680   11.3510 C.3    70  C70         0.1860
   1185  O3'      -17.9140   -4.9330   12.7250 O.3    70  C70        -0.3112
   1186  C2'      -18.6360   -6.5970   11.1430 C.3    70  C70         0.2309
   1187  O2'      -19.8360   -6.6160   11.8930 O.3    70  C70        -0.2156
   1188  C1'      -19.0440   -6.4920    9.6980 C.3    70  C70         0.2420
   1189  N1       -18.0270   -6.9920    8.7520 N.ar   70  C70        -0.2535
   1190  C2       -18.2080   -8.3020    8.3090 C.ar   70  C70         0.3532
   1191  O2       -19.1700   -8.9410    8.8030 O.2    70  C70        -0.2443
   1192  N3       -17.3250   -8.7960    7.3940 N.ar   70  C70        -0.1739
   1193  C4       -16.3280   -8.0180    6.9210 C.ar   70  C70         0.1759
   1194  N4       -15.4660   -8.5160    6.0170 N.pl3  70  C70        -0.1070
   1195  C5       -16.1570   -6.6660    7.3520 C.ar   70  C70         0.0566
   1196  C6       -17.0230   -6.1990    8.2590 C.ar   70  C70         0.0850
   1197  OP1      -15.9430   -0.9100    9.0400 O.3    70  C70        -0.4373
   1198  OP2      -14.9850   -3.1090    8.0960 O.co2  70  C70        -0.5172
   1199  P        -16.6170   -5.2810   13.6400 P.3    71  C71         0.2141
   1200  C5'      -17.9430   -7.3430   14.5690 C.3    71  C71         0.1812
   1201  O5'      -16.7710   -6.8540   13.9410 O.3    71  C71        -0.3114
   1202  C4'      -18.0010   -8.8460   14.6000 C.3    71  C71         0.1773
   1203  O4'      -18.3870   -9.3130   13.3040 O.3    71  C71        -0.3307
   1204  C3'      -16.6980   -9.5760   14.8980 C.3    71  C71         0.1860
   1205  O3'      -16.4810   -9.7210   16.2910 O.3    71  C71        -0.3112
   1206  C2'      -16.8800  -10.9030   14.1830 C.3    71  C71         0.2309
   1207  O2'      -17.7060  -11.7720   14.9300 O.3    71  C71        -0.2156
   1208  C1'      -17.6700  -10.4760   12.9690 C.3    71  C71         0.2420
   1209  N1       -16.7840  -10.1810   11.8240 N.ar   71  C71        -0.2535
   1210  C2       -16.5800  -11.2700   10.9870 C.ar   71  C71         0.3532
   1211  O2       -17.1500  -12.3270   11.2940 O.2    71  C71        -0.2443
   1212  N3       -15.7890  -11.1270    9.8980 N.ar   71  C71        -0.1739
   1213  C4       -15.2150   -9.9410    9.6580 C.ar   71  C71         0.1759
   1214  N4       -14.4490   -9.8980    8.5780 N.pl3  71  C71        -0.1070
   1215  C5       -15.3880   -8.7830   10.4930 C.ar   71  C71         0.0566
   1216  C6       -16.1820   -8.9510   11.5660 C.ar   71  C71         0.0850
   1217  OP1      -16.9780   -4.3920   14.7670 O.3    71  C71        -0.4373
   1218  OP2      -15.2650   -4.8680   13.1030 O.co2  71  C71        -0.5172
   1219  P        -15.0340  -10.0380   16.9090 P.3    72  G72         0.2141
   1220  C5'      -15.4050  -12.6290   16.8030 C.3    72  G72         0.1812
   1221  O5'      -14.6690  -11.5020   16.3420 O.3    72  G72        -0.3114
   1222  C4'      -14.9320  -13.9480   16.2380 C.3    72  G72         0.1773
   1223  O4'      -15.3710  -14.0890   14.8670 O.3    72  G72        -0.3307
   1224  C3'      -13.4230  -14.1710   16.1980 C.3    72  G72         0.1860
   1225  O3'      -12.9540  -14.6760   17.4360 O.3    72  G72        -0.3112
   1226  C2'      -13.2410  -15.1240   15.0200 C.3    72  G72         0.2309
   1227  O2'      -13.5130  -16.4620   15.3800 O.3    72  G72        -0.2156
   1228  C1'      -14.3370  -14.6300   14.0770 C.3    72  G72         0.2408
   1229  N1       -12.0080  -13.5020    9.7720 N.ar   72  G72        -0.1709
   1230  C2       -12.3380  -14.7290   10.2730 C.ar   72  G72         0.2606
   1231  N2       -12.0050  -15.8040    9.5390 N.pl3  72  G72        -0.0859
   1232  N3       -12.9580  -14.8700   11.4190 N.ar   72  G72        -0.1918
   1233  C4       -13.2160  -13.6860   12.0150 C.ar   72  G72         0.1723
   1234  C5       -12.9310  -12.4120   11.6100 C.ar   72  G72         0.1748
   1235  C6       -12.2660  -12.2660   10.3730 C.ar   72  G72         0.3023
   1236  O6       -11.9200  -11.2150    9.8150 O.2    72  G72        -0.2633
   1237  N7       -13.3790  -11.4640   12.5330 N.ar   72  G72        -0.2173
   1238  C8       -13.9210  -12.1690   13.4840 C.ar   72  G72         0.1817
   1239  N9       -13.8460  -13.5280   13.2220 N.ar   72  G72        -0.2693
   1240  OP1      -15.3990  -10.0770   18.3540 O.3    72  G72        -0.4373
   1241  OP2      -14.0530   -8.9780   16.5150 O.co2  72  G72        -0.5172
   1242  P        -11.3940  -14.6870   17.8020 P.3    73  A73         0.2141
   1243  C5'       -9.4560  -16.3380   17.0740 C.3    73  A73         0.1812
   1244  O5'      -10.8300  -15.9900   17.0430 O.3    73  A73        -0.3114
   1245  C4'       -9.1310  -17.2570   15.9340 C.3    73  A73         0.1773
   1246  O4'       -9.3370  -16.5330   14.7010 O.3    73  A73        -0.3307
   1247  C3'       -7.6880  -17.7360   15.8650 C.3    73  A73         0.1860
   1248  O3'       -7.4720  -18.9240   16.5860 O.3    73  A73        -0.3112
   1249  C2'       -7.4470  -17.9170   14.3810 C.3    73  A73         0.2309
   1250  O2'       -7.9660  -19.1700   13.9400 O.3    73  A73        -0.2156
   1251  C1'       -8.2800  -16.7780   13.8080 C.3    73  A73         0.2408
   1252  N1        -4.2180  -14.5890   11.7140 N.ar   73  A73        -0.2040
   1253  C2        -4.7520  -15.7990   11.5800 C.ar   73  A73         0.2016
   1254  N3        -5.8290  -16.3050   12.1680 N.ar   73  A73        -0.2048
   1255  C4        -6.3750  -15.3870   12.9830 C.ar   73  A73         0.1692
   1256  C5        -5.9490  -14.1040   13.2210 C.ar   73  A73         0.1518
   1257  C6        -4.7990  -13.7040   12.5380 C.ar   73  A73         0.1919
   1258  N6        -4.2380  -12.5030   12.6450 N.pl3  73  A73        -0.1054
   1259  N7        -6.7940  -13.4720   14.1190 N.ar   73  A73        -0.2193
   1260  C8        -7.6920  -14.3730   14.4200 C.ar   73  A73         0.1816
   1261  N9        -7.4880  -15.5480   13.7490 N.ar   73  A73        -0.2693
   1262  OP1      -11.3590  -14.8950   19.2730 O.3    73  A73        -0.4373
   1263  OP2      -10.7880  -13.4760   17.1990 O.co2  73  A73        -0.5172
   1264  P         -6.2870  -18.9600   17.6400 P.3    74  C74         0.2141
   1265  C5'       -5.1970  -20.3660   15.7100 C.3    74  C74         0.1812
   1266  O5'       -5.0290  -19.5100   16.8240 O.3    74  C74        -0.3114
   1267  C4'       -4.1040  -20.1780   14.6830 C.3    74  C74         0.1773
   1268  O4'       -4.3800  -19.0170   13.8510 O.3    74  C74        -0.3307
   1269  C3'       -2.7170  -19.9130   15.2320 C.3    74  C74         0.1860
   1270  O3'       -2.0490  -21.0910   15.6380 O.3    74  C74        -0.3112
   1271  C2'       -2.0320  -19.1960   14.0780 C.3    74  C74         0.2309
   1272  O2'       -1.6220  -20.1220   13.0860 O.3    74  C74        -0.2156
   1273  C1'       -3.1750  -18.3530   13.5300 C.3    74  C74         0.2420
   1274  N1        -3.2040  -17.0070   14.1550 N.ar   74  C74        -0.2535
   1275  C2        -2.2830  -16.0210   13.7370 C.ar   74  C74         0.3532
   1276  O2        -1.4620  -16.3300   12.8480 O.2    74  C74        -0.2443
   1277  N3        -2.3100  -14.7700   14.3140 N.ar   74  C74        -0.1739
   1278  C4        -3.2060  -14.4860   15.2830 C.ar   74  C74         0.1759
   1279  N4        -3.2030  -13.2610   15.8410 N.pl3  74  C74        -0.1070
   1280  C5        -4.1490  -15.4780   15.7290 C.ar   74  C74         0.0566
   1281  C6        -4.1120  -16.6960   15.1470 C.ar   74  C74         0.0850
   1282  OP1       -6.7680  -19.9360   18.6180 O.3    74  C74        -0.4373
   1283  OP2       -5.9790  -17.5680   18.1080 O.co2  74  C74        -0.5172
   1284  P         -0.9910  -21.0390   16.8590 P.3    75  U75         0.2141
   1285  C5'        0.9120  -20.9110   15.0500 C.3    75  U75         0.1812
   1286  O5'        0.3150  -20.3580   16.2230 O.3    75  U75        -0.3114
   1287  C4'        1.8570  -19.9460   14.3850 C.3    75  U75         0.1773
   1288  O4'        1.1100  -18.8280   13.8370 O.3    75  U75        -0.3307
   1289  C3'        2.9020  -19.2950   15.2850 C.3    75  U75         0.1860
   1290  O3'        4.0420  -20.1060   15.4720 O.3    75  U75        -0.3112
   1291  C2'        3.2220  -18.0110   14.5380 C.3    75  U75         0.2309
   1292  O2'        4.0770  -18.2770   13.4360 O.3    75  U75        -0.2156
   1293  C1'        1.8490  -17.6360   13.9910 C.3    75  U75         0.2420
   1294  N1         1.1190  -16.7430   14.9170 N.ar   75  U75        -0.2534
   1295  C2         1.5030  -15.4300   14.9220 C.ar   75  U75         0.3546
   1296  O2         2.4080  -15.0050   14.2080 O.2    75  U75        -0.2443
   1297  N3         0.7790  -14.6520   15.8020 N.ar   75  U75        -0.1530
   1298  C4        -0.2430  -15.0190   16.6560 C.ar   75  U75         0.2846
   1299  O4        -0.7800  -14.1720   17.3680 O.2    75  U75        -0.2650
   1300  C5        -0.5750  -16.3950   16.5990 C.ar   75  U75         0.0814
   1301  C6         0.1090  -17.1750   15.7500 C.ar   75  U75         0.0870
   1302  OP1       -0.7190  -22.4710   17.1880 O.2    75  U75        -0.5172
   1303  OP2       -1.4930  -20.1620   17.9430 O.co2  75  U75        -0.4373
   1304  P          4.9360  -20.0010   16.8010 P.3    76  A76         0.2141
   1305  C5'        6.7780  -18.4010   15.8360 C.3    76  A76         0.1812
   1306  O5'        5.6740  -18.5900   16.7030 O.3    76  A76        -0.3114
   1307  C4'        7.1570  -16.9430   15.7380 C.3    76  A76         0.1773
   1308  O4'        5.9900  -16.1710   15.3750 O.3    76  A76        -0.3307
   1309  C3'        7.6550  -16.2710   17.0170 C.3    76  A76         0.1860
   1310  O3'        9.0310  -16.4800   17.2570 O.3    76  A76        -0.3112
   1311  C2'        7.3500  -14.8050   16.7730 C.3    76  A76         0.2309
   1312  O2'        8.3650  -14.2300   15.9730 O.3    76  A76        -0.2156
   1313  C1'        6.0640  -14.8820   15.9530 C.3    76  A76         0.2408
   1314  N1         3.5140  -11.3710   18.7380 N.ar   76  A76        -0.2040
   1315  C2         4.6740  -11.3070   18.0590 C.ar   76  A76         0.2016
   1316  N3         5.2680  -12.2780   17.3520 N.ar   76  A76        -0.2048
   1317  C4         4.5460  -13.4330   17.3760 C.ar   76  A76         0.1692
   1318  C5         3.3380  -13.6480   18.0350 C.ar   76  A76         0.1518
   1319  C6         2.8140  -12.5360   18.7570 C.ar   76  A76         0.1919
   1320  N6         1.6790  -12.5490   19.4620 N.pl3  76  A76        -0.1054
   1321  N7         2.9170  -14.9790   17.8490 N.ar   76  A76        -0.2193
   1322  C8         3.8470  -15.5110   17.0930 C.ar   76  A76         0.1816
   1323  N9         4.8610  -14.6360   16.7720 N.ar   76  A76        -0.2693
   1324  OP1        5.9850  -21.0450   16.6190 O.2    76  A76        -0.5172
   1325  OP2        4.0280  -20.0410   17.9900 O.co2  76  A76        -0.4373
   1326  P          9.5000  -17.2960   18.5500 P.3    77  U77         0.2141
   1327  C5'       10.7640  -15.0540   19.1010 C.3    77  U77         0.1812
   1328  O5'        9.9800  -16.1510   19.5550 O.3    77  U77        -0.3114
   1329  C4'       10.4670  -13.7800   19.8680 C.3    77  U77         0.1773
   1330  O4'        9.2900  -13.1380   19.3140 O.3    77  U77        -0.3307
   1331  C3'       10.1490  -13.9220   21.3530 C.3    77  U77         0.1860
   1332  O3'       11.3070  -14.0180   22.1620 O.3    77  U77        -0.3112
   1333  C2'        9.3290  -12.6750   21.6420 C.3    77  U77         0.2309
   1334  O2'       10.1800  -11.5600   21.8070 O.3    77  U77        -0.2156
   1335  C1'        8.5560  -12.5020   20.3360 C.3    77  U77         0.2420
   1336  N1         7.2350  -13.1490   20.4350 N.ar   77  U77        -0.2534
   1337  C2         6.2330  -12.3800   20.9680 C.ar   77  U77         0.3546
   1338  O2         6.4110  -11.2210   21.3020 O.2    77  U77        -0.2443
   1339  N3         5.0380  -13.0220   21.0840 N.ar   77  U77        -0.1530
   1340  C4         4.8030  -14.3200   20.7310 C.ar   77  U77         0.2846
   1341  O4         3.6780  -14.7510   20.8790 O.2    77  U77        -0.2650
   1342  C5         5.8850  -15.0600   20.1860 C.ar   77  U77         0.0814
   1343  C6         7.0530  -14.4560   20.0710 C.ar   77  U77         0.0870
   1344  OP1       10.6270  -18.1630   18.0640 O.2    77  U77        -0.5172
   1345  OP2        8.2750  -17.9180   19.1570 O.co2  77  U77        -0.4373
   1346  P1        11.2380  -14.7390   23.5990 P.3    78  50L78       0.2141
   1347  C1         7.1350  -12.8860   24.3130 C.ar   78  50L78       0.0996
   1348  N1         6.8860  -11.8960   25.1710 N.ar   78  50L78      -0.2710
   1349  O1         3.2620  -14.2460   24.4030 O.2    78  50L78      -0.2439
   1350  C2         3.7610  -13.2890   24.9950 C.ar   78  50L78       0.3587
   1351  N2         2.9960  -12.5420   25.7940 N.ar   78  50L78      -0.1561
   1352  O2        10.5980  -13.6260   24.5450 O.3    78  50L78      -0.3114
   1353  C3         3.5170  -11.4970   26.4460 C.ar   78  50L78       0.2629
   1354  N3         2.6930  -10.7960   27.2290 N.pl3  78  50L78      -0.0858
   1355  O3         9.0030  -11.1190   24.6040 O.3    78  50L78      -0.3307
   1356  C4         5.6020  -11.9230   25.5050 C.ar   78  50L78       0.2256
   1357  N4         4.8280  -11.1780   26.3100 N.ar   78  50L78      -0.1768
   1358  O4        10.6950  -11.8500   27.6550 O.3    78  50L78      -0.3112
   1359  C5        11.1230  -12.3070   24.5790 C.3    78  50L78       0.1812
   1360  N5         5.0520  -12.9620   24.8750 N.ar   78  50L78      -0.2262
   1361  O5         8.9260   -9.7420   27.3010 O.3    78  50L78      -0.2156
   1362  C6        10.2160  -11.3810   25.3450 C.3    78  50L78       0.1773
   1363  O6        12.6270  -15.0120   24.0500 O.co2  78  50L78      -0.5172
   1364  C7         9.7080  -11.9250   26.6570 C.3    78  50L78       0.1860
   1365  O7        10.2860  -15.8710   23.4790 O.3    78  50L78      -0.4373
   1366  C8         8.4990  -11.0420   26.9190 C.3    78  50L78       0.2309
   1367  C9         7.9320  -10.9280   25.5100 C.3    78  50L78       0.2408
   1368  C10        6.0000  -13.5600   24.1420 C.ar   78  50L78       0.1060
   1369  P         10.5550  -12.7480   28.9520 P.3    79  U79         0.2141
   1370  C5'        9.3730  -10.9460   30.4590 C.3    79  U79         0.1812
   1371  O5'        9.2750  -12.1260   29.6790 O.3    79  U79        -0.3114
   1372  C4'        8.0230  -10.5170   30.9760 C.3    79  U79         0.1773
   1373  O4'        7.0780  -10.5220   29.8800 O.3    79  U79        -0.3307
   1374  C3'        7.3770  -11.4210   32.0180 C.3    79  U79         0.1860
   1375  O3'        7.8630  -11.2290   33.3370 O.3    79  U79        -0.3112
   1376  C2'        5.8870  -11.1330   31.8490 C.3    79  U79         0.2309
   1377  O2'        5.4860   -9.9530   32.5330 O.3    79  U79        -0.2156
   1378  C1'        5.7930  -10.8930   30.3430 C.3    79  U79         0.2420
   1379  N1         5.3540  -12.1070   29.6180 N.ar   79  U79        -0.2534
   1380  C2         3.9860  -12.3110   29.4960 C.ar   79  U79         0.3546
   1381  O2         3.1540  -11.5420   29.9430 O.2    79  U79        -0.2443
   1382  N3         3.5940  -13.4280   28.8140 N.ar   79  U79        -0.1530
   1383  C4         4.4380  -14.3520   28.2560 C.ar   79  U79         0.2846
   1384  O4         3.9480  -15.3280   27.6890 O.2    79  U79        -0.2650
   1385  C5         5.8400  -14.0690   28.4270 C.ar   79  U79         0.0814
   1386  C6         6.2580  -12.9860   29.0890 C.ar   79  U79         0.0870
   1387  OP1       11.7900  -12.5520   29.7780 O.3    79  U79        -0.4373
   1388  OP2       10.1850  -14.0940   28.4360 O.co2  79  U79        -0.5172
   1389  P          8.1550  -12.5110   34.2630 P.3    80  C80         0.2141
   1390  C5'        5.9680  -11.7510   35.4990 C.3    80  C80         0.1812
   1391  O5'        6.7450  -12.8000   34.9380 O.3    80  C80        -0.3114
   1392  C4'        4.5050  -12.1270   35.5480 C.3    80  C80         0.1773
   1393  O4'        3.9390  -12.0940   34.2100 O.3    80  C80        -0.3307
   1394  C3'        4.1900  -13.5280   36.0550 C.3    80  C80         0.1860
   1395  O3'        4.1810  -13.5960   37.4670 O.3    80  C80        -0.3112
   1396  C2'        2.8340  -13.8210   35.4260 C.3    80  C80         0.2309
   1397  O2'        1.7870  -13.2510   36.1910 O.3    80  C80        -0.2156
   1398  C1'        2.9370  -13.0810   34.0840 C.3    80  C80         0.2420
   1399  N1         3.3180  -14.0110   33.0060 N.ar   80  C80        -0.2535
   1400  C2         2.3050  -14.7300   32.3640 C.ar   80  C80         0.3532
   1401  O2         1.1090  -14.5350   32.6590 O.2    80  C80        -0.2443
   1402  N3         2.6590  -15.6280   31.4150 N.ar   80  C80        -0.1739
   1403  C4         3.9550  -15.8220   31.1130 C.ar   80  C80         0.1759
   1404  N4         4.2680  -16.7180   30.1540 N.pl3  80  C80        -0.1070
   1405  C5         4.9910  -15.0860   31.7750 C.ar   80  C80         0.0566
   1406  C6         4.6290  -14.2100   32.7070 C.ar   80  C80         0.0850
   1407  OP1        9.1050  -12.1920   35.3430 O.3    80  C80        -0.4373
   1408  OP2        8.5350  -13.6360   33.3780 O.co2  80  C80        -0.5172
   1409  P          4.4240  -14.9930   38.2160 P.3    81  C81         0.2141
   1410  C5'        1.9090  -15.6700   38.4350 C.3    81  C81         0.1813
   1411  O5'        3.1530  -15.8480   37.7730 O.3    81  C81        -0.3114
   1412  C4'        0.9200  -16.7400   38.0620 C.3    81  C81         0.1801
   1413  O4'        0.7230  -16.7050   36.6340 O.3    81  C81        -0.3306
   1414  C3'        1.3370  -18.1760   38.3470 C.3    81  C81         0.2161
   1415  O3'        1.0860  -18.5770   39.6810 O.3    81  C81        -0.2175
   1416  C2'        0.5250  -18.9660   37.3410 C.3    81  C81         0.2338
   1417  O2'       -0.8010  -19.1550   37.8130 O.3    81  C81        -0.2155
   1418  C1'        0.5110  -18.0090   36.1460 C.3    81  C81         0.2421
   1419  N1         1.5860  -18.3290   35.1830 N.ar   81  C81        -0.2535
   1420  C2         1.3570  -19.3890   34.3010 C.ar   81  C81         0.3532
   1421  O2         0.2730  -20.0020   34.3470 O.2    81  C81        -0.2443
   1422  N3         2.3290  -19.7090   33.4230 N.ar   81  C81        -0.1739
   1423  C4         3.4650  -19.0170   33.4070 C.ar   81  C81         0.1759
   1424  N4         4.3790  -19.3940   32.5190 N.pl3  81  C81        -0.1070
   1425  C5         3.7210  -17.9310   34.2920 C.ar   81  C81         0.0566
   1426  C6         2.7590  -17.6250   35.1650 C.ar   81  C81         0.0850
   1427  OP1        4.3170  -14.7970   39.6830 O.3    81  C81        -0.4373
   1428  OP2        5.6890  -15.5870   37.7120 O.co2  81  C81        -0.5172
@<TRIPOS>BOND
     1    53    69    1
     2    69    78    1
     3    69    90    2
     4    69    91    1
     5    70    71    1
     6    70    72    2
     7    70    89    1
     8    71    73    2
     9    73    74    1
    10    73    75    1
    11    75    76    1
    12    75    77    2
    13    76    86    2
    14    76    88    2
    15    77    89    1
    16    78    79    1
    17    79    81    1
    18    80    87    1
    19    80    81    1
    20    81    83    1
    21    82    92    1
    22    82    83    1
    23    83    85    1
    24    84    85    1
    25    85    87    1
    26    87    89    1
    27  1332  1346    1
    28  1346  1352    1
    29  1346  1363    2
    30  1346  1365    1
    31  1347  1368   ar
    32  1347  1348   ar
    33  1348  1356   ar
    34  1348  1367    1
    35  1349  1350    2
    36  1350  1351   ar
    37  1350  1360   ar
    38  1351  1353   ar
    39  1352  1359    1
    40  1353  1354    1
    41  1353  1357   ar
    42  1355  1367    1
    43  1355  1362    1
    44  1356  1360   ar
    45  1356  1357   ar
    46  1358  1369    1
    47  1358  1364    1
    48  1359  1362    1
    49  1360  1368   ar
    50  1361  1366    1
    51  1362  1364    1
    52  1364  1366    1
    53  1366  1367    1
    54  1070  1050    2
    55   367   346    2
    56  1071  1050    1
    57   390   369    2
    58  1050  1052    1
    59  1050  1036    1
    60  1051  1052    1
    61  1051  1053    1
    62  1092  1072    2
    63  1093  1072    1
    64   346   368    1
    65   346   332    1
    66   346   348    1
    67  1056  1072    1
    68  1056  1055    1
    69  1072  1074    1
    70   347   348    1
    71   347   349    1
    72  1036  1035    1
    73  1053  1055    1
    74  1053  1054    1
    75   369   352    1
    76   369   391    1
    77   369   371    1
    78   332   331    1
    79  1038  1037    1
    80   344   326    2
    81  1035  1037    1
    82  1035  1033    1
    83  1055  1057    1
    84   352   351    1
    85  1049  1030    2
    86   349   351    1
    87   349   350    1
    88   371   370    1
    89   412   392    2
    90  1054  1059    1
    91  1037  1039    1
    92   327   328    1
    93   327   329    1
    94  1032  1030    1
    95  1032  1031    1
    96  1074  1073    1
    97   328   326    1
    98   413   392    1
    99   351   353    1
   100   331   329    1
   101   331   333    1
   102   326   309    1
   103   326   345    1
   104  1073  1075    1
   105  1033  1031    1
   106  1033  1034    1
   107   370   372    1
   108  1030  1048    1
   109  1030  1013    1
   110   329   330    1
   111  1058  1057    1
   112  1057  1059    1
   113   392   375    1
   114   392   394    1
   115   334   333    1
   116   350   355    1
   117  1059  1069    1
   118   309   308    1
   119   433   414    2
   120  1039  1034    1
   121  1039  1040    1
   122   354   353    1
   123   333   335    1
   124  1068  1069   ar
   125  1068  1067   ar
   126   375   374    1
   127   353   355    1
   128  1069  1063   ar
   129  1013  1012    1
   130   372   374    1
   131   372   373    1
   132   432   414    1
   133  1075  1077    1
   134  1075  1076    1
   135   394   393    1
   136   330   335    1
   137  1042  1041    2
   138   374   376    1
   139   355   366    1
   140  1067  1064   ar
   141  1040  1041   ar
   142  1040  1047   ar
   143   414   416    1
   144   414   398    1
   145  1077  1079    1
   146  1077  1078    1
   147   429   428    2
   148   335   336    1
   149   311   310    1
   150  1041  1043   ar
   151   324   303    2
   152   308   306    1
   153   308   310    1
   154  1015  1014    1
   155  1076  1081    1
   156   365   366   ar
   157   365   364   ar
   158   430   428   ar
   159   430   431   ar
   160  1012  1014    1
   161  1012  1010    1
   162   373   378    1
   163  1063  1064   ar
   164  1063  1062   ar
   165   366   360   ar
   166  1047  1046   ar
   167   428   427   ar
   168  1114  1094    2
   169  1079  1081    1
   170  1079  1080    1
   171   393   395    1
   172   304   306    1
   173   304   305    1
   174  1064  1065   ar
   175   416   415    1
   176   306   307    1
   177   388   387   ar
   178   388   389   ar
   179   310   312    1
   180   431   424   ar
   181   387   384   ar
   182   398   397    1
   183  1078  1094    1
   184  1043  1044   ar
   185   422   421    1
   186  1014  1016    1
   187  1115  1094    1
   188   376   378    1
   189   376   377    1
   190  1062  1061   ar
   191   305   303    1
   192   336   343   ar
   193   336   337   ar
   194   343   342   ar
   195  1094  1096    1
   196  1081  1091    1
   197   364   361   ar
   198   421   419    1
   199   421   423    1
   200  1090  1091   ar
   201  1090  1089   ar
   202  1046  1044   ar
   203   427   425   ar
   204   303   325    1
   205   303   289    1
   206   397   395    1
   207   397   399    1
   208   378   389    1
   209  1010  1008    1
   210  1010  1011    1
   211   389   383   ar
   212   455   434    2
   213   360   361   ar
   214   360   359   ar
   215  1091  1085   ar
   216  1065  1066    1
   217  1065  1060   ar
   218   419   417    1
   219   419   420    1
   220  1044  1045    2
   221   395   396    1
   222   409   410   ar
   223   409   406   ar
   224   424   425   ar
   225   424   423    1
   226   415   417    1
   227   410   411   ar
   228  1089  1086   ar
   229  1008  1009    1
   230   307   312    1
   231   384   383   ar
   232   384   385   ar
   233   361   362   ar
   234   425   426    2
   235  1061  1060   ar
   236   359   357   ar
   237   312   323    1
   238   342   340   ar
   239   337   338    2
   240   337   339   ar
   241  1016  1011    1
   242  1016  1027    1
   243   289   288    1
   244   423   418    1
   245   383   382   ar
   246   417   418    1
   247   408   407    1
   248  1085  1086   ar
   249  1085  1084   ar
   250   396   401    1
   251  1009  1007    1
   252   420   434    1
   253   386   385    2
   254  1086  1087   ar
   255   399   401    1
   256   399   400    1
   257  1096  1095    1
   258   406   407   ar
   259   406   405   ar
   260   434   454    1
   261   434   436    1
   262   385   379   ar
   263   411   401    1
   264   411   405   ar
   265   407   402   ar
   266  1084  1083   ar
   267   339   340   ar
   268   291   290    1
   269   357   356   ar
   270   357   358    1
   271   340   341    2
   272   362   356   ar
   273   362   363    2
   274   323   317   ar
   275   323   322   ar
   276   316   317   ar
   277   316   314   ar
   278   382   380   ar
   279  1027  1021   ar
   280  1027  1026   ar
   281   405   404   ar
   282   471   470    2
   283  1087  1088    1
   284  1087  1082   ar
   285  1095  1097    1
   286   288   290    1
   287   288   286    1
   288  1020  1021   ar
   289  1020  1018   ar
   290   317   318   ar
   291   379   380   ar
   292   315   314    1
   293   290   292    1
   294  1083  1082   ar
   295   322   321   ar
   296  1021  1022   ar
   297  1026  1025   ar
   298   436   435    1
   299  1007  1028    2
   300  1007   993    1
   301  1007  1029    1
   302   314   313   ar
   303  1098  1097    1
   304  1098  1103    1
   305   380   381    1
   306   402   403   ar
   307   470   472   ar
   308   470   469   ar
   309   993   992    1
   310   404   403   ar
   311  1019  1018    1
   312   286   284    1
   313   286   287    1
   314   995   994    1
   315  1112  1111   ar
   316  1112  1113   ar
   317  1097  1099    1
   318   553   552   ar
   319   553   554   ar
   320  1018  1017   ar
   321   472   473   ar
   322   451   452   ar
   323   451   448   ar
   324   318   321   ar
   325   318   319   ar
   326  1111  1108   ar
   327   450   449    1
   328   284   285    1
   329   552   557   ar
   330   576   575    2
   331   469   467   ar
   332  1022  1025   ar
   333  1022  1023   ar
   334   592   591    1
   335   313   319   ar
   336   452   453   ar
   337   554   555   ar
   338  1103  1113    1
   339  1103  1101    1
   340  1113  1107   ar
   341   572   571    1
   342   994   992    1
   343   994   996    1
   344   435   437    1
   345   292   287    1
   346   292   293    1
   347   295   294    2
   348   319   320    2
   349   484   483    1
   350   448   449   ar
   351   448   447   ar
   352   992   990    1
   353   593   588    1
   354   593   591    1
   355   593   604    1
   356   596   595    1
   357   480   485    1
   358   480   479    1
   359   588   587    1
   360   449   444   ar
   361   473   466   ar
   362   534   533    2
   363  1017  1023   ar
   364  1108  1107   ar
   365  1108  1109   ar
   366   441   442    1
   367   441   439    1
   368   441   443    1
   369   535   533   ar
   370   535   536   ar
   371   597   595   ar
   372   597   598   ar
   373  1099  1101    1
   374  1099  1100    1
   375   557   558    1
   376   557   556   ar
   377   573   571    1
   378   573   568    1
   379   573   574    1
   380   575   577   ar
   381   575   574   ar
   382  1023  1024    2
   383  1107  1106   ar
   384   485   483    1
   385   485   496    1
   386   467   466   ar
   387   467   468    2
   388   537   536    1
   389   479   477    1
   390   479   481    1
   391   301   283    2
   392   453   447   ar
   393   453   443    1
   394   488   487    1
   395   591   589    1
   396   533   532   ar
   397   595   594   ar
   398   439   437    1
   399   439   440    1
   400   555   556   ar
   401   555   561   ar
   402   587   585    1
   403   587   589    1
   404   464   463    1
   405   294   293   ar
   406   294   296   ar
   407   571   569    1
   408   285   283    1
   409   293   300   ar
   410   466   465    1
   411   536   538   ar
   412  1110  1109    1
   413   604   598   ar
   414   604   603   ar
   415   474   456    2
   416   447   446   ar
   417   489   487   ar
   418   489   490   ar
   419  1101  1102    1
   420   437   438    1
   421  1109  1104   ar
   422   598   599   ar
   423   611   616    1
   424   611   610    1
   425   577   578   ar
   426   444   445   ar
   427   999   998    2
   428   568   567    1
   429  1135  1116    2
   430   574   581   ar
   431   477   478    1
   432   483   481    1
   433   990   988    1
   434   990   991    1
   435   556   559   ar
   436   443   438    1
   437  1100  1116    1
   438   996   997    1
   439   996   991    1
   440   487   486   ar
   441   463   465    1
   442   463   461    1
   443   550   549    1
   444   551   561    1
   445   551   549    1
   446   551   546    1
   447  1106  1105   ar
   448   615   614    1
   449   616   617    1
   450   616   614    1
   451   585   586    1
   452   283   302    1
   453   283   266    1
   454   496   490   ar
   455   496   495   ar
   456   561   560   ar
   457   589   590    1
   458   594   600   ar
   459   296   297   ar
   460   532   531    1
   461   532   539   ar
   462   481   482    1
   463   490   491   ar
   464   610   608    1
   465   610   612    1
   466   300   299   ar
   467   603   602   ar
   468   998   997   ar
   469   998  1000   ar
   470   567   569    1
   471   567   565    1
   472   445   446   ar
   473   538   539   ar
   474   465   460    1
   475   590   607    1
   476   482   499    1
   477  1104  1105   ar
   478   997  1004   ar
   479   440   456    1
   480   599   600   ar
   481   599   602   ar
   482   608   609    1
   483   988   989    1
   484  1116  1118    1
   485  1116  1134    1
   486   458   456    1
   487   458   457    1
   488   549   547    1
   489   531   529    1
   490   531   526    1
   491   569   570    1
   492   456   475    1
   493   546   545    1
   494   619   618    2
   495   578   579    1
   496   578   580   ar
   497   581   580   ar
   498   530   529    1
   499   486   492   ar
   500   503   502    1
   501   503   508    1
   502   600   601    2
   503   617   618   ar
   504   617   624   ar
   505   559   560   ar
   506   614   612    1
   507   478   476    1
   508  1000  1001   ar
   509   570   584    1
   510   495   494   ar
   511   297   299   ar
   512   297   298    1
   513   989   987    1
   514   529   527    1
   515   461   459    1
   516   461   462    1
   517   618   620   ar
   518   272   271    1
   519   500   502    1
   520   500   501    1
   521   586   584    1
   522   502   504    1
   523   491   492   ar
   524   491   494   ar
   525  1004  1003   ar
   526  1118  1117    1
   527   460   459    1
   528   624   623   ar
   529   612   613    1
   530   266   265    1
   531   508   519    1
   532   508   506    1
   533   609   607    1
   534   507   506    1
   535   268   267    1
   536   457   459    1
   537   565   566    1
   538   492   493    2
   539  1001  1003   ar
   540  1001  1002    1
   541   497   476    2
   542   545   547    1
   543   545   543    1
   544   526   525    1
   545   607   625    2
   546   607   626    1
   547   620   621   ar
   548   499   520    2
   549   499   501    1
   550   499   521    1
   551   613   627    1
   552   462   476    1
   553   547   548    1
   554   584   605    2
   555   584   606    1
   556   623   621   ar
   557   476   498    1
   558   271   273   ar
   559   271   270   ar
   560   512   513   ar
   561   512   510   ar
   562   519   513   ar
   563   519   518   ar
   564  1005   987    2
   565   621   622    1
   566   267   265    1
   567   267   269    1
   568   506   504    1
   569   566   564    1
   570   987  1006    1
   571   987   973    1
   572  1120  1119    1
   573  1120  1125    1
   574   511   510    1
   575   273   274   ar
   576   513   514   ar
   577   265   263    1
   578   504   505    1
   579   527   525    1
   580   527   528    1
   581  1117  1119    1
   582   510   509   ar
   583   518   517   ar
   584   270   276   ar
   585   548   564    1
   586   543   544    1
   587   505   522    1
   588   525   523    1
   589  1119  1121    1
   590   631   630    1
   591   631   636    1
   592   514   517   ar
   593   514   515   ar
   594  1125  1126    1
   595  1125  1123    1
   596   528   542    1
   597   973   972    1
   598  1133  1126   ar
   599  1133  1132   ar
   600   509   515   ar
   601   627   647    2
   602   627   629    1
   603   627   648    1
   604   274   280   ar
   605   274   275   ar
   606   628   630    1
   607   628   629    1
   608   564   583    2
   609   564   582    1
   610   544   542    1
   611   975   974    1
   612   269   280    1
   613   269   264    1
   614   276   275   ar
   615   276   277    2
   616   515   516    2
   617   263   261    1
   618   263   264    1
   619  1126  1127   ar
   620   979   978    2
   621   630   632    1
   622  1132  1130   ar
   623   974   972    1
   624   974   976    1
   625   524   523    1
   626   524   522    1
   627   636   646    1
   628   636   634    1
   629  1124  1123    1
   630   541   522    2
   631   280   279   ar
   632   275   278   ar
   633   522   540    1
   634   972   970    1
   635  1121  1123    1
   636  1121  1122    1
   637   542   563    2
   638   542   562    1
   639   645   646   ar
   640   645   644   ar
   641   646   640   ar
   642   978   980   ar
   643   978   977   ar
   644   261   262    1
   645  1127  1128    2
   646  1127  1129   ar
   647   980   981   ar
   648   635   634    1
   649  1130  1129   ar
   650  1130  1131    2
   651  1122  1136    1
   652   279   278   ar
   653   262   260    1
   654   644   641   ar
   655   634   632    1
   656   640   639   ar
   657   640   641   ar
   658   976   977    1
   659   976   971    1
   660   632   633    1
   661   977   984   ar
   662   639   638   ar
   663   981   982    1
   664   981   983   ar
   665   641   642   ar
   666   970   971    1
   667   970   968    1
   668   281   260    2
   669   633   649    1
   670   638   637   ar
   671   984   983   ar
   672   260   282    1
   673   260   246    1
   674   642   637   ar
   675   642   643    1
   676   968   969    1
   677  1136  1157    2
   678  1136  1158    1
   679  1136  1138    1
   680   969   967    1
   681   961   960    1
   682   955   960   ar
   683   955   956   ar
   684   960   959   ar
   685  1138  1137    1
   686   653   652    1
   687   653   658    1
   688  1137  1139    1
   689   956   957   ar
   690   986   967    2
   691   246   245    1
   692  1140  1139    1
   693  1140  1145    1
   694   649   670    2
   695   649   669    1
   696   649   651    1
   697   967   985    1
   698   967   951    1
   699   650   652    1
   700   650   651    1
   701   652   654    1
   702  1155  1154   ar
   703  1155  1156   ar
   704  1139  1141    1
   705   959   958   ar
   706   959   962   ar
   707   658   668    1
   708   658   656    1
   709   667   668   ar
   710   667   666   ar
   711   247   248    1
   712   247   245    1
   713   247   249    1
   714   255   254    1
   715   252   251    2
   716   253   251   ar
   717   253   254   ar
   718   957   958   ar
   719   245   243    1
   720  1154  1151   ar
   721  1145  1156    1
   722  1145  1143    1
   723   251   250   ar
   724   668   662   ar
   725   254   256   ar
   726   958   964   ar
   727  1156  1150   ar
   728   962   963   ar
   729   666   663   ar
   730   657   656    1
   731   951   950    1
   732   250   249    1
   733   250   257   ar
   734   855   836    2
   735  1151  1150   ar
   736  1151  1152   ar
   737   256   257   ar
   738   656   654    1
   739   950   952    1
   740   950   948    1
   741   854   836    1
   742   662   663   ar
   743   662   661   ar
   744   654   655    1
   745   663   664   ar
   746  1150  1149   ar
   747   952   953    1
   748   952   954    1
   749   249   244    1
   750   963   964   ar
   751   964   954    1
   752  1141  1143    1
   753  1141  1142    1
   754  1143  1144    1
   755   243   241    1
   756   243   244    1
   757  1153  1152    2
   758   655   671    1
   759  1152  1146   ar
   760   836   838    1
   761   836   822    1
   762   661   660   ar
   763   877   856    2
   764   664   665    1
   765   664   659   ar
   766  1149  1147   ar
   767  1142  1159    1
   768   954   949    1
   769   242   241    1
   770   242   240    1
   771   838   837    1
   772   878   856    1
   773   940   939    1
   774   948   946    1
   775   948   949    1
   776   946   947    1
   777   660   659   ar
   778  1146  1147   ar
   779   837   839    1
   780   259   240    2
   781   966   945    2
   782  1147  1148    1
   783   856   842    1
   784   856   858    1
   785   693   671    2
   786   947   945    1
   787  1178  1159    2
   788   900   879    2
   789   235   234    2
   790   240   258    1
   791   240   226    1
   792   671   692    1
   793   671   673    1
   794   822   821    1
   795   901   879    1
   796  1174  1173    2
   797   939   938   ar
   798   939   941   ar
   799  1159  1177    1
   800  1159  1161    1
   801   938   936   ar
   802   835   816    2
   803  1175  1173   ar
   804  1175  1176   ar
   805   945   965    1
   806   945   931    1
   807   842   841    1
   808   234   233   ar
   809   234   236   ar
   810  1173  1172   ar
   811   879   881    1
   812   879   862    1
   813   858   857    1
   814   821   823    1
   815   821   819    1
   816   688   687    2
   817   233   231   ar
   818   924   902    2
   819   941   942   ar
   820   839   841    1
   821   839   840    1
   822   689   690   ar
   823   689   686   ar
   824   818   816    1
   825   818   817    1
   826   832   833   ar
   827   832   830   ar
   828   834   816    1
   829  1176  1169   ar
   830   831   830    1
   831   673   672    1
   832   236   237   ar
   833   841   843    1
   834   814   794    2
   835   687   686   ar
   836   687   681   ar
   837   816   800    1
   838   690   691   ar
   839   936   937    2
   840   936   935   ar
   841   686   685   ar
   842  1161  1160    1
   843  1172  1170   ar
   844   833   826   ar
   845   830   829   ar
   846   919   918    2
   847   857   859    1
   848   823   824    1
   849   823   825    1
   850   231   232    2
   851   231   230   ar
   852   226   225    1
   853   675   680    1
   854   675   674    1
   855   944   925    2
   856   817   819    1
   857   881   880    1
   858   862   861    1
   859  1163  1168    1
   860  1163  1162    1
   861   672   674    1
   862   815   794    1
   863   681   682   ar
   864   239   220    2
   865  1169  1170   ar
   866  1169  1168    1
   867   942   935   ar
   868   691   685   ar
   869   691   680    1
   870   225   227    1
   871   225   223    1
   872   685   684   ar
   873   237   230   ar
   874  1160  1162    1
   875   227   228    1
   876   227   229    1
   877   819   820    1
   878  1170  1171    2
   879   931   930    1
   880   840   845    1
   881   230   229    1
   882   935   934    1
   883   829   827   ar
   884   826   827   ar
   885   826   825    1
   886   930   932    1
   887   930   928    1
   888   794   796    1
   889   794   780    1
   890   902   923    1
   891   902   904    1
   892   902   885    1
   893   927   925    1
   894   927   926    1
   895   682   684   ar
   896   682   683    1
   897   792   774    2
   898   861   859    1
   899   861   863    1
   900   880   882    1
   901   918   917   ar
   902   918   912   ar
   903   680   678    1
   904  1168  1166    1
   905   920   917   ar
   906   920   921   ar
   907   674   676    1
   908   932   934    1
   909   932   933    1
   910   827   828    2
   911   925   943    1
   912   925   908    1
   913   825   820    1
   914   222   220    1
   915   222   221    1
   916  1162  1164    1
   917   859   860    1
   918   796   795    1
   919   843   844    1
   920   843   845    1
   921   917   916   ar
   922   229   224    1
   923   800   799    1
   924   875   874   ar
   925   875   876   ar
   926   874   871   ar
   927   897   898   ar
   928   897   894   ar
   929   904   903    1
   930   220   204    1
   931   220   238    1
   932   912   913   ar
   933   853   852   ar
   934   853   846   ar
   935   793   774    1
   936   934   929    1
   937   845   846    1
   938   795   797    1
   939   926   928    1
   940   921   922   ar
   941   885   884    1
   942   898   899   ar
   943   928   929    1
   944   223   221    1
   945   223   224    1
   946   852   850   ar
   947   774   776    1
   948   774   760    1
   949   799   797    1
   950   799   801    1
   951   884   882    1
   952   884   886    1
   953  1194  1193    1
   954   896   895    2
   955   780   779    1
   956   204   203    1
   957   846   847   ar
   958   882   883    1
   959   860   865    1
   960   863   865    1
   961   863   864    1
   962   676   678    1
   963   676   677    1
   964  1164  1166    1
   965  1164  1165    1
   966   916   922   ar
   967   916   915   ar
   968   678   679    1
   969  1166  1167    1
   970   894   895   ar
   971   894   893   ar
   972   776   775    1
   973   903   905    1
   974   876   865    1
   975   876   870   ar
   976   908   907    1
   977   913   915   ar
   978   913   914    1
   979   907   905    1
   980   907   909    1
   981   811   812   ar
   982   811   808   ar
   983   922   911    1
   984   797   798    1
   985   871   872   ar
   986   871   870   ar
   987   895   889   ar
   988   775   777    1
   989   812   813   ar
   990   883   888    1
   991   192   191    1
   992   873   872    2
   993   850   851    1
   994   850   849   ar
   995   899   893   ar
   996   899   888    1
   997   206   205    1
   998  1193  1195   ar
   999  1193  1192   ar
  1000   810   809    1
  1001   779   777    1
  1002   779   781    1
  1003   847   849   ar
  1004   847   848    2
  1005   709   708    2
  1006   801   803    1
  1007   801   802    1
  1008   760   759    1
  1009   872   866   ar
  1010   886   888    1
  1011   886   887    1
  1012   808   809   ar
  1013   808   807   ar
  1014   870   869   ar
  1015   905   906    1
  1016   893   892   ar
  1017   713   694    2
  1018  1195  1196   ar
  1019   909   911    1
  1020   909   910    1
  1021  1192  1190   ar
  1022   191   186   ar
  1023   191   190   ar
  1024   677   694    1
  1025   809   804   ar
  1026   186   187   ar
  1027   203   205    1
  1028   203   201    1
  1029   813   807   ar
  1030   813   803    1
  1031  1165  1179    1
  1032   777   778    1
  1033   798   803    1
  1034   906   911    1
  1035   205   207    1
  1036   889   890   ar
  1037   807   806   ar
  1038   171   170    2
  1039   710   708   ar
  1040   710   711   ar
  1041   708   707   ar
  1042   190   193   ar
  1043   190   189   ar
  1044   187   188   ar
  1045  1198  1179    2
  1046   772   754    2
  1047   804   805   ar
  1048   193   194   ar
  1049   781   782    1
  1050   781   783    1
  1051   694   712    1
  1052   694   696    1
  1053  1196  1189   ar
  1054   201   199    1
  1055   201   202    1
  1056  1190  1189   ar
  1057  1190  1191    2
  1058   892   890   ar
  1059   759   757    1
  1060   759   761    1
  1061   790   791   ar
  1062   790   788   ar
  1063   866   867   ar
  1064   791   784   ar
  1065   869   867   ar
  1066   806   805   ar
  1067   890   891    1
  1068   773   754    1
  1069   755   756    1
  1070   755   757    1
  1071  1214  1213    1
  1072  1179  1197    1
  1073  1179  1181    1
  1074   189   188   ar
  1075   189   195   ar
  1076   199   200    1
  1077   756   754    1
  1078  1189  1188    1
  1079   170   169   ar
  1080   170   172   ar
  1081   778   783    1
  1082   754   740    1
  1083   194   195   ar
  1084   867   868    1
  1085   169   167   ar
  1086   757   758    1
  1087   711   704   ar
  1088   200   198    1
  1089   207   202    1
  1090   207   217    1
  1091   195   185    1
  1092   783   784    1
  1093   784   785   ar
  1094   788   789    2
  1095   788   787   ar
  1096   707   705   ar
  1097   184   183    1
  1098   762   761    1
  1099  1183  1188    1
  1100  1183  1182    1
  1101   183   185    1
  1102   183   181    1
  1103   696   695    1
  1104   761   763    1
  1105  1231  1230    1
  1106  1181  1180    1
  1107   210   209   ar
  1108   210   211   ar
  1109   172   173   ar
  1110  1213  1212   ar
  1111  1213  1215   ar
  1112  1188  1186    1
  1113  1229  1230   ar
  1114  1229  1235   ar
  1115  1236  1235    2
  1116  1212  1210   ar
  1117   167   168    2
  1118   167   166   ar
  1119   185   180    1
  1120  1180  1182    1
  1121   787   785   ar
  1122   785   786    2
  1123   209   208   ar
  1124   217   211   ar
  1125   217   216   ar
  1126   211   212   ar
  1127  1230  1232   ar
  1128   704   705   ar
  1129   704   703    1
  1130  1235  1234   ar
  1131   740   739    1
  1132   758   763    1
  1133  1215  1216   ar
  1134   705   706    2
  1135   181   182    1
  1136   181   179    1
  1137  1182  1184    1
  1138   173   166   ar
  1139   695   697    1
  1140   198   182    1
  1141   198   218    2
  1142   198   219    1
  1143   166   165    1
  1144   763   764    1
  1145   753   734    2
  1146   739   741    1
  1147   739   737    1
  1148   216   215   ar
  1149  1210  1211    2
  1150  1210  1209   ar
  1151   752   734    1
  1152   208   213   ar
  1153  1186  1184    1
  1154  1186  1187    1
  1155   742   741    1
  1156   212   213   ar
  1157   212   215   ar
  1158   698   703    1
  1159   698   697    1
  1160   180   179    1
  1161  1184  1185    1
  1162   736   734    1
  1163   736   735    1
  1164   771   764   ar
  1165   771   770   ar
  1166   764   765   ar
  1167  1232  1233   ar
  1168   734   720    1
  1169   703   701    1
  1170   701   702    1
  1171   701   699    1
  1172   160   165    1
  1173   160   159    1
  1174  1216  1209   ar
  1175  1253  1252   ar
  1176  1253  1254   ar
  1177  1234  1233   ar
  1178  1234  1237   ar
  1179   213   214    1
  1180   741   743    1
  1181  1252  1257   ar
  1182   165   163    1
  1183   697   699    1
  1184   179   177    1
  1185  1209  1208    1
  1186   735   737    1
  1187   770   768   ar
  1188   766   765    2
  1189   765   767   ar
  1190  1233  1239   ar
  1191   737   738    1
  1192  1254  1255   ar
  1193   174   156    2
  1194   699   700    1
  1195   768   767   ar
  1196   768   769    1
  1197  1237  1238   ar
  1198  1257  1258    1
  1199  1257  1256   ar
  1200  1185  1199    1
  1201   158   157    1
  1202   158   156    1
  1203   159   157    1
  1204   159   161    1
  1205  1276  1275    2
  1206   177   178    1
  1207  1208  1203    1
  1208  1208  1206    1
  1209   720   719    1
  1210  1255  1256   ar
  1211  1255  1261   ar
  1212  1272  1271    1
  1213  1218  1199    2
  1214   743   738    1
  1215   743   744    1
  1216   163   164    1
  1217   163   161    1
  1218  1256  1259   ar
  1219  1239  1238   ar
  1220  1239  1228    1
  1221  1203  1202    1
  1222   156   140    1
  1223   156   175    1
  1224  1292  1291    1
  1225  1273  1268    1
  1226  1273  1271    1
  1227  1273  1274    1
  1228  1199  1201    1
  1229  1199  1217    1
  1230   719   717    1
  1231   719   721    1
  1232   700   714    1
  1233  1275  1274   ar
  1234  1275  1277   ar
  1235  1261  1251    1
  1236  1261  1260   ar
  1237   140   139    1
  1238  1251  1249    1
  1239  1251  1246    1
  1240  1288  1293    1
  1241  1288  1287    1
  1242  1268  1267    1
  1243   161   162    1
  1244  1250  1249    1
  1245  1201  1200    1
  1246   715   717    1
  1247   715   716    1
  1248  1293  1291    1
  1249  1293  1294    1
  1250   717   718    1
  1251   162   176    1
  1252   178   176    1
  1253  1228  1223    1
  1254  1228  1226    1
  1255  1271  1269    1
  1256  1259  1260   ar
  1257   744   751   ar
  1258   744   745   ar
  1259  1274  1281   ar
  1260  1206  1204    1
  1261  1206  1207    1
  1262   142   141    1
  1263  1296  1295    2
  1264  1277  1278   ar
  1265  1249  1247    1
  1266  1287  1285    1
  1267  1287  1289    1
  1268   751   750   ar
  1269   733   714    2
  1270  1291  1289    1
  1271  1200  1202    1
  1272  1202  1204    1
  1273   141   139    1
  1274   141   143    1
  1275   716   714    1
  1276  1267  1269    1
  1277  1267  1265    1
  1278  1246  1245    1
  1279   746   745    2
  1280   714   732    1
  1281  1223  1222    1
  1282   139   137    1
  1283  1204  1205    1
  1284   745   747   ar
  1285  1294  1295   ar
  1286  1294  1301   ar
  1287  1295  1297   ar
  1288   722   721    1
  1289   721   723    1
  1290   176   196    2
  1291   176   197    1
  1292  1226  1227    1
  1293  1226  1224    1
  1294  1285  1286    1
  1295  1281  1280   ar
  1296  1269  1270    1
  1297  1278  1280   ar
  1298  1278  1279    1
  1299  1289  1290    1
  1300   750   748   ar
  1301  1308  1307    1
  1302  1308  1313    1
  1303   718   723    1
  1304  1290  1304    1
  1305   145   146   ar
  1306   145   144   ar
  1307   146   147   ar
  1308  1270  1284    1
  1309  1265  1266    1
  1310  1307  1305    1
  1311  1307  1309    1
  1312  1301  1300   ar
  1313  1297  1298   ar
  1314   723   724    1
  1315  1305  1306    1
  1316  1247  1245    1
  1317  1247  1248    1
  1318   747   748   ar
  1319  1245  1243    1
  1320  1313  1323    1
  1321  1313  1311    1
  1322  1312  1311    1
  1323   144   149   ar
  1324   143   153    1
  1325   143   138    1
  1326   137   135    1
  1327   137   138    1
  1328   147   153   ar
  1329   147   148   ar
  1330   748   749    2
  1331  1224  1222    1
  1332  1224  1225    1
  1333  1286  1284    1
  1334  1222  1220    1
  1335  1205  1219    1
  1336  1221  1220    1
  1337  1221  1219    1
  1338   153   152   ar
  1339  1241  1219    2
  1340   149   148   ar
  1341   149   150    1
  1342  1248  1264    1
  1343  1300  1298   ar
  1344  1324  1304    2
  1345  1298  1299    2
  1346   148   151   ar
  1347  1306  1304    1
  1348  1323  1322   ar
  1349  1323  1317   ar
  1350  1311  1309    1
  1351  1304  1325    1
  1352  1266  1264    1
  1353  1284  1302    2
  1354  1284  1303    1
  1355   135   136    1
  1356  1219  1240    1
  1357  1309  1310    1
  1358   152   151   ar
  1359  1244  1243    1
  1360  1244  1242    1
  1361  1322  1321   ar
  1362  1263  1242    2
  1363   724   731   ar
  1364   724   725   ar
  1365  1310  1326    1
  1366  1316  1317   ar
  1367  1316  1315   ar
  1368  1317  1318   ar
  1369   136   134    1
  1370  1225  1242    1
  1371   731   730   ar
  1372  1264  1283    2
  1373  1264  1282    1
  1374   726   725    2
  1375  1242  1262    1
  1376  1321  1318   ar
  1377  1318  1319   ar
  1378  1315  1314   ar
  1379  1344  1326    2
  1380   725   727   ar
  1381   154   134    2
  1382   134   155    1
  1383   134   120    1
  1384  1326  1345    1
  1385  1326  1328    1
  1386  1314  1319   ar
  1387  1319  1320    1
  1388   730   728   ar
  1389  1327  1328    1
  1390  1327  1329    1
  1391   126   125    2
  1392  1330  1329    1
  1393  1330  1335    1
  1394   727   728   ar
  1395   127   125   ar
  1396   127   128   ar
  1397   129   128    2
  1398   125   124   ar
  1399   122   121    1
  1400   120   119    1
  1401  1329  1331    1
  1402   728   729    2
  1403   121   119    1
  1404   121   123    1
  1405   128   130   ar
  1406  1343  1342   ar
  1407  1343  1336   ar
  1408  1342  1340   ar
  1409  1335  1336    1
  1410  1335  1333    1
  1411   119   117    1
  1412  1336  1337   ar
  1413   124   123    1
  1414   124   131   ar
  1415  1340  1341    2
  1416  1340  1339   ar
  1417  1337  1339   ar
  1418  1337  1338    2
  1419   130   131   ar
  1420   123   118    1
  1421  1331  1333    1
  1422  1331  1332    1
  1423  1333  1334    1
  1424   117   118    1
  1425   117   115    1
  1426   133   114    2
  1427   108   107    1
  1428   116   115    1
  1429   116   114    1
  1430   114   132    1
  1431   114    98    1
  1432   107   102   ar
  1433   107   106   ar
  1434   102   103   ar
  1435   103   104   ar
  1436   106   109   ar
  1437   106   105   ar
  1438   109   110   ar
  1439    22     1    1
  1440   105   104   ar
  1441   105   111   ar
  1442    98    97    1
  1443   110   111   ar
  1444   113    92    2
  1445    97    99    1
  1446    97    95    1
  1447    99   100    1
  1448    99   101    1
  1449    46    24    2
  1450   111   101    1
  1451     1    23    1
  1452     1     3    1
  1453   101    96    1
  1454     2     3    1
  1455     2     4    1
  1456     7    24    1
  1457     7     6    1
  1458    92    94    1
  1459    92   112    1
  1460    94    93    1
  1461    24    45    1
  1462    24    26    1
  1463    95    93    1
  1464    95    96    1
  1465    68    47    2
  1466     4     6    1
  1467     4     5    1
  1468     6     8    1
  1469    26    25    1
  1470    67    47    1
  1471  1384  1383    2
  1472    47    49    1
  1473    47    30    1
  1474    63    62    1
  1475    25    27    1
  1476    49    48    1
  1477  1383  1385   ar
  1478  1383  1382   ar
  1479    64    61   ar
  1480    64    65   ar
  1481     5    10    1
  1482  1385  1386   ar
  1483  1388  1369    2
  1484    62    61   ar
  1485    62    57   ar
  1486     8     9    1
  1487     8    10    1
  1488    61    60   ar
  1489    20    19   ar
  1490    20    21   ar
  1491    42    43   ar
  1492    42    39   ar
  1493  1382  1380   ar
  1494    65    66   ar
  1495  1369  1371    1
  1496  1369  1387    1
  1497    53    52    1
  1498    57    58   ar
  1499    43    44   ar
  1500  1386  1379   ar
  1501    52    54    1
  1502    52    50    1
  1503    30    29    1
  1504    19    16   ar
  1505    10    21    1
  1506    29    27    1
  1507    29    31    1
  1508    27    28    1
  1509    41    40    2
  1510    60    66   ar
  1511    60    59   ar
  1512    21    15   ar
  1513  1380  1379   ar
  1514  1380  1381    2
  1515    48    50    1
  1516    66    56    1
  1517  1379  1378    1
  1518  1371  1370    1
  1519    54    56    1
  1520    54    55    1
  1521    58    59   ar
  1522    39    40   ar
  1523    39    38   ar
  1524  1373  1378    1
  1525  1373  1372    1
  1526    28    33    1
  1527    40    34   ar
  1528    50    51    1
  1529    44    38   ar
  1530    44    33    1
  1531  1404  1403    1
  1532    16    15   ar
  1533    16    17   ar
  1534    56    51    1
  1535  1378  1376    1
  1536    15    14   ar
  1537  1370  1372    1
  1538    31    33    1
  1539    31    32    1
  1540    38    37   ar
  1541  1372  1374    1
  1542    18    17    2
  1543    34    35   ar
  1544    17    11   ar
  1545  1403  1402   ar
  1546  1403  1405   ar
  1547    14    12   ar
  1548  1402  1400   ar
  1549    37    35   ar
  1550  1405  1406   ar
  1551    35    36    1
  1552  1376  1374    1
  1553  1376  1377    1
  1554    11    12   ar
  1555  1374  1375    1
  1556    12    13    1
  1557  1400  1401    2
  1558  1400  1399   ar
  1559  1424  1423    1
  1560  1406  1399   ar
  1561  1399  1398    1
  1562  1375  1389    1
  1563  1408  1389    2
  1564  1423  1422   ar
  1565  1423  1425   ar
  1566  1422  1420   ar
  1567  1398  1393    1
  1568  1398  1396    1
  1569  1393  1392    1
  1570  1389  1391    1
  1571  1389  1407    1
  1572  1425  1426   ar
  1573  1420  1421    2
  1574  1420  1419   ar
  1575  1391  1390    1
  1576  1426  1419   ar
  1577  1419  1418    1
  1578  1396  1394    1
  1579  1396  1397    1
  1580  1390  1392    1
  1581  1392  1394    1
  1582  1394  1395    1
  1583  1418  1413    1
  1584  1418  1416    1
  1585  1413  1412    1
  1586  1416  1417    1
  1587  1416  1414    1
  1588  1395  1409    1
  1589  1428  1409    2
  1590  1411  1409    1
  1591  1411  1410    1
  1592  1412  1414    1
  1593  1412  1410    1
  1594  1409  1427    1
  1595  1414  1415    1
