ligand
  PyMOL2.3          3D                             0

 12 12  0  0  0  0  0  0  0  0999 V2000
  -22.3380  -11.4790   96.3830 C   0  0  0  0  0  0  0  0  0  0  0  0
  -19.5830   -6.9100   95.0370 C   0  0  0  0  0  0  0  0  0  0  0  0
  -19.7600  -11.5470   95.6200 N   0  0  0  0  0  0  0  0  0  0  0  0
  -23.1960  -12.0970   95.3620 N   0  0  0  0  0  0  0  0  0  0  0  0
  -24.2800  -11.8140   95.4020 N   0  0  0  0  0  0  0  0  0  0  0  0
  -25.3630  -11.5280   95.4380 N   0  0  0  0  0  0  0  0  0  0  0  0
  -21.5880   -7.9610   95.7070 N   0  0  0  0  0  0  0  0  0  0  0  0
  -20.3000   -8.0580   95.3520 C   0  0  0  0  0  0  0  0  0  0  0  0
  -19.7090   -9.2560   95.2310 N   0  0  0  0  0  0  0  0  0  0  0  0
  -20.3890  -10.3860   95.4740 C   0  0  0  0  0  0  0  0  0  0  0  0
  -21.7250  -10.3490   95.8560 C   0  0  0  0  0  0  0  0  0  0  0  0
  -22.3450   -9.1100   95.9650 C   0  0  0  0  0  0  0  0  0  0  0  0
  1 11  1  0  0  0  0
  1  4  1  0  0  0  0
  4  5  1  0  0  0  0
  5  6  1  0  0  0  0
  7  8  4  0  0  0  0
  2  8  1  0  0  0  0
  8  9  4  0  0  0  0
  9 10  4  0  0  0  0
  3 10  1  0  0  0  0
 10 11  4  0  0  0  0
 11 12  4  0  0  0  0
  7 12  4  0  0  0  0
M  END
$$$$
